
     RDKit          3D

254277  0  0  0  0  0  0  0  0999 V2000
    1.0334    3.5792    2.0080 C   0  0  0  0  0  0  0  0  0  0  0  0
    1.0317    3.0219    3.2784 C   0  0  0  0  0  0  0  0  0  0  0  0
   -0.2072    2.4662    3.6549 C   0  0  0  0  0  0  0  0  0  0  0  0
   -0.4970    1.7613    4.8516 C   0  0  0  0  0  0  0  0  0  0  0  0
    0.4389    1.7798    5.9969 C   0  0  0  0  0  0  0  0  0  0  0  0
    0.0484    2.4113    7.1807 C   0  0  0  0  0  0  0  0  0  0  0  0
    0.9979    2.7557    8.1478 C   0  0  0  0  0  0  0  0  0  0  0  0
    2.3446    2.4624    7.9376 C   0  0  0  0  0  0  0  0  0  0  0  0
    3.5810    3.1549    9.0389 S   0  0  0  0  0  0  0  0  0  0  0  0
    3.6962    4.7067    8.0796 C   0  0  0  0  0  0  0  0  0  0  0  0
    4.5595    5.7273    8.8129 C   0  0  0  0  0  0  0  0  0  0  0  0
    2.7345    1.7248    6.8107 C   0  0  0  0  0  0  0  0  0  0  0  0
    4.0393    1.4071    6.6071 F   0  0  0  0  0  0  0  0  0  0  0  0
    1.7800    1.3790    5.8490 C   0  0  0  0  0  0  0  0  0  0  0  0
   -1.7826    1.2056    4.9521 C   0  0  0  0  0  0  0  0  0  0  0  0
   -2.7729    1.4568    3.9962 C   0  0  0  0  0  0  0  0  0  0  0  0
   -2.5081    2.2086    2.8416 C   0  0  0  0  0  0  0  0  0  0  0  0
   -3.5666    2.3897    1.8206 C   0  0  0  0  0  0  0  0  0  0  0  0
   -4.0023    1.2561    1.1281 C   0  0  0  0  0  0  0  0  0  0  0  0
   -5.3074    1.1786    0.6416 C   0  0  0  0  0  0  0  0  0  0  0  0
   -6.1575    2.2824    0.7216 C   0  0  0  0  0  0  0  0  0  0  0  0
   -7.8766    2.1025    0.2000 S   0  0  0  0  0  0  0  0  0  0  0  0
   -7.5638    2.3567   -1.5788 C   0  0  0  0  0  0  0  0  0  0  0  0
   -7.6762    3.8330   -1.9053 C   0  0  0  0  0  0  0  0  0  0  0  0
   -5.7010    3.4642    1.3244 C   0  0  0  0  0  0  0  0  0  0  0  0
   -4.4144    3.5095    1.8874 C   0  0  0  0  0  0  0  0  0  0  0  0
   -6.5377    4.5213    1.4709 F   0  0  0  0  0  0  0  0  0  0  0  0
   -1.1920    2.6496    2.6787 C   0  0  0  0  0  0  0  0  0  0  0  0
   -0.5136    3.4201    1.3570 S   0  0  0  0  0  0  0  0  0  0  0  0
   -3.9677    0.7741    4.2335 C   0  0  0  0  0  0  0  0  0  0  0  0
   -3.8894   -0.1124    5.2862 C   0  0  0  0  0  0  0  0  0  0  0  0
   -2.3712    0.0570    6.0426 S   0  0  0  0  0  0  0  0  0  0  0  0
   -4.8773   -1.1795    5.4738 C   0  0  0  0  0  0  0  0  0  0  0  0
   -5.5297   -1.3942    6.5971 C   0  0  0  0  0  0  0  0  0  0  0  0
   -6.7102   -2.2778    6.3326 C   0  0  0  0  0  0  0  0  0  0  0  0
   -6.5989   -3.5292    7.0814 N   0  0  0  0  0  4  0  0  0  0  0  0
   -5.5280   -4.3664    6.8742 O   0  0  0  0  0  1  0  0  0  0  0  0
   -7.4647   -3.8524    7.9145 O   0  0  0  0  0  0  0  0  0  0  0  0
   -6.6051   -2.5243    4.8553 C   0  0  0  0  0  0  0  0  0  0  0  0
   -7.6952   -3.2372    4.0791 C   0  0  0  0  0  0  0  0  0  0  0  0
   -7.2916   -4.6069    3.6315 C   0  0  0  0  0  0  0  0  0  0  0  0
   -7.4311   -4.7202    2.3132 C   0  0  0  0  0  0  0  0  0  0  0  0
   -7.8935   -3.4610    1.7714 C   0  0  0  0  0  0  0  0  0  0  0  0
   -8.0360   -2.5907    2.7663 C   0  0  0  0  0  0  0  0  0  0  0  0
   -8.4397   -1.2312    2.6022 N   0  0  0  0  0  4  0  0  0  0  0  0
   -8.4325   -0.3782    3.6759 O   0  0  0  0  0  1  0  0  0  0  0  0
   -8.8174   -0.8037    1.4859 O   0  0  0  0  0  0  0  0  0  0  0  0
   -5.5229   -1.9025    4.3692 C   0  0  0  0  0  0  0  0  0  0  0  0
   -4.9150   -2.0879    3.0186 C   0  0  0  0  0  0  0  0  0  0  0  0
   -4.5738   -3.3167    2.6164 C   0  0  0  0  0  0  0  0  0  0  0  0
   -3.6488   -3.6262    1.4976 C   0  0  0  0  0  0  0  0  0  0  0  0
   -2.7094   -4.5515    1.6921 C   0  0  0  0  0  0  0  0  0  0  0  0
   -2.2315   -5.0944    0.3999 C   0  0  0  0  0  0  0  0  0  0  0  0
   -2.4633   -6.5368    0.3140 N   0  0  0  0  0  4  0  0  0  0  0  0
   -1.3825   -7.3764    0.1619 O   0  0  0  0  0  1  0  0  0  0  0  0
   -3.5580   -7.0213    0.6761 O   0  0  0  0  0  0  0  0  0  0  0  0
   -3.0563   -4.3269   -0.5938 C   0  0  0  0  0  0  0  0  0  0  0  0
   -2.7418   -4.3847   -2.0775 C   0  0  0  0  0  0  0  0  0  0  0  0
   -2.7381   -5.7865   -2.5934 C   0  0  0  0  0  0  0  0  0  0  0  0
   -1.5818   -6.0785   -3.1587 C   0  0  0  0  0  0  0  0  0  0  0  0
   -0.6999   -4.9341   -3.0521 C   0  0  0  0  0  0  0  0  0  0  0  0
   -1.3398   -3.9631   -2.4121 C   0  0  0  0  0  0  0  0  0  0  0  0
   -0.7971   -2.6492   -2.1932 N   0  0  0  0  0  4  0  0  0  0  0  0
    0.3895   -2.2793   -2.7948 O   0  0  0  0  0  1  0  0  0  0  0  0
   -1.3084   -1.8945   -1.3426 O   0  0  0  0  0  0  0  0  0  0  0  0
   -3.8596   -3.4435    0.0362 C   0  0  0  0  0  0  0  0  0  0  0  0
   -4.3433   -2.1898   -0.6029 C   0  0  0  0  0  0  0  0  0  0  0  0
   -5.0091   -2.1749   -1.7703 C   0  0  0  0  0  0  0  0  0  0  0  0
   -4.6792   -1.1776   -2.8300 C   0  0  0  0  0  0  0  0  0  0  0  0
   -4.3051    0.1546   -2.6318 C   0  0  0  0  0  0  0  0  0  0  0  0
   -3.5608    0.6883   -3.6989 C   0  0  0  0  0  0  0  0  0  0  0  0
   -2.9074    1.9382   -3.7080 C   0  0  0  0  0  0  0  0  0  0  0  0
   -3.3185    3.0733   -2.8542 C   0  0  0  0  0  0  0  0  0  0  0  0
   -4.4233    3.8431   -3.2494 C   0  0  0  0  0  0  0  0  0  0  0  0
   -4.6126    5.1262   -2.7295 C   0  0  0  0  0  0  0  0  0  0  0  0
   -3.7159    5.6443   -1.7865 C   0  0  0  0  0  0  0  0  0  0  0  0
   -3.7917    7.3846   -1.3229 S   0  0  0  0  0  0  0  0  0  0  0  0
   -4.7986    7.1332    0.1739 C   0  0  0  0  0  0  0  0  0  0  0  0
   -6.2759    7.2614   -0.1563 C   0  0  0  0  0  0  0  0  0  0  0  0
   -2.6656    4.8491   -1.3207 C   0  0  0  0  0  0  0  0  0  0  0  0
   -1.8125    5.3477   -0.4076 F   0  0  0  0  0  0  0  0  0  0  0  0
   -2.4650    3.5635   -1.8517 C   0  0  0  0  0  0  0  0  0  0  0  0
   -1.8909    2.1084   -4.6582 C   0  0  0  0  0  0  0  0  0  0  0  0
   -1.5841    1.1540   -5.6289 C   0  0  0  0  0  0  0  0  0  0  0  0
   -2.3770   -0.0073   -5.7476 C   0  0  0  0  0  0  0  0  0  0  0  0
   -2.2804   -0.9001   -6.9241 C   0  0  0  0  0  0  0  0  0  0  0  0
   -1.1038   -1.6190   -7.2034 C   0  0  0  0  0  0  0  0  0  0  0  0
   -0.9619   -2.2930   -8.4192 C   0  0  0  0  0  0  0  0  0  0  0  0
   -1.9972   -2.2627   -9.3650 C   0  0  0  0  0  0  0  0  0  0  0  0
   -1.7849   -3.0800  -10.9622 S   0  0  0  0  0  0  0  0  0  0  0  0
   -0.9534   -1.6657  -11.7734 C   0  0  0  0  0  0  0  0  0  0  0  0
   -1.9439   -0.5733  -12.1572 C   0  0  0  0  0  0  0  0  0  0  0  0
   -3.2056   -1.6164   -9.0583 C   0  0  0  0  0  0  0  0  0  0  0  0
   -3.3401   -0.9305   -7.8490 C   0  0  0  0  0  0  0  0  0  0  0  0
   -4.2251   -1.6115   -9.9518 F   0  0  0  0  0  0  0  0  0  0  0  0
   -3.3359   -0.2225   -4.7353 C   0  0  0  0  0  0  0  0  0  0  0  0
   -4.1093   -1.6655   -4.3539 S   0  0  0  0  0  0  0  0  0  0  0  0
   -0.3665    1.4174   -6.2950 C   0  0  0  0  0  0  0  0  0  0  0  0
    0.3178    2.5248   -5.7757 C   0  0  0  0  0  0  0  0  0  0  0  0
   -0.6841    3.2659   -4.6414 S   0  0  0  0  0  0  0  0  0  0  0  0
    1.7945    2.5627   -5.6258 C   0  0  0  0  0  0  0  0  0  0  0  0
    2.3967    3.2590   -4.5637 C   0  0  0  0  0  0  0  0  0  0  0  0
    3.4491    2.5653   -3.9497 C   0  0  0  0  0  0  0  0  0  0  0  0
    3.9501    2.7990   -2.6487 C   0  0  0  0  0  0  0  0  0  0  0  0
    3.6286    4.0103   -1.8644 C   0  0  0  0  0  0  0  0  0  0  0  0
    4.6744    4.8377   -1.4212 C   0  0  0  0  0  0  0  0  0  0  0  0
    4.3986    5.9665   -0.6499 C   0  0  0  0  0  0  0  0  0  0  0  0
    3.0763    6.2875   -0.3157 C   0  0  0  0  0  0  0  0  0  0  0  0
    2.7313    7.6853    0.7628 S   0  0  0  0  0  0  0  0  0  0  0  0
    2.3068    8.8446   -0.5799 C   0  0  0  0  0  0  0  0  0  0  0  0
    1.2899    9.8625   -0.0754 C   0  0  0  0  0  0  0  0  0  0  0  0
    2.0331    5.4779   -0.7703 C   0  0  0  0  0  0  0  0  0  0  0  0
    0.7524    5.7867   -0.4586 F   0  0  0  0  0  0  0  0  0  0  0  0
    2.3072    4.3337   -1.5236 C   0  0  0  0  0  0  0  0  0  0  0  0
    4.6992    1.7563   -2.0674 C   0  0  0  0  0  0  0  0  0  0  0  0
    5.0771    0.6173   -2.7817 C   0  0  0  0  0  0  0  0  0  0  0  0
    4.7042    0.4594   -4.1321 C   0  0  0  0  0  0  0  0  0  0  0  0
    5.1491   -0.7015   -4.9229 C   0  0  0  0  0  0  0  0  0  0  0  0
    4.6899   -1.9974   -4.6363 C   0  0  0  0  0  0  0  0  0  0  0  0
    5.2601   -3.1023   -5.2819 C   0  0  0  0  0  0  0  0  0  0  0  0
    6.2978   -2.9168   -6.2145 C   0  0  0  0  0  0  0  0  0  0  0  0
    7.0891   -4.3422   -6.9725 S   0  0  0  0  0  0  0  0  0  0  0  0
    8.2274   -4.6876   -5.5813 C   0  0  0  0  0  0  0  0  0  0  0  0
    9.3254   -3.6364   -5.4638 C   0  0  0  0  0  0  0  0  0  0  0  0
    6.7109   -1.6214   -6.5462 C   0  0  0  0  0  0  0  0  0  0  0  0
    6.1367   -0.5164   -5.9040 C   0  0  0  0  0  0  0  0  0  0  0  0
    7.6898   -1.4271   -7.4660 F   0  0  0  0  0  0  0  0  0  0  0  0
    3.8225    1.4183   -4.6586 C   0  0  0  0  0  0  0  0  0  0  0  0
    2.7714    1.2121   -5.9456 S   0  0  0  0  0  0  0  0  0  0  0  0
    5.6543   -0.3768   -1.9786 C   0  0  0  0  0  0  0  0  0  0  0  0
    5.6389   -0.0688   -0.6152 C   0  0  0  0  0  0  0  0  0  0  0  0
    5.0012    1.4892   -0.4295 S   0  0  0  0  0  0  0  0  0  0  0  0
    5.7471   -1.0776    0.4495 C   0  0  0  0  0  0  0  0  0  0  0  0
    6.1864   -2.3873    0.2538 C   0  0  0  0  0  0  0  0  0  0  0  0
    5.8624   -3.2509    1.3130 C   0  0  0  0  0  0  0  0  0  0  0  0
    6.0732   -4.6530    1.3427 C   0  0  0  0  0  0  0  0  0  0  0  0
    6.5634   -5.4183    0.1596 C   0  0  0  0  0  0  0  0  0  0  0  0
    5.9598   -5.2400   -1.0972 C   0  0  0  0  0  0  0  0  0  0  0  0
    6.4041   -5.9667   -2.2079 C   0  0  0  0  0  0  0  0  0  0  0  0
    7.4325   -6.9073   -2.0640 C   0  0  0  0  0  0  0  0  0  0  0  0
    8.0052   -7.8310   -3.4922 S   0  0  0  0  0  0  0  0  0  0  0  0
    6.6993   -9.1064   -3.4324 C   0  0  0  0  0  0  0  0  0  0  0  0
    5.7277   -8.9041   -4.5832 C   0  0  0  0  0  0  0  0  0  0  0  0
    8.0148   -7.1158   -0.8097 C   0  0  0  0  0  0  0  0  0  0  0  0
    9.0017   -8.0372   -0.6606 F   0  0  0  0  0  0  0  0  0  0  0  0
    7.5944   -6.3603    0.2956 C   0  0  0  0  0  0  0  0  0  0  0  0
    5.6635   -5.3258    2.5164 C   0  0  0  0  0  0  0  0  0  0  0  0
    5.0469   -4.6713    3.5859 C   0  0  0  0  0  0  0  0  0  0  0  0
    4.7836   -3.2867    3.5276 C   0  0  0  0  0  0  0  0  0  0  0  0
    3.9701   -2.6313    4.5729 C   0  0  0  0  0  0  0  0  0  0  0  0
    2.6008   -2.4282    4.3562 C   0  0  0  0  0  0  0  0  0  0  0  0
    1.7761   -2.0122    5.4155 C   0  0  0  0  0  0  0  0  0  0  0  0
    2.3183   -1.8089    6.6895 C   0  0  0  0  0  0  0  0  0  0  0  0
    1.2554   -1.3049    8.0525 S   0  0  0  0  0  0  0  0  0  0  0  0
    0.8937   -3.0014    8.6331 C   0  0  0  0  0  0  0  0  0  0  0  0
   -0.3401   -3.5523    7.9286 C   0  0  0  0  0  0  0  0  0  0  0  0
    3.6990   -1.9642    6.8932 C   0  0  0  0  0  0  0  0  0  0  0  0
    4.5185   -2.3799    5.8410 C   0  0  0  0  0  0  0  0  0  0  0  0
    4.2405   -1.7451    8.1185 F   0  0  0  0  0  0  0  0  0  0  0  0
    5.2182   -2.6023    2.3767 C   0  0  0  0  0  0  0  0  0  0  0  0
    5.0024   -0.9881    1.9656 S   0  0  0  0  0  0  0  0  0  0  0  0
    4.6691   -5.5362    4.6249 C   0  0  0  0  0  0  0  0  0  0  0  0
    4.9761   -6.8694    4.3756 C   0  0  0  0  0  0  0  0  0  0  0  0
    5.7119   -6.9752    2.8609 S   0  0  0  0  0  0  0  0  0  0  0  0
    1.8911    4.0377    1.5311 H   0  0  0  0  0  0  0  0  0  0  0  0
    1.9211    3.0236    3.8891 H   0  0  0  0  0  0  0  0  0  0  0  0
   -0.9834    2.7232    7.3187 H   0  0  0  0  0  0  0  0  0  0  0  0
    0.6820    3.3191    9.0219 H   0  0  0  0  0  0  0  0  0  0  0  0
    4.1439    4.4980    7.0848 H   0  0  0  0  0  0  0  0  0  0  0  0
    2.6807    5.1410    7.9313 H   0  0  0  0  0  0  0  0  0  0  0  0
    4.1342    5.9473    9.8140 H   0  0  0  0  0  0  0  0  0  0  0  0
    5.5943    5.3503    8.9146 H   0  0  0  0  0  0  0  0  0  0  0  0
    4.5840    6.6747    8.2253 H   0  0  0  0  0  0  0  0  0  0  0  0
    2.0957    0.8768    4.9436 H   0  0  0  0  0  0  0  0  0  0  0  0
   -3.3763    0.3791    1.1126 H   0  0  0  0  0  0  0  0  0  0  0  0
   -5.6742    0.2459    0.2300 H   0  0  0  0  0  0  0  0  0  0  0  0
   -8.3448    1.7987   -2.1394 H   0  0  0  0  0  0  0  0  0  0  0  0
   -6.5738    1.9774   -1.8768 H   0  0  0  0  0  0  0  0  0  0  0  0
   -6.8952    4.3793   -1.3440 H   0  0  0  0  0  0  0  0  0  0  0  0
   -8.6792    4.2183   -1.6273 H   0  0  0  0  0  0  0  0  0  0  0  0
   -7.5186    3.9824   -2.9963 H   0  0  0  0  0  0  0  0  0  0  0  0
   -4.1233    4.3800    2.4714 H   0  0  0  0  0  0  0  0  0  0  0  0
   -4.8483    0.8379    3.6063 H   0  0  0  0  0  0  0  0  0  0  0  0
   -5.3341   -0.8958    7.5382 H   0  0  0  0  0  0  0  0  0  0  0  0
   -7.6650   -1.7451    6.5680 H   0  0  0  0  0  0  0  0  0  0  0  0
   -8.6094   -3.3376    4.7165 H   0  0  0  0  0  0  0  0  0  0  0  0
   -6.9451   -5.4026    4.2777 H   0  0  0  0  0  0  0  0  0  0  0  0
   -7.1977   -5.6128    1.7382 H   0  0  0  0  0  0  0  0  0  0  0  0
   -8.0566   -3.2394    0.7294 H   0  0  0  0  0  0  0  0  0  0  0  0
   -4.4440   -1.2366    2.5148 H   0  0  0  0  0  0  0  0  0  0  0  0
   -4.7240   -4.1228    3.3192 H   0  0  0  0  0  0  0  0  0  0  0  0
   -2.4497   -4.9723    2.6545 H   0  0  0  0  0  0  0  0  0  0  0  0
   -1.1507   -4.8663    0.2731 H   0  0  0  0  0  0  0  0  0  0  0  0
   -3.4421   -3.8345   -2.7083 H   0  0  0  0  0  0  0  0  0  0  0  0
   -3.5768   -6.4680   -2.5434 H   0  0  0  0  0  0  0  0  0  0  0  0
   -1.3313   -7.0299   -3.6012 H   0  0  0  0  0  0  0  0  0  0  0  0
    0.3083   -4.8725   -3.4363 H   0  0  0  0  0  0  0  0  0  0  0  0
   -3.8207   -1.2913   -0.3057 H   0  0  0  0  0  0  0  0  0  0  0  0
   -5.4639   -3.0984   -2.1059 H   0  0  0  0  0  0  0  0  0  0  0  0
   -4.4463    0.6900   -1.7149 H   0  0  0  0  0  0  0  0  0  0  0  0
   -5.0796    3.4892   -4.0342 H   0  0  0  0  0  0  0  0  0  0  0  0
   -5.4248    5.7401   -3.0931 H   0  0  0  0  0  0  0  0  0  0  0  0
   -4.5842    6.1472    0.6376 H   0  0  0  0  0  0  0  0  0  0  0  0
   -4.5319    7.9132    0.9129 H   0  0  0  0  0  0  0  0  0  0  0  0
   -6.8863    7.1146    0.7598 H   0  0  0  0  0  0  0  0  0  0  0  0
   -6.5666    6.5020   -0.9050 H   0  0  0  0  0  0  0  0  0  0  0  0
   -6.4875    8.2651   -0.5736 H   0  0  0  0  0  0  0  0  0  0  0  0
   -1.5937    2.9894   -1.5492 H   0  0  0  0  0  0  0  0  0  0  0  0
   -0.2862   -1.6232   -6.4936 H   0  0  0  0  0  0  0  0  0  0  0  0
   -0.0374   -2.8050   -8.6451 H   0  0  0  0  0  0  0  0  0  0  0  0
   -0.4652   -2.0429  -12.6958 H   0  0  0  0  0  0  0  0  0  0  0  0
   -0.1628   -1.2516  -11.1128 H   0  0  0  0  0  0  0  0  0  0  0  0
   -2.3501   -0.0782  -11.2457 H   0  0  0  0  0  0  0  0  0  0  0  0
   -1.4282    0.1964  -12.7689 H   0  0  0  0  0  0  0  0  0  0  0  0
   -2.7799   -1.0020  -12.7564 H   0  0  0  0  0  0  0  0  0  0  0  0
   -4.2510   -0.3855   -7.6515 H   0  0  0  0  0  0  0  0  0  0  0  0
    0.0940    0.7292   -6.9870 H   0  0  0  0  0  0  0  0  0  0  0  0
    1.9329    4.1296   -4.1245 H   0  0  0  0  0  0  0  0  0  0  0  0
    5.7040    4.5999   -1.6617 H   0  0  0  0  0  0  0  0  0  0  0  0
    5.2135    6.5921   -0.2938 H   0  0  0  0  0  0  0  0  0  0  0  0
    1.8674    8.3132   -1.4526 H   0  0  0  0  0  0  0  0  0  0  0  0
    3.2236    9.3772   -0.9037 H   0  0  0  0  0  0  0  0  0  0  0  0
    1.0417   10.5815   -0.8791 H   0  0  0  0  0  0  0  0  0  0  0  0
    0.3576    9.3445    0.2397 H   0  0  0  0  0  0  0  0  0  0  0  0
    1.7033   10.4156    0.7947 H   0  0  0  0  0  0  0  0  0  0  0  0
    1.4858    3.6932   -1.8326 H   0  0  0  0  0  0  0  0  0  0  0  0
    3.9362   -2.1548   -3.8801 H   0  0  0  0  0  0  0  0  0  0  0  0
    4.9237   -4.1009   -5.0349 H   0  0  0  0  0  0  0  0  0  0  0  0
    8.6952   -5.6757   -5.7687 H   0  0  0  0  0  0  0  0  0  0  0  0
    7.6577   -4.7467   -4.6325 H   0  0  0  0  0  0  0  0  0  0  0  0
    8.9033   -2.6711   -5.1088 H   0  0  0  0  0  0  0  0  0  0  0  0
    9.8322   -3.4890   -6.4426 H   0  0  0  0  0  0  0  0  0  0  0  0
   10.0765   -3.9739   -4.7222 H   0  0  0  0  0  0  0  0  0  0  0  0
    6.5057    0.4768   -6.1331 H   0  0  0  0  0  0  0  0  0  0  0  0
    5.9431   -1.3496   -2.3549 H   0  0  0  0  0  0  0  0  0  0  0  0
    6.6849   -2.7109   -0.6423 H   0  0  0  0  0  0  0  0  0  0  0  0
    5.1363   -4.5461   -1.2225 H   0  0  0  0  0  0  0  0  0  0  0  0
    5.9347   -5.8085   -3.1683 H   0  0  0  0  0  0  0  0  0  0  0  0
    7.1767  -10.1019   -3.5394 H   0  0  0  0  0  0  0  0  0  0  0  0
    6.1463   -9.0964   -2.4646 H   0  0  0  0  0  0  0  0  0  0  0  0
    6.2649   -8.9791   -5.5507 H   0  0  0  0  0  0  0  0  0  0  0  0
    4.9429   -9.6862   -4.5485 H   0  0  0  0  0  0  0  0  0  0  0  0
    5.2438   -7.9096   -4.5115 H   0  0  0  0  0  0  0  0  0  0  0  0
    8.0848   -6.5120    1.2448 H   0  0  0  0  0  0  0  0  0  0  0  0
    2.1554   -2.6313    3.3906 H   0  0  0  0  0  0  0  0  0  0  0  0
    0.7152   -1.8717    5.2446 H   0  0  0  0  0  0  0  0  0  0  0  0
    0.6848   -2.9576    9.7268 H   0  0  0  0  0  0  0  0  0  0  0  0
    1.7602   -3.6778    8.4745 H   0  0  0  0  0  0  0  0  0  0  0  0
   -0.6018   -4.5438    8.3536 H   0  0  0  0  0  0  0  0  0  0  0  0
   -0.1354   -3.6762    6.8393 H   0  0  0  0  0  0  0  0  0  0  0  0
   -1.1991   -2.8647    8.0637 H   0  0  0  0  0  0  0  0  0  0  0  0
    5.5723   -2.5477    6.0173 H   0  0  0  0  0  0  0  0  0  0  0  0
    4.1692   -5.2179    5.5295 H   0  0  0  0  0  0  0  0  0  0  0  0
    4.7677   -7.6978    5.0336 H   0  0  0  0  0  0  0  0  0  0  0  0
  1  2  2  0
  2  3  1  0
  3  4  2  0
  4  5  1  0
  5  6  2  0
  6  7  1  0
  7  8  2  0
  8  9  1  0
  9 10  1  0
 10 11  1  0
  8 12  1  0
 12 13  1  0
 12 14  2  0
  4 15  1  0
 15 16  2  0
 16 17  1  0
 17 18  1  0
 18 19  2  0
 19 20  1  0
 20 21  2  0
 21 22  1  0
 22 23  1  0
 23 24  1  0
 21 25  1  0
 25 26  2  0
 25 27  1  0
 17 28  2  0
 28 29  1  0
 16 30  1  0
 30 31  2  0
 31 32  1  0
 31 33  1  0
 33 34  2  0
 34 35  1  0
 35 36  1  0
 36 37  1  0
 36 38  2  0
 35 39  1  0
 39 40  1  0
 40 41  1  0
 41 42  2  0
 42 43  1  0
 43 44  2  0
 44 45  1  0
 45 46  1  0
 45 47  2  0
 39 48  2  0
 48 49  1  0
 49 50  2  3
 50 51  1  0
 51 52  2  0
 52 53  1  0
 53 54  1  0
 54 55  1  0
 54 56  2  0
 53 57  1  0
 57 58  1  0
 58 59  1  0
 59 60  2  0
 60 61  1  0
 61 62  2  0
 62 63  1  0
 63 64  1  0
 63 65  2  0
 57 66  2  0
 66 67  1  0
 67 68  2  3
 68 69  1  0
 69 70  2  0
 70 71  1  0
 71 72  2  0
 72 73  1  0
 73 74  2  0
 74 75  1  0
 75 76  2  0
 76 77  1  0
 77 78  1  0
 78 79  1  0
 76 80  1  0
 80 81  1  0
 80 82  2  0
 72 83  1  0
 83 84  2  0
 84 85  1  0
 85 86  1  0
 86 87  2  0
 87 88  1  0
 88 89  2  0
 89 90  1  0
 90 91  1  0
 91 92  1  0
 89 93  1  0
 93 94  2  0
 93 95  1  0
 85 96  2  0
 96 97  1  0
 84 98  1  0
 98 99  2  0
 99100  1  0
 99101  1  0
101102  2  0
102103  1  0
103104  2  0
104105  1  0
105106  2  0
106107  1  0
107108  2  0
108109  1  0
109110  1  0
110111  1  0
108112  1  0
112113  1  0
112114  2  0
104115  1  0
115116  2  0
116117  1  0
117118  1  0
118119  2  0
119120  1  0
120121  2  0
121122  1  0
122123  1  0
123124  1  0
121125  1  0
125126  2  0
125127  1  0
117128  2  0
128129  1  0
116130  1  0
130131  2  0
131132  1  0
131133  1  0
133134  2  0
134135  1  0
135136  2  0
136137  1  0
137138  2  0
138139  1  0
139140  2  0
140141  1  0
141142  1  0
142143  1  0
140144  1  0
144145  1  0
144146  2  0
136147  1  0
147148  2  0
148149  1  0
149150  1  0
150151  2  0
151152  1  0
152153  2  0
153154  1  0
154155  1  0
155156  1  0
153157  1  0
157158  2  0
157159  1  0
149160  2  0
160161  1  0
148162  1  0
162163  2  0
163164  1  0
 29  1  1  0
 48 33  1  0
 66 51  1  0
 97 69  1  0
129101  1  0
161133  1  0
 28  3  1  0
 44 40  1  0
 62 58  1  0
 96 71  1  0
128103  1  0
160135  1  0
 14  5  1  0
 32 15  1  0
 82 73  1  0
100 83  1  0
114105  1  0
132115  1  0
146137  1  0
164147  1  0
 26 18  1  0
 94 86  1  0
126118  1  0
158150  1  0
  1165  1  0
  2166  1  0
  6167  1  0
  7168  1  0
 10169  1  0
 10170  1  0
 11171  1  0
 11172  1  0
 11173  1  0
 14174  1  0
 19175  1  0
 20176  1  0
 23177  1  0
 23178  1  0
 24179  1  0
 24180  1  0
 24181  1  0
 26182  1  0
 30183  1  0
 34184  1  0
 35185  1  0
 40186  1  0
 41187  1  0
 42188  1  0
 43189  1  0
 49190  1  0
 50191  1  0
 52192  1  0
 53193  1  0
 58194  1  0
 59195  1  0
 60196  1  0
 61197  1  0
 67198  1  0
 68199  1  0
 70200  1  0
 74201  1  0
 75202  1  0
 78203  1  0
 78204  1  0
 79205  1  0
 79206  1  0
 79207  1  0
 82208  1  0
 87209  1  0
 88210  1  0
 91211  1  0
 91212  1  0
 92213  1  0
 92214  1  0
 92215  1  0
 94216  1  0
 98217  1  0
102218  1  0
106219  1  0
107220  1  0
110221  1  0
110222  1  0
111223  1  0
111224  1  0
111225  1  0
114226  1  0
119227  1  0
120228  1  0
123229  1  0
123230  1  0
124231  1  0
124232  1  0
124233  1  0
126234  1  0
130235  1  0
134236  1  0
138237  1  0
139238  1  0
142239  1  0
142240  1  0
143241  1  0
143242  1  0
143243  1  0
146244  1  0
151245  1  0
152246  1  0
155247  1  0
155248  1  0
156249  1  0
156250  1  0
156251  1  0
158252  1  0
162253  1  0
163254  1  0
M  CHG  8  36   1  37  -1  45   1  46  -1  54   1  55  -1  63   1  64  -1
M  END

