
     RDKit          3D

185205  0  0  0  0  0  0  0  0999 V2000
    7.2473   -7.2898    7.6546 C   0  0  0  0  0  0  0  0  0  0  0  0
    6.7304   -6.1364    8.2367 C   0  0  0  0  0  0  0  0  0  0  0  0
    5.3314   -6.0396    8.1284 C   0  0  0  0  0  0  0  0  0  0  0  0
    4.5268   -4.9697    8.5762 C   0  0  0  0  0  0  0  0  0  0  0  0
    5.0952   -3.7837    9.2525 C   0  0  0  0  0  0  0  0  0  0  0  0
    6.0253   -2.9655    8.5927 C   0  0  0  0  0  0  0  0  0  0  0  0
    6.5817   -1.8626    9.2446 C   0  0  0  0  0  0  0  0  0  0  0  0
    6.2012   -1.5558   10.5577 C   0  0  0  0  0  0  0  0  0  0  0  0
    6.9382   -0.1449   11.3956 S   0  0  0  0  0  0  0  0  0  0  0  0
    5.6018    1.0233   10.9553 C   0  0  0  0  0  0  0  0  0  0  0  0
    5.8015    1.5780    9.5502 C   0  0  0  0  0  0  0  0  0  0  0  0
    5.2734   -2.3698   11.2231 C   0  0  0  0  0  0  0  0  0  0  0  0
    4.9081   -2.0910   12.4979 F   0  0  0  0  0  0  0  0  0  0  0  0
    4.7209   -3.4765   10.5693 C   0  0  0  0  0  0  0  0  0  0  0  0
    3.1455   -5.0766    8.3352 C   0  0  0  0  0  0  0  0  0  0  0  0
    2.5653   -6.1816    7.7056 C   0  0  0  0  0  0  0  0  0  0  0  0
    3.3689   -7.2557    7.2614 C   0  0  0  0  0  0  0  0  0  0  0  0
    2.8108   -8.4170    6.5301 C   0  0  0  0  0  0  0  0  0  0  0  0
    3.0090   -9.7200    7.0179 C   0  0  0  0  0  0  0  0  0  0  0  0
    2.5185  -10.8221    6.3077 C   0  0  0  0  0  0  0  0  0  0  0  0
    1.8190  -10.6314    5.1095 C   0  0  0  0  0  0  0  0  0  0  0  0
    1.2130  -12.0506    4.1901 S   0  0  0  0  0  0  0  0  0  0  0  0
    2.6626  -12.1649    3.0754 C   0  0  0  0  0  0  0  0  0  0  0  0
    2.1921  -12.3655    1.6408 C   0  0  0  0  0  0  0  0  0  0  0  0
    1.6000   -9.3319    4.6277 C   0  0  0  0  0  0  0  0  0  0  0  0
    2.1018   -8.2301    5.3320 C   0  0  0  0  0  0  0  0  0  0  0  0
    0.9132   -9.1358    3.4751 F   0  0  0  0  0  0  0  0  0  0  0  0
    4.7544   -7.1420    7.4891 C   0  0  0  0  0  0  0  0  0  0  0  0
    5.9783   -8.2010    7.0235 S   0  0  0  0  0  0  0  0  0  0  0  0
    1.1739   -6.0592    7.5444 C   0  0  0  0  0  0  0  0  0  0  0  0
    0.6629   -4.8243    7.9680 C   0  0  0  0  0  0  0  0  0  0  0  0
    1.9492   -3.9305    8.6171 S   0  0  0  0  0  0  0  0  0  0  0  0
   -0.7088   -4.2833    7.7227 C   0  0  0  0  0  0  0  0  0  0  0  0
   -1.5920   -4.8570    6.7645 C   0  0  0  0  0  0  0  0  0  0  0  0
   -1.2750   -5.9906    6.0944 F   0  0  0  0  0  0  0  0  0  0  0  0
   -2.7912   -4.2098    6.3989 C   0  0  0  0  0  0  0  0  0  0  0  0
   -3.5457   -4.7487    5.4067 F   0  0  0  0  0  0  0  0  0  0  0  0
   -3.1525   -2.9700    6.9676 C   0  0  0  0  0  0  0  0  0  0  0  0
   -2.2970   -2.4555    7.9409 C   0  0  0  0  0  0  0  0  0  0  0  0
   -1.1430   -3.0803    8.3069 C   0  0  0  0  0  0  0  0  0  0  0  0
   -0.5253   -2.3042    9.2127 N   0  0  0  0  0  0  0  0  0  0  0  0
   -1.3138   -1.2692    9.3607 O   0  0  0  0  0  0  0  0  0  0  0  0
   -2.3898   -1.3002    8.6170 N   0  0  0  0  0  0  0  0  0  0  0  0
   -4.2326   -2.1658    6.3520 C   0  0  0  0  0  0  0  0  0  0  0  0
   -3.9076   -1.0137    5.6010 C   0  0  0  0  0  0  0  0  0  0  0  0
   -2.6682   -0.4677    5.6863 F   0  0  0  0  0  0  0  0  0  0  0  0
   -4.8025   -0.5174    4.6234 C   0  0  0  0  0  0  0  0  0  0  0  0
   -4.3742    0.4802    3.8078 F   0  0  0  0  0  0  0  0  0  0  0  0
   -6.0425   -1.1625    4.3793 C   0  0  0  0  0  0  0  0  0  0  0  0
   -6.3801   -2.2071    5.2472 C   0  0  0  0  0  0  0  0  0  0  0  0
   -5.5188   -2.6847    6.1823 C   0  0  0  0  0  0  0  0  0  0  0  0
   -6.0559   -3.7882    6.7258 N   0  0  0  0  0  0  0  0  0  0  0  0
   -7.2093   -3.9252    6.1202 O   0  0  0  0  0  0  0  0  0  0  0  0
   -7.4522   -3.0134    5.2115 N   0  0  0  0  0  0  0  0  0  0  0  0
   -6.7063   -1.0027    3.0606 C   0  0  0  0  0  0  0  0  0  0  0  0
   -6.6792   -2.0896    2.1500 C   0  0  0  0  0  0  0  0  0  0  0  0
   -6.3800   -3.3420    2.5803 F   0  0  0  0  0  0  0  0  0  0  0  0
   -6.7454   -1.8627    0.7576 C   0  0  0  0  0  0  0  0  0  0  0  0
   -6.5218   -2.9004   -0.0881 F   0  0  0  0  0  0  0  0  0  0  0  0
   -6.8249   -0.5507    0.2474 C   0  0  0  0  0  0  0  0  0  0  0  0
   -7.0361    0.4734    1.1734 C   0  0  0  0  0  0  0  0  0  0  0  0
   -6.9761    0.2601    2.5179 C   0  0  0  0  0  0  0  0  0  0  0  0
   -6.9632    1.4542    3.1321 N   0  0  0  0  0  0  0  0  0  0  0  0
   -7.0187    2.3281    2.1584 O   0  0  0  0  0  0  0  0  0  0  0  0
   -7.0403    1.7998    0.9625 N   0  0  0  0  0  0  0  0  0  0  0  0
   -6.0954   -0.2535   -0.9882 C   0  0  0  0  0  0  0  0  0  0  0  0
   -4.7110   -0.3333   -1.0295 C   0  0  0  0  0  0  0  0  0  0  0  0
   -4.1602    0.2461   -2.1722 C   0  0  0  0  0  0  0  0  0  0  0  0
   -2.7881    0.4414   -2.3974 C   0  0  0  0  0  0  0  0  0  0  0  0
   -1.7850    0.0852   -1.3753 C   0  0  0  0  0  0  0  0  0  0  0  0
   -1.6733    0.8640   -0.2134 C   0  0  0  0  0  0  0  0  0  0  0  0
   -0.7864    0.4934    0.7987 C   0  0  0  0  0  0  0  0  0  0  0  0
   -0.0064   -0.6609    0.6600 C   0  0  0  0  0  0  0  0  0  0  0  0
    1.0826   -1.1577    1.9979 S   0  0  0  0  0  0  0  0  0  0  0  0
    2.4943   -0.1825    1.3778 C   0  0  0  0  0  0  0  0  0  0  0  0
    3.6809   -0.3314    2.3176 C   0  0  0  0  0  0  0  0  0  0  0  0
   -0.1073   -1.4362   -0.5026 C   0  0  0  0  0  0  0  0  0  0  0  0
    0.6294   -2.5695   -0.6370 F   0  0  0  0  0  0  0  0  0  0  0  0
   -0.9918   -1.0606   -1.5201 C   0  0  0  0  0  0  0  0  0  0  0  0
   -2.4305    1.1260   -3.5628 C   0  0  0  0  0  0  0  0  0  0  0  0
   -3.3723    1.5968   -4.4851 C   0  0  0  0  0  0  0  0  0  0  0  0
   -4.7590    1.4174   -4.2465 C   0  0  0  0  0  0  0  0  0  0  0  0
   -5.7848    1.9743   -5.1503 C   0  0  0  0  0  0  0  0  0  0  0  0
   -6.6642    1.1168   -5.8267 C   0  0  0  0  0  0  0  0  0  0  0  0
   -7.6120    1.6407   -6.7129 C   0  0  0  0  0  0  0  0  0  0  0  0
   -7.6888    3.0225   -6.9268 C   0  0  0  0  0  0  0  0  0  0  0  0
   -8.8957    3.6782   -8.0871 S   0  0  0  0  0  0  0  0  0  0  0  0
   -7.8279    3.4929   -9.5623 C   0  0  0  0  0  0  0  0  0  0  0  0
   -6.9153    4.7017   -9.7379 C   0  0  0  0  0  0  0  0  0  0  0  0
   -6.8339    3.8824   -6.2249 C   0  0  0  0  0  0  0  0  0  0  0  0
   -5.8830    3.3601   -5.3438 C   0  0  0  0  0  0  0  0  0  0  0  0
   -6.9181    5.2275   -6.3974 F   0  0  0  0  0  0  0  0  0  0  0  0
   -5.1178    0.7415   -3.0623 C   0  0  0  0  0  0  0  0  0  0  0  0
   -6.6542    0.5345   -2.3768 S   0  0  0  0  0  0  0  0  0  0  0  0
   -2.7815    2.2926   -5.5571 C   0  0  0  0  0  0  0  0  0  0  0  0
   -1.3971    2.4012   -5.4251 C   0  0  0  0  0  0  0  0  0  0  0  0
   -0.8955    1.6093   -4.0224 S   0  0  0  0  0  0  0  0  0  0  0  0
   -0.4946    3.1631   -6.2935 C   0  0  0  0  0  0  0  0  0  0  0  0
    0.6990    3.7355   -5.8671 C   0  0  0  0  0  0  0  0  0  0  0  0
    1.4024    4.3647   -6.8993 C   0  0  0  0  0  0  0  0  0  0  0  0
    2.6481    5.0136   -6.7783 C   0  0  0  0  0  0  0  0  0  0  0  0
    3.3125    5.1701   -5.4678 C   0  0  0  0  0  0  0  0  0  0  0  0
    2.6989    5.9162   -4.4512 C   0  0  0  0  0  0  0  0  0  0  0  0
    3.2811    5.9933   -3.1853 C   0  0  0  0  0  0  0  0  0  0  0  0
    4.4757    5.3163   -2.9172 C   0  0  0  0  0  0  0  0  0  0  0  0
    5.1730    5.3628   -1.2631 S   0  0  0  0  0  0  0  0  0  0  0  0
    4.1921    3.9383   -0.6808 C   0  0  0  0  0  0  0  0  0  0  0  0
    4.4492    3.6998    0.8010 C   0  0  0  0  0  0  0  0  0  0  0  0
    5.1103    4.5906   -3.9377 C   0  0  0  0  0  0  0  0  0  0  0  0
    6.2738    3.9401   -3.6955 F   0  0  0  0  0  0  0  0  0  0  0  0
    4.5281    4.5176   -5.2099 C   0  0  0  0  0  0  0  0  0  0  0  0
    3.2220    5.5079   -7.9630 C   0  0  0  0  0  0  0  0  0  0  0  0
    2.6008    5.3804   -9.2096 C   0  0  0  0  0  0  0  0  0  0  0  0
    1.3467    4.7483   -9.3236 C   0  0  0  0  0  0  0  0  0  0  0  0
    0.6883    4.5639  -10.6260 C   0  0  0  0  0  0  0  0  0  0  0  0
   -0.2504    5.4995  -11.0786 C   0  0  0  0  0  0  0  0  0  0  0  0
   -0.8680    5.3288  -12.3207 C   0  0  0  0  0  0  0  0  0  0  0  0
   -0.5603    4.2144  -13.1133 C   0  0  0  0  0  0  0  0  0  0  0  0
   -1.3618    4.0012  -14.7059 S   0  0  0  0  0  0  0  0  0  0  0  0
   -2.7462    2.9938  -14.0625 C   0  0  0  0  0  0  0  0  0  0  0  0
   -3.8747    3.8841  -13.5555 C   0  0  0  0  0  0  0  0  0  0  0  0
    0.3849    3.2803  -12.6644 C   0  0  0  0  0  0  0  0  0  0  0  0
    1.0069    3.4561  -11.4234 C   0  0  0  0  0  0  0  0  0  0  0  0
    0.7027    2.2032  -13.4279 F   0  0  0  0  0  0  0  0  0  0  0  0
    0.7677    4.2564   -8.1412 C   0  0  0  0  0  0  0  0  0  0  0  0
   -0.6874    3.4190   -7.9552 S   0  0  0  0  0  0  0  0  0  0  0  0
    3.3480    5.9397  -10.2573 C   0  0  0  0  0  0  0  0  0  0  0  0
    4.5440    6.5101   -9.8309 C   0  0  0  0  0  0  0  0  0  0  0  0
    4.6828    6.3203   -8.1600 S   0  0  0  0  0  0  0  0  0  0  0  0
    8.2951   -7.5520    7.6065 H   0  0  0  0  0  0  0  0  0  0  0  0
    7.3577   -5.3925    8.7123 H   0  0  0  0  0  0  0  0  0  0  0  0
    6.3237   -3.1829    7.5752 H   0  0  0  0  0  0  0  0  0  0  0  0
    7.3066   -1.2469    8.7333 H   0  0  0  0  0  0  0  0  0  0  0  0
    5.6298    1.8668   11.6780 H   0  0  0  0  0  0  0  0  0  0  0  0
    4.6064    0.5382   11.0365 H   0  0  0  0  0  0  0  0  0  0  0  0
    6.8041    2.0451    9.4606 H   0  0  0  0  0  0  0  0  0  0  0  0
    5.0279    2.3439    9.3389 H   0  0  0  0  0  0  0  0  0  0  0  0
    5.7058    0.7691    8.7969 H   0  0  0  0  0  0  0  0  0  0  0  0
    4.0085   -4.1009   11.0937 H   0  0  0  0  0  0  0  0  0  0  0  0
    3.5433   -9.8820    7.9452 H   0  0  0  0  0  0  0  0  0  0  0  0
    2.6878  -11.8212    6.6881 H   0  0  0  0  0  0  0  0  0  0  0  0
    3.2906  -11.2487    3.1162 H   0  0  0  0  0  0  0  0  0  0  0  0
    3.2843  -13.0337    3.3821 H   0  0  0  0  0  0  0  0  0  0  0  0
    1.5925  -13.2986    1.5582 H   0  0  0  0  0  0  0  0  0  0  0  0
    1.5705  -11.5014    1.3206 H   0  0  0  0  0  0  0  0  0  0  0  0
    3.0700  -12.4451    0.9648 H   0  0  0  0  0  0  0  0  0  0  0  0
    1.9465   -7.2336    4.9364 H   0  0  0  0  0  0  0  0  0  0  0  0
    0.5781   -6.8495    7.1178 H   0  0  0  0  0  0  0  0  0  0  0  0
   -4.1209   -0.7322   -0.2127 H   0  0  0  0  0  0  0  0  0  0  0  0
   -2.2871    1.7476   -0.0878 H   0  0  0  0  0  0  0  0  0  0  0  0
   -0.7166    1.0953    1.6957 H   0  0  0  0  0  0  0  0  0  0  0  0
    2.2081    0.8912    1.3205 H   0  0  0  0  0  0  0  0  0  0  0  0
    2.7810   -0.5399    0.3639 H   0  0  0  0  0  0  0  0  0  0  0  0
    4.5407    0.2493    1.9237 H   0  0  0  0  0  0  0  0  0  0  0  0
    3.9728   -1.4020    2.3969 H   0  0  0  0  0  0  0  0  0  0  0  0
    3.4171    0.0533    3.3269 H   0  0  0  0  0  0  0  0  0  0  0  0
   -1.0761   -1.6754   -2.4070 H   0  0  0  0  0  0  0  0  0  0  0  0
   -6.6043    0.0453   -5.6852 H   0  0  0  0  0  0  0  0  0  0  0  0
   -8.2747    0.9689   -7.2424 H   0  0  0  0  0  0  0  0  0  0  0  0
   -8.4847    3.4101  -10.4553 H   0  0  0  0  0  0  0  0  0  0  0  0
   -7.2207    2.5651   -9.4989 H   0  0  0  0  0  0  0  0  0  0  0  0
   -6.1835    4.7561   -8.9045 H   0  0  0  0  0  0  0  0  0  0  0  0
   -7.5179    5.6354   -9.7672 H   0  0  0  0  0  0  0  0  0  0  0  0
   -6.3544    4.6095  -10.6937 H   0  0  0  0  0  0  0  0  0  0  0  0
   -5.2210    4.0326   -4.8136 H   0  0  0  0  0  0  0  0  0  0  0  0
   -3.3382    2.7462   -6.3669 H   0  0  0  0  0  0  0  0  0  0  0  0
    1.0463    3.6843   -4.8448 H   0  0  0  0  0  0  0  0  0  0  0  0
    1.7595    6.4254   -4.6362 H   0  0  0  0  0  0  0  0  0  0  0  0
    2.7890    6.5583   -2.4032 H   0  0  0  0  0  0  0  0  0  0  0  0
    4.4781    3.0313   -1.2540 H   0  0  0  0  0  0  0  0  0  0  0  0
    3.1107    4.1399   -0.8336 H   0  0  0  0  0  0  0  0  0  0  0  0
    3.8449    2.8347    1.1484 H   0  0  0  0  0  0  0  0  0  0  0  0
    4.1587    4.5993    1.3875 H   0  0  0  0  0  0  0  0  0  0  0  0
    5.5232    3.4787    0.9737 H   0  0  0  0  0  0  0  0  0  0  0  0
    5.0106    3.9331   -5.9834 H   0  0  0  0  0  0  0  0  0  0  0  0
   -0.4991    6.3615  -10.4747 H   0  0  0  0  0  0  0  0  0  0  0  0
   -1.5878    6.0586  -12.6673 H   0  0  0  0  0  0  0  0  0  0  0  0
   -3.1320    2.3665  -14.8954 H   0  0  0  0  0  0  0  0  0  0  0  0
   -2.4019    2.3167  -13.2524 H   0  0  0  0  0  0  0  0  0  0  0  0
   -4.2051    4.5790  -14.3567 H   0  0  0  0  0  0  0  0  0  0  0  0
   -3.5431    4.4686  -12.6737 H   0  0  0  0  0  0  0  0  0  0  0  0
   -4.7359    3.2523  -13.2505 H   0  0  0  0  0  0  0  0  0  0  0  0
    1.7362    2.7312  -11.0852 H   0  0  0  0  0  0  0  0  0  0  0  0
    3.0331    5.9376  -11.2930 H   0  0  0  0  0  0  0  0  0  0  0  0
    5.2689    6.9964  -10.4704 H   0  0  0  0  0  0  0  0  0  0  0  0
  1  2  2  0
  2  3  1  0
  3  4  2  0
  4  5  1  0
  5  6  2  0
  6  7  1  0
  7  8  2  0
  8  9  1  0
  9 10  1  0
 10 11  1  0
  8 12  1  0
 12 13  1  0
 12 14  2  0
  4 15  1  0
 15 16  2  0
 16 17  1  0
 17 18  1  0
 18 19  2  0
 19 20  1  0
 20 21  2  0
 21 22  1  0
 22 23  1  0
 23 24  1  0
 21 25  1  0
 25 26  2  0
 25 27  1  0
 17 28  2  0
 28 29  1  0
 16 30  1  0
 30 31  2  0
 31 32  1  0
 31 33  1  0
 33 34  2  0
 34 35  1  0
 34 36  1  0
 36 37  1  0
 36 38  2  0
 38 39  1  0
 39 40  1  0
 40 41  2  0
 41 42  1  0
 42 43  1  0
 38 44  1  0
 44 45  2  0
 45 46  1  0
 45 47  1  0
 47 48  1  0
 47 49  2  0
 49 50  1  0
 50 51  1  0
 51 52  2  0
 52 53  1  0
 53 54  1  0
 49 55  1  0
 55 56  2  0
 56 57  1  0
 56 58  1  0
 58 59  1  0
 58 60  2  0
 60 61  1  0
 61 62  1  0
 62 63  2  0
 63 64  1  0
 64 65  1  0
 60 66  1  0
 66 67  2  0
 67 68  1  0
 68 69  2  0
 69 70  1  0
 70 71  2  0
 71 72  1  0
 72 73  2  0
 73 74  1  0
 74 75  1  0
 75 76  1  0
 73 77  1  0
 77 78  1  0
 77 79  2  0
 69 80  1  0
 80 81  2  0
 81 82  1  0
 82 83  1  0
 83 84  2  0
 84 85  1  0
 85 86  2  0
 86 87  1  0
 87 88  1  0
 88 89  1  0
 86 90  1  0
 90 91  2  0
 90 92  1  0
 82 93  2  0
 93 94  1  0
 81 95  1  0
 95 96  2  0
 96 97  1  0
 96 98  1  0
 98 99  2  0
 99100  1  0
100101  2  0
101102  1  0
102103  2  0
103104  1  0
104105  2  0
105106  1  0
106107  1  0
107108  1  0
105109  1  0
109110  1  0
109111  2  0
101112  1  0
112113  2  0
113114  1  0
114115  1  0
115116  2  0
116117  1  0
117118  2  0
118119  1  0
119120  1  0
120121  1  0
118122  1  0
122123  2  0
122124  1  0
114125  2  0
125126  1  0
113127  1  0
127128  2  0
128129  1  0
 29  1  1  0
 40 33  1  0
 51 44  1  0
 62 55  1  0
 94 66  1  0
126 98  1  0
 28  3  1  0
 43 39  2  0
 54 50  2  0
 65 61  2  0
 93 68  1  0
125100  1  0
 14  5  1  0
 32 15  1  0
 79 70  1  0
 97 80  1  0
111102  1  0
129112  1  0
 26 18  1  0
 91 83  1  0
123115  1  0
  1130  1  0
  2131  1  0
  6132  1  0
  7133  1  0
 10134  1  0
 10135  1  0
 11136  1  0
 11137  1  0
 11138  1  0
 14139  1  0
 19140  1  0
 20141  1  0
 23142  1  0
 23143  1  0
 24144  1  0
 24145  1  0
 24146  1  0
 26147  1  0
 30148  1  0
 67149  1  0
 71150  1  0
 72151  1  0
 75152  1  0
 75153  1  0
 76154  1  0
 76155  1  0
 76156  1  0
 79157  1  0
 84158  1  0
 85159  1  0
 88160  1  0
 88161  1  0
 89162  1  0
 89163  1  0
 89164  1  0
 91165  1  0
 95166  1  0
 99167  1  0
103168  1  0
104169  1  0
107170  1  0
107171  1  0
108172  1  0
108173  1  0
108174  1  0
111175  1  0
116176  1  0
117177  1  0
120178  1  0
120179  1  0
121180  1  0
121181  1  0
121182  1  0
123183  1  0
127184  1  0
128185  1  0
M  END

