
     RDKit          3D

256281  0  0  0  0  0  0  0  0999 V2000
   -0.6945   -1.1129   11.6194 C   0  0  0  0  0  0  0  0  0  0  0  0
   -0.4783   -0.0707   10.7236 C   0  0  0  0  0  0  0  0  0  0  0  0
   -1.5352    0.1121    9.8165 C   0  0  0  0  0  0  0  0  0  0  0  0
   -1.6200    1.1067    8.8232 C   0  0  0  0  0  0  0  0  0  0  0  0
   -0.5514    2.1040    8.6082 C   0  0  0  0  0  0  0  0  0  0  0  0
    0.7269    1.7017    8.1831 C   0  0  0  0  0  0  0  0  0  0  0  0
    1.7211    2.6566    7.9518 C   0  0  0  0  0  0  0  0  0  0  0  0
    1.4539    4.0163    8.1474 C   0  0  0  0  0  0  0  0  0  0  0  0
    2.7343    5.2361    7.8401 S   0  0  0  0  0  0  0  0  0  0  0  0
    3.3423    5.2903    9.5644 C   0  0  0  0  0  0  0  0  0  0  0  0
    4.3315    4.1602    9.8288 C   0  0  0  0  0  0  0  0  0  0  0  0
    0.1759    4.4231    8.5582 C   0  0  0  0  0  0  0  0  0  0  0  0
   -0.1029    5.7384    8.7321 F   0  0  0  0  0  0  0  0  0  0  0  0
   -0.8210    3.4697    8.7876 C   0  0  0  0  0  0  0  0  0  0  0  0
   -2.7851    1.1217    8.0395 C   0  0  0  0  0  0  0  0  0  0  0  0
   -3.8314    0.2159    8.2164 C   0  0  0  0  0  0  0  0  0  0  0  0
   -3.7572   -0.7732    9.2224 C   0  0  0  0  0  0  0  0  0  0  0  0
   -4.8785   -1.7000    9.5044 C   0  0  0  0  0  0  0  0  0  0  0  0
   -6.1439   -1.1947    9.8421 C   0  0  0  0  0  0  0  0  0  0  0  0
   -7.1878   -2.0638   10.1685 C   0  0  0  0  0  0  0  0  0  0  0  0
   -6.9789   -3.4472   10.1585 C   0  0  0  0  0  0  0  0  0  0  0  0
   -8.2998   -4.5524   10.6715 S   0  0  0  0  0  0  0  0  0  0  0  0
   -9.0851   -4.6700    9.0248 C   0  0  0  0  0  0  0  0  0  0  0  0
   -8.3433   -5.6569    8.1305 C   0  0  0  0  0  0  0  0  0  0  0  0
   -5.7157   -3.9595    9.8282 C   0  0  0  0  0  0  0  0  0  0  0  0
   -4.6733   -3.0883    9.4917 C   0  0  0  0  0  0  0  0  0  0  0  0
   -5.4897   -5.2966    9.8469 F   0  0  0  0  0  0  0  0  0  0  0  0
   -2.5827   -0.7958   10.0018 C   0  0  0  0  0  0  0  0  0  0  0  0
   -2.1997   -1.8020   11.2963 S   0  0  0  0  0  0  0  0  0  0  0  0
   -4.8747    0.3871    7.2870 C   0  0  0  0  0  0  0  0  0  0  0  0
   -4.6442    1.4332    6.3804 C   0  0  0  0  0  0  0  0  0  0  0  0
   -3.1442    2.1265    6.7425 S   0  0  0  0  0  0  0  0  0  0  0  0
   -5.5065    1.8349    5.2403 C   0  0  0  0  0  0  0  0  0  0  0  0
   -5.1588    2.9676    4.4672 C   0  0  0  0  0  0  0  0  0  0  0  0
   -5.9130    3.2783    3.3358 C   0  0  0  0  0  0  0  0  0  0  0  0
   -7.0014    2.5069    2.9805 C   0  0  0  0  0  0  0  0  0  0  0  0
   -7.3916    1.4022    3.7302 C   0  0  0  0  0  0  0  0  0  0  0  0
   -6.6410    1.0685    4.8688 C   0  0  0  0  0  0  0  0  0  0  0  0
   -7.4962    2.9729    1.7028 C   0  0  0  0  0  0  0  0  0  0  0  0
   -6.7089    4.0301    1.2902 C   0  0  0  0  0  0  0  0  0  0  0  0
   -5.6337    4.3501    2.3058 C   0  0  0  0  0  0  0  0  0  0  0  0
   -4.2245    4.1800    1.7052 C   0  0  0  0  0  0  0  0  0  0  0  0
   -5.8334    5.7537    2.8952 C   0  0  0  0  0  0  0  0  0  0  0  0
   -6.8683    4.5777    0.0147 C   0  0  0  0  0  0  0  0  0  0  0  0
   -7.8279    4.0185   -0.8615 C   0  0  0  0  0  0  0  0  0  0  0  0
   -8.6526    2.9615   -0.4022 C   0  0  0  0  0  0  0  0  0  0  0  0
   -8.4883    2.4329    0.8854 C   0  0  0  0  0  0  0  0  0  0  0  0
   -7.8171    4.4029   -2.2946 C   0  0  0  0  0  0  0  0  0  0  0  0
   -7.7764    3.3900   -3.2750 C   0  0  0  0  0  0  0  0  0  0  0  0
   -7.4489    3.7296   -4.5942 C   0  0  0  0  0  0  0  0  0  0  0  0
   -7.2101    5.0473   -4.9443 C   0  0  0  0  0  0  0  0  0  0  0  0
   -7.3104    6.0783   -4.0086 C   0  0  0  0  0  0  0  0  0  0  0  0
   -7.6172    5.7492   -2.6785 C   0  0  0  0  0  0  0  0  0  0  0  0
   -6.5930    5.0673   -6.2580 C   0  0  0  0  0  0  0  0  0  0  0  0
   -6.4639    3.7619   -6.6997 C   0  0  0  0  0  0  0  0  0  0  0  0
   -7.0662    2.7830   -5.7123 C   0  0  0  0  0  0  0  0  0  0  0  0
   -8.3052    2.0964   -6.2955 C   0  0  0  0  0  0  0  0  0  0  0  0
   -6.0197    1.7542   -5.2404 C   0  0  0  0  0  0  0  0  0  0  0  0
   -5.6045    3.4518   -7.7558 C   0  0  0  0  0  0  0  0  0  0  0  0
   -4.8016    4.4680   -8.3140 C   0  0  0  0  0  0  0  0  0  0  0  0
   -5.0308    5.8131   -7.9280 C   0  0  0  0  0  0  0  0  0  0  0  0
   -5.9225    6.1170   -6.8863 C   0  0  0  0  0  0  0  0  0  0  0  0
   -3.5300    4.0908   -8.9832 C   0  0  0  0  0  0  0  0  0  0  0  0
   -2.3132    4.7069   -8.6690 C   0  0  0  0  0  0  0  0  0  0  0  0
   -1.1941    3.8709   -8.8175 C   0  0  0  0  0  0  0  0  0  0  0  0
    0.1010    4.1293   -8.3190 C   0  0  0  0  0  0  0  0  0  0  0  0
    0.4360    5.3770   -7.5955 C   0  0  0  0  0  0  0  0  0  0  0  0
   -0.2184    5.6956   -6.3933 C   0  0  0  0  0  0  0  0  0  0  0  0
    0.1658    6.8207   -5.6600 C   0  0  0  0  0  0  0  0  0  0  0  0
    1.2235    7.6226   -6.1022 C   0  0  0  0  0  0  0  0  0  0  0  0
    1.7134    9.0598   -5.1385 S   0  0  0  0  0  0  0  0  0  0  0  0
    2.6997    8.1219   -3.9141 C   0  0  0  0  0  0  0  0  0  0  0  0
    4.0572    7.7129   -4.4811 C   0  0  0  0  0  0  0  0  0  0  0  0
    1.8815    7.3088   -7.2987 C   0  0  0  0  0  0  0  0  0  0  0  0
    2.9026    8.0842   -7.7418 F   0  0  0  0  0  0  0  0  0  0  0  0
    1.4909    6.1906   -8.0431 C   0  0  0  0  0  0  0  0  0  0  0  0
    0.9995    3.0483   -8.3015 C   0  0  0  0  0  0  0  0  0  0  0  0
    0.6627    1.7733   -8.7702 C   0  0  0  0  0  0  0  0  0  0  0  0
   -0.6003    1.5401   -9.3513 C   0  0  0  0  0  0  0  0  0  0  0  0
   -1.0070    0.1958   -9.8058 C   0  0  0  0  0  0  0  0  0  0  0  0
   -1.9447   -0.5459   -9.0717 C   0  0  0  0  0  0  0  0  0  0  0  0
   -2.3457   -1.8062   -9.5210 C   0  0  0  0  0  0  0  0  0  0  0  0
   -1.8077   -2.3418  -10.6978 C   0  0  0  0  0  0  0  0  0  0  0  0
   -2.3694   -3.9416  -11.2961 S   0  0  0  0  0  0  0  0  0  0  0  0
   -1.0292   -4.9020  -10.5082 C   0  0  0  0  0  0  0  0  0  0  0  0
   -1.3791   -5.2273   -9.0634 C   0  0  0  0  0  0  0  0  0  0  0  0
   -0.8664   -1.6047  -11.4283 C   0  0  0  0  0  0  0  0  0  0  0  0
   -0.4603   -0.3440  -10.9812 C   0  0  0  0  0  0  0  0  0  0  0  0
   -0.3458   -2.1063  -12.5760 F   0  0  0  0  0  0  0  0  0  0  0  0
   -1.5137    2.6104   -9.3307 C   0  0  0  0  0  0  0  0  0  0  0  0
   -3.1795    2.5360   -9.5617 S   0  0  0  0  0  0  0  0  0  0  0  0
    1.5634    0.7715   -8.3441 C   0  0  0  0  0  0  0  0  0  0  0  0
    2.5708    1.2569   -7.5118 C   0  0  0  0  0  0  0  0  0  0  0  0
    2.3791    2.9240   -7.3597 S   0  0  0  0  0  0  0  0  0  0  0  0
    3.1392    0.4621   -6.4239 C   0  0  0  0  0  0  0  0  0  0  0  0
    2.7385    0.6048   -5.1015 C   0  0  0  0  0  0  0  0  0  0  0  0
    3.2772   -0.3634   -4.2485 C   0  0  0  0  0  0  0  0  0  0  0  0
    2.9617   -0.5213   -2.8819 C   0  0  0  0  0  0  0  0  0  0  0  0
    2.0559    0.4162   -2.1678 C   0  0  0  0  0  0  0  0  0  0  0  0
    0.8871   -0.0595   -1.5467 C   0  0  0  0  0  0  0  0  0  0  0  0
    0.0165    0.8243   -0.9064 C   0  0  0  0  0  0  0  0  0  0  0  0
    0.2879    2.1983   -0.8926 C   0  0  0  0  0  0  0  0  0  0  0  0
   -0.9174    3.3312   -0.1856 S   0  0  0  0  0  0  0  0  0  0  0  0
   -0.0077    3.6452    1.3731 C   0  0  0  0  0  0  0  0  0  0  0  0
   -0.1701    2.4898    2.3556 C   0  0  0  0  0  0  0  0  0  0  0  0
    1.4462    2.6815   -1.5182 C   0  0  0  0  0  0  0  0  0  0  0  0
    1.7118    4.0111   -1.5347 F   0  0  0  0  0  0  0  0  0  0  0  0
    2.3346    1.7917   -2.1322 C   0  0  0  0  0  0  0  0  0  0  0  0
    3.5247   -1.6375   -2.2393 C   0  0  0  0  0  0  0  0  0  0  0  0
    4.3906   -2.5337   -2.8824 C   0  0  0  0  0  0  0  0  0  0  0  0
    4.7115   -2.3666   -4.2525 C   0  0  0  0  0  0  0  0  0  0  0  0
    5.6047   -3.3032   -4.9824 C   0  0  0  0  0  0  0  0  0  0  0  0
    6.6939   -2.8116   -5.7219 C   0  0  0  0  0  0  0  0  0  0  0  0
    7.4961   -3.6830   -6.4683 C   0  0  0  0  0  0  0  0  0  0  0  0
    7.2260   -5.0570   -6.4744 C   0  0  0  0  0  0  0  0  0  0  0  0
    8.1747   -6.1537   -7.5362 S   0  0  0  0  0  0  0  0  0  0  0  0
    9.4224   -6.6162   -6.2795 C   0  0  0  0  0  0  0  0  0  0  0  0
   10.6650   -5.7424   -6.4124 C   0  0  0  0  0  0  0  0  0  0  0  0
    6.1545   -5.5574   -5.7249 C   0  0  0  0  0  0  0  0  0  0  0  0
    5.3370   -4.6810   -4.9936 C   0  0  0  0  0  0  0  0  0  0  0  0
    5.8790   -6.8839   -5.7170 F   0  0  0  0  0  0  0  0  0  0  0  0
    4.1105   -1.2733   -4.9117 C   0  0  0  0  0  0  0  0  0  0  0  0
    4.1332   -0.8933   -6.5616 S   0  0  0  0  0  0  0  0  0  0  0  0
    4.8453   -3.5604   -2.0306 C   0  0  0  0  0  0  0  0  0  0  0  0
    4.3020   -3.4828   -0.7491 C   0  0  0  0  0  0  0  0  0  0  0  0
    3.3057   -2.1294   -0.6488 S   0  0  0  0  0  0  0  0  0  0  0  0
    4.4957   -4.4450    0.3453 C   0  0  0  0  0  0  0  0  0  0  0  0
    5.3320   -5.5630    0.3341 C   0  0  0  0  0  0  0  0  0  0  0  0
    5.2879   -6.2892    1.5367 C   0  0  0  0  0  0  0  0  0  0  0  0
    6.0286   -7.4520    1.8459 C   0  0  0  0  0  0  0  0  0  0  0  0
    6.9884   -8.0673    0.8987 C   0  0  0  0  0  0  0  0  0  0  0  0
    8.0795   -7.3291    0.4107 C   0  0  0  0  0  0  0  0  0  0  0  0
    9.0046   -7.9267   -0.4502 C   0  0  0  0  0  0  0  0  0  0  0  0
    8.8691   -9.2703   -0.8142 C   0  0  0  0  0  0  0  0  0  0  0  0
   10.0517  -10.0235   -1.9375 S   0  0  0  0  0  0  0  0  0  0  0  0
   11.3158  -10.3681   -0.6592 C   0  0  0  0  0  0  0  0  0  0  0  0
   10.9663  -11.6040    0.1595 C   0  0  0  0  0  0  0  0  0  0  0  0
    7.7702  -10.0082   -0.3435 C   0  0  0  0  0  0  0  0  0  0  0  0
    7.6167  -11.3062   -0.6974 F   0  0  0  0  0  0  0  0  0  0  0  0
    6.8364   -9.4077    0.5065 C   0  0  0  0  0  0  0  0  0  0  0  0
    5.8241   -8.0043    3.1255 C   0  0  0  0  0  0  0  0  0  0  0  0
    4.9222   -7.4660    4.0494 C   0  0  0  0  0  0  0  0  0  0  0  0
    4.1684   -6.3220    3.7285 C   0  0  0  0  0  0  0  0  0  0  0  0
    3.1827   -5.7429    4.6633 C   0  0  0  0  0  0  0  0  0  0  0  0
    3.6111   -4.9961    5.7719 C   0  0  0  0  0  0  0  0  0  0  0  0
    2.6762   -4.4475    6.6548 C   0  0  0  0  0  0  0  0  0  0  0  0
    1.3047   -4.6270    6.4321 C   0  0  0  0  0  0  0  0  0  0  0  0
    0.1161   -3.9817    7.6189 S   0  0  0  0  0  0  0  0  0  0  0  0
    0.0242   -2.2969    6.9105 C   0  0  0  0  0  0  0  0  0  0  0  0
   -0.8894   -2.2602    5.6910 C   0  0  0  0  0  0  0  0  0  0  0  0
    0.8735   -5.3775    5.3281 C   0  0  0  0  0  0  0  0  0  0  0  0
    1.8088   -5.9245    4.4424 C   0  0  0  0  0  0  0  0  0  0  0  0
   -0.4478   -5.5966    5.1199 F   0  0  0  0  0  0  0  0  0  0  0  0
    4.3884   -5.7524    2.4643 C   0  0  0  0  0  0  0  0  0  0  0  0
    3.6804   -4.3739    1.8231 S   0  0  0  0  0  0  0  0  0  0  0  0
    4.8828   -8.1728    5.2645 C   0  0  0  0  0  0  0  0  0  0  0  0
    5.7610   -9.2513    5.2972 C   0  0  0  0  0  0  0  0  0  0  0  0
    6.5806   -9.3374    3.8247 S   0  0  0  0  0  0  0  0  0  0  0  0
   -0.0142   -1.4200   12.4032 H   0  0  0  0  0  0  0  0  0  0  0  0
    0.4127    0.5431   10.7466 H   0  0  0  0  0  0  0  0  0  0  0  0
    0.9480    0.6560    8.0299 H   0  0  0  0  0  0  0  0  0  0  0  0
    2.7011    2.3390    7.6201 H   0  0  0  0  0  0  0  0  0  0  0  0
    3.8563    6.2621    9.7165 H   0  0  0  0  0  0  0  0  0  0  0  0
    2.4975    5.2356   10.2879 H   0  0  0  0  0  0  0  0  0  0  0  0
    5.1646    4.2009    9.0953 H   0  0  0  0  0  0  0  0  0  0  0  0
    3.8264    3.1752    9.7583 H   0  0  0  0  0  0  0  0  0  0  0  0
    4.7526    4.2653   10.8525 H   0  0  0  0  0  0  0  0  0  0  0  0
   -1.8044    3.7948    9.1038 H   0  0  0  0  0  0  0  0  0  0  0  0
   -6.3155   -0.1255    9.8775 H   0  0  0  0  0  0  0  0  0  0  0  0
   -8.1547   -1.6617   10.4381 H   0  0  0  0  0  0  0  0  0  0  0  0
  -10.1252   -5.0290    9.1672 H   0  0  0  0  0  0  0  0  0  0  0  0
   -9.1314   -3.6690    8.5421 H   0  0  0  0  0  0  0  0  0  0  0  0
   -8.9315   -5.8215    7.2018 H   0  0  0  0  0  0  0  0  0  0  0  0
   -7.3468   -5.2601    7.8484 H   0  0  0  0  0  0  0  0  0  0  0  0
   -8.2209   -6.6322    8.6466 H   0  0  0  0  0  0  0  0  0  0  0  0
   -3.7012   -3.4958    9.2394 H   0  0  0  0  0  0  0  0  0  0  0  0
   -5.7494   -0.2461    7.2632 H   0  0  0  0  0  0  0  0  0  0  0  0
   -4.3026    3.5819    4.7125 H   0  0  0  0  0  0  0  0  0  0  0  0
   -8.2350    0.7947    3.4308 H   0  0  0  0  0  0  0  0  0  0  0  0
   -6.9367    0.1940    5.4305 H   0  0  0  0  0  0  0  0  0  0  0  0
   -3.4500    4.3768    2.4743 H   0  0  0  0  0  0  0  0  0  0  0  0
   -4.0811    3.1421    1.3273 H   0  0  0  0  0  0  0  0  0  0  0  0
   -4.0698    4.8864    0.8630 H   0  0  0  0  0  0  0  0  0  0  0  0
   -5.0980    5.9511    3.7063 H   0  0  0  0  0  0  0  0  0  0  0  0
   -6.8533    5.8652    3.3207 H   0  0  0  0  0  0  0  0  0  0  0  0
   -5.7030    6.5245    2.1046 H   0  0  0  0  0  0  0  0  0  0  0  0
   -6.1910    5.3541   -0.3201 H   0  0  0  0  0  0  0  0  0  0  0  0
   -9.3919    2.5202   -1.0625 H   0  0  0  0  0  0  0  0  0  0  0  0
   -9.0866    1.5926    1.2159 H   0  0  0  0  0  0  0  0  0  0  0  0
   -7.8714    2.3494   -2.9960 H   0  0  0  0  0  0  0  0  0  0  0  0
   -7.0760    7.0993   -4.2788 H   0  0  0  0  0  0  0  0  0  0  0  0
   -7.6374    6.5399   -1.9350 H   0  0  0  0  0  0  0  0  0  0  0  0
   -9.0783    2.8502   -6.5744 H   0  0  0  0  0  0  0  0  0  0  0  0
   -8.0353    1.5136   -7.2013 H   0  0  0  0  0  0  0  0  0  0  0  0
   -8.7453    1.4036   -5.5509 H   0  0  0  0  0  0  0  0  0  0  0  0
   -6.4244    1.1239   -4.4246 H   0  0  0  0  0  0  0  0  0  0  0  0
   -5.1090    2.2722   -4.8719 H   0  0  0  0  0  0  0  0  0  0  0  0
   -5.7308    1.0805   -6.0767 H   0  0  0  0  0  0  0  0  0  0  0  0
   -5.4381    2.4133   -8.0084 H   0  0  0  0  0  0  0  0  0  0  0  0
   -4.4320    6.6124   -8.3499 H   0  0  0  0  0  0  0  0  0  0  0  0
   -5.9994    7.1279   -6.5135 H   0  0  0  0  0  0  0  0  0  0  0  0
   -2.2581    5.6748   -8.1875 H   0  0  0  0  0  0  0  0  0  0  0  0
   -1.0114    5.0631   -6.0215 H   0  0  0  0  0  0  0  0  0  0  0  0
   -0.3456    7.0555   -4.7358 H   0  0  0  0  0  0  0  0  0  0  0  0
    2.8655    8.7778   -3.0326 H   0  0  0  0  0  0  0  0  0  0  0  0
    2.1450    7.2215   -3.5691 H   0  0  0  0  0  0  0  0  0  0  0  0
    4.6660    7.2407   -3.6794 H   0  0  0  0  0  0  0  0  0  0  0  0
    4.5977    8.6101   -4.8534 H   0  0  0  0  0  0  0  0  0  0  0  0
    3.9342    6.9809   -5.3051 H   0  0  0  0  0  0  0  0  0  0  0  0
    2.0172    5.9468   -8.9566 H   0  0  0  0  0  0  0  0  0  0  0  0
   -2.3715   -0.1391   -8.1650 H   0  0  0  0  0  0  0  0  0  0  0  0
   -3.0829   -2.3618   -8.9538 H   0  0  0  0  0  0  0  0  0  0  0  0
   -0.9028   -5.8533  -11.0652 H   0  0  0  0  0  0  0  0  0  0  0  0
   -0.0638   -4.3526  -10.5551 H   0  0  0  0  0  0  0  0  0  0  0  0
   -0.5833   -5.8619   -8.6232 H   0  0  0  0  0  0  0  0  0  0  0  0
   -2.3395   -5.7805   -9.0212 H   0  0  0  0  0  0  0  0  0  0  0  0
   -1.4624   -4.2959   -8.4665 H   0  0  0  0  0  0  0  0  0  0  0  0
    0.2620    0.2214  -11.5558 H   0  0  0  0  0  0  0  0  0  0  0  0
    1.3665   -0.2858   -8.4613 H   0  0  0  0  0  0  0  0  0  0  0  0
    2.0205    1.3537   -4.7942 H   0  0  0  0  0  0  0  0  0  0  0  0
    0.6426   -1.1174   -1.5814 H   0  0  0  0  0  0  0  0  0  0  0  0
   -0.8837    0.4454   -0.4429 H   0  0  0  0  0  0  0  0  0  0  0  0
    1.0701    3.8259    1.1643 H   0  0  0  0  0  0  0  0  0  0  0  0
   -0.4209    4.5669    1.8399 H   0  0  0  0  0  0  0  0  0  0  0  0
    0.3333    1.5782    1.9656 H   0  0  0  0  0  0  0  0  0  0  0  0
    0.2947    2.7665    3.3295 H   0  0  0  0  0  0  0  0  0  0  0  0
   -1.2476    2.2746    2.5262 H   0  0  0  0  0  0  0  0  0  0  0  0
    3.2325    2.1790   -2.6078 H   0  0  0  0  0  0  0  0  0  0  0  0
    6.9116   -1.7520   -5.7400 H   0  0  0  0  0  0  0  0  0  0  0  0
    8.3094   -3.2835   -7.0596 H   0  0  0  0  0  0  0  0  0  0  0  0
    9.7142   -7.6741   -6.4534 H   0  0  0  0  0  0  0  0  0  0  0  0
    9.0083   -6.5425   -5.2500 H   0  0  0  0  0  0  0  0  0  0  0  0
   10.4228   -4.6871   -6.1707 H   0  0  0  0  0  0  0  0  0  0  0  0
   11.4521   -6.0982   -5.7128 H   0  0  0  0  0  0  0  0  0  0  0  0
   11.0677   -5.7944   -7.4464 H   0  0  0  0  0  0  0  0  0  0  0  0
    4.4936   -5.0788   -4.4479 H   0  0  0  0  0  0  0  0  0  0  0  0
    5.5345   -4.3378   -2.3309 H   0  0  0  0  0  0  0  0  0  0  0  0
    5.9459   -5.8351   -0.5136 H   0  0  0  0  0  0  0  0  0  0  0  0
    8.2155   -6.2957    0.7033 H   0  0  0  0  0  0  0  0  0  0  0  0
    9.8404   -7.3431   -0.8185 H   0  0  0  0  0  0  0  0  0  0  0  0
   11.4406   -9.4907    0.0120 H   0  0  0  0  0  0  0  0  0  0  0  0
   12.2859  -10.5434   -1.1720 H   0  0  0  0  0  0  0  0  0  0  0  0
   11.7994  -11.8216    0.8657 H   0  0  0  0  0  0  0  0  0  0  0  0
   10.0381  -11.4363    0.7457 H   0  0  0  0  0  0  0  0  0  0  0  0
   10.8315  -12.4822   -0.5110 H   0  0  0  0  0  0  0  0  0  0  0  0
    5.9940   -9.9892    0.8649 H   0  0  0  0  0  0  0  0  0  0  0  0
    4.6679   -4.8465    5.9517 H   0  0  0  0  0  0  0  0  0  0  0  0
    3.0187   -3.8865    7.5142 H   0  0  0  0  0  0  0  0  0  0  0  0
   -0.3954   -1.6206    7.6855 H   0  0  0  0  0  0  0  0  0  0  0  0
    1.0369   -1.9248    6.6420 H   0  0  0  0  0  0  0  0  0  0  0  0
   -1.0193   -1.2103    5.3534 H   0  0  0  0  0  0  0  0  0  0  0  0
   -0.4426   -2.8444    4.8587 H   0  0  0  0  0  0  0  0  0  0  0  0
   -1.8855   -2.6806    5.9440 H   0  0  0  0  0  0  0  0  0  0  0  0
    1.4664   -6.5077    3.5937 H   0  0  0  0  0  0  0  0  0  0  0  0
    4.2401   -7.9108    6.0942 H   0  0  0  0  0  0  0  0  0  0  0  0
    5.8932   -9.9294    6.1323 H   0  0  0  0  0  0  0  0  0  0  0  0
  1  2  2  0
  2  3  1  0
  3  4  2  0
  4  5  1  0
  5  6  2  0
  6  7  1  0
  7  8  2  0
  8  9  1  0
  9 10  1  0
 10 11  1  0
  8 12  1  0
 12 13  1  0
 12 14  2  0
  4 15  1  0
 15 16  2  0
 16 17  1  0
 17 18  1  0
 18 19  2  0
 19 20  1  0
 20 21  2  0
 21 22  1  0
 22 23  1  0
 23 24  1  0
 21 25  1  0
 25 26  2  0
 25 27  1  0
 17 28  2  0
 28 29  1  0
 16 30  1  0
 30 31  2  0
 31 32  1  0
 31 33  1  0
 33 34  2  0
 34 35  1  0
 35 36  2  0
 36 37  1  0
 37 38  2  0
 36 39  1  0
 39 40  2  0
 40 41  1  0
 41 42  1  0
 41 43  1  0
 40 44  1  0
 44 45  2  0
 45 46  1  0
 46 47  2  0
 45 48  1  0
 48 49  2  0
 49 50  1  0
 50 51  2  0
 51 52  1  0
 52 53  2  0
 51 54  1  0
 54 55  2  0
 55 56  1  0
 56 57  1  0
 56 58  1  0
 55 59  1  0
 59 60  2  0
 60 61  1  0
 61 62  2  0
 60 63  1  0
 63 64  2  0
 64 65  1  0
 65 66  2  0
 66 67  1  0
 67 68  2  0
 68 69  1  0
 69 70  2  0
 70 71  1  0
 71 72  1  0
 72 73  1  0
 70 74  1  0
 74 75  1  0
 74 76  2  0
 66 77  1  0
 77 78  2  0
 78 79  1  0
 79 80  1  0
 80 81  2  0
 81 82  1  0
 82 83  2  0
 83 84  1  0
 84 85  1  0
 85 86  1  0
 83 87  1  0
 87 88  2  0
 87 89  1  0
 79 90  2  0
 90 91  1  0
 78 92  1  0
 92 93  2  0
 93 94  1  0
 93 95  1  0
 95 96  2  0
 96 97  1  0
 97 98  2  0
 98 99  1  0
 99100  2  0
100101  1  0
101102  2  0
102103  1  0
103104  1  0
104105  1  0
102106  1  0
106107  1  0
106108  2  0
 98109  1  0
109110  2  0
110111  1  0
111112  1  0
112113  2  0
113114  1  0
114115  2  0
115116  1  0
116117  1  0
117118  1  0
115119  1  0
119120  2  0
119121  1  0
111122  2  0
122123  1  0
110124  1  0
124125  2  0
125126  1  0
125127  1  0
127128  2  0
128129  1  0
129130  2  0
130131  1  0
131132  2  0
132133  1  0
133134  2  0
134135  1  0
135136  1  0
136137  1  0
134138  1  0
138139  1  0
138140  2  0
130141  1  0
141142  2  0
142143  1  0
143144  1  0
144145  2  0
145146  1  0
146147  2  0
147148  1  0
148149  1  0
149150  1  0
147151  1  0
151152  2  0
151153  1  0
143154  2  0
154155  1  0
142156  1  0
156157  2  0
157158  1  0
 29  1  1  0
 38 33  1  0
 47 39  1  0
 53 48  1  0
 62 54  1  0
 91 63  1  0
123 95  1  0
155127  1  0
 28  3  1  0
 41 35  1  0
 56 50  1  0
 90 65  1  0
122 97  1  0
154129  1  0
 14  5  1  0
 32 15  1  0
 76 67  1  0
 94 77  1  0
108 99  1  0
126109  1  0
140131  1  0
158141  1  0
 26 18  1  0
 88 80  1  0
120112  1  0
152144  1  0
  1159  1  0
  2160  1  0
  6161  1  0
  7162  1  0
 10163  1  0
 10164  1  0
 11165  1  0
 11166  1  0
 11167  1  0
 14168  1  0
 19169  1  0
 20170  1  0
 23171  1  0
 23172  1  0
 24173  1  0
 24174  1  0
 24175  1  0
 26176  1  0
 30177  1  0
 34178  1  0
 37179  1  0
 38180  1  0
 42181  1  0
 42182  1  0
 42183  1  0
 43184  1  0
 43185  1  0
 43186  1  0
 44187  1  0
 46188  1  0
 47189  1  0
 49190  1  0
 52191  1  0
 53192  1  0
 57193  1  0
 57194  1  0
 57195  1  0
 58196  1  0
 58197  1  0
 58198  1  0
 59199  1  0
 61200  1  0
 62201  1  0
 64202  1  0
 68203  1  0
 69204  1  0
 72205  1  0
 72206  1  0
 73207  1  0
 73208  1  0
 73209  1  0
 76210  1  0
 81211  1  0
 82212  1  0
 85213  1  0
 85214  1  0
 86215  1  0
 86216  1  0
 86217  1  0
 88218  1  0
 92219  1  0
 96220  1  0
100221  1  0
101222  1  0
104223  1  0
104224  1  0
105225  1  0
105226  1  0
105227  1  0
108228  1  0
113229  1  0
114230  1  0
117231  1  0
117232  1  0
118233  1  0
118234  1  0
118235  1  0
120236  1  0
124237  1  0
128238  1  0
132239  1  0
133240  1  0
136241  1  0
136242  1  0
137243  1  0
137244  1  0
137245  1  0
140246  1  0
145247  1  0
146248  1  0
149249  1  0
149250  1  0
150251  1  0
150252  1  0
150253  1  0
152254  1  0
156255  1  0
157256  1  0
M  END

