
     RDKit          3D

239266  0  0  0  0  0  0  0  0999 V2000
    8.6061   -3.4152    8.4801 C   0  0  0  0  0  0  0  0  0  0  0  0
    8.5682   -2.0574    8.1719 C   0  0  0  0  0  0  0  0  0  0  0  0
    7.2616   -1.5530    8.0528 C   0  0  0  0  0  0  0  0  0  0  0  0
    6.9009   -0.2225    7.7598 C   0  0  0  0  0  0  0  0  0  0  0  0
    7.9018    0.8073    7.4233 C   0  0  0  0  0  0  0  0  0  0  0  0
    8.0811    2.2707    8.2317 S   0  0  0  0  0  0  0  0  0  0  0  0
    9.2410    2.9107    7.1947 C   0  0  0  0  0  0  0  0  0  0  0  0
    9.7626    4.3139    7.2728 C   0  0  0  0  0  0  0  0  0  0  0  0
    8.8387    5.2716    6.5275 C   0  0  0  0  0  0  0  0  0  0  0  0
    9.4790    1.9923    6.1735 C   0  0  0  0  0  0  0  0  0  0  0  0
   10.5620    2.3015    4.8222 Cl  0  0  0  0  0  0  0  0  0  0  0  0
    8.7330    0.8112    6.3049 C   0  0  0  0  0  0  0  0  0  0  0  0
    8.7637   -0.4850    5.1139 Cl  0  0  0  0  0  0  0  0  0  0  0  0
    5.5268    0.0713    7.7387 C   0  0  0  0  0  0  0  0  0  0  0  0
    4.5439   -0.8988    7.9595 C   0  0  0  0  0  0  0  0  0  0  0  0
    4.9063   -2.2319    8.2353 C   0  0  0  0  0  0  0  0  0  0  0  0
    3.8994   -3.2892    8.4169 C   0  0  0  0  0  0  0  0  0  0  0  0
    3.6376   -4.5497    7.3360 S   0  0  0  0  0  0  0  0  0  0  0  0
    2.3506   -5.2416    8.1733 C   0  0  0  0  0  0  0  0  0  0  0  0
    1.5841   -6.4435    7.7097 C   0  0  0  0  0  0  0  0  0  0  0  0
    2.4550   -7.6958    7.7394 C   0  0  0  0  0  0  0  0  0  0  0  0
    2.1105   -4.4848    9.3221 C   0  0  0  0  0  0  0  0  0  0  0  0
    2.9768   -3.3879    9.4544 C   0  0  0  0  0  0  0  0  0  0  0  0
    2.9076   -2.2571   10.8018 Cl  0  0  0  0  0  0  0  0  0  0  0  0
    0.8439   -4.8490   10.4867 Cl  0  0  0  0  0  0  0  0  0  0  0  0
    6.2790   -2.5215    8.2761 C   0  0  0  0  0  0  0  0  0  0  0  0
    7.0261   -3.9921    8.6127 S   0  0  0  0  0  0  0  0  0  0  0  0
    3.2377   -0.4116    7.7979 C   0  0  0  0  0  0  0  0  0  0  0  0
    3.2003    0.9378    7.4506 C   0  0  0  0  0  0  0  0  0  0  0  0
    4.7797    1.5237    7.3394 S   0  0  0  0  0  0  0  0  0  0  0  0
    1.9964    1.6804    7.0476 C   0  0  0  0  0  0  0  0  0  0  0  0
    1.9791    2.9864    6.5649 C   0  0  0  0  0  0  0  0  0  0  0  0
    0.7367    3.3591    6.0260 C   0  0  0  0  0  0  0  0  0  0  0  0
    0.4541    4.5570    5.3382 C   0  0  0  0  0  0  0  0  0  0  0  0
    1.4873    5.5854    5.1163 C   0  0  0  0  0  0  0  0  0  0  0  0
    2.8944    5.3530    4.2258 S   0  0  0  0  0  0  0  0  0  0  0  0
    3.5233    6.8917    4.4792 C   0  0  0  0  0  0  0  0  0  0  0  0
    4.8244    7.3829    3.9195 C   0  0  0  0  0  0  0  0  0  0  0  0
    4.5977    8.2302    2.6714 C   0  0  0  0  0  0  0  0  0  0  0  0
    2.6216    7.6191    5.2563 C   0  0  0  0  0  0  0  0  0  0  0  0
    2.8887    9.2856    5.7485 Cl  0  0  0  0  0  0  0  0  0  0  0  0
    1.4797    6.8844    5.6146 C   0  0  0  0  0  0  0  0  0  0  0  0
    0.1882    7.5275    6.6199 Cl  0  0  0  0  0  0  0  0  0  0  0  0
   -0.8183    4.6650    4.7483 C   0  0  0  0  0  0  0  0  0  0  0  0
   -1.7754    3.6483    4.8340 C   0  0  0  0  0  0  0  0  0  0  0  0
   -1.5030    2.4619    5.5471 C   0  0  0  0  0  0  0  0  0  0  0  0
   -2.4456    1.3252    5.5653 C   0  0  0  0  0  0  0  0  0  0  0  0
   -3.0053    0.5154    4.1983 S   0  0  0  0  0  0  0  0  0  0  0  0
   -4.0095   -0.5544    5.0187 C   0  0  0  0  0  0  0  0  0  0  0  0
   -4.8527   -1.6046    4.3605 C   0  0  0  0  0  0  0  0  0  0  0  0
   -4.1168   -2.9377    4.3013 C   0  0  0  0  0  0  0  0  0  0  0  0
   -3.8973   -0.3118    6.3865 C   0  0  0  0  0  0  0  0  0  0  0  0
   -3.0239    0.7461    6.6934 C   0  0  0  0  0  0  0  0  0  0  0  0
   -2.7355    1.3137    8.3336 Cl  0  0  0  0  0  0  0  0  0  0  0  0
   -4.7604   -1.2339    7.6103 Cl  0  0  0  0  0  0  0  0  0  0  0  0
   -0.2290    2.3521    6.1281 C   0  0  0  0  0  0  0  0  0  0  0  0
    0.4673    0.9948    6.8404 S   0  0  0  0  0  0  0  0  0  0  0  0
   -2.9098    3.8944    4.0425 C   0  0  0  0  0  0  0  0  0  0  0  0
   -2.8127    5.0584    3.2788 C   0  0  0  0  0  0  0  0  0  0  0  0
   -1.3520    5.8234    3.6507 S   0  0  0  0  0  0  0  0  0  0  0  0
   -3.5682    5.3001    2.0367 C   0  0  0  0  0  0  0  0  0  0  0  0
   -4.2459    4.2945    1.3425 C   0  0  0  0  0  0  0  0  0  0  0  0
   -4.3916    4.5635   -0.0271 C   0  0  0  0  0  0  0  0  0  0  0  0
   -4.7742    3.6315   -1.0162 C   0  0  0  0  0  0  0  0  0  0  0  0
   -5.0663    2.2187   -0.6884 C   0  0  0  0  0  0  0  0  0  0  0  0
   -6.4911    1.4161   -1.0860 S   0  0  0  0  0  0  0  0  0  0  0  0
   -6.0166   -0.0937   -0.5116 C   0  0  0  0  0  0  0  0  0  0  0  0
   -6.8798   -1.3190   -0.5195 C   0  0  0  0  0  0  0  0  0  0  0  0
   -7.6237   -1.4594    0.8038 C   0  0  0  0  0  0  0  0  0  0  0  0
   -4.7281    0.0109    0.0097 C   0  0  0  0  0  0  0  0  0  0  0  0
   -3.8392   -1.3538    0.6749 Cl  0  0  0  0  0  0  0  0  0  0  0  0
   -4.1896    1.3028   -0.1011 C   0  0  0  0  0  0  0  0  0  0  0  0
   -2.5375    1.6888    0.3714 Cl  0  0  0  0  0  0  0  0  0  0  0  0
   -4.6594    4.0496   -2.3552 C   0  0  0  0  0  0  0  0  0  0  0  0
   -4.1669    5.3100   -2.7158 C   0  0  0  0  0  0  0  0  0  0  0  0
   -3.8272    6.2516   -1.7231 C   0  0  0  0  0  0  0  0  0  0  0  0
   -3.2961    7.5860   -2.0545 C   0  0  0  0  0  0  0  0  0  0  0  0
   -1.8054    7.8870   -2.7721 S   0  0  0  0  0  0  0  0  0  0  0  0
   -1.9380    9.5643   -2.7552 C   0  0  0  0  0  0  0  0  0  0  0  0
   -0.9325   10.5045   -3.3494 C   0  0  0  0  0  0  0  0  0  0  0  0
   -1.2104   10.7174   -4.8327 C   0  0  0  0  0  0  0  0  0  0  0  0
   -3.1660    9.9108   -2.1936 C   0  0  0  0  0  0  0  0  0  0  0  0
   -3.9201    8.8006   -1.7894 C   0  0  0  0  0  0  0  0  0  0  0  0
   -5.5079    8.9263   -1.0430 Cl  0  0  0  0  0  0  0  0  0  0  0  0
   -3.7185   11.5698   -2.0016 Cl  0  0  0  0  0  0  0  0  0  0  0  0
   -3.9309    5.8330   -0.3864 C   0  0  0  0  0  0  0  0  0  0  0  0
   -3.2562    6.5712    0.9683 S   0  0  0  0  0  0  0  0  0  0  0  0
   -3.9078    5.4302   -4.0935 C   0  0  0  0  0  0  0  0  0  0  0  0
   -4.1765    4.2641   -4.8077 C   0  0  0  0  0  0  0  0  0  0  0  0
   -4.7594    3.0978   -3.7363 S   0  0  0  0  0  0  0  0  0  0  0  0
   -3.5127    3.8974   -6.0627 C   0  0  0  0  0  0  0  0  0  0  0  0
   -3.9387    2.8604   -6.8885 C   0  0  0  0  0  0  0  0  0  0  0  0
   -2.8916    2.2569   -7.6080 C   0  0  0  0  0  0  0  0  0  0  0  0
   -2.9848    1.0731   -8.3684 C   0  0  0  0  0  0  0  0  0  0  0  0
   -4.2713    0.3979   -8.6198 C   0  0  0  0  0  0  0  0  0  0  0  0
   -4.9527    0.1990  -10.1428 S   0  0  0  0  0  0  0  0  0  0  0  0
   -6.3138   -0.6392   -9.6202 C   0  0  0  0  0  0  0  0  0  0  0  0
   -7.3641   -1.1996  -10.5300 C   0  0  0  0  0  0  0  0  0  0  0  0
   -7.0289   -2.6366  -10.9153 C   0  0  0  0  0  0  0  0  0  0  0  0
   -6.2344   -0.8036   -8.2383 C   0  0  0  0  0  0  0  0  0  0  0  0
   -7.4323   -1.6785   -7.2926 Cl  0  0  0  0  0  0  0  0  0  0  0  0
   -5.0902   -0.2171   -7.6762 C   0  0  0  0  0  0  0  0  0  0  0  0
   -4.7101   -0.2991   -5.9619 Cl  0  0  0  0  0  0  0  0  0  0  0  0
   -1.7764    0.4857   -8.7790 C   0  0  0  0  0  0  0  0  0  0  0  0
   -0.5296    1.0437   -8.4843 C   0  0  0  0  0  0  0  0  0  0  0  0
   -0.4394    2.2812   -7.8145 C   0  0  0  0  0  0  0  0  0  0  0  0
    0.8678    2.8632   -7.4463 C   0  0  0  0  0  0  0  0  0  0  0  0
    1.4006    3.1250   -5.8708 S   0  0  0  0  0  0  0  0  0  0  0  0
    2.9329    3.6757   -6.2889 C   0  0  0  0  0  0  0  0  0  0  0  0
    3.9547    4.1721   -5.3108 C   0  0  0  0  0  0  0  0  0  0  0  0
    3.8007    5.6725   -5.0899 C   0  0  0  0  0  0  0  0  0  0  0  0
    3.0458    3.6750   -7.6782 C   0  0  0  0  0  0  0  0  0  0  0  0
    1.8926    3.2102   -8.3271 C   0  0  0  0  0  0  0  0  0  0  0  0
    1.7429    3.1135  -10.0770 Cl  0  0  0  0  0  0  0  0  0  0  0  0
    4.4839    4.2121   -8.5353 Cl  0  0  0  0  0  0  0  0  0  0  0  0
   -1.6472    2.8494   -7.3696 C   0  0  0  0  0  0  0  0  0  0  0  0
   -1.8526    4.1103   -6.2778 S   0  0  0  0  0  0  0  0  0  0  0  0
    0.5386    0.1532   -8.6988 C   0  0  0  0  0  0  0  0  0  0  0  0
    0.1312   -1.1144   -9.1245 C   0  0  0  0  0  0  0  0  0  0  0  0
   -1.5499   -1.0964   -9.2945 S   0  0  0  0  0  0  0  0  0  0  0  0
    0.8670   -2.3662   -8.8439 C   0  0  0  0  0  0  0  0  0  0  0  0
    1.6565   -2.4444   -7.6772 C   0  0  0  0  0  0  0  0  0  0  0  0
    1.9605   -3.6990   -7.1390 C   0  0  0  0  0  0  0  0  0  0  0  0
    1.5576   -4.8563   -7.7848 C   0  0  0  0  0  0  0  0  0  0  0  0
    0.8743   -4.8075   -9.0016 C   0  0  0  0  0  0  0  0  0  0  0  0
    0.5313   -3.5531   -9.5304 C   0  0  0  0  0  0  0  0  0  0  0  0
    1.6383   -5.9587   -6.8393 C   0  0  0  0  0  0  0  0  0  0  0  0
    2.0979   -5.4598   -5.6313 C   0  0  0  0  0  0  0  0  0  0  0  0
    2.4011   -3.9815   -5.7181 C   0  0  0  0  0  0  0  0  0  0  0  0
    1.5550   -3.1759   -4.7052 C   0  0  0  0  0  0  0  0  0  0  0  0
    3.9000   -3.7104   -5.5417 C   0  0  0  0  0  0  0  0  0  0  0  0
    1.9137   -6.1841   -4.4520 C   0  0  0  0  0  0  0  0  0  0  0  0
    1.1415   -7.3577   -4.4820 C   0  0  0  0  0  0  0  0  0  0  0  0
    0.7437   -7.8997   -5.7212 C   0  0  0  0  0  0  0  0  0  0  0  0
    0.9991   -7.2012   -6.9139 C   0  0  0  0  0  0  0  0  0  0  0  0
    0.3315   -7.6295   -3.2920 C   0  0  0  0  0  0  0  0  0  0  0  0
   -0.6202   -6.7211   -2.8534 C   0  0  0  0  0  0  0  0  0  0  0  0
   -1.0908   -6.9911   -1.5696 C   0  0  0  0  0  0  0  0  0  0  0  0
   -1.9856   -6.1871   -0.8412 C   0  0  0  0  0  0  0  0  0  0  0  0
   -2.4498   -4.8936   -1.3743 C   0  0  0  0  0  0  0  0  0  0  0  0
   -1.4172   -3.6255   -1.7786 S   0  0  0  0  0  0  0  0  0  0  0  0
   -2.5306   -2.7569   -2.6866 C   0  0  0  0  0  0  0  0  0  0  0  0
   -2.1903   -1.5401   -3.4960 C   0  0  0  0  0  0  0  0  0  0  0  0
   -2.7875   -0.2814   -2.8874 C   0  0  0  0  0  0  0  0  0  0  0  0
   -3.7406   -3.4518   -2.6842 C   0  0  0  0  0  0  0  0  0  0  0  0
   -5.1565   -2.9382   -3.5884 Cl  0  0  0  0  0  0  0  0  0  0  0  0
   -3.6918   -4.6535   -1.9557 C   0  0  0  0  0  0  0  0  0  0  0  0
   -5.0217   -5.8015   -1.8911 Cl  0  0  0  0  0  0  0  0  0  0  0  0
   -2.3377   -6.6361    0.4388 C   0  0  0  0  0  0  0  0  0  0  0  0
   -1.8063   -7.8026    0.9976 C   0  0  0  0  0  0  0  0  0  0  0  0
   -0.8726   -8.5812    0.2811 C   0  0  0  0  0  0  0  0  0  0  0  0
   -0.2172   -9.7518    0.8810 C   0  0  0  0  0  0  0  0  0  0  0  0
   -0.9420  -11.2480    1.1185 S   0  0  0  0  0  0  0  0  0  0  0  0
    0.3884  -11.9734    1.8540 C   0  0  0  0  0  0  0  0  0  0  0  0
    0.4036  -13.3681    2.4053 C   0  0  0  0  0  0  0  0  0  0  0  0
   -0.0995  -13.3852    3.8434 C   0  0  0  0  0  0  0  0  0  0  0  0
    1.4133  -11.0305    1.9502 C   0  0  0  0  0  0  0  0  0  0  0  0
    1.0742   -9.7871    1.3956 C   0  0  0  0  0  0  0  0  0  0  0  0
    2.1545   -8.3998    1.3881 Cl  0  0  0  0  0  0  0  0  0  0  0  0
    2.9660  -11.3563    2.7126 Cl  0  0  0  0  0  0  0  0  0  0  0  0
   -0.5324   -8.1437   -1.0110 C   0  0  0  0  0  0  0  0  0  0  0  0
    0.5918   -8.7980   -2.0977 S   0  0  0  0  0  0  0  0  0  0  0  0
   -2.2590   -8.0355    2.3058 C   0  0  0  0  0  0  0  0  0  0  0  0
   -3.1369   -7.0580    2.7648 C   0  0  0  0  0  0  0  0  0  0  0  0
   -3.3515   -5.8952    1.5589 S   0  0  0  0  0  0  0  0  0  0  0  0
    9.5047   -4.0011    8.6248 H   0  0  0  0  0  0  0  0  0  0  0  0
    9.4639   -1.4592    8.0516 H   0  0  0  0  0  0  0  0  0  0  0  0
    9.8285    4.6208    8.3375 H   0  0  0  0  0  0  0  0  0  0  0  0
   10.7847    4.3669    6.8397 H   0  0  0  0  0  0  0  0  0  0  0  0
    7.8257    5.2563    6.9822 H   0  0  0  0  0  0  0  0  0  0  0  0
    8.7642    4.9840    5.4578 H   0  0  0  0  0  0  0  0  0  0  0  0
    9.2431    6.3034    6.5910 H   0  0  0  0  0  0  0  0  0  0  0  0
    0.6901   -6.6104    8.3453 H   0  0  0  0  0  0  0  0  0  0  0  0
    1.2314   -6.2700    6.6699 H   0  0  0  0  0  0  0  0  0  0  0  0
    1.8491   -8.5754    7.4397 H   0  0  0  0  0  0  0  0  0  0  0  0
    2.8529   -7.8630    8.7645 H   0  0  0  0  0  0  0  0  0  0  0  0
    3.3024   -7.5948    7.0275 H   0  0  0  0  0  0  0  0  0  0  0  0
    2.3509   -1.0275    7.8821 H   0  0  0  0  0  0  0  0  0  0  0  0
    2.8546    3.6207    6.5485 H   0  0  0  0  0  0  0  0  0  0  0  0
    5.4621    6.5122    3.6549 H   0  0  0  0  0  0  0  0  0  0  0  0
    5.3648    7.9767    4.6869 H   0  0  0  0  0  0  0  0  0  0  0  0
    4.0327    9.1515    2.9252 H   0  0  0  0  0  0  0  0  0  0  0  0
    5.5770    8.5250    2.2385 H   0  0  0  0  0  0  0  0  0  0  0  0
    4.0333    7.6495    1.9114 H   0  0  0  0  0  0  0  0  0  0  0  0
   -5.0991   -1.2769    3.3302 H   0  0  0  0  0  0  0  0  0  0  0  0
   -5.8092   -1.7255    4.9109 H   0  0  0  0  0  0  0  0  0  0  0  0
   -4.7367   -3.6773    3.7533 H   0  0  0  0  0  0  0  0  0  0  0  0
   -3.9297   -3.3207    5.3260 H   0  0  0  0  0  0  0  0  0  0  0  0
   -3.1496   -2.8198    3.7673 H   0  0  0  0  0  0  0  0  0  0  0  0
   -3.7336    3.2005    3.9489 H   0  0  0  0  0  0  0  0  0  0  0  0
   -4.4964    3.3389    1.7817 H   0  0  0  0  0  0  0  0  0  0  0  0
   -7.6167   -1.2480   -1.3479 H   0  0  0  0  0  0  0  0  0  0  0  0
   -6.2568   -2.2234   -0.6931 H   0  0  0  0  0  0  0  0  0  0  0  0
   -8.2365   -0.5532    1.0006 H   0  0  0  0  0  0  0  0  0  0  0  0
   -8.2955   -2.3402    0.7637 H   0  0  0  0  0  0  0  0  0  0  0  0
   -6.9026   -1.6000    1.6365 H   0  0  0  0  0  0  0  0  0  0  0  0
    0.0852   10.0800   -3.2207 H   0  0  0  0  0  0  0  0  0  0  0  0
   -0.9640   11.4816   -2.8220 H   0  0  0  0  0  0  0  0  0  0  0  0
   -0.4563   11.4140   -5.2562 H   0  0  0  0  0  0  0  0  0  0  0  0
   -1.1460    9.7522   -5.3786 H   0  0  0  0  0  0  0  0  0  0  0  0
   -2.2211   11.1544   -4.9776 H   0  0  0  0  0  0  0  0  0  0  0  0
   -3.4266    6.2910   -4.5407 H   0  0  0  0  0  0  0  0  0  0  0  0
   -4.9495    2.4735   -6.8601 H   0  0  0  0  0  0  0  0  0  0  0  0
   -7.4250   -0.5787  -11.4494 H   0  0  0  0  0  0  0  0  0  0  0  0
   -8.3550   -1.1679  -10.0298 H   0  0  0  0  0  0  0  0  0  0  0  0
   -6.0447   -2.6785  -11.4257 H   0  0  0  0  0  0  0  0  0  0  0  0
   -7.0021   -3.2830  -10.0132 H   0  0  0  0  0  0  0  0  0  0  0  0
   -7.8048   -3.0210  -11.6089 H   0  0  0  0  0  0  0  0  0  0  0  0
    3.8273    3.6424   -4.3422 H   0  0  0  0  0  0  0  0  0  0  0  0
    4.9758    3.9524   -5.6874 H   0  0  0  0  0  0  0  0  0  0  0  0
    4.5718    6.0230   -4.3731 H   0  0  0  0  0  0  0  0  0  0  0  0
    3.9341    6.2187   -6.0480 H   0  0  0  0  0  0  0  0  0  0  0  0
    2.7955    5.8986   -4.6728 H   0  0  0  0  0  0  0  0  0  0  0  0
    1.5557    0.3715   -8.4037 H   0  0  0  0  0  0  0  0  0  0  0  0
    1.8801   -1.5586   -7.0994 H   0  0  0  0  0  0  0  0  0  0  0  0
    0.5217   -5.7126   -9.4778 H   0  0  0  0  0  0  0  0  0  0  0  0
   -0.0886   -3.5131  -10.4155 H   0  0  0  0  0  0  0  0  0  0  0  0
    1.8272   -3.4402   -3.6630 H   0  0  0  0  0  0  0  0  0  0  0  0
    1.7268   -2.0849   -4.8241 H   0  0  0  0  0  0  0  0  0  0  0  0
    0.4746   -3.3849   -4.8510 H   0  0  0  0  0  0  0  0  0  0  0  0
    4.1159   -2.6307   -5.6883 H   0  0  0  0  0  0  0  0  0  0  0  0
    4.2216   -4.0019   -4.5193 H   0  0  0  0  0  0  0  0  0  0  0  0
    4.4915   -4.2931   -6.2803 H   0  0  0  0  0  0  0  0  0  0  0  0
    2.1650   -5.7317   -3.5009 H   0  0  0  0  0  0  0  0  0  0  0  0
    0.1075   -8.7750   -5.7514 H   0  0  0  0  0  0  0  0  0  0  0  0
    0.5786   -7.5563   -7.8456 H   0  0  0  0  0  0  0  0  0  0  0  0
   -0.9178   -5.8637   -3.4422 H   0  0  0  0  0  0  0  0  0  0  0  0
   -1.0860   -1.4247   -3.5439 H   0  0  0  0  0  0  0  0  0  0  0  0
   -2.5550   -1.6733   -4.5337 H   0  0  0  0  0  0  0  0  0  0  0  0
   -2.3582   -0.1178   -1.8782 H   0  0  0  0  0  0  0  0  0  0  0  0
   -2.5379    0.5954   -3.5232 H   0  0  0  0  0  0  0  0  0  0  0  0
   -3.8911   -0.3631   -2.8165 H   0  0  0  0  0  0  0  0  0  0  0  0
   -0.2493  -14.0149    1.7810 H   0  0  0  0  0  0  0  0  0  0  0  0
    1.4323  -13.7837    2.3655 H   0  0  0  0  0  0  0  0  0  0  0  0
   -0.0488  -14.4206    4.2415 H   0  0  0  0  0  0  0  0  0  0  0  0
    0.5299  -12.7293    4.4817 H   0  0  0  0  0  0  0  0  0  0  0  0
   -1.1549  -13.0404    3.8864 H   0  0  0  0  0  0  0  0  0  0  0  0
   -1.9507   -8.8783    2.9107 H   0  0  0  0  0  0  0  0  0  0  0  0
   -3.5977   -7.0409    3.7424 H   0  0  0  0  0  0  0  0  0  0  0  0
  1  2  2  0
  2  3  1  0
  3  4  2  0
  4  5  1  0
  5  6  1  0
  6  7  1  0
  7  8  1  0
  8  9  1  0
  7 10  2  0
 10 11  1  0
 10 12  1  0
 12 13  1  0
  4 14  1  0
 14 15  2  0
 15 16  1  0
 16 17  1  0
 17 18  1  0
 18 19  1  0
 19 20  1  0
 20 21  1  0
 19 22  2  0
 22 23  1  0
 23 24  1  0
 22 25  1  0
 16 26  2  0
 26 27  1  0
 15 28  1  0
 28 29  2  0
 29 30  1  0
 29 31  1  0
 31 32  2  0
 32 33  1  0
 33 34  2  0
 34 35  1  0
 35 36  1  0
 36 37  1  0
 37 38  1  0
 38 39  1  0
 37 40  2  0
 40 41  1  0
 40 42  1  0
 42 43  1  0
 34 44  1  0
 44 45  2  0
 45 46  1  0
 46 47  1  0
 47 48  1  0
 48 49  1  0
 49 50  1  0
 50 51  1  0
 49 52  2  0
 52 53  1  0
 53 54  1  0
 52 55  1  0
 46 56  2  0
 56 57  1  0
 45 58  1  0
 58 59  2  0
 59 60  1  0
 59 61  1  0
 61 62  2  0
 62 63  1  0
 63 64  2  0
 64 65  1  0
 65 66  1  0
 66 67  1  0
 67 68  1  0
 68 69  1  0
 67 70  2  0
 70 71  1  0
 70 72  1  0
 72 73  1  0
 64 74  1  0
 74 75  2  0
 75 76  1  0
 76 77  1  0
 77 78  1  0
 78 79  1  0
 79 80  1  0
 80 81  1  0
 79 82  2  0
 82 83  1  0
 83 84  1  0
 82 85  1  0
 76 86  2  0
 86 87  1  0
 75 88  1  0
 88 89  2  0
 89 90  1  0
 89 91  1  0
 91 92  2  0
 92 93  1  0
 93 94  2  0
 94 95  1  0
 95 96  1  0
 96 97  1  0
 97 98  1  0
 98 99  1  0
 97100  2  0
100101  1  0
100102  1  0
102103  1  0
 94104  1  0
104105  2  0
105106  1  0
106107  1  0
107108  1  0
108109  1  0
109110  1  0
110111  1  0
109112  2  0
112113  1  0
113114  1  0
112115  1  0
106116  2  0
116117  1  0
105118  1  0
118119  2  0
119120  1  0
119121  1  0
121122  2  0
122123  1  0
123124  2  0
124125  1  0
125126  2  0
124127  1  0
127128  2  0
128129  1  0
129130  1  0
129131  1  0
128132  1  0
132133  2  0
133134  1  0
134135  2  0
133136  1  0
136137  2  0
137138  1  0
138139  2  0
139140  1  0
140141  1  0
141142  1  0
142143  1  0
143144  1  0
142145  2  0
145146  1  0
145147  1  0
147148  1  0
139149  1  0
149150  2  0
150151  1  0
151152  1  0
152153  1  0
153154  1  0
154155  1  0
155156  1  0
154157  2  0
157158  1  0
158159  1  0
157160  1  0
151161  2  0
161162  1  0
150163  1  0
163164  2  0
164165  1  0
 27  1  1  0
 57 31  1  0
 87 61  1  0
117 91  1  0
126121  1  0
135127  1  0
162136  1  0
 26  3  1  0
 56 33  1  0
 86 63  1  0
116 93  1  0
129123  1  0
161138  1  0
 12  5  2  0
 30 14  1  0
 42 35  2  0
 60 44  1  0
 72 65  2  0
 90 74  1  0
102 95  2  0
120104  1  0
147140  2  0
165149  1  0
 23 17  2  0
 53 47  2  0
 83 77  2  0
113107  2  0
158152  2  0
  1166  1  0
  2167  1  0
  8168  1  0
  8169  1  0
  9170  1  0
  9171  1  0
  9172  1  0
 20173  1  0
 20174  1  0
 21175  1  0
 21176  1  0
 21177  1  0
 28178  1  0
 32179  1  0
 38180  1  0
 38181  1  0
 39182  1  0
 39183  1  0
 39184  1  0
 50185  1  0
 50186  1  0
 51187  1  0
 51188  1  0
 51189  1  0
 58190  1  0
 62191  1  0
 68192  1  0
 68193  1  0
 69194  1  0
 69195  1  0
 69196  1  0
 80197  1  0
 80198  1  0
 81199  1  0
 81200  1  0
 81201  1  0
 88202  1  0
 92203  1  0
 98204  1  0
 98205  1  0
 99206  1  0
 99207  1  0
 99208  1  0
110209  1  0
110210  1  0
111211  1  0
111212  1  0
111213  1  0
118214  1  0
122215  1  0
125216  1  0
126217  1  0
130218  1  0
130219  1  0
130220  1  0
131221  1  0
131222  1  0
131223  1  0
132224  1  0
134225  1  0
135226  1  0
137227  1  0
143228  1  0
143229  1  0
144230  1  0
144231  1  0
144232  1  0
155233  1  0
155234  1  0
156235  1  0
156236  1  0
156237  1  0
163238  1  0
164239  1  0
M  END

