
     RDKit          3D

209232  0  0  0  0  0  0  0  0999 V2000
    1.5749  -10.1389    7.3554 C   0  0  0  0  0  0  0  0  0  0  0  0
    1.4173   -8.8168    7.7603 C   0  0  0  0  0  0  0  0  0  0  0  0
    0.7680   -8.0143    6.8052 C   0  0  0  0  0  0  0  0  0  0  0  0
    0.4428   -6.6439    6.9312 C   0  0  0  0  0  0  0  0  0  0  0  0
    0.8400   -5.8628    8.1213 C   0  0  0  0  0  0  0  0  0  0  0  0
    2.4193   -5.7123    8.6821 S   0  0  0  0  0  0  0  0  0  0  0  0
    2.0420   -4.8784   10.0909 C   0  0  0  0  0  0  0  0  0  0  0  0
    3.0451   -4.4520   11.1224 C   0  0  0  0  0  0  0  0  0  0  0  0
    3.7194   -3.1505   10.7156 C   0  0  0  0  0  0  0  0  0  0  0  0
    0.6620   -4.6834   10.1318 C   0  0  0  0  0  0  0  0  0  0  0  0
   -0.1629   -3.8605   11.4491 Cl  0  0  0  0  0  0  0  0  0  0  0  0
   -0.0124   -5.2469    9.0349 C   0  0  0  0  0  0  0  0  0  0  0  0
   -1.7649   -5.2748    8.9052 Cl  0  0  0  0  0  0  0  0  0  0  0  0
   -0.2588   -6.0583    5.8585 C   0  0  0  0  0  0  0  0  0  0  0  0
   -0.6230   -6.7841    4.7196 C   0  0  0  0  0  0  0  0  0  0  0  0
   -0.3074   -8.1510    4.6014 C   0  0  0  0  0  0  0  0  0  0  0  0
   -0.7211   -8.9421    3.4280 C   0  0  0  0  0  0  0  0  0  0  0  0
    0.3299   -9.5503    2.2655 S   0  0  0  0  0  0  0  0  0  0  0  0
   -0.8655  -10.1463    1.2394 C   0  0  0  0  0  0  0  0  0  0  0  0
   -0.6045  -10.7492   -0.1074 C   0  0  0  0  0  0  0  0  0  0  0  0
   -0.5489   -9.6647   -1.1790 C   0  0  0  0  0  0  0  0  0  0  0  0
   -2.1128   -9.8541    1.7896 C   0  0  0  0  0  0  0  0  0  0  0  0
   -2.0327   -9.1834    3.0191 C   0  0  0  0  0  0  0  0  0  0  0  0
   -3.4450   -8.6908    3.9442 Cl  0  0  0  0  0  0  0  0  0  0  0  0
   -3.6361  -10.2498    1.0083 Cl  0  0  0  0  0  0  0  0  0  0  0  0
    0.4043   -8.7295    5.6604 C   0  0  0  0  0  0  0  0  0  0  0  0
    0.8942  -10.3300    5.8270 S   0  0  0  0  0  0  0  0  0  0  0  0
   -1.2831   -6.0116    3.7548 C   0  0  0  0  0  0  0  0  0  0  0  0
   -1.4576   -4.6879    4.1375 C   0  0  0  0  0  0  0  0  0  0  0  0
   -0.7661   -4.4589    5.6644 S   0  0  0  0  0  0  0  0  0  0  0  0
   -2.1194   -3.6640    3.3149 C   0  0  0  0  0  0  0  0  0  0  0  0
   -2.4450   -2.3635    3.7043 C   0  0  0  0  0  0  0  0  0  0  0  0
   -3.0431   -1.6189    2.6706 C   0  0  0  0  0  0  0  0  0  0  0  0
   -3.4412   -0.2699    2.7341 C   0  0  0  0  0  0  0  0  0  0  0  0
   -3.2686    0.5272    3.9562 C   0  0  0  0  0  0  0  0  0  0  0  0
   -4.1413    0.3207    5.3774 S   0  0  0  0  0  0  0  0  0  0  0  0
   -3.3592    1.5383    6.2392 C   0  0  0  0  0  0  0  0  0  0  0  0
   -3.5993    1.8403    7.6861 C   0  0  0  0  0  0  0  0  0  0  0  0
   -2.7021    0.9796    8.5684 C   0  0  0  0  0  0  0  0  0  0  0  0
   -2.3818    2.1068    5.4241 C   0  0  0  0  0  0  0  0  0  0  0  0
   -1.2864    3.3731    5.9598 Cl  0  0  0  0  0  0  0  0  0  0  0  0
   -2.3354    1.5414    4.1415 C   0  0  0  0  0  0  0  0  0  0  0  0
   -1.1620    1.9996    2.9202 Cl  0  0  0  0  0  0  0  0  0  0  0  0
   -3.9293    0.3093    1.5488 C   0  0  0  0  0  0  0  0  0  0  0  0
   -4.0361   -0.4040    0.3508 C   0  0  0  0  0  0  0  0  0  0  0  0
   -3.6688   -1.7639    0.2930 C   0  0  0  0  0  0  0  0  0  0  0  0
   -3.7198   -2.5332   -0.9646 C   0  0  0  0  0  0  0  0  0  0  0  0
   -2.3846   -3.2235   -1.7173 S   0  0  0  0  0  0  0  0  0  0  0  0
   -3.2238   -3.8703   -3.0229 C   0  0  0  0  0  0  0  0  0  0  0  0
   -2.6075   -4.7215   -4.0911 C   0  0  0  0  0  0  0  0  0  0  0  0
   -2.5520   -6.1775   -3.6462 C   0  0  0  0  0  0  0  0  0  0  0  0
   -4.5783   -3.5707   -2.8723 C   0  0  0  0  0  0  0  0  0  0  0  0
   -4.8541   -2.8111   -1.7243 C   0  0  0  0  0  0  0  0  0  0  0  0
   -6.4775   -2.3153   -1.2631 Cl  0  0  0  0  0  0  0  0  0  0  0  0
   -5.8219   -4.1122   -3.9917 Cl  0  0  0  0  0  0  0  0  0  0  0  0
   -3.1672   -2.3357    1.4753 C   0  0  0  0  0  0  0  0  0  0  0  0
   -2.5731   -3.8889    1.7046 S   0  0  0  0  0  0  0  0  0  0  0  0
   -4.4130    0.3984   -0.7381 C   0  0  0  0  0  0  0  0  0  0  0  0
   -4.6089    1.7418   -0.3999 C   0  0  0  0  0  0  0  0  0  0  0  0
   -4.3136    1.9210    1.2568 S   0  0  0  0  0  0  0  0  0  0  0  0
   -4.7066    2.8489   -1.3814 C   0  0  0  0  0  0  0  0  0  0  0  0
   -5.1726    2.6012   -2.6923 C   0  0  0  0  0  0  0  0  0  0  0  0
   -4.9235    3.5448   -3.6970 C   0  0  0  0  0  0  0  0  0  0  0  0
   -4.2643    4.7227   -3.3996 C   0  0  0  0  0  0  0  0  0  0  0  0
   -3.9065    5.0458   -2.0928 C   0  0  0  0  0  0  0  0  0  0  0  0
   -4.1366    4.1074   -1.0787 C   0  0  0  0  0  0  0  0  0  0  0  0
   -3.7698    5.2973   -4.6367 C   0  0  0  0  0  0  0  0  0  0  0  0
   -4.1781    4.4934   -5.6842 C   0  0  0  0  0  0  0  0  0  0  0  0
   -5.0326    3.3420   -5.1938 C   0  0  0  0  0  0  0  0  0  0  0  0
   -4.4414    1.9821   -5.6173 C   0  0  0  0  0  0  0  0  0  0  0  0
   -6.4830    3.4980   -5.6637 C   0  0  0  0  0  0  0  0  0  0  0  0
   -3.5590    4.5948   -6.9361 C   0  0  0  0  0  0  0  0  0  0  0  0
   -2.3781    5.3709   -7.0726 C   0  0  0  0  0  0  0  0  0  0  0  0
   -2.0411    6.2516   -6.0045 C   0  0  0  0  0  0  0  0  0  0  0  0
   -2.7374    6.2180   -4.7894 C   0  0  0  0  0  0  0  0  0  0  0  0
   -1.3409    5.0070   -8.1093 C   0  0  0  0  0  0  0  0  0  0  0  0
   -1.3769    3.7292   -8.7271 C   0  0  0  0  0  0  0  0  0  0  0  0
   -0.1944    3.1464   -9.1989 C   0  0  0  0  0  0  0  0  0  0  0  0
    1.0007    3.8322   -9.1108 C   0  0  0  0  0  0  0  0  0  0  0  0
    1.0388    5.1623   -8.6954 C   0  0  0  0  0  0  0  0  0  0  0  0
   -0.1440    5.7622   -8.2367 C   0  0  0  0  0  0  0  0  0  0  0  0
    2.0845    2.8630   -9.1092 C   0  0  0  0  0  0  0  0  0  0  0  0
    1.5355    1.5968   -9.2539 C   0  0  0  0  0  0  0  0  0  0  0  0
    0.0377    1.6725   -9.4694 C   0  0  0  0  0  0  0  0  0  0  0  0
   -0.7364    0.7764   -8.4754 C   0  0  0  0  0  0  0  0  0  0  0  0
   -0.3171    1.3203  -10.9188 C   0  0  0  0  0  0  0  0  0  0  0  0
    2.2395    0.4667   -8.8188 C   0  0  0  0  0  0  0  0  0  0  0  0
    3.4056    0.6449   -8.0466 C   0  0  0  0  0  0  0  0  0  0  0  0
    4.0155    1.9226   -8.0212 C   0  0  0  0  0  0  0  0  0  0  0  0
    3.3555    3.0378   -8.5569 C   0  0  0  0  0  0  0  0  0  0  0  0
    3.6719   -0.2941   -6.9201 C   0  0  0  0  0  0  0  0  0  0  0  0
    2.5610   -0.7624   -6.1795 C   0  0  0  0  0  0  0  0  0  0  0  0
    2.7349   -1.1747   -4.8605 C   0  0  0  0  0  0  0  0  0  0  0  0
    4.0003   -1.2288   -4.3051 C   0  0  0  0  0  0  0  0  0  0  0  0
    5.1361   -0.8978   -5.0507 C   0  0  0  0  0  0  0  0  0  0  0  0
    4.9671   -0.4286   -6.3653 C   0  0  0  0  0  0  0  0  0  0  0  0
    3.8536   -1.2677   -2.8593 C   0  0  0  0  0  0  0  0  0  0  0  0
    2.5007   -1.2031   -2.5579 C   0  0  0  0  0  0  0  0  0  0  0  0
    1.6542   -1.2581   -3.8075 C   0  0  0  0  0  0  0  0  0  0  0  0
    0.9026   -2.5920   -3.9066 C   0  0  0  0  0  0  0  0  0  0  0  0
    0.6852   -0.0581   -3.8846 C   0  0  0  0  0  0  0  0  0  0  0  0
    2.0772   -0.8235   -1.2813 C   0  0  0  0  0  0  0  0  0  0  0  0
    3.0409   -0.4925   -0.3159 C   0  0  0  0  0  0  0  0  0  0  0  0
    4.4119   -0.6677   -0.5966 C   0  0  0  0  0  0  0  0  0  0  0  0
    4.8271   -1.0432   -1.8833 C   0  0  0  0  0  0  0  0  0  0  0  0
    2.6403    0.3516    0.8123 C   0  0  0  0  0  0  0  0  0  0  0  0
    2.1480    1.6465    0.6562 C   0  0  0  0  0  0  0  0  0  0  0  0
    2.0690    2.3511    1.8648 C   0  0  0  0  0  0  0  0  0  0  0  0
    1.7087    3.7071    2.0265 C   0  0  0  0  0  0  0  0  0  0  0  0
    1.4117    4.5805    0.8687 C   0  0  0  0  0  0  0  0  0  0  0  0
    2.4557    4.8304   -0.4293 S   0  0  0  0  0  0  0  0  0  0  0  0
    1.4704    5.9072   -1.2609 C   0  0  0  0  0  0  0  0  0  0  0  0
    1.7593    6.4413   -2.6335 C   0  0  0  0  0  0  0  0  0  0  0  0
    1.2264    5.4890   -3.6989 C   0  0  0  0  0  0  0  0  0  0  0  0
    0.2965    6.0836   -0.5328 C   0  0  0  0  0  0  0  0  0  0  0  0
   -1.0030    7.1457   -1.0499 Cl  0  0  0  0  0  0  0  0  0  0  0  0
    0.2578    5.3396    0.6573 C   0  0  0  0  0  0  0  0  0  0  0  0
   -1.1506    5.3041    1.7087 Cl  0  0  0  0  0  0  0  0  0  0  0  0
    1.7422    4.2127    3.3406 C   0  0  0  0  0  0  0  0  0  0  0  0
    2.0962    3.4280    4.4431 C   0  0  0  0  0  0  0  0  0  0  0  0
    2.4443    2.0745    4.2742 C   0  0  0  0  0  0  0  0  0  0  0  0
    2.8446    1.2257    5.4032 C   0  0  0  0  0  0  0  0  0  0  0  0
    4.3277    1.3266    6.1882 S   0  0  0  0  0  0  0  0  0  0  0  0
    4.0929   -0.0166    7.1742 C   0  0  0  0  0  0  0  0  0  0  0  0
    5.0792   -0.4950    8.1919 C   0  0  0  0  0  0  0  0  0  0  0  0
    4.8482    0.1917    9.5331 C   0  0  0  0  0  0  0  0  0  0  0  0
    2.8318   -0.5553    6.9064 C   0  0  0  0  0  0  0  0  0  0  0  0
    2.1392    0.1358    5.9006 C   0  0  0  0  0  0  0  0  0  0  0  0
    0.5383   -0.3232    5.3353 Cl  0  0  0  0  0  0  0  0  0  0  0  0
    2.1742   -1.9660    7.7232 Cl  0  0  0  0  0  0  0  0  0  0  0  0
    2.4427    1.5738    2.9662 C   0  0  0  0  0  0  0  0  0  0  0  0
    2.9552    0.0534    2.4403 S   0  0  0  0  0  0  0  0  0  0  0  0
    2.0882    4.1365    5.6550 C   0  0  0  0  0  0  0  0  0  0  0  0
    1.7467    5.4763    5.5052 C   0  0  0  0  0  0  0  0  0  0  0  0
    1.4597    5.7861    3.8711 S   0  0  0  0  0  0  0  0  0  0  0  0
    2.0435  -10.9228    7.9382 H   0  0  0  0  0  0  0  0  0  0  0  0
    1.7510   -8.4676    8.7273 H   0  0  0  0  0  0  0  0  0  0  0  0
    2.5561   -4.3207   12.1103 H   0  0  0  0  0  0  0  0  0  0  0  0
    3.8157   -5.2447   11.2300 H   0  0  0  0  0  0  0  0  0  0  0  0
    4.4555   -2.8527   11.4909 H   0  0  0  0  0  0  0  0  0  0  0  0
    4.2548   -3.2885    9.7541 H   0  0  0  0  0  0  0  0  0  0  0  0
    2.9639   -2.3437   10.6128 H   0  0  0  0  0  0  0  0  0  0  0  0
    0.3629  -11.2954   -0.0875 H   0  0  0  0  0  0  0  0  0  0  0  0
   -1.4038  -11.4790   -0.3607 H   0  0  0  0  0  0  0  0  0  0  0  0
   -1.5110   -9.1116   -1.2213 H   0  0  0  0  0  0  0  0  0  0  0  0
   -0.3599  -10.1282   -2.1715 H   0  0  0  0  0  0  0  0  0  0  0  0
    0.2729   -8.9494   -0.9618 H   0  0  0  0  0  0  0  0  0  0  0  0
   -1.6175   -6.3995    2.8020 H   0  0  0  0  0  0  0  0  0  0  0  0
   -2.2416   -1.9740    4.6929 H   0  0  0  0  0  0  0  0  0  0  0  0
   -4.6627    1.6357    7.9373 H   0  0  0  0  0  0  0  0  0  0  0  0
   -3.4061    2.9163    7.8894 H   0  0  0  0  0  0  0  0  0  0  0  0
   -2.9564   -0.0945    8.4406 H   0  0  0  0  0  0  0  0  0  0  0  0
   -2.8534    1.2540    9.6331 H   0  0  0  0  0  0  0  0  0  0  0  0
   -1.6342    1.1372    8.3082 H   0  0  0  0  0  0  0  0  0  0  0  0
   -3.1930   -4.6416   -5.0319 H   0  0  0  0  0  0  0  0  0  0  0  0
   -1.5775   -4.3623   -4.3000 H   0  0  0  0  0  0  0  0  0  0  0  0
   -1.9610   -6.2755   -2.7104 H   0  0  0  0  0  0  0  0  0  0  0  0
   -3.5759   -6.5701   -3.4713 H   0  0  0  0  0  0  0  0  0  0  0  0
   -2.0642   -6.7884   -4.4345 H   0  0  0  0  0  0  0  0  0  0  0  0
   -4.4472    0.0327   -1.7560 H   0  0  0  0  0  0  0  0  0  0  0  0
   -5.6218    1.6534   -2.9488 H   0  0  0  0  0  0  0  0  0  0  0  0
   -3.3866    5.9653   -1.8714 H   0  0  0  0  0  0  0  0  0  0  0  0
   -3.7705    4.3262   -0.0834 H   0  0  0  0  0  0  0  0  0  0  0  0
   -5.0438    1.1472   -5.2050 H   0  0  0  0  0  0  0  0  0  0  0  0
   -4.4480    1.8771   -6.7230 H   0  0  0  0  0  0  0  0  0  0  0  0
   -3.3937    1.8798   -5.2582 H   0  0  0  0  0  0  0  0  0  0  0  0
   -7.1131    2.6905   -5.2374 H   0  0  0  0  0  0  0  0  0  0  0  0
   -6.8983    4.4763   -5.3395 H   0  0  0  0  0  0  0  0  0  0  0  0
   -6.5363    3.4388   -6.7725 H   0  0  0  0  0  0  0  0  0  0  0  0
   -3.9134    3.9529   -7.7274 H   0  0  0  0  0  0  0  0  0  0  0  0
   -1.1606    6.8727   -6.0309 H   0  0  0  0  0  0  0  0  0  0  0  0
   -2.3850    6.7994   -3.9480 H   0  0  0  0  0  0  0  0  0  0  0  0
   -2.2516    3.1025   -8.6927 H   0  0  0  0  0  0  0  0  0  0  0  0
    1.9772    5.6969   -8.6291 H   0  0  0  0  0  0  0  0  0  0  0  0
   -0.0773    6.7784   -7.8760 H   0  0  0  0  0  0  0  0  0  0  0  0
   -0.4913    1.0505   -7.4264 H   0  0  0  0  0  0  0  0  0  0  0  0
   -1.8322    0.8743   -8.6237 H   0  0  0  0  0  0  0  0  0  0  0  0
   -0.4897   -0.2938   -8.6314 H   0  0  0  0  0  0  0  0  0  0  0  0
   -1.4044    1.4669  -11.0954 H   0  0  0  0  0  0  0  0  0  0  0  0
    0.2428    1.9664  -11.6293 H   0  0  0  0  0  0  0  0  0  0  0  0
   -0.0606    0.2599  -11.1326 H   0  0  0  0  0  0  0  0  0  0  0  0
    1.7650   -0.5052   -8.8566 H   0  0  0  0  0  0  0  0  0  0  0  0
    4.9065    2.0961   -7.4306 H   0  0  0  0  0  0  0  0  0  0  0  0
    3.7519    4.0295   -8.3827 H   0  0  0  0  0  0  0  0  0  0  0  0
    1.5523   -0.6277   -6.5459 H   0  0  0  0  0  0  0  0  0  0  0  0
    6.1158   -0.8861   -4.5936 H   0  0  0  0  0  0  0  0  0  0  0  0
    5.8310   -0.0689   -6.9077 H   0  0  0  0  0  0  0  0  0  0  0  0
    0.1684   -2.6774   -3.0798 H   0  0  0  0  0  0  0  0  0  0  0  0
    1.6062   -3.4484   -3.8390 H   0  0  0  0  0  0  0  0  0  0  0  0
    0.3584   -2.6575   -4.8752 H   0  0  0  0  0  0  0  0  0  0  0  0
    1.2467    0.8985   -3.8152 H   0  0  0  0  0  0  0  0  0  0  0  0
   -0.0588   -0.0983   -3.0617 H   0  0  0  0  0  0  0  0  0  0  0  0
    0.1157   -0.0660   -4.8383 H   0  0  0  0  0  0  0  0  0  0  0  0
    1.0276   -0.6533   -1.0816 H   0  0  0  0  0  0  0  0  0  0  0  0
    5.1585   -0.3881    0.1358 H   0  0  0  0  0  0  0  0  0  0  0  0
    5.8796   -1.0551   -2.1331 H   0  0  0  0  0  0  0  0  0  0  0  0
    1.9099    2.0664   -0.3118 H   0  0  0  0  0  0  0  0  0  0  0  0
    2.8566    6.5585   -2.7591 H   0  0  0  0  0  0  0  0  0  0  0  0
    1.2911    7.4405   -2.7623 H   0  0  0  0  0  0  0  0  0  0  0  0
    1.4482    5.8946   -4.7087 H   0  0  0  0  0  0  0  0  0  0  0  0
    0.1265    5.3730   -3.6017 H   0  0  0  0  0  0  0  0  0  0  0  0
    1.7096    4.4934   -3.6069 H   0  0  0  0  0  0  0  0  0  0  0  0
    4.9986   -1.5951    8.3114 H   0  0  0  0  0  0  0  0  0  0  0  0
    6.1101   -0.2725    7.8400 H   0  0  0  0  0  0  0  0  0  0  0  0
    4.9819    1.2900    9.4292 H   0  0  0  0  0  0  0  0  0  0  0  0
    5.5830   -0.1849   10.2746 H   0  0  0  0  0  0  0  0  0  0  0  0
    3.8220   -0.0168    9.9048 H   0  0  0  0  0  0  0  0  0  0  0  0
    2.3250    3.6958    6.6137 H   0  0  0  0  0  0  0  0  0  0  0  0
    1.6888    6.2015    6.3076 H   0  0  0  0  0  0  0  0  0  0  0  0
  1  2  2  0
  2  3  1  0
  3  4  2  0
  4  5  1  0
  5  6  1  0
  6  7  1  0
  7  8  1  0
  8  9  1  0
  7 10  2  0
 10 11  1  0
 10 12  1  0
 12 13  1  0
  4 14  1  0
 14 15  2  0
 15 16  1  0
 16 17  1  0
 17 18  1  0
 18 19  1  0
 19 20  1  0
 20 21  1  0
 19 22  2  0
 22 23  1  0
 23 24  1  0
 22 25  1  0
 16 26  2  0
 26 27  1  0
 15 28  1  0
 28 29  2  0
 29 30  1  0
 29 31  1  0
 31 32  2  0
 32 33  1  0
 33 34  2  0
 34 35  1  0
 35 36  1  0
 36 37  1  0
 37 38  1  0
 38 39  1  0
 37 40  2  0
 40 41  1  0
 40 42  1  0
 42 43  1  0
 34 44  1  0
 44 45  2  0
 45 46  1  0
 46 47  1  0
 47 48  1  0
 48 49  1  0
 49 50  1  0
 50 51  1  0
 49 52  2  0
 52 53  1  0
 53 54  1  0
 52 55  1  0
 46 56  2  0
 56 57  1  0
 45 58  1  0
 58 59  2  0
 59 60  1  0
 59 61  1  0
 61 62  2  0
 62 63  1  0
 63 64  2  0
 64 65  1  0
 65 66  2  0
 64 67  1  0
 67 68  2  0
 68 69  1  0
 69 70  1  0
 69 71  1  0
 68 72  1  0
 72 73  2  0
 73 74  1  0
 74 75  2  0
 73 76  1  0
 76 77  2  0
 77 78  1  0
 78 79  2  0
 79 80  1  0
 80 81  2  0
 79 82  1  0
 82 83  2  0
 83 84  1  0
 84 85  1  0
 84 86  1  0
 83 87  1  0
 87 88  2  0
 88 89  1  0
 89 90  2  0
 88 91  1  0
 91 92  2  0
 92 93  1  0
 93 94  2  0
 94 95  1  0
 95 96  2  0
 94 97  1  0
 97 98  2  0
 98 99  1  0
 99100  1  0
 99101  1  0
 98102  1  0
102103  2  0
103104  1  0
104105  2  0
103106  1  0
106107  2  0
107108  1  0
108109  2  0
109110  1  0
110111  1  0
111112  1  0
112113  1  0
113114  1  0
112115  2  0
115116  1  0
115117  1  0
117118  1  0
109119  1  0
119120  2  0
120121  1  0
121122  1  0
122123  1  0
123124  1  0
124125  1  0
125126  1  0
124127  2  0
127128  1  0
128129  1  0
127130  1  0
121131  2  0
131132  1  0
120133  1  0
133134  2  0
134135  1  0
 27  1  1  0
 57 31  1  0
 66 61  1  0
 75 67  1  0
 81 76  1  0
 90 82  1  0
 96 91  1  0
105 97  1  0
132106  1  0
 26  3  1  0
 56 33  1  0
 69 63  1  0
 84 78  1  0
 99 93  1  0
131108  1  0
 12  5  2  0
 30 14  1  0
 42 35  2  0
 60 44  1  0
117110  2  0
135119  1  0
 23 17  2  0
 53 47  2  0
128122  2  0
  1136  1  0
  2137  1  0
  8138  1  0
  8139  1  0
  9140  1  0
  9141  1  0
  9142  1  0
 20143  1  0
 20144  1  0
 21145  1  0
 21146  1  0
 21147  1  0
 28148  1  0
 32149  1  0
 38150  1  0
 38151  1  0
 39152  1  0
 39153  1  0
 39154  1  0
 50155  1  0
 50156  1  0
 51157  1  0
 51158  1  0
 51159  1  0
 58160  1  0
 62161  1  0
 65162  1  0
 66163  1  0
 70164  1  0
 70165  1  0
 70166  1  0
 71167  1  0
 71168  1  0
 71169  1  0
 72170  1  0
 74171  1  0
 75172  1  0
 77173  1  0
 80174  1  0
 81175  1  0
 85176  1  0
 85177  1  0
 85178  1  0
 86179  1  0
 86180  1  0
 86181  1  0
 87182  1  0
 89183  1  0
 90184  1  0
 92185  1  0
 95186  1  0
 96187  1  0
100188  1  0
100189  1  0
100190  1  0
101191  1  0
101192  1  0
101193  1  0
102194  1  0
104195  1  0
105196  1  0
107197  1  0
113198  1  0
113199  1  0
114200  1  0
114201  1  0
114202  1  0
125203  1  0
125204  1  0
126205  1  0
126206  1  0
126207  1  0
133208  1  0
134209  1  0
M  END

