
     RDKit          3D

138149  0  0  0  0  0  0  0  0999 V2000
    5.7333    2.8421    1.5075 C   0  0  0  0  0  0  0  0  0  0  0  0
    6.5215    4.1214    0.7511 S   0  0  0  0  0  0  0  0  0  0  0  0
    5.1527    4.9158    0.1822 C   0  0  0  0  0  0  0  0  0  0  0  0
    4.0426    4.1777    0.5904 C   0  0  0  0  0  0  0  0  0  0  0  0
    4.3656    3.0228    1.3120 C   0  0  0  0  0  0  0  0  0  0  0  0
    3.3338    2.1371    1.7876 N   0  0  0  0  0  0  0  0  0  0  0  0
    1.9287    2.5758    1.6761 C   0  0  0  0  0  0  0  0  0  0  0  0
    1.6914    3.3906    0.3926 C   0  0  0  0  0  0  0  0  0  0  0  0
    2.6705    4.4796    0.2716 N   0  0  0  0  0  0  0  0  0  0  0  0
    2.2566    5.7538   -0.2535 C   0  0  0  0  0  0  0  0  0  0  0  0
    2.8978    6.8006    0.0289 O   0  0  0  0  0  0  0  0  0  0  0  0
    1.1132    5.8445   -1.0452 O   0  0  0  0  0  0  0  0  0  0  0  0
    3.6696    0.8508    2.3441 C   0  0  0  0  0  0  0  0  0  0  0  0
    2.8961    0.2451    3.2515 C   0  0  0  0  0  0  0  0  0  0  0  0
    3.1579   -1.1319    3.7125 C   0  0  0  0  0  0  0  0  0  0  0  0
    4.6594   -1.8974    3.6995 S   0  0  0  0  0  0  0  0  0  0  0  0
    4.1889   -3.3089    4.4812 C   0  0  0  0  0  0  0  0  0  0  0  0
    2.8244   -3.2085    4.7584 C   0  0  0  0  0  0  0  0  0  0  0  0
    2.2540   -2.0008    4.3343 C   0  0  0  0  0  0  0  0  0  0  0  0
    0.8755   -1.7196    4.6215 N   0  0  0  0  0  0  0  0  0  0  0  0
    0.2865   -2.4212    5.7719 C   0  0  0  0  0  0  0  0  0  0  0  0
    0.6043   -3.9245    5.7108 C   0  0  0  0  0  0  0  0  0  0  0  0
    2.0340   -4.1953    5.4629 N   0  0  0  0  0  0  0  0  0  0  0  0
    2.5123   -5.5308    5.7178 C   0  0  0  0  0  0  0  0  0  0  0  0
    3.4021   -6.0491    4.9904 O   0  0  0  0  0  0  0  0  0  0  0  0
    1.9492   -6.2886    6.7413 O   0  0  0  0  0  0  0  0  0  0  0  0
    0.0878   -0.8851    3.7528 C   0  0  0  0  0  0  0  0  0  0  0  0
   -0.8582   -0.0755    4.2350 C   0  0  0  0  0  0  0  0  0  0  0  0
   -1.6097    0.8747    3.3881 C   0  0  0  0  0  0  0  0  0  0  0  0
   -1.8102    0.6963    1.7251 S   0  0  0  0  0  0  0  0  0  0  0  0
   -3.0773    1.7854    1.5483 C   0  0  0  0  0  0  0  0  0  0  0  0
   -3.3665    2.3383    2.8075 C   0  0  0  0  0  0  0  0  0  0  0  0
   -2.4952    1.8755    3.8287 C   0  0  0  0  0  0  0  0  0  0  0  0
   -2.5805    2.4236    5.1355 C   0  0  0  0  0  0  0  0  0  0  0  0
   -1.5420    2.2604    6.1778 C   0  0  0  0  0  0  0  0  0  0  0  0
   -0.2460    2.4240    5.9179 C   0  0  0  0  0  0  0  0  0  0  0  0
   -3.6513    3.2736    5.4361 C   0  0  0  0  0  0  0  0  0  0  0  0
   -4.5693    3.6515    4.4548 C   0  0  0  0  0  0  0  0  0  0  0  0
   -4.4368    3.2117    3.1280 C   0  0  0  0  0  0  0  0  0  0  0  0
   -5.4733    3.6447    2.1233 C   0  0  0  0  0  0  0  0  0  0  0  0
   -3.6615    2.1579    0.2509 C   0  0  0  0  0  0  0  0  0  0  0  0
   -4.3312    1.3381   -0.5764 C   0  0  0  0  0  0  0  0  0  0  0  0
   -4.6637   -0.0925   -0.3280 C   0  0  0  0  0  0  0  0  0  0  0  0
   -4.7196   -0.8207    1.1977 S   0  0  0  0  0  0  0  0  0  0  0  0
   -5.2456   -2.3354    0.7339 C   0  0  0  0  0  0  0  0  0  0  0  0
   -5.4216   -2.2973   -0.6421 C   0  0  0  0  0  0  0  0  0  0  0  0
   -5.1250   -1.0651   -1.2479 C   0  0  0  0  0  0  0  0  0  0  0  0
   -5.3730   -0.9015   -2.6701 N   0  0  0  0  0  0  0  0  0  0  0  0
   -6.0127   -1.9881   -3.4447 C   0  0  0  0  0  0  0  0  0  0  0  0
   -6.8173   -2.9460   -2.5565 C   0  0  0  0  0  0  0  0  0  0  0  0
   -6.0093   -3.3588   -1.4055 N   0  0  0  0  0  0  0  0  0  0  0  0
   -5.7415   -4.7467   -1.1259 C   0  0  0  0  0  0  0  0  0  0  0  0
   -4.8738   -5.0707   -0.2713 O   0  0  0  0  0  0  0  0  0  0  0  0
   -6.4167   -5.7499   -1.8189 O   0  0  0  0  0  0  0  0  0  0  0  0
   -5.1688    0.3361   -3.3592 C   0  0  0  0  0  0  0  0  0  0  0  0
   -4.0245    0.6889   -3.9671 C   0  0  0  0  0  0  0  0  0  0  0  0
   -2.7714   -0.1107   -4.0584 C   0  0  0  0  0  0  0  0  0  0  0  0
   -2.6483   -1.7447   -3.6881 S   0  0  0  0  0  0  0  0  0  0  0  0
   -1.2120   -2.0698   -4.4738 C   0  0  0  0  0  0  0  0  0  0  0  0
   -0.7898   -0.8872   -5.1088 C   0  0  0  0  0  0  0  0  0  0  0  0
   -1.6093    0.2334   -4.7864 C   0  0  0  0  0  0  0  0  0  0  0  0
   -1.2331    1.5313   -5.2189 C   0  0  0  0  0  0  0  0  0  0  0  0
   -1.8519    2.7572   -4.6626 C   0  0  0  0  0  0  0  0  0  0  0  0
   -2.0677    3.8516   -5.3934 C   0  0  0  0  0  0  0  0  0  0  0  0
   -0.1246    1.6601   -6.0722 C   0  0  0  0  0  0  0  0  0  0  0  0
    0.5997    0.5451   -6.4876 C   0  0  0  0  0  0  0  0  0  0  0  0
    0.2820   -0.7421   -6.0284 C   0  0  0  0  0  0  0  0  0  0  0  0
    1.0882   -1.9007   -6.5547 C   0  0  0  0  0  0  0  0  0  0  0  0
   -0.7054   -3.4409   -4.6082 C   0  0  0  0  0  0  0  0  0  0  0  0
    0.4299   -3.9195   -4.0769 C   0  0  0  0  0  0  0  0  0  0  0  0
    1.4125   -3.1760   -3.2477 C   0  0  0  0  0  0  0  0  0  0  0  0
    1.2584   -1.6136   -2.6288 S   0  0  0  0  0  0  0  0  0  0  0  0
    2.8339   -1.4304   -2.0713 C   0  0  0  0  0  0  0  0  0  0  0  0
    3.5179   -2.6132   -2.3523 C   0  0  0  0  0  0  0  0  0  0  0  0
    2.7235   -3.5860   -2.9754 C   0  0  0  0  0  0  0  0  0  0  0  0
    3.3278   -4.8084   -3.4254 N   0  0  0  0  0  0  0  0  0  0  0  0
    4.7371   -4.7122   -3.8160 C   0  0  0  0  0  0  0  0  0  0  0  0
    5.5494   -4.0795   -2.6729 C   0  0  0  0  0  0  0  0  0  0  0  0
    4.9403   -2.8283   -2.1770 N   0  0  0  0  0  0  0  0  0  0  0  0
    5.7500   -1.9682   -1.3509 C   0  0  0  0  0  0  0  0  0  0  0  0
    7.0004   -1.9376   -1.5075 O   0  0  0  0  0  0  0  0  0  0  0  0
    5.1778   -1.1969   -0.3467 O   0  0  0  0  0  0  0  0  0  0  0  0
    2.7417   -6.1100   -3.2325 C   0  0  0  0  0  0  0  0  0  0  0  0
    1.8344   -6.3539   -2.2858 C   0  0  0  0  0  0  0  0  0  0  0  0
    6.2139    2.0358    2.0439 H   0  0  0  0  0  0  0  0  0  0  0  0
    5.1559    5.8147   -0.4173 H   0  0  0  0  0  0  0  0  0  0  0  0
    1.6687    3.1922    2.5630 H   0  0  0  0  0  0  0  0  0  0  0  0
    1.2465    1.7003    1.6461 H   0  0  0  0  0  0  0  0  0  0  0  0
    0.6538    3.7910    0.4228 H   0  0  0  0  0  0  0  0  0  0  0  0
    1.7815    2.7215   -0.4916 H   0  0  0  0  0  0  0  0  0  0  0  0
    0.8017    6.7374   -1.4073 H   0  0  0  0  0  0  0  0  0  0  0  0
    4.5616    0.3525    1.9972 H   0  0  0  0  0  0  0  0  0  0  0  0
    2.0400    0.7717    3.6454 H   0  0  0  0  0  0  0  0  0  0  0  0
    4.8562   -4.1135    4.7508 H   0  0  0  0  0  0  0  0  0  0  0  0
   -0.8188   -2.3059    5.7962 H   0  0  0  0  0  0  0  0  0  0  0  0
    0.7012   -1.9902    6.7094 H   0  0  0  0  0  0  0  0  0  0  0  0
    0.0064   -4.3837    4.8938 H   0  0  0  0  0  0  0  0  0  0  0  0
    0.2855   -4.3837    6.6708 H   0  0  0  0  0  0  0  0  0  0  0  0
    2.2575   -7.2372    6.9186 H   0  0  0  0  0  0  0  0  0  0  0  0
    0.3543   -0.8338    2.7048 H   0  0  0  0  0  0  0  0  0  0  0  0
   -1.0803   -0.1071    5.2893 H   0  0  0  0  0  0  0  0  0  0  0  0
   -1.8497    2.1464    7.2090 H   0  0  0  0  0  0  0  0  0  0  0  0
    0.1051    2.6250    4.9128 H   0  0  0  0  0  0  0  0  0  0  0  0
    0.4797    2.3626    6.7180 H   0  0  0  0  0  0  0  0  0  0  0  0
   -3.7577    3.6866    6.4328 H   0  0  0  0  0  0  0  0  0  0  0  0
   -5.3800    4.3107    4.7356 H   0  0  0  0  0  0  0  0  0  0  0  0
   -6.3094    4.1927    2.6093 H   0  0  0  0  0  0  0  0  0  0  0  0
   -5.0164    4.3302    1.3802 H   0  0  0  0  0  0  0  0  0  0  0  0
   -5.9117    2.7570    1.6187 H   0  0  0  0  0  0  0  0  0  0  0  0
   -3.5614    3.1953   -0.0439 H   0  0  0  0  0  0  0  0  0  0  0  0
   -4.7100    1.8117   -1.4643 H   0  0  0  0  0  0  0  0  0  0  0  0
   -5.4787   -3.1562    1.3987 H   0  0  0  0  0  0  0  0  0  0  0  0
   -5.2391   -2.5774   -3.9765 H   0  0  0  0  0  0  0  0  0  0  0  0
   -6.6993   -1.5652   -4.2112 H   0  0  0  0  0  0  0  0  0  0  0  0
   -7.7287   -2.4266   -2.1919 H   0  0  0  0  0  0  0  0  0  0  0  0
   -7.1441   -3.8163   -3.1628 H   0  0  0  0  0  0  0  0  0  0  0  0
   -6.2159   -6.7279   -1.6439 H   0  0  0  0  0  0  0  0  0  0  0  0
   -6.0139    1.0102   -3.4380 H   0  0  0  0  0  0  0  0  0  0  0  0
   -4.0715    1.6192   -4.5089 H   0  0  0  0  0  0  0  0  0  0  0  0
   -2.1717    2.7574   -3.6281 H   0  0  0  0  0  0  0  0  0  0  0  0
   -1.8095    3.8890   -6.4439 H   0  0  0  0  0  0  0  0  0  0  0  0
   -2.5342    4.7179   -4.9429 H   0  0  0  0  0  0  0  0  0  0  0  0
    0.2068    2.6375   -6.3993 H   0  0  0  0  0  0  0  0  0  0  0  0
    1.4336    0.6944   -7.1637 H   0  0  0  0  0  0  0  0  0  0  0  0
    1.6599   -1.6140   -7.4615 H   0  0  0  0  0  0  0  0  0  0  0  0
    1.8175   -2.2344   -5.7938 H   0  0  0  0  0  0  0  0  0  0  0  0
    0.4232   -2.7345   -6.8581 H   0  0  0  0  0  0  0  0  0  0  0  0
   -1.3369   -4.1343   -5.1523 H   0  0  0  0  0  0  0  0  0  0  0  0
    0.6557   -4.9470   -4.3191 H   0  0  0  0  0  0  0  0  0  0  0  0
    3.2351   -0.5207   -1.6509 H   0  0  0  0  0  0  0  0  0  0  0  0
    5.1585   -5.7115   -4.0610 H   0  0  0  0  0  0  0  0  0  0  0  0
    4.8206   -4.0755   -4.7237 H   0  0  0  0  0  0  0  0  0  0  0  0
    6.5790   -3.8891   -3.0480 H   0  0  0  0  0  0  0  0  0  0  0  0
    5.6152   -4.8061   -1.8340 H   0  0  0  0  0  0  0  0  0  0  0  0
    5.7558   -0.6009    0.2345 H   0  0  0  0  0  0  0  0  0  0  0  0
    3.0915   -6.9402   -3.8337 H   0  0  0  0  0  0  0  0  0  0  0  0
    1.4381   -7.3530   -2.1663 H   0  0  0  0  0  0  0  0  0  0  0  0
    1.4864   -5.5745   -1.6234 H   0  0  0  0  0  0  0  0  0  0  0  0
  1  2  1  0
  2  3  1  0
  3  4  2  0
  4  5  1  0
  5  6  1  0
  6  7  1  0
  7  8  1  0
  8  9  1  0
  9 10  1  0
 10 11  2  0
 10 12  1  0
  6 13  1  0
 13 14  2  3
 14 15  1  0
 15 16  1  0
 16 17  1  0
 17 18  2  0
 18 19  1  0
 19 20  1  0
 20 21  1  0
 21 22  1  0
 22 23  1  0
 23 24  1  0
 24 25  2  0
 24 26  1  0
 20 27  1  0
 27 28  2  3
 28 29  1  0
 29 30  1  0
 30 31  1  0
 31 32  2  0
 32 33  1  0
 33 34  1  0
 34 35  1  0
 35 36  2  3
 34 37  2  0
 37 38  1  0
 38 39  2  0
 39 40  1  0
 31 41  1  0
 41 42  2  3
 42 43  1  0
 43 44  1  0
 44 45  1  0
 45 46  2  0
 46 47  1  0
 47 48  1  0
 48 49  1  0
 49 50  1  0
 50 51  1  0
 51 52  1  0
 52 53  2  0
 52 54  1  0
 48 55  1  0
 55 56  2  3
 56 57  1  0
 57 58  1  0
 58 59  1  0
 59 60  2  0
 60 61  1  0
 61 62  1  0
 62 63  1  0
 63 64  2  3
 62 65  2  0
 65 66  1  0
 66 67  2  0
 67 68  1  0
 59 69  1  0
 69 70  2  3
 70 71  1  0
 71 72  1  0
 72 73  1  0
 73 74  2  0
 74 75  1  0
 75 76  1  0
 76 77  1  0
 77 78  1  0
 78 79  1  0
 79 80  1  0
 80 81  2  0
 80 82  1  0
 76 83  1  0
 83 84  2  3
  5  1  2  0
 19 15  2  0
 33 29  2  0
 47 43  2  0
 61 57  2  0
 75 71  2  0
  9  4  1  0
 23 18  1  0
 39 32  1  0
 51 46  1  0
 67 60  1  0
 79 74  1  0
  1 85  1  0
  3 86  1  0
  7 87  1  0
  7 88  1  0
  8 89  1  0
  8 90  1  0
 12 91  1  0
 13 92  1  0
 14 93  1  0
 17 94  1  0
 21 95  1  0
 21 96  1  0
 22 97  1  0
 22 98  1  0
 26 99  1  0
 27100  1  0
 28101  1  0
 35102  1  0
 36103  1  0
 36104  1  0
 37105  1  0
 38106  1  0
 40107  1  0
 40108  1  0
 40109  1  0
 41110  1  0
 42111  1  0
 45112  1  0
 49113  1  0
 49114  1  0
 50115  1  0
 50116  1  0
 54117  1  0
 55118  1  0
 56119  1  0
 63120  1  0
 64121  1  0
 64122  1  0
 65123  1  0
 66124  1  0
 68125  1  0
 68126  1  0
 68127  1  0
 69128  1  0
 70129  1  0
 73130  1  0
 77131  1  0
 77132  1  0
 78133  1  0
 78134  1  0
 82135  1  0
 83136  1  0
 84137  1  0
 84138  1  0
M  END

