
     RDKit          3D

214237  0  0  0  0  0  0  0  0999 V2000
   -5.1429   -5.3761    9.6524 C   0  0  0  0  0  0  0  0  0  0  0  0
   -4.0643   -4.5155    9.4599 C   0  0  0  0  0  0  0  0  0  0  0  0
   -4.0903   -3.8681    8.2118 C   0  0  0  0  0  0  0  0  0  0  0  0
   -3.1476   -2.9377    7.7313 C   0  0  0  0  0  0  0  0  0  0  0  0
   -2.0296   -2.4687    8.5691 C   0  0  0  0  0  0  0  0  0  0  0  0
   -0.3967   -2.7056    8.2281 S   0  0  0  0  0  0  0  0  0  0  0  0
    0.1850   -1.9472    9.6170 C   0  0  0  0  0  0  0  0  0  0  0  0
    1.6352   -1.7613    9.9410 C   0  0  0  0  0  0  0  0  0  0  0  0
    2.1413   -0.4131    9.4396 C   0  0  0  0  0  0  0  0  0  0  0  0
   -0.9008   -1.4717   10.3548 C   0  0  0  0  0  0  0  0  0  0  0  0
   -0.7345   -0.5704   11.8524 Cl  0  0  0  0  0  0  0  0  0  0  0  0
   -2.1405   -1.7678    9.7696 C   0  0  0  0  0  0  0  0  0  0  0  0
   -3.6782   -1.2538   10.4565 Cl  0  0  0  0  0  0  0  0  0  0  0  0
   -3.3489   -2.4461    6.4304 C   0  0  0  0  0  0  0  0  0  0  0  0
   -4.4365   -2.8150    5.6321 C   0  0  0  0  0  0  0  0  0  0  0  0
   -5.3934   -3.7333    6.1265 C   0  0  0  0  0  0  0  0  0  0  0  0
   -6.5932   -4.1368    5.3746 C   0  0  0  0  0  0  0  0  0  0  0  0
   -6.9047   -5.7232    4.9081 S   0  0  0  0  0  0  0  0  0  0  0  0
   -8.5615   -5.5459    4.6934 C   0  0  0  0  0  0  0  0  0  0  0  0
   -9.5025   -6.6762    4.3975 C   0  0  0  0  0  0  0  0  0  0  0  0
   -9.9491   -6.6799    2.9418 C   0  0  0  0  0  0  0  0  0  0  0  0
   -8.9051   -4.2329    5.0069 C   0  0  0  0  0  0  0  0  0  0  0  0
   -7.8048   -3.4475    5.3975 C   0  0  0  0  0  0  0  0  0  0  0  0
   -7.9545   -1.7950    5.9843 Cl  0  0  0  0  0  0  0  0  0  0  0  0
  -10.5574   -3.6363    5.0109 Cl  0  0  0  0  0  0  0  0  0  0  0  0
   -5.1789   -4.2419    7.4210 C   0  0  0  0  0  0  0  0  0  0  0  0
   -6.1222   -5.3444    8.2789 S   0  0  0  0  0  0  0  0  0  0  0  0
   -4.4408   -2.1824    4.3713 C   0  0  0  0  0  0  0  0  0  0  0  0
   -3.3478   -1.3198    4.1847 C   0  0  0  0  0  0  0  0  0  0  0  0
   -2.4106   -1.3379    5.5907 S   0  0  0  0  0  0  0  0  0  0  0  0
   -2.9726   -0.4996    3.0066 C   0  0  0  0  0  0  0  0  0  0  0  0
   -2.0457    0.9015    3.1872 S   0  0  0  0  0  0  0  0  0  0  0  0
   -1.3518    0.9513    1.6623 C   0  0  0  0  0  0  0  0  0  0  0  0
   -1.8216   -0.1601    0.9711 C   0  0  0  0  0  0  0  0  0  0  0  0
   -2.7546   -0.9338    1.6801 C   0  0  0  0  0  0  0  0  0  0  0  0
   -3.3296   -2.0929    1.0508 N   0  0  0  0  0  0  0  0  0  0  0  0
   -2.6076   -2.7431   -0.0664 C   0  0  0  0  0  0  0  0  0  0  0  0
   -1.2025   -2.1617   -0.2998 C   0  0  0  0  0  0  0  0  0  0  0  0
   -1.2317   -0.6967   -0.2278 N   0  0  0  0  0  0  0  0  0  0  0  0
   -0.5603    0.1164   -1.2086 C   0  0  0  0  0  0  0  0  0  0  0  0
    0.0541   -0.4180   -2.1673 O   0  0  0  0  0  0  0  0  0  0  0  0
   -0.5852    1.5014   -1.1217 O   0  0  0  0  0  0  0  0  0  0  0  0
   -4.7574   -2.2684    1.1502 C   0  0  0  0  0  0  0  0  0  0  0  0
   -5.3838   -3.3448    0.6616 C   0  0  0  0  0  0  0  0  0  0  0  0
   -6.8464   -3.4983    0.7156 C   0  0  0  0  0  0  0  0  0  0  0  0
   -7.8638   -2.9376    1.9326 S   0  0  0  0  0  0  0  0  0  0  0  0
   -9.2658   -3.6945    1.3834 C   0  0  0  0  0  0  0  0  0  0  0  0
   -8.9369   -4.4122    0.2372 C   0  0  0  0  0  0  0  0  0  0  0  0
   -7.6120   -4.2701   -0.1571 C   0  0  0  0  0  0  0  0  0  0  0  0
   -7.1816   -4.7542   -1.4446 N   0  0  0  0  0  0  0  0  0  0  0  0
   -7.9878   -5.7755   -2.1376 C   0  0  0  0  0  0  0  0  0  0  0  0
   -9.0904   -6.3848   -1.2396 C   0  0  0  0  0  0  0  0  0  0  0  0
   -9.7828   -5.3333   -0.4687 N   0  0  0  0  0  0  0  0  0  0  0  0
  -11.2181   -5.3109   -0.3621 C   0  0  0  0  0  0  0  0  0  0  0  0
  -11.8997   -6.3267   -0.6679 O   0  0  0  0  0  0  0  0  0  0  0  0
  -11.8756   -4.1539    0.0345 O   0  0  0  0  0  0  0  0  0  0  0  0
   -6.3204   -3.9352   -2.2592 C   0  0  0  0  0  0  0  0  0  0  0  0
   -6.5128   -2.6103   -2.3096 C   0  0  0  0  0  0  0  0  0  0  0  0
   -5.6297   -1.6518   -2.9886 C   0  0  0  0  0  0  0  0  0  0  0  0
   -4.4680   -1.9075   -3.7223 C   0  0  0  0  0  0  0  0  0  0  0  0
   -3.8041   -0.7316   -4.1148 C   0  0  0  0  0  0  0  0  0  0  0  0
   -2.5737   -0.6548   -4.7988 C   0  0  0  0  0  0  0  0  0  0  0  0
   -1.8423   -1.8544   -5.2421 C   0  0  0  0  0  0  0  0  0  0  0  0
   -0.2903   -2.2779   -4.7384 S   0  0  0  0  0  0  0  0  0  0  0  0
   -0.1180   -3.5963   -5.7661 C   0  0  0  0  0  0  0  0  0  0  0  0
    1.1083   -4.4570   -5.8440 C   0  0  0  0  0  0  0  0  0  0  0  0
    0.9012   -5.7670   -5.0939 C   0  0  0  0  0  0  0  0  0  0  0  0
   -1.2762   -3.7249   -6.5302 C   0  0  0  0  0  0  0  0  0  0  0  0
   -1.4949   -4.9580   -7.7608 Cl  0  0  0  0  0  0  0  0  0  0  0  0
   -2.2433   -2.7472   -6.2369 C   0  0  0  0  0  0  0  0  0  0  0  0
   -3.7805   -2.6243   -7.0881 Cl  0  0  0  0  0  0  0  0  0  0  0  0
   -2.0414    0.6307   -4.9948 C   0  0  0  0  0  0  0  0  0  0  0  0
   -2.6728    1.7965   -4.5412 C   0  0  0  0  0  0  0  0  0  0  0  0
   -3.9101    1.7213   -3.8671 C   0  0  0  0  0  0  0  0  0  0  0  0
   -4.6141    2.9205   -3.3725 C   0  0  0  0  0  0  0  0  0  0  0  0
   -6.1472    3.3993   -3.8870 S   0  0  0  0  0  0  0  0  0  0  0  0
   -6.2447    4.7672   -2.9126 C   0  0  0  0  0  0  0  0  0  0  0  0
   -7.3788    5.7448   -2.9335 C   0  0  0  0  0  0  0  0  0  0  0  0
   -7.1095    6.8629   -3.9368 C   0  0  0  0  0  0  0  0  0  0  0  0
   -5.0694    4.8764   -2.1776 C   0  0  0  0  0  0  0  0  0  0  0  0
   -4.1594    3.8379   -2.4233 C   0  0  0  0  0  0  0  0  0  0  0  0
   -2.6329    3.6961   -1.5685 Cl  0  0  0  0  0  0  0  0  0  0  0  0
   -4.7446    6.1933   -1.0559 Cl  0  0  0  0  0  0  0  0  0  0  0  0
   -4.4499    0.4359   -3.6842 C   0  0  0  0  0  0  0  0  0  0  0  0
   -5.8306    0.0146   -2.8257 S   0  0  0  0  0  0  0  0  0  0  0  0
   -1.9167    2.9602   -4.7602 C   0  0  0  0  0  0  0  0  0  0  0  0
   -0.6819    2.7005   -5.3527 C   0  0  0  0  0  0  0  0  0  0  0  0
   -0.5539    1.0445   -5.6503 S   0  0  0  0  0  0  0  0  0  0  0  0
    0.4923    3.5699   -5.2172 C   0  0  0  0  0  0  0  0  0  0  0  0
    1.7396    3.2519   -5.7562 C   0  0  0  0  0  0  0  0  0  0  0  0
    2.8102    3.7717   -5.0145 C   0  0  0  0  0  0  0  0  0  0  0  0
    4.1606    3.4121   -5.1807 C   0  0  0  0  0  0  0  0  0  0  0  0
    4.6010    2.5985   -6.3273 C   0  0  0  0  0  0  0  0  0  0  0  0
    4.7516    3.1822   -7.8993 S   0  0  0  0  0  0  0  0  0  0  0  0
    5.1718    1.7080   -8.5941 C   0  0  0  0  0  0  0  0  0  0  0  0
    5.5023    1.5218  -10.0431 C   0  0  0  0  0  0  0  0  0  0  0  0
    6.9556    1.8921  -10.3237 C   0  0  0  0  0  0  0  0  0  0  0  0
    5.1924    0.7315   -7.5959 C   0  0  0  0  0  0  0  0  0  0  0  0
    5.5531   -0.9652   -7.8973 Cl  0  0  0  0  0  0  0  0  0  0  0  0
    4.8584    1.2281   -6.3267 C   0  0  0  0  0  0  0  0  0  0  0  0
    4.6807    0.2109   -4.9024 Cl  0  0  0  0  0  0  0  0  0  0  0  0
    5.0323    3.7202   -4.1247 C   0  0  0  0  0  0  0  0  0  0  0  0
    4.6118    4.4083   -2.9835 C   0  0  0  0  0  0  0  0  0  0  0  0
    3.2942    4.9051   -2.8897 C   0  0  0  0  0  0  0  0  0  0  0  0
    2.8486    5.6779   -1.7127 C   0  0  0  0  0  0  0  0  0  0  0  0
    1.6458    5.2105   -0.6297 S   0  0  0  0  0  0  0  0  0  0  0  0
    1.8130    6.5316    0.4032 C   0  0  0  0  0  0  0  0  0  0  0  0
    0.9833    6.7716    1.6269 C   0  0  0  0  0  0  0  0  0  0  0  0
   -0.1772    7.7130    1.3240 C   0  0  0  0  0  0  0  0  0  0  0  0
    2.8049    7.3706   -0.0992 C   0  0  0  0  0  0  0  0  0  0  0  0
    3.3931    6.8872   -1.2768 C   0  0  0  0  0  0  0  0  0  0  0  0
    4.6516    7.7476   -2.1471 Cl  0  0  0  0  0  0  0  0  0  0  0  0
    3.2809    8.8789    0.6669 Cl  0  0  0  0  0  0  0  0  0  0  0  0
    2.4036    4.5247   -3.9106 C   0  0  0  0  0  0  0  0  0  0  0  0
    0.7237    4.5572   -3.8691 S   0  0  0  0  0  0  0  0  0  0  0  0
    5.5215    4.3114   -1.9180 C   0  0  0  0  0  0  0  0  0  0  0  0
    6.6506    3.5505   -2.2200 C   0  0  0  0  0  0  0  0  0  0  0  0
    6.5392    3.0368   -3.8227 S   0  0  0  0  0  0  0  0  0  0  0  0
    7.2987    2.7079   -1.2176 C   0  0  0  0  0  0  0  0  0  0  0  0
    6.6626    1.6264   -0.6149 C   0  0  0  0  0  0  0  0  0  0  0  0
    7.5392    0.8248    0.1259 C   0  0  0  0  0  0  0  0  0  0  0  0
    7.2075   -0.3791    0.7778 C   0  0  0  0  0  0  0  0  0  0  0  0
    5.8660   -0.9820    0.6530 C   0  0  0  0  0  0  0  0  0  0  0  0
    5.2478   -1.6240   -0.7714 S   0  0  0  0  0  0  0  0  0  0  0  0
    3.7391   -2.0441   -0.1534 C   0  0  0  0  0  0  0  0  0  0  0  0
    2.6036   -2.5922   -0.9722 C   0  0  0  0  0  0  0  0  0  0  0  0
    3.0396   -3.7773   -1.8296 C   0  0  0  0  0  0  0  0  0  0  0  0
    3.6874   -1.6344    1.1801 C   0  0  0  0  0  0  0  0  0  0  0  0
    2.2451   -1.7596    2.1795 Cl  0  0  0  0  0  0  0  0  0  0  0  0
    4.8826   -1.0537    1.6372 C   0  0  0  0  0  0  0  0  0  0  0  0
    5.0941   -0.4006    3.2535 Cl  0  0  0  0  0  0  0  0  0  0  0  0
    8.2405   -1.0349    1.4625 C   0  0  0  0  0  0  0  0  0  0  0  0
    9.5530   -0.5539    1.4817 C   0  0  0  0  0  0  0  0  0  0  0  0
    9.8944    0.6231    0.7835 C   0  0  0  0  0  0  0  0  0  0  0  0
   11.2810    1.1144    0.7214 C   0  0  0  0  0  0  0  0  0  0  0  0
   11.8220    2.5428    1.4222 S   0  0  0  0  0  0  0  0  0  0  0  0
   13.4322    2.3606    0.9780 C   0  0  0  0  0  0  0  0  0  0  0  0
   14.5382    3.2834    1.3868 C   0  0  0  0  0  0  0  0  0  0  0  0
   15.1393    2.8429    2.7170 C   0  0  0  0  0  0  0  0  0  0  0  0
   13.5705    1.1625    0.2744 C   0  0  0  0  0  0  0  0  0  0  0  0
   12.3607    0.4696    0.1265 C   0  0  0  0  0  0  0  0  0  0  0  0
   12.2227   -1.0549   -0.7426 Cl  0  0  0  0  0  0  0  0  0  0  0  0
   15.1018    0.5781   -0.3599 Cl  0  0  0  0  0  0  0  0  0  0  0  0
    8.8538    1.2978    0.1241 C   0  0  0  0  0  0  0  0  0  0  0  0
    8.9434    2.6745   -0.8555 S   0  0  0  0  0  0  0  0  0  0  0  0
   10.4249   -1.3622    2.2327 C   0  0  0  0  0  0  0  0  0  0  0  0
    9.7998   -2.4770    2.7845 C   0  0  0  0  0  0  0  0  0  0  0  0
    8.1667   -2.4626    2.3512 S   0  0  0  0  0  0  0  0  0  0  0  0
   -5.3219   -5.9694   10.5405 H   0  0  0  0  0  0  0  0  0  0  0  0
   -3.2965   -4.3718   10.2071 H   0  0  0  0  0  0  0  0  0  0  0  0
    2.2258   -2.5763    9.4734 H   0  0  0  0  0  0  0  0  0  0  0  0
    1.7809   -1.8218   11.0421 H   0  0  0  0  0  0  0  0  0  0  0  0
    1.5719    0.4130    9.9171 H   0  0  0  0  0  0  0  0  0  0  0  0
    2.0254   -0.3448    8.3366 H   0  0  0  0  0  0  0  0  0  0  0  0
    3.2164   -0.3038    9.6961 H   0  0  0  0  0  0  0  0  0  0  0  0
  -10.3954   -6.6082    5.0570 H   0  0  0  0  0  0  0  0  0  0  0  0
   -8.9969   -7.6408    4.6162 H   0  0  0  0  0  0  0  0  0  0  0  0
  -10.5343   -7.6004    2.7334 H   0  0  0  0  0  0  0  0  0  0  0  0
  -10.6025   -5.8070    2.7402 H   0  0  0  0  0  0  0  0  0  0  0  0
   -9.0691   -6.6583    2.2656 H   0  0  0  0  0  0  0  0  0  0  0  0
   -5.2325   -2.3342    3.6629 H   0  0  0  0  0  0  0  0  0  0  0  0
   -0.5767    1.6357    1.3509 H   0  0  0  0  0  0  0  0  0  0  0  0
   -3.1870   -2.6044   -1.0073 H   0  0  0  0  0  0  0  0  0  0  0  0
   -2.5166   -3.8338    0.1306 H   0  0  0  0  0  0  0  0  0  0  0  0
   -0.5143   -2.5465    0.4841 H   0  0  0  0  0  0  0  0  0  0  0  0
   -0.8282   -2.5189   -1.2833 H   0  0  0  0  0  0  0  0  0  0  0  0
   -0.1079    2.0723   -1.8094 H   0  0  0  0  0  0  0  0  0  0  0  0
   -5.3504   -1.4752    1.5946 H   0  0  0  0  0  0  0  0  0  0  0  0
   -4.8257   -4.1291    0.1736 H   0  0  0  0  0  0  0  0  0  0  0  0
  -10.2233   -3.6661    1.8827 H   0  0  0  0  0  0  0  0  0  0  0  0
   -8.4842   -5.3127   -3.0162 H   0  0  0  0  0  0  0  0  0  0  0  0
   -7.3203   -6.5872   -2.4986 H   0  0  0  0  0  0  0  0  0  0  0  0
   -9.7992   -6.9456   -1.8812 H   0  0  0  0  0  0  0  0  0  0  0  0
   -8.6332   -7.1105   -0.5289 H   0  0  0  0  0  0  0  0  0  0  0  0
  -12.8866   -4.1211    0.0935 H   0  0  0  0  0  0  0  0  0  0  0  0
   -5.5516   -4.4078   -2.8494 H   0  0  0  0  0  0  0  0  0  0  0  0
   -7.3429   -2.1788   -1.7607 H   0  0  0  0  0  0  0  0  0  0  0  0
   -4.0931   -2.9044   -3.9182 H   0  0  0  0  0  0  0  0  0  0  0  0
    1.3497   -4.6729   -6.9071 H   0  0  0  0  0  0  0  0  0  0  0  0
    1.9711   -3.9189   -5.4018 H   0  0  0  0  0  0  0  0  0  0  0  0
    0.0320   -6.3241   -5.5034 H   0  0  0  0  0  0  0  0  0  0  0  0
    1.8083   -6.3984   -5.2014 H   0  0  0  0  0  0  0  0  0  0  0  0
    0.7412   -5.5677   -4.0116 H   0  0  0  0  0  0  0  0  0  0  0  0
   -8.3176    5.2215   -3.2054 H   0  0  0  0  0  0  0  0  0  0  0  0
   -7.5129    6.1845   -1.9199 H   0  0  0  0  0  0  0  0  0  0  0  0
   -6.1972    7.4282   -3.6479 H   0  0  0  0  0  0  0  0  0  0  0  0
   -6.9677    6.4372   -4.9544 H   0  0  0  0  0  0  0  0  0  0  0  0
   -7.9738    7.5572   -3.9606 H   0  0  0  0  0  0  0  0  0  0  0  0
   -2.2098    3.9440   -4.4181 H   0  0  0  0  0  0  0  0  0  0  0  0
    1.8671    2.5363   -6.5560 H   0  0  0  0  0  0  0  0  0  0  0  0
    4.8353    2.1633  -10.6598 H   0  0  0  0  0  0  0  0  0  0  0  0
    5.3259    0.4648  -10.3489 H   0  0  0  0  0  0  0  0  0  0  0  0
    7.1433    1.8532  -11.4197 H   0  0  0  0  0  0  0  0  0  0  0  0
    7.6338    1.1735   -9.8185 H   0  0  0  0  0  0  0  0  0  0  0  0
    7.1681    2.9234   -9.9638 H   0  0  0  0  0  0  0  0  0  0  0  0
    0.5787    5.8011    1.9949 H   0  0  0  0  0  0  0  0  0  0  0  0
    1.6195    7.2067    2.4237 H   0  0  0  0  0  0  0  0  0  0  0  0
    0.2017    8.6957    0.9757 H   0  0  0  0  0  0  0  0  0  0  0  0
   -0.8258    7.2753    0.5350 H   0  0  0  0  0  0  0  0  0  0  0  0
   -0.7797    7.8649    2.2436 H   0  0  0  0  0  0  0  0  0  0  0  0
    5.2810    4.6235   -0.9066 H   0  0  0  0  0  0  0  0  0  0  0  0
    5.6103    1.4059   -0.7484 H   0  0  0  0  0  0  0  0  0  0  0  0
    1.7839   -2.9329   -0.3087 H   0  0  0  0  0  0  0  0  0  0  0  0
    2.2123   -1.7896   -1.6329 H   0  0  0  0  0  0  0  0  0  0  0  0
    3.4433   -4.5928   -1.1905 H   0  0  0  0  0  0  0  0  0  0  0  0
    2.1675   -4.1664   -2.4017 H   0  0  0  0  0  0  0  0  0  0  0  0
    3.8218   -3.4649   -2.5565 H   0  0  0  0  0  0  0  0  0  0  0  0
   14.1403    4.3163    1.4896 H   0  0  0  0  0  0  0  0  0  0  0  0
   15.3286    3.2934    0.6057 H   0  0  0  0  0  0  0  0  0  0  0  0
   15.5168    1.7989    2.6481 H   0  0  0  0  0  0  0  0  0  0  0  0
   14.3770    2.9036    3.5231 H   0  0  0  0  0  0  0  0  0  0  0  0
   15.9910    3.5081    2.9777 H   0  0  0  0  0  0  0  0  0  0  0  0
   11.4778   -1.1535    2.3740 H   0  0  0  0  0  0  0  0  0  0  0  0
   10.2817   -3.2246    3.3982 H   0  0  0  0  0  0  0  0  0  0  0  0
  1  2  2  0
  2  3  1  0
  3  4  2  0
  4  5  1  0
  5  6  1  0
  6  7  1  0
  7  8  1  0
  8  9  1  0
  7 10  2  0
 10 11  1  0
 10 12  1  0
 12 13  1  0
  4 14  1  0
 14 15  2  0
 15 16  1  0
 16 17  1  0
 17 18  1  0
 18 19  1  0
 19 20  1  0
 20 21  1  0
 19 22  2  0
 22 23  1  0
 23 24  1  0
 22 25  1  0
 16 26  2  0
 26 27  1  0
 15 28  1  0
 28 29  2  0
 29 30  1  0
 29 31  1  0
 31 32  1  0
 32 33  1  0
 33 34  2  0
 34 35  1  0
 35 36  1  0
 36 37  1  0
 37 38  1  0
 38 39  1  0
 39 40  1  0
 40 41  2  0
 40 42  1  0
 36 43  1  0
 43 44  2  3
 44 45  1  0
 45 46  1  0
 46 47  1  0
 47 48  2  0
 48 49  1  0
 49 50  1  0
 50 51  1  0
 51 52  1  0
 52 53  1  0
 53 54  1  0
 54 55  2  0
 54 56  1  0
 50 57  1  0
 57 58  2  3
 58 59  1  0
 59 60  2  0
 60 61  1  0
 61 62  2  0
 62 63  1  0
 63 64  1  0
 64 65  1  0
 65 66  1  0
 66 67  1  0
 65 68  2  0
 68 69  1  0
 68 70  1  0
 70 71  1  0
 62 72  1  0
 72 73  2  0
 73 74  1  0
 74 75  1  0
 75 76  1  0
 76 77  1  0
 77 78  1  0
 78 79  1  0
 77 80  2  0
 80 81  1  0
 81 82  1  0
 80 83  1  0
 74 84  2  0
 84 85  1  0
 73 86  1  0
 86 87  2  0
 87 88  1  0
 87 89  1  0
 89 90  2  0
 90 91  1  0
 91 92  2  0
 92 93  1  0
 93 94  1  0
 94 95  1  0
 95 96  1  0
 96 97  1  0
 95 98  2  0
 98 99  1  0
 98100  1  0
100101  1  0
 92102  1  0
102103  2  0
103104  1  0
104105  1  0
105106  1  0
106107  1  0
107108  1  0
108109  1  0
107110  2  0
110111  1  0
111112  1  0
110113  1  0
104114  2  0
114115  1  0
103116  1  0
116117  2  0
117118  1  0
117119  1  0
119120  2  0
120121  1  0
121122  2  0
122123  1  0
123124  1  0
124125  1  0
125126  1  0
126127  1  0
125128  2  0
128129  1  0
128130  1  0
130131  1  0
122132  1  0
132133  2  0
133134  1  0
134135  1  0
135136  1  0
136137  1  0
137138  1  0
138139  1  0
137140  2  0
140141  1  0
141142  1  0
140143  1  0
134144  2  0
144145  1  0
133146  1  0
146147  2  0
147148  1  0
 27  1  1  0
 35 31  2  0
 49 45  2  0
 85 59  1  0
115 89  1  0
145119  1  0
 26  3  1  0
 39 34  1  0
 53 48  1  0
 84 61  1  0
114 91  1  0
144121  1  0
 12  5  2  0
 30 14  1  0
 70 63  2  0
 88 72  1  0
100 93  2  0
118102  1  0
130123  2  0
148132  1  0
 23 17  2  0
 81 75  2  0
111105  2  0
141135  2  0
  1149  1  0
  2150  1  0
  8151  1  0
  8152  1  0
  9153  1  0
  9154  1  0
  9155  1  0
 20156  1  0
 20157  1  0
 21158  1  0
 21159  1  0
 21160  1  0
 28161  1  0
 33162  1  0
 37163  1  0
 37164  1  0
 38165  1  0
 38166  1  0
 42167  1  0
 43168  1  0
 44169  1  0
 47170  1  0
 51171  1  0
 51172  1  0
 52173  1  0
 52174  1  0
 56175  1  0
 57176  1  0
 58177  1  0
 60178  1  0
 66179  1  0
 66180  1  0
 67181  1  0
 67182  1  0
 67183  1  0
 78184  1  0
 78185  1  0
 79186  1  0
 79187  1  0
 79188  1  0
 86189  1  0
 90190  1  0
 96191  1  0
 96192  1  0
 97193  1  0
 97194  1  0
 97195  1  0
108196  1  0
108197  1  0
109198  1  0
109199  1  0
109200  1  0
116201  1  0
120202  1  0
126203  1  0
126204  1  0
127205  1  0
127206  1  0
127207  1  0
138208  1  0
138209  1  0
139210  1  0
139211  1  0
139212  1  0
146213  1  0
147214  1  0
M  END

