
     RDKit          3D

220243  0  0  0  0  0  0  0  0999 V2000
   10.4294   -5.2193    0.5989 C   0  0  0  0  0  0  0  0  0  0  0  0
   10.5646   -4.0641   -0.1665 C   0  0  0  0  0  0  0  0  0  0  0  0
   10.1119   -2.9090    0.4941 C   0  0  0  0  0  0  0  0  0  0  0  0
   10.0876   -1.6061   -0.0329 C   0  0  0  0  0  0  0  0  0  0  0  0
   10.5244   -1.3123   -1.4082 C   0  0  0  0  0  0  0  0  0  0  0  0
    9.6871   -1.6108   -2.4932 C   0  0  0  0  0  0  0  0  0  0  0  0
   10.0881   -1.2987   -3.7963 C   0  0  0  0  0  0  0  0  0  0  0  0
   11.3266   -0.6888   -4.0221 C   0  0  0  0  0  0  0  0  0  0  0  0
   11.8332   -0.3013   -5.7028 S   0  0  0  0  0  0  0  0  0  0  0  0
   10.9877    1.3200   -5.7676 C   0  0  0  0  0  0  0  0  0  0  0  0
   11.8010    2.3975   -5.0612 C   0  0  0  0  0  0  0  0  0  0  0  0
   12.1772   -0.4076   -2.9410 C   0  0  0  0  0  0  0  0  0  0  0  0
   13.3921    0.1597   -3.1495 F   0  0  0  0  0  0  0  0  0  0  0  0
   11.7702   -0.7094   -1.6379 C   0  0  0  0  0  0  0  0  0  0  0  0
    9.5616   -0.5971    0.7866 C   0  0  0  0  0  0  0  0  0  0  0  0
    9.0662   -0.8459    2.0712 C   0  0  0  0  0  0  0  0  0  0  0  0
    9.0856   -2.1547    2.6010 C   0  0  0  0  0  0  0  0  0  0  0  0
    8.4809   -2.4852    3.9073 C   0  0  0  0  0  0  0  0  0  0  0  0
    7.0985   -2.3302    4.1054 C   0  0  0  0  0  0  0  0  0  0  0  0
    6.5142   -2.7215    5.3129 C   0  0  0  0  0  0  0  0  0  0  0  0
    7.3039   -3.2755    6.3294 C   0  0  0  0  0  0  0  0  0  0  0  0
    6.5374   -3.8156    7.8610 S   0  0  0  0  0  0  0  0  0  0  0  0
    6.0600   -5.4687    7.2412 C   0  0  0  0  0  0  0  0  0  0  0  0
    7.2512   -6.4191    7.2065 C   0  0  0  0  0  0  0  0  0  0  0  0
    8.6889   -3.4001    6.1467 C   0  0  0  0  0  0  0  0  0  0  0  0
    9.2719   -3.0131    4.9369 C   0  0  0  0  0  0  0  0  0  0  0  0
    9.4697   -3.9073    7.1339 F   0  0  0  0  0  0  0  0  0  0  0  0
    9.6307   -3.1627    1.7817 C   0  0  0  0  0  0  0  0  0  0  0  0
    9.7484   -4.8138    2.0901 S   0  0  0  0  0  0  0  0  0  0  0  0
    8.5324    0.2989    2.6863 C   0  0  0  0  0  0  0  0  0  0  0  0
    8.5825    1.4292    1.8664 C   0  0  0  0  0  0  0  0  0  0  0  0
    9.3012    1.0152    0.3952 S   0  0  0  0  0  0  0  0  0  0  0  0
    7.9096    2.7088    2.1294 C   0  0  0  0  0  0  0  0  0  0  0  0
    7.4988    3.6012    1.1381 C   0  0  0  0  0  0  0  0  0  0  0  0
    6.6304    4.5931    1.6167 C   0  0  0  0  0  0  0  0  0  0  0  0
    5.9193    5.5149    0.8270 C   0  0  0  0  0  0  0  0  0  0  0  0
    6.0293    5.5125   -0.6416 C   0  0  0  0  0  0  0  0  0  0  0  0
    5.3757    4.5265   -1.3923 C   0  0  0  0  0  0  0  0  0  0  0  0
    5.4908    4.5126   -2.7840 C   0  0  0  0  0  0  0  0  0  0  0  0
    6.2556    5.4869   -3.4355 C   0  0  0  0  0  0  0  0  0  0  0  0
    6.4110    5.4475   -5.2274 S   0  0  0  0  0  0  0  0  0  0  0  0
    5.0403    6.6163   -5.5385 C   0  0  0  0  0  0  0  0  0  0  0  0
    3.6896    5.9149   -5.4873 C   0  0  0  0  0  0  0  0  0  0  0  0
    6.9148    6.4758   -2.6855 C   0  0  0  0  0  0  0  0  0  0  0  0
    7.6690    7.4215   -3.3040 F   0  0  0  0  0  0  0  0  0  0  0  0
    6.7928    6.4908   -1.2926 C   0  0  0  0  0  0  0  0  0  0  0  0
    4.9477    6.2912    1.4764 C   0  0  0  0  0  0  0  0  0  0  0  0
    4.6982    6.2003    2.8498 C   0  0  0  0  0  0  0  0  0  0  0  0
    5.4548    5.3219    3.6516 C   0  0  0  0  0  0  0  0  0  0  0  0
    5.2247    5.1699    5.0993 C   0  0  0  0  0  0  0  0  0  0  0  0
    4.0705    4.5289    5.5758 C   0  0  0  0  0  0  0  0  0  0  0  0
    3.8921    4.3344    6.9490 C   0  0  0  0  0  0  0  0  0  0  0  0
    4.8744    4.7625    7.8536 C   0  0  0  0  0  0  0  0  0  0  0  0
    4.6569    4.4669    9.6152 S   0  0  0  0  0  0  0  0  0  0  0  0
    5.6500    2.9302    9.6506 C   0  0  0  0  0  0  0  0  0  0  0  0
    4.8557    1.7399    9.1288 C   0  0  0  0  0  0  0  0  0  0  0  0
    6.0154    5.4243    7.3811 C   0  0  0  0  0  0  0  0  0  0  0  0
    6.1944    5.6178    6.0082 C   0  0  0  0  0  0  0  0  0  0  0  0
    6.9684    5.8596    8.2455 F   0  0  0  0  0  0  0  0  0  0  0  0
    6.3987    4.5104    2.9934 C   0  0  0  0  0  0  0  0  0  0  0  0
    7.2290    3.1779    3.6081 S   0  0  0  0  0  0  0  0  0  0  0  0
    3.5463    6.9053    3.2461 C   0  0  0  0  0  0  0  0  0  0  0  0
    2.8741    7.5115    2.1807 C   0  0  0  0  0  0  0  0  0  0  0  0
    3.7309    7.1963    0.7628 S   0  0  0  0  0  0  0  0  0  0  0  0
    1.4207    7.6211    2.1549 C   0  0  0  0  0  0  0  0  0  0  0  0
    0.4031    6.3638    1.6749 S   0  0  0  0  0  0  0  0  0  0  0  0
    0.5881    8.6046    2.6543 C   0  0  0  0  0  0  0  0  0  0  0  0
    0.8304   10.0810    3.4032 S   0  0  0  0  0  0  0  0  0  0  0  0
   -0.8489   10.3038    3.6185 C   0  0  0  0  0  0  0  0  0  0  0  0
   -1.5818    9.2625    3.1383 N   0  0  0  0  0  0  0  0  0  0  0  0
   -0.7607    8.3318    2.5955 C   0  0  0  0  0  0  0  0  0  0  0  0
   -1.0738    7.0898    2.0600 C   0  0  0  0  0  0  0  0  0  0  0  0
   -2.3643    6.3933    1.9907 C   0  0  0  0  0  0  0  0  0  0  0  0
   -2.5272    4.7160    2.0422 S   0  0  0  0  0  0  0  0  0  0  0  0
   -3.6101    6.8698    1.6091 C   0  0  0  0  0  0  0  0  0  0  0  0
   -4.2109    8.3708    1.1717 S   0  0  0  0  0  0  0  0  0  0  0  0
   -5.7210    7.7035    0.7452 C   0  0  0  0  0  0  0  0  0  0  0  0
   -5.7641    6.3542    0.9070 N   0  0  0  0  0  0  0  0  0  0  0  0
   -4.5784    5.9081    1.3898 C   0  0  0  0  0  0  0  0  0  0  0  0
   -4.1590    4.6006    1.6052 C   0  0  0  0  0  0  0  0  0  0  0  0
   -4.8382    3.3309    1.3156 C   0  0  0  0  0  0  0  0  0  0  0  0
   -4.2590    2.0853    1.5547 C   0  0  0  0  0  0  0  0  0  0  0  0
   -4.9914    1.0245    1.0200 C   0  0  0  0  0  0  0  0  0  0  0  0
   -4.5958   -0.3216    1.0273 C   0  0  0  0  0  0  0  0  0  0  0  0
   -3.3070   -0.7772    1.5941 C   0  0  0  0  0  0  0  0  0  0  0  0
   -3.1217   -0.8438    2.9847 C   0  0  0  0  0  0  0  0  0  0  0  0
   -1.9486   -1.4045    3.5070 C   0  0  0  0  0  0  0  0  0  0  0  0
   -0.9627   -1.8999    2.6487 C   0  0  0  0  0  0  0  0  0  0  0  0
    0.5295   -2.6452    3.3264 S   0  0  0  0  0  0  0  0  0  0  0  0
    1.5087   -1.1016    3.3407 C   0  0  0  0  0  0  0  0  0  0  0  0
    2.8154   -1.3195    2.5924 C   0  0  0  0  0  0  0  0  0  0  0  0
   -1.1321   -1.8070    1.2593 C   0  0  0  0  0  0  0  0  0  0  0  0
   -0.1756   -2.2697    0.4131 F   0  0  0  0  0  0  0  0  0  0  0  0
   -2.3054   -1.2581    0.7377 C   0  0  0  0  0  0  0  0  0  0  0  0
   -5.4278   -1.2258    0.3617 C   0  0  0  0  0  0  0  0  0  0  0  0
   -6.5924   -0.8460   -0.3146 C   0  0  0  0  0  0  0  0  0  0  0  0
   -6.9899    0.5135   -0.3336 C   0  0  0  0  0  0  0  0  0  0  0  0
   -8.1567    0.9676   -1.1145 C   0  0  0  0  0  0  0  0  0  0  0  0
   -9.2456    1.5847   -0.4772 C   0  0  0  0  0  0  0  0  0  0  0  0
  -10.3690    1.9670   -1.2179 C   0  0  0  0  0  0  0  0  0  0  0  0
  -10.4107    1.7443   -2.6001 C   0  0  0  0  0  0  0  0  0  0  0  0
  -11.8873    2.1813   -3.5325 S   0  0  0  0  0  0  0  0  0  0  0  0
  -11.3861    3.9075   -3.8682 C   0  0  0  0  0  0  0  0  0  0  0  0
  -10.4003    3.9818   -5.0266 C   0  0  0  0  0  0  0  0  0  0  0  0
   -9.3234    1.1300   -3.2400 C   0  0  0  0  0  0  0  0  0  0  0  0
   -8.1964    0.7603   -2.5019 C   0  0  0  0  0  0  0  0  0  0  0  0
   -9.3569    0.8881   -4.5745 F   0  0  0  0  0  0  0  0  0  0  0  0
   -6.1617    1.4271    0.3612 C   0  0  0  0  0  0  0  0  0  0  0  0
   -6.2714    3.1123    0.4386 S   0  0  0  0  0  0  0  0  0  0  0  0
   -7.2421   -1.9373   -0.9340 C   0  0  0  0  0  0  0  0  0  0  0  0
   -6.5724   -3.1472   -0.7254 C   0  0  0  0  0  0  0  0  0  0  0  0
   -5.2003   -2.8758    0.2088 S   0  0  0  0  0  0  0  0  0  0  0  0
   -6.9176   -4.4749   -1.2456 C   0  0  0  0  0  0  0  0  0  0  0  0
   -7.7474   -4.7709   -2.3275 C   0  0  0  0  0  0  0  0  0  0  0  0
   -7.7297   -6.1434   -2.6586 C   0  0  0  0  0  0  0  0  0  0  0  0
   -8.3989   -6.7640   -3.7364 C   0  0  0  0  0  0  0  0  0  0  0  0
   -9.3056   -6.0193   -4.6397 C   0  0  0  0  0  0  0  0  0  0  0  0
  -10.4259   -5.3521   -4.1200 C   0  0  0  0  0  0  0  0  0  0  0  0
  -11.3055   -4.6797   -4.9753 C   0  0  0  0  0  0  0  0  0  0  0  0
  -11.0694   -4.6600   -6.3549 C   0  0  0  0  0  0  0  0  0  0  0  0
  -12.2353   -3.8380   -7.4474 S   0  0  0  0  0  0  0  0  0  0  0  0
  -11.4765   -2.1804   -7.3064 C   0  0  0  0  0  0  0  0  0  0  0  0
  -10.2871   -2.0383   -8.2462 C   0  0  0  0  0  0  0  0  0  0  0  0
   -9.9513   -5.3258   -6.8793 C   0  0  0  0  0  0  0  0  0  0  0  0
   -9.7245   -5.3438   -8.2167 F   0  0  0  0  0  0  0  0  0  0  0  0
   -9.0683   -5.9925   -6.0232 C   0  0  0  0  0  0  0  0  0  0  0  0
   -8.1598   -8.1432   -3.9204 C   0  0  0  0  0  0  0  0  0  0  0  0
   -7.3121   -8.8847   -3.0889 C   0  0  0  0  0  0  0  0  0  0  0  0
   -6.6514   -8.2662   -2.0104 C   0  0  0  0  0  0  0  0  0  0  0  0
   -5.7146   -8.9915   -1.1236 C   0  0  0  0  0  0  0  0  0  0  0  0
   -4.5022   -9.4899   -1.6252 C   0  0  0  0  0  0  0  0  0  0  0  0
   -3.5559  -10.0429   -0.7554 C   0  0  0  0  0  0  0  0  0  0  0  0
   -3.8126  -10.1024    0.6191 C   0  0  0  0  0  0  0  0  0  0  0  0
   -2.5766  -10.7728    1.7379 S   0  0  0  0  0  0  0  0  0  0  0  0
   -1.8318   -9.1541    2.1503 C   0  0  0  0  0  0  0  0  0  0  0  0
   -0.7609   -8.7736    1.1364 C   0  0  0  0  0  0  0  0  0  0  0  0
   -5.0377   -9.6371    1.1194 C   0  0  0  0  0  0  0  0  0  0  0  0
   -5.9818   -9.0837    0.2511 C   0  0  0  0  0  0  0  0  0  0  0  0
   -5.3032   -9.6922    2.4502 F   0  0  0  0  0  0  0  0  0  0  0  0
   -6.8918   -6.8970   -1.8279 C   0  0  0  0  0  0  0  0  0  0  0  0
   -6.1751   -5.8852   -0.7048 S   0  0  0  0  0  0  0  0  0  0  0  0
   -7.2404  -10.2434   -3.4392 C   0  0  0  0  0  0  0  0  0  0  0  0
   -8.0330  -10.5671   -4.5354 C   0  0  0  0  0  0  0  0  0  0  0  0
   -8.8204   -9.1780   -5.0722 S   0  0  0  0  0  0  0  0  0  0  0  0
   10.7005   -6.2147    0.2829 H   0  0  0  0  0  0  0  0  0  0  0  0
   10.9660   -4.0682   -1.1721 H   0  0  0  0  0  0  0  0  0  0  0  0
    8.7214   -2.0724   -2.3272 H   0  0  0  0  0  0  0  0  0  0  0  0
    9.4303   -1.5244   -4.6267 H   0  0  0  0  0  0  0  0  0  0  0  0
    9.9725    1.2556   -5.3205 H   0  0  0  0  0  0  0  0  0  0  0  0
   10.8686    1.6037   -6.8331 H   0  0  0  0  0  0  0  0  0  0  0  0
   11.3400    3.3910   -5.2444 H   0  0  0  0  0  0  0  0  0  0  0  0
   12.8399    2.4115   -5.4511 H   0  0  0  0  0  0  0  0  0  0  0  0
   11.8203    2.2173   -3.9671 H   0  0  0  0  0  0  0  0  0  0  0  0
   12.4224   -0.4759   -0.8061 H   0  0  0  0  0  0  0  0  0  0  0  0
    6.4723   -1.9247    3.3186 H   0  0  0  0  0  0  0  0  0  0  0  0
    5.4439   -2.6119    5.4507 H   0  0  0  0  0  0  0  0  0  0  0  0
    5.6042   -5.3933    6.2304 H   0  0  0  0  0  0  0  0  0  0  0  0
    5.2943   -5.8821    7.9290 H   0  0  0  0  0  0  0  0  0  0  0  0
    6.8975   -7.4448    6.9674 H   0  0  0  0  0  0  0  0  0  0  0  0
    7.9727   -6.1100    6.4232 H   0  0  0  0  0  0  0  0  0  0  0  0
    7.7580   -6.4387    8.1941 H   0  0  0  0  0  0  0  0  0  0  0  0
   10.3396   -3.1324    4.7982 H   0  0  0  0  0  0  0  0  0  0  0  0
    8.0723    0.2989    3.6650 H   0  0  0  0  0  0  0  0  0  0  0  0
    7.7400    3.4741    0.0887 H   0  0  0  0  0  0  0  0  0  0  0  0
    4.7826    3.7669   -0.8979 H   0  0  0  0  0  0  0  0  0  0  0  0
    4.9843    3.7438   -3.3541 H   0  0  0  0  0  0  0  0  0  0  0  0
    5.0576    7.4593   -4.8156 H   0  0  0  0  0  0  0  0  0  0  0  0
    5.1772    7.0368   -6.5554 H   0  0  0  0  0  0  0  0  0  0  0  0
    2.8955    6.6233   -5.8093 H   0  0  0  0  0  0  0  0  0  0  0  0
    3.4604    5.5739   -4.4575 H   0  0  0  0  0  0  0  0  0  0  0  0
    3.6829    5.0415   -6.1734 H   0  0  0  0  0  0  0  0  0  0  0  0
    7.3025    7.2554   -0.7187 H   0  0  0  0  0  0  0  0  0  0  0  0
    3.3208    4.1665    4.8824 H   0  0  0  0  0  0  0  0  0  0  0  0
    3.0023    3.8312    7.3097 H   0  0  0  0  0  0  0  0  0  0  0  0
    6.5841    3.0498    9.0604 H   0  0  0  0  0  0  0  0  0  0  0  0
    5.9401    2.7278   10.7025 H   0  0  0  0  0  0  0  0  0  0  0  0
    3.8998    1.6385    9.6853 H   0  0  0  0  0  0  0  0  0  0  0  0
    5.4514    0.8133    9.2706 H   0  0  0  0  0  0  0  0  0  0  0  0
    4.6462    1.8552    8.0456 H   0  0  0  0  0  0  0  0  0  0  0  0
    7.0925    6.1056    5.6503 H   0  0  0  0  0  0  0  0  0  0  0  0
    3.1147    6.8343    4.2344 H   0  0  0  0  0  0  0  0  0  0  0  0
   -1.2952   11.1637    4.0986 H   0  0  0  0  0  0  0  0  0  0  0  0
   -6.5556    8.2777    0.3662 H   0  0  0  0  0  0  0  0  0  0  0  0
   -3.3087    1.9599    2.0551 H   0  0  0  0  0  0  0  0  0  0  0  0
   -3.8887   -0.4839    3.6571 H   0  0  0  0  0  0  0  0  0  0  0  0
   -1.8226   -1.4748    4.5818 H   0  0  0  0  0  0  0  0  0  0  0  0
    0.9632   -0.2539    2.8737 H   0  0  0  0  0  0  0  0  0  0  0  0
    1.7374   -0.8327    4.3962 H   0  0  0  0  0  0  0  0  0  0  0  0
    2.6025   -1.6288    1.5434 H   0  0  0  0  0  0  0  0  0  0  0  0
    3.4042   -0.3748    2.5735 H   0  0  0  0  0  0  0  0  0  0  0  0
    3.4195   -2.1093    3.0939 H   0  0  0  0  0  0  0  0  0  0  0  0
   -2.4420   -1.2166   -0.3359 H   0  0  0  0  0  0  0  0  0  0  0  0
   -9.2326    1.7442    0.5958 H   0  0  0  0  0  0  0  0  0  0  0  0
  -11.2101    2.4277   -0.7132 H   0  0  0  0  0  0  0  0  0  0  0  0
  -10.9481    4.3795   -2.9626 H   0  0  0  0  0  0  0  0  0  0  0  0
  -12.2979    4.4785   -4.1428 H   0  0  0  0  0  0  0  0  0  0  0  0
  -10.2509    5.0456   -5.3168 H   0  0  0  0  0  0  0  0  0  0  0  0
   -9.4194    3.5588   -4.7273 H   0  0  0  0  0  0  0  0  0  0  0  0
  -10.7916    3.4255   -5.9037 H   0  0  0  0  0  0  0  0  0  0  0  0
   -7.3576    0.2969   -3.0056 H   0  0  0  0  0  0  0  0  0  0  0  0
   -8.1603   -1.8587   -1.5008 H   0  0  0  0  0  0  0  0  0  0  0  0
   -8.2914   -4.0190   -2.8830 H   0  0  0  0  0  0  0  0  0  0  0  0
  -10.6330   -5.3749   -3.0574 H   0  0  0  0  0  0  0  0  0  0  0  0
  -12.1796   -4.1857   -4.5640 H   0  0  0  0  0  0  0  0  0  0  0  0
  -11.1641   -1.9700   -6.2617 H   0  0  0  0  0  0  0  0  0  0  0  0
  -12.2442   -1.4306   -7.5912 H   0  0  0  0  0  0  0  0  0  0  0  0
   -9.9671   -0.9748   -8.2791 H   0  0  0  0  0  0  0  0  0  0  0  0
  -10.5627   -2.3582   -9.2729 H   0  0  0  0  0  0  0  0  0  0  0  0
   -9.4361   -2.6503   -7.8869 H   0  0  0  0  0  0  0  0  0  0  0  0
   -8.2070   -6.5006   -6.4392 H   0  0  0  0  0  0  0  0  0  0  0  0
   -4.2760   -9.4206   -2.6813 H   0  0  0  0  0  0  0  0  0  0  0  0
   -2.6121  -10.4030   -1.1495 H   0  0  0  0  0  0  0  0  0  0  0  0
   -1.3599   -9.2320    3.1530 H   0  0  0  0  0  0  0  0  0  0  0  0
   -2.6063   -8.3580    2.1984 H   0  0  0  0  0  0  0  0  0  0  0  0
   -0.2987   -7.8084    1.4282 H   0  0  0  0  0  0  0  0  0  0  0  0
   -1.2034   -8.6633    0.1255 H   0  0  0  0  0  0  0  0  0  0  0  0
    0.0306   -9.5512    1.1043 H   0  0  0  0  0  0  0  0  0  0  0  0
   -6.9126   -8.7010    0.6510 H   0  0  0  0  0  0  0  0  0  0  0  0
   -6.6405  -10.9753   -2.9122 H   0  0  0  0  0  0  0  0  0  0  0  0
   -8.1284  -11.5522   -4.9694 H   0  0  0  0  0  0  0  0  0  0  0  0
  1  2  2  0
  2  3  1  0
  3  4  2  0
  4  5  1  0
  5  6  2  0
  6  7  1  0
  7  8  2  0
  8  9  1  0
  9 10  1  0
 10 11  1  0
  8 12  1  0
 12 13  1  0
 12 14  2  0
  4 15  1  0
 15 16  2  0
 16 17  1  0
 17 18  1  0
 18 19  2  0
 19 20  1  0
 20 21  2  0
 21 22  1  0
 22 23  1  0
 23 24  1  0
 21 25  1  0
 25 26  2  0
 25 27  1  0
 17 28  2  0
 28 29  1  0
 16 30  1  0
 30 31  2  0
 31 32  1  0
 31 33  1  0
 33 34  2  0
 34 35  1  0
 35 36  2  0
 36 37  1  0
 37 38  2  0
 38 39  1  0
 39 40  2  0
 40 41  1  0
 41 42  1  0
 42 43  1  0
 40 44  1  0
 44 45  1  0
 44 46  2  0
 36 47  1  0
 47 48  2  0
 48 49  1  0
 49 50  1  0
 50 51  2  0
 51 52  1  0
 52 53  2  0
 53 54  1  0
 54 55  1  0
 55 56  1  0
 53 57  1  0
 57 58  2  0
 57 59  1  0
 49 60  2  0
 60 61  1  0
 48 62  1  0
 62 63  2  0
 63 64  1  0
 63 65  1  0
 65 66  1  0
 65 67  2  0
 67 68  1  0
 68 69  1  0
 69 70  2  0
 70 71  1  0
 71 72  2  0
 72 73  1  0
 73 74  1  0
 73 75  2  0
 75 76  1  0
 76 77  1  0
 77 78  2  0
 78 79  1  0
 79 80  2  0
 80 81  1  0
 81 82  2  0
 82 83  1  0
 83 84  2  0
 84 85  1  0
 85 86  2  0
 86 87  1  0
 87 88  2  0
 88 89  1  0
 89 90  1  0
 90 91  1  0
 88 92  1  0
 92 93  1  0
 92 94  2  0
 84 95  1  0
 95 96  2  0
 96 97  1  0
 97 98  1  0
 98 99  2  0
 99100  1  0
100101  2  0
101102  1  0
102103  1  0
103104  1  0
101105  1  0
105106  2  0
105107  1  0
 97108  2  0
108109  1  0
 96110  1  0
110111  2  0
111112  1  0
111113  1  0
113114  2  0
114115  1  0
115116  2  0
116117  1  0
117118  2  0
118119  1  0
119120  2  0
120121  1  0
121122  1  0
122123  1  0
120124  1  0
124125  1  0
124126  2  0
116127  1  0
127128  2  0
128129  1  0
129130  1  0
130131  2  0
131132  1  0
132133  2  0
133134  1  0
134135  1  0
135136  1  0
133137  1  0
137138  2  0
137139  1  0
129140  2  0
140141  1  0
128142  1  0
142143  2  0
143144  1  0
 29  1  1  0
 61 33  1  0
 72 66  1  0
 80 74  1  0
109 81  1  0
141113  1  0
 28  3  1  0
 60 35  1  0
 71 67  1  0
 79 75  1  0
108 83  1  0
140115  1  0
 14  5  1  0
 32 15  1  0
 46 37  1  0
 64 47  1  0
 94 85  1  0
112 95  1  0
126117  1  0
144127  1  0
 26 18  1  0
 58 50  1  0
106 98  1  0
138130  1  0
  1145  1  0
  2146  1  0
  6147  1  0
  7148  1  0
 10149  1  0
 10150  1  0
 11151  1  0
 11152  1  0
 11153  1  0
 14154  1  0
 19155  1  0
 20156  1  0
 23157  1  0
 23158  1  0
 24159  1  0
 24160  1  0
 24161  1  0
 26162  1  0
 30163  1  0
 34164  1  0
 38165  1  0
 39166  1  0
 42167  1  0
 42168  1  0
 43169  1  0
 43170  1  0
 43171  1  0
 46172  1  0
 51173  1  0
 52174  1  0
 55175  1  0
 55176  1  0
 56177  1  0
 56178  1  0
 56179  1  0
 58180  1  0
 62181  1  0
 69182  1  0
 77183  1  0
 82184  1  0
 86185  1  0
 87186  1  0
 90187  1  0
 90188  1  0
 91189  1  0
 91190  1  0
 91191  1  0
 94192  1  0
 99193  1  0
100194  1  0
103195  1  0
103196  1  0
104197  1  0
104198  1  0
104199  1  0
106200  1  0
110201  1  0
114202  1  0
118203  1  0
119204  1  0
122205  1  0
122206  1  0
123207  1  0
123208  1  0
123209  1  0
126210  1  0
131211  1  0
132212  1  0
135213  1  0
135214  1  0
136215  1  0
136216  1  0
136217  1  0
138218  1  0
142219  1  0
143220  1  0
M  END

