
     RDKit          3D

221247  0  0  0  0  0  0  0  0999 V2000
    1.9461   -4.6456   10.4294 C   0  0  0  0  0  0  0  0  0  0  0  0
    1.1426   -3.7492    9.7330 C   0  0  0  0  0  0  0  0  0  0  0  0
    0.6957   -4.2476    8.5007 C   0  0  0  0  0  0  0  0  0  0  0  0
   -0.1659   -3.5918    7.6018 C   0  0  0  0  0  0  0  0  0  0  0  0
   -0.6327   -2.2150    7.8317 C   0  0  0  0  0  0  0  0  0  0  0  0
    0.3517   -0.8512    7.7749 S   0  0  0  0  0  0  0  0  0  0  0  0
   -0.8788    0.2694    8.0341 C   0  0  0  0  0  0  0  0  0  0  0  0
   -0.6908    1.7571    8.0226 C   0  0  0  0  0  0  0  0  0  0  0  0
   -0.9934    2.3314    6.6420 C   0  0  0  0  0  0  0  0  0  0  0  0
   -2.0889   -0.4169    8.1485 C   0  0  0  0  0  0  0  0  0  0  0  0
   -3.6364    0.3809    8.3865 Cl  0  0  0  0  0  0  0  0  0  0  0  0
   -1.9483   -1.8101    8.0412 C   0  0  0  0  0  0  0  0  0  0  0  0
   -3.2942   -2.9330    8.1749 Cl  0  0  0  0  0  0  0  0  0  0  0  0
   -0.5208   -4.2922    6.4367 C   0  0  0  0  0  0  0  0  0  0  0  0
   -0.0416   -5.5769    6.1491 C   0  0  0  0  0  0  0  0  0  0  0  0
    0.7989   -6.2453    7.0648 C   0  0  0  0  0  0  0  0  0  0  0  0
    1.2568   -7.6306    6.8459 C   0  0  0  0  0  0  0  0  0  0  0  0
    2.8684   -8.1141    6.7641 S   0  0  0  0  0  0  0  0  0  0  0  0
    2.5533   -9.7607    6.6198 C   0  0  0  0  0  0  0  0  0  0  0  0
    3.6057  -10.8201    6.4767 C   0  0  0  0  0  0  0  0  0  0  0  0
    3.7810  -11.2161    5.0141 C   0  0  0  0  0  0  0  0  0  0  0  0
    1.1740   -9.9562    6.6281 C   0  0  0  0  0  0  0  0  0  0  0  0
    0.4465   -8.7627    6.7623 C   0  0  0  0  0  0  0  0  0  0  0  0
   -1.3087   -8.7182    6.8932 Cl  0  0  0  0  0  0  0  0  0  0  0  0
    0.4180  -11.5385    6.5094 Cl  0  0  0  0  0  0  0  0  0  0  0  0
    1.1545   -5.5406    8.2289 C   0  0  0  0  0  0  0  0  0  0  0  0
    2.1003   -6.0588    9.5212 S   0  0  0  0  0  0  0  0  0  0  0  0
   -0.4680   -6.0572    4.8966 C   0  0  0  0  0  0  0  0  0  0  0  0
   -1.3116   -5.1608    4.2414 C   0  0  0  0  0  0  0  0  0  0  0  0
   -1.5022   -3.7718    5.1783 S   0  0  0  0  0  0  0  0  0  0  0  0
   -1.9430   -5.3472    2.9324 C   0  0  0  0  0  0  0  0  0  0  0  0
   -1.3433   -5.8986    1.8004 C   0  0  0  0  0  0  0  0  0  0  0  0
   -2.1186   -5.7273    0.6392 C   0  0  0  0  0  0  0  0  0  0  0  0
   -1.7336   -6.0197   -0.6883 C   0  0  0  0  0  0  0  0  0  0  0  0
   -0.4069   -6.5762   -1.0140 C   0  0  0  0  0  0  0  0  0  0  0  0
   -0.1521   -8.0796   -1.7261 S   0  0  0  0  0  0  0  0  0  0  0  0
    1.5279   -7.9808   -1.7545 C   0  0  0  0  0  0  0  0  0  0  0  0
    2.4352   -9.0754   -2.2360 C   0  0  0  0  0  0  0  0  0  0  0  0
    2.8318   -9.9909   -1.0828 C   0  0  0  0  0  0  0  0  0  0  0  0
    1.9159   -6.7615   -1.1977 C   0  0  0  0  0  0  0  0  0  0  0  0
    3.5914   -6.2671   -1.0069 Cl  0  0  0  0  0  0  0  0  0  0  0  0
    0.8301   -5.9717   -0.7875 C   0  0  0  0  0  0  0  0  0  0  0  0
    1.0169   -4.3628   -0.1000 Cl  0  0  0  0  0  0  0  0  0  0  0  0
   -2.6381   -5.6636   -1.7083 C   0  0  0  0  0  0  0  0  0  0  0  0
   -3.8711   -5.0652   -1.4393 C   0  0  0  0  0  0  0  0  0  0  0  0
   -4.2551   -4.7680   -0.1188 C   0  0  0  0  0  0  0  0  0  0  0  0
   -5.4575   -3.9738    0.1860 C   0  0  0  0  0  0  0  0  0  0  0  0
   -5.6181   -2.3306   -0.1404 S   0  0  0  0  0  0  0  0  0  0  0  0
   -7.0842   -2.1302    0.6569 C   0  0  0  0  0  0  0  0  0  0  0  0
   -7.8054   -0.8237    0.7941 C   0  0  0  0  0  0  0  0  0  0  0  0
   -8.9112   -0.6936   -0.2419 C   0  0  0  0  0  0  0  0  0  0  0  0
   -7.4769   -3.3581    1.1869 C   0  0  0  0  0  0  0  0  0  0  0  0
   -6.5574   -4.3903    0.9357 C   0  0  0  0  0  0  0  0  0  0  0  0
   -6.7672   -6.0404    1.5021 Cl  0  0  0  0  0  0  0  0  0  0  0  0
   -8.9552   -3.5882    2.1067 Cl  0  0  0  0  0  0  0  0  0  0  0  0
   -3.3482   -5.1058    0.8940 C   0  0  0  0  0  0  0  0  0  0  0  0
   -3.4343   -4.6863    2.5164 S   0  0  0  0  0  0  0  0  0  0  0  0
   -4.5644   -4.6747   -2.5917 C   0  0  0  0  0  0  0  0  0  0  0  0
   -3.8573   -4.8998   -3.7722 C   0  0  0  0  0  0  0  0  0  0  0  0
   -2.3788   -5.6272   -3.3750 S   0  0  0  0  0  0  0  0  0  0  0  0
   -4.1166   -4.1349   -5.0050 C   0  0  0  0  0  0  0  0  0  0  0  0
   -5.3310   -3.4847   -5.2409 C   0  0  0  0  0  0  0  0  0  0  0  0
   -5.1874   -2.2528   -5.8991 C   0  0  0  0  0  0  0  0  0  0  0  0
   -6.1573   -1.2283   -5.9461 C   0  0  0  0  0  0  0  0  0  0  0  0
   -7.5581   -1.4313   -5.5189 C   0  0  0  0  0  0  0  0  0  0  0  0
   -8.0660   -1.9031   -3.9838 S   0  0  0  0  0  0  0  0  0  0  0  0
   -9.7165   -1.8472   -4.3146 C   0  0  0  0  0  0  0  0  0  0  0  0
  -10.7953   -2.2632   -3.3587 C   0  0  0  0  0  0  0  0  0  0  0  0
  -11.0584   -3.7603   -3.4637 C   0  0  0  0  0  0  0  0  0  0  0  0
   -9.8929   -1.4697   -5.6445 C   0  0  0  0  0  0  0  0  0  0  0  0
  -11.4644   -1.3479   -6.4201 Cl  0  0  0  0  0  0  0  0  0  0  0  0
   -8.6834   -1.2196   -6.3134 C   0  0  0  0  0  0  0  0  0  0  0  0
   -8.5978   -0.7434   -8.0030 Cl  0  0  0  0  0  0  0  0  0  0  0  0
   -5.6975    0.0575   -6.2766 C   0  0  0  0  0  0  0  0  0  0  0  0
   -4.3809    0.3104   -6.6665 C   0  0  0  0  0  0  0  0  0  0  0  0
   -3.4438   -0.7421   -6.7507 C   0  0  0  0  0  0  0  0  0  0  0  0
   -2.0166   -0.5062   -7.0519 C   0  0  0  0  0  0  0  0  0  0  0  0
   -0.9665    0.4293   -6.1239 S   0  0  0  0  0  0  0  0  0  0  0  0
    0.4092    0.1206   -7.0381 C   0  0  0  0  0  0  0  0  0  0  0  0
    1.7798    0.6352   -6.7148 C   0  0  0  0  0  0  0  0  0  0  0  0
    2.5449   -0.3681   -5.8570 C   0  0  0  0  0  0  0  0  0  0  0  0
    0.0736   -0.7611   -8.0648 C   0  0  0  0  0  0  0  0  0  0  0  0
   -1.2860   -1.1137   -8.0707 C   0  0  0  0  0  0  0  0  0  0  0  0
   -1.9988   -2.2003   -9.2543 Cl  0  0  0  0  0  0  0  0  0  0  0  0
    1.2366   -1.4002   -9.2134 Cl  0  0  0  0  0  0  0  0  0  0  0  0
   -3.8726   -2.0040   -6.3088 C   0  0  0  0  0  0  0  0  0  0  0  0
   -2.8941   -3.2611   -5.7701 S   0  0  0  0  0  0  0  0  0  0  0  0
   -4.0708    1.6781   -6.6966 C   0  0  0  0  0  0  0  0  0  0  0  0
   -5.0838    2.4927   -6.1884 C   0  0  0  0  0  0  0  0  0  0  0  0
   -6.4239    1.5189   -5.8627 S   0  0  0  0  0  0  0  0  0  0  0  0
   -4.7641    3.7065   -5.4178 C   0  0  0  0  0  0  0  0  0  0  0  0
   -3.6133    4.4644   -5.6345 C   0  0  0  0  0  0  0  0  0  0  0  0
   -3.1084    5.0704   -4.4729 C   0  0  0  0  0  0  0  0  0  0  0  0
   -1.8267    5.6445   -4.3518 C   0  0  0  0  0  0  0  0  0  0  0  0
   -0.9474    5.8230   -5.5233 C   0  0  0  0  0  0  0  0  0  0  0  0
    0.5353    5.0537   -5.7483 S   0  0  0  0  0  0  0  0  0  0  0  0
    0.8484    5.7047   -7.2684 C   0  0  0  0  0  0  0  0  0  0  0  0
    2.1096    5.4782   -8.0432 C   0  0  0  0  0  0  0  0  0  0  0  0
    3.1504    6.5381   -7.6984 C   0  0  0  0  0  0  0  0  0  0  0  0
   -0.2024    6.5528   -7.6143 C   0  0  0  0  0  0  0  0  0  0  0  0
   -0.2515    7.4742   -9.1103 Cl  0  0  0  0  0  0  0  0  0  0  0  0
   -1.2133    6.6104   -6.6424 C   0  0  0  0  0  0  0  0  0  0  0  0
   -2.6494    7.6142   -6.7991 Cl  0  0  0  0  0  0  0  0  0  0  0  0
   -1.3676    5.8947   -3.0481 C   0  0  0  0  0  0  0  0  0  0  0  0
   -2.1425    5.6426   -1.9102 C   0  0  0  0  0  0  0  0  0  0  0  0
   -3.4507    5.1173   -2.0337 C   0  0  0  0  0  0  0  0  0  0  0  0
   -4.2436    4.7112   -0.8494 C   0  0  0  0  0  0  0  0  0  0  0  0
   -3.7019    3.6803    0.3711 S   0  0  0  0  0  0  0  0  0  0  0  0
   -5.0639    3.8084    1.3456 C   0  0  0  0  0  0  0  0  0  0  0  0
   -5.2088    3.1688    2.6941 C   0  0  0  0  0  0  0  0  0  0  0  0
   -5.8621    1.7983    2.5844 C   0  0  0  0  0  0  0  0  0  0  0  0
   -5.9919    4.6287    0.7053 C   0  0  0  0  0  0  0  0  0  0  0  0
   -5.5305    5.1382   -0.5230 C   0  0  0  0  0  0  0  0  0  0  0  0
   -6.4523    6.2718   -1.5014 Cl  0  0  0  0  0  0  0  0  0  0  0  0
   -7.5679    5.0184    1.3771 Cl  0  0  0  0  0  0  0  0  0  0  0  0
   -3.8959    4.8336   -3.3397 C   0  0  0  0  0  0  0  0  0  0  0  0
   -5.1858    3.8536   -3.7868 S   0  0  0  0  0  0  0  0  0  0  0  0
   -1.4329    5.8424   -0.7133 C   0  0  0  0  0  0  0  0  0  0  0  0
   -0.0914    6.1644   -0.9128 C   0  0  0  0  0  0  0  0  0  0  0  0
    0.1885    6.3104   -2.5686 S   0  0  0  0  0  0  0  0  0  0  0  0
    0.9891    6.0119    0.0794 C   0  0  0  0  0  0  0  0  0  0  0  0
    2.6443    6.2329   -0.2481 S   0  0  0  0  0  0  0  0  0  0  0  0
    0.9593    5.2504    1.2462 C   0  0  0  0  0  0  0  0  0  0  0  0
   -0.2338    4.4264    2.0921 S   0  0  0  0  0  0  0  0  0  0  0  0
    0.9002    3.6916    3.1254 C   0  0  0  0  0  0  0  0  0  0  0  0
    2.1747    4.0361    2.8123 N   0  0  0  0  0  0  0  0  0  0  0  0
    2.1853    4.9053    1.7718 C   0  0  0  0  0  0  0  0  0  0  0  0
    3.2789    5.3992    1.0825 C   0  0  0  0  0  0  0  0  0  0  0  0
    4.6472    4.8839    1.1656 C   0  0  0  0  0  0  0  0  0  0  0  0
    4.9978    3.5489    1.0030 C   0  0  0  0  0  0  0  0  0  0  0  0
    6.3828    3.3416    1.0456 C   0  0  0  0  0  0  0  0  0  0  0  0
    7.0463    2.1079    0.8908 C   0  0  0  0  0  0  0  0  0  0  0  0
    6.3141    0.8688    0.5667 C   0  0  0  0  0  0  0  0  0  0  0  0
    5.4402    0.6216   -0.8507 S   0  0  0  0  0  0  0  0  0  0  0  0
    4.9237   -0.9359   -0.4772 C   0  0  0  0  0  0  0  0  0  0  0  0
    4.1039   -1.8022   -1.3862 C   0  0  0  0  0  0  0  0  0  0  0  0
    4.9969   -2.6847   -2.2514 C   0  0  0  0  0  0  0  0  0  0  0  0
    5.4439   -1.2907    0.7674 C   0  0  0  0  0  0  0  0  0  0  0  0
    5.1514   -2.8455    1.5317 Cl  0  0  0  0  0  0  0  0  0  0  0  0
    6.2213   -0.2779    1.3546 C   0  0  0  0  0  0  0  0  0  0  0  0
    6.9495   -0.4189    2.9491 Cl  0  0  0  0  0  0  0  0  0  0  0  0
    8.4476    2.1231    0.9941 C   0  0  0  0  0  0  0  0  0  0  0  0
    9.1714    3.2922    1.2460 C   0  0  0  0  0  0  0  0  0  0  0  0
    8.5062    4.5281    1.4037 C   0  0  0  0  0  0  0  0  0  0  0  0
    9.2357    5.7761    1.6986 C   0  0  0  0  0  0  0  0  0  0  0  0
    9.2877    7.1246    0.6917 S   0  0  0  0  0  0  0  0  0  0  0  0
   10.2749    8.0546    1.6882 C   0  0  0  0  0  0  0  0  0  0  0  0
   10.7981    9.4147    1.3382 C   0  0  0  0  0  0  0  0  0  0  0  0
   12.2000    9.3192    0.7469 C   0  0  0  0  0  0  0  0  0  0  0  0
   10.5864    7.3120    2.8264 C   0  0  0  0  0  0  0  0  0  0  0  0
   10.0003    6.0368    2.8348 C   0  0  0  0  0  0  0  0  0  0  0  0
   10.1824    4.9011    4.1682 Cl  0  0  0  0  0  0  0  0  0  0  0  0
   11.6157    7.9090    4.1215 Cl  0  0  0  0  0  0  0  0  0  0  0  0
    7.1069    4.5177    1.2735 C   0  0  0  0  0  0  0  0  0  0  0  0
    6.0362    5.8157    1.3786 S   0  0  0  0  0  0  0  0  0  0  0  0
   10.5619    3.0853    1.2666 C   0  0  0  0  0  0  0  0  0  0  0  0
   10.9211    1.7594    1.0388 C   0  0  0  0  0  0  0  0  0  0  0  0
    9.5246    0.8450    0.7943 S   0  0  0  0  0  0  0  0  0  0  0  0
    2.3882   -4.4676   11.4009 H   0  0  0  0  0  0  0  0  0  0  0  0
    0.8804   -2.7747   10.1209 H   0  0  0  0  0  0  0  0  0  0  0  0
   -1.3542    2.2316    8.7746 H   0  0  0  0  0  0  0  0  0  0  0  0
    0.3591    1.9996    8.2915 H   0  0  0  0  0  0  0  0  0  0  0  0
   -0.7898    3.4233    6.6370 H   0  0  0  0  0  0  0  0  0  0  0  0
   -0.3526    1.8456    5.8742 H   0  0  0  0  0  0  0  0  0  0  0  0
   -2.0613    2.1691    6.3781 H   0  0  0  0  0  0  0  0  0  0  0  0
    4.5729  -10.4388    6.8715 H   0  0  0  0  0  0  0  0  0  0  0  0
    3.3220  -11.7126    7.0717 H   0  0  0  0  0  0  0  0  0  0  0  0
    4.5483  -12.0158    4.9374 H   0  0  0  0  0  0  0  0  0  0  0  0
    2.8254  -11.6037    4.6014 H   0  0  0  0  0  0  0  0  0  0  0  0
    4.1119  -10.3419    4.4150 H   0  0  0  0  0  0  0  0  0  0  0  0
   -0.1897   -7.0197    4.4869 H   0  0  0  0  0  0  0  0  0  0  0  0
   -0.3499   -6.3278    1.8080 H   0  0  0  0  0  0  0  0  0  0  0  0
    3.3480   -8.6419   -2.6962 H   0  0  0  0  0  0  0  0  0  0  0  0
    1.9110   -9.6748   -3.0116 H   0  0  0  0  0  0  0  0  0  0  0  0
    3.4077   -9.4240   -0.3183 H   0  0  0  0  0  0  0  0  0  0  0  0
    3.4657  -10.8175   -1.4654 H   0  0  0  0  0  0  0  0  0  0  0  0
    1.9265  -10.4311   -0.6092 H   0  0  0  0  0  0  0  0  0  0  0  0
   -8.2343   -0.7307    1.8124 H   0  0  0  0  0  0  0  0  0  0  0  0
   -7.0843    0.0051    0.6483 H   0  0  0  0  0  0  0  0  0  0  0  0
   -9.4146    0.2906   -0.1258 H   0  0  0  0  0  0  0  0  0  0  0  0
   -9.6666   -1.4934   -0.1030 H   0  0  0  0  0  0  0  0  0  0  0  0
   -8.4826   -0.7544   -1.2637 H   0  0  0  0  0  0  0  0  0  0  0  0
   -5.4927   -4.1198   -2.5574 H   0  0  0  0  0  0  0  0  0  0  0  0
   -6.2516   -3.8091   -4.7809 H   0  0  0  0  0  0  0  0  0  0  0  0
  -10.4849   -2.0195   -2.3213 H   0  0  0  0  0  0  0  0  0  0  0  0
  -11.7320   -1.7047   -3.5714 H   0  0  0  0  0  0  0  0  0  0  0  0
  -10.1319   -4.3269   -3.2259 H   0  0  0  0  0  0  0  0  0  0  0  0
  -11.3927   -4.0200   -4.4908 H   0  0  0  0  0  0  0  0  0  0  0  0
  -11.8507   -4.0541   -2.7421 H   0  0  0  0  0  0  0  0  0  0  0  0
    1.6921    1.5982   -6.1654 H   0  0  0  0  0  0  0  0  0  0  0  0
    2.3403    0.8283   -7.6537 H   0  0  0  0  0  0  0  0  0  0  0  0
    1.9956   -0.5663   -4.9119 H   0  0  0  0  0  0  0  0  0  0  0  0
    3.5473    0.0430   -5.6073 H   0  0  0  0  0  0  0  0  0  0  0  0
    2.6809   -1.3236   -6.4068 H   0  0  0  0  0  0  0  0  0  0  0  0
   -3.0728    2.0463   -6.8822 H   0  0  0  0  0  0  0  0  0  0  0  0
   -3.0697    4.4323   -6.5709 H   0  0  0  0  0  0  0  0  0  0  0  0
    1.8968    5.5123   -9.1320 H   0  0  0  0  0  0  0  0  0  0  0  0
    2.5153    4.4723   -7.8041 H   0  0  0  0  0  0  0  0  0  0  0  0
    2.7645    7.5526   -7.9395 H   0  0  0  0  0  0  0  0  0  0  0  0
    3.4029    6.4900   -6.6184 H   0  0  0  0  0  0  0  0  0  0  0  0
    4.0751    6.3588   -8.2868 H   0  0  0  0  0  0  0  0  0  0  0  0
   -5.8173    3.8165    3.3600 H   0  0  0  0  0  0  0  0  0  0  0  0
   -4.2053    3.0603    3.1575 H   0  0  0  0  0  0  0  0  0  0  0  0
   -6.8775    1.8943    2.1463 H   0  0  0  0  0  0  0  0  0  0  0  0
   -5.9544    1.3488    3.5947 H   0  0  0  0  0  0  0  0  0  0  0  0
   -5.2419    1.1264    1.9551 H   0  0  0  0  0  0  0  0  0  0  0  0
   -1.8618    5.6961    0.2647 H   0  0  0  0  0  0  0  0  0  0  0  0
    0.6554    3.0052    3.9228 H   0  0  0  0  0  0  0  0  0  0  0  0
    4.2713    2.7620    0.8416 H   0  0  0  0  0  0  0  0  0  0  0  0
    3.4183   -2.4384   -0.7880 H   0  0  0  0  0  0  0  0  0  0  0  0
    3.4836   -1.1562   -2.0446 H   0  0  0  0  0  0  0  0  0  0  0  0
    5.5944   -3.3707   -1.6147 H   0  0  0  0  0  0  0  0  0  0  0  0
    5.6792   -2.0594   -2.8652 H   0  0  0  0  0  0  0  0  0  0  0  0
    4.3652   -3.2949   -2.9302 H   0  0  0  0  0  0  0  0  0  0  0  0
   10.8207   10.0537    2.2448 H   0  0  0  0  0  0  0  0  0  0  0  0
   10.1219    9.8923    0.5978 H   0  0  0  0  0  0  0  0  0  0  0  0
   12.1890    8.6997   -0.1747 H   0  0  0  0  0  0  0  0  0  0  0  0
   12.9008    8.8671    1.4800 H   0  0  0  0  0  0  0  0  0  0  0  0
   12.5645   10.3383    0.4921 H   0  0  0  0  0  0  0  0  0  0  0  0
   11.2937    3.8669    1.4313 H   0  0  0  0  0  0  0  0  0  0  0  0
   11.9332    1.3806    1.0089 H   0  0  0  0  0  0  0  0  0  0  0  0
  1  2  2  0
  2  3  1  0
  3  4  2  0
  4  5  1  0
  5  6  1  0
  6  7  1  0
  7  8  1  0
  8  9  1  0
  7 10  2  0
 10 11  1  0
 10 12  1  0
 12 13  1  0
  4 14  1  0
 14 15  2  0
 15 16  1  0
 16 17  1  0
 17 18  1  0
 18 19  1  0
 19 20  1  0
 20 21  1  0
 19 22  2  0
 22 23  1  0
 23 24  1  0
 22 25  1  0
 16 26  2  0
 26 27  1  0
 15 28  1  0
 28 29  2  0
 29 30  1  0
 29 31  1  0
 31 32  2  0
 32 33  1  0
 33 34  2  0
 34 35  1  0
 35 36  1  0
 36 37  1  0
 37 38  1  0
 38 39  1  0
 37 40  2  0
 40 41  1  0
 40 42  1  0
 42 43  1  0
 34 44  1  0
 44 45  2  0
 45 46  1  0
 46 47  1  0
 47 48  1  0
 48 49  1  0
 49 50  1  0
 50 51  1  0
 49 52  2  0
 52 53  1  0
 53 54  1  0
 52 55  1  0
 46 56  2  0
 56 57  1  0
 45 58  1  0
 58 59  2  0
 59 60  1  0
 59 61  1  0
 61 62  2  0
 62 63  1  0
 63 64  2  0
 64 65  1  0
 65 66  1  0
 66 67  1  0
 67 68  1  0
 68 69  1  0
 67 70  2  0
 70 71  1  0
 70 72  1  0
 72 73  1  0
 64 74  1  0
 74 75  2  0
 75 76  1  0
 76 77  1  0
 77 78  1  0
 78 79  1  0
 79 80  1  0
 80 81  1  0
 79 82  2  0
 82 83  1  0
 83 84  1  0
 82 85  1  0
 76 86  2  0
 86 87  1  0
 75 88  1  0
 88 89  2  0
 89 90  1  0
 89 91  1  0
 91 92  2  0
 92 93  1  0
 93 94  2  0
 94 95  1  0
 95 96  1  0
 96 97  1  0
 97 98  1  0
 98 99  1  0
 97100  2  0
100101  1  0
100102  1  0
102103  1  0
 94104  1  0
104105  2  0
105106  1  0
106107  1  0
107108  1  0
108109  1  0
109110  1  0
110111  1  0
109112  2  0
112113  1  0
113114  1  0
112115  1  0
106116  2  0
116117  1  0
105118  1  0
118119  2  0
119120  1  0
119121  1  0
121122  1  0
121123  2  0
123124  1  0
124125  1  0
125126  2  0
126127  1  0
127128  2  0
128129  1  0
129130  2  0
130131  1  0
131132  2  0
132133  1  0
133134  1  0
134135  1  0
135136  1  0
136137  1  0
135138  2  0
138139  1  0
138140  1  0
140141  1  0
132142  1  0
142143  2  0
143144  1  0
144145  1  0
145146  1  0
146147  1  0
147148  1  0
148149  1  0
147150  2  0
150151  1  0
151152  1  0
150153  1  0
144154  2  0
154155  1  0
143156  1  0
156157  2  0
157158  1  0
 27  1  1  0
 57 31  1  0
 87 61  1  0
117 91  1  0
128122  1  0
155129  1  0
 26  3  1  0
 56 33  1  0
 86 63  1  0
116 93  1  0
127123  1  0
154131  1  0
 12  5  2  0
 30 14  1  0
 42 35  2  0
 60 44  1  0
 72 65  2  0
 90 74  1  0
102 95  2  0
120104  1  0
140133  2  0
158142  1  0
 23 17  2  0
 53 47  2  0
 83 77  2  0
113107  2  0
151145  2  0
  1159  1  0
  2160  1  0
  8161  1  0
  8162  1  0
  9163  1  0
  9164  1  0
  9165  1  0
 20166  1  0
 20167  1  0
 21168  1  0
 21169  1  0
 21170  1  0
 28171  1  0
 32172  1  0
 38173  1  0
 38174  1  0
 39175  1  0
 39176  1  0
 39177  1  0
 50178  1  0
 50179  1  0
 51180  1  0
 51181  1  0
 51182  1  0
 58183  1  0
 62184  1  0
 68185  1  0
 68186  1  0
 69187  1  0
 69188  1  0
 69189  1  0
 80190  1  0
 80191  1  0
 81192  1  0
 81193  1  0
 81194  1  0
 88195  1  0
 92196  1  0
 98197  1  0
 98198  1  0
 99199  1  0
 99200  1  0
 99201  1  0
110202  1  0
110203  1  0
111204  1  0
111205  1  0
111206  1  0
118207  1  0
125208  1  0
130209  1  0
136210  1  0
136211  1  0
137212  1  0
137213  1  0
137214  1  0
148215  1  0
148216  1  0
149217  1  0
149218  1  0
149219  1  0
156220  1  0
157221  1  0
M  END

