
     RDKit          3D

188211  0  0  0  0  0  0  0  0999 V2000
   -8.0859   -4.2108  -11.0815 C   0  0  0  0  0  0  0  0  0  0  0  0
   -6.8324   -3.8771  -11.5872 C   0  0  0  0  0  0  0  0  0  0  0  0
   -5.9832   -3.3051  -10.6262 C   0  0  0  0  0  0  0  0  0  0  0  0
   -4.6696   -2.8460  -10.8373 C   0  0  0  0  0  0  0  0  0  0  0  0
   -4.0032   -2.9786  -12.1417 C   0  0  0  0  0  0  0  0  0  0  0  0
   -3.4082   -4.4233  -12.7717 S   0  0  0  0  0  0  0  0  0  0  0  0
   -2.8783   -3.7728  -14.2307 C   0  0  0  0  0  0  0  0  0  0  0  0
   -2.2761   -4.5655  -15.3508 C   0  0  0  0  0  0  0  0  0  0  0  0
   -3.3613   -5.1049  -16.2769 C   0  0  0  0  0  0  0  0  0  0  0  0
   -3.1904   -2.4135  -14.2538 C   0  0  0  0  0  0  0  0  0  0  0  0
   -2.8588   -1.3620  -15.6243 Cl  0  0  0  0  0  0  0  0  0  0  0  0
   -3.8151   -1.9687  -13.0767 C   0  0  0  0  0  0  0  0  0  0  0  0
   -4.3511   -0.3098  -12.8345 Cl  0  0  0  0  0  0  0  0  0  0  0  0
   -4.0124   -2.2671   -9.7375 C   0  0  0  0  0  0  0  0  0  0  0  0
   -4.5975   -2.1910   -8.4678 C   0  0  0  0  0  0  0  0  0  0  0  0
   -5.9099   -2.6555   -8.2557 C   0  0  0  0  0  0  0  0  0  0  0  0
   -6.5684   -2.5393   -6.9448 C   0  0  0  0  0  0  0  0  0  0  0  0
   -7.7903   -1.4421   -6.5845 S   0  0  0  0  0  0  0  0  0  0  0  0
   -7.8948   -1.8227   -4.9492 C   0  0  0  0  0  0  0  0  0  0  0  0
   -8.8488   -1.1818   -3.9854 C   0  0  0  0  0  0  0  0  0  0  0  0
  -10.1492   -1.9745   -3.9066 C   0  0  0  0  0  0  0  0  0  0  0  0
   -6.9813   -2.8377   -4.6648 C   0  0  0  0  0  0  0  0  0  0  0  0
   -6.2280   -3.2288   -5.7837 C   0  0  0  0  0  0  0  0  0  0  0  0
   -4.9803   -4.4697   -5.7274 Cl  0  0  0  0  0  0  0  0  0  0  0  0
   -6.7760   -3.5442   -3.0674 Cl  0  0  0  0  0  0  0  0  0  0  0  0
   -6.5816   -3.1914   -9.3666 C   0  0  0  0  0  0  0  0  0  0  0  0
   -8.1469   -3.7997   -9.4445 S   0  0  0  0  0  0  0  0  0  0  0  0
   -3.7663   -1.5950   -7.5094 C   0  0  0  0  0  0  0  0  0  0  0  0
   -2.5448   -1.1854   -8.0362 C   0  0  0  0  0  0  0  0  0  0  0  0
   -2.4790   -1.5653   -9.6811 S   0  0  0  0  0  0  0  0  0  0  0  0
   -1.5003   -0.4982   -7.2743 C   0  0  0  0  0  0  0  0  0  0  0  0
   -0.7876    0.6217   -7.6979 C   0  0  0  0  0  0  0  0  0  0  0  0
    0.0402    1.1513   -6.6897 C   0  0  0  0  0  0  0  0  0  0  0  0
    0.8084    2.3304   -6.7724 C   0  0  0  0  0  0  0  0  0  0  0  0
    0.8767    3.1323   -8.0075 C   0  0  0  0  0  0  0  0  0  0  0  0
    1.5887    2.6108   -9.4398 S   0  0  0  0  0  0  0  0  0  0  0  0
    1.3396    4.0382  -10.2949 C   0  0  0  0  0  0  0  0  0  0  0  0
    1.8455    4.2982  -11.6802 C   0  0  0  0  0  0  0  0  0  0  0  0
    3.2125    4.9737  -11.6337 C   0  0  0  0  0  0  0  0  0  0  0  0
    0.7073    4.9554   -9.4562 C   0  0  0  0  0  0  0  0  0  0  0  0
    0.2968    6.5951   -9.9423 Cl  0  0  0  0  0  0  0  0  0  0  0  0
    0.4386    4.4438   -8.1768 C   0  0  0  0  0  0  0  0  0  0  0  0
   -0.4118    5.3555   -6.9352 Cl  0  0  0  0  0  0  0  0  0  0  0  0
    1.5107    2.7137   -5.6143 C   0  0  0  0  0  0  0  0  0  0  0  0
    1.4857    1.9577   -4.4369 C   0  0  0  0  0  0  0  0  0  0  0  0
    0.7109    0.7845   -4.3542 C   0  0  0  0  0  0  0  0  0  0  0  0
    0.6319   -0.0101   -3.1148 C   0  0  0  0  0  0  0  0  0  0  0  0
   -0.7486   -0.1894   -2.1694 S   0  0  0  0  0  0  0  0  0  0  0  0
   -0.0422   -1.1719   -0.9995 C   0  0  0  0  0  0  0  0  0  0  0  0
   -0.7775   -1.7771    0.1601 C   0  0  0  0  0  0  0  0  0  0  0  0
   -1.4977   -3.0518   -0.2659 C   0  0  0  0  0  0  0  0  0  0  0  0
    1.2879   -1.3942   -1.3516 C   0  0  0  0  0  0  0  0  0  0  0  0
    1.6685   -0.7325   -2.5297 C   0  0  0  0  0  0  0  0  0  0  0  0
    3.2821   -0.8433   -3.2236 Cl  0  0  0  0  0  0  0  0  0  0  0  0
    2.3811   -2.4156   -0.4262 Cl  0  0  0  0  0  0  0  0  0  0  0  0
   -0.0191    0.4246   -5.4953 C   0  0  0  0  0  0  0  0  0  0  0  0
   -1.1058   -0.8467   -5.6709 S   0  0  0  0  0  0  0  0  0  0  0  0
    2.2242    2.5325   -3.3932 C   0  0  0  0  0  0  0  0  0  0  0  0
    2.8128    3.7401   -3.7506 C   0  0  0  0  0  0  0  0  0  0  0  0
    2.4352    4.1011   -5.3538 S   0  0  0  0  0  0  0  0  0  0  0  0
    3.5033    4.6289   -2.8141 C   0  0  0  0  0  0  0  0  0  0  0  0
    4.6762    4.1400   -1.6944 S   0  0  0  0  0  0  0  0  0  0  0  0
    3.0040    5.8214   -2.3208 C   0  0  0  0  0  0  0  0  0  0  0  0
    1.6675    6.7595   -2.6936 S   0  0  0  0  0  0  0  0  0  0  0  0
    1.9026    7.7386   -1.3177 C   0  0  0  0  0  0  0  0  0  0  0  0
    2.9607    7.3356   -0.5648 N   0  0  0  0  0  0  0  0  0  0  0  0
    3.5646    6.2707   -1.1475 C   0  0  0  0  0  0  0  0  0  0  0  0
    4.5729    5.4669   -0.6380 C   0  0  0  0  0  0  0  0  0  0  0  0
    5.1307    5.4965    0.7170 C   0  0  0  0  0  0  0  0  0  0  0  0
    4.2231    5.6945    2.1340 S   0  0  0  0  0  0  0  0  0  0  0  0
    6.3248    4.9348    1.1331 C   0  0  0  0  0  0  0  0  0  0  0  0
    7.6595    4.3101    0.3315 S   0  0  0  0  0  0  0  0  0  0  0  0
    8.3643    3.7952    1.7943 C   0  0  0  0  0  0  0  0  0  0  0  0
    7.5867    4.0758    2.8722 N   0  0  0  0  0  0  0  0  0  0  0  0
    6.4596    4.7208    2.4863 C   0  0  0  0  0  0  0  0  0  0  0  0
    5.3530    5.0857    3.2499 C   0  0  0  0  0  0  0  0  0  0  0  0
    5.0166    4.6446    4.6161 C   0  0  0  0  0  0  0  0  0  0  0  0
    5.6934    3.6604    5.3380 C   0  0  0  0  0  0  0  0  0  0  0  0
    4.9423    3.1324    6.4019 C   0  0  0  0  0  0  0  0  0  0  0  0
    5.2952    2.0115    7.1818 C   0  0  0  0  0  0  0  0  0  0  0  0
    6.6258    1.3844    7.0636 C   0  0  0  0  0  0  0  0  0  0  0  0
    6.9194   -0.1834    6.5264 S   0  0  0  0  0  0  0  0  0  0  0  0
    8.5988   -0.0843    6.5777 C   0  0  0  0  0  0  0  0  0  0  0  0
    9.5296   -1.2132    6.2608 C   0  0  0  0  0  0  0  0  0  0  0  0
    9.9098   -1.9694    7.5302 C   0  0  0  0  0  0  0  0  0  0  0  0
    8.9555    1.1833    7.0344 C   0  0  0  0  0  0  0  0  0  0  0  0
   10.6203    1.7026    7.2533 Cl  0  0  0  0  0  0  0  0  0  0  0  0
    7.8510    2.0076    7.2984 C   0  0  0  0  0  0  0  0  0  0  0  0
    8.0013    3.6505    7.9103 Cl  0  0  0  0  0  0  0  0  0  0  0  0
    4.2828    1.4587    7.9857 C   0  0  0  0  0  0  0  0  0  0  0  0
    3.0054    2.0222    8.0768 C   0  0  0  0  0  0  0  0  0  0  0  0
    2.6976    3.2189    7.3992 C   0  0  0  0  0  0  0  0  0  0  0  0
    1.3866    3.8781    7.5596 C   0  0  0  0  0  0  0  0  0  0  0  0
    0.2706    4.1561    6.3294 S   0  0  0  0  0  0  0  0  0  0  0  0
   -0.8983    4.8786    7.3027 C   0  0  0  0  0  0  0  0  0  0  0  0
   -2.1866    5.4562    6.8015 C   0  0  0  0  0  0  0  0  0  0  0  0
   -2.0332    6.9386    6.4865 C   0  0  0  0  0  0  0  0  0  0  0  0
   -0.4202    4.9256    8.6109 C   0  0  0  0  0  0  0  0  0  0  0  0
    0.8543    4.3580    8.7575 C   0  0  0  0  0  0  0  0  0  0  0  0
    1.7181    4.3135   10.2902 Cl  0  0  0  0  0  0  0  0  0  0  0  0
   -1.3122    5.6428    9.9454 Cl  0  0  0  0  0  0  0  0  0  0  0  0
    3.6807    3.7209    6.5294 C   0  0  0  0  0  0  0  0  0  0  0  0
    3.5078    4.8937    5.3377 S   0  0  0  0  0  0  0  0  0  0  0  0
    2.0871    1.2026    8.7493 C   0  0  0  0  0  0  0  0  0  0  0  0
    2.6458    0.0067    9.1928 C   0  0  0  0  0  0  0  0  0  0  0  0
    4.2822   -0.0279    8.7758 S   0  0  0  0  0  0  0  0  0  0  0  0
    1.8674   -1.1876    9.5436 C   0  0  0  0  0  0  0  0  0  0  0  0
    2.3509   -2.3156   10.2069 C   0  0  0  0  0  0  0  0  0  0  0  0
    1.4555   -3.4008   10.1572 C   0  0  0  0  0  0  0  0  0  0  0  0
    1.6620   -4.6818   10.7039 C   0  0  0  0  0  0  0  0  0  0  0  0
    2.8604   -5.0041   11.4923 C   0  0  0  0  0  0  0  0  0  0  0  0
    3.1524   -4.4433   13.0502 S   0  0  0  0  0  0  0  0  0  0  0  0
    4.5894   -5.2883   13.2754 C   0  0  0  0  0  0  0  0  0  0  0  0
    5.3535   -5.3324   14.5604 C   0  0  0  0  0  0  0  0  0  0  0  0
    4.8999   -6.5148   15.4104 C   0  0  0  0  0  0  0  0  0  0  0  0
    4.8489   -6.0425   12.1298 C   0  0  0  0  0  0  0  0  0  0  0  0
    6.2291   -7.1222   11.9664 Cl  0  0  0  0  0  0  0  0  0  0  0  0
    3.8826   -5.8782   11.1279 C   0  0  0  0  0  0  0  0  0  0  0  0
    3.9574   -6.6879    9.5666 Cl  0  0  0  0  0  0  0  0  0  0  0  0
    0.6719   -5.6472   10.4595 C   0  0  0  0  0  0  0  0  0  0  0  0
   -0.4655   -5.3852    9.6893 C   0  0  0  0  0  0  0  0  0  0  0  0
   -0.6765   -4.1023    9.1430 C   0  0  0  0  0  0  0  0  0  0  0  0
   -1.7870   -3.8188    8.2119 C   0  0  0  0  0  0  0  0  0  0  0  0
   -1.5822   -3.3924    6.5975 S   0  0  0  0  0  0  0  0  0  0  0  0
   -3.2196   -3.2995    6.2164 C   0  0  0  0  0  0  0  0  0  0  0  0
   -3.7668   -2.8966    4.8757 C   0  0  0  0  0  0  0  0  0  0  0  0
   -3.1676   -3.7440    3.7536 C   0  0  0  0  0  0  0  0  0  0  0  0
   -3.9539   -3.5810    7.3724 C   0  0  0  0  0  0  0  0  0  0  0  0
   -3.1510   -3.8751    8.4868 C   0  0  0  0  0  0  0  0  0  0  0  0
   -3.8051   -4.2216   10.0836 Cl  0  0  0  0  0  0  0  0  0  0  0  0
   -5.7122   -3.5461    7.4425 Cl  0  0  0  0  0  0  0  0  0  0  0  0
    0.2984   -3.1282    9.4182 C   0  0  0  0  0  0  0  0  0  0  0  0
    0.3550   -1.5380    8.8794 S   0  0  0  0  0  0  0  0  0  0  0  0
   -1.2849   -6.5148    9.5204 C   0  0  0  0  0  0  0  0  0  0  0  0
   -0.8072   -7.6422   10.1818 C   0  0  0  0  0  0  0  0  0  0  0  0
    0.6390   -7.2537   10.9582 S   0  0  0  0  0  0  0  0  0  0  0  0
   -8.8890   -4.6605  -11.6491 H   0  0  0  0  0  0  0  0  0  0  0  0
   -6.5515   -4.0432  -12.6196 H   0  0  0  0  0  0  0  0  0  0  0  0
   -1.6921   -5.4124  -14.9328 H   0  0  0  0  0  0  0  0  0  0  0  0
   -1.5766   -3.9286  -15.9325 H   0  0  0  0  0  0  0  0  0  0  0  0
   -2.8939   -5.6364  -17.1290 H   0  0  0  0  0  0  0  0  0  0  0  0
   -3.9766   -4.2696  -16.6767 H   0  0  0  0  0  0  0  0  0  0  0  0
   -4.0156   -5.8156  -15.7292 H   0  0  0  0  0  0  0  0  0  0  0  0
   -8.3893   -1.1256   -2.9767 H   0  0  0  0  0  0  0  0  0  0  0  0
   -9.0699   -0.1451   -4.3181 H   0  0  0  0  0  0  0  0  0  0  0  0
  -10.8387   -1.4833   -3.1889 H   0  0  0  0  0  0  0  0  0  0  0  0
   -9.9481   -3.0102   -3.5583 H   0  0  0  0  0  0  0  0  0  0  0  0
  -10.6390   -2.0096   -4.9038 H   0  0  0  0  0  0  0  0  0  0  0  0
   -4.0497   -1.4389   -6.4777 H   0  0  0  0  0  0  0  0  0  0  0  0
   -0.9154    1.0691   -8.6758 H   0  0  0  0  0  0  0  0  0  0  0  0
    1.1279    4.9421  -12.2323 H   0  0  0  0  0  0  0  0  0  0  0  0
    1.9337    3.3357  -12.2265 H   0  0  0  0  0  0  0  0  0  0  0  0
    3.1429    5.9563  -11.1184 H   0  0  0  0  0  0  0  0  0  0  0  0
    3.5842    5.1392  -12.6657 H   0  0  0  0  0  0  0  0  0  0  0  0
    3.9409    4.3316  -11.0923 H   0  0  0  0  0  0  0  0  0  0  0  0
   -0.0705   -2.0098    0.9835 H   0  0  0  0  0  0  0  0  0  0  0  0
   -1.5178   -1.0470    0.5510 H   0  0  0  0  0  0  0  0  0  0  0  0
   -0.7673   -3.7989   -0.6414 H   0  0  0  0  0  0  0  0  0  0  0  0
   -2.2368   -2.8279   -1.0655 H   0  0  0  0  0  0  0  0  0  0  0  0
   -2.0362   -3.4808    0.6036 H   0  0  0  0  0  0  0  0  0  0  0  0
    2.2875    2.1185   -2.3946 H   0  0  0  0  0  0  0  0  0  0  0  0
    1.2579    8.5597   -1.0319 H   0  0  0  0  0  0  0  0  0  0  0  0
    9.3121    3.2795    1.8680 H   0  0  0  0  0  0  0  0  0  0  0  0
    6.6419    3.2448    5.0338 H   0  0  0  0  0  0  0  0  0  0  0  0
    9.0391   -1.9120    5.5495 H   0  0  0  0  0  0  0  0  0  0  0  0
   10.4476   -0.8190    5.7762 H   0  0  0  0  0  0  0  0  0  0  0  0
   10.5860   -2.8099    7.2688 H   0  0  0  0  0  0  0  0  0  0  0  0
    9.0012   -2.3805    8.0193 H   0  0  0  0  0  0  0  0  0  0  0  0
   10.4370   -1.2969    8.2388 H   0  0  0  0  0  0  0  0  0  0  0  0
   -2.9861    5.3181    7.5606 H   0  0  0  0  0  0  0  0  0  0  0  0
   -2.4969    4.9200    5.8783 H   0  0  0  0  0  0  0  0  0  0  0  0
   -2.9830    7.3317    6.0654 H   0  0  0  0  0  0  0  0  0  0  0  0
   -1.2189    7.0969    5.7451 H   0  0  0  0  0  0  0  0  0  0  0  0
   -1.7962    7.5059    7.4135 H   0  0  0  0  0  0  0  0  0  0  0  0
    1.0283    1.4190    8.8147 H   0  0  0  0  0  0  0  0  0  0  0  0
    3.3316   -2.3613   10.6612 H   0  0  0  0  0  0  0  0  0  0  0  0
    5.1821   -4.3912   15.1237 H   0  0  0  0  0  0  0  0  0  0  0  0
    6.4417   -5.4194   14.3542 H   0  0  0  0  0  0  0  0  0  0  0  0
    3.8126   -6.4410   15.6228 H   0  0  0  0  0  0  0  0  0  0  0  0
    5.1052   -7.4708   14.8838 H   0  0  0  0  0  0  0  0  0  0  0  0
    5.4497   -6.5155   16.3744 H   0  0  0  0  0  0  0  0  0  0  0  0
   -3.5293   -1.8260    4.6962 H   0  0  0  0  0  0  0  0  0  0  0  0
   -4.8714   -3.0137    4.8513 H   0  0  0  0  0  0  0  0  0  0  0  0
   -2.0811   -3.5400    3.6488 H   0  0  0  0  0  0  0  0  0  0  0  0
   -3.6630   -3.4941    2.7914 H   0  0  0  0  0  0  0  0  0  0  0  0
   -3.3208   -4.8228    3.9603 H   0  0  0  0  0  0  0  0  0  0  0  0
   -2.1958   -6.5245    8.9357 H   0  0  0  0  0  0  0  0  0  0  0  0
   -1.2831   -8.6140   10.1890 H   0  0  0  0  0  0  0  0  0  0  0  0
  1  2  2  0
  2  3  1  0
  3  4  2  0
  4  5  1  0
  5  6  1  0
  6  7  1  0
  7  8  1  0
  8  9  1  0
  7 10  2  0
 10 11  1  0
 10 12  1  0
 12 13  1  0
  4 14  1  0
 14 15  2  0
 15 16  1  0
 16 17  1  0
 17 18  1  0
 18 19  1  0
 19 20  1  0
 20 21  1  0
 19 22  2  0
 22 23  1  0
 23 24  1  0
 22 25  1  0
 16 26  2  0
 26 27  1  0
 15 28  1  0
 28 29  2  0
 29 30  1  0
 29 31  1  0
 31 32  2  0
 32 33  1  0
 33 34  2  0
 34 35  1  0
 35 36  1  0
 36 37  1  0
 37 38  1  0
 38 39  1  0
 37 40  2  0
 40 41  1  0
 40 42  1  0
 42 43  1  0
 34 44  1  0
 44 45  2  0
 45 46  1  0
 46 47  1  0
 47 48  1  0
 48 49  1  0
 49 50  1  0
 50 51  1  0
 49 52  2  0
 52 53  1  0
 53 54  1  0
 52 55  1  0
 46 56  2  0
 56 57  1  0
 45 58  1  0
 58 59  2  0
 59 60  1  0
 59 61  1  0
 61 62  1  0
 61 63  2  0
 63 64  1  0
 64 65  1  0
 65 66  2  0
 66 67  1  0
 67 68  2  0
 68 69  1  0
 69 70  1  0
 69 71  2  0
 71 72  1  0
 72 73  1  0
 73 74  2  0
 74 75  1  0
 75 76  2  0
 76 77  1  0
 77 78  2  0
 78 79  1  0
 79 80  2  0
 80 81  1  0
 81 82  1  0
 82 83  1  0
 83 84  1  0
 84 85  1  0
 83 86  2  0
 86 87  1  0
 86 88  1  0
 88 89  1  0
 80 90  1  0
 90 91  2  0
 91 92  1  0
 92 93  1  0
 93 94  1  0
 94 95  1  0
 95 96  1  0
 96 97  1  0
 95 98  2  0
 98 99  1  0
 99100  1  0
 98101  1  0
 92102  2  0
102103  1  0
 91104  1  0
104105  2  0
105106  1  0
105107  1  0
107108  2  0
108109  1  0
109110  2  0
110111  1  0
111112  1  0
112113  1  0
113114  1  0
114115  1  0
113116  2  0
116117  1  0
116118  1  0
118119  1  0
110120  1  0
120121  2  0
121122  1  0
122123  1  0
123124  1  0
124125  1  0
125126  1  0
126127  1  0
125128  2  0
128129  1  0
129130  1  0
128131  1  0
122132  2  0
132133  1  0
121134  1  0
134135  2  0
135136  1  0
 27  1  1  0
 57 31  1  0
 68 62  1  0
 76 70  1  0
103 77  1  0
133107  1  0
 26  3  1  0
 56 33  1  0
 67 63  1  0
 75 71  1  0
102 79  1  0
132109  1  0
 12  5  2  0
 30 14  1  0
 42 35  2  0
 60 44  1  0
 88 81  2  0
106 90  1  0
118111  2  0
136120  1  0
 23 17  2  0
 53 47  2  0
 99 93  2  0
129123  2  0
  1137  1  0
  2138  1  0
  8139  1  0
  8140  1  0
  9141  1  0
  9142  1  0
  9143  1  0
 20144  1  0
 20145  1  0
 21146  1  0
 21147  1  0
 21148  1  0
 28149  1  0
 32150  1  0
 38151  1  0
 38152  1  0
 39153  1  0
 39154  1  0
 39155  1  0
 50156  1  0
 50157  1  0
 51158  1  0
 51159  1  0
 51160  1  0
 58161  1  0
 65162  1  0
 73163  1  0
 78164  1  0
 84165  1  0
 84166  1  0
 85167  1  0
 85168  1  0
 85169  1  0
 96170  1  0
 96171  1  0
 97172  1  0
 97173  1  0
 97174  1  0
104175  1  0
108176  1  0
114177  1  0
114178  1  0
115179  1  0
115180  1  0
115181  1  0
126182  1  0
126183  1  0
127184  1  0
127185  1  0
127186  1  0
134187  1  0
135188  1  0
M  END

