
     RDKit          3D

278308  0  0  0  0  0  0  0  0999 V2000
   12.9020    2.9579   -5.0266 C   0  0  0  0  0  0  0  0  0  0  0  0
   12.6784    4.0386   -4.1783 C   0  0  0  0  0  0  0  0  0  0  0  0
   11.3878    4.0500   -3.6229 C   0  0  0  0  0  0  0  0  0  0  0  0
   10.8570    5.0271   -2.7551 C   0  0  0  0  0  0  0  0  0  0  0  0
   11.6535    6.1787   -2.2894 C   0  0  0  0  0  0  0  0  0  0  0  0
   11.2836    7.7900   -2.6020 S   0  0  0  0  0  0  0  0  0  0  0  0
   12.6056    8.4409   -1.7895 C   0  0  0  0  0  0  0  0  0  0  0  0
   12.8646    9.9073   -1.6232 C   0  0  0  0  0  0  0  0  0  0  0  0
   12.2959   10.4102   -0.3013 C   0  0  0  0  0  0  0  0  0  0  0  0
   13.3475    7.3975   -1.2377 C   0  0  0  0  0  0  0  0  0  0  0  0
   14.7966    7.6416   -0.2712 Cl  0  0  0  0  0  0  0  0  0  0  0  0
   12.8167    6.1282   -1.5203 C   0  0  0  0  0  0  0  0  0  0  0  0
   13.5130    4.6353   -0.9042 Cl  0  0  0  0  0  0  0  0  0  0  0  0
    9.5165    4.8639   -2.3609 C   0  0  0  0  0  0  0  0  0  0  0  0
    8.7354    3.7816   -2.7787 C   0  0  0  0  0  0  0  0  0  0  0  0
    9.2599    2.8156   -3.6606 C   0  0  0  0  0  0  0  0  0  0  0  0
    8.4376    1.7038   -4.1754 C   0  0  0  0  0  0  0  0  0  0  0  0
    8.7512    0.0715   -3.9173 S   0  0  0  0  0  0  0  0  0  0  0  0
    7.4006   -0.5026   -4.7404 C   0  0  0  0  0  0  0  0  0  0  0  0
    7.0896   -1.9523   -4.9640 C   0  0  0  0  0  0  0  0  0  0  0  0
    7.7039   -2.4415   -6.2697 C   0  0  0  0  0  0  0  0  0  0  0  0
    6.6931    0.5837   -5.2527 C   0  0  0  0  0  0  0  0  0  0  0  0
    7.2707    1.8210   -4.9330 C   0  0  0  0  0  0  0  0  0  0  0  0
    6.6194    3.3585   -5.4879 Cl  0  0  0  0  0  0  0  0  0  0  0  0
    5.2226    0.4223   -6.2057 Cl  0  0  0  0  0  0  0  0  0  0  0  0
   10.5994    2.9762   -4.0520 C   0  0  0  0  0  0  0  0  0  0  0  0
   11.5013    2.0224   -5.1069 S   0  0  0  0  0  0  0  0  0  0  0  0
    7.4478    3.7820   -2.2228 C   0  0  0  0  0  0  0  0  0  0  0  0
    7.2111    4.8789   -1.3985 C   0  0  0  0  0  0  0  0  0  0  0  0
    8.6003    5.8376   -1.3361 S   0  0  0  0  0  0  0  0  0  0  0  0
    5.9385    5.1765   -0.7245 C   0  0  0  0  0  0  0  0  0  0  0  0
    4.8905    4.2753   -0.5405 C   0  0  0  0  0  0  0  0  0  0  0  0
    3.7761    4.8528    0.0858 C   0  0  0  0  0  0  0  0  0  0  0  0
    2.5886    4.1831    0.4448 C   0  0  0  0  0  0  0  0  0  0  0  0
    2.5150    2.7012    0.5210 C   0  0  0  0  0  0  0  0  0  0  0  0
    1.2063    1.7483    0.0374 S   0  0  0  0  0  0  0  0  0  0  0  0
    1.7112    0.3221    0.7758 C   0  0  0  0  0  0  0  0  0  0  0  0
    0.8891   -0.9273    0.8972 C   0  0  0  0  0  0  0  0  0  0  0  0
    0.0447   -0.9054    2.1668 C   0  0  0  0  0  0  0  0  0  0  0  0
    2.9113    0.5752    1.4355 C   0  0  0  0  0  0  0  0  0  0  0  0
    3.7324   -0.6210    2.4330 Cl  0  0  0  0  0  0  0  0  0  0  0  0
    3.3598    1.8979    1.2990 C   0  0  0  0  0  0  0  0  0  0  0  0
    4.7401    2.5136    2.2030 Cl  0  0  0  0  0  0  0  0  0  0  0  0
    1.5548    4.9854    0.9620 C   0  0  0  0  0  0  0  0  0  0  0  0
    1.7228    6.3424    1.2711 C   0  0  0  0  0  0  0  0  0  0  0  0
    2.9410    6.9882    0.9796 C   0  0  0  0  0  0  0  0  0  0  0  0
    3.1812    8.3919    1.3466 C   0  0  0  0  0  0  0  0  0  0  0  0
    3.3348    8.9457    2.9240 S   0  0  0  0  0  0  0  0  0  0  0  0
    3.6623   10.5466    2.5242 C   0  0  0  0  0  0  0  0  0  0  0  0
    4.0187   11.6104    3.5163 C   0  0  0  0  0  0  0  0  0  0  0  0
    5.5258   11.6485    3.7440 C   0  0  0  0  0  0  0  0  0  0  0  0
    3.6762   10.6636    1.1343 C   0  0  0  0  0  0  0  0  0  0  0  0
    3.4036    9.4544    0.4734 C   0  0  0  0  0  0  0  0  0  0  0  0
    3.3226    9.3043   -1.2772 Cl  0  0  0  0  0  0  0  0  0  0  0  0
    4.0224   12.1674    0.2886 Cl  0  0  0  0  0  0  0  0  0  0  0  0
    3.9391    6.2150    0.3599 C   0  0  0  0  0  0  0  0  0  0  0  0
    5.4849    6.6862   -0.1168 S   0  0  0  0  0  0  0  0  0  0  0  0
    0.5958    6.9159    1.8978 C   0  0  0  0  0  0  0  0  0  0  0  0
   -0.4531    6.0111    2.0294 C   0  0  0  0  0  0  0  0  0  0  0  0
    0.0128    4.5169    1.4149 S   0  0  0  0  0  0  0  0  0  0  0  0
   -1.7045    6.1837    2.7632 C   0  0  0  0  0  0  0  0  0  0  0  0
   -1.7620    6.0040    4.1471 C   0  0  0  0  0  0  0  0  0  0  0  0
   -2.9381    5.3655    4.5832 C   0  0  0  0  0  0  0  0  0  0  0  0
   -3.1331    4.7977    5.8607 C   0  0  0  0  0  0  0  0  0  0  0  0
   -2.3128    5.2167    7.0212 C   0  0  0  0  0  0  0  0  0  0  0  0
   -1.4906    4.1975    8.0828 S   0  0  0  0  0  0  0  0  0  0  0  0
   -0.8779    5.4038    9.0790 C   0  0  0  0  0  0  0  0  0  0  0  0
   -0.0973    5.1548   10.3350 C   0  0  0  0  0  0  0  0  0  0  0  0
   -1.0316    5.0317   11.5332 C   0  0  0  0  0  0  0  0  0  0  0  0
   -1.3347    6.6315    8.6149 C   0  0  0  0  0  0  0  0  0  0  0  0
   -0.9937    8.1571    9.4216 Cl  0  0  0  0  0  0  0  0  0  0  0  0
   -2.1290    6.5303    7.4596 C   0  0  0  0  0  0  0  0  0  0  0  0
   -2.8924    7.9275    6.7078 Cl  0  0  0  0  0  0  0  0  0  0  0  0
   -4.0940    3.7659    5.9428 C   0  0  0  0  0  0  0  0  0  0  0  0
   -4.9146    3.4150    4.8627 C   0  0  0  0  0  0  0  0  0  0  0  0
   -4.8609    4.1449    3.6569 C   0  0  0  0  0  0  0  0  0  0  0  0
   -5.7264    3.8668    2.4890 C   0  0  0  0  0  0  0  0  0  0  0  0
   -5.7745    2.4207    1.6188 S   0  0  0  0  0  0  0  0  0  0  0  0
   -6.7287    2.9955    0.3531 C   0  0  0  0  0  0  0  0  0  0  0  0
   -7.1507    2.1909   -0.8382 C   0  0  0  0  0  0  0  0  0  0  0  0
   -8.6612    1.9876   -0.8651 C   0  0  0  0  0  0  0  0  0  0  0  0
   -6.9979    4.3437    0.5785 C   0  0  0  0  0  0  0  0  0  0  0  0
   -6.4411    4.8283    1.7723 C   0  0  0  0  0  0  0  0  0  0  0  0
   -6.6154    6.5002    2.2976 Cl  0  0  0  0  0  0  0  0  0  0  0  0
   -7.8656    5.3694   -0.5554 Cl  0  0  0  0  0  0  0  0  0  0  0  0
   -3.8155    5.0725    3.5379 C   0  0  0  0  0  0  0  0  0  0  0  0
   -3.1381    5.6040    2.1003 S   0  0  0  0  0  0  0  0  0  0  0  0
   -5.5765    2.1945    5.0458 C   0  0  0  0  0  0  0  0  0  0  0  0
   -5.2056    1.5211    6.2122 C   0  0  0  0  0  0  0  0  0  0  0  0
   -4.1937    2.5445    7.0972 S   0  0  0  0  0  0  0  0  0  0  0  0
   -5.1007    0.0472    6.2209 C   0  0  0  0  0  0  0  0  0  0  0  0
   -3.8701   -0.6425    6.2944 C   0  0  0  0  0  0  0  0  0  0  0  0
   -2.6755   -0.1630    6.9330 N   0  0  0  0  0  0  0  0  0  0  0  0
   -2.3632   -0.7725    8.1987 C   0  0  0  0  0  0  0  0  0  0  0  0
   -3.2246   -0.6001    9.2932 C   0  0  0  0  0  0  0  0  0  0  0  0
   -2.9249   -1.1891   10.5254 C   0  0  0  0  0  0  0  0  0  0  0  0
   -1.7596   -1.9586   10.6784 C   0  0  0  0  0  0  0  0  0  0  0  0
   -1.4476   -2.6114   11.9905 C   0  0  0  0  0  0  0  0  0  0  0  0
   -0.9195   -2.1655    9.5727 C   0  0  0  0  0  0  0  0  0  0  0  0
   -1.2216   -1.5794    8.3411 C   0  0  0  0  0  0  0  0  0  0  0  0
   -1.6934    0.6520    6.2373 C   0  0  0  0  0  0  0  0  0  0  0  0
   -0.5759    1.1698    6.9288 C   0  0  0  0  0  0  0  0  0  0  0  0
    0.3855    1.9349    6.2710 C   0  0  0  0  0  0  0  0  0  0  0  0
    0.2476    2.2210    4.9095 C   0  0  0  0  0  0  0  0  0  0  0  0
    1.2842    3.0474    4.2135 C   0  0  0  0  0  0  0  0  0  0  0  0
   -0.8891    1.7705    4.2213 C   0  0  0  0  0  0  0  0  0  0  0  0
   -1.8458    0.9834    4.8739 C   0  0  0  0  0  0  0  0  0  0  0  0
   -3.8964   -1.8434    5.5957 C   0  0  0  0  0  0  0  0  0  0  0  0
   -2.6583   -2.6556    4.8154 S   0  0  0  0  0  0  0  0  0  0  0  0
   -3.6700   -3.4787    3.7268 C   0  0  0  0  0  0  0  0  0  0  0  0
   -5.0019   -3.1182    3.9989 C   0  0  0  0  0  0  0  0  0  0  0  0
   -6.1234   -3.6312    3.2500 N   0  0  0  0  0  0  0  0  0  0  0  0
   -6.2154   -5.0440    2.9508 C   0  0  0  0  0  0  0  0  0  0  0  0
   -5.7223   -6.0032    3.8577 C   0  0  0  0  0  0  0  0  0  0  0  0
   -5.8382   -7.3677    3.5815 C   0  0  0  0  0  0  0  0  0  0  0  0
   -6.4472   -7.8000    2.3955 C   0  0  0  0  0  0  0  0  0  0  0  0
   -6.6138   -9.2686    2.1363 C   0  0  0  0  0  0  0  0  0  0  0  0
   -6.9439   -6.8513    1.4884 C   0  0  0  0  0  0  0  0  0  0  0  0
   -6.8259   -5.4855    1.7627 C   0  0  0  0  0  0  0  0  0  0  0  0
   -7.1949   -2.7648    2.8544 C   0  0  0  0  0  0  0  0  0  0  0  0
   -8.4594   -2.9069    3.4401 C   0  0  0  0  0  0  0  0  0  0  0  0
   -9.5388   -2.1469    2.9826 C   0  0  0  0  0  0  0  0  0  0  0  0
   -9.3702   -1.2614    1.9064 C   0  0  0  0  0  0  0  0  0  0  0  0
  -10.5302   -0.4543    1.4072 C   0  0  0  0  0  0  0  0  0  0  0  0
   -8.0966   -1.1052    1.3356 C   0  0  0  0  0  0  0  0  0  0  0  0
   -7.0127   -1.8483    1.8093 C   0  0  0  0  0  0  0  0  0  0  0  0
   -5.0838   -2.1675    5.0226 C   0  0  0  0  0  0  0  0  0  0  0  0
   -6.1784   -0.9312    5.3258 S   0  0  0  0  0  0  0  0  0  0  0  0
   -3.2309   -3.6815    2.3484 C   0  0  0  0  0  0  0  0  0  0  0  0
   -2.8968   -4.8786    1.7269 C   0  0  0  0  0  0  0  0  0  0  0  0
   -2.5843   -4.7019    0.3639 C   0  0  0  0  0  0  0  0  0  0  0  0
   -2.1685   -5.7010   -0.5364 C   0  0  0  0  0  0  0  0  0  0  0  0
   -1.9641   -7.0947   -0.1109 C   0  0  0  0  0  0  0  0  0  0  0  0
   -3.1893   -8.1540    0.3386 S   0  0  0  0  0  0  0  0  0  0  0  0
   -2.1860   -9.4817    0.5950 C   0  0  0  0  0  0  0  0  0  0  0  0
   -2.6691  -10.8615    0.9170 C   0  0  0  0  0  0  0  0  0  0  0  0
   -3.0188  -11.6118   -0.3624 C   0  0  0  0  0  0  0  0  0  0  0  0
   -0.8714   -9.1136    0.3079 C   0  0  0  0  0  0  0  0  0  0  0  0
    0.4913  -10.2220    0.3998 Cl  0  0  0  0  0  0  0  0  0  0  0  0
   -0.7471   -7.7722   -0.0801 C   0  0  0  0  0  0  0  0  0  0  0  0
    0.7957   -7.0180   -0.4657 Cl  0  0  0  0  0  0  0  0  0  0  0  0
   -1.9224   -5.3020   -1.8628 C   0  0  0  0  0  0  0  0  0  0  0  0
   -2.0522   -3.9762   -2.2869 C   0  0  0  0  0  0  0  0  0  0  0  0
   -2.3938   -2.9589   -1.3741 C   0  0  0  0  0  0  0  0  0  0  0  0
   -2.4214   -1.5259   -1.7561 C   0  0  0  0  0  0  0  0  0  0  0  0
   -3.7194   -0.4830   -1.4933 S   0  0  0  0  0  0  0  0  0  0  0  0
   -2.9834    0.8977   -2.1077 C   0  0  0  0  0  0  0  0  0  0  0  0
   -3.6518    2.2318   -2.2437 C   0  0  0  0  0  0  0  0  0  0  0  0
   -4.5203    2.2631   -3.4947 C   0  0  0  0  0  0  0  0  0  0  0  0
   -1.7063    0.5587   -2.5511 C   0  0  0  0  0  0  0  0  0  0  0  0
   -1.3843   -0.7929   -2.3455 C   0  0  0  0  0  0  0  0  0  0  0  0
    0.2031   -1.4528   -2.7365 Cl  0  0  0  0  0  0  0  0  0  0  0  0
   -0.5989    1.7095   -3.2886 Cl  0  0  0  0  0  0  0  0  0  0  0  0
   -2.6822   -3.3689   -0.0613 C   0  0  0  0  0  0  0  0  0  0  0  0
   -3.1379   -2.4180    1.2398 S   0  0  0  0  0  0  0  0  0  0  0  0
   -1.8072   -3.8093   -3.6570 C   0  0  0  0  0  0  0  0  0  0  0  0
   -1.4324   -4.9892   -4.2924 C   0  0  0  0  0  0  0  0  0  0  0  0
   -1.4543   -6.2539   -3.1726 S   0  0  0  0  0  0  0  0  0  0  0  0
   -0.9652   -5.0883   -5.6821 C   0  0  0  0  0  0  0  0  0  0  0  0
   -0.8857   -4.0268   -6.5818 C   0  0  0  0  0  0  0  0  0  0  0  0
   -0.2577   -4.3733   -7.7874 C   0  0  0  0  0  0  0  0  0  0  0  0
    0.0045   -3.5075   -8.8673 C   0  0  0  0  0  0  0  0  0  0  0  0
   -0.3097   -2.0666   -8.8017 C   0  0  0  0  0  0  0  0  0  0  0  0
   -1.3892   -1.2690   -9.8175 S   0  0  0  0  0  0  0  0  0  0  0  0
   -1.2390    0.2416   -9.0896 C   0  0  0  0  0  0  0  0  0  0  0  0
   -1.9171    1.4912   -9.5659 C   0  0  0  0  0  0  0  0  0  0  0  0
   -1.0807    2.1856  -10.6340 C   0  0  0  0  0  0  0  0  0  0  0  0
   -0.3139    0.1473   -8.0506 C   0  0  0  0  0  0  0  0  0  0  0  0
    0.1635    1.5098   -7.0460 Cl  0  0  0  0  0  0  0  0  0  0  0  0
    0.2022   -1.1469   -7.8852 C   0  0  0  0  0  0  0  0  0  0  0  0
    1.4149   -1.5472   -6.6737 Cl  0  0  0  0  0  0  0  0  0  0  0  0
    0.6195   -4.0747   -9.9967 C   0  0  0  0  0  0  0  0  0  0  0  0
    0.9995   -5.4201  -10.0543 C   0  0  0  0  0  0  0  0  0  0  0  0
    0.7587   -6.2794   -8.9623 C   0  0  0  0  0  0  0  0  0  0  0  0
    1.2037   -7.6856   -8.9532 C   0  0  0  0  0  0  0  0  0  0  0  0
    2.3276   -8.3222   -7.8752 S   0  0  0  0  0  0  0  0  0  0  0  0
    2.2713   -9.8952   -8.4629 C   0  0  0  0  0  0  0  0  0  0  0  0
    3.1154  -11.0219   -7.9484 C   0  0  0  0  0  0  0  0  0  0  0  0
    4.4236  -11.1089   -8.7239 C   0  0  0  0  0  0  0  0  0  0  0  0
    1.3803   -9.9410   -9.5339 C   0  0  0  0  0  0  0  0  0  0  0  0
    0.7708   -8.7032   -9.8018 C   0  0  0  0  0  0  0  0  0  0  0  0
   -0.4532   -8.4806  -11.0460 Cl  0  0  0  0  0  0  0  0  0  0  0  0
    1.0483  -11.3999  -10.4582 Cl  0  0  0  0  0  0  0  0  0  0  0  0
    0.1230   -5.7180   -7.8412 C   0  0  0  0  0  0  0  0  0  0  0  0
   -0.2928   -6.4660   -6.3886 S   0  0  0  0  0  0  0  0  0  0  0  0
    1.6637   -5.7537  -11.2468 C   0  0  0  0  0  0  0  0  0  0  0  0
    1.7926   -4.6779  -12.1199 C   0  0  0  0  0  0  0  0  0  0  0  0
    1.1011   -3.3095  -11.4156 S   0  0  0  0  0  0  0  0  0  0  0  0
   13.8248    2.7610   -5.5559 H   0  0  0  0  0  0  0  0  0  0  0  0
   13.4304    4.7929   -3.9886 H   0  0  0  0  0  0  0  0  0  0  0  0
   12.3955   10.4626   -2.4620 H   0  0  0  0  0  0  0  0  0  0  0  0
   13.9566   10.1036   -1.6563 H   0  0  0  0  0  0  0  0  0  0  0  0
   11.1989   10.2390   -0.2654 H   0  0  0  0  0  0  0  0  0  0  0  0
   12.7782    9.8864    0.5512 H   0  0  0  0  0  0  0  0  0  0  0  0
   12.4895   11.4992   -0.2042 H   0  0  0  0  0  0  0  0  0  0  0  0
    5.9893   -2.1002   -4.9958 H   0  0  0  0  0  0  0  0  0  0  0  0
    7.4912   -2.5499   -4.1196 H   0  0  0  0  0  0  0  0  0  0  0  0
    7.2759   -1.8870   -7.1317 H   0  0  0  0  0  0  0  0  0  0  0  0
    8.8072   -2.3000   -6.2559 H   0  0  0  0  0  0  0  0  0  0  0  0
    7.4905   -3.5232   -6.3984 H   0  0  0  0  0  0  0  0  0  0  0  0
    6.7075    3.0181   -2.4227 H   0  0  0  0  0  0  0  0  0  0  0  0
    4.9340    3.2376   -0.8448 H   0  0  0  0  0  0  0  0  0  0  0  0
    0.2150   -1.0176    0.0255 H   0  0  0  0  0  0  0  0  0  0  0  0
    1.5564   -1.8145    0.9082 H   0  0  0  0  0  0  0  0  0  0  0  0
   -0.3960   -1.9090    2.3380 H   0  0  0  0  0  0  0  0  0  0  0  0
    0.6629   -0.6422    3.0506 H   0  0  0  0  0  0  0  0  0  0  0  0
   -0.7792   -0.1713    2.0565 H   0  0  0  0  0  0  0  0  0  0  0  0
    3.5075   11.3962    4.4782 H   0  0  0  0  0  0  0  0  0  0  0  0
    3.6694   12.6009    3.1567 H   0  0  0  0  0  0  0  0  0  0  0  0
    5.8922   10.6540    4.0744 H   0  0  0  0  0  0  0  0  0  0  0  0
    6.0492   11.9401    2.8085 H   0  0  0  0  0  0  0  0  0  0  0  0
    5.7640   12.3940    4.5312 H   0  0  0  0  0  0  0  0  0  0  0  0
    0.5451    7.9375    2.2537 H   0  0  0  0  0  0  0  0  0  0  0  0
   -0.8937    6.1291    4.7832 H   0  0  0  0  0  0  0  0  0  0  0  0
    0.6190    5.9864   10.5049 H   0  0  0  0  0  0  0  0  0  0  0  0
    0.4890    4.2177   10.2262 H   0  0  0  0  0  0  0  0  0  0  0  0
   -0.4379    4.8385   12.4507 H   0  0  0  0  0  0  0  0  0  0  0  0
   -1.6052    5.9724   11.6730 H   0  0  0  0  0  0  0  0  0  0  0  0
   -1.7427    4.1896   11.3821 H   0  0  0  0  0  0  0  0  0  0  0  0
   -6.8346    2.7132   -1.7635 H   0  0  0  0  0  0  0  0  0  0  0  0
   -6.6454    1.2030   -0.8138 H   0  0  0  0  0  0  0  0  0  0  0  0
   -9.0318    1.6874    0.1353 H   0  0  0  0  0  0  0  0  0  0  0  0
   -8.9166    1.1924   -1.5970 H   0  0  0  0  0  0  0  0  0  0  0  0
   -9.1779    2.9205   -1.1679 H   0  0  0  0  0  0  0  0  0  0  0  0
   -6.1445    1.7144    4.2613 H   0  0  0  0  0  0  0  0  0  0  0  0
   -4.1236   -0.0038    9.1924 H   0  0  0  0  0  0  0  0  0  0  0  0
   -3.5986   -1.0446   11.3609 H   0  0  0  0  0  0  0  0  0  0  0  0
   -0.3511   -2.6293   12.1635 H   0  0  0  0  0  0  0  0  0  0  0  0
   -1.9186   -2.0556   12.8293 H   0  0  0  0  0  0  0  0  0  0  0  0
   -1.8338   -3.6522   11.9857 H   0  0  0  0  0  0  0  0  0  0  0  0
   -0.0328   -2.7814    9.6652 H   0  0  0  0  0  0  0  0  0  0  0  0
   -0.5670   -1.7478    7.4950 H   0  0  0  0  0  0  0  0  0  0  0  0
   -0.4455    0.9970    7.9877 H   0  0  0  0  0  0  0  0  0  0  0  0
    1.2337    2.3126    6.8278 H   0  0  0  0  0  0  0  0  0  0  0  0
    2.2728    2.9515    4.7095 H   0  0  0  0  0  0  0  0  0  0  0  0
    1.4006    2.7023    3.1699 H   0  0  0  0  0  0  0  0  0  0  0  0
    0.9801    4.1163    4.2241 H   0  0  0  0  0  0  0  0  0  0  0  0
   -1.0279    2.0171    3.1753 H   0  0  0  0  0  0  0  0  0  0  0  0
   -2.7014    0.6352    4.3083 H   0  0  0  0  0  0  0  0  0  0  0  0
   -5.2720   -5.6966    4.7931 H   0  0  0  0  0  0  0  0  0  0  0  0
   -5.4633   -8.0911    4.2981 H   0  0  0  0  0  0  0  0  0  0  0  0
   -5.6434   -9.7887    2.2793 H   0  0  0  0  0  0  0  0  0  0  0  0
   -6.9657   -9.4642    1.1003 H   0  0  0  0  0  0  0  0  0  0  0  0
   -7.3553   -9.6897    2.8486 H   0  0  0  0  0  0  0  0  0  0  0  0
   -7.4253   -7.1679    0.5712 H   0  0  0  0  0  0  0  0  0  0  0  0
   -7.2173   -4.7733    1.0471 H   0  0  0  0  0  0  0  0  0  0  0  0
   -8.6032   -3.6090    4.2520 H   0  0  0  0  0  0  0  0  0  0  0  0
  -10.5079   -2.2610    3.4559 H   0  0  0  0  0  0  0  0  0  0  0  0
  -11.4929   -0.9497    1.6507 H   0  0  0  0  0  0  0  0  0  0  0  0
  -10.5120    0.5511    1.8793 H   0  0  0  0  0  0  0  0  0  0  0  0
  -10.4761   -0.3424    0.3028 H   0  0  0  0  0  0  0  0  0  0  0  0
   -7.9477   -0.4313    0.5048 H   0  0  0  0  0  0  0  0  0  0  0  0
   -6.0447   -1.7445    1.3375 H   0  0  0  0  0  0  0  0  0  0  0  0
   -2.8817   -5.8314    2.2420 H   0  0  0  0  0  0  0  0  0  0  0  0
   -3.5674  -10.7938    1.5628 H   0  0  0  0  0  0  0  0  0  0  0  0
   -1.8886  -11.4199    1.4759 H   0  0  0  0  0  0  0  0  0  0  0  0
   -3.3710  -12.6332   -0.1089 H   0  0  0  0  0  0  0  0  0  0  0  0
   -2.1240  -11.6951   -1.0154 H   0  0  0  0  0  0  0  0  0  0  0  0
   -3.8257  -11.0821   -0.9118 H   0  0  0  0  0  0  0  0  0  0  0  0
   -4.2788    2.4169   -1.3473 H   0  0  0  0  0  0  0  0  0  0  0  0
   -2.8939    3.0411   -2.2929 H   0  0  0  0  0  0  0  0  0  0  0  0
   -5.0073    3.2562   -3.5831 H   0  0  0  0  0  0  0  0  0  0  0  0
   -5.3091    1.4833   -3.4358 H   0  0  0  0  0  0  0  0  0  0  0  0
   -3.9002    2.0905   -4.3998 H   0  0  0  0  0  0  0  0  0  0  0  0
   -1.8830   -2.8577   -4.1637 H   0  0  0  0  0  0  0  0  0  0  0  0
   -1.2496   -3.0314   -6.3669 H   0  0  0  0  0  0  0  0  0  0  0  0
   -2.0810    2.1841   -8.7137 H   0  0  0  0  0  0  0  0  0  0  0  0
   -2.9121    1.2321   -9.9859 H   0  0  0  0  0  0  0  0  0  0  0  0
   -0.0767    2.4440  -10.2347 H   0  0  0  0  0  0  0  0  0  0  0  0
   -0.9569    1.5243  -11.5187 H   0  0  0  0  0  0  0  0  0  0  0  0
   -1.5876    3.1212  -10.9530 H   0  0  0  0  0  0  0  0  0  0  0  0
    2.5637  -11.9799   -8.0345 H   0  0  0  0  0  0  0  0  0  0  0  0
    3.3340  -10.8512   -6.8725 H   0  0  0  0  0  0  0  0  0  0  0  0
    5.0418  -11.9341   -8.3155 H   0  0  0  0  0  0  0  0  0  0  0  0
    4.2245  -11.3111   -9.7986 H   0  0  0  0  0  0  0  0  0  0  0  0
    4.9928  -10.1586   -8.6264 H   0  0  0  0  0  0  0  0  0  0  0  0
    2.0600   -6.7361  -11.4679 H   0  0  0  0  0  0  0  0  0  0  0  0
    2.2742   -4.7139  -13.0889 H   0  0  0  0  0  0  0  0  0  0  0  0
  1  2  2  0
  2  3  1  0
  3  4  2  0
  4  5  1  0
  5  6  1  0
  6  7  1  0
  7  8  1  0
  8  9  1  0
  7 10  2  0
 10 11  1  0
 10 12  1  0
 12 13  1  0
  4 14  1  0
 14 15  2  0
 15 16  1  0
 16 17  1  0
 17 18  1  0
 18 19  1  0
 19 20  1  0
 20 21  1  0
 19 22  2  0
 22 23  1  0
 23 24  1  0
 22 25  1  0
 16 26  2  0
 26 27  1  0
 15 28  1  0
 28 29  2  0
 29 30  1  0
 29 31  1  0
 31 32  2  0
 32 33  1  0
 33 34  2  0
 34 35  1  0
 35 36  1  0
 36 37  1  0
 37 38  1  0
 38 39  1  0
 37 40  2  0
 40 41  1  0
 40 42  1  0
 42 43  1  0
 34 44  1  0
 44 45  2  0
 45 46  1  0
 46 47  1  0
 47 48  1  0
 48 49  1  0
 49 50  1  0
 50 51  1  0
 49 52  2  0
 52 53  1  0
 53 54  1  0
 52 55  1  0
 46 56  2  0
 56 57  1  0
 45 58  1  0
 58 59  2  0
 59 60  1  0
 59 61  1  0
 61 62  2  0
 62 63  1  0
 63 64  2  0
 64 65  1  0
 65 66  1  0
 66 67  1  0
 67 68  1  0
 68 69  1  0
 67 70  2  0
 70 71  1  0
 70 72  1  0
 72 73  1  0
 64 74  1  0
 74 75  2  0
 75 76  1  0
 76 77  1  0
 77 78  1  0
 78 79  1  0
 79 80  1  0
 80 81  1  0
 79 82  2  0
 82 83  1  0
 83 84  1  0
 82 85  1  0
 76 86  2  0
 86 87  1  0
 75 88  1  0
 88 89  2  0
 89 90  1  0
 89 91  1  0
 91 92  2  0
 92 93  1  0
 93 94  1  0
 94 95  2  0
 95 96  1  0
 96 97  2  0
 97 98  1  0
 97 99  1  0
 99100  2  0
 93101  1  0
101102  2  0
102103  1  0
103104  2  0
104105  1  0
104106  1  0
106107  2  0
 92108  1  0
108109  1  0
109110  1  0
110111  2  0
111112  1  0
112113  1  0
113114  2  0
114115  1  0
115116  2  0
116117  1  0
116118  1  0
118119  2  0
112120  1  0
120121  2  0
121122  1  0
122123  2  0
123124  1  0
123125  1  0
125126  2  0
111127  1  0
127128  1  0
110129  1  0
129130  2  0
130131  1  0
131132  2  0
132133  1  0
133134  1  0
134135  1  0
135136  1  0
136137  1  0
135138  2  0
138139  1  0
138140  1  0
140141  1  0
132142  1  0
142143  2  0
143144  1  0
144145  1  0
145146  1  0
146147  1  0
147148  1  0
148149  1  0
147150  2  0
150151  1  0
151152  1  0
150153  1  0
144154  2  0
154155  1  0
143156  1  0
156157  2  0
157158  1  0
157159  1  0
159160  2  0
160161  1  0
161162  2  0
162163  1  0
163164  1  0
164165  1  0
165166  1  0
166167  1  0
165168  2  0
168169  1  0
168170  1  0
170171  1  0
162172  1  0
172173  2  0
173174  1  0
174175  1  0
175176  1  0
176177  1  0
177178  1  0
178179  1  0
177180  2  0
180181  1  0
181182  1  0
180183  1  0
174184  2  0
184185  1  0
173186  1  0
186187  2  0
187188  1  0
 27  1  1  0
 57 31  1  0
 87 61  1  0
128 91  1  0
155129  1  0
185159  1  0
 26  3  1  0
 56 33  1  0
 86 63  1  0
100 94  1  0
107101  1  0
127108  2  0
154131  1  0
184161  1  0
 12  5  2  0
 30 14  1  0
 42 35  2  0
 60 44  1  0
 72 65  2  0
 90 74  1  0
119113  1  0
126120  1  0
140133  2  0
158142  1  0
170163  2  0
188172  1  0
 23 17  2  0
 53 47  2  0
 83 77  2  0
151145  2  0
181175  2  0
  1189  1  0
  2190  1  0
  8191  1  0
  8192  1  0
  9193  1  0
  9194  1  0
  9195  1  0
 20196  1  0
 20197  1  0
 21198  1  0
 21199  1  0
 21200  1  0
 28201  1  0
 32202  1  0
 38203  1  0
 38204  1  0
 39205  1  0
 39206  1  0
 39207  1  0
 50208  1  0
 50209  1  0
 51210  1  0
 51211  1  0
 51212  1  0
 58213  1  0
 62214  1  0
 68215  1  0
 68216  1  0
 69217  1  0
 69218  1  0
 69219  1  0
 80220  1  0
 80221  1  0
 81222  1  0
 81223  1  0
 81224  1  0
 88225  1  0
 95226  1  0
 96227  1  0
 98228  1  0
 98229  1  0
 98230  1  0
 99231  1  0
100232  1  0
102233  1  0
103234  1  0
105235  1  0
105236  1  0
105237  1  0
106238  1  0
107239  1  0
114240  1  0
115241  1  0
117242  1  0
117243  1  0
117244  1  0
118245  1  0
119246  1  0
121247  1  0
122248  1  0
124249  1  0
124250  1  0
124251  1  0
125252  1  0
126253  1  0
130254  1  0
136255  1  0
136256  1  0
137257  1  0
137258  1  0
137259  1  0
148260  1  0
148261  1  0
149262  1  0
149263  1  0
149264  1  0
156265  1  0
160266  1  0
166267  1  0
166268  1  0
167269  1  0
167270  1  0
167271  1  0
178272  1  0
178273  1  0
179274  1  0
179275  1  0
179276  1  0
186277  1  0
187278  1  0
M  END

