
     RDKit          3D

226247  0  0  0  0  0  0  0  0999 V2000
    4.3822   -5.7915    8.4275 C   0  0  0  0  0  0  0  0  0  0  0  0
    3.7073   -4.6836    7.9282 C   0  0  0  0  0  0  0  0  0  0  0  0
    2.8578   -4.9909    6.8485 C   0  0  0  0  0  0  0  0  0  0  0  0
    2.0200   -4.0861    6.1588 C   0  0  0  0  0  0  0  0  0  0  0  0
    1.9145   -2.6509    6.5429 C   0  0  0  0  0  0  0  0  0  0  0  0
    2.1526   -1.6432    5.5931 C   0  0  0  0  0  0  0  0  0  0  0  0
    2.0658   -0.2973    5.9526 C   0  0  0  0  0  0  0  0  0  0  0  0
    1.7504    0.0634    7.2650 C   0  0  0  0  0  0  0  0  0  0  0  0
    1.6487    1.8014    7.7110 S   0  0  0  0  0  0  0  0  0  0  0  0
    3.3913    1.9444    8.2448 C   0  0  0  0  0  0  0  0  0  0  0  0
    4.3132    2.1448    7.0467 C   0  0  0  0  0  0  0  0  0  0  0  0
    1.4953   -0.9358    8.2181 C   0  0  0  0  0  0  0  0  0  0  0  0
    1.1696   -0.6060    9.4928 F   0  0  0  0  0  0  0  0  0  0  0  0
    1.5733   -2.2852    7.8558 C   0  0  0  0  0  0  0  0  0  0  0  0
    1.3166   -4.6082    5.0544 C   0  0  0  0  0  0  0  0  0  0  0  0
    1.4142   -5.9455    4.6410 C   0  0  0  0  0  0  0  0  0  0  0  0
    2.1913   -6.8635    5.3849 C   0  0  0  0  0  0  0  0  0  0  0  0
    2.1809   -8.3233    5.1054 C   0  0  0  0  0  0  0  0  0  0  0  0
    0.9705   -9.0353    5.1205 C   0  0  0  0  0  0  0  0  0  0  0  0
    0.9605  -10.4207    4.9447 C   0  0  0  0  0  0  0  0  0  0  0  0
    2.1614  -11.1209    4.7718 C   0  0  0  0  0  0  0  0  0  0  0  0
    2.1322  -12.8987    4.4858 S   0  0  0  0  0  0  0  0  0  0  0  0
    1.9376  -13.3902    6.2398 C   0  0  0  0  0  0  0  0  0  0  0  0
    3.2547  -13.2763    6.9920 C   0  0  0  0  0  0  0  0  0  0  0  0
    3.3743  -10.4139    4.7547 C   0  0  0  0  0  0  0  0  0  0  0  0
    3.3843   -9.0254    4.9210 C   0  0  0  0  0  0  0  0  0  0  0  0
    4.5482  -11.0746    4.5706 F   0  0  0  0  0  0  0  0  0  0  0  0
    2.9164   -6.3390    6.4738 C   0  0  0  0  0  0  0  0  0  0  0  0
    3.9584   -7.1486    7.5236 S   0  0  0  0  0  0  0  0  0  0  0  0
    0.7261   -6.2022    3.4305 C   0  0  0  0  0  0  0  0  0  0  0  0
    0.0722   -5.0659    2.9340 C   0  0  0  0  0  0  0  0  0  0  0  0
    0.3328   -3.7758    3.9801 S   0  0  0  0  0  0  0  0  0  0  0  0
   -0.6385   -4.9123    1.6492 C   0  0  0  0  0  0  0  0  0  0  0  0
   -1.3877   -3.7874    1.3154 C   0  0  0  0  0  0  0  0  0  0  0  0
   -1.8147   -3.7706   -0.0166 C   0  0  0  0  0  0  0  0  0  0  0  0
   -2.5672   -2.7427   -0.6218 C   0  0  0  0  0  0  0  0  0  0  0  0
   -3.0964   -1.6305    0.1864 C   0  0  0  0  0  0  0  0  0  0  0  0
   -4.3961   -1.7274    0.7083 C   0  0  0  0  0  0  0  0  0  0  0  0
   -4.8053   -0.8623    1.7268 C   0  0  0  0  0  0  0  0  0  0  0  0
   -3.9230    0.1036    2.2248 C   0  0  0  0  0  0  0  0  0  0  0  0
   -4.4184    1.1304    3.6071 S   0  0  0  0  0  0  0  0  0  0  0  0
   -3.7757   -0.0516    4.8452 C   0  0  0  0  0  0  0  0  0  0  0  0
   -3.8165    0.5605    6.2371 C   0  0  0  0  0  0  0  0  0  0  0  0
   -2.6369    0.2216    1.6805 C   0  0  0  0  0  0  0  0  0  0  0  0
   -1.7588    1.1193    2.1904 F   0  0  0  0  0  0  0  0  0  0  0  0
   -2.2252   -0.6389    0.6624 C   0  0  0  0  0  0  0  0  0  0  0  0
   -2.8690   -2.8948   -1.9838 C   0  0  0  0  0  0  0  0  0  0  0  0
   -2.4878   -4.0237   -2.7157 C   0  0  0  0  0  0  0  0  0  0  0  0
   -1.7552   -5.0660   -2.0940 C   0  0  0  0  0  0  0  0  0  0  0  0
   -1.3990   -6.3031   -2.8108 C   0  0  0  0  0  0  0  0  0  0  0  0
   -2.3829   -7.2666   -3.0711 C   0  0  0  0  0  0  0  0  0  0  0  0
   -2.0442   -8.4605   -3.7161 C   0  0  0  0  0  0  0  0  0  0  0  0
   -0.7270   -8.6847   -4.1337 C   0  0  0  0  0  0  0  0  0  0  0  0
   -0.3083  -10.2194   -4.9702 S   0  0  0  0  0  0  0  0  0  0  0  0
   -0.5288   -9.5556   -6.6595 C   0  0  0  0  0  0  0  0  0  0  0  0
   -2.0010   -9.4966   -7.0429 C   0  0  0  0  0  0  0  0  0  0  0  0
    0.2604   -7.7166   -3.8812 C   0  0  0  0  0  0  0  0  0  0  0  0
   -0.0735   -6.5363   -3.2106 C   0  0  0  0  0  0  0  0  0  0  0  0
    1.5422   -7.9220   -4.2725 F   0  0  0  0  0  0  0  0  0  0  0  0
   -1.4184   -4.8978   -0.7377 C   0  0  0  0  0  0  0  0  0  0  0  0
   -0.5226   -5.9153    0.2887 S   0  0  0  0  0  0  0  0  0  0  0  0
   -2.8892   -3.9608   -4.0652 C   0  0  0  0  0  0  0  0  0  0  0  0
   -3.5784   -2.7817   -4.3882 C   0  0  0  0  0  0  0  0  0  0  0  0
   -3.6836   -1.8275   -2.9952 S   0  0  0  0  0  0  0  0  0  0  0  0
   -4.1136   -2.4609   -5.7358 C   0  0  0  0  0  0  0  0  0  0  0  0
   -3.7341   -3.3655   -7.1020 S   0  0  0  0  0  0  0  0  0  0  0  0
   -4.7380   -2.5700   -8.1802 C   0  0  0  0  0  0  0  0  0  0  0  0
   -5.4065   -1.5729   -7.4876 C   0  0  0  0  0  0  0  0  0  0  0  0
   -5.0547   -1.4788   -6.1291 C   0  0  0  0  0  0  0  0  0  0  0  0
   -5.8700   -0.3171   -5.0101 S   0  0  0  0  0  0  0  0  0  0  0  0
   -6.0881    1.0350   -6.1914 C   0  0  0  0  0  0  0  0  0  0  0  0
   -5.0930    1.8758   -6.4816 C   0  0  0  0  0  0  0  0  0  0  0  0
   -5.2122    2.9592   -7.4798 C   0  0  0  0  0  0  0  0  0  0  0  0
   -3.9084    3.4767   -8.4036 S   0  0  0  0  0  0  0  0  0  0  0  0
   -4.6791    4.7884   -9.1231 C   0  0  0  0  0  0  0  0  0  0  0  0
   -5.9655    4.8718   -8.6100 C   0  0  0  0  0  0  0  0  0  0  0  0
   -6.2814    3.8561   -7.6979 C   0  0  0  0  0  0  0  0  0  0  0  0
   -7.8714    3.8679   -6.8559 S   0  0  0  0  0  0  0  0  0  0  0  0
   -7.1060    4.1946   -5.2715 C   0  0  0  0  0  0  0  0  0  0  0  0
   -6.6037    5.3900   -4.9506 C   0  0  0  0  0  0  0  0  0  0  0  0
   -5.6478    5.5314   -3.8353 C   0  0  0  0  0  0  0  0  0  0  0  0
   -5.4164    4.5723   -2.8542 C   0  0  0  0  0  0  0  0  0  0  0  0
   -4.1704    4.7078   -2.2323 C   0  0  0  0  0  0  0  0  0  0  0  0
   -3.6010    3.7681   -1.3556 C   0  0  0  0  0  0  0  0  0  0  0  0
   -4.4137    2.6498   -0.8514 C   0  0  0  0  0  0  0  0  0  0  0  0
   -4.5585    1.4890   -1.6254 C   0  0  0  0  0  0  0  0  0  0  0  0
   -5.6168    0.6132   -1.3693 C   0  0  0  0  0  0  0  0  0  0  0  0
   -6.5406    0.8970   -0.3550 C   0  0  0  0  0  0  0  0  0  0  0  0
   -7.9976   -0.1351   -0.1599 S   0  0  0  0  0  0  0  0  0  0  0  0
   -8.9083    0.6395   -1.5415 C   0  0  0  0  0  0  0  0  0  0  0  0
   -9.4368    2.0207   -1.1634 C   0  0  0  0  0  0  0  0  0  0  0  0
   -6.3432    2.0069    0.4740 C   0  0  0  0  0  0  0  0  0  0  0  0
   -7.2138    2.2825    1.4791 F   0  0  0  0  0  0  0  0  0  0  0  0
   -5.2836    2.8825    0.2223 C   0  0  0  0  0  0  0  0  0  0  0  0
   -2.2448    3.9330   -1.0475 C   0  0  0  0  0  0  0  0  0  0  0  0
   -1.5202    5.0499   -1.4740 C   0  0  0  0  0  0  0  0  0  0  0  0
   -2.1342    6.0776   -2.2268 C   0  0  0  0  0  0  0  0  0  0  0  0
   -1.4443    7.3711   -2.4618 C   0  0  0  0  0  0  0  0  0  0  0  0
   -0.8891    8.0561   -1.3629 C   0  0  0  0  0  0  0  0  0  0  0  0
   -0.2372    9.2742   -1.5456 C   0  0  0  0  0  0  0  0  0  0  0  0
   -0.1776    9.8574   -2.8176 C   0  0  0  0  0  0  0  0  0  0  0  0
    0.6108   11.4610   -3.0214 S   0  0  0  0  0  0  0  0  0  0  0  0
   -0.8913   12.4323   -2.6504 C   0  0  0  0  0  0  0  0  0  0  0  0
   -1.0148   12.7092   -1.1534 C   0  0  0  0  0  0  0  0  0  0  0  0
   -0.7222    9.1783   -3.9179 C   0  0  0  0  0  0  0  0  0  0  0  0
   -1.3455    7.9350   -3.7429 C   0  0  0  0  0  0  0  0  0  0  0  0
   -0.6326    9.7078   -5.1634 F   0  0  0  0  0  0  0  0  0  0  0  0
   -3.4534    5.8268   -2.6603 C   0  0  0  0  0  0  0  0  0  0  0  0
   -4.3612    6.6267   -3.8393 S   0  0  0  0  0  0  0  0  0  0  0  0
   -0.1536    4.9490   -1.1990 C   0  0  0  0  0  0  0  0  0  0  0  0
    0.1979    3.7487   -0.5820 C   0  0  0  0  0  0  0  0  0  0  0  0
   -1.1952    2.8242   -0.3469 S   0  0  0  0  0  0  0  0  0  0  0  0
    1.5719    3.2293   -0.4980 C   0  0  0  0  0  0  0  0  0  0  0  0
    2.6470    3.7311   -1.2322 C   0  0  0  0  0  0  0  0  0  0  0  0
    3.7965    2.9357   -1.1467 C   0  0  0  0  0  0  0  0  0  0  0  0
    5.0041    3.1540   -1.8431 C   0  0  0  0  0  0  0  0  0  0  0  0
    5.1698    4.2787   -2.7877 C   0  0  0  0  0  0  0  0  0  0  0  0
    6.1060    5.2853   -2.5193 C   0  0  0  0  0  0  0  0  0  0  0  0
    6.2462    6.3679   -3.3926 C   0  0  0  0  0  0  0  0  0  0  0  0
    5.4650    6.4440   -4.5509 C   0  0  0  0  0  0  0  0  0  0  0  0
    5.6573    7.8436   -5.6653 S   0  0  0  0  0  0  0  0  0  0  0  0
    6.8969    7.0379   -6.7388 C   0  0  0  0  0  0  0  0  0  0  0  0
    8.2927    7.1505   -6.1435 C   0  0  0  0  0  0  0  0  0  0  0  0
    4.5229    5.4428   -4.8207 C   0  0  0  0  0  0  0  0  0  0  0  0
    3.7429    5.5109   -5.9309 F   0  0  0  0  0  0  0  0  0  0  0  0
    4.3755    4.3632   -3.9435 C   0  0  0  0  0  0  0  0  0  0  0  0
    6.0328    2.2229   -1.6274 C   0  0  0  0  0  0  0  0  0  0  0  0
    5.8834    1.1214   -0.7787 C   0  0  0  0  0  0  0  0  0  0  0  0
    4.6709    0.8976   -0.0914 C   0  0  0  0  0  0  0  0  0  0  0  0
    4.4910   -0.2870    0.7618 C   0  0  0  0  0  0  0  0  0  0  0  0
    4.6771   -0.1943    2.1472 C   0  0  0  0  0  0  0  0  0  0  0  0
    4.6144   -1.3434    2.9422 C   0  0  0  0  0  0  0  0  0  0  0  0
    4.3534   -2.5893    2.3572 C   0  0  0  0  0  0  0  0  0  0  0  0
    4.1822   -4.0500    3.3881 S   0  0  0  0  0  0  0  0  0  0  0  0
    5.9642   -4.4321    3.4455 C   0  0  0  0  0  0  0  0  0  0  0  0
    6.1902   -5.6855    4.2744 C   0  0  0  0  0  0  0  0  0  0  0  0
    4.1609   -2.6830    0.9730 C   0  0  0  0  0  0  0  0  0  0  0  0
    4.2440   -1.5382    0.1780 C   0  0  0  0  0  0  0  0  0  0  0  0
    3.9076   -3.8807    0.3917 F   0  0  0  0  0  0  0  0  0  0  0  0
    3.6384    1.8279   -0.3051 C   0  0  0  0  0  0  0  0  0  0  0  0
    2.0565    1.8054    0.2884 S   0  0  0  0  0  0  0  0  0  0  0  0
    7.0259    0.3082   -0.7331 C   0  0  0  0  0  0  0  0  0  0  0  0
    8.0582    0.7689   -1.5457 C   0  0  0  0  0  0  0  0  0  0  0  0
    7.5595    2.1810   -2.3280 S   0  0  0  0  0  0  0  0  0  0  0  0
    5.0661   -5.7847    9.2677 H   0  0  0  0  0  0  0  0  0  0  0  0
    3.8372   -3.6927    8.3400 H   0  0  0  0  0  0  0  0  0  0  0  0
    2.4104   -1.8988    4.5777 H   0  0  0  0  0  0  0  0  0  0  0  0
    2.2561    0.4638    5.2048 H   0  0  0  0  0  0  0  0  0  0  0  0
    3.4746    2.8249    8.9142 H   0  0  0  0  0  0  0  0  0  0  0  0
    3.7060    1.0486    8.8257 H   0  0  0  0  0  0  0  0  0  0  0  0
    4.3481    1.2372    6.4146 H   0  0  0  0  0  0  0  0  0  0  0  0
    5.3432    2.3628    7.4061 H   0  0  0  0  0  0  0  0  0  0  0  0
    3.9638    3.0073    6.4395 H   0  0  0  0  0  0  0  0  0  0  0  0
    1.3650   -3.0457    8.5997 H   0  0  0  0  0  0  0  0  0  0  0  0
    0.0321   -8.5201    5.3033 H   0  0  0  0  0  0  0  0  0  0  0  0
    0.0127  -10.9522    4.9602 H   0  0  0  0  0  0  0  0  0  0  0  0
    1.1489  -12.7725    6.7284 H   0  0  0  0  0  0  0  0  0  0  0  0
    1.5948  -14.4469    6.2638 H   0  0  0  0  0  0  0  0  0  0  0  0
    3.5495  -12.2149    7.0960 H   0  0  0  0  0  0  0  0  0  0  0  0
    3.1342  -13.7118    8.0058 H   0  0  0  0  0  0  0  0  0  0  0  0
    4.0485  -13.8499    6.4647 H   0  0  0  0  0  0  0  0  0  0  0  0
    4.3274   -8.4916    4.8935 H   0  0  0  0  0  0  0  0  0  0  0  0
    0.7302   -7.1535    2.9171 H   0  0  0  0  0  0  0  0  0  0  0  0
   -1.5887   -2.9895    2.0155 H   0  0  0  0  0  0  0  0  0  0  0  0
   -5.0603   -2.5140    0.3670 H   0  0  0  0  0  0  0  0  0  0  0  0
   -5.7982   -0.9700    2.1435 H   0  0  0  0  0  0  0  0  0  0  0  0
   -4.3902   -0.9778    4.8300 H   0  0  0  0  0  0  0  0  0  0  0  0
   -2.7222   -0.3286    4.6075 H   0  0  0  0  0  0  0  0  0  0  0  0
   -3.4093   -0.1624    6.9709 H   0  0  0  0  0  0  0  0  0  0  0  0
   -4.8655    0.8017    6.5119 H   0  0  0  0  0  0  0  0  0  0  0  0
   -3.2017    1.4832    6.2635 H   0  0  0  0  0  0  0  0  0  0  0  0
   -1.2062   -0.5882    0.2946 H   0  0  0  0  0  0  0  0  0  0  0  0
   -3.4047   -7.1017   -2.7575 H   0  0  0  0  0  0  0  0  0  0  0  0
   -2.8068   -9.2078   -3.8942 H   0  0  0  0  0  0  0  0  0  0  0  0
   -0.0622   -8.5496   -6.7634 H   0  0  0  0  0  0  0  0  0  0  0  0
   -0.0119  -10.2373   -7.3647 H   0  0  0  0  0  0  0  0  0  0  0  0
   -2.5499   -8.7688   -6.4072 H   0  0  0  0  0  0  0  0  0  0  0  0
   -2.4652  -10.4998   -6.9319 H   0  0  0  0  0  0  0  0  0  0  0  0
   -2.0940   -9.1841   -8.1023 H   0  0  0  0  0  0  0  0  0  0  0  0
    0.6937   -5.8004   -3.0091 H   0  0  0  0  0  0  0  0  0  0  0  0
   -2.6806   -4.7484   -4.7805 H   0  0  0  0  0  0  0  0  0  0  0  0
   -4.8711   -2.8128   -9.2291 H   0  0  0  0  0  0  0  0  0  0  0  0
   -6.1429   -0.9448   -7.9696 H   0  0  0  0  0  0  0  0  0  0  0  0
   -7.0468    1.1323   -6.6826 H   0  0  0  0  0  0  0  0  0  0  0  0
   -4.1230    1.6973   -6.0326 H   0  0  0  0  0  0  0  0  0  0  0  0
   -4.2352    5.4744   -9.8293 H   0  0  0  0  0  0  0  0  0  0  0  0
   -6.6555    5.6593   -8.8828 H   0  0  0  0  0  0  0  0  0  0  0  0
   -6.9511    3.3258   -4.6535 H   0  0  0  0  0  0  0  0  0  0  0  0
   -6.7383    6.2202   -5.6339 H   0  0  0  0  0  0  0  0  0  0  0  0
   -6.0828    3.7371   -2.6635 H   0  0  0  0  0  0  0  0  0  0  0  0
   -3.9183    1.3204   -2.4854 H   0  0  0  0  0  0  0  0  0  0  0  0
   -5.7631   -0.2509   -2.0017 H   0  0  0  0  0  0  0  0  0  0  0  0
   -8.2654    0.7141   -2.4444 H   0  0  0  0  0  0  0  0  0  0  0  0
   -9.7723   -0.0167   -1.7923 H   0  0  0  0  0  0  0  0  0  0  0  0
  -10.0162    2.4314   -2.0122 H   0  0  0  0  0  0  0  0  0  0  0  0
   -8.6039    2.7252   -0.9534 H   0  0  0  0  0  0  0  0  0  0  0  0
  -10.0958    1.9536   -0.2739 H   0  0  0  0  0  0  0  0  0  0  0  0
   -5.1921    3.7939    0.8048 H   0  0  0  0  0  0  0  0  0  0  0  0
   -0.9483    7.6441   -0.3618 H   0  0  0  0  0  0  0  0  0  0  0  0
    0.2152    9.7727   -0.6978 H   0  0  0  0  0  0  0  0  0  0  0  0
   -1.8074   11.9149   -3.0187 H   0  0  0  0  0  0  0  0  0  0  0  0
   -0.8179   13.4020   -3.1831 H   0  0  0  0  0  0  0  0  0  0  0  0
   -1.1832   11.7683   -0.5910 H   0  0  0  0  0  0  0  0  0  0  0  0
   -1.8756   13.3843   -0.9699 H   0  0  0  0  0  0  0  0  0  0  0  0
   -0.0913   13.1962   -0.7718 H   0  0  0  0  0  0  0  0  0  0  0  0
   -1.7283    7.4055   -4.6068 H   0  0  0  0  0  0  0  0  0  0  0  0
    0.5654    5.6784   -1.5340 H   0  0  0  0  0  0  0  0  0  0  0  0
    2.5841    4.6139   -1.8589 H   0  0  0  0  0  0  0  0  0  0  0  0
    6.7229    5.2325   -1.6263 H   0  0  0  0  0  0  0  0  0  0  0  0
    6.9617    7.1476   -3.1583 H   0  0  0  0  0  0  0  0  0  0  0  0
    6.6359    5.9693   -6.9129 H   0  0  0  0  0  0  0  0  0  0  0  0
    6.8839    7.5547   -7.7199 H   0  0  0  0  0  0  0  0  0  0  0  0
    9.0369    6.7569   -6.8679 H   0  0  0  0  0  0  0  0  0  0  0  0
    8.3672    6.5565   -5.2064 H   0  0  0  0  0  0  0  0  0  0  0  0
    8.5297    8.2120   -5.9238 H   0  0  0  0  0  0  0  0  0  0  0  0
    3.6405    3.5945   -4.1624 H   0  0  0  0  0  0  0  0  0  0  0  0
    4.8857    0.7652    2.6101 H   0  0  0  0  0  0  0  0  0  0  0  0
    4.7826   -1.2578    4.0076 H   0  0  0  0  0  0  0  0  0  0  0  0
    6.5075   -3.5802    3.9094 H   0  0  0  0  0  0  0  0  0  0  0  0
    6.3388   -4.5982    2.4104 H   0  0  0  0  0  0  0  0  0  0  0  0
    7.2420   -6.0147    4.1782 H   0  0  0  0  0  0  0  0  0  0  0  0
    5.5304   -6.5011    3.9168 H   0  0  0  0  0  0  0  0  0  0  0  0
    5.9683   -5.4801    5.3409 H   0  0  0  0  0  0  0  0  0  0  0  0
    4.1066   -1.6184   -0.8930 H   0  0  0  0  0  0  0  0  0  0  0  0
    7.1112   -0.5868   -0.1282 H   0  0  0  0  0  0  0  0  0  0  0  0
    9.0255    0.3015   -1.6615 H   0  0  0  0  0  0  0  0  0  0  0  0
  1  2  2  0
  2  3  1  0
  3  4  2  0
  4  5  1  0
  5  6  2  0
  6  7  1  0
  7  8  2  0
  8  9  1  0
  9 10  1  0
 10 11  1  0
  8 12  1  0
 12 13  1  0
 12 14  2  0
  4 15  1  0
 15 16  2  0
 16 17  1  0
 17 18  1  0
 18 19  2  0
 19 20  1  0
 20 21  2  0
 21 22  1  0
 22 23  1  0
 23 24  1  0
 21 25  1  0
 25 26  2  0
 25 27  1  0
 17 28  2  0
 28 29  1  0
 16 30  1  0
 30 31  2  0
 31 32  1  0
 31 33  1  0
 33 34  2  0
 34 35  1  0
 35 36  2  0
 36 37  1  0
 37 38  2  0
 38 39  1  0
 39 40  2  0
 40 41  1  0
 41 42  1  0
 42 43  1  0
 40 44  1  0
 44 45  1  0
 44 46  2  0
 36 47  1  0
 47 48  2  0
 48 49  1  0
 49 50  1  0
 50 51  2  0
 51 52  1  0
 52 53  2  0
 53 54  1  0
 54 55  1  0
 55 56  1  0
 53 57  1  0
 57 58  2  0
 57 59  1  0
 49 60  2  0
 60 61  1  0
 48 62  1  0
 62 63  2  0
 63 64  1  0
 63 65  1  0
 65 66  1  0
 66 67  1  0
 67 68  2  0
 68 69  1  0
 69 70  1  0
 70 71  1  0
 71 72  2  3
 72 73  1  0
 73 74  1  0
 74 75  1  0
 75 76  2  0
 76 77  1  0
 77 78  1  0
 78 79  1  0
 79 80  2  3
 80 81  1  0
 81 82  2  0
 82 83  1  0
 83 84  2  0
 84 85  1  0
 85 86  2  0
 86 87  1  0
 87 88  2  0
 88 89  1  0
 89 90  1  0
 90 91  1  0
 88 92  1  0
 92 93  1  0
 92 94  2  0
 84 95  1  0
 95 96  2  0
 96 97  1  0
 97 98  1  0
 98 99  2  0
 99100  1  0
100101  2  0
101102  1  0
102103  1  0
103104  1  0
101105  1  0
105106  2  0
105107  1  0
 97108  2  0
108109  1  0
 96110  1  0
110111  2  0
111112  1  0
111113  1  0
113114  2  0
114115  1  0
115116  2  0
116117  1  0
117118  2  0
118119  1  0
119120  2  0
120121  1  0
121122  1  0
122123  1  0
120124  1  0
124125  1  0
124126  2  0
116127  1  0
127128  2  0
128129  1  0
129130  1  0
130131  2  0
131132  1  0
132133  2  0
133134  1  0
134135  1  0
135136  1  0
133137  1  0
137138  2  0
137139  1  0
129140  2  0
140141  1  0
128142  1  0
142143  2  0
143144  1  0
 29  1  1  0
 61 33  1  0
 69 65  2  0
 77 73  2  0
109 81  1  0
141113  1  0
 28  3  1  0
 60 35  1  0
108 83  1  0
140115  1  0
 14  5  1  0
 32 15  1  0
 46 37  1  0
 64 47  1  0
 94 85  1  0
112 95  1  0
126117  1  0
144127  1  0
 26 18  1  0
 58 50  1  0
106 98  1  0
138130  1  0
  1145  1  0
  2146  1  0
  6147  1  0
  7148  1  0
 10149  1  0
 10150  1  0
 11151  1  0
 11152  1  0
 11153  1  0
 14154  1  0
 19155  1  0
 20156  1  0
 23157  1  0
 23158  1  0
 24159  1  0
 24160  1  0
 24161  1  0
 26162  1  0
 30163  1  0
 34164  1  0
 38165  1  0
 39166  1  0
 42167  1  0
 42168  1  0
 43169  1  0
 43170  1  0
 43171  1  0
 46172  1  0
 51173  1  0
 52174  1  0
 55175  1  0
 55176  1  0
 56177  1  0
 56178  1  0
 56179  1  0
 58180  1  0
 62181  1  0
 67182  1  0
 68183  1  0
 71184  1  0
 72185  1  0
 75186  1  0
 76187  1  0
 79188  1  0
 80189  1  0
 82190  1  0
 86191  1  0
 87192  1  0
 90193  1  0
 90194  1  0
 91195  1  0
 91196  1  0
 91197  1  0
 94198  1  0
 99199  1  0
100200  1  0
103201  1  0
103202  1  0
104203  1  0
104204  1  0
104205  1  0
106206  1  0
110207  1  0
114208  1  0
118209  1  0
119210  1  0
122211  1  0
122212  1  0
123213  1  0
123214  1  0
123215  1  0
126216  1  0
131217  1  0
132218  1  0
135219  1  0
135220  1  0
136221  1  0
136222  1  0
136223  1  0
138224  1  0
142225  1  0
143226  1  0
M  END

