
     RDKit          3D

206231  0  0  0  0  0  0  0  0999 V2000
    0.3104    2.2186   13.6455 C   0  0  0  0  0  0  0  0  0  0  0  0
    0.7271    2.4892   12.3438 C   0  0  0  0  0  0  0  0  0  0  0  0
    0.0651    1.7130   11.3775 C   0  0  0  0  0  0  0  0  0  0  0  0
    0.2574    1.7684    9.9843 C   0  0  0  0  0  0  0  0  0  0  0  0
    1.1811    2.7344    9.3620 C   0  0  0  0  0  0  0  0  0  0  0  0
    2.4992    2.3284    8.3997 S   0  0  0  0  0  0  0  0  0  0  0  0
    2.9460    3.9064    8.0224 C   0  0  0  0  0  0  0  0  0  0  0  0
    4.0545    4.2746    7.0850 C   0  0  0  0  0  0  0  0  0  0  0  0
    3.5314    4.4168    5.6588 C   0  0  0  0  0  0  0  0  0  0  0  0
    2.0447    4.7784    8.6310 C   0  0  0  0  0  0  0  0  0  0  0  0
    2.1092    6.5276    8.4439 Cl  0  0  0  0  0  0  0  0  0  0  0  0
    1.0547    4.1221    9.3791 C   0  0  0  0  0  0  0  0  0  0  0  0
   -0.2544    4.9730   10.1969 Cl  0  0  0  0  0  0  0  0  0  0  0  0
   -0.4970    0.8803    9.2037 C   0  0  0  0  0  0  0  0  0  0  0  0
   -1.4379   -0.0008    9.7541 C   0  0  0  0  0  0  0  0  0  0  0  0
   -1.6282   -0.0585   11.1519 C   0  0  0  0  0  0  0  0  0  0  0  0
   -2.5824   -0.9918   11.7769 C   0  0  0  0  0  0  0  0  0  0  0  0
   -4.2562   -0.8562   11.6863 S   0  0  0  0  0  0  0  0  0  0  0  0
   -4.5940   -2.1792   12.6675 C   0  0  0  0  0  0  0  0  0  0  0  0
   -5.9732   -2.6134   13.0618 C   0  0  0  0  0  0  0  0  0  0  0  0
   -6.3798   -2.0073   14.4011 C   0  0  0  0  0  0  0  0  0  0  0  0
   -3.3908   -2.7375   13.0974 C   0  0  0  0  0  0  0  0  0  0  0  0
   -2.2630   -2.0764   12.5930 C   0  0  0  0  0  0  0  0  0  0  0  0
   -0.6125   -2.5687   12.9439 Cl  0  0  0  0  0  0  0  0  0  0  0  0
   -3.2933   -4.1263   14.1706 Cl  0  0  0  0  0  0  0  0  0  0  0  0
   -0.8555    0.8192   11.9324 C   0  0  0  0  0  0  0  0  0  0  0  0
   -0.8675    1.0120   13.6042 S   0  0  0  0  0  0  0  0  0  0  0  0
   -2.1034   -0.7719    8.7846 C   0  0  0  0  0  0  0  0  0  0  0  0
   -1.6646   -0.5004    7.4915 C   0  0  0  0  0  0  0  0  0  0  0  0
   -0.4831    0.6987    7.5322 S   0  0  0  0  0  0  0  0  0  0  0  0
   -2.1739   -1.1038    6.2619 C   0  0  0  0  0  0  0  0  0  0  0  0
   -1.4229   -1.8763    5.3812 C   0  0  0  0  0  0  0  0  0  0  0  0
   -2.1090   -2.1593    4.1876 C   0  0  0  0  0  0  0  0  0  0  0  0
   -1.6087   -2.8922    3.0941 C   0  0  0  0  0  0  0  0  0  0  0  0
   -0.3198   -3.6029    3.1629 C   0  0  0  0  0  0  0  0  0  0  0  0
    0.0060   -4.8633    4.2257 S   0  0  0  0  0  0  0  0  0  0  0  0
    1.5759   -5.1455    3.7002 C   0  0  0  0  0  0  0  0  0  0  0  0
    2.5073   -6.1470    4.3160 C   0  0  0  0  0  0  0  0  0  0  0  0
    3.1755   -5.5591    5.5517 C   0  0  0  0  0  0  0  0  0  0  0  0
    1.8807   -4.2316    2.6915 C   0  0  0  0  0  0  0  0  0  0  0  0
    3.4442   -4.1518    1.8908 Cl  0  0  0  0  0  0  0  0  0  0  0  0
    0.8125   -3.3762    2.3805 C   0  0  0  0  0  0  0  0  0  0  0  0
    0.9217   -2.1063    1.1660 Cl  0  0  0  0  0  0  0  0  0  0  0  0
   -2.4192   -2.9595    1.9493 C   0  0  0  0  0  0  0  0  0  0  0  0
   -3.6755   -2.3386    1.8760 C   0  0  0  0  0  0  0  0  0  0  0  0
   -4.1950   -1.6383    2.9848 C   0  0  0  0  0  0  0  0  0  0  0  0
   -5.4901   -0.9355    2.9335 C   0  0  0  0  0  0  0  0  0  0  0  0
   -5.8382    0.3515    1.9091 S   0  0  0  0  0  0  0  0  0  0  0  0
   -7.3822    0.6511    2.5041 C   0  0  0  0  0  0  0  0  0  0  0  0
   -8.2607    1.7793    2.0537 C   0  0  0  0  0  0  0  0  0  0  0  0
   -7.8871    3.0711    2.7674 C   0  0  0  0  0  0  0  0  0  0  0  0
   -7.6392   -0.2413    3.5413 C   0  0  0  0  0  0  0  0  0  0  0  0
   -6.5870   -1.1431    3.7724 C   0  0  0  0  0  0  0  0  0  0  0  0
   -6.6589   -2.4229    4.9783 Cl  0  0  0  0  0  0  0  0  0  0  0  0
   -9.1168   -0.2306    4.4898 Cl  0  0  0  0  0  0  0  0  0  0  0  0
   -3.3795   -1.5721    4.1302 C   0  0  0  0  0  0  0  0  0  0  0  0
   -3.6566   -0.7225    5.5614 S   0  0  0  0  0  0  0  0  0  0  0  0
   -4.3004   -2.5158    0.6329 C   0  0  0  0  0  0  0  0  0  0  0  0
   -3.5346   -3.2683   -0.2580 C   0  0  0  0  0  0  0  0  0  0  0  0
   -2.1065   -3.7467    0.4942 S   0  0  0  0  0  0  0  0  0  0  0  0
   -3.8659   -3.5411   -1.6659 C   0  0  0  0  0  0  0  0  0  0  0  0
   -3.6920   -4.7807   -2.2182 N   0  0  0  0  0  0  0  0  0  0  0  0
   -4.1096   -4.5836   -3.4730 C   0  0  0  0  0  0  0  0  0  0  0  0
   -4.5349   -3.2653   -3.7615 C   0  0  0  0  0  0  0  0  0  0  0  0
   -4.9268   -3.1915   -5.1056 C   0  0  0  0  0  0  0  0  0  0  0  0
   -5.3474   -2.1839   -5.7340 O   0  0  0  0  0  0  0  0  0  0  0  0
   -4.7600   -4.4808   -5.6068 C   0  0  0  0  0  0  0  0  0  0  0  0
   -4.2532   -5.3269   -4.6085 C   0  0  0  0  0  0  0  0  0  0  0  0
   -4.1398   -6.6095   -4.9780 N   0  0  0  0  0  0  0  0  0  0  0  0
   -4.5696   -6.5639   -6.2757 C   0  0  0  0  0  0  0  0  0  0  0  0
   -4.9589   -5.2740   -6.7021 C   0  0  0  0  0  0  0  0  0  0  0  0
   -4.3811   -2.5819   -2.5754 C   0  0  0  0  0  0  0  0  0  0  0  0
   -4.6342   -1.1615   -2.2715 C   0  0  0  0  0  0  0  0  0  0  0  0
   -5.4707   -0.3888   -2.9709 C   0  0  0  0  0  0  0  0  0  0  0  0
   -5.8036    0.9665   -2.5027 C   0  0  0  0  0  0  0  0  0  0  0  0
   -5.6120    1.3633   -1.2153 N   0  0  0  0  0  0  0  0  0  0  0  0
   -6.1466    2.5900   -1.1485 C   0  0  0  0  0  0  0  0  0  0  0  0
   -6.5774    3.0424   -2.4353 C   0  0  0  0  0  0  0  0  0  0  0  0
   -6.2993    4.3998   -2.5476 C   0  0  0  0  0  0  0  0  0  0  0  0
   -6.2338    5.0553   -3.6231 O   0  0  0  0  0  0  0  0  0  0  0  0
   -5.8219    4.8160   -1.3130 C   0  0  0  0  0  0  0  0  0  0  0  0
   -5.6768    3.6797   -0.4513 C   0  0  0  0  0  0  0  0  0  0  0  0
   -4.5542    3.7714    0.2806 N   0  0  0  0  0  0  0  0  0  0  0  0
   -4.0600    5.0086   -0.0004 C   0  0  0  0  0  0  0  0  0  0  0  0
   -4.7816    5.6572   -1.0022 C   0  0  0  0  0  0  0  0  0  0  0  0
   -6.3239    1.9992   -3.2982 C   0  0  0  0  0  0  0  0  0  0  0  0
   -6.5523    2.0253   -4.7523 C   0  0  0  0  0  0  0  0  0  0  0  0
   -5.6698    1.6930   -5.7064 C   0  0  0  0  0  0  0  0  0  0  0  0
   -4.2321    1.3870   -5.5313 C   0  0  0  0  0  0  0  0  0  0  0  0
   -3.4457    0.8345   -6.5408 C   0  0  0  0  0  0  0  0  0  0  0  0
   -2.0920    0.7189   -6.1917 C   0  0  0  0  0  0  0  0  0  0  0  0
   -1.0645    0.1974   -7.0013 C   0  0  0  0  0  0  0  0  0  0  0  0
   -1.3116   -0.2598   -8.3788 C   0  0  0  0  0  0  0  0  0  0  0  0
   -1.1951   -1.8584   -8.8932 S   0  0  0  0  0  0  0  0  0  0  0  0
   -1.5507   -1.5448  -10.5067 C   0  0  0  0  0  0  0  0  0  0  0  0
   -1.6833   -2.6005  -11.5632 C   0  0  0  0  0  0  0  0  0  0  0  0
   -3.1190   -3.1011  -11.6397 C   0  0  0  0  0  0  0  0  0  0  0  0
   -1.7756   -0.1799  -10.6646 C   0  0  0  0  0  0  0  0  0  0  0  0
   -2.1783    0.5681  -12.1999 Cl  0  0  0  0  0  0  0  0  0  0  0  0
   -1.6292    0.5442   -9.4699 C   0  0  0  0  0  0  0  0  0  0  0  0
   -1.7917    2.2927   -9.3697 Cl  0  0  0  0  0  0  0  0  0  0  0  0
    0.2149    0.1202   -6.4328 C   0  0  0  0  0  0  0  0  0  0  0  0
    0.4879    0.5273   -5.1196 C   0  0  0  0  0  0  0  0  0  0  0  0
   -0.5341    1.0932   -4.3254 C   0  0  0  0  0  0  0  0  0  0  0  0
   -0.2842    1.5897   -2.9613 C   0  0  0  0  0  0  0  0  0  0  0  0
    0.1631    0.6285   -1.6574 S   0  0  0  0  0  0  0  0  0  0  0  0
    0.2427    1.8820   -0.5384 C   0  0  0  0  0  0  0  0  0  0  0  0
    0.7227    1.7302    0.8746 C   0  0  0  0  0  0  0  0  0  0  0  0
    2.2368    1.8917    0.9407 C   0  0  0  0  0  0  0  0  0  0  0  0
   -0.0638    3.0802   -1.1810 C   0  0  0  0  0  0  0  0  0  0  0  0
   -0.3666    2.9149   -2.5412 C   0  0  0  0  0  0  0  0  0  0  0  0
   -0.7556    4.2529   -3.6150 Cl  0  0  0  0  0  0  0  0  0  0  0  0
   -0.0520    4.6455   -0.3811 Cl  0  0  0  0  0  0  0  0  0  0  0  0
   -1.8140    1.1742   -4.9003 C   0  0  0  0  0  0  0  0  0  0  0  0
   -3.2353    1.7579   -4.2165 S   0  0  0  0  0  0  0  0  0  0  0  0
    1.8370    0.3538   -4.7608 C   0  0  0  0  0  0  0  0  0  0  0  0
    2.6129   -0.1528   -5.8052 C   0  0  0  0  0  0  0  0  0  0  0  0
    1.6393   -0.4033   -7.1608 S   0  0  0  0  0  0  0  0  0  0  0  0
    4.0424   -0.4759   -5.7448 C   0  0  0  0  0  0  0  0  0  0  0  0
    4.9379   -0.3827   -6.8110 C   0  0  0  0  0  0  0  0  0  0  0  0
    6.2198   -0.8557   -6.4870 C   0  0  0  0  0  0  0  0  0  0  0  0
    7.3539   -0.8575   -7.3292 C   0  0  0  0  0  0  0  0  0  0  0  0
    7.3111   -0.3136   -8.6968 C   0  0  0  0  0  0  0  0  0  0  0  0
    6.4594   -0.9919   -9.9741 S   0  0  0  0  0  0  0  0  0  0  0  0
    6.9365    0.1429  -11.1244 C   0  0  0  0  0  0  0  0  0  0  0  0
    6.5706    0.0888  -12.5779 C   0  0  0  0  0  0  0  0  0  0  0  0
    7.6813   -0.5649  -13.3952 C   0  0  0  0  0  0  0  0  0  0  0  0
    7.7868    1.0631  -10.5160 C   0  0  0  0  0  0  0  0  0  0  0  0
    8.5299    2.4112  -11.3684 Cl  0  0  0  0  0  0  0  0  0  0  0  0
    7.9979    0.8109   -9.1529 C   0  0  0  0  0  0  0  0  0  0  0  0
    8.9913    1.8281   -8.1188 Cl  0  0  0  0  0  0  0  0  0  0  0  0
    8.5364   -1.4017   -6.7978 C   0  0  0  0  0  0  0  0  0  0  0  0
    8.6189   -1.9158   -5.5009 C   0  0  0  0  0  0  0  0  0  0  0  0
    7.4933   -1.8956   -4.6549 C   0  0  0  0  0  0  0  0  0  0  0  0
    7.5353   -2.4514   -3.2951 C   0  0  0  0  0  0  0  0  0  0  0  0
    8.4023   -1.7873   -2.0158 S   0  0  0  0  0  0  0  0  0  0  0  0
    7.9214   -2.9196   -0.8709 C   0  0  0  0  0  0  0  0  0  0  0  0
    8.2890   -2.8730    0.5801 C   0  0  0  0  0  0  0  0  0  0  0  0
    7.2063   -2.1724    1.3911 C   0  0  0  0  0  0  0  0  0  0  0  0
    7.0520   -3.8293   -1.4751 C   0  0  0  0  0  0  0  0  0  0  0  0
    6.8413   -3.5698   -2.8364 C   0  0  0  0  0  0  0  0  0  0  0  0
    5.8403   -4.5791   -3.8737 Cl  0  0  0  0  0  0  0  0  0  0  0  0
    6.2859   -5.1579   -0.6205 Cl  0  0  0  0  0  0  0  0  0  0  0  0
    6.3075   -1.3469   -5.1767 C   0  0  0  0  0  0  0  0  0  0  0  0
    4.8213   -1.1520   -4.4118 S   0  0  0  0  0  0  0  0  0  0  0  0
    9.8799   -2.4469   -5.1979 C   0  0  0  0  0  0  0  0  0  0  0  0
   10.7822   -2.3547   -6.2537 C   0  0  0  0  0  0  0  0  0  0  0  0
   10.0191   -1.6183   -7.5623 S   0  0  0  0  0  0  0  0  0  0  0  0
    0.6854    2.7091   14.5346 H   0  0  0  0  0  0  0  0  0  0  0  0
    1.4892    3.2232   12.1157 H   0  0  0  0  0  0  0  0  0  0  0  0
    4.8387    3.4885    7.1107 H   0  0  0  0  0  0  0  0  0  0  0  0
    4.5165    5.2307    7.4068 H   0  0  0  0  0  0  0  0  0  0  0  0
    4.3706    4.6641    4.9787 H   0  0  0  0  0  0  0  0  0  0  0  0
    2.7798    5.2374    5.6031 H   0  0  0  0  0  0  0  0  0  0  0  0
    3.0621    3.4671    5.3188 H   0  0  0  0  0  0  0  0  0  0  0  0
   -6.6997   -2.2941   12.2818 H   0  0  0  0  0  0  0  0  0  0  0  0
   -6.0192   -3.7209   13.1276 H   0  0  0  0  0  0  0  0  0  0  0  0
   -5.7129   -2.3734   15.2114 H   0  0  0  0  0  0  0  0  0  0  0  0
   -7.4214   -2.3048   14.6406 H   0  0  0  0  0  0  0  0  0  0  0  0
   -6.3299   -0.8987   14.3544 H   0  0  0  0  0  0  0  0  0  0  0  0
   -2.8730   -1.5029    9.0080 H   0  0  0  0  0  0  0  0  0  0  0  0
   -0.4056   -2.1788    5.5849 H   0  0  0  0  0  0  0  0  0  0  0  0
    3.2810   -6.4531    3.5822 H   0  0  0  0  0  0  0  0  0  0  0  0
    1.9300   -7.0491    4.6087 H   0  0  0  0  0  0  0  0  0  0  0  0
    3.7561   -4.6499    5.2795 H   0  0  0  0  0  0  0  0  0  0  0  0
    2.4117   -5.2933    6.3137 H   0  0  0  0  0  0  0  0  0  0  0  0
    3.8696   -6.3075    5.9937 H   0  0  0  0  0  0  0  0  0  0  0  0
   -9.3256    1.5423    2.2475 H   0  0  0  0  0  0  0  0  0  0  0  0
   -8.1461    1.9176    0.9589 H   0  0  0  0  0  0  0  0  0  0  0  0
   -6.8234    3.3299    2.5708 H   0  0  0  0  0  0  0  0  0  0  0  0
   -8.5236    3.9014    2.3940 H   0  0  0  0  0  0  0  0  0  0  0  0
   -8.0512    2.9659    3.8637 H   0  0  0  0  0  0  0  0  0  0  0  0
   -5.2760   -2.1218    0.3859 H   0  0  0  0  0  0  0  0  0  0  0  0
   -4.6251   -7.4428   -6.9016 H   0  0  0  0  0  0  0  0  0  0  0  0
   -5.3642   -4.9872   -7.6641 H   0  0  0  0  0  0  0  0  0  0  0  0
   -4.1552   -0.7475   -1.3947 H   0  0  0  0  0  0  0  0  0  0  0  0
   -5.9642   -0.7583   -3.8568 H   0  0  0  0  0  0  0  0  0  0  0  0
   -3.1364    5.3766    0.4236 H   0  0  0  0  0  0  0  0  0  0  0  0
   -4.4682    6.5369   -1.5547 H   0  0  0  0  0  0  0  0  0  0  0  0
   -7.5303    2.3509   -5.0782 H   0  0  0  0  0  0  0  0  0  0  0  0
   -6.0310    1.6996   -6.7281 H   0  0  0  0  0  0  0  0  0  0  0  0
   -3.8447    0.5352   -7.5025 H   0  0  0  0  0  0  0  0  0  0  0  0
   -1.3714   -2.1962  -12.5488 H   0  0  0  0  0  0  0  0  0  0  0  0
   -1.0140   -3.4535  -11.3210 H   0  0  0  0  0  0  0  0  0  0  0  0
   -3.1983   -3.8852  -12.4245 H   0  0  0  0  0  0  0  0  0  0  0  0
   -3.4278   -3.5418  -10.6670 H   0  0  0  0  0  0  0  0  0  0  0  0
   -3.8085   -2.2657  -11.8949 H   0  0  0  0  0  0  0  0  0  0  0  0
    0.4402    0.7304    1.2598 H   0  0  0  0  0  0  0  0  0  0  0  0
    0.2415    2.4907    1.5224 H   0  0  0  0  0  0  0  0  0  0  0  0
    2.5849    1.7416    1.9860 H   0  0  0  0  0  0  0  0  0  0  0  0
    2.5237    2.9178    0.6128 H   0  0  0  0  0  0  0  0  0  0  0  0
    2.7351    1.1462    0.2869 H   0  0  0  0  0  0  0  0  0  0  0  0
    2.2457    0.6003   -3.7925 H   0  0  0  0  0  0  0  0  0  0  0  0
    4.6669    0.0217   -7.7743 H   0  0  0  0  0  0  0  0  0  0  0  0
    5.6317   -0.4977  -12.6989 H   0  0  0  0  0  0  0  0  0  0  0  0
    6.3836    1.1152  -12.9573 H   0  0  0  0  0  0  0  0  0  0  0  0
    8.5914    0.0682  -13.3840 H   0  0  0  0  0  0  0  0  0  0  0  0
    7.3466   -0.6808  -14.4454 H   0  0  0  0  0  0  0  0  0  0  0  0
    7.9190   -1.5723  -12.9900 H   0  0  0  0  0  0  0  0  0  0  0  0
    9.2491   -2.3224    0.6977 H   0  0  0  0  0  0  0  0  0  0  0  0
    8.4414   -3.9035    0.9648 H   0  0  0  0  0  0  0  0  0  0  0  0
    7.5086   -2.1406    2.4598 H   0  0  0  0  0  0  0  0  0  0  0  0
    7.0620   -1.1327    1.0287 H   0  0  0  0  0  0  0  0  0  0  0  0
    6.2492   -2.7280    1.3120 H   0  0  0  0  0  0  0  0  0  0  0  0
   10.1372   -2.8968   -4.2482 H   0  0  0  0  0  0  0  0  0  0  0  0
   11.8080   -2.7059   -6.2356 H   0  0  0  0  0  0  0  0  0  0  0  0
  1  2  2  0
  2  3  1  0
  3  4  2  0
  4  5  1  0
  5  6  1  0
  6  7  1  0
  7  8  1  0
  8  9  1  0
  7 10  2  0
 10 11  1  0
 10 12  1  0
 12 13  1  0
  4 14  1  0
 14 15  2  0
 15 16  1  0
 16 17  1  0
 17 18  1  0
 18 19  1  0
 19 20  1  0
 20 21  1  0
 19 22  2  0
 22 23  1  0
 23 24  1  0
 22 25  1  0
 16 26  2  0
 26 27  1  0
 15 28  1  0
 28 29  2  0
 29 30  1  0
 29 31  1  0
 31 32  2  0
 32 33  1  0
 33 34  2  0
 34 35  1  0
 35 36  1  0
 36 37  1  0
 37 38  1  0
 38 39  1  0
 37 40  2  0
 40 41  1  0
 40 42  1  0
 42 43  1  0
 34 44  1  0
 44 45  2  0
 45 46  1  0
 46 47  1  0
 47 48  1  0
 48 49  1  0
 49 50  1  0
 50 51  1  0
 49 52  2  0
 52 53  1  0
 53 54  1  0
 52 55  1  0
 46 56  2  0
 56 57  1  0
 45 58  1  0
 58 59  2  0
 59 60  1  0
 59 61  1  0
 61 62  2  0
 62 63  1  0
 63 64  1  0
 64 65  1  0
 65 66  2  0
 65 67  1  0
 67 68  1  0
 68 69  1  0
 69 70  2  0
 70 71  1  0
 64 72  2  0
 72 73  1  0
 73 74  2  3
 74 75  1  0
 75 76  2  0
 76 77  1  0
 77 78  1  0
 78 79  1  0
 79 80  2  0
 79 81  1  0
 81 82  1  0
 82 83  1  0
 83 84  2  0
 84 85  1  0
 78 86  2  0
 86 87  1  0
 87 88  2  3
 88 89  1  0
 89 90  2  0
 90 91  1  0
 91 92  2  0
 92 93  1  0
 93 94  1  0
 94 95  1  0
 95 96  1  0
 96 97  1  0
 95 98  2  0
 98 99  1  0
 98100  1  0
100101  1  0
 92102  1  0
102103  2  0
103104  1  0
104105  1  0
105106  1  0
106107  1  0
107108  1  0
108109  1  0
107110  2  0
110111  1  0
111112  1  0
110113  1  0
104114  2  0
114115  1  0
103116  1  0
116117  2  0
117118  1  0
117119  1  0
119120  2  0
120121  1  0
121122  2  0
122123  1  0
123124  1  0
124125  1  0
125126  1  0
126127  1  0
125128  2  0
128129  1  0
128130  1  0
130131  1  0
122132  1  0
132133  2  0
133134  1  0
134135  1  0
135136  1  0
136137  1  0
137138  1  0
138139  1  0
137140  2  0
140141  1  0
141142  1  0
140143  1  0
134144  2  0
144145  1  0
133146  1  0
146147  2  0
147148  1  0
 27  1  1  0
 57 31  1  0
 72 61  1  0
 86 75  1  0
115 89  1  0
145119  1  0
 26  3  1  0
 56 33  1  0
 68 63  2  0
 82 77  2  0
114 91  1  0
144121  1  0
 12  5  2  0
 30 14  1  0
 42 35  2  0
 60 44  1  0
 71 67  2  0
 85 81  2  0
100 93  2  0
118102  1  0
130123  2  0
148132  1  0
 23 17  2  0
 53 47  2  0
111105  2  0
141135  2  0
  1149  1  0
  2150  1  0
  8151  1  0
  8152  1  0
  9153  1  0
  9154  1  0
  9155  1  0
 20156  1  0
 20157  1  0
 21158  1  0
 21159  1  0
 21160  1  0
 28161  1  0
 32162  1  0
 38163  1  0
 38164  1  0
 39165  1  0
 39166  1  0
 39167  1  0
 50168  1  0
 50169  1  0
 51170  1  0
 51171  1  0
 51172  1  0
 58173  1  0
 70174  1  0
 71175  1  0
 73176  1  0
 74177  1  0
 84178  1  0
 85179  1  0
 87180  1  0
 88181  1  0
 90182  1  0
 96183  1  0
 96184  1  0
 97185  1  0
 97186  1  0
 97187  1  0
108188  1  0
108189  1  0
109190  1  0
109191  1  0
109192  1  0
116193  1  0
120194  1  0
126195  1  0
126196  1  0
127197  1  0
127198  1  0
127199  1  0
138200  1  0
138201  1  0
139202  1  0
139203  1  0
139204  1  0
146205  1  0
147206  1  0
M  END

