
     RDKit          3D

256277  0  0  0  0  0  0  0  0999 V2000
   -4.8245    2.9219   11.5084 C   0  0  0  0  0  0  0  0  0  0  0  0
   -5.3194    3.6123   10.4066 C   0  0  0  0  0  0  0  0  0  0  0  0
   -5.4445    2.8130    9.2580 C   0  0  0  0  0  0  0  0  0  0  0  0
   -5.8652    3.2413    7.9815 C   0  0  0  0  0  0  0  0  0  0  0  0
   -6.3004    4.6308    7.7228 C   0  0  0  0  0  0  0  0  0  0  0  0
   -5.6150    5.4310    6.7962 C   0  0  0  0  0  0  0  0  0  0  0  0
   -6.0242    6.7465    6.5618 C   0  0  0  0  0  0  0  0  0  0  0  0
   -7.1166    7.2774    7.2561 C   0  0  0  0  0  0  0  0  0  0  0  0
   -7.6273    8.9734    6.9481 S   0  0  0  0  0  0  0  0  0  0  0  0
   -6.4257    9.7255    8.1039 C   0  0  0  0  0  0  0  0  0  0  0  0
   -6.9220    9.6515    9.5416 C   0  0  0  0  0  0  0  0  0  0  0  0
   -7.8178    6.4765    8.1686 C   0  0  0  0  0  0  0  0  0  0  0  0
   -8.8968    6.9696    8.8279 F   0  0  0  0  0  0  0  0  0  0  0  0
   -7.4086    5.1600    8.4012 C   0  0  0  0  0  0  0  0  0  0  0  0
   -5.8363    2.2810    6.9524 C   0  0  0  0  0  0  0  0  0  0  0  0
   -5.4294    0.9586    7.1608 C   0  0  0  0  0  0  0  0  0  0  0  0
   -5.0257    0.5260    8.4424 C   0  0  0  0  0  0  0  0  0  0  0  0
   -4.5692   -0.8576    8.7035 C   0  0  0  0  0  0  0  0  0  0  0  0
   -5.2246   -1.6511    9.6570 C   0  0  0  0  0  0  0  0  0  0  0  0
   -4.7826   -2.9510    9.9155 C   0  0  0  0  0  0  0  0  0  0  0  0
   -3.6783   -3.4680    9.2274 C   0  0  0  0  0  0  0  0  0  0  0  0
   -3.1207   -5.1428    9.5675 S   0  0  0  0  0  0  0  0  0  0  0  0
   -2.0727   -4.6817   10.9938 C   0  0  0  0  0  0  0  0  0  0  0  0
   -0.7064   -4.1868   10.5362 C   0  0  0  0  0  0  0  0  0  0  0  0
   -3.0320   -2.6869    8.2608 C   0  0  0  0  0  0  0  0  0  0  0  0
   -3.4668   -1.3832    8.0103 C   0  0  0  0  0  0  0  0  0  0  0  0
   -1.9832   -3.1882    7.5592 F   0  0  0  0  0  0  0  0  0  0  0  0
   -5.0446    1.4891    9.4679 C   0  0  0  0  0  0  0  0  0  0  0  0
   -4.5359    1.3216   11.0637 S   0  0  0  0  0  0  0  0  0  0  0  0
   -5.4608    0.1811    5.9912 C   0  0  0  0  0  0  0  0  0  0  0  0
   -5.8675    0.8981    4.8685 C   0  0  0  0  0  0  0  0  0  0  0  0
   -6.2224    2.4853    5.3245 S   0  0  0  0  0  0  0  0  0  0  0  0
   -5.8155    0.4065    3.4839 C   0  0  0  0  0  0  0  0  0  0  0  0
   -6.1164    1.1525    2.3443 C   0  0  0  0  0  0  0  0  0  0  0  0
   -5.7740    0.4926    1.1536 C   0  0  0  0  0  0  0  0  0  0  0  0
   -5.8752    1.0202   -0.1481 C   0  0  0  0  0  0  0  0  0  0  0  0
   -6.4422    2.3547   -0.4067 C   0  0  0  0  0  0  0  0  0  0  0  0
   -5.6860    3.5089   -0.1559 C   0  0  0  0  0  0  0  0  0  0  0  0
   -6.2370    4.7721   -0.3868 C   0  0  0  0  0  0  0  0  0  0  0  0
   -7.5485    4.8909   -0.8650 C   0  0  0  0  0  0  0  0  0  0  0  0
   -8.2523    6.5209   -1.1391 S   0  0  0  0  0  0  0  0  0  0  0  0
   -7.7450    6.5800   -2.8896 C   0  0  0  0  0  0  0  0  0  0  0  0
   -8.1608    7.9061   -3.5059 C   0  0  0  0  0  0  0  0  0  0  0  0
   -8.3079    3.7383   -1.1143 C   0  0  0  0  0  0  0  0  0  0  0  0
   -9.5825    3.8391   -1.5677 F   0  0  0  0  0  0  0  0  0  0  0  0
   -7.7520    2.4739   -0.8933 C   0  0  0  0  0  0  0  0  0  0  0  0
   -5.3678    0.2335   -1.1943 C   0  0  0  0  0  0  0  0  0  0  0  0
   -4.7905   -1.0218   -0.9832 C   0  0  0  0  0  0  0  0  0  0  0  0
   -4.7242   -1.5708    0.3146 C   0  0  0  0  0  0  0  0  0  0  0  0
   -4.1141   -2.8908    0.5873 C   0  0  0  0  0  0  0  0  0  0  0  0
   -4.8865   -3.9171    1.1506 C   0  0  0  0  0  0  0  0  0  0  0  0
   -4.3102   -5.1582    1.4344 C   0  0  0  0  0  0  0  0  0  0  0  0
   -2.9570   -5.3838    1.1613 C   0  0  0  0  0  0  0  0  0  0  0  0
   -2.2297   -6.9823    1.5413 S   0  0  0  0  0  0  0  0  0  0  0  0
   -2.5649   -7.6707   -0.1143 C   0  0  0  0  0  0  0  0  0  0  0  0
   -2.1858   -9.1429   -0.1500 C   0  0  0  0  0  0  0  0  0  0  0  0
   -2.1768   -4.3588    0.6074 C   0  0  0  0  0  0  0  0  0  0  0  0
   -2.7540   -3.1175    0.3201 C   0  0  0  0  0  0  0  0  0  0  0  0
   -0.8612   -4.5632    0.3461 F   0  0  0  0  0  0  0  0  0  0  0  0
   -5.2280   -0.7783    1.3613 C   0  0  0  0  0  0  0  0  0  0  0  0
   -5.1517   -1.0752    3.0157 S   0  0  0  0  0  0  0  0  0  0  0  0
   -4.2734   -1.5920   -2.1559 C   0  0  0  0  0  0  0  0  0  0  0  0
   -4.4344   -0.7803   -3.2795 C   0  0  0  0  0  0  0  0  0  0  0  0
   -5.2202    0.6431   -2.8168 S   0  0  0  0  0  0  0  0  0  0  0  0
   -3.7688   -1.0118   -4.5718 C   0  0  0  0  0  0  0  0  0  0  0  0
   -2.2712   -1.7598   -4.6841 S   0  0  0  0  0  0  0  0  0  0  0  0
   -2.0637   -1.5349   -6.3256 C   0  0  0  0  0  0  0  0  0  0  0  0
   -3.1720   -0.8552   -6.8416 C   0  0  0  0  0  0  0  0  0  0  0  0
   -4.1529   -0.5706   -5.8513 C   0  0  0  0  0  0  0  0  0  0  0  0
   -5.4823    0.0952   -6.1402 C   0  0  0  0  0  0  0  0  0  0  0  0
   -6.6476   -0.8637   -5.9136 C   0  0  0  0  0  0  0  0  0  0  0  0
   -3.2892   -0.4991   -8.3049 C   0  0  0  0  0  0  0  0  0  0  0  0
   -4.1137   -1.5407   -9.0539 C   0  0  0  0  0  0  0  0  0  0  0  0
   -0.7968   -1.8293   -7.0137 C   0  0  0  0  0  0  0  0  0  0  0  0
    0.1448   -0.8998   -7.2078 C   0  0  0  0  0  0  0  0  0  0  0  0
   -0.0560    0.5242   -6.8713 C   0  0  0  0  0  0  0  0  0  0  0  0
    0.9812    1.3369   -6.6832 C   0  0  0  0  0  0  0  0  0  0  0  0
    0.8412    2.7786   -6.4044 C   0  0  0  0  0  0  0  0  0  0  0  0
    1.9516    3.8907   -6.9790 S   0  0  0  0  0  0  0  0  0  0  0  0
    1.2427    5.2496   -6.3024 C   0  0  0  0  0  0  0  0  0  0  0  0
    0.1068    4.8611   -5.5881 C   0  0  0  0  0  0  0  0  0  0  0  0
   -0.1098    3.4547   -5.6145 C   0  0  0  0  0  0  0  0  0  0  0  0
   -1.1377    2.7511   -4.7489 C   0  0  0  0  0  0  0  0  0  0  0  0
   -2.5497    2.8659   -5.3177 C   0  0  0  0  0  0  0  0  0  0  0  0
   -0.7737    5.8601   -4.8745 C   0  0  0  0  0  0  0  0  0  0  0  0
   -1.7232    6.5432   -5.8556 C   0  0  0  0  0  0  0  0  0  0  0  0
    1.8260    6.6030   -6.3800 C   0  0  0  0  0  0  0  0  0  0  0  0
    3.0150    6.8981   -5.8373 C   0  0  0  0  0  0  0  0  0  0  0  0
    3.7102    5.9523   -4.9546 C   0  0  0  0  0  0  0  0  0  0  0  0
    4.7152    5.2015   -5.4063 C   0  0  0  0  0  0  0  0  0  0  0  0
    5.1560    4.0092   -4.6672 C   0  0  0  0  0  0  0  0  0  0  0  0
    5.5711    2.8247   -5.2708 C   0  0  0  0  0  0  0  0  0  0  0  0
    5.6978    1.7639   -4.3583 C   0  0  0  0  0  0  0  0  0  0  0  0
    5.9853    0.4187   -4.6761 C   0  0  0  0  0  0  0  0  0  0  0  0
    6.2778   -0.0110   -6.0549 C   0  0  0  0  0  0  0  0  0  0  0  0
    7.5923   -0.3218   -6.4298 C   0  0  0  0  0  0  0  0  0  0  0  0
    7.8782   -0.6875   -7.7486 C   0  0  0  0  0  0  0  0  0  0  0  0
    6.8514   -0.7542   -8.6980 C   0  0  0  0  0  0  0  0  0  0  0  0
    7.2367   -1.1907  -10.3968 S   0  0  0  0  0  0  0  0  0  0  0  0
    7.0763   -2.9837  -10.1108 C   0  0  0  0  0  0  0  0  0  0  0  0
    7.3998   -3.7423  -11.3885 C   0  0  0  0  0  0  0  0  0  0  0  0
    5.5338   -0.4552   -8.3223 C   0  0  0  0  0  0  0  0  0  0  0  0
    4.5307   -0.5094   -9.2339 F   0  0  0  0  0  0  0  0  0  0  0  0
    5.2499   -0.0858   -7.0051 C   0  0  0  0  0  0  0  0  0  0  0  0
    5.9645   -0.5035   -3.6162 C   0  0  0  0  0  0  0  0  0  0  0  0
    5.7201   -0.1180   -2.2943 C   0  0  0  0  0  0  0  0  0  0  0  0
    5.4419    1.2238   -1.9729 C   0  0  0  0  0  0  0  0  0  0  0  0
    5.1236    1.6364   -0.5910 C   0  0  0  0  0  0  0  0  0  0  0  0
    3.9625    1.1609    0.0357 C   0  0  0  0  0  0  0  0  0  0  0  0
    3.7186    1.4555    1.3792 C   0  0  0  0  0  0  0  0  0  0  0  0
    4.6378    2.2170    2.1098 C   0  0  0  0  0  0  0  0  0  0  0  0
    4.3494    2.5284    3.8557 S   0  0  0  0  0  0  0  0  0  0  0  0
    5.0355    0.9313    4.4287 C   0  0  0  0  0  0  0  0  0  0  0  0
    6.5584    0.9371    4.4099 C   0  0  0  0  0  0  0  0  0  0  0  0
    5.7765    2.7323    1.4751 C   0  0  0  0  0  0  0  0  0  0  0  0
    6.0200    2.4394    0.1288 C   0  0  0  0  0  0  0  0  0  0  0  0
    6.6598    3.4958    2.1646 F   0  0  0  0  0  0  0  0  0  0  0  0
    5.4304    2.1394   -3.0366 C   0  0  0  0  0  0  0  0  0  0  0  0
    4.9879    3.7597   -3.0014 S   0  0  0  0  0  0  0  0  0  0  0  0
    5.7451   -1.1894   -1.3942 C   0  0  0  0  0  0  0  0  0  0  0  0
    5.9479   -2.4149   -2.0170 C   0  0  0  0  0  0  0  0  0  0  0  0
    6.1379   -2.1802   -3.6807 S   0  0  0  0  0  0  0  0  0  0  0  0
    5.9212   -3.7035   -1.3205 C   0  0  0  0  0  0  0  0  0  0  0  0
    6.3004   -3.8887    0.0037 C   0  0  0  0  0  0  0  0  0  0  0  0
    6.0322   -5.1806    0.4758 C   0  0  0  0  0  0  0  0  0  0  0  0
    6.2785   -5.6525    1.7817 C   0  0  0  0  0  0  0  0  0  0  0  0
    6.9487   -4.8129    2.8000 C   0  0  0  0  0  0  0  0  0  0  0  0
    8.2392   -4.3135    2.5641 C   0  0  0  0  0  0  0  0  0  0  0  0
    8.8569   -3.4837    3.5024 C   0  0  0  0  0  0  0  0  0  0  0  0
    8.1986   -3.1590    4.6939 C   0  0  0  0  0  0  0  0  0  0  0  0
    9.0077   -2.1050    5.9031 S   0  0  0  0  0  0  0  0  0  0  0  0
    9.9477   -3.4524    6.7066 C   0  0  0  0  0  0  0  0  0  0  0  0
   11.4091   -3.3962    6.2834 C   0  0  0  0  0  0  0  0  0  0  0  0
    6.9096   -3.6536    4.9365 C   0  0  0  0  0  0  0  0  0  0  0  0
    6.2527   -3.3285    6.0796 F   0  0  0  0  0  0  0  0  0  0  0  0
    6.2866   -4.4762    3.9911 C   0  0  0  0  0  0  0  0  0  0  0  0
    5.8532   -6.9608    2.0683 C   0  0  0  0  0  0  0  0  0  0  0  0
    5.2051   -7.7691    1.1284 C   0  0  0  0  0  0  0  0  0  0  0  0
    4.9490   -7.2922   -0.1779 C   0  0  0  0  0  0  0  0  0  0  0  0
    4.1551   -8.0703   -1.1564 C   0  0  0  0  0  0  0  0  0  0  0  0
    4.6894   -8.4022   -2.4107 C   0  0  0  0  0  0  0  0  0  0  0  0
    3.9199   -9.1094   -3.3400 C   0  0  0  0  0  0  0  0  0  0  0  0
    2.6122   -9.4961   -3.0214 C   0  0  0  0  0  0  0  0  0  0  0  0
    1.6305  -10.4273   -4.2086 S   0  0  0  0  0  0  0  0  0  0  0  0
    0.7041   -8.9819   -4.8369 C   0  0  0  0  0  0  0  0  0  0  0  0
    1.5095   -8.2317   -5.8884 C   0  0  0  0  0  0  0  0  0  0  0  0
    2.0822   -9.1839   -1.7635 C   0  0  0  0  0  0  0  0  0  0  0  0
    2.8436   -8.4626   -0.8417 C   0  0  0  0  0  0  0  0  0  0  0  0
    0.8234   -9.5698   -1.4381 F   0  0  0  0  0  0  0  0  0  0  0  0
    5.4065   -5.9948   -0.4764 C   0  0  0  0  0  0  0  0  0  0  0  0
    5.2172   -5.1208   -1.9069 S   0  0  0  0  0  0  0  0  0  0  0  0
    4.8853   -9.0425    1.6309 C   0  0  0  0  0  0  0  0  0  0  0  0
    5.2764   -9.2271    2.9544 C   0  0  0  0  0  0  0  0  0  0  0  0
    6.0264   -7.8214    3.5030 S   0  0  0  0  0  0  0  0  0  0  0  0
   -4.6370    3.3482   12.4848 H   0  0  0  0  0  0  0  0  0  0  0  0
   -5.5551    4.6666   10.4407 H   0  0  0  0  0  0  0  0  0  0  0  0
   -4.7567    5.0405    6.2620 H   0  0  0  0  0  0  0  0  0  0  0  0
   -5.4855    7.3557    5.8473 H   0  0  0  0  0  0  0  0  0  0  0  0
   -5.4329    9.2349    8.0153 H   0  0  0  0  0  0  0  0  0  0  0  0
   -6.3033   10.7930    7.8233 H   0  0  0  0  0  0  0  0  0  0  0  0
   -7.9348   10.1009    9.6231 H   0  0  0  0  0  0  0  0  0  0  0  0
   -6.9537    8.5969    9.8849 H   0  0  0  0  0  0  0  0  0  0  0  0
   -6.2279   10.2121   10.2032 H   0  0  0  0  0  0  0  0  0  0  0  0
   -7.9574    4.5501    9.1089 H   0  0  0  0  0  0  0  0  0  0  0  0
   -6.0816   -1.2652   10.1963 H   0  0  0  0  0  0  0  0  0  0  0  0
   -5.2963   -3.5548   10.6541 H   0  0  0  0  0  0  0  0  0  0  0  0
   -1.9304   -5.5865   11.6216 H   0  0  0  0  0  0  0  0  0  0  0  0
   -2.5677   -3.9059   11.6153 H   0  0  0  0  0  0  0  0  0  0  0  0
   -0.0580   -4.0216   11.4227 H   0  0  0  0  0  0  0  0  0  0  0  0
   -0.8034   -3.2258    9.9915 H   0  0  0  0  0  0  0  0  0  0  0  0
   -0.2226   -4.9409    9.8790 H   0  0  0  0  0  0  0  0  0  0  0  0
   -2.9471   -0.7822    7.2756 H   0  0  0  0  0  0  0  0  0  0  0  0
   -5.1707   -0.8593    5.9502 H   0  0  0  0  0  0  0  0  0  0  0  0
   -6.5196    2.1566    2.3822 H   0  0  0  0  0  0  0  0  0  0  0  0
   -4.6709    3.4276    0.2161 H   0  0  0  0  0  0  0  0  0  0  0  0
   -5.6479    5.6568   -0.1883 H   0  0  0  0  0  0  0  0  0  0  0  0
   -6.6429    6.4711   -2.9639 H   0  0  0  0  0  0  0  0  0  0  0  0
   -8.2317    5.7503   -3.4443 H   0  0  0  0  0  0  0  0  0  0  0  0
   -9.2621    8.0351   -3.4310 H   0  0  0  0  0  0  0  0  0  0  0  0
   -7.6545    8.7451   -2.9838 H   0  0  0  0  0  0  0  0  0  0  0  0
   -7.8729    7.9261   -4.5780 H   0  0  0  0  0  0  0  0  0  0  0  0
   -8.3429    1.5875   -1.0895 H   0  0  0  0  0  0  0  0  0  0  0  0
   -5.9363   -3.7585    1.3667 H   0  0  0  0  0  0  0  0  0  0  0  0
   -4.9177   -5.9438    1.8659 H   0  0  0  0  0  0  0  0  0  0  0  0
   -1.9680   -7.1185   -0.8719 H   0  0  0  0  0  0  0  0  0  0  0  0
   -3.6446   -7.5674   -0.3563 H   0  0  0  0  0  0  0  0  0  0  0  0
   -1.1345   -9.2776    0.1804 H   0  0  0  0  0  0  0  0  0  0  0  0
   -2.8528   -9.7249    0.5210 H   0  0  0  0  0  0  0  0  0  0  0  0
   -2.2890   -9.5316   -1.1856 H   0  0  0  0  0  0  0  0  0  0  0  0
   -2.1429   -2.3315   -0.1074 H   0  0  0  0  0  0  0  0  0  0  0  0
   -3.7587   -2.5432   -2.1881 H   0  0  0  0  0  0  0  0  0  0  0  0
   -5.6007    0.9950   -5.5071 H   0  0  0  0  0  0  0  0  0  0  0  0
   -5.5403    0.4551   -7.1858 H   0  0  0  0  0  0  0  0  0  0  0  0
   -7.5997   -0.3508   -6.1664 H   0  0  0  0  0  0  0  0  0  0  0  0
   -6.6977   -1.1855   -4.8523 H   0  0  0  0  0  0  0  0  0  0  0  0
   -6.5423   -1.7611   -6.5577 H   0  0  0  0  0  0  0  0  0  0  0  0
   -2.2822   -0.4476   -8.7725 H   0  0  0  0  0  0  0  0  0  0  0  0
   -3.7304    0.5106   -8.4330 H   0  0  0  0  0  0  0  0  0  0  0  0
   -3.6451   -2.5433   -8.9613 H   0  0  0  0  0  0  0  0  0  0  0  0
   -5.1483   -1.5819   -8.6508 H   0  0  0  0  0  0  0  0  0  0  0  0
   -4.1665   -1.2687  -10.1286 H   0  0  0  0  0  0  0  0  0  0  0  0
   -0.5652   -2.8626   -7.2347 H   0  0  0  0  0  0  0  0  0  0  0  0
    1.1052   -1.2153   -7.6001 H   0  0  0  0  0  0  0  0  0  0  0  0
   -1.0584    0.9110   -6.7989 H   0  0  0  0  0  0  0  0  0  0  0  0
    1.9843    0.9555   -6.8359 H   0  0  0  0  0  0  0  0  0  0  0  0
   -0.8775    1.6803   -4.6167 H   0  0  0  0  0  0  0  0  0  0  0  0
   -1.1166    3.1747   -3.7225 H   0  0  0  0  0  0  0  0  0  0  0  0
   -2.9545    3.8798   -5.1417 H   0  0  0  0  0  0  0  0  0  0  0  0
   -2.5659    2.6501   -6.4058 H   0  0  0  0  0  0  0  0  0  0  0  0
   -3.2161    2.1430   -4.8000 H   0  0  0  0  0  0  0  0  0  0  0  0
   -1.3642    5.3836   -4.0680 H   0  0  0  0  0  0  0  0  0  0  0  0
   -0.1387    6.6336   -4.3850 H   0  0  0  0  0  0  0  0  0  0  0  0
   -2.3985    7.2306   -5.3031 H   0  0  0  0  0  0  0  0  0  0  0  0
   -1.1542    7.1330   -6.6040 H   0  0  0  0  0  0  0  0  0  0  0  0
   -2.3422    5.7910   -6.3901 H   0  0  0  0  0  0  0  0  0  0  0  0
    1.2922    7.3668   -6.9293 H   0  0  0  0  0  0  0  0  0  0  0  0
    3.4447    7.8810   -5.9921 H   0  0  0  0  0  0  0  0  0  0  0  0
    3.2272    5.7045   -4.0155 H   0  0  0  0  0  0  0  0  0  0  0  0
    5.0833    5.3510   -6.4141 H   0  0  0  0  0  0  0  0  0  0  0  0
    5.6966    2.7188   -6.3403 H   0  0  0  0  0  0  0  0  0  0  0  0
    8.3969   -0.2662   -5.7066 H   0  0  0  0  0  0  0  0  0  0  0  0
    8.8994   -0.9132   -8.0333 H   0  0  0  0  0  0  0  0  0  0  0  0
    6.0387   -3.2202   -9.7920 H   0  0  0  0  0  0  0  0  0  0  0  0
    7.7826   -3.2977   -9.3140 H   0  0  0  0  0  0  0  0  0  0  0  0
    8.4324   -3.5052  -11.7231 H   0  0  0  0  0  0  0  0  0  0  0  0
    7.3265   -4.8345  -11.2032 H   0  0  0  0  0  0  0  0  0  0  0  0
    6.6806   -3.4666  -12.1886 H   0  0  0  0  0  0  0  0  0  0  0  0
    4.2326    0.1461   -6.7217 H   0  0  0  0  0  0  0  0  0  0  0  0
    3.2594    0.5427   -0.5092 H   0  0  0  0  0  0  0  0  0  0  0  0
    2.8281    1.0685    1.8584 H   0  0  0  0  0  0  0  0  0  0  0  0
    4.6521    0.0936    3.8082 H   0  0  0  0  0  0  0  0  0  0  0  0
    4.6946    0.7660    5.4719 H   0  0  0  0  0  0  0  0  0  0  0  0
    6.9359    0.9853    3.3678 H   0  0  0  0  0  0  0  0  0  0  0  0
    6.9469    1.8042    4.9863 H   0  0  0  0  0  0  0  0  0  0  0  0
    6.9364    0.0016    4.8731 H   0  0  0  0  0  0  0  0  0  0  0  0
    6.9210    2.8119   -0.3435 H   0  0  0  0  0  0  0  0  0  0  0  0
    5.5756   -1.0872   -0.3300 H   0  0  0  0  0  0  0  0  0  0  0  0
    6.7270   -3.1012    0.6085 H   0  0  0  0  0  0  0  0  0  0  0  0
    8.7634   -4.5656    1.6504 H   0  0  0  0  0  0  0  0  0  0  0  0
    9.8530   -3.1035    3.3065 H   0  0  0  0  0  0  0  0  0  0  0  0
    9.5279   -4.4525    6.4635 H   0  0  0  0  0  0  0  0  0  0  0  0
    9.8866   -3.3155    7.8058 H   0  0  0  0  0  0  0  0  0  0  0  0
   11.9707   -4.2223    6.7655 H   0  0  0  0  0  0  0  0  0  0  0  0
   11.4935   -3.5046    5.1827 H   0  0  0  0  0  0  0  0  0  0  0  0
   11.8593   -2.4286    6.5905 H   0  0  0  0  0  0  0  0  0  0  0  0
    5.2826   -4.8390    4.1795 H   0  0  0  0  0  0  0  0  0  0  0  0
    5.7025   -8.1161   -2.6688 H   0  0  0  0  0  0  0  0  0  0  0  0
    4.3421   -9.3648   -4.3036 H   0  0  0  0  0  0  0  0  0  0  0  0
    0.4273   -8.2958   -4.0078 H   0  0  0  0  0  0  0  0  0  0  0  0
   -0.2347   -9.3499   -5.3030 H   0  0  0  0  0  0  0  0  0  0  0  0
    2.4310   -7.8076   -5.4403 H   0  0  0  0  0  0  0  0  0  0  0  0
    1.7856   -8.9159   -6.7179 H   0  0  0  0  0  0  0  0  0  0  0  0
    0.9012   -7.3989   -6.2995 H   0  0  0  0  0  0  0  0  0  0  0  0
    2.4097   -8.2011    0.1156 H   0  0  0  0  0  0  0  0  0  0  0  0
    4.3969   -9.8167    1.0559 H   0  0  0  0  0  0  0  0  0  0  0  0
    5.1243  -10.1257    3.5356 H   0  0  0  0  0  0  0  0  0  0  0  0
  1  2  2  0
  2  3  1  0
  3  4  2  0
  4  5  1  0
  5  6  2  0
  6  7  1  0
  7  8  2  0
  8  9  1  0
  9 10  1  0
 10 11  1  0
  8 12  1  0
 12 13  1  0
 12 14  2  0
  4 15  1  0
 15 16  2  0
 16 17  1  0
 17 18  1  0
 18 19  2  0
 19 20  1  0
 20 21  2  0
 21 22  1  0
 22 23  1  0
 23 24  1  0
 21 25  1  0
 25 26  2  0
 25 27  1  0
 17 28  2  0
 28 29  1  0
 16 30  1  0
 30 31  2  0
 31 32  1  0
 31 33  1  0
 33 34  2  0
 34 35  1  0
 35 36  2  0
 36 37  1  0
 37 38  2  0
 38 39  1  0
 39 40  2  0
 40 41  1  0
 41 42  1  0
 42 43  1  0
 40 44  1  0
 44 45  1  0
 44 46  2  0
 36 47  1  0
 47 48  2  0
 48 49  1  0
 49 50  1  0
 50 51  2  0
 51 52  1  0
 52 53  2  0
 53 54  1  0
 54 55  1  0
 55 56  1  0
 53 57  1  0
 57 58  2  0
 57 59  1  0
 49 60  2  0
 60 61  1  0
 48 62  1  0
 62 63  2  0
 63 64  1  0
 63 65  1  0
 65 66  1  0
 66 67  1  0
 67 68  2  0
 68 69  1  0
 69 70  1  0
 70 71  1  0
 68 72  1  0
 72 73  1  0
 67 74  1  0
 74 75  2  3
 75 76  1  0
 76 77  2  3
 77 78  1  0
 78 79  1  0
 79 80  1  0
 80 81  2  0
 81 82  1  0
 82 83  1  0
 83 84  1  0
 81 85  1  0
 85 86  1  0
 80 87  1  0
 87 88  2  3
 88 89  1  0
 89 90  2  3
 90 91  1  0
 91 92  2  0
 92 93  1  0
 93 94  2  0
 94 95  1  0
 95 96  2  0
 96 97  1  0
 97 98  2  0
 98 99  1  0
 99100  1  0
100101  1  0
 98102  1  0
102103  1  0
102104  2  0
 94105  1  0
105106  2  0
106107  1  0
107108  1  0
108109  2  0
109110  1  0
110111  2  0
111112  1  0
112113  1  0
113114  1  0
111115  1  0
115116  2  0
115117  1  0
107118  2  0
118119  1  0
106120  1  0
120121  2  0
121122  1  0
121123  1  0
123124  2  0
124125  1  0
125126  2  0
126127  1  0
127128  2  0
128129  1  0
129130  2  0
130131  1  0
131132  1  0
132133  1  0
130134  1  0
134135  1  0
134136  2  0
126137  1  0
137138  2  0
138139  1  0
139140  1  0
140141  2  0
141142  1  0
142143  2  0
143144  1  0
144145  1  0
145146  1  0
143147  1  0
147148  2  0
147149  1  0
139150  2  0
150151  1  0
138152  1  0
152153  2  0
153154  1  0
 29  1  1  0
 61 33  1  0
 69 65  2  0
 82 78  2  0
119 91  1  0
151123  1  0
 28  3  1  0
 60 35  1  0
118 93  1  0
150125  1  0
 14  5  1  0
 32 15  1  0
 46 37  1  0
 64 47  1  0
104 95  1  0
122105  1  0
136127  1  0
154137  1  0
 26 18  1  0
 58 50  1  0
116108  1  0
148140  1  0
  1155  1  0
  2156  1  0
  6157  1  0
  7158  1  0
 10159  1  0
 10160  1  0
 11161  1  0
 11162  1  0
 11163  1  0
 14164  1  0
 19165  1  0
 20166  1  0
 23167  1  0
 23168  1  0
 24169  1  0
 24170  1  0
 24171  1  0
 26172  1  0
 30173  1  0
 34174  1  0
 38175  1  0
 39176  1  0
 42177  1  0
 42178  1  0
 43179  1  0
 43180  1  0
 43181  1  0
 46182  1  0
 51183  1  0
 52184  1  0
 55185  1  0
 55186  1  0
 56187  1  0
 56188  1  0
 56189  1  0
 58190  1  0
 62191  1  0
 70192  1  0
 70193  1  0
 71194  1  0
 71195  1  0
 71196  1  0
 72197  1  0
 72198  1  0
 73199  1  0
 73200  1  0
 73201  1  0
 74202  1  0
 75203  1  0
 76204  1  0
 77205  1  0
 83206  1  0
 83207  1  0
 84208  1  0
 84209  1  0
 84210  1  0
 85211  1  0
 85212  1  0
 86213  1  0
 86214  1  0
 86215  1  0
 87216  1  0
 88217  1  0
 89218  1  0
 90219  1  0
 92220  1  0
 96221  1  0
 97222  1  0
100223  1  0
100224  1  0
101225  1  0
101226  1  0
101227  1  0
104228  1  0
109229  1  0
110230  1  0
113231  1  0
113232  1  0
114233  1  0
114234  1  0
114235  1  0
116236  1  0
120237  1  0
124238  1  0
128239  1  0
129240  1  0
132241  1  0
132242  1  0
133243  1  0
133244  1  0
133245  1  0
136246  1  0
141247  1  0
142248  1  0
145249  1  0
145250  1  0
146251  1  0
146252  1  0
146253  1  0
148254  1  0
152255  1  0
153256  1  0
M  END

