
     RDKit          3D

238261  0  0  0  0  0  0  0  0999 V2000
   -3.7628  -12.2192    0.7412 C   0  0  0  0  0  0  0  0  0  0  0  0
   -3.9183  -11.8178   -0.5826 C   0  0  0  0  0  0  0  0  0  0  0  0
   -4.6442  -10.6230   -0.7180 C   0  0  0  0  0  0  0  0  0  0  0  0
   -4.9504   -9.9617   -1.9271 C   0  0  0  0  0  0  0  0  0  0  0  0
   -4.4062  -10.3991   -3.2285 C   0  0  0  0  0  0  0  0  0  0  0  0
   -5.2661  -10.7395   -4.2828 C   0  0  0  0  0  0  0  0  0  0  0  0
   -4.7520  -11.0109   -5.5537 C   0  0  0  0  0  0  0  0  0  0  0  0
   -3.3730  -10.9375   -5.7848 C   0  0  0  0  0  0  0  0  0  0  0  0
   -2.7386  -11.2062   -7.4454 S   0  0  0  0  0  0  0  0  0  0  0  0
   -2.5283  -13.0139   -7.2638 C   0  0  0  0  0  0  0  0  0  0  0  0
   -3.1597  -13.7235   -8.4528 C   0  0  0  0  0  0  0  0  0  0  0  0
   -2.5052  -10.6160   -4.7313 C   0  0  0  0  0  0  0  0  0  0  0  0
   -1.1694  -10.5187   -4.9467 F   0  0  0  0  0  0  0  0  0  0  0  0
   -3.0203  -10.3500   -3.4582 C   0  0  0  0  0  0  0  0  0  0  0  0
   -5.7031   -8.7802   -1.8264 C   0  0  0  0  0  0  0  0  0  0  0  0
   -6.1008   -8.2370   -0.5994 C   0  0  0  0  0  0  0  0  0  0  0  0
   -5.7826   -8.8934    0.6078 C   0  0  0  0  0  0  0  0  0  0  0  0
   -6.1367   -8.3196    1.9205 C   0  0  0  0  0  0  0  0  0  0  0  0
   -7.4809   -8.2208    2.3103 C   0  0  0  0  0  0  0  0  0  0  0  0
   -7.8166   -7.6482    3.5398 C   0  0  0  0  0  0  0  0  0  0  0  0
   -6.8136   -7.1595    4.3873 C   0  0  0  0  0  0  0  0  0  0  0  0
   -7.2579   -6.4141    5.9578 S   0  0  0  0  0  0  0  0  0  0  0  0
   -7.0232   -7.9609    6.8932 C   0  0  0  0  0  0  0  0  0  0  0  0
   -7.4274   -7.7586    8.3447 C   0  0  0  0  0  0  0  0  0  0  0  0
   -5.4682   -7.2471    3.9980 C   0  0  0  0  0  0  0  0  0  0  0  0
   -5.1316   -7.8355    2.7724 C   0  0  0  0  0  0  0  0  0  0  0  0
   -4.4860   -6.7755    4.8047 F   0  0  0  0  0  0  0  0  0  0  0  0
   -5.0587  -10.0931    0.5076 C   0  0  0  0  0  0  0  0  0  0  0  0
   -4.5270  -11.1002    1.7458 S   0  0  0  0  0  0  0  0  0  0  0  0
   -6.7159   -6.9794   -0.7206 C   0  0  0  0  0  0  0  0  0  0  0  0
   -6.7944   -6.5391   -2.0428 C   0  0  0  0  0  0  0  0  0  0  0  0
   -6.1101   -7.7060   -3.0503 S   0  0  0  0  0  0  0  0  0  0  0  0
   -7.1010   -5.1678   -2.4768 C   0  0  0  0  0  0  0  0  0  0  0  0
   -7.0356   -4.0390   -1.6589 C   0  0  0  0  0  0  0  0  0  0  0  0
   -6.9550   -2.8408   -2.3869 C   0  0  0  0  0  0  0  0  0  0  0  0
   -6.6685   -1.5681   -1.8521 C   0  0  0  0  0  0  0  0  0  0  0  0
   -6.5616   -1.3413   -0.3983 C   0  0  0  0  0  0  0  0  0  0  0  0
   -5.3158   -1.0643    0.1871 C   0  0  0  0  0  0  0  0  0  0  0  0
   -5.2286   -0.7857    1.5532 C   0  0  0  0  0  0  0  0  0  0  0  0
   -6.3837   -0.7762    2.3452 C   0  0  0  0  0  0  0  0  0  0  0  0
   -6.2740   -0.3232    4.0770 S   0  0  0  0  0  0  0  0  0  0  0  0
   -6.4205    1.4625    3.7261 C   0  0  0  0  0  0  0  0  0  0  0  0
   -6.5402    2.2453    5.0252 C   0  0  0  0  0  0  0  0  0  0  0  0
   -7.6239   -1.0871    1.7708 C   0  0  0  0  0  0  0  0  0  0  0  0
   -8.7488   -1.0894    2.5285 F   0  0  0  0  0  0  0  0  0  0  0  0
   -7.7094   -1.3784    0.4045 C   0  0  0  0  0  0  0  0  0  0  0  0
   -6.3640   -0.5490   -2.7709 C   0  0  0  0  0  0  0  0  0  0  0  0
   -6.3810   -0.7465   -4.1526 C   0  0  0  0  0  0  0  0  0  0  0  0
   -6.7506   -1.9979   -4.6845 C   0  0  0  0  0  0  0  0  0  0  0  0
   -6.7577   -2.2615   -6.1334 C   0  0  0  0  0  0  0  0  0  0  0  0
   -5.6008   -2.7253   -6.7733 C   0  0  0  0  0  0  0  0  0  0  0  0
   -5.6288   -3.0223   -8.1411 C   0  0  0  0  0  0  0  0  0  0  0  0
   -6.8126   -2.8724   -8.8702 C   0  0  0  0  0  0  0  0  0  0  0  0
   -6.8409   -3.2857  -10.6202 S   0  0  0  0  0  0  0  0  0  0  0  0
   -7.1569   -5.0704  -10.3683 C   0  0  0  0  0  0  0  0  0  0  0  0
   -8.6284   -5.3351  -10.0715 C   0  0  0  0  0  0  0  0  0  0  0  0
   -7.9646   -2.3793   -8.2379 C   0  0  0  0  0  0  0  0  0  0  0  0
   -7.9370   -2.0805   -6.8718 C   0  0  0  0  0  0  0  0  0  0  0  0
   -9.1102   -2.1964   -8.9414 F   0  0  0  0  0  0  0  0  0  0  0  0
   -7.0036   -3.0306   -3.7701 C   0  0  0  0  0  0  0  0  0  0  0  0
   -7.1192   -4.6750   -4.0930 S   0  0  0  0  0  0  0  0  0  0  0  0
   -5.8619    0.3390   -4.8793 C   0  0  0  0  0  0  0  0  0  0  0  0
   -5.3921    1.3806   -4.0649 C   0  0  0  0  0  0  0  0  0  0  0  0
   -5.7108    0.9597   -2.4564 S   0  0  0  0  0  0  0  0  0  0  0  0
   -4.4541    2.4761   -4.4251 C   0  0  0  0  0  0  0  0  0  0  0  0
   -3.6852    3.3931   -3.2393 S   0  0  0  0  0  0  0  0  0  0  0  0
   -2.5168    4.0896   -4.2085 C   0  0  0  0  0  0  0  0  0  0  0  0
   -2.6778    3.5921   -5.4977 C   0  0  0  0  0  0  0  0  0  0  0  0
   -3.7920    2.7283   -5.6407 C   0  0  0  0  0  0  0  0  0  0  0  0
   -4.0871    2.0323   -6.9454 C   0  0  0  0  0  0  0  0  0  0  0  0
   -3.3226    2.6446   -8.1355 C   0  0  2  0  0  0  0  0  0  0  0  0
   -3.4002    1.5165   -9.5742 S   0  0  0  0  0  0  0  0  0  0  0  0
   -1.8565    2.8990   -7.7619 C   0  0  0  0  0  0  0  0  0  0  0  0
   -1.7692    3.9474   -6.6467 C   0  0  0  0  0  0  0  0  0  0  0  0
   -1.3170    4.7309   -3.6615 C   0  0  0  0  0  0  0  0  0  0  0  0
    0.0338    3.8769   -3.1543 S   0  0  0  0  0  0  0  0  0  0  0  0
    0.7735    5.1310   -2.3080 C   0  0  0  0  0  0  0  0  0  0  0  0
   -0.0483    6.2604   -2.4204 C   0  0  0  0  0  0  0  0  0  0  0  0
   -1.2200    6.0208   -3.1538 C   0  0  0  0  0  0  0  0  0  0  0  0
   -2.2642    7.0895   -3.2844 C   0  0  0  0  0  0  0  0  0  0  0  0
   -2.3516    7.8461   -1.9520 C   0  0  2  0  0  0  0  0  0  0  0  0
   -3.6367    9.1410   -2.0343 S   0  0  0  0  0  0  0  0  0  0  0  0
   -0.9871    8.4468   -1.5094 C   0  0  0  0  0  0  0  0  0  0  0  0
    0.2692    7.6648   -1.9837 C   0  0  0  0  0  0  0  0  0  0  0  0
    1.9770    4.9339   -1.4769 C   0  0  0  0  0  0  0  0  0  0  0  0
    2.2185    5.4819   -0.2133 C   0  0  0  0  0  0  0  0  0  0  0  0
    3.3393    4.9259    0.4226 C   0  0  0  0  0  0  0  0  0  0  0  0
    3.8346    5.2822    1.6888 C   0  0  0  0  0  0  0  0  0  0  0  0
    3.2728    6.3914    2.4775 C   0  0  0  0  0  0  0  0  0  0  0  0
    2.4447    6.1242    3.5768 C   0  0  0  0  0  0  0  0  0  0  0  0
    2.0335    7.1649    4.4132 C   0  0  0  0  0  0  0  0  0  0  0  0
    2.4443    8.4782    4.1582 C   0  0  0  0  0  0  0  0  0  0  0  0
    2.0096    9.7850    5.3125 S   0  0  0  0  0  0  0  0  0  0  0  0
    0.5222   10.3532    4.4117 C   0  0  0  0  0  0  0  0  0  0  0  0
   -0.6792   10.3536    5.3464 C   0  0  0  0  0  0  0  0  0  0  0  0
    3.2499    8.7520    3.0430 C   0  0  0  0  0  0  0  0  0  0  0  0
    3.6701   10.0176    2.7933 F   0  0  0  0  0  0  0  0  0  0  0  0
    3.6538    7.7107    2.2005 C   0  0  0  0  0  0  0  0  0  0  0  0
    4.9339    4.5551    2.1715 C   0  0  0  0  0  0  0  0  0  0  0  0
    5.5338    3.5145    1.4562 C   0  0  0  0  0  0  0  0  0  0  0  0
    5.0522    3.1692    0.1729 C   0  0  0  0  0  0  0  0  0  0  0  0
    5.6774    2.1120   -0.6526 C   0  0  0  0  0  0  0  0  0  0  0  0
    7.0032    2.2405   -1.0888 C   0  0  0  0  0  0  0  0  0  0  0  0
    7.5532    1.2939   -1.9628 C   0  0  0  0  0  0  0  0  0  0  0  0
    6.7789    0.2173   -2.4099 C   0  0  0  0  0  0  0  0  0  0  0  0
    7.4573   -0.9398   -3.6027 S   0  0  0  0  0  0  0  0  0  0  0  0
    8.0180   -2.1218   -2.3335 C   0  0  0  0  0  0  0  0  0  0  0  0
    8.6103   -3.3533   -3.0045 C   0  0  0  0  0  0  0  0  0  0  0  0
    5.4603    0.0729   -1.9591 C   0  0  0  0  0  0  0  0  0  0  0  0
    4.9144    1.0142   -1.0819 C   0  0  0  0  0  0  0  0  0  0  0  0
    4.7020   -0.9692   -2.3778 F   0  0  0  0  0  0  0  0  0  0  0  0
    3.9499    3.9071   -0.3113 C   0  0  0  0  0  0  0  0  0  0  0  0
    3.1294    3.7289   -1.7666 S   0  0  0  0  0  0  0  0  0  0  0  0
    6.6075    2.9199    2.1536 C   0  0  0  0  0  0  0  0  0  0  0  0
    6.8576    3.5413    3.3793 C   0  0  0  0  0  0  0  0  0  0  0  0
    5.7535    4.7921    3.6150 S   0  0  0  0  0  0  0  0  0  0  0  0
    7.9647    3.2727    4.2975 C   0  0  0  0  0  0  0  0  0  0  0  0
    8.7026    4.2710    4.9207 C   0  0  0  0  0  0  0  0  0  0  0  0
    9.5701    3.7804    5.9028 C   0  0  0  0  0  0  0  0  0  0  0  0
   10.4220    4.5572    6.7116 C   0  0  0  0  0  0  0  0  0  0  0  0
   10.4276    6.0314    6.6257 C   0  0  0  0  0  0  0  0  0  0  0  0
   11.5450    6.7146    6.1226 C   0  0  0  0  0  0  0  0  0  0  0  0
   11.4984    8.1010    5.9479 C   0  0  0  0  0  0  0  0  0  0  0  0
   10.3336    8.8132    6.2662 C   0  0  0  0  0  0  0  0  0  0  0  0
   10.2535   10.5803    5.9535 S   0  0  0  0  0  0  0  0  0  0  0  0
    9.7355   10.4200    4.2053 C   0  0  0  0  0  0  0  0  0  0  0  0
    8.2366   10.1733    4.0908 C   0  0  0  0  0  0  0  0  0  0  0  0
    9.2357    8.1391    6.8185 C   0  0  0  0  0  0  0  0  0  0  0  0
    8.1181    8.8192    7.1758 F   0  0  0  0  0  0  0  0  0  0  0  0
    9.2833    6.7532    6.9908 C   0  0  0  0  0  0  0  0  0  0  0  0
   11.2010    3.8713    7.6549 C   0  0  0  0  0  0  0  0  0  0  0  0
   11.1180    2.4879    7.8322 C   0  0  0  0  0  0  0  0  0  0  0  0
   10.2487    1.7119    7.0363 C   0  0  0  0  0  0  0  0  0  0  0  0
   10.0453    0.2774    7.3078 C   0  0  0  0  0  0  0  0  0  0  0  0
   10.9582   -0.6722    6.8303 C   0  0  0  0  0  0  0  0  0  0  0  0
   10.8199   -2.0185    7.1863 C   0  0  0  0  0  0  0  0  0  0  0  0
    9.7746   -2.4232    8.0264 C   0  0  0  0  0  0  0  0  0  0  0  0
    9.6448   -4.1454    8.5243 S   0  0  0  0  0  0  0  0  0  0  0  0
    8.6549   -4.6725    7.0825 C   0  0  0  0  0  0  0  0  0  0  0  0
    7.1703   -4.4339    7.3249 C   0  0  0  0  0  0  0  0  0  0  0  0
    8.8679   -1.4717    8.5127 C   0  0  0  0  0  0  0  0  0  0  0  0
    8.9986   -0.1274    8.1494 C   0  0  0  0  0  0  0  0  0  0  0  0
    7.8737   -1.8392    9.3599 F   0  0  0  0  0  0  0  0  0  0  0  0
    9.5013    2.3915    6.0572 C   0  0  0  0  0  0  0  0  0  0  0  0
    8.3727    1.7702    4.9662 S   0  0  0  0  0  0  0  0  0  0  0  0
   11.9302    2.0191    8.8788 C   0  0  0  0  0  0  0  0  0  0  0  0
   12.6468    3.0305    9.5146 C   0  0  0  0  0  0  0  0  0  0  0  0
   12.2677    4.5076    8.7883 S   0  0  0  0  0  0  0  0  0  0  0  0
   -3.2347  -13.0982    1.0726 H   0  0  0  0  0  0  0  0  0  0  0  0
   -3.5149  -12.3804   -1.4165 H   0  0  0  0  0  0  0  0  0  0  0  0
   -6.3368  -10.7689   -4.1246 H   0  0  0  0  0  0  0  0  0  0  0  0
   -5.4264  -11.2538   -6.3634 H   0  0  0  0  0  0  0  0  0  0  0  0
   -2.9994  -13.3931   -6.3283 H   0  0  0  0  0  0  0  0  0  0  0  0
   -1.4416  -13.2495   -7.2333 H   0  0  0  0  0  0  0  0  0  0  0  0
   -3.0422  -14.8198   -8.3361 H   0  0  0  0  0  0  0  0  0  0  0  0
   -2.6697  -13.4075   -9.3991 H   0  0  0  0  0  0  0  0  0  0  0  0
   -4.2435  -13.4852   -8.5054 H   0  0  0  0  0  0  0  0  0  0  0  0
   -2.3450  -10.0600   -2.6613 H   0  0  0  0  0  0  0  0  0  0  0  0
   -8.2661   -8.5886    1.6614 H   0  0  0  0  0  0  0  0  0  0  0  0
   -8.8555   -7.5766    3.8297 H   0  0  0  0  0  0  0  0  0  0  0  0
   -7.6460   -8.7682    6.4507 H   0  0  0  0  0  0  0  0  0  0  0  0
   -5.9548   -8.2576    6.8511 H   0  0  0  0  0  0  0  0  0  0  0  0
   -8.5065   -7.4999    8.4107 H   0  0  0  0  0  0  0  0  0  0  0  0
   -7.2423   -8.6931    8.9151 H   0  0  0  0  0  0  0  0  0  0  0  0
   -6.8245   -6.9416    8.7988 H   0  0  0  0  0  0  0  0  0  0  0  0
   -4.0893   -7.8978    2.4803 H   0  0  0  0  0  0  0  0  0  0  0  0
   -7.0280   -6.3771    0.1230 H   0  0  0  0  0  0  0  0  0  0  0  0
   -6.9177   -4.0870   -0.5855 H   0  0  0  0  0  0  0  0  0  0  0  0
   -4.4184   -1.0527   -0.4177 H   0  0  0  0  0  0  0  0  0  0  0  0
   -4.2666   -0.5559    1.9925 H   0  0  0  0  0  0  0  0  0  0  0  0
   -5.5177    1.8039    3.1745 H   0  0  0  0  0  0  0  0  0  0  0  0
   -7.3221    1.6538    3.1033 H   0  0  0  0  0  0  0  0  0  0  0  0
   -6.6115    3.3304    4.7987 H   0  0  0  0  0  0  0  0  0  0  0  0
   -5.6460    2.0710    5.6627 H   0  0  0  0  0  0  0  0  0  0  0  0
   -7.4553    1.9336    5.5743 H   0  0  0  0  0  0  0  0  0  0  0  0
   -8.6761   -1.6023   -0.0343 H   0  0  0  0  0  0  0  0  0  0  0  0
   -4.6866   -2.8658   -6.2113 H   0  0  0  0  0  0  0  0  0  0  0  0
   -4.7305   -3.3844   -8.6239 H   0  0  0  0  0  0  0  0  0  0  0  0
   -6.8831   -5.6009  -11.3048 H   0  0  0  0  0  0  0  0  0  0  0  0
   -6.5242   -5.4752   -9.5486 H   0  0  0  0  0  0  0  0  0  0  0  0
   -8.8150   -6.4301  -10.0567 H   0  0  0  0  0  0  0  0  0  0  0  0
   -9.2677   -4.8757  -10.8560 H   0  0  0  0  0  0  0  0  0  0  0  0
   -8.9039   -4.9225   -9.0788 H   0  0  0  0  0  0  0  0  0  0  0  0
   -8.8345   -1.7175   -6.3852 H   0  0  0  0  0  0  0  0  0  0  0  0
   -5.7651    0.3008   -5.9494 H   0  0  0  0  0  0  0  0  0  0  0  0
   -5.1738    2.1061   -7.1619 H   0  0  0  0  0  0  0  0  0  0  0  0
   -3.7958    0.9678   -6.8461 H   0  0  0  0  0  0  0  0  0  0  0  0
   -3.8026    3.6056   -8.4280 H   0  0  0  0  0  0  0  0  0  0  0  0
   -4.7919    1.6690   -9.7135 H   0  0  0  0  0  0  0  0  0  0  0  0
   -1.3926    1.9547   -7.4089 H   0  0  0  0  0  0  0  0  0  0  0  0
   -1.2876    3.2564   -8.6454 H   0  0  0  0  0  0  0  0  0  0  0  0
   -0.7161    4.0221   -6.3011 H   0  0  0  0  0  0  0  0  0  0  0  0
   -2.0753    4.9371   -7.0485 H   0  0  0  0  0  0  0  0  0  0  0  0
   -1.9690    7.7846   -4.1003 H   0  0  0  0  0  0  0  0  0  0  0  0
   -3.2512    6.6505   -3.5300 H   0  0  0  0  0  0  0  0  0  0  0  0
   -2.6757    7.1213   -1.1732 H   0  0  0  0  0  0  0  0  0  0  0  0
   -3.0038    9.8462   -3.0789 H   0  0  0  0  0  0  0  0  0  0  0  0
   -0.8957    9.4960   -1.8738 H   0  0  0  0  0  0  0  0  0  0  0  0
   -0.9775    8.4989   -0.3978 H   0  0  0  0  0  0  0  0  0  0  0  0
    0.6987    8.1896   -2.8640 H   0  0  0  0  0  0  0  0  0  0  0  0
    1.0444    7.7005   -1.1963 H   0  0  0  0  0  0  0  0  0  0  0  0
    1.5623    6.1844    0.2771 H   0  0  0  0  0  0  0  0  0  0  0  0
    2.1515    5.1055    3.8031 H   0  0  0  0  0  0  0  0  0  0  0  0
    1.4222    6.9441    5.2794 H   0  0  0  0  0  0  0  0  0  0  0  0
    0.7026   11.3932    4.0606 H   0  0  0  0  0  0  0  0  0  0  0  0
    0.2975    9.7177    3.5261 H   0  0  0  0  0  0  0  0  0  0  0  0
   -0.9294    9.3156    5.6471 H   0  0  0  0  0  0  0  0  0  0  0  0
   -1.5487   10.8009    4.8227 H   0  0  0  0  0  0  0  0  0  0  0  0
   -0.4622   10.9551    6.2542 H   0  0  0  0  0  0  0  0  0  0  0  0
    4.3129    7.9249    1.3656 H   0  0  0  0  0  0  0  0  0  0  0  0
    7.6035    3.0884   -0.7799 H   0  0  0  0  0  0  0  0  0  0  0  0
    8.5711    1.4124   -2.3094 H   0  0  0  0  0  0  0  0  0  0  0  0
    7.1600   -2.4297   -1.7003 H   0  0  0  0  0  0  0  0  0  0  0  0
    8.7894   -1.6444   -1.6939 H   0  0  0  0  0  0  0  0  0  0  0  0
    9.4800   -3.0661   -3.6320 H   0  0  0  0  0  0  0  0  0  0  0  0
    7.8475   -3.8470   -3.6428 H   0  0  0  0  0  0  0  0  0  0  0  0
    8.9476   -4.0744   -2.2327 H   0  0  0  0  0  0  0  0  0  0  0  0
    3.8902    0.8982   -0.7493 H   0  0  0  0  0  0  0  0  0  0  0  0
    7.2041    2.1026    1.7690 H   0  0  0  0  0  0  0  0  0  0  0  0
    8.5952    5.3192    4.6730 H   0  0  0  0  0  0  0  0  0  0  0  0
   12.4381    6.1693    5.8395 H   0  0  0  0  0  0  0  0  0  0  0  0
   12.3579    8.6197    5.5413 H   0  0  0  0  0  0  0  0  0  0  0  0
   10.2960    9.6043    3.7006 H   0  0  0  0  0  0  0  0  0  0  0  0
    9.9763   11.3728    3.6864 H   0  0  0  0  0  0  0  0  0  0  0  0
    7.9515   10.1238    3.0212 H   0  0  0  0  0  0  0  0  0  0  0  0
    7.9625    9.2096    4.5622 H   0  0  0  0  0  0  0  0  0  0  0  0
    7.6742   10.9975    4.5731 H   0  0  0  0  0  0  0  0  0  0  0  0
    8.4177    6.2388    7.3903 H   0  0  0  0  0  0  0  0  0  0  0  0
   11.7872   -0.3679    6.2018 H   0  0  0  0  0  0  0  0  0  0  0  0
   11.5361   -2.7438    6.8208 H   0  0  0  0  0  0  0  0  0  0  0  0
    8.9818   -4.1443    6.1629 H   0  0  0  0  0  0  0  0  0  0  0  0
    8.8180   -5.7597    6.9290 H   0  0  0  0  0  0  0  0  0  0  0  0
    6.9570   -3.3469    7.3788 H   0  0  0  0  0  0  0  0  0  0  0  0
    6.8513   -4.9204    8.2702 H   0  0  0  0  0  0  0  0  0  0  0  0
    6.5819   -4.8652    6.4884 H   0  0  0  0  0  0  0  0  0  0  0  0
    8.3074    0.6039    8.5489 H   0  0  0  0  0  0  0  0  0  0  0  0
   11.9921    0.9819    9.1793 H   0  0  0  0  0  0  0  0  0  0  0  0
   13.3225    2.8959   10.3480 H   0  0  0  0  0  0  0  0  0  0  0  0
  1  2  2  0
  2  3  1  0
  3  4  2  0
  4  5  1  0
  5  6  2  0
  6  7  1  0
  7  8  2  0
  8  9  1  0
  9 10  1  0
 10 11  1  0
  8 12  1  0
 12 13  1  0
 12 14  2  0
  4 15  1  0
 15 16  2  0
 16 17  1  0
 17 18  1  0
 18 19  2  0
 19 20  1  0
 20 21  2  0
 21 22  1  0
 22 23  1  0
 23 24  1  0
 21 25  1  0
 25 26  2  0
 25 27  1  0
 17 28  2  0
 28 29  1  0
 16 30  1  0
 30 31  2  0
 31 32  1  0
 31 33  1  0
 33 34  2  0
 34 35  1  0
 35 36  2  0
 36 37  1  0
 37 38  2  0
 38 39  1  0
 39 40  2  0
 40 41  1  0
 41 42  1  0
 42 43  1  0
 40 44  1  0
 44 45  1  0
 44 46  2  0
 36 47  1  0
 47 48  2  0
 48 49  1  0
 49 50  1  0
 50 51  2  0
 51 52  1  0
 52 53  2  0
 53 54  1  0
 54 55  1  0
 55 56  1  0
 53 57  1  0
 57 58  2  0
 57 59  1  0
 49 60  2  0
 60 61  1  0
 48 62  1  0
 62 63  2  0
 63 64  1  0
 63 65  1  0
 65 66  1  0
 66 67  1  0
 67 68  2  0
 68 69  1  0
 69 70  1  0
 70 71  1  0
 71 72  1  0
 71 73  1  0
 73 74  1  0
 67 75  1  0
 75 76  1  0
 76 77  1  0
 77 78  2  0
 78 79  1  0
 79 80  1  0
 80 81  1  0
 81 82  1  0
 81 83  1  0
 83 84  1  0
 77 85  1  0
 85 86  2  0
 86 87  1  0
 87 88  2  0
 88 89  1  0
 89 90  2  0
 90 91  1  0
 91 92  2  0
 92 93  1  0
 93 94  1  0
 94 95  1  0
 92 96  1  0
 96 97  1  0
 96 98  2  0
 88 99  1  0
 99100  2  0
100101  1  0
101102  1  0
102103  2  0
103104  1  0
104105  2  0
105106  1  0
106107  1  0
107108  1  0
105109  1  0
109110  2  0
109111  1  0
101112  2  0
112113  1  0
100114  1  0
114115  2  0
115116  1  0
115117  1  0
117118  2  0
118119  1  0
119120  2  0
120121  1  0
121122  2  0
122123  1  0
123124  2  0
124125  1  0
125126  1  0
126127  1  0
124128  1  0
128129  1  0
128130  2  0
120131  1  0
131132  2  0
132133  1  0
133134  1  0
134135  2  0
135136  1  0
136137  2  0
137138  1  0
138139  1  0
139140  1  0
137141  1  0
141142  2  0
141143  1  0
133144  2  0
144145  1  0
132146  1  0
146147  2  0
147148  1  0
 29  1  1  0
 61 33  1  0
 69 65  2  0
 79 75  2  0
113 85  1  0
145117  1  0
 28  3  1  0
 60 35  1  0
 74 68  1  0
 84 78  1  0
112 87  1  0
144119  1  0
 14  5  1  0
 32 15  1  0
 46 37  1  0
 64 47  1  0
 98 89  1  0
116 99  1  0
130121  1  0
148131  1  0
 26 18  1  0
 58 50  1  0
110102  1  0
142134  1  0
  1149  1  0
  2150  1  0
  6151  1  0
  7152  1  0
 10153  1  0
 10154  1  0
 11155  1  0
 11156  1  0
 11157  1  0
 14158  1  0
 19159  1  0
 20160  1  0
 23161  1  0
 23162  1  0
 24163  1  0
 24164  1  0
 24165  1  0
 26166  1  0
 30167  1  0
 34168  1  0
 38169  1  0
 39170  1  0
 42171  1  0
 42172  1  0
 43173  1  0
 43174  1  0
 43175  1  0
 46176  1  0
 51177  1  0
 52178  1  0
 55179  1  0
 55180  1  0
 56181  1  0
 56182  1  0
 56183  1  0
 58184  1  0
 62185  1  0
 70186  1  0
 70187  1  0
 71188  1  6
 72189  1  0
 73190  1  0
 73191  1  0
 74192  1  0
 74193  1  0
 80194  1  0
 80195  1  0
 81196  1  1
 82197  1  0
 83198  1  0
 83199  1  0
 84200  1  0
 84201  1  0
 86202  1  0
 90203  1  0
 91204  1  0
 94205  1  0
 94206  1  0
 95207  1  0
 95208  1  0
 95209  1  0
 98210  1  0
103211  1  0
104212  1  0
107213  1  0
107214  1  0
108215  1  0
108216  1  0
108217  1  0
110218  1  0
114219  1  0
118220  1  0
122221  1  0
123222  1  0
126223  1  0
126224  1  0
127225  1  0
127226  1  0
127227  1  0
130228  1  0
135229  1  0
136230  1  0
139231  1  0
139232  1  0
140233  1  0
140234  1  0
140235  1  0
142236  1  0
146237  1  0
147238  1  0
M  END

