
     RDKit          3D

296322  0  0  0  0  0  0  0  0999 V2000
    9.1889    1.6716    6.8124 C   0  0  0  0  0  0  0  0  0  0  0  0
    9.6090    1.3607    5.5220 C   0  0  0  0  0  0  0  0  0  0  0  0
    8.5652    1.3624    4.5867 C   0  0  0  0  0  0  0  0  0  0  0  0
    8.6826    1.1154    3.2010 C   0  0  0  0  0  0  0  0  0  0  0  0
    9.9723    0.7667    2.5757 C   0  0  0  0  0  0  0  0  0  0  0  0
   10.4956   -0.5263    2.7215 C   0  0  0  0  0  0  0  0  0  0  0  0
   11.6851   -0.8804    2.0702 C   0  0  0  0  0  0  0  0  0  0  0  0
   12.3563    0.0556    1.2778 C   0  0  0  0  0  0  0  0  0  0  0  0
   13.8540   -0.4139    0.3996 S   0  0  0  0  0  0  0  0  0  0  0  0
   14.9641   -0.2856    1.8445 C   0  0  0  0  0  0  0  0  0  0  0  0
   16.2735    0.3771    1.4338 C   0  0  0  0  0  0  0  0  0  0  0  0
   11.8509    1.3594    1.1538 C   0  0  0  0  0  0  0  0  0  0  0  0
   12.4801    2.2696    0.3703 F   0  0  0  0  0  0  0  0  0  0  0  0
   10.6451    1.6995    1.7770 C   0  0  0  0  0  0  0  0  0  0  0  0
    7.5053    1.2105    2.4389 C   0  0  0  0  0  0  0  0  0  0  0  0
    6.2647    1.5197    3.0082 C   0  0  0  0  0  0  0  0  0  0  0  0
    6.1446    1.7736    4.3891 C   0  0  0  0  0  0  0  0  0  0  0  0
    4.8426    2.1419    4.9990 C   0  0  0  0  0  0  0  0  0  0  0  0
    4.1489    3.2802    4.5480 C   0  0  0  0  0  0  0  0  0  0  0  0
    2.8723    3.5644    5.0357 C   0  0  0  0  0  0  0  0  0  0  0  0
    2.2774    2.7317    5.9904 C   0  0  0  0  0  0  0  0  0  0  0  0
    0.5860    3.0342    6.5119 S   0  0  0  0  0  0  0  0  0  0  0  0
    0.9730    4.3422    7.7310 C   0  0  0  0  0  0  0  0  0  0  0  0
    0.4708    5.6893    7.2300 C   0  0  0  0  0  0  0  0  0  0  0  0
    2.9821    1.6166    6.4734 C   0  0  0  0  0  0  0  0  0  0  0  0
    4.2614    1.3256    5.9786 C   0  0  0  0  0  0  0  0  0  0  0  0
    2.4135    0.7885    7.3867 F   0  0  0  0  0  0  0  0  0  0  0  0
    7.3237    1.6765    5.1509 C   0  0  0  0  0  0  0  0  0  0  0  0
    7.5256    1.9547    6.7956 S   0  0  0  0  0  0  0  0  0  0  0  0
    5.2199    1.5150    2.0796 C   0  0  0  0  0  0  0  0  0  0  0  0
    5.6336    1.2270    0.7793 C   0  0  0  0  0  0  0  0  0  0  0  0
    7.3017    0.9421    0.7865 S   0  0  0  0  0  0  0  0  0  0  0  0
    4.7216    1.1709   -0.3869 C   0  0  0  0  0  0  0  0  0  0  0  0
    3.6725    2.1066   -0.4850 C   0  0  0  0  0  0  0  0  0  0  0  0
    3.5907    3.1522    0.3766 F   0  0  0  0  0  0  0  0  0  0  0  0
    2.6760    1.9620   -1.4496 C   0  0  0  0  0  0  0  0  0  0  0  0
    1.6242    2.8212   -1.4487 F   0  0  0  0  0  0  0  0  0  0  0  0
    2.7169    0.8957   -2.3583 C   0  0  0  0  0  0  0  0  0  0  0  0
    3.8227    0.0285   -2.3579 C   0  0  0  0  0  0  0  0  0  0  0  0
    3.9418   -0.9526   -3.2897 N   0  0  0  0  0  0  0  0  0  0  0  0
    4.9841   -1.8288   -3.2954 C   0  0  0  0  0  0  0  0  0  0  0  0
    5.0342   -2.8206   -4.3826 C   0  0  0  0  0  0  0  0  0  0  0  0
    4.9658   -2.3833   -5.7138 C   0  0  0  0  0  0  0  0  0  0  0  0
    4.9417   -3.3051   -6.7627 C   0  0  0  0  0  0  0  0  0  0  0  0
    4.9506   -4.6758   -6.4949 C   0  0  0  0  0  0  0  0  0  0  0  0
    4.8556   -5.5681   -7.5690 O   0  0  0  0  0  0  0  0  0  0  0  0
    3.8378   -6.5658   -7.6693 C   0  0  0  0  0  0  0  0  0  0  0  0
    2.4534   -5.9243   -7.7248 C   0  0  0  0  0  0  0  0  0  0  0  0
    5.0440   -5.1258   -5.1629 C   0  0  0  0  0  0  0  0  0  0  0  0
    5.0882   -4.2000   -4.1128 C   0  0  0  0  0  0  0  0  0  0  0  0
    5.1195   -6.4497   -4.8811 F   0  0  0  0  0  0  0  0  0  0  0  0
    4.8648   -2.8613   -8.0415 F   0  0  0  0  0  0  0  0  0  0  0  0
    5.9579   -1.7377   -2.2739 C   0  0  0  0  0  0  0  0  0  0  0  0
    5.8334   -0.7530   -1.3435 N   0  0  0  0  0  0  0  0  0  0  0  0
    4.8181    0.1527   -1.3637 C   0  0  0  0  0  0  0  0  0  0  0  0
    7.1264   -2.6381   -2.1631 C   0  0  0  0  0  0  0  0  0  0  0  0
    7.4395   -3.2049   -0.9191 C   0  0  0  0  0  0  0  0  0  0  0  0
    8.5628   -4.0214   -0.7750 C   0  0  0  0  0  0  0  0  0  0  0  0
    8.8452   -4.5655    0.4372 F   0  0  0  0  0  0  0  0  0  0  0  0
    9.4157   -4.2501   -1.8588 C   0  0  0  0  0  0  0  0  0  0  0  0
   10.5448   -5.0605   -1.6648 O   0  0  0  0  0  0  0  0  0  0  0  0
   11.8731   -4.6881   -2.0370 C   0  0  0  0  0  0  0  0  0  0  0  0
   12.3543   -3.5087   -1.1990 C   0  0  0  0  0  0  0  0  0  0  0  0
    9.1075   -3.6818   -3.1102 C   0  0  0  0  0  0  0  0  0  0  0  0
    9.8750   -3.9387   -4.1995 F   0  0  0  0  0  0  0  0  0  0  0  0
    7.9756   -2.8735   -3.2543 C   0  0  0  0  0  0  0  0  0  0  0  0
    1.4810    0.5759   -3.1010 C   0  0  0  0  0  0  0  0  0  0  0  0
    0.6046   -0.3693   -2.5549 C   0  0  0  0  0  0  0  0  0  0  0  0
    0.9862   -1.1281   -1.4935 F   0  0  0  0  0  0  0  0  0  0  0  0
   -0.7056   -0.4716   -3.0172 C   0  0  0  0  0  0  0  0  0  0  0  0
   -1.5643   -1.3139   -2.3884 F   0  0  0  0  0  0  0  0  0  0  0  0
   -1.1659    0.3706   -4.0508 C   0  0  0  0  0  0  0  0  0  0  0  0
   -0.2631    1.2511   -4.6743 C   0  0  0  0  0  0  0  0  0  0  0  0
   -0.6473    2.0218   -5.7275 N   0  0  0  0  0  0  0  0  0  0  0  0
    0.2169    2.8781   -6.3404 C   0  0  0  0  0  0  0  0  0  0  0  0
   -0.2615    3.6645   -7.4887 C   0  0  0  0  0  0  0  0  0  0  0  0
   -0.1734    5.0655   -7.4847 C   0  0  0  0  0  0  0  0  0  0  0  0
   -0.5385    5.7964   -8.6186 C   0  0  0  0  0  0  0  0  0  0  0  0
   -0.9807    5.1369   -9.7755 C   0  0  0  0  0  0  0  0  0  0  0  0
   -1.2828    5.8989  -10.9097 O   0  0  0  0  0  0  0  0  0  0  0  0
   -0.7344    5.6366  -12.2020 C   0  0  0  0  0  0  0  0  0  0  0  0
    0.7454    6.0091  -12.2400 C   0  0  0  0  0  0  0  0  0  0  0  0
   -1.1245    3.7367   -9.7581 C   0  0  0  0  0  0  0  0  0  0  0  0
   -0.7722    3.0083   -8.6180 C   0  0  0  0  0  0  0  0  0  0  0  0
   -1.6364    3.0759  -10.8260 F   0  0  0  0  0  0  0  0  0  0  0  0
   -0.4238    7.1502   -8.6085 F   0  0  0  0  0  0  0  0  0  0  0  0
    1.5438    2.9722   -5.8618 C   0  0  0  0  0  0  0  0  0  0  0  0
    1.9166    2.2190   -4.7943 N   0  0  0  0  0  0  0  0  0  0  0  0
    1.0604    1.3532   -4.1931 C   0  0  0  0  0  0  0  0  0  0  0  0
    2.5793    3.7893   -6.5257 C   0  0  0  0  0  0  0  0  0  0  0  0
    2.8482    3.6358   -7.8974 C   0  0  0  0  0  0  0  0  0  0  0  0
    3.8689    4.3683   -8.5022 C   0  0  0  0  0  0  0  0  0  0  0  0
    4.0696    4.2354   -9.8373 F   0  0  0  0  0  0  0  0  0  0  0  0
    4.6536    5.2539   -7.7377 C   0  0  0  0  0  0  0  0  0  0  0  0
    5.7192    5.9723   -8.2975 O   0  0  0  0  0  0  0  0  0  0  0  0
    6.7702    5.3691   -9.0534 C   0  0  0  0  0  0  0  0  0  0  0  0
    7.5886    4.4235   -8.1761 C   0  0  0  0  0  0  0  0  0  0  0  0
    4.3705    5.4203   -6.3766 C   0  0  0  0  0  0  0  0  0  0  0  0
    5.1096    6.2812   -5.6309 F   0  0  0  0  0  0  0  0  0  0  0  0
    3.3521    4.6818   -5.7694 C   0  0  0  0  0  0  0  0  0  0  0  0
   -2.6311    0.4588   -4.2495 C   0  0  0  0  0  0  0  0  0  0  0  0
   -3.3171   -0.6531   -4.7568 C   0  0  0  0  0  0  0  0  0  0  0  0
   -2.6548   -1.5719   -5.5106 F   0  0  0  0  0  0  0  0  0  0  0  0
   -4.6359   -0.9081   -4.3646 C   0  0  0  0  0  0  0  0  0  0  0  0
   -5.2453   -2.0089   -4.8669 F   0  0  0  0  0  0  0  0  0  0  0  0
   -5.2560   -0.0963   -3.3878 C   0  0  0  0  0  0  0  0  0  0  0  0
   -4.6703    1.1702   -3.1252 C   0  0  0  0  0  0  0  0  0  0  0  0
   -5.3050    2.0963   -2.3583 N   0  0  0  0  0  0  0  0  0  0  0  0
   -4.7100    3.2489   -1.9663 C   0  0  0  0  0  0  0  0  0  0  0  0
   -5.4307    4.1462   -1.0480 C   0  0  0  0  0  0  0  0  0  0  0  0
   -5.7844    5.4425   -1.4460 C   0  0  0  0  0  0  0  0  0  0  0  0
   -6.3919    6.3119   -0.5371 C   0  0  0  0  0  0  0  0  0  0  0  0
   -6.6659    5.8996    0.7761 C   0  0  0  0  0  0  0  0  0  0  0  0
   -7.2858    6.8205    1.6355 O   0  0  0  0  0  0  0  0  0  0  0  0
   -8.0899    6.5016    2.7728 C   0  0  0  0  0  0  0  0  0  0  0  0
   -9.3452    5.7388    2.3497 C   0  0  0  0  0  0  0  0  0  0  0  0
   -6.3058    4.5919    1.1702 C   0  0  0  0  0  0  0  0  0  0  0  0
   -5.6978    3.7252    0.2606 C   0  0  0  0  0  0  0  0  0  0  0  0
   -6.4785    4.1631    2.4451 F   0  0  0  0  0  0  0  0  0  0  0  0
   -6.7387    7.5612   -0.9388 F   0  0  0  0  0  0  0  0  0  0  0  0
   -3.3813    3.4934   -2.3552 C   0  0  0  0  0  0  0  0  0  0  0  0
   -2.7391    2.5782   -3.1240 N   0  0  0  0  0  0  0  0  0  0  0  0
   -3.3494    1.4365   -3.5442 C   0  0  0  0  0  0  0  0  0  0  0  0
   -2.6375    4.6479   -1.8276 C   0  0  0  0  0  0  0  0  0  0  0  0
   -2.2545    4.6666   -0.4790 C   0  0  0  0  0  0  0  0  0  0  0  0
   -1.7056    5.8190    0.0848 C   0  0  0  0  0  0  0  0  0  0  0  0
   -1.3449    5.7817    1.3920 F   0  0  0  0  0  0  0  0  0  0  0  0
   -1.5440    6.9827   -0.6999 C   0  0  0  0  0  0  0  0  0  0  0  0
   -1.0941    8.2103   -0.1823 O   0  0  0  0  0  0  0  0  0  0  0  0
   -1.1368    8.6137    1.1890 C   0  0  0  0  0  0  0  0  0  0  0  0
   -2.5753    8.6894    1.6973 C   0  0  0  0  0  0  0  0  0  0  0  0
   -1.8662    6.9303   -2.0675 C   0  0  0  0  0  0  0  0  0  0  0  0
   -1.7017    8.0325   -2.8416 F   0  0  0  0  0  0  0  0  0  0  0  0
   -2.4159    5.7732   -2.6266 C   0  0  0  0  0  0  0  0  0  0  0  0
   -6.2416   -0.6897   -2.4101 C   0  0  0  0  0  0  0  0  0  0  0  0
   -6.5618   -2.0552   -2.2985 C   0  0  0  0  0  0  0  0  0  0  0  0
   -6.9763   -2.4472   -1.0093 C   0  0  0  0  0  0  0  0  0  0  0  0
   -7.1335   -3.7820   -0.5672 C   0  0  0  0  0  0  0  0  0  0  0  0
   -7.1063   -4.9151   -1.5120 C   0  0  0  0  0  0  0  0  0  0  0  0
   -8.1541   -5.0751   -2.4309 C   0  0  0  0  0  0  0  0  0  0  0  0
   -8.1210   -6.1196   -3.3586 C   0  0  0  0  0  0  0  0  0  0  0  0
   -7.0323   -6.9988   -3.3910 C   0  0  0  0  0  0  0  0  0  0  0  0
   -6.9785   -8.3014   -4.6217 S   0  0  0  0  0  0  0  0  0  0  0  0
   -5.9938   -7.3538   -5.8333 C   0  0  0  0  0  0  0  0  0  0  0  0
   -6.8644   -6.3683   -6.6073 C   0  0  0  0  0  0  0  0  0  0  0  0
   -5.9883   -6.8514   -2.4657 C   0  0  0  0  0  0  0  0  0  0  0  0
   -4.9290   -7.6997   -2.4758 F   0  0  0  0  0  0  0  0  0  0  0  0
   -6.0240   -5.8072   -1.5309 C   0  0  0  0  0  0  0  0  0  0  0  0
   -7.2307   -3.9866    0.8201 C   0  0  0  0  0  0  0  0  0  0  0  0
   -7.2197   -2.9225    1.7313 C   0  0  0  0  0  0  0  0  0  0  0  0
   -7.1585   -1.5924    1.2833 C   0  0  0  0  0  0  0  0  0  0  0  0
   -7.0948   -0.4665    2.2420 C   0  0  0  0  0  0  0  0  0  0  0  0
   -8.2102   -0.1670    3.0361 C   0  0  0  0  0  0  0  0  0  0  0  0
   -8.1341    0.8337    4.0089 C   0  0  0  0  0  0  0  0  0  0  0  0
   -6.9337    1.5264    4.2113 C   0  0  0  0  0  0  0  0  0  0  0  0
   -6.8469    2.8129    5.4655 S   0  0  0  0  0  0  0  0  0  0  0  0
   -6.2453    1.7213    6.8029 C   0  0  0  0  0  0  0  0  0  0  0  0
   -7.3903    0.9247    7.4183 C   0  0  0  0  0  0  0  0  0  0  0  0
   -5.8183    1.2354    3.4099 C   0  0  0  0  0  0  0  0  0  0  0  0
   -5.8965    0.2393    2.4327 C   0  0  0  0  0  0  0  0  0  0  0  0
   -4.6508    1.9041    3.5901 F   0  0  0  0  0  0  0  0  0  0  0  0
   -7.0245   -1.3962   -0.1003 C   0  0  0  0  0  0  0  0  0  0  0  0
   -6.5726   -0.0013   -0.8938 S   0  0  0  0  0  0  0  0  0  0  0  0
   -7.0754   -3.3391    3.0591 C   0  0  0  0  0  0  0  0  0  0  0  0
   -6.9721   -4.7167    3.1954 C   0  0  0  0  0  0  0  0  0  0  0  0
   -7.0775   -5.4310    1.6716 S   0  0  0  0  0  0  0  0  0  0  0  0
   -6.2909   -5.3395    4.3261 C   0  0  0  0  0  0  0  0  0  0  0  0
   -5.0942   -4.8623    4.8490 C   0  0  0  0  0  0  0  0  0  0  0  0
   -4.5662   -5.6907    5.8437 C   0  0  0  0  0  0  0  0  0  0  0  0
   -3.3463   -5.4897    6.5141 C   0  0  0  0  0  0  0  0  0  0  0  0
   -2.3948   -4.4372    6.0889 C   0  0  0  0  0  0  0  0  0  0  0  0
   -1.7831   -4.5278    4.8305 C   0  0  0  0  0  0  0  0  0  0  0  0
   -0.8935   -3.5366    4.4042 C   0  0  0  0  0  0  0  0  0  0  0  0
   -0.6160   -2.4416    5.2258 C   0  0  0  0  0  0  0  0  0  0  0  0
    0.5274   -1.1748    4.6689 S   0  0  0  0  0  0  0  0  0  0  0  0
   -0.7439   -0.1993    3.7904 C   0  0  0  0  0  0  0  0  0  0  0  0
   -0.0809    0.7128    2.7625 C   0  0  0  0  0  0  0  0  0  0  0  0
   -1.2298   -2.3417    6.4873 C   0  0  0  0  0  0  0  0  0  0  0  0
   -0.9694   -1.2816    7.2924 F   0  0  0  0  0  0  0  0  0  0  0  0
   -2.1121   -3.3426    6.9200 C   0  0  0  0  0  0  0  0  0  0  0  0
   -3.0124   -6.4316    7.4976 C   0  0  0  0  0  0  0  0  0  0  0  0
   -3.8240   -7.5303    7.8055 C   0  0  0  0  0  0  0  0  0  0  0  0
   -5.0321   -7.7471    7.1048 C   0  0  0  0  0  0  0  0  0  0  0  0
   -5.8743   -8.9380    7.3463 C   0  0  0  0  0  0  0  0  0  0  0  0
   -6.0255   -9.9040    6.3405 C   0  0  0  0  0  0  0  0  0  0  0  0
   -6.7547  -11.0719    6.5908 C   0  0  0  0  0  0  0  0  0  0  0  0
   -7.3509  -11.2796    7.8393 C   0  0  0  0  0  0  0  0  0  0  0  0
   -8.1981  -12.8300    8.1764 S   0  0  0  0  0  0  0  0  0  0  0  0
   -9.7830  -12.3429    7.4084 C   0  0  0  0  0  0  0  0  0  0  0  0
  -10.6555  -11.5790    8.3965 C   0  0  0  0  0  0  0  0  0  0  0  0
   -7.2211  -10.3056    8.8402 C   0  0  0  0  0  0  0  0  0  0  0  0
   -6.4883   -9.1368    8.5941 C   0  0  0  0  0  0  0  0  0  0  0  0
   -7.7713  -10.5015   10.0655 F   0  0  0  0  0  0  0  0  0  0  0  0
   -5.3682   -6.8037    6.1191 C   0  0  0  0  0  0  0  0  0  0  0  0
   -6.7072   -6.7873    5.0884 S   0  0  0  0  0  0  0  0  0  0  0  0
   -3.2664   -8.3622    8.7894 C   0  0  0  0  0  0  0  0  0  0  0  0
   -2.0274   -7.9240    9.2446 C   0  0  0  0  0  0  0  0  0  0  0  0
   -1.6175   -6.4975    8.4335 S   0  0  0  0  0  0  0  0  0  0  0  0
    9.8295    1.7321    7.6833 H   0  0  0  0  0  0  0  0  0  0  0  0
   10.6425    1.1557    5.2776 H   0  0  0  0  0  0  0  0  0  0  0  0
    9.9772   -1.2610    3.3244 H   0  0  0  0  0  0  0  0  0  0  0  0
   12.0714   -1.8863    2.1706 H   0  0  0  0  0  0  0  0  0  0  0  0
   15.1831   -1.3160    2.2119 H   0  0  0  0  0  0  0  0  0  0  0  0
   14.5119    0.3037    2.6690 H   0  0  0  0  0  0  0  0  0  0  0  0
   16.9793    0.3622    2.2911 H   0  0  0  0  0  0  0  0  0  0  0  0
   16.7378   -0.1740    0.5855 H   0  0  0  0  0  0  0  0  0  0  0  0
   16.0907    1.4291    1.1308 H   0  0  0  0  0  0  0  0  0  0  0  0
   10.2443    2.6978    1.6496 H   0  0  0  0  0  0  0  0  0  0  0  0
    4.5837    3.9224    3.7947 H   0  0  0  0  0  0  0  0  0  0  0  0
    2.3315    4.4202    4.6534 H   0  0  0  0  0  0  0  0  0  0  0  0
    2.0631    4.4099    7.9432 H   0  0  0  0  0  0  0  0  0  0  0  0
    0.4558    4.0900    8.6788 H   0  0  0  0  0  0  0  0  0  0  0  0
    1.0337    6.0072    6.3314 H   0  0  0  0  0  0  0  0  0  0  0  0
    0.6106    6.4537    8.0245 H   0  0  0  0  0  0  0  0  0  0  0  0
   -0.6118    5.6313    6.9839 H   0  0  0  0  0  0  0  0  0  0  0  0
    4.7762    0.4367    6.3284 H   0  0  0  0  0  0  0  0  0  0  0  0
    4.1838    1.6913    2.3398 H   0  0  0  0  0  0  0  0  0  0  0  0
    4.9230   -1.3239   -5.9375 H   0  0  0  0  0  0  0  0  0  0  0  0
    3.9994   -7.1400   -8.6037 H   0  0  0  0  0  0  0  0  0  0  0  0
    3.8894   -7.2764   -6.8195 H   0  0  0  0  0  0  0  0  0  0  0  0
    1.6839   -6.7010   -7.8993 H   0  0  0  0  0  0  0  0  0  0  0  0
    2.4159   -5.1862   -8.5572 H   0  0  0  0  0  0  0  0  0  0  0  0
    2.2324   -5.4066   -6.7691 H   0  0  0  0  0  0  0  0  0  0  0  0
    5.1415   -4.5558   -3.0912 H   0  0  0  0  0  0  0  0  0  0  0  0
    6.8029   -3.0255   -0.0565 H   0  0  0  0  0  0  0  0  0  0  0  0
   12.5422   -5.5543   -1.8475 H   0  0  0  0  0  0  0  0  0  0  0  0
   11.9327   -4.4487   -3.1173 H   0  0  0  0  0  0  0  0  0  0  0  0
   13.4212   -3.2829   -1.4443 H   0  0  0  0  0  0  0  0  0  0  0  0
   11.7357   -2.6085   -1.4099 H   0  0  0  0  0  0  0  0  0  0  0  0
   12.2757   -3.7590   -0.1179 H   0  0  0  0  0  0  0  0  0  0  0  0
    7.7684   -2.4244   -4.2180 H   0  0  0  0  0  0  0  0  0  0  0  0
    0.1999    5.5868   -6.6096 H   0  0  0  0  0  0  0  0  0  0  0  0
   -1.2754    6.2546  -12.9485 H   0  0  0  0  0  0  0  0  0  0  0  0
   -0.8593    4.5737  -12.4895 H   0  0  0  0  0  0  0  0  0  0  0  0
    1.1628    5.7741  -13.2409 H   0  0  0  0  0  0  0  0  0  0  0  0
    1.3070    5.4308  -11.4742 H   0  0  0  0  0  0  0  0  0  0  0  0
    0.8656    7.0954  -12.0375 H   0  0  0  0  0  0  0  0  0  0  0  0
   -0.8585    1.9273   -8.6295 H   0  0  0  0  0  0  0  0  0  0  0  0
    2.2742    2.9364   -8.4921 H   0  0  0  0  0  0  0  0  0  0  0  0
    6.3705    4.8293   -9.9343 H   0  0  0  0  0  0  0  0  0  0  0  0
    7.4381    6.1738   -9.4230 H   0  0  0  0  0  0  0  0  0  0  0  0
    8.0424    4.9984   -7.3377 H   0  0  0  0  0  0  0  0  0  0  0  0
    8.3981    3.9561   -8.7752 H   0  0  0  0  0  0  0  0  0  0  0  0
    6.9412    3.6217   -7.7593 H   0  0  0  0  0  0  0  0  0  0  0  0
    3.1616    4.8059   -4.7092 H   0  0  0  0  0  0  0  0  0  0  0  0
   -5.5836    5.7782   -2.4586 H   0  0  0  0  0  0  0  0  0  0  0  0
   -7.5108    5.9378    3.5339 H   0  0  0  0  0  0  0  0  0  0  0  0
   -8.4046    7.4547    3.2526 H   0  0  0  0  0  0  0  0  0  0  0  0
   -9.9072    6.3342    1.5966 H   0  0  0  0  0  0  0  0  0  0  0  0
   -9.9908    5.5631    3.2321 H   0  0  0  0  0  0  0  0  0  0  0  0
   -9.0727    4.7583    1.9056 H   0  0  0  0  0  0  0  0  0  0  0  0
   -5.3863    2.7350    0.5880 H   0  0  0  0  0  0  0  0  0  0  0  0
   -2.4125    3.7917    0.1433 H   0  0  0  0  0  0  0  0  0  0  0  0
   -0.6921    9.6291    1.2592 H   0  0  0  0  0  0  0  0  0  0  0  0
   -0.5170    7.9431    1.8210 H   0  0  0  0  0  0  0  0  0  0  0  0
   -2.5764    9.0470    2.7469 H   0  0  0  0  0  0  0  0  0  0  0  0
   -3.0597    7.6907    1.6665 H   0  0  0  0  0  0  0  0  0  0  0  0
   -3.1623    9.3950    1.0691 H   0  0  0  0  0  0  0  0  0  0  0  0
   -2.7142    5.7706   -3.6684 H   0  0  0  0  0  0  0  0  0  0  0  0
   -6.3761   -2.7878   -3.0614 H   0  0  0  0  0  0  0  0  0  0  0  0
   -8.9964   -4.3917   -2.4233 H   0  0  0  0  0  0  0  0  0  0  0  0
   -8.9387   -6.2362   -4.0611 H   0  0  0  0  0  0  0  0  0  0  0  0
   -5.5433   -8.0743   -6.5491 H   0  0  0  0  0  0  0  0  0  0  0  0
   -5.1616   -6.8165   -5.3224 H   0  0  0  0  0  0  0  0  0  0  0  0
   -6.2435   -5.8475   -7.3671 H   0  0  0  0  0  0  0  0  0  0  0  0
   -7.6897   -6.9064   -7.1194 H   0  0  0  0  0  0  0  0  0  0  0  0
   -7.2841   -5.5986   -5.9288 H   0  0  0  0  0  0  0  0  0  0  0  0
   -5.2021   -5.6849   -0.8321 H   0  0  0  0  0  0  0  0  0  0  0  0
   -9.1385   -0.7130    2.9081 H   0  0  0  0  0  0  0  0  0  0  0  0
   -9.0002    1.0561    4.6180 H   0  0  0  0  0  0  0  0  0  0  0  0
   -5.4585    1.0326    6.4271 H   0  0  0  0  0  0  0  0  0  0  0  0
   -5.7911    2.3630    7.5893 H   0  0  0  0  0  0  0  0  0  0  0  0
   -7.0278    0.4012    8.3269 H   0  0  0  0  0  0  0  0  0  0  0  0
   -8.2190    1.6053    7.7077 H   0  0  0  0  0  0  0  0  0  0  0  0
   -7.7665    0.1648    6.7034 H   0  0  0  0  0  0  0  0  0  0  0  0
   -5.0245    0.0076    1.8339 H   0  0  0  0  0  0  0  0  0  0  0  0
   -6.9058   -2.6586    3.8840 H   0  0  0  0  0  0  0  0  0  0  0  0
   -4.6125   -3.9547    4.5007 H   0  0  0  0  0  0  0  0  0  0  0  0
   -1.9998   -5.3612    4.1777 H   0  0  0  0  0  0  0  0  0  0  0  0
   -0.4256   -3.6217    3.4318 H   0  0  0  0  0  0  0  0  0  0  0  0
   -1.3054    0.4131    4.5295 H   0  0  0  0  0  0  0  0  0  0  0  0
   -1.4704   -0.8644    3.2680 H   0  0  0  0  0  0  0  0  0  0  0  0
   -0.8611    1.2550    2.1909 H   0  0  0  0  0  0  0  0  0  0  0  0
    0.5232    0.1094    2.0515 H   0  0  0  0  0  0  0  0  0  0  0  0
    0.5795    1.4477    3.2682 H   0  0  0  0  0  0  0  0  0  0  0  0
   -2.5838   -3.2532    7.8897 H   0  0  0  0  0  0  0  0  0  0  0  0
   -5.5548   -9.7664    5.3722 H   0  0  0  0  0  0  0  0  0  0  0  0
   -6.8376  -11.8278    5.8183 H   0  0  0  0  0  0  0  0  0  0  0  0
   -9.6122  -11.7348    6.4894 H   0  0  0  0  0  0  0  0  0  0  0  0
  -10.3147  -13.2662    7.0986 H   0  0  0  0  0  0  0  0  0  0  0  0
  -10.1741  -10.6233    8.6860 H   0  0  0  0  0  0  0  0  0  0  0  0
  -10.8196  -12.1939    9.3108 H   0  0  0  0  0  0  0  0  0  0  0  0
  -11.6413  -11.3646    7.9307 H   0  0  0  0  0  0  0  0  0  0  0  0
   -6.3751   -8.4016    9.3810 H   0  0  0  0  0  0  0  0  0  0  0  0
   -3.7387   -9.2658    9.1523 H   0  0  0  0  0  0  0  0  0  0  0  0
   -1.4245   -8.4289    9.9857 H   0  0  0  0  0  0  0  0  0  0  0  0
  1  2  2  0
  2  3  1  0
  3  4  2  0
  4  5  1  0
  5  6  2  0
  6  7  1  0
  7  8  2  0
  8  9  1  0
  9 10  1  0
 10 11  1  0
  8 12  1  0
 12 13  1  0
 12 14  2  0
  4 15  1  0
 15 16  2  0
 16 17  1  0
 17 18  1  0
 18 19  2  0
 19 20  1  0
 20 21  2  0
 21 22  1  0
 22 23  1  0
 23 24  1  0
 21 25  1  0
 25 26  2  0
 25 27  1  0
 17 28  2  0
 28 29  1  0
 16 30  1  0
 30 31  2  0
 31 32  1  0
 31 33  1  0
 33 34  2  0
 34 35  1  0
 34 36  1  0
 36 37  1  0
 36 38  2  0
 38 39  1  0
 39 40  2  0
 40 41  1  0
 41 42  1  0
 42 43  2  0
 43 44  1  0
 44 45  2  0
 45 46  1  0
 46 47  1  0
 47 48  1  0
 45 49  1  0
 49 50  2  0
 49 51  1  0
 44 52  1  0
 41 53  2  0
 53 54  1  0
 54 55  2  0
 53 56  1  0
 56 57  2  0
 57 58  1  0
 58 59  1  0
 58 60  2  0
 60 61  1  0
 61 62  1  0
 62 63  1  0
 60 64  1  0
 64 65  1  0
 64 66  2  0
 38 67  1  0
 67 68  2  0
 68 69  1  0
 68 70  1  0
 70 71  1  0
 70 72  2  0
 72 73  1  0
 73 74  2  0
 74 75  1  0
 75 76  1  0
 76 77  2  0
 77 78  1  0
 78 79  2  0
 79 80  1  0
 80 81  1  0
 81 82  1  0
 79 83  1  0
 83 84  2  0
 83 85  1  0
 78 86  1  0
 75 87  2  0
 87 88  1  0
 88 89  2  0
 87 90  1  0
 90 91  2  0
 91 92  1  0
 92 93  1  0
 92 94  2  0
 94 95  1  0
 95 96  1  0
 96 97  1  0
 94 98  1  0
 98 99  1  0
 98100  2  0
 72101  1  0
101102  2  0
102103  1  0
102104  1  0
104105  1  0
104106  2  0
106107  1  0
107108  2  0
108109  1  0
109110  1  0
110111  2  0
111112  1  0
112113  2  0
113114  1  0
114115  1  0
115116  1  0
113117  1  0
117118  2  0
117119  1  0
112120  1  0
109121  2  0
121122  1  0
122123  2  0
121124  1  0
124125  2  0
125126  1  0
126127  1  0
126128  2  0
128129  1  0
129130  1  0
130131  1  0
128132  1  0
132133  1  0
132134  2  0
106135  1  0
135136  2  0
136137  1  0
137138  2  0
138139  1  0
139140  2  0
140141  1  0
141142  2  0
142143  1  0
143144  1  0
144145  1  0
142146  1  0
146147  1  0
146148  2  0
138149  1  0
149150  2  0
150151  1  0
151152  1  0
152153  2  0
153154  1  0
154155  2  0
155156  1  0
156157  1  0
157158  1  0
155159  1  0
159160  2  0
159161  1  0
151162  2  0
162163  1  0
150164  1  0
164165  2  0
165166  1  0
165167  1  0
167168  2  0
168169  1  0
169170  2  0
170171  1  0
171172  2  0
172173  1  0
173174  2  0
174175  1  0
175176  1  0
176177  1  0
174178  1  0
178179  1  0
178180  2  0
170181  1  0
181182  2  0
182183  1  0
183184  1  0
184185  2  0
185186  1  0
186187  2  0
187188  1  0
188189  1  0
189190  1  0
187191  1  0
191192  2  0
191193  1  0
183194  2  0
194195  1  0
182196  1  0
196197  2  0
197198  1  0
 29  1  1  0
 55 33  1  0
 66 56  1  0
 89 67  1  0
100 90  1  0
123101  1  0
134124  1  0
163135  1  0
195167  1  0
 28  3  1  0
 55 39  1  0
 89 73  1  0
123107  1  0
162137  1  0
194169  1  0
 14  5  1  0
 32 15  1  0
 50 42  1  0
 84 76  1  0
118110  1  0
148139  1  0
166149  1  0
180171  1  0
198181  1  0
 26 18  1  0
160152  1  0
192184  1  0
  1199  1  0
  2200  1  0
  6201  1  0
  7202  1  0
 10203  1  0
 10204  1  0
 11205  1  0
 11206  1  0
 11207  1  0
 14208  1  0
 19209  1  0
 20210  1  0
 23211  1  0
 23212  1  0
 24213  1  0
 24214  1  0
 24215  1  0
 26216  1  0
 30217  1  0
 43218  1  0
 47219  1  0
 47220  1  0
 48221  1  0
 48222  1  0
 48223  1  0
 50224  1  0
 57225  1  0
 62226  1  0
 62227  1  0
 63228  1  0
 63229  1  0
 63230  1  0
 66231  1  0
 77232  1  0
 81233  1  0
 81234  1  0
 82235  1  0
 82236  1  0
 82237  1  0
 84238  1  0
 91239  1  0
 96240  1  0
 96241  1  0
 97242  1  0
 97243  1  0
 97244  1  0
100245  1  0
111246  1  0
115247  1  0
115248  1  0
116249  1  0
116250  1  0
116251  1  0
118252  1  0
125253  1  0
130254  1  0
130255  1  0
131256  1  0
131257  1  0
131258  1  0
134259  1  0
136260  1  0
140261  1  0
141262  1  0
144263  1  0
144264  1  0
145265  1  0
145266  1  0
145267  1  0
148268  1  0
153269  1  0
154270  1  0
157271  1  0
157272  1  0
158273  1  0
158274  1  0
158275  1  0
160276  1  0
164277  1  0
168278  1  0
172279  1  0
173280  1  0
176281  1  0
176282  1  0
177283  1  0
177284  1  0
177285  1  0
180286  1  0
185287  1  0
186288  1  0
189289  1  0
189290  1  0
190291  1  0
190292  1  0
190293  1  0
192294  1  0
196295  1  0
197296  1  0
M  END

