
     RDKit          3D

192213  0  0  0  0  0  0  0  0999 V2000
    0.8618   -3.1672   11.6113 C   0  0  0  0  0  0  0  0  0  0  0  0
    0.9231   -2.0333   10.8040 C   0  0  0  0  0  0  0  0  0  0  0  0
    0.4010   -2.2404    9.5134 C   0  0  0  0  0  0  0  0  0  0  0  0
    0.3425   -1.2927    8.4679 C   0  0  0  0  0  0  0  0  0  0  0  0
    0.7702    0.1032    8.6509 C   0  0  0  0  0  0  0  0  0  0  0  0
    1.9527    0.8633    7.7325 S   0  0  0  0  0  0  0  0  0  0  0  0
    1.7283    2.3988    8.3779 C   0  0  0  0  0  0  0  0  0  0  0  0
    2.4255    3.6340    7.8921 C   0  0  0  0  0  0  0  0  0  0  0  0
    1.5928    4.3449    6.8260 C   0  0  0  0  0  0  0  0  0  0  0  0
    0.6964    2.3391    9.3151 C   0  0  0  0  0  0  0  0  0  0  0  0
    0.0462    3.7521   10.1271 Cl  0  0  0  0  0  0  0  0  0  0  0  0
    0.1624    1.0487    9.4721 C   0  0  0  0  0  0  0  0  0  0  0  0
   -1.2301    0.7045   10.4839 Cl  0  0  0  0  0  0  0  0  0  0  0  0
   -0.1748   -1.7311    7.2406 C   0  0  0  0  0  0  0  0  0  0  0  0
   -0.6384   -3.0361    7.0291 C   0  0  0  0  0  0  0  0  0  0  0  0
   -0.5999   -3.9760    8.0871 C   0  0  0  0  0  0  0  0  0  0  0  0
   -1.1516   -5.3377    7.9648 C   0  0  0  0  0  0  0  0  0  0  0  0
   -2.3458   -5.9617    8.9699 S   0  0  0  0  0  0  0  0  0  0  0  0
   -2.2811   -7.5330    8.3880 C   0  0  0  0  0  0  0  0  0  0  0  0
   -3.1270   -8.6676    8.8929 C   0  0  0  0  0  0  0  0  0  0  0  0
   -4.3348   -8.8846    7.9873 C   0  0  0  0  0  0  0  0  0  0  0  0
   -1.3270   -7.5902    7.3676 C   0  0  0  0  0  0  0  0  0  0  0  0
   -0.6872   -6.3557    7.1369 C   0  0  0  0  0  0  0  0  0  0  0  0
    0.6284   -6.1552    5.9894 Cl  0  0  0  0  0  0  0  0  0  0  0  0
   -0.9189   -9.0598    6.5060 Cl  0  0  0  0  0  0  0  0  0  0  0  0
   -0.0666   -3.5408    9.3121 C   0  0  0  0  0  0  0  0  0  0  0  0
    0.1719   -4.4212   10.7273 S   0  0  0  0  0  0  0  0  0  0  0  0
   -1.1758   -3.2313    5.7411 C   0  0  0  0  0  0  0  0  0  0  0  0
   -1.1414   -2.0720    4.9587 C   0  0  0  0  0  0  0  0  0  0  0  0
   -0.4555   -0.8242    5.8579 S   0  0  0  0  0  0  0  0  0  0  0  0
   -1.7207   -1.8981    3.6163 C   0  0  0  0  0  0  0  0  0  0  0  0
   -2.2673   -0.7121    3.1446 C   0  0  0  0  0  0  0  0  0  0  0  0
   -2.8131   -0.8274    1.8576 C   0  0  0  0  0  0  0  0  0  0  0  0
   -3.5973    0.1507    1.2074 C   0  0  0  0  0  0  0  0  0  0  0  0
   -4.1182    1.2926    1.9681 C   0  0  0  0  0  0  0  0  0  0  0  0
   -3.2805    2.6877    2.3728 S   0  0  0  0  0  0  0  0  0  0  0  0
   -4.5005    3.3603    3.3165 C   0  0  0  0  0  0  0  0  0  0  0  0
   -4.3932    4.6639    4.0625 C   0  0  0  0  0  0  0  0  0  0  0  0
   -4.1933    5.8355    3.0983 C   0  0  0  0  0  0  0  0  0  0  0  0
   -5.5867    2.4864    3.3262 C   0  0  0  0  0  0  0  0  0  0  0  0
   -7.0727    2.7699    4.2173 Cl  0  0  0  0  0  0  0  0  0  0  0  0
   -5.3774    1.3330    2.5530 C   0  0  0  0  0  0  0  0  0  0  0  0
   -6.5417    0.0216    2.4252 Cl  0  0  0  0  0  0  0  0  0  0  0  0
   -4.1244   -0.1815   -0.0442 C   0  0  0  0  0  0  0  0  0  0  0  0
   -3.9169   -1.4320   -0.6363 C   0  0  0  0  0  0  0  0  0  0  0  0
   -3.2067   -2.4386    0.0520 C   0  0  0  0  0  0  0  0  0  0  0  0
   -3.2789   -3.8358   -0.3875 C   0  0  0  0  0  0  0  0  0  0  0  0
   -2.5672   -4.4741   -1.7703 S   0  0  0  0  0  0  0  0  0  0  0  0
   -3.2538   -5.9981   -1.6211 C   0  0  0  0  0  0  0  0  0  0  0  0
   -3.0702   -7.1156   -2.6055 C   0  0  0  0  0  0  0  0  0  0  0  0
   -4.2836   -7.2374   -3.5230 C   0  0  0  0  0  0  0  0  0  0  0  0
   -4.0462   -6.0303   -0.4787 C   0  0  0  0  0  0  0  0  0  0  0  0
   -4.0607   -4.8109    0.2200 C   0  0  0  0  0  0  0  0  0  0  0  0
   -5.0735   -4.5096    1.6197 Cl  0  0  0  0  0  0  0  0  0  0  0  0
   -4.9931   -7.4250    0.0189 Cl  0  0  0  0  0  0  0  0  0  0  0  0
   -2.6565   -2.0981    1.3035 C   0  0  0  0  0  0  0  0  0  0  0  0
   -1.8920   -3.0920    2.4306 S   0  0  0  0  0  0  0  0  0  0  0  0
   -4.6238   -1.5992   -1.8370 C   0  0  0  0  0  0  0  0  0  0  0  0
   -5.4097   -0.4948   -2.1706 C   0  0  0  0  0  0  0  0  0  0  0  0
   -5.2249    0.6831   -0.9785 S   0  0  0  0  0  0  0  0  0  0  0  0
   -6.3589   -0.4092   -3.2963 C   0  0  0  0  0  0  0  0  0  0  0  0
   -7.3669    0.4383   -3.3492 O   0  0  0  0  0  0  0  0  0  0  0  0
   -8.0013    0.2836   -4.4910 C   0  0  0  0  0  0  0  0  0  0  0  0
   -7.3814   -0.7092   -5.2283 C   0  0  0  0  0  0  0  0  0  0  0  0
   -7.7191   -1.1173   -6.5572 N   0  0  0  0  0  4  0  0  0  0  0  0
   -6.9124   -1.9890   -7.2512 O   0  0  0  0  0  1  0  0  0  0  0  0
   -8.7824   -0.7278   -7.0891 O   0  0  0  0  0  0  0  0  0  0  0  0
   -6.3417   -1.1734   -4.4519 C   0  0  0  0  0  0  0  0  0  0  0  0
   -5.2765   -2.0107   -4.8916 N   0  0  0  0  0  0  0  0  0  0  0  0
   -4.0925   -1.4231   -5.4326 C   0  0  0  0  0  0  0  0  0  0  0  0
   -2.8083   -1.9449   -5.2943 C   0  0  0  0  0  0  0  0  0  0  0  0
   -1.8277   -1.0869   -5.8309 C   0  0  0  0  0  0  0  0  0  0  0  0
   -0.4322   -1.2596   -5.7529 C   0  0  0  0  0  0  0  0  0  0  0  0
    0.1471   -2.3971   -5.0246 C   0  0  0  0  0  0  0  0  0  0  0  0
   -0.0593   -4.0111   -5.4403 S   0  0  0  0  0  0  0  0  0  0  0  0
    0.7906   -4.6461   -4.1414 C   0  0  0  0  0  0  0  0  0  0  0  0
    1.0493   -6.1107   -3.9385 C   0  0  0  0  0  0  0  0  0  0  0  0
    2.4170   -6.5010   -4.4954 C   0  0  0  0  0  0  0  0  0  0  0  0
    1.2732   -3.5927   -3.3642 C   0  0  0  0  0  0  0  0  0  0  0  0
    2.1913   -3.8126   -1.8857 Cl  0  0  0  0  0  0  0  0  0  0  0  0
    0.9140   -2.3269   -3.8587 C   0  0  0  0  0  0  0  0  0  0  0  0
    1.2933   -0.8204   -3.0315 Cl  0  0  0  0  0  0  0  0  0  0  0  0
    0.3763   -0.2451   -6.3088 C   0  0  0  0  0  0  0  0  0  0  0  0
   -0.1658    0.9030   -6.9015 C   0  0  0  0  0  0  0  0  0  0  0  0
   -1.5642    1.0984   -6.9272 C   0  0  0  0  0  0  0  0  0  0  0  0
   -2.1675    2.3853   -7.3121 C   0  0  0  0  0  0  0  0  0  0  0  0
   -2.9976    3.3840   -6.2536 S   0  0  0  0  0  0  0  0  0  0  0  0
   -3.4181    4.5462   -7.3854 C   0  0  0  0  0  0  0  0  0  0  0  0
   -4.2903    5.7322   -7.0981 C   0  0  0  0  0  0  0  0  0  0  0  0
   -5.7539    5.4182   -7.4240 C   0  0  0  0  0  0  0  0  0  0  0  0
   -2.9178    4.1594   -8.6281 C   0  0  0  0  0  0  0  0  0  0  0  0
   -2.2028    2.9477   -8.5849 C   0  0  0  0  0  0  0  0  0  0  0  0
   -1.5331    2.1681  -10.0055 Cl  0  0  0  0  0  0  0  0  0  0  0  0
   -3.1996    5.0542  -10.1082 Cl  0  0  0  0  0  0  0  0  0  0  0  0
   -2.3602    0.0829   -6.3862 C   0  0  0  0  0  0  0  0  0  0  0  0
   -4.0335    0.0705   -6.2059 S   0  0  0  0  0  0  0  0  0  0  0  0
    0.8045    1.8261   -7.3188 C   0  0  0  0  0  0  0  0  0  0  0  0
    2.1010    1.4205   -7.0302 C   0  0  0  0  0  0  0  0  0  0  0  0
    2.0557   -0.0841   -6.2741 S   0  0  0  0  0  0  0  0  0  0  0  0
    3.2599    2.3274   -7.1046 C   0  0  0  0  0  0  0  0  0  0  0  0
    3.2441    3.4581   -7.7792 O   0  0  0  0  0  0  0  0  0  0  0  0
    4.3395    4.1411   -7.5131 C   0  0  0  0  0  0  0  0  0  0  0  0
    5.1266    3.4195   -6.6375 C   0  0  0  0  0  0  0  0  0  0  0  0
    6.0964    4.0027   -5.7725 N   0  0  0  0  0  4  0  0  0  0  0  0
    7.2663    4.4755   -6.3338 O   0  0  0  0  0  1  0  0  0  0  0  0
    5.6543    4.6153   -4.7766 O   0  0  0  0  0  0  0  0  0  0  0  0
    4.4321    2.2573   -6.3803 C   0  0  0  0  0  0  0  0  0  0  0  0
    4.9008    1.1540   -5.6065 N   0  0  0  0  0  0  0  0  0  0  0  0
    5.0592    1.2242   -4.1907 C   0  0  0  0  0  0  0  0  0  0  0  0
    4.2243    1.9123   -3.3157 C   0  0  0  0  0  0  0  0  0  0  0  0
    4.5923    1.7130   -1.9720 C   0  0  0  0  0  0  0  0  0  0  0  0
    3.9554    2.2538   -0.8347 C   0  0  0  0  0  0  0  0  0  0  0  0
    2.7926    3.1411   -0.9471 C   0  0  0  0  0  0  0  0  0  0  0  0
    1.2001    2.6899   -0.6545 S   0  0  0  0  0  0  0  0  0  0  0  0
    0.5492    4.2340   -0.8069 C   0  0  0  0  0  0  0  0  0  0  0  0
   -0.9140    4.5615   -0.7317 C   0  0  0  0  0  0  0  0  0  0  0  0
   -1.5200    4.6274   -2.1280 C   0  0  0  0  0  0  0  0  0  0  0  0
    1.5796    5.1275   -1.1054 C   0  0  0  0  0  0  0  0  0  0  0  0
    1.3380    6.8494   -1.3495 Cl  0  0  0  0  0  0  0  0  0  0  0  0
    2.8411    4.5082   -1.1767 C   0  0  0  0  0  0  0  0  0  0  0  0
    4.3316    5.3832   -1.4879 Cl  0  0  0  0  0  0  0  0  0  0  0  0
    4.5193    1.9646    0.4134 C   0  0  0  0  0  0  0  0  0  0  0  0
    5.6768    1.1956    0.5566 C   0  0  0  0  0  0  0  0  0  0  0  0
    6.3135    0.6429   -0.5751 C   0  0  0  0  0  0  0  0  0  0  0  0
    7.6043   -0.0515   -0.4776 C   0  0  0  0  0  0  0  0  0  0  0  0
    7.8888   -1.6514   -0.9077 S   0  0  0  0  0  0  0  0  0  0  0  0
    9.5578   -1.5989   -0.6905 C   0  0  0  0  0  0  0  0  0  0  0  0
   10.4922   -2.7560   -0.8890 C   0  0  0  0  0  0  0  0  0  0  0  0
   10.9085   -3.3573    0.4488 C   0  0  0  0  0  0  0  0  0  0  0  0
    9.9155   -0.3185   -0.2782 C   0  0  0  0  0  0  0  0  0  0  0  0
    8.8150    0.5523   -0.1574 C   0  0  0  0  0  0  0  0  0  0  0  0
    8.9748    2.2473    0.2699 Cl  0  0  0  0  0  0  0  0  0  0  0  0
   11.5701    0.1805    0.0204 Cl  0  0  0  0  0  0  0  0  0  0  0  0
    5.7275    0.9017   -1.8230 C   0  0  0  0  0  0  0  0  0  0  0  0
    6.2496    0.3949   -3.3412 S   0  0  0  0  0  0  0  0  0  0  0  0
    6.0933    1.0706    1.8974 C   0  0  0  0  0  0  0  0  0  0  0  0
    5.2537    1.7329    2.7933 C   0  0  0  0  0  0  0  0  0  0  0  0
    4.0107    2.4806    1.9286 S   0  0  0  0  0  0  0  0  0  0  0  0
    1.2207   -3.2250   12.6330 H   0  0  0  0  0  0  0  0  0  0  0  0
    1.3403   -1.0969   11.1468 H   0  0  0  0  0  0  0  0  0  0  0  0
    2.6179    4.3261    8.7409 H   0  0  0  0  0  0  0  0  0  0  0  0
    3.4104    3.3553    7.4653 H   0  0  0  0  0  0  0  0  0  0  0  0
    2.1747    5.1845    6.3942 H   0  0  0  0  0  0  0  0  0  0  0  0
    1.3333    3.6362    6.0123 H   0  0  0  0  0  0  0  0  0  0  0  0
    0.6584    4.7394    7.2739 H   0  0  0  0  0  0  0  0  0  0  0  0
   -2.5253   -9.5993    8.9441 H   0  0  0  0  0  0  0  0  0  0  0  0
   -3.4839   -8.4280    9.9160 H   0  0  0  0  0  0  0  0  0  0  0  0
   -4.9258   -7.9480    7.8934 H   0  0  0  0  0  0  0  0  0  0  0  0
   -4.0066   -9.2204    6.9845 H   0  0  0  0  0  0  0  0  0  0  0  0
   -4.9859   -9.6669    8.4262 H   0  0  0  0  0  0  0  0  0  0  0  0
   -1.6120   -4.1582    5.4014 H   0  0  0  0  0  0  0  0  0  0  0  0
   -2.3084    0.1898    3.7337 H   0  0  0  0  0  0  0  0  0  0  0  0
   -5.3021    4.8438    4.6714 H   0  0  0  0  0  0  0  0  0  0  0  0
   -3.5311    4.6155    4.7580 H   0  0  0  0  0  0  0  0  0  0  0  0
   -3.1677    5.8294    2.6858 H   0  0  0  0  0  0  0  0  0  0  0  0
   -4.9437    5.7999    2.2773 H   0  0  0  0  0  0  0  0  0  0  0  0
   -4.3441    6.7866    3.6473 H   0  0  0  0  0  0  0  0  0  0  0  0
   -2.9055   -8.0740   -2.0663 H   0  0  0  0  0  0  0  0  0  0  0  0
   -2.1722   -6.9199   -3.2269 H   0  0  0  0  0  0  0  0  0  0  0  0
   -4.3760   -6.3303   -4.1521 H   0  0  0  0  0  0  0  0  0  0  0  0
   -5.2106   -7.3607   -2.9199 H   0  0  0  0  0  0  0  0  0  0  0  0
   -4.1709   -8.1257   -4.1771 H   0  0  0  0  0  0  0  0  0  0  0  0
   -4.6237   -2.5144   -2.4020 H   0  0  0  0  0  0  0  0  0  0  0  0
   -8.8673    0.8561   -4.7904 H   0  0  0  0  0  0  0  0  0  0  0  0
   -5.2920   -3.0224   -4.6126 H   0  0  0  0  0  0  0  0  0  0  0  0
   -2.5960   -2.8590   -4.7701 H   0  0  0  0  0  0  0  0  0  0  0  0
    0.2645   -6.6913   -4.4666 H   0  0  0  0  0  0  0  0  0  0  0  0
    0.9999   -6.3681   -2.8550 H   0  0  0  0  0  0  0  0  0  0  0  0
    3.2122   -6.0941   -3.8405 H   0  0  0  0  0  0  0  0  0  0  0  0
    2.5505   -6.1039   -5.5203 H   0  0  0  0  0  0  0  0  0  0  0  0
    2.5108   -7.6034   -4.5217 H   0  0  0  0  0  0  0  0  0  0  0  0
   -4.2018    5.9927   -6.0259 H   0  0  0  0  0  0  0  0  0  0  0  0
   -3.9572    6.6154   -7.6883 H   0  0  0  0  0  0  0  0  0  0  0  0
   -5.9078    5.4098   -8.5199 H   0  0  0  0  0  0  0  0  0  0  0  0
   -6.4015    6.1965   -6.9738 H   0  0  0  0  0  0  0  0  0  0  0  0
   -6.0432    4.4353   -6.9930 H   0  0  0  0  0  0  0  0  0  0  0  0
    0.5722    2.7903   -7.7415 H   0  0  0  0  0  0  0  0  0  0  0  0
    4.5465    5.1351   -7.8880 H   0  0  0  0  0  0  0  0  0  0  0  0
    5.3036    0.3358   -6.1182 H   0  0  0  0  0  0  0  0  0  0  0  0
    3.3813    2.5073   -3.6343 H   0  0  0  0  0  0  0  0  0  0  0  0
   -1.0557    5.5385   -0.2205 H   0  0  0  0  0  0  0  0  0  0  0  0
   -1.4372    3.7834   -0.1323 H   0  0  0  0  0  0  0  0  0  0  0  0
   -2.6165    4.7878   -2.0567 H   0  0  0  0  0  0  0  0  0  0  0  0
   -1.3329    3.6845   -2.6785 H   0  0  0  0  0  0  0  0  0  0  0  0
   -1.0703    5.4702   -2.6986 H   0  0  0  0  0  0  0  0  0  0  0  0
    9.9924   -3.5359   -1.5081 H   0  0  0  0  0  0  0  0  0  0  0  0
   11.4008   -2.4113   -1.4334 H   0  0  0  0  0  0  0  0  0  0  0  0
   11.5079   -4.2761    0.2763 H   0  0  0  0  0  0  0  0  0  0  0  0
   10.0159   -3.6212    1.0530 H   0  0  0  0  0  0  0  0  0  0  0  0
   11.5277   -2.6287    1.0090 H   0  0  0  0  0  0  0  0  0  0  0  0
    6.9672    0.5172    2.2076 H   0  0  0  0  0  0  0  0  0  0  0  0
    5.3908    1.7627    3.8668 H   0  0  0  0  0  0  0  0  0  0  0  0
  1  2  2  0
  2  3  1  0
  3  4  2  0
  4  5  1  0
  5  6  1  0
  6  7  1  0
  7  8  1  0
  8  9  1  0
  7 10  2  0
 10 11  1  0
 10 12  1  0
 12 13  1  0
  4 14  1  0
 14 15  2  0
 15 16  1  0
 16 17  1  0
 17 18  1  0
 18 19  1  0
 19 20  1  0
 20 21  1  0
 19 22  2  0
 22 23  1  0
 23 24  1  0
 22 25  1  0
 16 26  2  0
 26 27  1  0
 15 28  1  0
 28 29  2  0
 29 30  1  0
 29 31  1  0
 31 32  2  0
 32 33  1  0
 33 34  2  0
 34 35  1  0
 35 36  1  0
 36 37  1  0
 37 38  1  0
 38 39  1  0
 37 40  2  0
 40 41  1  0
 40 42  1  0
 42 43  1  0
 34 44  1  0
 44 45  2  0
 45 46  1  0
 46 47  1  0
 47 48  1  0
 48 49  1  0
 49 50  1  0
 50 51  1  0
 49 52  2  0
 52 53  1  0
 53 54  1  0
 52 55  1  0
 46 56  2  0
 56 57  1  0
 45 58  1  0
 58 59  2  0
 59 60  1  0
 59 61  1  0
 61 62  1  0
 62 63  1  0
 63 64  2  0
 64 65  1  0
 65 66  1  0
 65 67  2  0
 64 68  1  0
 68 69  1  0
 69 70  1  0
 70 71  2  0
 71 72  1  0
 72 73  2  0
 73 74  1  0
 74 75  1  0
 75 76  1  0
 76 77  1  0
 77 78  1  0
 76 79  2  0
 79 80  1  0
 79 81  1  0
 81 82  1  0
 73 83  1  0
 83 84  2  0
 84 85  1  0
 85 86  1  0
 86 87  1  0
 87 88  1  0
 88 89  1  0
 89 90  1  0
 88 91  2  0
 91 92  1  0
 92 93  1  0
 91 94  1  0
 85 95  2  0
 95 96  1  0
 84 97  1  0
 97 98  2  0
 98 99  1  0
 98100  1  0
100101  1  0
101102  1  0
102103  2  0
103104  1  0
104105  1  0
104106  2  0
103107  1  0
107108  1  0
108109  1  0
109110  2  0
110111  1  0
111112  2  0
112113  1  0
113114  1  0
114115  1  0
115116  1  0
116117  1  0
115118  2  0
118119  1  0
118120  1  0
120121  1  0
112122  1  0
122123  2  0
123124  1  0
124125  1  0
125126  1  0
126127  1  0
127128  1  0
128129  1  0
127130  2  0
130131  1  0
131132  1  0
130133  1  0
124134  2  0
134135  1  0
123136  1  0
136137  2  0
137138  1  0
 27  1  1  0
 57 31  1  0
 68 61  2  0
 96 70  1  0
107100  2  0
135109  1  0
 26  3  1  0
 56 33  1  0
 95 72  1  0
134111  1  0
 12  5  2  0
 30 14  1  0
 42 35  2  0
 60 44  1  0
 81 74  2  0
 99 83  1  0
120113  2  0
138122  1  0
 23 17  2  0
 53 47  2  0
 92 86  2  0
131125  2  0
  1139  1  0
  2140  1  0
  8141  1  0
  8142  1  0
  9143  1  0
  9144  1  0
  9145  1  0
 20146  1  0
 20147  1  0
 21148  1  0
 21149  1  0
 21150  1  0
 28151  1  0
 32152  1  0
 38153  1  0
 38154  1  0
 39155  1  0
 39156  1  0
 39157  1  0
 50158  1  0
 50159  1  0
 51160  1  0
 51161  1  0
 51162  1  0
 58163  1  0
 63164  1  0
 69165  1  0
 71166  1  0
 77167  1  0
 77168  1  0
 78169  1  0
 78170  1  0
 78171  1  0
 89172  1  0
 89173  1  0
 90174  1  0
 90175  1  0
 90176  1  0
 97177  1  0
102178  1  0
108179  1  0
110180  1  0
116181  1  0
116182  1  0
117183  1  0
117184  1  0
117185  1  0
128186  1  0
128187  1  0
129188  1  0
129189  1  0
129190  1  0
136191  1  0
137192  1  0
M  CHG  4  65   1  66  -1 104   1 105  -1
M  END

