
     RDKit          3D

194215  0  0  0  0  0  0  0  0999 V2000
    5.1534   -4.9697    8.7093 C   0  0  0  0  0  0  0  0  0  0  0  0
    4.7444   -5.9392    7.7969 C   0  0  0  0  0  0  0  0  0  0  0  0
    3.6462   -5.5398    7.0167 C   0  0  0  0  0  0  0  0  0  0  0  0
    3.0390   -6.2839    5.9846 C   0  0  0  0  0  0  0  0  0  0  0  0
    3.5374   -7.6101    5.5829 C   0  0  0  0  0  0  0  0  0  0  0  0
    5.0472   -7.9004    4.8989 S   0  0  0  0  0  0  0  0  0  0  0  0
    4.8494   -9.5618    4.7298 C   0  0  0  0  0  0  0  0  0  0  0  0
    5.9047  -10.4944    4.2168 C   0  0  0  0  0  0  0  0  0  0  0  0
    6.7994  -10.9741    5.3542 C   0  0  0  0  0  0  0  0  0  0  0  0
    3.5997   -9.9173    5.2357 C   0  0  0  0  0  0  0  0  0  0  0  0
    3.0151  -11.5729    5.3008 Cl  0  0  0  0  0  0  0  0  0  0  0  0
    2.8599   -8.8203    5.7036 C   0  0  0  0  0  0  0  0  0  0  0  0
    1.2638   -8.9689    6.4288 Cl  0  0  0  0  0  0  0  0  0  0  0  0
    1.9577   -5.6817    5.3187 C   0  0  0  0  0  0  0  0  0  0  0  0
    1.4836   -4.4108    5.6567 C   0  0  0  0  0  0  0  0  0  0  0  0
    2.1115   -3.6485    6.6632 C   0  0  0  0  0  0  0  0  0  0  0  0
    1.7364   -2.2416    6.9264 C   0  0  0  0  0  0  0  0  0  0  0  0
    1.2665   -1.6339    8.4252 S   0  0  0  0  0  0  0  0  0  0  0  0
    1.0631   -0.0418    7.9201 C   0  0  0  0  0  0  0  0  0  0  0  0
    0.5621    1.0722    8.7894 C   0  0  0  0  0  0  0  0  0  0  0  0
   -0.9506    1.2162    8.6574 C   0  0  0  0  0  0  0  0  0  0  0  0
    1.3486    0.0359    6.5589 C   0  0  0  0  0  0  0  0  0  0  0  0
    1.7243   -1.1948    6.0015 C   0  0  0  0  0  0  0  0  0  0  0  0
    2.1489   -1.3716    4.3022 Cl  0  0  0  0  0  0  0  0  0  0  0  0
    1.2620    1.5269    5.6323 Cl  0  0  0  0  0  0  0  0  0  0  0  0
    3.1840   -4.2582    7.3366 C   0  0  0  0  0  0  0  0  0  0  0  0
    4.1533   -3.6202    8.5550 S   0  0  0  0  0  0  0  0  0  0  0  0
    0.4168   -3.9914    4.8530 C   0  0  0  0  0  0  0  0  0  0  0  0
    0.1213   -4.8834    3.8258 C   0  0  0  0  0  0  0  0  0  0  0  0
    1.1229   -6.2377    3.9629 S   0  0  0  0  0  0  0  0  0  0  0  0
   -0.7472   -4.5768    2.6797 C   0  0  0  0  0  0  0  0  0  0  0  0
   -1.3837   -3.3552    2.4653 C   0  0  0  0  0  0  0  0  0  0  0  0
   -1.9873   -3.2611    1.2056 C   0  0  0  0  0  0  0  0  0  0  0  0
   -2.6604   -2.1353    0.6913 C   0  0  0  0  0  0  0  0  0  0  0  0
   -2.8826   -0.9190    1.5010 C   0  0  0  0  0  0  0  0  0  0  0  0
   -2.2918    0.6090    1.1174 S   0  0  0  0  0  0  0  0  0  0  0  0
   -2.8998    1.3869    2.4779 C   0  0  0  0  0  0  0  0  0  0  0  0
   -2.6602    2.8290    2.8118 C   0  0  0  0  0  0  0  0  0  0  0  0
   -1.3315    2.9982    3.5353 C   0  0  0  0  0  0  0  0  0  0  0  0
   -3.5580    0.4498    3.2703 C   0  0  0  0  0  0  0  0  0  0  0  0
   -4.2932    0.8304    4.8216 Cl  0  0  0  0  0  0  0  0  0  0  0  0
   -3.5614   -0.8398    2.7165 C   0  0  0  0  0  0  0  0  0  0  0  0
   -4.3766   -2.2064    3.4692 Cl  0  0  0  0  0  0  0  0  0  0  0  0
   -3.0811   -2.2075   -0.6454 C   0  0  0  0  0  0  0  0  0  0  0  0
   -2.8935   -3.3479   -1.4353 C   0  0  0  0  0  0  0  0  0  0  0  0
   -2.2619   -4.4926   -0.9023 C   0  0  0  0  0  0  0  0  0  0  0  0
   -2.0709   -5.7226   -1.6938 C   0  0  0  0  0  0  0  0  0  0  0  0
   -0.5790   -6.4047   -2.0754 S   0  0  0  0  0  0  0  0  0  0  0  0
   -1.1935   -7.7062   -2.9455 C   0  0  0  0  0  0  0  0  0  0  0  0
   -0.3563   -8.7095   -3.6783 C   0  0  0  0  0  0  0  0  0  0  0  0
   -0.0873   -8.2448   -5.1059 C   0  0  0  0  0  0  0  0  0  0  0  0
   -2.5845   -7.6190   -2.9554 C   0  0  0  0  0  0  0  0  0  0  0  0
   -3.0758   -6.5145   -2.2433 C   0  0  0  0  0  0  0  0  0  0  0  0
   -4.7925   -6.2004   -2.0191 Cl  0  0  0  0  0  0  0  0  0  0  0  0
   -3.6250   -8.7705   -3.7818 Cl  0  0  0  0  0  0  0  0  0  0  0  0
   -1.8036   -4.4038    0.4225 C   0  0  0  0  0  0  0  0  0  0  0  0
   -0.9235   -5.5386    1.3029 S   0  0  0  0  0  0  0  0  0  0  0  0
   -3.3624   -3.1868   -2.7507 C   0  0  0  0  0  0  0  0  0  0  0  0
   -3.9213   -1.9296   -2.9681 C   0  0  0  0  0  0  0  0  0  0  0  0
   -3.8521   -1.0196   -1.5500 S   0  0  0  0  0  0  0  0  0  0  0  0
   -4.5315   -1.5021   -4.1953 N   0  0  0  0  0  0  0  0  0  0  0  0
   -5.5354   -2.2061   -4.9275 C   0  0  0  0  0  0  0  0  0  0  0  0
   -6.1985   -3.6266   -4.4461 S   0  0  0  0  0  0  0  0  0  0  0  0
   -6.2019   -1.2962   -5.8553 C   0  0  0  0  0  0  0  0  0  0  0  0
   -5.6165   -0.1064   -5.7648 C   0  0  0  0  0  0  0  0  0  0  0  0
   -4.5689   -0.1788   -4.7365 C   0  0  0  0  0  0  0  0  0  0  0  0
   -3.8044    1.1186   -4.0776 S   0  0  0  0  0  0  0  0  0  0  0  0
   -6.0998    1.0994   -6.4546 C   0  0  0  0  0  0  0  0  0  0  0  0
   -5.2671    2.0379   -6.9089 C   0  0  0  0  0  0  0  0  0  0  0  0
   -5.7743    3.2641   -7.4531 N   0  0  0  0  0  0  0  0  0  0  0  0
   -5.1376    4.0433   -8.4645 C   0  0  0  0  0  0  0  0  0  0  0  0
   -3.8593    3.5281   -9.3508 S   0  0  0  0  0  0  0  0  0  0  0  0
   -5.5192    5.4485   -8.3401 C   0  0  0  0  0  0  0  0  0  0  0  0
   -6.3342    5.5559   -7.2962 C   0  0  0  0  0  0  0  0  0  0  0  0
   -6.5417    4.2218   -6.7228 C   0  0  0  0  0  0  0  0  0  0  0  0
   -7.2348    3.9350   -5.2618 S   0  0  0  0  0  0  0  0  0  0  0  0
   -6.6692    6.8311   -6.6369 C   0  0  0  0  0  0  0  0  0  0  0  0
   -6.0808    7.2266   -5.4989 C   0  0  0  0  0  0  0  0  0  0  0  0
   -4.9240    6.5341   -4.9043 C   0  0  0  0  0  0  0  0  0  0  0  0
   -4.8157    6.1458   -3.5714 C   0  0  0  0  0  0  0  0  0  0  0  0
   -3.6101    5.4745   -3.2985 C   0  0  0  0  0  0  0  0  0  0  0  0
   -3.2208    4.9259   -2.0617 C   0  0  0  0  0  0  0  0  0  0  0  0
   -4.1445    4.8684   -0.9183 C   0  0  0  0  0  0  0  0  0  0  0  0
   -5.5115    3.8927   -0.8676 S   0  0  0  0  0  0  0  0  0  0  0  0
   -5.9508    4.2888    0.7069 C   0  0  0  0  0  0  0  0  0  0  0  0
   -7.0966    3.6632    1.4429 C   0  0  0  0  0  0  0  0  0  0  0  0
   -6.6582    2.3643    2.1109 C   0  0  0  0  0  0  0  0  0  0  0  0
   -5.0133    5.1823    1.2206 C   0  0  0  0  0  0  0  0  0  0  0  0
   -5.0713    5.8121    2.8605 Cl  0  0  0  0  0  0  0  0  0  0  0  0
   -3.9997    5.5102    0.3056 C   0  0  0  0  0  0  0  0  0  0  0  0
   -2.6833    6.6164    0.6729 Cl  0  0  0  0  0  0  0  0  0  0  0  0
   -1.9590    4.3118   -2.0072 C   0  0  0  0  0  0  0  0  0  0  0  0
   -1.1323    4.1892   -3.1301 C   0  0  0  0  0  0  0  0  0  0  0  0
   -1.5257    4.7272   -4.3717 C   0  0  0  0  0  0  0  0  0  0  0  0
   -0.6689    4.6539   -5.5702 C   0  0  0  0  0  0  0  0  0  0  0  0
   -0.0200    5.9920   -6.3589 S   0  0  0  0  0  0  0  0  0  0  0  0
    0.7818    5.1258   -7.5567 C   0  0  0  0  0  0  0  0  0  0  0  0
    1.6591    5.7391   -8.6060 C   0  0  0  0  0  0  0  0  0  0  0  0
    3.1153    5.7565   -8.1551 C   0  0  0  0  0  0  0  0  0  0  0  0
    0.5573    3.7661   -7.3488 C   0  0  0  0  0  0  0  0  0  0  0  0
   -0.2603    3.5010   -6.2403 C   0  0  0  0  0  0  0  0  0  0  0  0
   -0.7482    1.8770   -5.7734 Cl  0  0  0  0  0  0  0  0  0  0  0  0
    1.2383    2.5050   -8.3690 Cl  0  0  0  0  0  0  0  0  0  0  0  0
   -2.7697    5.3764   -4.4124 C   0  0  0  0  0  0  0  0  0  0  0  0
   -3.5220    6.0879   -5.7334 S   0  0  0  0  0  0  0  0  0  0  0  0
    0.0599    3.5013   -2.8614 C   0  0  0  0  0  0  0  0  0  0  0  0
    0.1601    3.0972   -1.5332 C   0  0  0  0  0  0  0  0  0  0  0  0
   -1.2136    3.5801   -0.6863 S   0  0  0  0  0  0  0  0  0  0  0  0
    1.2494    2.2933   -0.9831 C   0  0  0  0  0  0  0  0  0  0  0  0
    1.7455    1.1392   -1.5694 C   0  0  0  0  0  0  0  0  0  0  0  0
    2.8520    0.6101   -0.8872 C   0  0  0  0  0  0  0  0  0  0  0  0
    3.5498   -0.5636   -1.2297 C   0  0  0  0  0  0  0  0  0  0  0  0
    3.0727   -1.4618   -2.3037 C   0  0  0  0  0  0  0  0  0  0  0  0
    3.9468   -1.8612   -3.6863 S   0  0  0  0  0  0  0  0  0  0  0  0
    2.7228   -2.7472   -4.4261 C   0  0  0  0  0  0  0  0  0  0  0  0
    2.8609   -3.4729   -5.7315 C   0  0  0  0  0  0  0  0  0  0  0  0
    3.1699   -4.9479   -5.5020 C   0  0  0  0  0  0  0  0  0  0  0  0
    1.6074   -2.7513   -3.5915 C   0  0  0  0  0  0  0  0  0  0  0  0
    0.0901   -3.5358   -4.0072 Cl  0  0  0  0  0  0  0  0  0  0  0  0
    1.8049   -2.0395   -2.3992 C   0  0  0  0  0  0  0  0  0  0  0  0
    0.5861   -1.9410   -1.1314 Cl  0  0  0  0  0  0  0  0  0  0  0  0
    4.7288   -0.8269   -0.5120 C   0  0  0  0  0  0  0  0  0  0  0  0
    5.1842   -0.0023    0.5244 C   0  0  0  0  0  0  0  0  0  0  0  0
    4.4331    1.1260    0.9320 C   0  0  0  0  0  0  0  0  0  0  0  0
    4.8728    2.0198    2.0303 C   0  0  0  0  0  0  0  0  0  0  0  0
    5.0210    3.6928    1.8978 S   0  0  0  0  0  0  0  0  0  0  0  0
    5.4733    3.9739    3.4915 C   0  0  0  0  0  0  0  0  0  0  0  0
    5.6678    5.3321    4.0944 C   0  0  0  0  0  0  0  0  0  0  0  0
    4.3720    5.8303    4.7270 C   0  0  0  0  0  0  0  0  0  0  0  0
    5.4982    2.7562    4.1643 C   0  0  0  0  0  0  0  0  0  0  0  0
    5.1749    1.6612    3.3474 C   0  0  0  0  0  0  0  0  0  0  0  0
    5.1041    0.0190    3.9678 Cl  0  0  0  0  0  0  0  0  0  0  0  0
    5.8542    2.6055    5.8802 Cl  0  0  0  0  0  0  0  0  0  0  0  0
    3.2653    1.4028    0.1906 C   0  0  0  0  0  0  0  0  0  0  0  0
    2.1878    2.6937    0.3582 S   0  0  0  0  0  0  0  0  0  0  0  0
    6.4294   -0.4114    1.0342 C   0  0  0  0  0  0  0  0  0  0  0  0
    6.9144   -1.5732    0.4417 C   0  0  0  0  0  0  0  0  0  0  0  0
    5.8261   -2.0810   -0.7385 S   0  0  0  0  0  0  0  0  0  0  0  0
    5.9801   -5.0673    9.3985 H   0  0  0  0  0  0  0  0  0  0  0  0
    5.2378   -6.8975    7.7050 H   0  0  0  0  0  0  0  0  0  0  0  0
    5.4300  -11.3685    3.7231 H   0  0  0  0  0  0  0  0  0  0  0  0
    6.5212   -9.9706    3.4565 H   0  0  0  0  0  0  0  0  0  0  0  0
    7.5748  -11.6573    4.9502 H   0  0  0  0  0  0  0  0  0  0  0  0
    7.3034  -10.1105    5.8373 H   0  0  0  0  0  0  0  0  0  0  0  0
    6.1996  -11.5243    6.1110 H   0  0  0  0  0  0  0  0  0  0  0  0
    1.0533    2.0264    8.5019 H   0  0  0  0  0  0  0  0  0  0  0  0
    0.8202    0.8602    9.8493 H   0  0  0  0  0  0  0  0  0  0  0  0
   -1.4554    0.2753    8.9618 H   0  0  0  0  0  0  0  0  0  0  0  0
   -1.3036    2.0391    9.3143 H   0  0  0  0  0  0  0  0  0  0  0  0
   -1.2277    1.4544    7.6082 H   0  0  0  0  0  0  0  0  0  0  0  0
   -0.0836   -3.0435    4.9798 H   0  0  0  0  0  0  0  0  0  0  0  0
   -1.3649   -2.5396    3.1739 H   0  0  0  0  0  0  0  0  0  0  0  0
   -2.6470    3.4240    1.8766 H   0  0  0  0  0  0  0  0  0  0  0  0
   -3.4808    3.2193    3.4501 H   0  0  0  0  0  0  0  0  0  0  0  0
   -1.3544    2.4558    4.5037 H   0  0  0  0  0  0  0  0  0  0  0  0
   -0.4971    2.6078    2.9146 H   0  0  0  0  0  0  0  0  0  0  0  0
   -1.1511    4.0768    3.7356 H   0  0  0  0  0  0  0  0  0  0  0  0
   -0.8743   -9.6924   -3.7001 H   0  0  0  0  0  0  0  0  0  0  0  0
    0.6101   -8.8469   -3.1476 H   0  0  0  0  0  0  0  0  0  0  0  0
    0.5149   -9.0096   -5.6397 H   0  0  0  0  0  0  0  0  0  0  0  0
   -1.0438   -8.0994   -5.6518 H   0  0  0  0  0  0  0  0  0  0  0  0
    0.4807   -7.2907   -5.0976 H   0  0  0  0  0  0  0  0  0  0  0  0
   -3.2902   -3.9448   -3.5197 H   0  0  0  0  0  0  0  0  0  0  0  0
   -7.0621   -1.5292   -6.4704 H   0  0  0  0  0  0  0  0  0  0  0  0
   -7.1668    1.2150   -6.6042 H   0  0  0  0  0  0  0  0  0  0  0  0
   -4.1968    1.8771   -6.8736 H   0  0  0  0  0  0  0  0  0  0  0  0
   -5.0891    6.2766   -8.8892 H   0  0  0  0  0  0  0  0  0  0  0  0
   -7.4780    7.4204   -7.0467 H   0  0  0  0  0  0  0  0  0  0  0  0
   -6.4778    8.0900   -4.9801 H   0  0  0  0  0  0  0  0  0  0  0  0
   -5.5896    6.3227   -2.8366 H   0  0  0  0  0  0  0  0  0  0  0  0
   -7.9183    3.4467    0.7284 H   0  0  0  0  0  0  0  0  0  0  0  0
   -7.4869    4.3654    2.2102 H   0  0  0  0  0  0  0  0  0  0  0  0
   -7.5257    1.8943    2.6185 H   0  0  0  0  0  0  0  0  0  0  0  0
   -6.2598    1.6528    1.3553 H   0  0  0  0  0  0  0  0  0  0  0  0
   -5.8730    2.5716    2.8678 H   0  0  0  0  0  0  0  0  0  0  0  0
    1.3256    6.7794   -8.8043 H   0  0  0  0  0  0  0  0  0  0  0  0
    1.5693    5.1683   -9.5551 H   0  0  0  0  0  0  0  0  0  0  0  0
    3.7452    6.2072   -8.9507 H   0  0  0  0  0  0  0  0  0  0  0  0
    3.2235    6.3601   -7.2281 H   0  0  0  0  0  0  0  0  0  0  0  0
    3.4727    4.7221   -7.9618 H   0  0  0  0  0  0  0  0  0  0  0  0
    0.8280    3.3033   -3.5978 H   0  0  0  0  0  0  0  0  0  0  0  0
    1.3186    0.7098   -2.4663 H   0  0  0  0  0  0  0  0  0  0  0  0
    1.9234   -3.3749   -6.3174 H   0  0  0  0  0  0  0  0  0  0  0  0
    3.6815   -3.0152   -6.3246 H   0  0  0  0  0  0  0  0  0  0  0  0
    2.3429   -5.4326   -4.9411 H   0  0  0  0  0  0  0  0  0  0  0  0
    4.1147   -5.0594   -4.9290 H   0  0  0  0  0  0  0  0  0  0  0  0
    3.2844   -5.4611   -6.4810 H   0  0  0  0  0  0  0  0  0  0  0  0
    5.9877    6.0441    3.3034 H   0  0  0  0  0  0  0  0  0  0  0  0
    6.4686    5.2920    4.8637 H   0  0  0  0  0  0  0  0  0  0  0  0
    4.0550    5.1504    5.5471 H   0  0  0  0  0  0  0  0  0  0  0  0
    4.5315    6.8452    5.1489 H   0  0  0  0  0  0  0  0  0  0  0  0
    3.5675    5.8859    3.9630 H   0  0  0  0  0  0  0  0  0  0  0  0
    6.9785    0.1188    1.8004 H   0  0  0  0  0  0  0  0  0  0  0  0
    7.8488   -2.0587    0.6876 H   0  0  0  0  0  0  0  0  0  0  0  0
  1  2  2  0
  2  3  1  0
  3  4  2  0
  4  5  1  0
  5  6  1  0
  6  7  1  0
  7  8  1  0
  8  9  1  0
  7 10  2  0
 10 11  1  0
 10 12  1  0
 12 13  1  0
  4 14  1  0
 14 15  2  0
 15 16  1  0
 16 17  1  0
 17 18  1  0
 18 19  1  0
 19 20  1  0
 20 21  1  0
 19 22  2  0
 22 23  1  0
 23 24  1  0
 22 25  1  0
 16 26  2  0
 26 27  1  0
 15 28  1  0
 28 29  2  0
 29 30  1  0
 29 31  1  0
 31 32  2  0
 32 33  1  0
 33 34  2  0
 34 35  1  0
 35 36  1  0
 36 37  1  0
 37 38  1  0
 38 39  1  0
 37 40  2  0
 40 41  1  0
 40 42  1  0
 42 43  1  0
 34 44  1  0
 44 45  2  0
 45 46  1  0
 46 47  1  0
 47 48  1  0
 48 49  1  0
 49 50  1  0
 50 51  1  0
 49 52  2  0
 52 53  1  0
 53 54  1  0
 52 55  1  0
 46 56  2  0
 56 57  1  0
 45 58  1  0
 58 59  2  0
 59 60  1  0
 59 61  1  0
 61 62  1  0
 62 63  2  0
 62 64  1  0
 64 65  2  0
 65 66  1  0
 66 67  2  0
 65 68  1  0
 68 69  2  3
 69 70  1  0
 70 71  1  0
 71 72  2  0
 71 73  1  0
 73 74  2  0
 74 75  1  0
 75 76  2  0
 74 77  1  0
 77 78  2  3
 78 79  1  0
 79 80  2  0
 80 81  1  0
 81 82  2  0
 82 83  1  0
 83 84  1  0
 84 85  1  0
 85 86  1  0
 86 87  1  0
 85 88  2  0
 88 89  1  0
 88 90  1  0
 90 91  1  0
 82 92  1  0
 92 93  2  0
 93 94  1  0
 94 95  1  0
 95 96  1  0
 96 97  1  0
 97 98  1  0
 98 99  1  0
 97100  2  0
100101  1  0
101102  1  0
100103  1  0
 94104  2  0
104105  1  0
 93106  1  0
106107  2  0
107108  1  0
107109  1  0
109110  2  0
110111  1  0
111112  2  0
112113  1  0
113114  1  0
114115  1  0
115116  1  0
116117  1  0
115118  2  0
118119  1  0
118120  1  0
120121  1  0
112122  1  0
122123  2  0
123124  1  0
124125  1  0
125126  1  0
126127  1  0
127128  1  0
128129  1  0
127130  2  0
130131  1  0
131132  1  0
130133  1  0
124134  2  0
134135  1  0
123136  1  0
136137  2  0
137138  1  0
 27  1  1  0
 57 31  1  0
 66 61  1  0
 75 70  1  0
105 79  1  0
135109  1  0
 26  3  1  0
 56 33  1  0
104 81  1  0
134111  1  0
 12  5  2  0
 30 14  1  0
 42 35  2  0
 60 44  1  0
 90 83  2  0
108 92  1  0
120113  2  0
138122  1  0
 23 17  2  0
 53 47  2  0
101 95  2  0
131125  2  0
  1139  1  0
  2140  1  0
  8141  1  0
  8142  1  0
  9143  1  0
  9144  1  0
  9145  1  0
 20146  1  0
 20147  1  0
 21148  1  0
 21149  1  0
 21150  1  0
 28151  1  0
 32152  1  0
 38153  1  0
 38154  1  0
 39155  1  0
 39156  1  0
 39157  1  0
 50158  1  0
 50159  1  0
 51160  1  0
 51161  1  0
 51162  1  0
 58163  1  0
 64164  1  0
 68165  1  0
 69166  1  0
 73167  1  0
 77168  1  0
 78169  1  0
 80170  1  0
 86171  1  0
 86172  1  0
 87173  1  0
 87174  1  0
 87175  1  0
 98176  1  0
 98177  1  0
 99178  1  0
 99179  1  0
 99180  1  0
106181  1  0
110182  1  0
116183  1  0
116184  1  0
117185  1  0
117186  1  0
117187  1  0
128188  1  0
128189  1  0
129190  1  0
129191  1  0
129192  1  0
136193  1  0
137194  1  0
M  END

