
     RDKit          3D

232253  0  0  0  0  0  0  0  0999 V2000
   -1.9266   -7.0889   13.7634 C   0  0  0  0  0  0  0  0  0  0  0  0
   -2.4986   -5.8876   13.3593 C   0  0  0  0  0  0  0  0  0  0  0  0
   -2.5954   -5.7650   11.9652 C   0  0  0  0  0  0  0  0  0  0  0  0
   -3.0831   -4.6489   11.2609 C   0  0  0  0  0  0  0  0  0  0  0  0
   -3.5795   -3.4452   11.9507 C   0  0  0  0  0  0  0  0  0  0  0  0
   -4.9002   -3.3936   12.4163 C   0  0  0  0  0  0  0  0  0  0  0  0
   -5.3748   -2.2406   13.0509 C   0  0  0  0  0  0  0  0  0  0  0  0
   -4.5348   -1.1337   13.2215 C   0  0  0  0  0  0  0  0  0  0  0  0
   -5.1599    0.3532   14.0173 S   0  0  0  0  0  0  0  0  0  0  0  0
   -5.6296    1.1895   12.4610 C   0  0  0  0  0  0  0  0  0  0  0  0
   -7.0145    0.7508   12.0036 C   0  0  0  0  0  0  0  0  0  0  0  0
   -3.2098   -1.1899   12.7702 C   0  0  0  0  0  0  0  0  0  0  0  0
   -2.3815   -0.1309   12.9401 F   0  0  0  0  0  0  0  0  0  0  0  0
   -2.7345   -2.3446   12.1372 C   0  0  0  0  0  0  0  0  0  0  0  0
   -3.0588   -4.7195    9.8604 C   0  0  0  0  0  0  0  0  0  0  0  0
   -2.5881   -5.8417    9.1677 C   0  0  0  0  0  0  0  0  0  0  0  0
   -2.0758   -6.9513    9.8702 C   0  0  0  0  0  0  0  0  0  0  0  0
   -1.4266   -8.0834    9.1803 C   0  0  0  0  0  0  0  0  0  0  0  0
   -0.2380   -7.8713    8.4655 C   0  0  0  0  0  0  0  0  0  0  0  0
    0.4272   -8.9461    7.8728 C   0  0  0  0  0  0  0  0  0  0  0  0
   -0.0978  -10.2405    7.9711 C   0  0  0  0  0  0  0  0  0  0  0  0
    0.8006  -11.6208    7.2421 S   0  0  0  0  0  0  0  0  0  0  0  0
    0.1880  -11.3519    5.5411 C   0  0  0  0  0  0  0  0  0  0  0  0
   -1.2240  -11.8995    5.3747 C   0  0  0  0  0  0  0  0  0  0  0  0
   -1.2880  -10.4572    8.6804 C   0  0  0  0  0  0  0  0  0  0  0  0
   -1.9478   -9.3805    9.2864 C   0  0  0  0  0  0  0  0  0  0  0  0
   -1.7963  -11.7108    8.8057 F   0  0  0  0  0  0  0  0  0  0  0  0
   -2.1069   -6.8795   11.2757 C   0  0  0  0  0  0  0  0  0  0  0  0
   -1.5383   -7.9981   12.3966 S   0  0  0  0  0  0  0  0  0  0  0  0
   -2.6885   -5.7064    7.7720 C   0  0  0  0  0  0  0  0  0  0  0  0
   -3.2029   -4.4698    7.3926 C   0  0  0  0  0  0  0  0  0  0  0  0
   -3.5522   -3.5473    8.7600 S   0  0  0  0  0  0  0  0  0  0  0  0
   -3.4339   -4.0239    6.0227 C   0  0  0  0  0  0  0  0  0  0  0  0
   -2.8079   -2.9341    5.4289 C   0  0  0  0  0  0  0  0  0  0  0  0
   -3.3302   -2.6385    4.1627 C   0  0  0  0  0  0  0  0  0  0  0  0
   -2.9124   -1.5955    3.3198 C   0  0  0  0  0  0  0  0  0  0  0  0
   -1.7765   -0.7320    3.6734 C   0  0  0  0  0  0  0  0  0  0  0  0
   -1.9997    0.5245    4.2515 C   0  0  0  0  0  0  0  0  0  0  0  0
   -0.9190    1.3172    4.6418 C   0  0  0  0  0  0  0  0  0  0  0  0
    0.3921    0.8672    4.4395 C   0  0  0  0  0  0  0  0  0  0  0  0
    1.7709    1.9113    4.9208 S   0  0  0  0  0  0  0  0  0  0  0  0
    1.7779    2.8163    3.3381 C   0  0  0  0  0  0  0  0  0  0  0  0
    2.7284    3.9999    3.4164 C   0  0  0  0  0  0  0  0  0  0  0  0
    0.6180   -0.3888    3.8602 C   0  0  0  0  0  0  0  0  0  0  0  0
    1.8850   -0.8370    3.6585 F   0  0  0  0  0  0  0  0  0  0  0  0
   -0.4662   -1.1901    3.4849 C   0  0  0  0  0  0  0  0  0  0  0  0
   -3.6177   -1.4211    2.1181 C   0  0  0  0  0  0  0  0  0  0  0  0
   -4.6972   -2.2345    1.7550 C   0  0  0  0  0  0  0  0  0  0  0  0
   -5.0971   -3.3048    2.5859 C   0  0  0  0  0  0  0  0  0  0  0  0
   -6.2025   -4.2166    2.2260 C   0  0  0  0  0  0  0  0  0  0  0  0
   -7.5115   -3.7285    2.0929 C   0  0  0  0  0  0  0  0  0  0  0  0
   -8.5604   -4.6038    1.7993 C   0  0  0  0  0  0  0  0  0  0  0  0
   -8.3111   -5.9700    1.6235 C   0  0  0  0  0  0  0  0  0  0  0  0
   -9.6666   -7.0933    1.2714 S   0  0  0  0  0  0  0  0  0  0  0  0
   -9.4690   -7.0358   -0.5460 C   0  0  0  0  0  0  0  0  0  0  0  0
  -10.1666   -5.8135   -1.1280 C   0  0  0  0  0  0  0  0  0  0  0  0
   -7.0041   -6.4623    1.7562 C   0  0  0  0  0  0  0  0  0  0  0  0
   -5.9559   -5.5875    2.0612 C   0  0  0  0  0  0  0  0  0  0  0  0
   -6.7462   -7.7840    1.5915 F   0  0  0  0  0  0  0  0  0  0  0  0
   -4.3789   -3.4800    3.7849 C   0  0  0  0  0  0  0  0  0  0  0  0
   -4.6461   -4.6074    5.0088 S   0  0  0  0  0  0  0  0  0  0  0  0
   -5.2501   -1.8900    0.5110 C   0  0  0  0  0  0  0  0  0  0  0  0
   -4.5769   -0.8366   -0.1033 C   0  0  0  0  0  0  0  0  0  0  0  0
   -3.3197   -0.3104    0.8905 S   0  0  0  0  0  0  0  0  0  0  0  0
   -4.8121   -0.3427   -1.4650 C   0  0  0  0  0  0  0  0  0  0  0  0
   -5.5881    0.7750   -1.7380 C   0  0  0  0  0  0  0  0  0  0  0  0
   -6.3329    1.4738   -0.7826 O   0  0  0  0  0  0  0  0  0  0  0  0
   -7.1532    2.5840   -1.1152 C   0  0  0  0  0  0  0  0  0  0  0  0
   -5.4654    1.1544   -3.3772 S   0  0  0  0  0  0  0  0  0  0  0  0
   -4.4119   -0.1086   -3.7555 C   0  0  0  0  0  0  0  0  0  0  0  0
   -3.8742   -0.3830   -5.0161 O   0  0  0  0  0  0  0  0  0  0  0  0
   -4.0471    0.4834   -6.1297 C   0  0  0  0  0  0  0  0  0  0  0  0
   -4.1552   -0.8512   -2.6067 C   0  0  0  0  0  0  0  0  0  0  0  0
   -3.2810   -2.0384   -2.5799 C   0  0  0  0  0  0  0  0  0  0  0  0
   -3.7498   -3.3068   -2.2511 C   0  0  0  0  0  0  0  0  0  0  0  0
   -5.0823   -3.6154   -1.9643 O   0  0  0  0  0  0  0  0  0  0  0  0
   -5.4954   -4.9095   -1.5422 C   0  0  0  0  0  0  0  0  0  0  0  0
   -2.4710   -4.4003   -2.2803 S   0  0  0  0  0  0  0  0  0  0  0  0
   -1.3005   -3.2798   -2.7190 C   0  0  0  0  0  0  0  0  0  0  0  0
    0.0502   -3.6333   -2.8424 O   0  0  0  0  0  0  0  0  0  0  0  0
    1.1435   -2.7308   -2.7095 C   0  0  0  0  0  0  0  0  0  0  0  0
   -1.9022   -2.0211   -2.8796 C   0  0  0  0  0  0  0  0  0  0  0  0
   -1.2200   -0.8599   -3.4685 C   0  0  0  0  0  0  0  0  0  0  0  0
   -0.6398   -0.8617   -4.7304 C   0  0  0  0  0  0  0  0  0  0  0  0
    0.1740    0.2553   -4.9531 C   0  0  0  0  0  0  0  0  0  0  0  0
    1.0340    0.4327   -6.0501 C   0  0  0  0  0  0  0  0  0  0  0  0
    1.0607   -0.5041   -7.1876 C   0  0  0  0  0  0  0  0  0  0  0  0
    2.0972   -1.4406   -7.3118 C   0  0  0  0  0  0  0  0  0  0  0  0
    2.1423   -2.2942   -8.4188 C   0  0  0  0  0  0  0  0  0  0  0  0
    1.1628   -2.2061   -9.4181 C   0  0  0  0  0  0  0  0  0  0  0  0
    1.2198   -3.3217  -10.8244 S   0  0  0  0  0  0  0  0  0  0  0  0
    2.4475   -2.3630  -11.7812 C   0  0  0  0  0  0  0  0  0  0  0  0
    1.8213   -1.1297  -12.4144 C   0  0  0  0  0  0  0  0  0  0  0  0
    0.1215   -1.2751   -9.2905 C   0  0  0  0  0  0  0  0  0  0  0  0
   -0.8416   -1.1844  -10.2434 F   0  0  0  0  0  0  0  0  0  0  0  0
    0.0702   -0.4297   -8.1763 C   0  0  0  0  0  0  0  0  0  0  0  0
    1.9258    1.5073   -5.9836 C   0  0  0  0  0  0  0  0  0  0  0  0
    1.9423    2.4179   -4.9249 C   0  0  0  0  0  0  0  0  0  0  0  0
    1.0257    2.2838   -3.8617 C   0  0  0  0  0  0  0  0  0  0  0  0
    0.9645    3.2766   -2.7759 C   0  0  0  0  0  0  0  0  0  0  0  0
    1.9461    3.3055   -1.7765 C   0  0  0  0  0  0  0  0  0  0  0  0
    1.9401    4.3241   -0.8191 C   0  0  0  0  0  0  0  0  0  0  0  0
    0.9585    5.3216   -0.8591 C   0  0  0  0  0  0  0  0  0  0  0  0
    0.9791    6.6398    0.3578 S   0  0  0  0  0  0  0  0  0  0  0  0
   -0.2282    5.8134    1.4435 C   0  0  0  0  0  0  0  0  0  0  0  0
   -0.2491    6.4786    2.8101 C   0  0  0  0  0  0  0  0  0  0  0  0
   -0.0289    5.2891   -1.8516 C   0  0  0  0  0  0  0  0  0  0  0  0
   -0.0285    4.2655   -2.8019 C   0  0  0  0  0  0  0  0  0  0  0  0
   -0.9876    6.2501   -1.9024 F   0  0  0  0  0  0  0  0  0  0  0  0
    0.1766    1.1631   -3.8867 C   0  0  0  0  0  0  0  0  0  0  0  0
   -0.8075    0.5663   -2.6552 S   0  0  0  0  0  0  0  0  0  0  0  0
    2.9720    3.3745   -5.0338 C   0  0  0  0  0  0  0  0  0  0  0  0
    3.7666    3.1750   -6.1673 C   0  0  0  0  0  0  0  0  0  0  0  0
    3.1772    1.8565   -7.0379 S   0  0  0  0  0  0  0  0  0  0  0  0
    5.0206    3.8564   -6.4991 C   0  0  0  0  0  0  0  0  0  0  0  0
    5.4926    5.0650   -5.9822 C   0  0  0  0  0  0  0  0  0  0  0  0
    6.7503    5.4276   -6.5131 C   0  0  0  0  0  0  0  0  0  0  0  0
    7.5014    6.5891   -6.2186 C   0  0  0  0  0  0  0  0  0  0  0  0
    6.9935    7.6544   -5.3198 C   0  0  0  0  0  0  0  0  0  0  0  0
    5.7607    8.2757   -5.5736 C   0  0  0  0  0  0  0  0  0  0  0  0
    5.3124    9.3171   -4.7562 C   0  0  0  0  0  0  0  0  0  0  0  0
    6.0909    9.7475   -3.6738 C   0  0  0  0  0  0  0  0  0  0  0  0
    5.5479   11.1356   -2.6693 S   0  0  0  0  0  0  0  0  0  0  0  0
    4.7713   10.1204   -1.3623 C   0  0  0  0  0  0  0  0  0  0  0  0
    3.3067    9.8615   -1.6854 C   0  0  0  0  0  0  0  0  0  0  0  0
    7.3240    9.1349   -3.4200 C   0  0  0  0  0  0  0  0  0  0  0  0
    8.0998    9.5483   -2.3828 F   0  0  0  0  0  0  0  0  0  0  0  0
    7.7670    8.0867   -4.2292 C   0  0  0  0  0  0  0  0  0  0  0  0
    8.7531    6.7124   -6.8599 C   0  0  0  0  0  0  0  0  0  0  0  0
    9.2539    5.7492   -7.7425 C   0  0  0  0  0  0  0  0  0  0  0  0
    8.5049    4.5964   -8.0386 C   0  0  0  0  0  0  0  0  0  0  0  0
    8.9821    3.5477   -8.9685 C   0  0  0  0  0  0  0  0  0  0  0  0
    8.2430    3.2463  -10.1214 C   0  0  0  0  0  0  0  0  0  0  0  0
    8.6374    2.2007  -10.9593 C   0  0  0  0  0  0  0  0  0  0  0  0
    9.7583    1.4272  -10.6391 C   0  0  0  0  0  0  0  0  0  0  0  0
   10.2748    0.1097  -11.7495 S   0  0  0  0  0  0  0  0  0  0  0  0
    9.2888   -1.2076  -10.9590 C   0  0  0  0  0  0  0  0  0  0  0  0
    7.8700   -1.2349  -11.5121 C   0  0  0  0  0  0  0  0  0  0  0  0
   10.5093    1.7327   -9.4952 C   0  0  0  0  0  0  0  0  0  0  0  0
   10.1208    2.7880   -8.6604 C   0  0  0  0  0  0  0  0  0  0  0  0
   11.6050    0.9974   -9.1790 F   0  0  0  0  0  0  0  0  0  0  0  0
    7.2538    4.4788   -7.4112 C   0  0  0  0  0  0  0  0  0  0  0  0
    6.1553    3.2248   -7.5675 S   0  0  0  0  0  0  0  0  0  0  0  0
   10.4942    6.1000   -8.3003 C   0  0  0  0  0  0  0  0  0  0  0  0
   10.9633    7.3364   -7.8626 C   0  0  0  0  0  0  0  0  0  0  0  0
    9.8453    7.9915   -6.7862 S   0  0  0  0  0  0  0  0  0  0  0  0
   -1.7542   -7.3865   14.7901 H   0  0  0  0  0  0  0  0  0  0  0  0
   -2.8208   -5.1255   14.0563 H   0  0  0  0  0  0  0  0  0  0  0  0
   -5.5570   -4.2417   12.2881 H   0  0  0  0  0  0  0  0  0  0  0  0
   -6.3966   -2.2114   13.4072 H   0  0  0  0  0  0  0  0  0  0  0  0
   -4.8827    0.9877   11.6648 H   0  0  0  0  0  0  0  0  0  0  0  0
   -5.6451    2.2841   12.6461 H   0  0  0  0  0  0  0  0  0  0  0  0
   -7.7661    0.9708   12.7907 H   0  0  0  0  0  0  0  0  0  0  0  0
   -7.0231   -0.3324   11.7761 H   0  0  0  0  0  0  0  0  0  0  0  0
   -7.2943    1.3050   11.0839 H   0  0  0  0  0  0  0  0  0  0  0  0
   -1.7097   -2.3750   11.7883 H   0  0  0  0  0  0  0  0  0  0  0  0
    0.1854   -6.8790    8.3883 H   0  0  0  0  0  0  0  0  0  0  0  0
    1.3561   -8.7745    7.3424 H   0  0  0  0  0  0  0  0  0  0  0  0
    0.2083  -10.2722    5.2800 H   0  0  0  0  0  0  0  0  0  0  0  0
    0.8667  -11.8868    4.8414 H   0  0  0  0  0  0  0  0  0  0  0  0
   -1.2585  -12.9718    5.6624 H   0  0  0  0  0  0  0  0  0  0  0  0
   -1.9352  -11.3248    6.0007 H   0  0  0  0  0  0  0  0  0  0  0  0
   -1.5351  -11.8036    4.3117 H   0  0  0  0  0  0  0  0  0  0  0  0
   -2.8599   -9.5595    9.8426 H   0  0  0  0  0  0  0  0  0  0  0  0
   -2.3929   -6.4683    7.0624 H   0  0  0  0  0  0  0  0  0  0  0  0
   -2.0189   -2.3685    5.9092 H   0  0  0  0  0  0  0  0  0  0  0  0
   -3.0102    0.8796    4.4143 H   0  0  0  0  0  0  0  0  0  0  0  0
   -1.0990    2.2851    5.0915 H   0  0  0  0  0  0  0  0  0  0  0  0
    2.0955    2.1351    2.5208 H   0  0  0  0  0  0  0  0  0  0  0  0
    0.7549    3.1880    3.1211 H   0  0  0  0  0  0  0  0  0  0  0  0
    2.4247    4.6790    4.2395 H   0  0  0  0  0  0  0  0  0  0  0  0
    2.6980    4.5645    2.4618 H   0  0  0  0  0  0  0  0  0  0  0  0
    3.7655    3.6455    3.5939 H   0  0  0  0  0  0  0  0  0  0  0  0
   -0.2842   -2.1659    3.0516 H   0  0  0  0  0  0  0  0  0  0  0  0
   -7.7181   -2.6754    2.2327 H   0  0  0  0  0  0  0  0  0  0  0  0
   -9.5682   -4.2203    1.7132 H   0  0  0  0  0  0  0  0  0  0  0  0
   -9.9341   -7.9503   -0.9728 H   0  0  0  0  0  0  0  0  0  0  0  0
   -8.3948   -7.0310   -0.8280 H   0  0  0  0  0  0  0  0  0  0  0  0
   -9.6631   -4.8843   -0.7928 H   0  0  0  0  0  0  0  0  0  0  0  0
  -11.2322   -5.7921   -0.8127 H   0  0  0  0  0  0  0  0  0  0  0  0
  -10.1249   -5.8557   -2.2383 H   0  0  0  0  0  0  0  0  0  0  0  0
   -4.9516   -5.9793    2.1629 H   0  0  0  0  0  0  0  0  0  0  0  0
   -6.0900   -2.3982    0.0583 H   0  0  0  0  0  0  0  0  0  0  0  0
   -6.5399    3.3937   -1.5614 H   0  0  0  0  0  0  0  0  0  0  0  0
   -7.6429    2.9641   -0.1959 H   0  0  0  0  0  0  0  0  0  0  0  0
   -7.9399    2.2687   -1.8357 H   0  0  0  0  0  0  0  0  0  0  0  0
   -5.1265    0.5808   -6.3725 H   0  0  0  0  0  0  0  0  0  0  0  0
   -3.5149    0.0563   -7.0069 H   0  0  0  0  0  0  0  0  0  0  0  0
   -3.6185    1.4787   -5.9023 H   0  0  0  0  0  0  0  0  0  0  0  0
   -6.5923   -4.9014   -1.3550 H   0  0  0  0  0  0  0  0  0  0  0  0
   -5.2598   -5.6697   -2.3156 H   0  0  0  0  0  0  0  0  0  0  0  0
   -4.9798   -5.1761   -0.5980 H   0  0  0  0  0  0  0  0  0  0  0  0
    1.3213   -2.1878   -3.6572 H   0  0  0  0  0  0  0  0  0  0  0  0
    2.0606   -3.3137   -2.4831 H   0  0  0  0  0  0  0  0  0  0  0  0
    0.9652   -2.0202   -1.8752 H   0  0  0  0  0  0  0  0  0  0  0  0
   -0.7277   -1.6936   -5.4185 H   0  0  0  0  0  0  0  0  0  0  0  0
    2.8686   -1.5065   -6.5539 H   0  0  0  0  0  0  0  0  0  0  0  0
    2.9448   -3.0156   -8.5041 H   0  0  0  0  0  0  0  0  0  0  0  0
    2.8401   -3.0192  -12.5868 H   0  0  0  0  0  0  0  0  0  0  0  0
    3.3014   -2.0680  -11.1369 H   0  0  0  0  0  0  0  0  0  0  0  0
    2.5461   -0.6625  -13.1133 H   0  0  0  0  0  0  0  0  0  0  0  0
    1.5628   -0.3867  -11.6330 H   0  0  0  0  0  0  0  0  0  0  0  0
    0.9064   -1.4051  -12.9820 H   0  0  0  0  0  0  0  0  0  0  0  0
   -0.7297    0.2973   -8.0921 H   0  0  0  0  0  0  0  0  0  0  0  0
    2.7287    2.5538   -1.7542 H   0  0  0  0  0  0  0  0  0  0  0  0
    2.7114    4.3457   -0.0589 H   0  0  0  0  0  0  0  0  0  0  0  0
   -1.2388    5.8749    0.9846 H   0  0  0  0  0  0  0  0  0  0  0  0
    0.0430    4.7452    1.5631 H   0  0  0  0  0  0  0  0  0  0  0  0
    0.7582    6.4282    3.2740 H   0  0  0  0  0  0  0  0  0  0  0  0
   -0.5599    7.5408    2.7182 H   0  0  0  0  0  0  0  0  0  0  0  0
   -0.9725    5.9484    3.4660 H   0  0  0  0  0  0  0  0  0  0  0  0
   -0.7845    4.2570   -3.5805 H   0  0  0  0  0  0  0  0  0  0  0  0
    3.1750    4.1329   -4.2871 H   0  0  0  0  0  0  0  0  0  0  0  0
    4.9470    5.6497   -5.2558 H   0  0  0  0  0  0  0  0  0  0  0  0
    5.1619    7.9759   -6.4253 H   0  0  0  0  0  0  0  0  0  0  0  0
    4.3730    9.8071   -4.9775 H   0  0  0  0  0  0  0  0  0  0  0  0
    5.3060    9.1563   -1.2274 H   0  0  0  0  0  0  0  0  0  0  0  0
    4.8310   10.6871   -0.4089 H   0  0  0  0  0  0  0  0  0  0  0  0
    2.7683   10.8275   -1.7894 H   0  0  0  0  0  0  0  0  0  0  0  0
    2.8471    9.2837   -0.8548 H   0  0  0  0  0  0  0  0  0  0  0  0
    3.2153    9.2802   -2.6243 H   0  0  0  0  0  0  0  0  0  0  0  0
    8.7214    7.6160   -4.0161 H   0  0  0  0  0  0  0  0  0  0  0  0
    7.3614    3.8240  -10.3732 H   0  0  0  0  0  0  0  0  0  0  0  0
    8.0623    1.9869  -11.8514 H   0  0  0  0  0  0  0  0  0  0  0  0
    9.7755   -2.1800  -11.1913 H   0  0  0  0  0  0  0  0  0  0  0  0
    9.2701   -1.0859   -9.8544 H   0  0  0  0  0  0  0  0  0  0  0  0
    7.8909   -1.2905  -12.6253 H   0  0  0  0  0  0  0  0  0  0  0  0
    7.3354   -2.1304  -11.1267 H   0  0  0  0  0  0  0  0  0  0  0  0
    7.3072   -0.3315  -11.1978 H   0  0  0  0  0  0  0  0  0  0  0  0
   10.6943    3.0005   -7.7672 H   0  0  0  0  0  0  0  0  0  0  0  0
   11.0248    5.4903   -9.0182 H   0  0  0  0  0  0  0  0  0  0  0  0
   11.8864    7.8044   -8.1748 H   0  0  0  0  0  0  0  0  0  0  0  0
  1  2  2  0
  2  3  1  0
  3  4  2  0
  4  5  1  0
  5  6  2  0
  6  7  1  0
  7  8  2  0
  8  9  1  0
  9 10  1  0
 10 11  1  0
  8 12  1  0
 12 13  1  0
 12 14  2  0
  4 15  1  0
 15 16  2  0
 16 17  1  0
 17 18  1  0
 18 19  2  0
 19 20  1  0
 20 21  2  0
 21 22  1  0
 22 23  1  0
 23 24  1  0
 21 25  1  0
 25 26  2  0
 25 27  1  0
 17 28  2  0
 28 29  1  0
 16 30  1  0
 30 31  2  0
 31 32  1  0
 31 33  1  0
 33 34  2  0
 34 35  1  0
 35 36  2  0
 36 37  1  0
 37 38  2  0
 38 39  1  0
 39 40  2  0
 40 41  1  0
 41 42  1  0
 42 43  1  0
 40 44  1  0
 44 45  1  0
 44 46  2  0
 36 47  1  0
 47 48  2  0
 48 49  1  0
 49 50  1  0
 50 51  2  0
 51 52  1  0
 52 53  2  0
 53 54  1  0
 54 55  1  0
 55 56  1  0
 53 57  1  0
 57 58  2  0
 57 59  1  0
 49 60  2  0
 60 61  1  0
 48 62  1  0
 62 63  2  0
 63 64  1  0
 63 65  1  0
 65 66  2  0
 66 67  1  0
 67 68  1  0
 66 69  1  0
 69 70  1  0
 70 71  1  0
 71 72  1  0
 70 73  2  0
 73 74  1  0
 74 75  2  0
 75 76  1  0
 76 77  1  0
 75 78  1  0
 78 79  1  0
 79 80  1  0
 80 81  1  0
 79 82  2  0
 82 83  1  0
 83 84  2  0
 84 85  1  0
 85 86  2  0
 86 87  1  0
 87 88  2  0
 88 89  1  0
 89 90  2  0
 90 91  1  0
 91 92  1  0
 92 93  1  0
 90 94  1  0
 94 95  1  0
 94 96  2  0
 86 97  1  0
 97 98  2  0
 98 99  1  0
 99100  1  0
100101  2  0
101102  1  0
102103  2  0
103104  1  0
104105  1  0
105106  1  0
103107  1  0
107108  2  0
107109  1  0
 99110  2  0
110111  1  0
 98112  1  0
112113  2  0
113114  1  0
113115  1  0
115116  2  0
116117  1  0
117118  2  0
118119  1  0
119120  2  0
120121  1  0
121122  2  0
122123  1  0
123124  1  0
124125  1  0
122126  1  0
126127  1  0
126128  2  0
118129  1  0
129130  2  0
130131  1  0
131132  1  0
132133  2  0
133134  1  0
134135  2  0
135136  1  0
136137  1  0
137138  1  0
135139  1  0
139140  2  0
139141  1  0
131142  2  0
142143  1  0
130144  1  0
144145  2  0
145146  1  0
 29  1  1  0
 61 33  1  0
 73 65  1  0
 82 74  1  0
111 83  1  0
143115  1  0
 28  3  1  0
 60 35  1  0
110 85  1  0
142117  1  0
 14  5  1  0
 32 15  1  0
 46 37  1  0
 64 47  1  0
 96 87  1  0
114 97  1  0
128119  1  0
146129  1  0
 26 18  1  0
 58 50  1  0
108100  1  0
140132  1  0
  1147  1  0
  2148  1  0
  6149  1  0
  7150  1  0
 10151  1  0
 10152  1  0
 11153  1  0
 11154  1  0
 11155  1  0
 14156  1  0
 19157  1  0
 20158  1  0
 23159  1  0
 23160  1  0
 24161  1  0
 24162  1  0
 24163  1  0
 26164  1  0
 30165  1  0
 34166  1  0
 38167  1  0
 39168  1  0
 42169  1  0
 42170  1  0
 43171  1  0
 43172  1  0
 43173  1  0
 46174  1  0
 51175  1  0
 52176  1  0
 55177  1  0
 55178  1  0
 56179  1  0
 56180  1  0
 56181  1  0
 58182  1  0
 62183  1  0
 68184  1  0
 68185  1  0
 68186  1  0
 72187  1  0
 72188  1  0
 72189  1  0
 77190  1  0
 77191  1  0
 77192  1  0
 81193  1  0
 81194  1  0
 81195  1  0
 84196  1  0
 88197  1  0
 89198  1  0
 92199  1  0
 92200  1  0
 93201  1  0
 93202  1  0
 93203  1  0
 96204  1  0
101205  1  0
102206  1  0
105207  1  0
105208  1  0
106209  1  0
106210  1  0
106211  1  0
108212  1  0
112213  1  0
116214  1  0
120215  1  0
121216  1  0
124217  1  0
124218  1  0
125219  1  0
125220  1  0
125221  1  0
128222  1  0
133223  1  0
134224  1  0
137225  1  0
137226  1  0
138227  1  0
138228  1  0
138229  1  0
140230  1  0
144231  1  0
145232  1  0
M  END

