
     RDKit          3D

226253  0  0  0  0  0  0  0  0999 V2000
    0.6232  -10.6288    8.2028 C   0  0  0  0  0  0  0  0  0  0  0  0
    1.7080   -9.7563    8.2709 C   0  0  0  0  0  0  0  0  0  0  0  0
    1.5478   -8.6085    7.4771 C   0  0  0  0  0  0  0  0  0  0  0  0
    2.4499   -7.5273    7.3705 C   0  0  0  0  0  0  0  0  0  0  0  0
    3.7617   -7.5346    8.0378 C   0  0  0  0  0  0  0  0  0  0  0  0
    4.2777   -6.3978    9.1610 S   0  0  0  0  0  0  0  0  0  0  0  0
    5.8291   -7.0200    9.3488 C   0  0  0  0  0  0  0  0  0  0  0  0
    6.9134   -6.3716   10.1551 C   0  0  0  0  0  0  0  0  0  0  0  0
    7.7006   -5.3871    9.2994 C   0  0  0  0  0  0  0  0  0  0  0  0
    5.9697   -8.1241    8.5127 C   0  0  0  0  0  0  0  0  0  0  0  0
    7.4681   -9.0322    8.3398 Cl  0  0  0  0  0  0  0  0  0  0  0  0
    4.8078   -8.4180    7.7810 C   0  0  0  0  0  0  0  0  0  0  0  0
    4.7194   -9.7011    6.5824 Cl  0  0  0  0  0  0  0  0  0  0  0  0
    2.0531   -6.4452    6.5644 C   0  0  0  0  0  0  0  0  0  0  0  0
    0.8455   -6.4414    5.8622 C   0  0  0  0  0  0  0  0  0  0  0  0
   -0.0548   -7.5156    5.9730 C   0  0  0  0  0  0  0  0  0  0  0  0
   -1.3820   -7.4694    5.3372 C   0  0  0  0  0  0  0  0  0  0  0  0
   -2.5942   -6.3824    5.7526 S   0  0  0  0  0  0  0  0  0  0  0  0
   -3.6500   -6.8072    4.5152 C   0  0  0  0  0  0  0  0  0  0  0  0
   -4.9311   -6.0887    4.2195 C   0  0  0  0  0  0  0  0  0  0  0  0
   -4.6580   -4.8404    3.3857 C   0  0  0  0  0  0  0  0  0  0  0  0
   -3.0492   -7.7950    3.7367 C   0  0  0  0  0  0  0  0  0  0  0  0
   -1.7778   -8.1721    4.2034 C   0  0  0  0  0  0  0  0  0  0  0  0
   -0.7545   -9.3479    3.3911 Cl  0  0  0  0  0  0  0  0  0  0  0  0
   -3.7819   -8.4725    2.2905 Cl  0  0  0  0  0  0  0  0  0  0  0  0
    0.3317   -8.5880    6.7871 C   0  0  0  0  0  0  0  0  0  0  0  0
   -0.5379   -9.9807    7.1610 S   0  0  0  0  0  0  0  0  0  0  0  0
    0.6580   -5.2911    5.0847 C   0  0  0  0  0  0  0  0  0  0  0  0
    1.7016   -4.3791    5.2076 C   0  0  0  0  0  0  0  0  0  0  0  0
    2.8720   -5.0017    6.2548 S   0  0  0  0  0  0  0  0  0  0  0  0
    1.7372   -3.0741    4.5420 C   0  0  0  0  0  0  0  0  0  0  0  0
    2.2916   -1.8998    5.0575 C   0  0  0  0  0  0  0  0  0  0  0  0
    2.0143   -0.7767    4.2596 C   0  0  0  0  0  0  0  0  0  0  0  0
    2.3393    0.5663    4.5502 C   0  0  0  0  0  0  0  0  0  0  0  0
    3.0551    0.9478    5.7779 C   0  0  0  0  0  0  0  0  0  0  0  0
    2.4213    0.8338    7.3306 S   0  0  0  0  0  0  0  0  0  0  0  0
    3.7233    1.5633    8.1109 C   0  0  0  0  0  0  0  0  0  0  0  0
    3.7780    1.8624    9.5796 C   0  0  0  0  0  0  0  0  0  0  0  0
    3.1458    3.2142    9.8882 C   0  0  0  0  0  0  0  0  0  0  0  0
    4.6633    1.9369    7.1506 C   0  0  0  0  0  0  0  0  0  0  0  0
    6.1508    2.7946    7.5303 Cl  0  0  0  0  0  0  0  0  0  0  0  0
    4.2897    1.5909    5.8443 C   0  0  0  0  0  0  0  0  0  0  0  0
    5.2974    1.9032    4.4392 Cl  0  0  0  0  0  0  0  0  0  0  0  0
    1.9055    1.5402    3.6312 C   0  0  0  0  0  0  0  0  0  0  0  0
    1.2103    1.2069    2.4638 C   0  0  0  0  0  0  0  0  0  0  0  0
    0.8795   -0.1296    2.1756 C   0  0  0  0  0  0  0  0  0  0  0  0
    0.0560   -0.4932    1.0077 C   0  0  0  0  0  0  0  0  0  0  0  0
    0.5885   -1.3873   -0.3121 S   0  0  0  0  0  0  0  0  0  0  0  0
   -0.8823   -1.3815   -1.1328 C   0  0  0  0  0  0  0  0  0  0  0  0
   -1.1572   -2.1189   -2.4054 C   0  0  0  0  0  0  0  0  0  0  0  0
   -1.7564   -3.4892   -2.1034 C   0  0  0  0  0  0  0  0  0  0  0  0
   -1.8213   -0.6949   -0.3652 C   0  0  0  0  0  0  0  0  0  0  0  0
   -1.2935   -0.1891    0.8317 C   0  0  0  0  0  0  0  0  0  0  0  0
   -2.2549    0.6811    2.0222 Cl  0  0  0  0  0  0  0  0  0  0  0  0
   -3.5103   -0.5218   -0.8254 Cl  0  0  0  0  0  0  0  0  0  0  0  0
    1.2961   -1.0972    3.0988 C   0  0  0  0  0  0  0  0  0  0  0  0
    0.9456   -2.7399    3.0915 S   0  0  0  0  0  0  0  0  0  0  0  0
    0.8445    2.3198    1.7009 C   0  0  0  0  0  0  0  0  0  0  0  0
    1.2078    3.5226    2.2900 C   0  0  0  0  0  0  0  0  0  0  0  0
    1.9918    3.2264    3.7562 S   0  0  0  0  0  0  0  0  0  0  0  0
    0.7679    4.8207    1.7814 C   0  0  0  0  0  0  0  0  0  0  0  0
   -0.3986    5.4360    2.2349 C   0  0  0  0  0  0  0  0  0  0  0  0
   -1.0345    6.2094    1.2492 C   0  0  0  0  0  0  0  0  0  0  0  0
   -2.3462    6.7171    1.3217 C   0  0  0  0  0  0  0  0  0  0  0  0
   -3.1368    6.6443    2.5559 C   0  0  0  0  0  0  0  0  0  0  0  0
   -3.3325    7.9165    3.6305 S   0  0  0  0  0  0  0  0  0  0  0  0
   -4.4163    7.1253    4.6517 C   0  0  0  0  0  0  0  0  0  0  0  0
   -4.9692    7.6949    5.9284 C   0  0  0  0  0  0  0  0  0  0  0  0
   -5.4226    9.1430    5.7562 C   0  0  0  0  0  0  0  0  0  0  0  0
   -4.6143    5.8318    4.1635 C   0  0  0  0  0  0  0  0  0  0  0  0
   -5.6521    4.6430    4.9388 Cl  0  0  0  0  0  0  0  0  0  0  0  0
   -3.9097    5.5684    2.9791 C   0  0  0  0  0  0  0  0  0  0  0  0
   -3.9916    4.0442    2.1050 Cl  0  0  0  0  0  0  0  0  0  0  0  0
   -2.9346    7.1479    0.1198 C   0  0  0  0  0  0  0  0  0  0  0  0
   -2.2381    7.1585   -1.0886 C   0  0  0  0  0  0  0  0  0  0  0  0
   -0.8978    6.7309   -1.1475 C   0  0  0  0  0  0  0  0  0  0  0  0
   -0.2183    6.5369   -2.4402 C   0  0  0  0  0  0  0  0  0  0  0  0
    0.5878    7.7391   -3.2923 S   0  0  0  0  0  0  0  0  0  0  0  0
    0.9133    6.8023   -4.6519 C   0  0  0  0  0  0  0  0  0  0  0  0
    1.6483    7.2925   -5.8637 C   0  0  0  0  0  0  0  0  0  0  0  0
    3.1545    7.1288   -5.6920 C   0  0  0  0  0  0  0  0  0  0  0  0
    0.3944    5.5247   -4.4510 C   0  0  0  0  0  0  0  0  0  0  0  0
   -0.2586    5.3811   -3.2167 C   0  0  0  0  0  0  0  0  0  0  0  0
   -1.1002    3.9178   -2.7271 Cl  0  0  0  0  0  0  0  0  0  0  0  0
    0.5205    4.2255   -5.6265 Cl  0  0  0  0  0  0  0  0  0  0  0  0
   -0.3375    6.2348    0.0379 C   0  0  0  0  0  0  0  0  0  0  0  0
    1.0273    5.2677    0.1778 S   0  0  0  0  0  0  0  0  0  0  0  0
   -3.0632    7.3419   -2.2034 C   0  0  0  0  0  0  0  0  0  0  0  0
   -4.4283    7.3656   -1.8986 C   0  0  0  0  0  0  0  0  0  0  0  0
   -4.5799    7.2836   -0.2111 S   0  0  0  0  0  0  0  0  0  0  0  0
   -5.4155    6.7805   -2.8294 C   0  0  0  0  0  0  0  0  0  0  0  0
   -5.1281    6.6378   -4.1913 C   0  0  0  0  0  0  0  0  0  0  0  0
   -5.5169    5.3969   -4.7223 C   0  0  0  0  0  0  0  0  0  0  0  0
   -5.0435    4.8546   -5.9343 C   0  0  0  0  0  0  0  0  0  0  0  0
   -4.2078    5.6458   -6.8573 C   0  0  0  0  0  0  0  0  0  0  0  0
   -2.5858    5.3469   -7.1750 S   0  0  0  0  0  0  0  0  0  0  0  0
   -2.3616    6.6551   -8.2054 C   0  0  0  0  0  0  0  0  0  0  0  0
   -1.1082    6.9113   -8.9878 C   0  0  0  0  0  0  0  0  0  0  0  0
   -1.1793    6.2205  -10.3425 C   0  0  0  0  0  0  0  0  0  0  0  0
   -3.5669    7.3438   -8.3219 C   0  0  0  0  0  0  0  0  0  0  0  0
   -3.7827    8.7567   -9.3492 Cl  0  0  0  0  0  0  0  0  0  0  0  0
   -4.5999    6.7860   -7.5530 C   0  0  0  0  0  0  0  0  0  0  0  0
   -6.2336    7.4283   -7.5202 Cl  0  0  0  0  0  0  0  0  0  0  0  0
   -5.2274    3.4762   -6.1239 C   0  0  0  0  0  0  0  0  0  0  0  0
   -5.8985    2.6659   -5.2033 C   0  0  0  0  0  0  0  0  0  0  0  0
   -6.4536    3.2282   -4.0354 C   0  0  0  0  0  0  0  0  0  0  0  0
   -7.1988    2.4053   -3.0650 C   0  0  0  0  0  0  0  0  0  0  0  0
   -8.7026    1.7196   -3.3754 S   0  0  0  0  0  0  0  0  0  0  0  0
   -8.9182    1.0451   -1.8492 C   0  0  0  0  0  0  0  0  0  0  0  0
  -10.1457    0.2902   -1.4232 C   0  0  0  0  0  0  0  0  0  0  0  0
  -11.3548    1.2205   -1.3460 C   0  0  0  0  0  0  0  0  0  0  0  0
   -7.8000    1.3452   -1.0688 C   0  0  0  0  0  0  0  0  0  0  0  0
   -6.8298    2.0997   -1.7538 C   0  0  0  0  0  0  0  0  0  0  0  0
   -5.2802    2.5366   -1.0435 Cl  0  0  0  0  0  0  0  0  0  0  0  0
   -7.6115    0.8427    0.6076 Cl  0  0  0  0  0  0  0  0  0  0  0  0
   -6.2212    4.6006   -3.8161 C   0  0  0  0  0  0  0  0  0  0  0  0
   -6.3387    5.4405   -2.3620 S   0  0  0  0  0  0  0  0  0  0  0  0
   -5.7733    1.2889   -5.4819 C   0  0  0  0  0  0  0  0  0  0  0  0
   -4.9811    1.0307   -6.6038 C   0  0  0  0  0  0  0  0  0  0  0  0
   -4.5001    2.4979   -7.2773 S   0  0  0  0  0  0  0  0  0  0  0  0
   -4.3555   -0.2569   -6.9523 C   0  0  0  0  0  0  0  0  0  0  0  0
   -4.5872   -1.4862   -6.3144 C   0  0  0  0  0  0  0  0  0  0  0  0
   -3.6245   -2.4305   -6.6801 C   0  0  0  0  0  0  0  0  0  0  0  0
   -2.6837   -1.9738   -7.5587 C   0  0  0  0  0  0  0  0  0  0  0  0
   -2.9311   -0.3584   -7.8846 S   0  0  0  0  0  0  0  0  0  0  0  0
   -1.5635   -2.7273   -7.3482 C   0  0  0  0  0  0  0  0  0  0  0  0
   -1.8885   -3.6276   -6.3775 C   0  0  0  0  0  0  0  0  0  0  0  0
   -3.1659   -3.4772   -5.9509 N   0  0  0  0  0  0  0  0  0  0  0  0
   -0.8004   -4.1241   -5.6595 C   0  0  0  0  0  0  0  0  0  0  0  0
    0.3965   -3.5247   -6.0758 C   0  0  0  0  0  0  0  0  0  0  0  0
    0.0704   -2.3741   -7.2939 S   0  0  0  0  0  0  0  0  0  0  0  0
    1.7110   -3.7164   -5.4435 C   0  0  0  0  0  0  0  0  0  0  0  0
    2.0400   -4.7228   -4.5350 C   0  0  0  0  0  0  0  0  0  0  0  0
    3.3793   -4.6627   -4.1159 C   0  0  0  0  0  0  0  0  0  0  0  0
    4.0285   -5.5702   -3.2568 C   0  0  0  0  0  0  0  0  0  0  0  0
    3.3184   -6.6985   -2.6389 C   0  0  0  0  0  0  0  0  0  0  0  0
    3.5287   -8.3089   -3.0634 S   0  0  0  0  0  0  0  0  0  0  0  0
    2.4044   -8.9267   -1.9764 C   0  0  0  0  0  0  0  0  0  0  0  0
    2.0274  -10.3754   -1.8847 C   0  0  0  0  0  0  0  0  0  0  0  0
    1.0222  -10.7399   -2.9709 C   0  0  0  0  0  0  0  0  0  0  0  0
    1.8286   -7.8643   -1.2752 C   0  0  0  0  0  0  0  0  0  0  0  0
    0.5791   -8.0674   -0.0525 Cl  0  0  0  0  0  0  0  0  0  0  0  0
    2.3483   -6.6139   -1.6453 C   0  0  0  0  0  0  0  0  0  0  0  0
    1.8522   -5.0968   -0.9059 Cl  0  0  0  0  0  0  0  0  0  0  0  0
    5.3960   -5.3565   -3.0193 C   0  0  0  0  0  0  0  0  0  0  0  0
    6.1009   -4.2900   -3.5852 C   0  0  0  0  0  0  0  0  0  0  0  0
    5.4491   -3.3733   -4.4330 C   0  0  0  0  0  0  0  0  0  0  0  0
    6.1572   -2.2375   -5.0472 C   0  0  0  0  0  0  0  0  0  0  0  0
    7.2845   -2.3649   -6.2879 S   0  0  0  0  0  0  0  0  0  0  0  0
    7.5607   -0.7112   -6.4455 C   0  0  0  0  0  0  0  0  0  0  0  0
    8.5509   -0.1027   -7.3922 C   0  0  0  0  0  0  0  0  0  0  0  0
    9.9333   -0.0382   -6.7587 C   0  0  0  0  0  0  0  0  0  0  0  0
    6.7822   -0.0348   -5.5046 C   0  0  0  0  0  0  0  0  0  0  0  0
    5.9853   -0.8923   -4.7308 C   0  0  0  0  0  0  0  0  0  0  0  0
    4.9011   -0.3285   -3.4649 Cl  0  0  0  0  0  0  0  0  0  0  0  0
    6.7890    1.7125   -5.3162 Cl  0  0  0  0  0  0  0  0  0  0  0  0
    4.0866   -3.5988   -4.6843 C   0  0  0  0  0  0  0  0  0  0  0  0
    3.0651   -2.7445   -5.7110 S   0  0  0  0  0  0  0  0  0  0  0  0
    7.4493   -4.2546   -3.2031 C   0  0  0  0  0  0  0  0  0  0  0  0
    7.8035   -5.2963   -2.3503 C   0  0  0  0  0  0  0  0  0  0  0  0
    6.4458   -6.2558   -2.0614 S   0  0  0  0  0  0  0  0  0  0  0  0
    0.5364  -11.5637    8.7381 H   0  0  0  0  0  0  0  0  0  0  0  0
    2.5707   -9.9479    8.8959 H   0  0  0  0  0  0  0  0  0  0  0  0
    6.4622   -5.8321   11.0152 H   0  0  0  0  0  0  0  0  0  0  0  0
    7.6010   -7.1476   10.5573 H   0  0  0  0  0  0  0  0  0  0  0  0
    8.5092   -4.9276    9.9074 H   0  0  0  0  0  0  0  0  0  0  0  0
    7.0358   -4.5784    8.9258 H   0  0  0  0  0  0  0  0  0  0  0  0
    8.1585   -5.9130    8.4338 H   0  0  0  0  0  0  0  0  0  0  0  0
   -5.4181   -5.7873    5.1724 H   0  0  0  0  0  0  0  0  0  0  0  0
   -5.6261   -6.7588    3.6721 H   0  0  0  0  0  0  0  0  0  0  0  0
   -3.9914   -4.1421    3.9373 H   0  0  0  0  0  0  0  0  0  0  0  0
   -5.6188   -4.3245    3.1680 H   0  0  0  0  0  0  0  0  0  0  0  0
   -4.1794   -5.1171    2.4235 H   0  0  0  0  0  0  0  0  0  0  0  0
   -0.2097   -5.1153    4.4610 H   0  0  0  0  0  0  0  0  0  0  0  0
    2.8158   -1.8579    6.0023 H   0  0  0  0  0  0  0  0  0  0  0  0
    3.2414    1.0677   10.1403 H   0  0  0  0  0  0  0  0  0  0  0  0
    4.8356    1.8671    9.9255 H   0  0  0  0  0  0  0  0  0  0  0  0
    2.0769    3.2190    9.5859 H   0  0  0  0  0  0  0  0  0  0  0  0
    3.2061    3.4104   10.9797 H   0  0  0  0  0  0  0  0  0  0  0  0
    3.6845    4.0202    9.3501 H   0  0  0  0  0  0  0  0  0  0  0  0
   -0.2135   -2.2456   -2.9813 H   0  0  0  0  0  0  0  0  0  0  0  0
   -1.8629   -1.5296   -3.0344 H   0  0  0  0  0  0  0  0  0  0  0  0
   -2.1394   -3.9401   -3.0387 H   0  0  0  0  0  0  0  0  0  0  0  0
   -0.9803   -4.1544   -1.6659 H   0  0  0  0  0  0  0  0  0  0  0  0
   -2.6086   -3.4009   -1.3957 H   0  0  0  0  0  0  0  0  0  0  0  0
    0.2748    2.2655    0.7828 H   0  0  0  0  0  0  0  0  0  0  0  0
   -0.8637    5.1795    3.1786 H   0  0  0  0  0  0  0  0  0  0  0  0
   -4.1837    7.6445    6.7119 H   0  0  0  0  0  0  0  0  0  0  0  0
   -5.8394    7.0954    6.2687 H   0  0  0  0  0  0  0  0  0  0  0  0
   -4.5564    9.7984    5.5242 H   0  0  0  0  0  0  0  0  0  0  0  0
   -5.8909    9.5002    6.6963 H   0  0  0  0  0  0  0  0  0  0  0  0
   -6.1696    9.2131    4.9375 H   0  0  0  0  0  0  0  0  0  0  0  0
    1.3241    6.7289   -6.7590 H   0  0  0  0  0  0  0  0  0  0  0  0
    1.4076    8.3639   -6.0354 H   0  0  0  0  0  0  0  0  0  0  0  0
    3.5132    7.7073   -4.8134 H   0  0  0  0  0  0  0  0  0  0  0  0
    3.4120    6.0565   -5.5555 H   0  0  0  0  0  0  0  0  0  0  0  0
    3.6698    7.5058   -6.6030 H   0  0  0  0  0  0  0  0  0  0  0  0
   -2.6860    7.2323   -3.2119 H   0  0  0  0  0  0  0  0  0  0  0  0
   -4.4611    7.3102   -4.7141 H   0  0  0  0  0  0  0  0  0  0  0  0
   -0.9623    8.0041   -9.1268 H   0  0  0  0  0  0  0  0  0  0  0  0
   -0.2370    6.5149   -8.4284 H   0  0  0  0  0  0  0  0  0  0  0  0
   -2.0337    6.6177  -10.9284 H   0  0  0  0  0  0  0  0  0  0  0  0
   -1.3075    5.1251  -10.2095 H   0  0  0  0  0  0  0  0  0  0  0  0
   -0.2422    6.4080  -10.9095 H   0  0  0  0  0  0  0  0  0  0  0  0
  -10.3527   -0.5147   -2.1616 H   0  0  0  0  0  0  0  0  0  0  0  0
   -9.9885   -0.1837   -0.4331 H   0  0  0  0  0  0  0  0  0  0  0  0
  -11.1538    2.0484   -0.6351 H   0  0  0  0  0  0  0  0  0  0  0  0
  -12.2458    0.6508   -0.9965 H   0  0  0  0  0  0  0  0  0  0  0  0
  -11.5767    1.6424   -2.3488 H   0  0  0  0  0  0  0  0  0  0  0  0
   -6.1392    0.5144   -4.8219 H   0  0  0  0  0  0  0  0  0  0  0  0
   -5.3061   -1.6408   -5.5188 H   0  0  0  0  0  0  0  0  0  0  0  0
   -3.5772   -3.8495   -5.0682 H   0  0  0  0  0  0  0  0  0  0  0  0
   -0.8891   -4.7795   -4.8042 H   0  0  0  0  0  0  0  0  0  0  0  0
    1.3487   -5.4889   -4.2121 H   0  0  0  0  0  0  0  0  0  0  0  0
    1.5922  -10.5957   -0.8883 H   0  0  0  0  0  0  0  0  0  0  0  0
    2.9401  -10.9963   -2.0064 H   0  0  0  0  0  0  0  0  0  0  0  0
    0.7379  -11.8082   -2.8659 H   0  0  0  0  0  0  0  0  0  0  0  0
    1.4662  -10.5915   -3.9770 H   0  0  0  0  0  0  0  0  0  0  0  0
    0.1098  -10.1164   -2.8812 H   0  0  0  0  0  0  0  0  0  0  0  0
    8.2244    0.9199   -7.6832 H   0  0  0  0  0  0  0  0  0  0  0  0
    8.6072   -0.7167   -8.3178 H   0  0  0  0  0  0  0  0  0  0  0  0
   10.6514    0.4227   -7.4716 H   0  0  0  0  0  0  0  0  0  0  0  0
    9.9106    0.5767   -5.8355 H   0  0  0  0  0  0  0  0  0  0  0  0
   10.2888   -1.0606   -6.5066 H   0  0  0  0  0  0  0  0  0  0  0  0
    8.1526   -3.4982   -3.5306 H   0  0  0  0  0  0  0  0  0  0  0  0
    8.7902   -5.4614   -1.9396 H   0  0  0  0  0  0  0  0  0  0  0  0
  1  2  2  0
  2  3  1  0
  3  4  2  0
  4  5  1  0
  5  6  1  0
  6  7  1  0
  7  8  1  0
  8  9  1  0
  7 10  2  0
 10 11  1  0
 10 12  1  0
 12 13  1  0
  4 14  1  0
 14 15  2  0
 15 16  1  0
 16 17  1  0
 17 18  1  0
 18 19  1  0
 19 20  1  0
 20 21  1  0
 19 22  2  0
 22 23  1  0
 23 24  1  0
 22 25  1  0
 16 26  2  0
 26 27  1  0
 15 28  1  0
 28 29  2  0
 29 30  1  0
 29 31  1  0
 31 32  2  0
 32 33  1  0
 33 34  2  0
 34 35  1  0
 35 36  1  0
 36 37  1  0
 37 38  1  0
 38 39  1  0
 37 40  2  0
 40 41  1  0
 40 42  1  0
 42 43  1  0
 34 44  1  0
 44 45  2  0
 45 46  1  0
 46 47  1  0
 47 48  1  0
 48 49  1  0
 49 50  1  0
 50 51  1  0
 49 52  2  0
 52 53  1  0
 53 54  1  0
 52 55  1  0
 46 56  2  0
 56 57  1  0
 45 58  1  0
 58 59  2  0
 59 60  1  0
 59 61  1  0
 61 62  2  0
 62 63  1  0
 63 64  2  0
 64 65  1  0
 65 66  1  0
 66 67  1  0
 67 68  1  0
 68 69  1  0
 67 70  2  0
 70 71  1  0
 70 72  1  0
 72 73  1  0
 64 74  1  0
 74 75  2  0
 75 76  1  0
 76 77  1  0
 77 78  1  0
 78 79  1  0
 79 80  1  0
 80 81  1  0
 79 82  2  0
 82 83  1  0
 83 84  1  0
 82 85  1  0
 76 86  2  0
 86 87  1  0
 75 88  1  0
 88 89  2  0
 89 90  1  0
 89 91  1  0
 91 92  2  0
 92 93  1  0
 93 94  2  0
 94 95  1  0
 95 96  1  0
 96 97  1  0
 97 98  1  0
 98 99  1  0
 97100  2  0
100101  1  0
100102  1  0
102103  1  0
 94104  1  0
104105  2  0
105106  1  0
106107  1  0
107108  1  0
108109  1  0
109110  1  0
110111  1  0
109112  2  0
112113  1  0
113114  1  0
112115  1  0
106116  2  0
116117  1  0
105118  1  0
118119  2  0
119120  1  0
119121  1  0
121122  2  0
122123  1  0
123124  2  0
124125  1  0
124126  1  0
126127  2  0
127128  1  0
127129  1  0
129130  2  0
130131  1  0
130132  1  0
132133  2  0
133134  1  0
134135  2  0
135136  1  0
136137  1  0
137138  1  0
138139  1  0
139140  1  0
138141  2  0
141142  1  0
141143  1  0
143144  1  0
135145  1  0
145146  2  0
146147  1  0
147148  1  0
148149  1  0
149150  1  0
150151  1  0
151152  1  0
150153  2  0
153154  1  0
154155  1  0
153156  1  0
147157  2  0
157158  1  0
146159  1  0
159160  2  0
160161  1  0
 27  1  1  0
 57 31  1  0
 87 61  1  0
117 91  1  0
125121  1  0
131126  1  0
158132  1  0
 26  3  1  0
 56 33  1  0
 86 63  1  0
116 93  1  0
128123  1  0
157134  1  0
 12  5  2  0
 30 14  1  0
 42 35  2  0
 60 44  1  0
 72 65  2  0
 90 74  1  0
102 95  2  0
120104  1  0
143136  2  0
161145  1  0
 23 17  2  0
 53 47  2  0
 83 77  2  0
113107  2  0
154148  2  0
  1162  1  0
  2163  1  0
  8164  1  0
  8165  1  0
  9166  1  0
  9167  1  0
  9168  1  0
 20169  1  0
 20170  1  0
 21171  1  0
 21172  1  0
 21173  1  0
 28174  1  0
 32175  1  0
 38176  1  0
 38177  1  0
 39178  1  0
 39179  1  0
 39180  1  0
 50181  1  0
 50182  1  0
 51183  1  0
 51184  1  0
 51185  1  0
 58186  1  0
 62187  1  0
 68188  1  0
 68189  1  0
 69190  1  0
 69191  1  0
 69192  1  0
 80193  1  0
 80194  1  0
 81195  1  0
 81196  1  0
 81197  1  0
 88198  1  0
 92199  1  0
 98200  1  0
 98201  1  0
 99202  1  0
 99203  1  0
 99204  1  0
110205  1  0
110206  1  0
111207  1  0
111208  1  0
111209  1  0
118210  1  0
122211  1  0
128212  1  0
129213  1  0
133214  1  0
139215  1  0
139216  1  0
140217  1  0
140218  1  0
140219  1  0
151220  1  0
151221  1  0
152222  1  0
152223  1  0
152224  1  0
159225  1  0
160226  1  0
M  END

