
     RDKit          3D

118131  0  0  0  0  0  0  0  0999 V2000
    0.5670    5.7603   10.0988 C   0  0  0  0  0  0  0  0  0  0  0  0
    0.6822    4.0952    9.8983 S   0  0  0  0  0  0  0  0  0  0  0  0
   -0.9106    3.8294    9.4197 C   0  0  0  0  0  0  0  0  0  0  0  0
   -1.5614    5.0650    9.3798 C   0  0  0  0  0  0  0  0  0  0  0  0
   -0.7334    6.1389    9.7681 C   0  0  0  0  0  0  0  0  0  0  0  0
   -1.2298    7.4518    9.7871 C   0  0  0  0  0  0  0  0  0  0  0  0
   -0.2046    8.8413   10.2776 S   0  0  0  0  0  0  0  0  0  0  0  0
   -2.5615    7.6784    9.4113 C   0  0  0  0  0  0  0  0  0  0  0  0
   -3.3900    6.6118    9.0339 C   0  0  0  0  0  0  0  0  0  0  0  0
   -2.9012    5.2955    9.0199 C   0  0  0  0  0  0  0  0  0  0  0  0
   -3.7393    4.2411    8.6606 O   0  0  0  0  0  0  0  0  0  0  0  0
   -1.4317    2.5244    8.9926 C   0  0  0  0  0  0  0  0  0  0  0  0
   -1.6780    2.1376    7.3754 S   0  0  0  0  0  0  0  0  0  0  0  0
   -1.9865    0.5030    7.5982 C   0  0  0  0  0  0  0  0  0  0  0  0
   -1.8395    0.2113    8.9606 C   0  0  0  0  0  0  0  0  0  0  0  0
   -1.5643    1.3517    9.7537 C   0  0  0  0  0  0  0  0  0  0  0  0
   -1.4795    1.2271   11.1591 C   0  0  0  0  0  0  0  0  0  0  0  0
   -1.3386    2.6328   12.2678 S   0  0  0  0  0  0  0  0  0  0  0  0
   -1.5949   -0.0455   11.7353 C   0  0  0  0  0  0  0  0  0  0  0  0
   -1.7978   -1.1793   10.9411 C   0  0  0  0  0  0  0  0  0  0  0  0
   -1.9241   -1.0639    9.5500 C   0  0  0  0  0  0  0  0  0  0  0  0
   -2.1254   -2.2038    8.7731 O   0  0  0  0  0  0  0  0  0  0  0  0
   -2.2479   -0.4290    6.4926 C   0  0  0  0  0  0  0  0  0  0  0  0
   -1.1268   -0.7165    5.2817 S   0  0  0  0  0  0  0  0  0  0  0  0
   -2.0084   -1.8664    4.4313 C   0  0  0  0  0  0  0  0  0  0  0  0
   -3.2218   -2.0636    5.1084 C   0  0  0  0  0  0  0  0  0  0  0  0
   -3.3813   -1.2212    6.2400 C   0  0  0  0  0  0  0  0  0  0  0  0
   -4.6035   -1.2242    6.9525 C   0  0  0  0  0  0  0  0  0  0  0  0
   -4.9959   -0.0519    8.2539 S   0  0  0  0  0  0  0  0  0  0  0  0
   -5.5976   -2.1419    6.5885 C   0  0  0  0  0  0  0  0  0  0  0  0
   -5.3978   -3.0357    5.5330 C   0  0  0  0  0  0  0  0  0  0  0  0
   -4.2110   -3.0117    4.7881 C   0  0  0  0  0  0  0  0  0  0  0  0
   -4.0127   -3.9488    3.7759 O   0  0  0  0  0  0  0  0  0  0  0  0
   -1.5952   -2.3478    3.1016 C   0  0  0  0  0  0  0  0  0  0  0  0
   -0.2692   -2.5208    2.7092 C   0  0  0  0  0  0  0  0  0  0  0  0
   -0.1155   -2.6856    1.3209 C   0  0  0  0  0  0  0  0  0  0  0  0
    1.1059   -2.8190    0.6260 C   0  0  0  0  0  0  0  0  0  0  0  0
    2.4365   -2.8869    1.3416 C   0  0  0  0  0  0  0  0  0  0  0  0
    2.7083   -4.3024    1.8382 C   0  0  0  0  0  0  0  0  0  0  0  0
    1.0246   -2.9278   -0.7746 C   0  0  0  0  0  0  0  0  0  0  0  0
   -0.1886   -2.8990   -1.4730 C   0  0  0  0  0  0  0  0  0  0  0  0
   -1.4104   -2.7377   -0.7794 C   0  0  0  0  0  0  0  0  0  0  0  0
   -2.7430   -2.6925   -1.4925 C   0  0  0  0  0  0  0  0  0  0  0  0
   -3.2664   -4.1007   -1.7526 C   0  0  0  0  0  0  0  0  0  0  0  0
   -1.3293   -2.6437    0.6246 C   0  0  0  0  0  0  0  0  0  0  0  0
   -2.5740   -2.3732    1.7254 S   0  0  0  0  0  0  0  0  0  0  0  0
   -0.0211   -2.9813   -2.8690 C   0  0  0  0  0  0  0  0  0  0  0  0
    1.3141   -3.0811   -3.2580 C   0  0  0  0  0  0  0  0  0  0  0  0
    2.2861   -3.0150   -1.8809 S   0  0  0  0  0  0  0  0  0  0  0  0
    1.8050   -2.8913   -4.6324 C   0  0  0  0  0  0  0  0  0  0  0  0
    1.2289   -1.6506   -5.6053 S   0  0  0  0  0  0  0  0  0  0  0  0
    2.4350   -1.6885   -6.7725 C   0  0  0  0  0  0  0  0  0  0  0  0
    3.3592   -2.6780   -6.3941 C   0  0  0  0  0  0  0  0  0  0  0  0
    2.9747   -3.3947   -5.2279 C   0  0  0  0  0  0  0  0  0  0  0  0
    3.7184   -4.5288   -4.8261 C   0  0  0  0  0  0  0  0  0  0  0  0
    3.1185   -5.7272   -3.6303 S   0  0  0  0  0  0  0  0  0  0  0  0
    4.9095   -4.8315   -5.4979 C   0  0  0  0  0  0  0  0  0  0  0  0
    5.3604   -4.0342   -6.5529 C   0  0  0  0  0  0  0  0  0  0  0  0
    4.5980   -2.9503   -7.0084 C   0  0  0  0  0  0  0  0  0  0  0  0
    5.1012   -2.1363   -8.0212 O   0  0  0  0  0  0  0  0  0  0  0  0
    2.3779   -0.8706   -8.0012 C   0  0  0  0  0  0  0  0  0  0  0  0
    1.7607    0.3773   -8.0900 C   0  0  0  0  0  0  0  0  0  0  0  0
    1.6823    0.8696   -9.4050 C   0  0  0  0  0  0  0  0  0  0  0  0
    1.0879    2.0857   -9.8109 C   0  0  0  0  0  0  0  0  0  0  0  0
    0.4416    3.0344   -8.8263 C   0  0  0  0  0  0  0  0  0  0  0  0
   -0.9958    2.6156   -8.5359 C   0  0  0  0  0  0  0  0  0  0  0  0
    1.0516    2.3358  -11.1954 C   0  0  0  0  0  0  0  0  0  0  0  0
    1.6056    1.4642  -12.1407 C   0  0  0  0  0  0  0  0  0  0  0  0
    2.2341    0.2669  -11.7314 C   0  0  0  0  0  0  0  0  0  0  0  0
    2.8446   -0.7023  -12.7184 C   0  0  0  0  0  0  0  0  0  0  0  0
    1.7934   -1.6689  -13.2552 C   0  0  0  0  0  0  0  0  0  0  0  0
    2.2274   -0.0065  -10.3508 C   0  0  0  0  0  0  0  0  0  0  0  0
    2.7728   -1.3877   -9.5608 S   0  0  0  0  0  0  0  0  0  0  0  0
    1.4341    1.9091  -13.4640 C   0  0  0  0  0  0  0  0  0  0  0  0
    0.7519    3.1185  -13.5548 C   0  0  0  0  0  0  0  0  0  0  0  0
    0.3570    3.6394  -12.0012 S   0  0  0  0  0  0  0  0  0  0  0  0
    1.3688    6.4133   10.4156 H   0  0  0  0  0  0  0  0  0  0  0  0
    0.2511    9.0381    8.9609 H   0  0  0  0  0  0  0  0  0  0  0  0
   -2.9607    8.6860    9.4181 H   0  0  0  0  0  0  0  0  0  0  0  0
   -4.4162    6.8125    8.7552 H   0  0  0  0  0  0  0  0  0  0  0  0
   -4.7052    4.3969    8.3925 H   0  0  0  0  0  0  0  0  0  0  0  0
   -2.7363    2.8049   12.3091 H   0  0  0  0  0  0  0  0  0  0  0  0
   -1.5369   -0.1603   12.8103 H   0  0  0  0  0  0  0  0  0  0  0  0
   -1.8728   -2.1508   11.4133 H   0  0  0  0  0  0  0  0  0  0  0  0
   -2.1917   -3.1257    9.1886 H   0  0  0  0  0  0  0  0  0  0  0  0
   -5.4762    0.8958    7.3302 H   0  0  0  0  0  0  0  0  0  0  0  0
   -6.5370   -2.1648    7.1267 H   0  0  0  0  0  0  0  0  0  0  0  0
   -6.1734   -3.7519    5.2923 H   0  0  0  0  0  0  0  0  0  0  0  0
   -4.7068   -4.6521    3.5581 H   0  0  0  0  0  0  0  0  0  0  0  0
    0.5532   -2.4801    3.4105 H   0  0  0  0  0  0  0  0  0  0  0  0
    3.2651   -2.5762    0.6710 H   0  0  0  0  0  0  0  0  0  0  0  0
    2.4552   -2.1800    2.1965 H   0  0  0  0  0  0  0  0  0  0  0  0
    1.9088   -4.6288    2.5387 H   0  0  0  0  0  0  0  0  0  0  0  0
    2.7537   -5.0075    0.9791 H   0  0  0  0  0  0  0  0  0  0  0  0
    3.6803   -4.3286    2.3739 H   0  0  0  0  0  0  0  0  0  0  0  0
   -2.6523   -2.1443   -2.4535 H   0  0  0  0  0  0  0  0  0  0  0  0
   -3.4911   -2.1337   -0.8925 H   0  0  0  0  0  0  0  0  0  0  0  0
   -2.5651   -4.6594   -2.4074 H   0  0  0  0  0  0  0  0  0  0  0  0
   -3.3883   -4.6503   -0.7941 H   0  0  0  0  0  0  0  0  0  0  0  0
   -4.2537   -4.0430   -2.2559 H   0  0  0  0  0  0  0  0  0  0  0  0
   -0.8316   -2.9310   -3.5834 H   0  0  0  0  0  0  0  0  0  0  0  0
    3.9463   -5.2221   -2.6128 H   0  0  0  0  0  0  0  0  0  0  0  0
    5.4910   -5.6975   -5.2067 H   0  0  0  0  0  0  0  0  0  0  0  0
    6.3050   -4.2697   -7.0280 H   0  0  0  0  0  0  0  0  0  0  0  0
    6.0018   -2.3152   -8.4482 H   0  0  0  0  0  0  0  0  0  0  0  0
    1.3575    0.8888   -7.2268 H   0  0  0  0  0  0  0  0  0  0  0  0
    0.4439    4.0721   -9.2231 H   0  0  0  0  0  0  0  0  0  0  0  0
    1.0195    3.0661   -7.8798 H   0  0  0  0  0  0  0  0  0  0  0  0
   -1.4395    3.3011   -7.7833 H   0  0  0  0  0  0  0  0  0  0  0  0
   -1.6048    2.6633   -9.4645 H   0  0  0  0  0  0  0  0  0  0  0  0
   -1.0259    1.5802   -8.1331 H   0  0  0  0  0  0  0  0  0  0  0  0
    3.6616   -1.2835  -12.2398 H   0  0  0  0  0  0  0  0  0  0  0  0
    3.3130   -0.1557  -13.5640 H   0  0  0  0  0  0  0  0  0  0  0  0
    2.2592   -2.3516  -13.9977 H   0  0  0  0  0  0  0  0  0  0  0  0
    0.9710   -1.1137  -13.7527 H   0  0  0  0  0  0  0  0  0  0  0  0
    1.3746   -2.2811  -12.4273 H   0  0  0  0  0  0  0  0  0  0  0  0
    1.7757    1.3744  -14.3396 H   0  0  0  0  0  0  0  0  0  0  0  0
    0.5124    3.6366  -14.4733 H   0  0  0  0  0  0  0  0  0  0  0  0
  1  2  1  0
  2  3  1  0
  3  4  2  0
  4  5  1  0
  5  6  1  0
  6  7  1  0
  6  8  2  0
  8  9  1  0
  9 10  2  0
 10 11  1  0
  3 12  1  0
 12 13  1  0
 13 14  1  0
 14 15  2  0
 15 16  1  0
 16 17  1  0
 17 18  1  0
 17 19  2  0
 19 20  1  0
 20 21  2  0
 21 22  1  0
 14 23  1  0
 23 24  1  0
 24 25  1  0
 25 26  2  0
 26 27  1  0
 27 28  1  0
 28 29  1  0
 28 30  2  0
 30 31  1  0
 31 32  2  0
 32 33  1  0
 25 34  1  0
 34 35  2  0
 35 36  1  0
 36 37  2  0
 37 38  1  0
 38 39  1  0
 37 40  1  0
 40 41  2  0
 41 42  1  0
 42 43  1  0
 43 44  1  0
 42 45  2  0
 45 46  1  0
 41 47  1  0
 47 48  2  0
 48 49  1  0
 48 50  1  0
 50 51  1  0
 51 52  1  0
 52 53  2  0
 53 54  1  0
 54 55  1  0
 55 56  1  0
 55 57  2  0
 57 58  1  0
 58 59  2  0
 59 60  1  0
 52 61  1  0
 61 62  2  0
 62 63  1  0
 63 64  2  0
 64 65  1  0
 65 66  1  0
 64 67  1  0
 67 68  2  0
 68 69  1  0
 69 70  1  0
 70 71  1  0
 69 72  2  0
 72 73  1  0
 68 74  1  0
 74 75  2  0
 75 76  1  0
  5  1  2  0
 16 12  2  0
 27 23  2  0
 46 34  1  0
 54 50  2  0
 73 61  1  0
 10  4  1  0
 21 15  1  0
 32 26  1  0
 45 36  1  0
 59 53  1  0
 72 63  1  0
 49 40  1  0
 76 67  1  0
  1 77  1  0
  7 78  1  0
  8 79  1  0
  9 80  1  0
 11 81  1  0
 18 82  1  0
 19 83  1  0
 20 84  1  0
 22 85  1  0
 29 86  1  0
 30 87  1  0
 31 88  1  0
 33 89  1  0
 35 90  1  0
 38 91  1  0
 38 92  1  0
 39 93  1  0
 39 94  1  0
 39 95  1  0
 43 96  1  0
 43 97  1  0
 44 98  1  0
 44 99  1  0
 44100  1  0
 47101  1  0
 56102  1  0
 57103  1  0
 58104  1  0
 60105  1  0
 62106  1  0
 65107  1  0
 65108  1  0
 66109  1  0
 66110  1  0
 66111  1  0
 70112  1  0
 70113  1  0
 71114  1  0
 71115  1  0
 71116  1  0
 74117  1  0
 75118  1  0
M  END

