
     RDKit          3D

227253  0  0  0  0  0  0  0  0999 V2000
   -1.3729   -9.0414   12.3931 C   0  0  0  0  0  0  0  0  0  0  0  0
   -0.3045   -9.0431   11.4993 C   0  0  0  0  0  0  0  0  0  0  0  0
   -0.6695   -8.6448   10.2027 C   0  0  0  0  0  0  0  0  0  0  0  0
    0.1796   -8.5739    9.0804 C   0  0  0  0  0  0  0  0  0  0  0  0
    1.6219   -8.8484    9.1814 C   0  0  0  0  0  0  0  0  0  0  0  0
    2.7106   -7.9116   10.0547 S   0  0  0  0  0  0  0  0  0  0  0  0
    4.0789   -8.8040    9.6504 C   0  0  0  0  0  0  0  0  0  0  0  0
    5.4765   -8.4368   10.0450 C   0  0  0  0  0  0  0  0  0  0  0  0
    6.1183   -7.5457    8.9863 C   0  0  0  0  0  0  0  0  0  0  0  0
    3.6978   -9.8462    8.8066 C   0  0  0  0  0  0  0  0  0  0  0  0
    4.8310  -11.0055    8.1215 Cl  0  0  0  0  0  0  0  0  0  0  0  0
    2.3192   -9.8737    8.5478 C   0  0  0  0  0  0  0  0  0  0  0  0
    1.5494  -11.0990    7.5471 Cl  0  0  0  0  0  0  0  0  0  0  0  0
   -0.4046   -8.1854    7.8643 C   0  0  0  0  0  0  0  0  0  0  0  0
   -1.7652   -7.8775    7.7482 C   0  0  0  0  0  0  0  0  0  0  0  0
   -2.6165   -7.9473    8.8705 C   0  0  0  0  0  0  0  0  0  0  0  0
   -4.0509   -7.6106    8.7911 C   0  0  0  0  0  0  0  0  0  0  0  0
   -4.7923   -6.3768    9.6634 S   0  0  0  0  0  0  0  0  0  0  0  0
   -6.3392   -6.6272    9.0497 C   0  0  0  0  0  0  0  0  0  0  0  0
   -7.5573   -5.8688    9.4844 C   0  0  0  0  0  0  0  0  0  0  0  0
   -8.1440   -6.4756   10.7535 C   0  0  0  0  0  0  0  0  0  0  0  0
   -6.2994   -7.7052    8.1674 C   0  0  0  0  0  0  0  0  0  0  0  0
   -5.0154   -8.2528    8.0171 C   0  0  0  0  0  0  0  0  0  0  0  0
   -4.6786   -9.6547    7.0078 Cl  0  0  0  0  0  0  0  0  0  0  0  0
   -7.7169   -8.3375    7.3394 Cl  0  0  0  0  0  0  0  0  0  0  0  0
   -2.0273   -8.3345   10.0865 C   0  0  0  0  0  0  0  0  0  0  0  0
   -2.7682   -8.5527   11.5815 S   0  0  0  0  0  0  0  0  0  0  0  0
   -2.1296   -7.4715    6.4549 C   0  0  0  0  0  0  0  0  0  0  0  0
   -1.0585   -7.4742    5.5633 C   0  0  0  0  0  0  0  0  0  0  0  0
    0.3444   -7.9506    6.3736 S   0  0  0  0  0  0  0  0  0  0  0  0
   -1.1452   -7.1205    4.1396 C   0  0  0  0  0  0  0  0  0  0  0  0
   -0.0701   -6.9333    3.2691 C   0  0  0  0  0  0  0  0  0  0  0  0
   -0.4772   -6.5721    1.9725 C   0  0  0  0  0  0  0  0  0  0  0  0
    0.3632   -6.2818    0.8773 C   0  0  0  0  0  0  0  0  0  0  0  0
    1.8313   -6.2665    1.0046 C   0  0  0  0  0  0  0  0  0  0  0  0
    2.6960   -5.2349    2.0154 S   0  0  0  0  0  0  0  0  0  0  0  0
    4.2198   -5.8220    1.6126 C   0  0  0  0  0  0  0  0  0  0  0  0
    5.5098   -5.2907    2.1607 C   0  0  0  0  0  0  0  0  0  0  0  0
    6.1919   -4.3620    1.1605 C   0  0  0  0  0  0  0  0  0  0  0  0
    4.0706   -6.8340    0.6651 C   0  0  0  0  0  0  0  0  0  0  0  0
    5.4212   -7.7232   -0.0277 Cl  0  0  0  0  0  0  0  0  0  0  0  0
    2.7308   -7.0841    0.3258 C   0  0  0  0  0  0  0  0  0  0  0  0
    2.2397   -8.3329   -0.8130 Cl  0  0  0  0  0  0  0  0  0  0  0  0
   -0.2684   -5.9308   -0.3309 C   0  0  0  0  0  0  0  0  0  0  0  0
   -1.6596   -5.8694   -0.4603 C   0  0  0  0  0  0  0  0  0  0  0  0
   -2.4964   -6.1534    0.6342 C   0  0  0  0  0  0  0  0  0  0  0  0
   -3.9616   -6.0096    0.5476 C   0  0  0  0  0  0  0  0  0  0  0  0
   -4.9651   -6.9435   -0.4270 S   0  0  0  0  0  0  0  0  0  0  0  0
   -6.3875   -6.1286   -0.0504 C   0  0  0  0  0  0  0  0  0  0  0  0
   -7.7431   -6.4954   -0.5744 C   0  0  0  0  0  0  0  0  0  0  0  0
   -8.4557   -7.4392    0.3906 C   0  0  0  0  0  0  0  0  0  0  0  0
   -6.0958   -5.1176    0.8646 C   0  0  0  0  0  0  0  0  0  0  0  0
   -4.7330   -5.0418    1.1898 C   0  0  0  0  0  0  0  0  0  0  0  0
   -4.0599   -3.8073    2.2484 Cl  0  0  0  0  0  0  0  0  0  0  0  0
   -7.3088   -4.0325    1.5332 Cl  0  0  0  0  0  0  0  0  0  0  0  0
   -1.8680   -6.5018    1.8370 C   0  0  0  0  0  0  0  0  0  0  0  0
   -2.5915   -6.8669    3.3075 S   0  0  0  0  0  0  0  0  0  0  0  0
   -2.0806   -5.3969   -1.7113 C   0  0  0  0  0  0  0  0  0  0  0  0
   -1.0237   -5.0635   -2.5569 C   0  0  0  0  0  0  0  0  0  0  0  0
    0.4353   -5.3658   -1.7560 S   0  0  0  0  0  0  0  0  0  0  0  0
   -1.1649   -4.3222   -3.8204 C   0  0  0  0  0  0  0  0  0  0  0  0
   -2.3793   -4.0023   -4.4244 C   0  0  0  0  0  0  0  0  0  0  0  0
   -2.2579   -3.0267   -5.4239 C   0  0  0  0  0  0  0  0  0  0  0  0
   -3.3268   -2.4048   -6.0934 C   0  0  0  0  0  0  0  0  0  0  0  0
   -4.7228   -2.8026   -5.8411 C   0  0  0  0  0  0  0  0  0  0  0  0
   -5.4063   -4.2546   -6.3430 S   0  0  0  0  0  0  0  0  0  0  0  0
   -6.9072   -4.0032   -5.6244 C   0  0  0  0  0  0  0  0  0  0  0  0
   -8.0770   -4.9311   -5.7524 C   0  0  0  0  0  0  0  0  0  0  0  0
   -8.8872   -4.6083   -7.0050 C   0  0  0  0  0  0  0  0  0  0  0  0
   -6.8917   -2.7680   -4.9781 C   0  0  0  0  0  0  0  0  0  0  0  0
   -8.2718   -2.1061   -4.1112 Cl  0  0  0  0  0  0  0  0  0  0  0  0
   -5.6605   -2.1015   -5.0870 C   0  0  0  0  0  0  0  0  0  0  0  0
   -5.3287   -0.5584   -4.3093 Cl  0  0  0  0  0  0  0  0  0  0  0  0
   -3.0124   -1.3121   -6.9142 C   0  0  0  0  0  0  0  0  0  0  0  0
   -1.7022   -0.8555   -7.0934 C   0  0  0  0  0  0  0  0  0  0  0  0
   -0.6198   -1.5219   -6.4746 C   0  0  0  0  0  0  0  0  0  0  0  0
    0.7771   -1.0653   -6.6458 C   0  0  0  0  0  0  0  0  0  0  0  0
    1.8248   -0.6458   -5.3954 S   0  0  0  0  0  0  0  0  0  0  0  0
    3.1477   -0.2910   -6.3696 C   0  0  0  0  0  0  0  0  0  0  0  0
    4.5078    0.0772   -5.8572 C   0  0  0  0  0  0  0  0  0  0  0  0
    5.4039   -1.1541   -5.7737 C   0  0  0  0  0  0  0  0  0  0  0  0
    2.7915   -0.5141   -7.6988 C   0  0  0  0  0  0  0  0  0  0  0  0
    1.4638   -0.9461   -7.8540 C   0  0  0  0  0  0  0  0  0  0  0  0
    0.7714   -1.3784   -9.4139 Cl  0  0  0  0  0  0  0  0  0  0  0  0
    3.9026   -0.3109   -9.0483 Cl  0  0  0  0  0  0  0  0  0  0  0  0
   -0.9422   -2.5953   -5.6222 C   0  0  0  0  0  0  0  0  0  0  0  0
    0.0636   -3.4301   -4.5590 S   0  0  0  0  0  0  0  0  0  0  0  0
   -1.6410    0.3789   -7.7653 C   0  0  0  0  0  0  0  0  0  0  0  0
   -2.8950    0.8807   -8.1202 C   0  0  0  0  0  0  0  0  0  0  0  0
   -4.0754   -0.2040   -7.5947 S   0  0  0  0  0  0  0  0  0  0  0  0
   -3.1596    2.3177   -8.2372 C   0  0  0  0  0  0  0  0  0  0  0  0
   -3.7028    3.1667   -6.9046 S   0  0  0  0  0  0  0  0  0  0  0  0
   -3.3038    4.7194   -7.4027 C   0  0  0  0  0  0  0  0  0  0  0  0
   -2.7842    4.5972   -8.7069 C   0  0  0  0  0  0  0  0  0  0  0  0
   -2.6373    3.2505   -9.1437 C   0  0  0  0  0  0  0  0  0  0  0  0
   -2.0189    2.9717  -10.3836 C   0  0  0  0  0  0  0  0  0  0  0  0
   -1.8298    1.3069  -11.0313 S   0  0  0  0  0  0  0  0  0  0  0  0
   -1.5573    4.0372  -11.1667 C   0  0  0  0  0  0  0  0  0  0  0  0
   -1.7661    5.3618  -10.7679 C   0  0  0  0  0  0  0  0  0  0  0  0
   -2.4267    5.6554   -9.5690 C   0  0  0  0  0  0  0  0  0  0  0  0
   -2.7831    6.9787   -9.3180 O   0  0  0  0  0  0  0  0  0  0  0  0
   -2.9619    5.7442   -6.3846 C   0  0  0  0  0  0  0  0  0  0  0  0
   -3.2373    5.5705   -5.0239 C   0  0  0  0  0  0  0  0  0  0  0  0
   -2.3718    6.2775   -4.1744 C   0  0  0  0  0  0  0  0  0  0  0  0
   -2.2507    6.0750   -2.7851 C   0  0  0  0  0  0  0  0  0  0  0  0
   -3.1253    5.1294   -2.0609 C   0  0  0  0  0  0  0  0  0  0  0  0
   -2.6126    3.6834   -1.3679 S   0  0  0  0  0  0  0  0  0  0  0  0
   -4.1203    3.2098   -0.7932 C   0  0  0  0  0  0  0  0  0  0  0  0
   -4.3626    1.9853    0.0363 C   0  0  0  0  0  0  0  0  0  0  0  0
   -4.1390    2.2850    1.5143 C   0  0  0  0  0  0  0  0  0  0  0  0
   -5.0510    4.1940   -1.1256 C   0  0  0  0  0  0  0  0  0  0  0  0
   -6.7484    4.1170   -0.6722 Cl  0  0  0  0  0  0  0  0  0  0  0  0
   -4.4962    5.2632   -1.8497 C   0  0  0  0  0  0  0  0  0  0  0  0
   -5.4299    6.6500   -2.3963 Cl  0  0  0  0  0  0  0  0  0  0  0  0
   -1.1455    6.6692   -2.1569 C   0  0  0  0  0  0  0  0  0  0  0  0
   -0.2399    7.4940   -2.8342 C   0  0  0  0  0  0  0  0  0  0  0  0
   -0.4044    7.7535   -4.2125 C   0  0  0  0  0  0  0  0  0  0  0  0
    0.5048    8.6534   -4.9549 C   0  0  0  0  0  0  0  0  0  0  0  0
    1.3860    8.2424   -6.3314 S   0  0  0  0  0  0  0  0  0  0  0  0
    2.0055    9.7794   -6.6196 C   0  0  0  0  0  0  0  0  0  0  0  0
    2.9155   10.1330   -7.7581 C   0  0  0  0  0  0  0  0  0  0  0  0
    4.3737   10.0656   -7.3249 C   0  0  0  0  0  0  0  0  0  0  0  0
    1.5426   10.6396   -5.6256 C   0  0  0  0  0  0  0  0  0  0  0  0
    0.7004   10.0107   -4.6953 C   0  0  0  0  0  0  0  0  0  0  0  0
   -0.0994   10.8734   -3.3850 Cl  0  0  0  0  0  0  0  0  0  0  0  0
    1.9497   12.3509   -5.5562 Cl  0  0  0  0  0  0  0  0  0  0  0  0
   -1.4533    7.0764   -4.8602 C   0  0  0  0  0  0  0  0  0  0  0  0
   -1.6794    6.8403   -6.5078 S   0  0  0  0  0  0  0  0  0  0  0  0
    0.8834    7.8357   -2.0588 C   0  0  0  0  0  0  0  0  0  0  0  0
    0.8646    7.2486   -0.7963 C   0  0  0  0  0  0  0  0  0  0  0  0
   -0.5501    6.3492   -0.6199 S   0  0  0  0  0  0  0  0  0  0  0  0
    2.0449    7.0644    0.0500 C   0  0  0  0  0  0  0  0  0  0  0  0
    2.4799    5.8254    0.5129 C   0  0  0  0  0  0  0  0  0  0  0  0
    3.7315    5.8844    1.1406 C   0  0  0  0  0  0  0  0  0  0  0  0
    4.4594    4.7910    1.6520 C   0  0  0  0  0  0  0  0  0  0  0  0
    4.0033    3.3992    1.4651 C   0  0  0  0  0  0  0  0  0  0  0  0
    3.6440    2.3211    2.7050 S   0  0  0  0  0  0  0  0  0  0  0  0
    3.2016    1.0371    1.7086 C   0  0  0  0  0  0  0  0  0  0  0  0
    2.8106   -0.3267    2.1912 C   0  0  0  0  0  0  0  0  0  0  0  0
    4.0237   -1.2479    2.2434 C   0  0  0  0  0  0  0  0  0  0  0  0
    3.3575    1.4308    0.3809 C   0  0  0  0  0  0  0  0  0  0  0  0
    3.0495    0.3692   -0.9888 Cl  0  0  0  0  0  0  0  0  0  0  0  0
    3.8044    2.7546    0.2438 C   0  0  0  0  0  0  0  0  0  0  0  0
    4.1436    3.4945   -1.3170 Cl  0  0  0  0  0  0  0  0  0  0  0  0
    5.6805    5.0837    2.2829 C   0  0  0  0  0  0  0  0  0  0  0  0
    6.1816    6.3855    2.3853 C   0  0  0  0  0  0  0  0  0  0  0  0
    5.4667    7.4737    1.8421 C   0  0  0  0  0  0  0  0  0  0  0  0
    5.9618    8.8565    1.9399 C   0  0  0  0  0  0  0  0  0  0  0  0
    6.5114    9.7740    0.6430 S   0  0  0  0  0  0  0  0  0  0  0  0
    6.8936   11.1417    1.5475 C   0  0  0  0  0  0  0  0  0  0  0  0
    7.5522   12.3679    0.9949 C   0  0  0  0  0  0  0  0  0  0  0  0
    9.0664   12.2785    1.1506 C   0  0  0  0  0  0  0  0  0  0  0  0
    6.6044   10.8883    2.8878 C   0  0  0  0  0  0  0  0  0  0  0  0
    6.0777    9.6068    3.1072 C   0  0  0  0  0  0  0  0  0  0  0  0
    5.5932    9.0173    4.6933 Cl  0  0  0  0  0  0  0  0  0  0  0  0
    6.8815   12.0499    4.1786 Cl  0  0  0  0  0  0  0  0  0  0  0  0
    4.2477    7.1824    1.2090 C   0  0  0  0  0  0  0  0  0  0  0  0
    3.1916    8.2448    0.4311 S   0  0  0  0  0  0  0  0  0  0  0  0
    7.4373    6.4435    3.0124 C   0  0  0  0  0  0  0  0  0  0  0  0
    7.9161    5.1941    3.3957 C   0  0  0  0  0  0  0  0  0  0  0  0
    6.7918    4.0154    2.9562 S   0  0  0  0  0  0  0  0  0  0  0  0
   -1.3143   -9.3217   13.4366 H   0  0  0  0  0  0  0  0  0  0  0  0
    0.6972   -9.3386   11.7840 H   0  0  0  0  0  0  0  0  0  0  0  0
    6.0877   -9.3546   10.1799 H   0  0  0  0  0  0  0  0  0  0  0  0
    5.4552   -7.8955   11.0165 H   0  0  0  0  0  0  0  0  0  0  0  0
    6.1864   -8.0881    8.0190 H   0  0  0  0  0  0  0  0  0  0  0  0
    7.1416   -7.2615    9.3081 H   0  0  0  0  0  0  0  0  0  0  0  0
    5.5161   -6.6239    8.8434 H   0  0  0  0  0  0  0  0  0  0  0  0
   -8.3225   -5.8758    8.6796 H   0  0  0  0  0  0  0  0  0  0  0  0
   -7.2805   -4.8105    9.6789 H   0  0  0  0  0  0  0  0  0  0  0  0
   -9.0603   -5.9186   11.0381 H   0  0  0  0  0  0  0  0  0  0  0  0
   -8.4156   -7.5403   10.5841 H   0  0  0  0  0  0  0  0  0  0  0  0
   -7.4140   -6.4057   11.5878 H   0  0  0  0  0  0  0  0  0  0  0  0
   -3.1302   -7.1700    6.1784 H   0  0  0  0  0  0  0  0  0  0  0  0
    0.9637   -7.0502    3.5691 H   0  0  0  0  0  0  0  0  0  0  0  0
    6.1863   -6.1346    2.4085 H   0  0  0  0  0  0  0  0  0  0  0  0
    5.3086   -4.7286    3.0980 H   0  0  0  0  0  0  0  0  0  0  0  0
    7.1090   -3.9336    1.6192 H   0  0  0  0  0  0  0  0  0  0  0  0
    6.4827   -4.9224    0.2472 H   0  0  0  0  0  0  0  0  0  0  0  0
    5.5131   -3.5329    0.8752 H   0  0  0  0  0  0  0  0  0  0  0  0
   -8.3550   -5.5800   -0.7222 H   0  0  0  0  0  0  0  0  0  0  0  0
   -7.6357   -6.9941   -1.5617 H   0  0  0  0  0  0  0  0  0  0  0  0
   -8.6052   -6.9435    1.3742 H   0  0  0  0  0  0  0  0  0  0  0  0
   -9.4493   -7.7139   -0.0223 H   0  0  0  0  0  0  0  0  0  0  0  0
   -7.8590   -8.3656    0.5341 H   0  0  0  0  0  0  0  0  0  0  0  0
   -3.1181   -5.2225   -1.9591 H   0  0  0  0  0  0  0  0  0  0  0  0
   -3.3324   -4.3952   -4.0945 H   0  0  0  0  0  0  0  0  0  0  0  0
   -8.7315   -4.8526   -4.8577 H   0  0  0  0  0  0  0  0  0  0  0  0
   -7.7112   -5.9795   -5.8143 H   0  0  0  0  0  0  0  0  0  0  0  0
   -8.2571   -4.7273   -7.9120 H   0  0  0  0  0  0  0  0  0  0  0  0
   -9.7521   -5.3019   -7.0768 H   0  0  0  0  0  0  0  0  0  0  0  0
   -9.2721   -3.5661   -6.9569 H   0  0  0  0  0  0  0  0  0  0  0  0
    4.4126    0.5293   -4.8467 H   0  0  0  0  0  0  0  0  0  0  0  0
    4.9705    0.8335   -6.5258 H   0  0  0  0  0  0  0  0  0  0  0  0
    5.5369   -1.6028   -6.7814 H   0  0  0  0  0  0  0  0  0  0  0  0
    6.4015   -0.8641   -5.3827 H   0  0  0  0  0  0  0  0  0  0  0  0
    4.9586   -1.9078   -5.0921 H   0  0  0  0  0  0  0  0  0  0  0  0
   -0.7323    0.9615   -7.8578 H   0  0  0  0  0  0  0  0  0  0  0  0
   -0.5485    1.1787  -10.4597 H   0  0  0  0  0  0  0  0  0  0  0  0
   -1.0771    3.8415  -12.1199 H   0  0  0  0  0  0  0  0  0  0  0  0
   -1.4625    6.1679  -11.4255 H   0  0  0  0  0  0  0  0  0  0  0  0
   -3.4561    7.2334   -8.6048 H   0  0  0  0  0  0  0  0  0  0  0  0
   -3.9424    4.8361   -4.6609 H   0  0  0  0  0  0  0  0  0  0  0  0
   -3.6656    1.1820   -0.2847 H   0  0  0  0  0  0  0  0  0  0  0  0
   -5.3979    1.6161   -0.1170 H   0  0  0  0  0  0  0  0  0  0  0  0
   -3.1085    2.6645    1.6779 H   0  0  0  0  0  0  0  0  0  0  0  0
   -4.2729    1.3565    2.1055 H   0  0  0  0  0  0  0  0  0  0  0  0
   -4.8706    3.0421    1.8674 H   0  0  0  0  0  0  0  0  0  0  0  0
    2.7500    9.4241   -8.5985 H   0  0  0  0  0  0  0  0  0  0  0  0
    2.6833   11.1536   -8.1281 H   0  0  0  0  0  0  0  0  0  0  0  0
    5.0277   10.3520   -8.1765 H   0  0  0  0  0  0  0  0  0  0  0  0
    4.6310    9.0331   -7.0079 H   0  0  0  0  0  0  0  0  0  0  0  0
    4.5610   10.7684   -6.4855 H   0  0  0  0  0  0  0  0  0  0  0  0
    1.7415    8.3684   -2.4496 H   0  0  0  0  0  0  0  0  0  0  0  0
    1.9241    4.9086    0.3616 H   0  0  0  0  0  0  0  0  0  0  0  0
    2.3643   -0.2505    3.2052 H   0  0  0  0  0  0  0  0  0  0  0  0
    2.0434   -0.7600    1.5147 H   0  0  0  0  0  0  0  0  0  0  0  0
    4.4895   -1.3256    1.2376 H   0  0  0  0  0  0  0  0  0  0  0  0
    4.7727   -0.8562    2.9632 H   0  0  0  0  0  0  0  0  0  0  0  0
    3.7100   -2.2613    2.5707 H   0  0  0  0  0  0  0  0  0  0  0  0
    7.3029   12.4663   -0.0829 H   0  0  0  0  0  0  0  0  0  0  0  0
    7.1744   13.2715    1.5194 H   0  0  0  0  0  0  0  0  0  0  0  0
    9.5412   13.1909    0.7325 H   0  0  0  0  0  0  0  0  0  0  0  0
    9.4563   11.3920    0.6048 H   0  0  0  0  0  0  0  0  0  0  0  0
    9.3403   12.1948    2.2241 H   0  0  0  0  0  0  0  0  0  0  0  0
    7.9969    7.3555    3.1665 H   0  0  0  0  0  0  0  0  0  0  0  0
    8.8635    5.0081    3.8825 H   0  0  0  0  0  0  0  0  0  0  0  0
  1  2  2  0
  2  3  1  0
  3  4  2  0
  4  5  1  0
  5  6  1  0
  6  7  1  0
  7  8  1  0
  8  9  1  0
  7 10  2  0
 10 11  1  0
 10 12  1  0
 12 13  1  0
  4 14  1  0
 14 15  2  0
 15 16  1  0
 16 17  1  0
 17 18  1  0
 18 19  1  0
 19 20  1  0
 20 21  1  0
 19 22  2  0
 22 23  1  0
 23 24  1  0
 22 25  1  0
 16 26  2  0
 26 27  1  0
 15 28  1  0
 28 29  2  0
 29 30  1  0
 29 31  1  0
 31 32  2  0
 32 33  1  0
 33 34  2  0
 34 35  1  0
 35 36  1  0
 36 37  1  0
 37 38  1  0
 38 39  1  0
 37 40  2  0
 40 41  1  0
 40 42  1  0
 42 43  1  0
 34 44  1  0
 44 45  2  0
 45 46  1  0
 46 47  1  0
 47 48  1  0
 48 49  1  0
 49 50  1  0
 50 51  1  0
 49 52  2  0
 52 53  1  0
 53 54  1  0
 52 55  1  0
 46 56  2  0
 56 57  1  0
 45 58  1  0
 58 59  2  0
 59 60  1  0
 59 61  1  0
 61 62  2  0
 62 63  1  0
 63 64  2  0
 64 65  1  0
 65 66  1  0
 66 67  1  0
 67 68  1  0
 68 69  1  0
 67 70  2  0
 70 71  1  0
 70 72  1  0
 72 73  1  0
 64 74  1  0
 74 75  2  0
 75 76  1  0
 76 77  1  0
 77 78  1  0
 78 79  1  0
 79 80  1  0
 80 81  1  0
 79 82  2  0
 82 83  1  0
 83 84  1  0
 82 85  1  0
 76 86  2  0
 86 87  1  0
 75 88  1  0
 88 89  2  0
 89 90  1  0
 89 91  1  0
 91 92  1  0
 92 93  1  0
 93 94  2  0
 94 95  1  0
 95 96  1  0
 96 97  1  0
 96 98  2  0
 98 99  1  0
 99100  2  0
100101  1  0
 93102  1  0
102103  2  0
103104  1  0
104105  2  0
105106  1  0
106107  1  0
107108  1  0
108109  1  0
109110  1  0
108111  2  0
111112  1  0
111113  1  0
113114  1  0
105115  1  0
115116  2  0
116117  1  0
117118  1  0
118119  1  0
119120  1  0
120121  1  0
121122  1  0
120123  2  0
123124  1  0
124125  1  0
123126  1  0
117127  2  0
127128  1  0
116129  1  0
129130  2  0
130131  1  0
130132  1  0
132133  2  0
133134  1  0
134135  2  0
135136  1  0
136137  1  0
137138  1  0
138139  1  0
139140  1  0
138141  2  0
141142  1  0
141143  1  0
143144  1  0
135145  1  0
145146  2  0
146147  1  0
147148  1  0
148149  1  0
149150  1  0
150151  1  0
151152  1  0
150153  2  0
153154  1  0
154155  1  0
153156  1  0
147157  2  0
157158  1  0
146159  1  0
159160  2  0
160161  1  0
 27  1  1  0
 57 31  1  0
 87 61  1  0
 95 91  2  0
128102  1  0
158132  1  0
 26  3  1  0
 56 33  1  0
 86 63  1  0
100 94  1  0
127104  1  0
157134  1  0
 12  5  2  0
 30 14  1  0
 42 35  2  0
 60 44  1  0
 72 65  2  0
 90 74  1  0
113106  2  0
131115  1  0
143136  2  0
161145  1  0
 23 17  2  0
 53 47  2  0
 83 77  2  0
124118  2  0
154148  2  0
  1162  1  0
  2163  1  0
  8164  1  0
  8165  1  0
  9166  1  0
  9167  1  0
  9168  1  0
 20169  1  0
 20170  1  0
 21171  1  0
 21172  1  0
 21173  1  0
 28174  1  0
 32175  1  0
 38176  1  0
 38177  1  0
 39178  1  0
 39179  1  0
 39180  1  0
 50181  1  0
 50182  1  0
 51183  1  0
 51184  1  0
 51185  1  0
 58186  1  0
 62187  1  0
 68188  1  0
 68189  1  0
 69190  1  0
 69191  1  0
 69192  1  0
 80193  1  0
 80194  1  0
 81195  1  0
 81196  1  0
 81197  1  0
 88198  1  0
 97199  1  0
 98200  1  0
 99201  1  0
101202  1  0
103203  1  0
109204  1  0
109205  1  0
110206  1  0
110207  1  0
110208  1  0
121209  1  0
121210  1  0
122211  1  0
122212  1  0
122213  1  0
129214  1  0
133215  1  0
139216  1  0
139217  1  0
140218  1  0
140219  1  0
140220  1  0
151221  1  0
151222  1  0
152223  1  0
152224  1  0
152225  1  0
159226  1  0
160227  1  0
M  END

