
     RDKit          3D

227253  0  0  0  0  0  0  0  0999 V2000
   -1.9257   -9.1720   12.7297 C   0  0  0  0  0  0  0  0  0  0  0  0
   -0.7699   -8.7306   12.0904 C   0  0  0  0  0  0  0  0  0  0  0  0
   -0.9985   -8.2925   10.7746 C   0  0  0  0  0  0  0  0  0  0  0  0
   -0.0330   -7.7983    9.8744 C   0  0  0  0  0  0  0  0  0  0  0  0
    1.3766   -7.6202   10.2621 C   0  0  0  0  0  0  0  0  0  0  0  0
    1.9181   -6.5042   11.3972 S   0  0  0  0  0  0  0  0  0  0  0  0
    3.5548   -6.8467   11.2210 C   0  0  0  0  0  0  0  0  0  0  0  0
    4.6558   -6.1201   11.9330 C   0  0  0  0  0  0  0  0  0  0  0  0
    5.1320   -4.9302   11.1066 C   0  0  0  0  0  0  0  0  0  0  0  0
    3.7020   -7.8304   10.2431 C   0  0  0  0  0  0  0  0  0  0  0  0
    5.2614   -8.4526    9.7199 Cl  0  0  0  0  0  0  0  0  0  0  0  0
    2.4798   -8.2687    9.7091 C   0  0  0  0  0  0  0  0  0  0  0  0
    2.3572   -9.5262    8.4861 Cl  0  0  0  0  0  0  0  0  0  0  0  0
   -0.4899   -7.4158    8.6011 C   0  0  0  0  0  0  0  0  0  0  0  0
   -1.8339   -7.5020    8.2242 C   0  0  0  0  0  0  0  0  0  0  0  0
   -2.7923   -8.0189    9.1147 C   0  0  0  0  0  0  0  0  0  0  0  0
   -4.2036   -8.1620    8.7335 C   0  0  0  0  0  0  0  0  0  0  0  0
   -4.8356   -9.4730    7.8946 S   0  0  0  0  0  0  0  0  0  0  0  0
   -6.4083   -8.8816    7.8031 C   0  0  0  0  0  0  0  0  0  0  0  0
   -7.5570   -9.6182    7.1832 C   0  0  0  0  0  0  0  0  0  0  0  0
   -8.3682  -10.3567    8.2425 C   0  0  0  0  0  0  0  0  0  0  0  0
   -6.4603   -7.6452    8.4484 C   0  0  0  0  0  0  0  0  0  0  0  0
   -5.2180   -7.2381    8.9651 C   0  0  0  0  0  0  0  0  0  0  0  0
   -4.9599   -5.7084    9.7898 Cl  0  0  0  0  0  0  0  0  0  0  0  0
   -7.9278   -6.6859    8.5916 Cl  0  0  0  0  0  0  0  0  0  0  0  0
   -2.3389   -8.3992   10.3870 C   0  0  0  0  0  0  0  0  0  0  0  0
   -3.2303   -9.0273   11.6656 S   0  0  0  0  0  0  0  0  0  0  0  0
   -2.0815   -7.0179    6.9312 C   0  0  0  0  0  0  0  0  0  0  0  0
   -0.9358   -6.5220    6.3129 C   0  0  0  0  0  0  0  0  0  0  0  0
    0.3937   -6.7545    7.3305 S   0  0  0  0  0  0  0  0  0  0  0  0
   -0.8721   -6.0328    4.9289 C   0  0  0  0  0  0  0  0  0  0  0  0
   -1.5299   -6.8865    3.6415 S   0  0  0  0  0  0  0  0  0  0  0  0
   -0.8869   -5.9516    2.4032 C   0  0  0  0  0  0  0  0  0  0  0  0
   -0.1467   -4.9105    2.9901 C   0  0  0  0  0  0  0  0  0  0  0  0
   -0.1684   -4.9304    4.4100 C   0  0  0  0  0  0  0  0  0  0  0  0
    0.3870   -3.8440    5.1330 C   0  0  0  0  0  0  0  0  0  0  0  0
    0.0668   -3.5523    6.8769 S   0  0  0  0  0  0  0  0  0  0  0  0
    1.0656   -2.8388    4.4335 C   0  0  0  0  0  0  0  0  0  0  0  0
    1.1539   -2.8673    3.0387 C   0  0  0  0  0  0  0  0  0  0  0  0
    0.5319   -3.8833    2.3029 C   0  0  0  0  0  0  0  0  0  0  0  0
    0.6046   -3.8675    0.9157 O   0  0  0  0  0  0  0  0  0  0  0  0
   -1.3822   -6.0124    1.0233 C   0  0  0  0  0  0  0  0  0  0  0  0
   -2.6434   -5.5702    0.6391 C   0  0  0  0  0  0  0  0  0  0  0  0
   -2.8064   -5.5178   -0.7543 C   0  0  0  0  0  0  0  0  0  0  0  0
   -3.9133   -4.9733   -1.4371 C   0  0  0  0  0  0  0  0  0  0  0  0
   -5.1456   -4.5903   -0.7202 C   0  0  0  0  0  0  0  0  0  0  0  0
   -6.1327   -5.6776    0.0971 S   0  0  0  0  0  0  0  0  0  0  0  0
   -7.2230   -4.5363    0.6758 C   0  0  0  0  0  0  0  0  0  0  0  0
   -8.4259   -4.8572    1.5127 C   0  0  0  0  0  0  0  0  0  0  0  0
   -9.6773   -4.9769    0.6493 C   0  0  0  0  0  0  0  0  0  0  0  0
   -6.8317   -3.2761    0.2216 C   0  0  0  0  0  0  0  0  0  0  0  0
   -7.7007   -1.7959    0.6031 Cl  0  0  0  0  0  0  0  0  0  0  0  0
   -5.6581   -3.3058   -0.5520 C   0  0  0  0  0  0  0  0  0  0  0  0
   -4.8773   -1.8525   -1.1614 Cl  0  0  0  0  0  0  0  0  0  0  0  0
   -3.7682   -4.7842   -2.8221 C   0  0  0  0  0  0  0  0  0  0  0  0
   -2.6125   -5.1539   -3.5181 C   0  0  0  0  0  0  0  0  0  0  0  0
   -1.5504   -5.7987   -2.8470 C   0  0  0  0  0  0  0  0  0  0  0  0
   -0.3590   -6.2890   -3.5597 C   0  0  0  0  0  0  0  0  0  0  0  0
    0.7833   -5.3282   -4.3379 S   0  0  0  0  0  0  0  0  0  0  0  0
    1.6789   -6.6013   -4.9782 C   0  0  0  0  0  0  0  0  0  0  0  0
    2.8236   -6.4419   -5.9279 C   0  0  0  0  0  0  0  0  0  0  0  0
    2.3186   -6.3520   -7.3659 C   0  0  0  0  0  0  0  0  0  0  0  0
    1.0781   -7.8024   -4.6072 C   0  0  0  0  0  0  0  0  0  0  0  0
   -0.0607   -7.6273   -3.8042 C   0  0  0  0  0  0  0  0  0  0  0  0
   -1.0535   -8.9636   -3.2348 Cl  0  0  0  0  0  0  0  0  0  0  0  0
    1.6487   -9.3804   -5.1405 Cl  0  0  0  0  0  0  0  0  0  0  0  0
   -1.6698   -5.9387   -1.4540 C   0  0  0  0  0  0  0  0  0  0  0  0
   -0.4723   -6.3865   -0.3516 S   0  0  0  0  0  0  0  0  0  0  0  0
   -2.6057   -4.7092   -4.8532 C   0  0  0  0  0  0  0  0  0  0  0  0
   -3.7304   -3.9476   -5.1895 C   0  0  0  0  0  0  0  0  0  0  0  0
   -4.7723   -3.9252   -3.8588 S   0  0  0  0  0  0  0  0  0  0  0  0
   -3.7568   -2.9074   -6.2388 C   0  0  0  0  0  0  0  0  0  0  0  0
   -2.6151   -2.4241   -6.8861 C   0  0  0  0  0  0  0  0  0  0  0  0
   -2.7552   -1.1079   -7.3571 C   0  0  0  0  0  0  0  0  0  0  0  0
   -1.6997   -0.2813   -7.8009 C   0  0  0  0  0  0  0  0  0  0  0  0
   -0.3301   -0.8067   -7.9872 C   0  0  0  0  0  0  0  0  0  0  0  0
    1.0138   -0.3511   -7.0814 S   0  0  0  0  0  0  0  0  0  0  0  0
    2.1068   -1.3714   -7.8514 C   0  0  0  0  0  0  0  0  0  0  0  0
    3.5538   -1.4984   -7.4829 C   0  0  0  0  0  0  0  0  0  0  0  0
    3.7521   -2.6184   -6.4718 C   0  0  0  0  0  0  0  0  0  0  0  0
    1.4228   -2.1184   -8.8080 C   0  0  0  0  0  0  0  0  0  0  0  0
    2.1845   -3.3439   -9.8130 Cl  0  0  0  0  0  0  0  0  0  0  0  0
    0.0556   -1.8014   -8.8837 C   0  0  0  0  0  0  0  0  0  0  0  0
   -1.0511   -2.5620  -10.0214 Cl  0  0  0  0  0  0  0  0  0  0  0  0
   -1.9727    1.0957   -7.8857 C   0  0  0  0  0  0  0  0  0  0  0  0
   -3.2283    1.6353   -7.5925 C   0  0  0  0  0  0  0  0  0  0  0  0
   -4.3056    0.7957   -7.2485 C   0  0  0  0  0  0  0  0  0  0  0  0
   -5.6236    1.3370   -6.8769 C   0  0  0  0  0  0  0  0  0  0  0  0
   -5.9401    2.2673   -5.5081 S   0  0  0  0  0  0  0  0  0  0  0  0
   -7.5535    2.5771   -5.8738 C   0  0  0  0  0  0  0  0  0  0  0  0
   -8.4616    3.4445   -5.0503 C   0  0  0  0  0  0  0  0  0  0  0  0
   -9.4918    2.6093   -4.2997 C   0  0  0  0  0  0  0  0  0  0  0  0
   -7.8675    1.9439   -7.0777 C   0  0  0  0  0  0  0  0  0  0  0  0
   -6.7866    1.2446   -7.6366 C   0  0  0  0  0  0  0  0  0  0  0  0
   -6.8727    0.3971   -9.1758 Cl  0  0  0  0  0  0  0  0  0  0  0  0
   -9.4412    2.0598   -7.8555 Cl  0  0  0  0  0  0  0  0  0  0  0  0
   -4.0261   -0.5733   -7.1201 C   0  0  0  0  0  0  0  0  0  0  0  0
   -4.9562   -1.7179   -6.3231 S   0  0  0  0  0  0  0  0  0  0  0  0
   -3.2170    3.0388   -7.4907 C   0  0  0  0  0  0  0  0  0  0  0  0
   -1.9498    3.5976   -7.6413 C   0  0  0  0  0  0  0  0  0  0  0  0
   -0.8667    2.3559   -8.0040 S   0  0  0  0  0  0  0  0  0  0  0  0
   -1.5149    4.7384   -6.8303 C   0  0  0  0  0  0  0  0  0  0  0  0
   -1.7386    4.7711   -5.4542 C   0  0  0  0  0  0  0  0  0  0  0  0
   -0.8065    5.5448   -4.7512 C   0  0  0  0  0  0  0  0  0  0  0  0
   -0.6652    5.5727   -3.3497 C   0  0  0  0  0  0  0  0  0  0  0  0
   -1.5951    4.8471   -2.4524 C   0  0  0  0  0  0  0  0  0  0  0  0
   -1.1407    3.6474   -1.3619 S   0  0  0  0  0  0  0  0  0  0  0  0
   -2.6710    3.3922   -0.7177 C   0  0  0  0  0  0  0  0  0  0  0  0
   -2.9796    2.4148    0.3768 C   0  0  0  0  0  0  0  0  0  0  0  0
   -3.3708    1.0640   -0.2032 C   0  0  0  0  0  0  0  0  0  0  0  0
   -3.5746    4.2235   -1.3746 C   0  0  0  0  0  0  0  0  0  0  0  0
   -5.2977    4.2501   -1.0201 Cl  0  0  0  0  0  0  0  0  0  0  0  0
   -2.9721    5.0458   -2.3401 C   0  0  0  0  0  0  0  0  0  0  0  0
   -3.8637    6.2502   -3.2629 Cl  0  0  0  0  0  0  0  0  0  0  0  0
    0.4867    6.2015   -2.8480 C   0  0  0  0  0  0  0  0  0  0  0  0
    1.4333    6.8285   -3.6699 C   0  0  0  0  0  0  0  0  0  0  0  0
    1.2553    6.8553   -5.0717 C   0  0  0  0  0  0  0  0  0  0  0  0
    2.2272    7.5163   -5.9668 C   0  0  0  0  0  0  0  0  0  0  0  0
    3.0258    6.7799   -7.2525 S   0  0  0  0  0  0  0  0  0  0  0  0
    3.8268    8.1564   -7.7926 C   0  0  0  0  0  0  0  0  0  0  0  0
    4.6567    8.2158   -9.0395 C   0  0  0  0  0  0  0  0  0  0  0  0
    3.7827    8.5019  -10.2576 C   0  0  0  0  0  0  0  0  0  0  0  0
    3.4624    9.2283   -6.9773 C   0  0  0  0  0  0  0  0  0  0  0  0
    2.5714    8.8698   -5.9523 C   0  0  0  0  0  0  0  0  0  0  0  0
    1.8828   10.0370   -4.8278 Cl  0  0  0  0  0  0  0  0  0  0  0  0
    4.0188   10.8758   -7.2361 Cl  0  0  0  0  0  0  0  0  0  0  0  0
    0.1395    6.1592   -5.5807 C   0  0  0  0  0  0  0  0  0  0  0  0
   -0.1706    5.7013   -7.1752 S   0  0  0  0  0  0  0  0  0  0  0  0
    2.5777    7.2550   -2.9646 C   0  0  0  0  0  0  0  0  0  0  0  0
    2.5186    6.9394   -1.6076 C   0  0  0  0  0  0  0  0  0  0  0  0
    1.0591    6.1754   -1.2708 S   0  0  0  0  0  0  0  0  0  0  0  0
    3.6332    6.9875   -0.6562 C   0  0  0  0  0  0  0  0  0  0  0  0
    3.9113    5.9849    0.2688 C   0  0  0  0  0  0  0  0  0  0  0  0
    5.0091    6.2827    1.0822 C   0  0  0  0  0  0  0  0  0  0  0  0
    5.5516    5.4494    2.0813 C   0  0  0  0  0  0  0  0  0  0  0  0
    4.9945    4.1139    2.3730 C   0  0  0  0  0  0  0  0  0  0  0  0
    5.7887    2.6617    2.0708 S   0  0  0  0  0  0  0  0  0  0  0  0
    4.5248    1.6622    2.5532 C   0  0  0  0  0  0  0  0  0  0  0  0
    4.5407    0.1658    2.4642 C   0  0  0  0  0  0  0  0  0  0  0  0
    3.9741   -0.3021    1.1279 C   0  0  0  0  0  0  0  0  0  0  0  0
    3.4486    2.4578    2.9404 C   0  0  0  0  0  0  0  0  0  0  0  0
    1.9008    1.8081    3.4675 Cl  0  0  0  0  0  0  0  0  0  0  0  0
    3.7134    3.8335    2.8464 C   0  0  0  0  0  0  0  0  0  0  0  0
    2.5530    5.0749    3.2960 Cl  0  0  0  0  0  0  0  0  0  0  0  0
    6.6749    5.9375    2.7682 C   0  0  0  0  0  0  0  0  0  0  0  0
    7.2338    7.1922    2.5074 C   0  0  0  0  0  0  0  0  0  0  0  0
    6.6935    8.0240    1.5034 C   0  0  0  0  0  0  0  0  0  0  0  0
    7.2523    9.3576    1.2145 C   0  0  0  0  0  0  0  0  0  0  0  0
    8.7992    9.6440    0.6194 S   0  0  0  0  0  0  0  0  0  0  0  0
    8.6830   11.3244    0.6184 C   0  0  0  0  0  0  0  0  0  0  0  0
    9.7515   12.2502    0.1207 C   0  0  0  0  0  0  0  0  0  0  0  0
    9.5466   12.5638   -1.3557 C   0  0  0  0  0  0  0  0  0  0  0  0
    7.4115   11.6835    1.0639 C   0  0  0  0  0  0  0  0  0  0  0  0
    6.6118   10.5818    1.4072 C   0  0  0  0  0  0  0  0  0  0  0  0
    4.9896   10.7391    2.0696 Cl  0  0  0  0  0  0  0  0  0  0  0  0
    6.8629   13.3501    1.1907 Cl  0  0  0  0  0  0  0  0  0  0  0  0
    5.5813    7.5281    0.7971 C   0  0  0  0  0  0  0  0  0  0  0  0
    4.7506    8.2425   -0.4867 S   0  0  0  0  0  0  0  0  0  0  0  0
    8.3170    7.4953    3.3509 C   0  0  0  0  0  0  0  0  0  0  0  0
    8.6098    6.4810    4.2561 C   0  0  0  0  0  0  0  0  0  0  0  0
    7.5244    5.2092    4.0246 S   0  0  0  0  0  0  0  0  0  0  0  0
   -1.9756   -9.5571   13.7414 H   0  0  0  0  0  0  0  0  0  0  0  0
    0.2013   -8.7403   12.5665 H   0  0  0  0  0  0  0  0  0  0  0  0
    5.5069   -6.8093   12.1214 H   0  0  0  0  0  0  0  0  0  0  0  0
    4.2861   -5.7606   12.9165 H   0  0  0  0  0  0  0  0  0  0  0  0
    5.5365   -5.2761   10.1317 H   0  0  0  0  0  0  0  0  0  0  0  0
    4.2932   -4.2247   10.9272 H   0  0  0  0  0  0  0  0  0  0  0  0
    5.9317   -4.3930   11.6564 H   0  0  0  0  0  0  0  0  0  0  0  0
   -7.1666  -10.3522    6.4477 H   0  0  0  0  0  0  0  0  0  0  0  0
   -8.2147   -8.9083    6.6386 H   0  0  0  0  0  0  0  0  0  0  0  0
   -7.7273  -11.0849    8.7840 H   0  0  0  0  0  0  0  0  0  0  0  0
   -8.8025   -9.6399    8.9723 H   0  0  0  0  0  0  0  0  0  0  0  0
   -9.1967  -10.9112    7.7534 H   0  0  0  0  0  0  0  0  0  0  0  0
   -3.0633   -7.0057    6.4693 H   0  0  0  0  0  0  0  0  0  0  0  0
   -1.1334   -2.8676    6.6019 H   0  0  0  0  0  0  0  0  0  0  0  0
    1.4844   -1.9946    4.9677 H   0  0  0  0  0  0  0  0  0  0  0  0
    1.6819   -2.0732    2.5303 H   0  0  0  0  0  0  0  0  0  0  0  0
    1.1122   -3.1433    0.4142 H   0  0  0  0  0  0  0  0  0  0  0  0
   -3.3782   -5.2075    1.3477 H   0  0  0  0  0  0  0  0  0  0  0  0
   -8.2590   -5.8188    2.0435 H   0  0  0  0  0  0  0  0  0  0  0  0
   -8.5756   -4.0680    2.2804 H   0  0  0  0  0  0  0  0  0  0  0  0
   -9.9014   -4.0062    0.1593 H   0  0  0  0  0  0  0  0  0  0  0  0
  -10.5412   -5.2659    1.2885 H   0  0  0  0  0  0  0  0  0  0  0  0
   -9.5397   -5.7568   -0.1274 H   0  0  0  0  0  0  0  0  0  0  0  0
    3.5253   -7.3003   -5.8363 H   0  0  0  0  0  0  0  0  0  0  0  0
    3.3873   -5.5253   -5.6674 H   0  0  0  0  0  0  0  0  0  0  0  0
    1.8087   -7.2980   -7.6510 H   0  0  0  0  0  0  0  0  0  0  0  0
    3.1750   -6.1951   -8.0531 H   0  0  0  0  0  0  0  0  0  0  0  0
    1.6075   -5.5043   -7.4799 H   0  0  0  0  0  0  0  0  0  0  0  0
   -1.7602   -4.8283   -5.5140 H   0  0  0  0  0  0  0  0  0  0  0  0
   -1.6651   -2.9421   -6.8676 H   0  0  0  0  0  0  0  0  0  0  0  0
    4.1600   -1.7033   -8.3932 H   0  0  0  0  0  0  0  0  0  0  0  0
    3.9109   -0.5407   -7.0478 H   0  0  0  0  0  0  0  0  0  0  0  0
    4.8249   -2.6872   -6.1937 H   0  0  0  0  0  0  0  0  0  0  0  0
    3.4366   -3.5819   -6.9214 H   0  0  0  0  0  0  0  0  0  0  0  0
    3.1549   -2.4239   -5.5552 H   0  0  0  0  0  0  0  0  0  0  0  0
   -8.9725    4.1771   -5.7087 H   0  0  0  0  0  0  0  0  0  0  0  0
   -7.8606    4.0164   -4.3110 H   0  0  0  0  0  0  0  0  0  0  0  0
  -10.1115    2.0154   -5.0039 H   0  0  0  0  0  0  0  0  0  0  0  0
   -8.9893    1.9228   -3.5847 H   0  0  0  0  0  0  0  0  0  0  0  0
  -10.1678    3.2842   -3.7299 H   0  0  0  0  0  0  0  0  0  0  0  0
   -4.0609    3.6183   -7.1398 H   0  0  0  0  0  0  0  0  0  0  0  0
   -2.4547    4.1228   -4.9682 H   0  0  0  0  0  0  0  0  0  0  0  0
   -2.0853    2.2936    1.0226 H   0  0  0  0  0  0  0  0  0  0  0  0
   -3.8052    2.8041    1.0103 H   0  0  0  0  0  0  0  0  0  0  0  0
   -2.5330    0.6414   -0.7989 H   0  0  0  0  0  0  0  0  0  0  0  0
   -4.2685    1.1677   -0.8488 H   0  0  0  0  0  0  0  0  0  0  0  0
   -3.6089    0.3631    0.6263 H   0  0  0  0  0  0  0  0  0  0  0  0
    5.4325    9.0039   -8.9454 H   0  0  0  0  0  0  0  0  0  0  0  0
    5.1722    7.2424   -9.1830 H   0  0  0  0  0  0  0  0  0  0  0  0
    4.4172    8.5463  -11.1669 H   0  0  0  0  0  0  0  0  0  0  0  0
    3.2615    9.4761  -10.1403 H   0  0  0  0  0  0  0  0  0  0  0  0
    3.0277    7.6967  -10.3905 H   0  0  0  0  0  0  0  0  0  0  0  0
    3.4550    7.6777   -3.4342 H   0  0  0  0  0  0  0  0  0  0  0  0
    3.3429    5.0641    0.3276 H   0  0  0  0  0  0  0  0  0  0  0  0
    5.5864   -0.1960    2.5670 H   0  0  0  0  0  0  0  0  0  0  0  0
    3.9452   -0.2699    3.2957 H   0  0  0  0  0  0  0  0  0  0  0  0
    2.9345    0.0680    0.9939 H   0  0  0  0  0  0  0  0  0  0  0  0
    3.9636   -1.4112    1.0984 H   0  0  0  0  0  0  0  0  0  0  0  0
    4.6063    0.0704    0.2933 H   0  0  0  0  0  0  0  0  0  0  0  0
    9.7429   13.1935    0.7073 H   0  0  0  0  0  0  0  0  0  0  0  0
   10.7453   11.7744    0.2594 H   0  0  0  0  0  0  0  0  0  0  0  0
    8.5754   13.0798   -1.5112 H   0  0  0  0  0  0  0  0  0  0  0  0
   10.3617   13.2268   -1.7134 H   0  0  0  0  0  0  0  0  0  0  0  0
    9.5629   11.6287   -1.9564 H   0  0  0  0  0  0  0  0  0  0  0  0
    8.8675    8.4253    3.3203 H   0  0  0  0  0  0  0  0  0  0  0  0
    9.4004    6.5086    4.9933 H   0  0  0  0  0  0  0  0  0  0  0  0
  1  2  2  0
  2  3  1  0
  3  4  2  0
  4  5  1  0
  5  6  1  0
  6  7  1  0
  7  8  1  0
  8  9  1  0
  7 10  2  0
 10 11  1  0
 10 12  1  0
 12 13  1  0
  4 14  1  0
 14 15  2  0
 15 16  1  0
 16 17  1  0
 17 18  1  0
 18 19  1  0
 19 20  1  0
 20 21  1  0
 19 22  2  0
 22 23  1  0
 23 24  1  0
 22 25  1  0
 16 26  2  0
 26 27  1  0
 15 28  1  0
 28 29  2  0
 29 30  1  0
 29 31  1  0
 31 32  1  0
 32 33  1  0
 33 34  2  0
 34 35  1  0
 35 36  1  0
 36 37  1  0
 36 38  2  0
 38 39  1  0
 39 40  2  0
 40 41  1  0
 33 42  1  0
 42 43  2  0
 43 44  1  0
 44 45  2  0
 45 46  1  0
 46 47  1  0
 47 48  1  0
 48 49  1  0
 49 50  1  0
 48 51  2  0
 51 52  1  0
 51 53  1  0
 53 54  1  0
 45 55  1  0
 55 56  2  0
 56 57  1  0
 57 58  1  0
 58 59  1  0
 59 60  1  0
 60 61  1  0
 61 62  1  0
 60 63  2  0
 63 64  1  0
 64 65  1  0
 63 66  1  0
 57 67  2  0
 67 68  1  0
 56 69  1  0
 69 70  2  0
 70 71  1  0
 70 72  1  0
 72 73  2  0
 73 74  1  0
 74 75  2  0
 75 76  1  0
 76 77  1  0
 77 78  1  0
 78 79  1  0
 79 80  1  0
 78 81  2  0
 81 82  1  0
 81 83  1  0
 83 84  1  0
 75 85  1  0
 85 86  2  0
 86 87  1  0
 87 88  1  0
 88 89  1  0
 89 90  1  0
 90 91  1  0
 91 92  1  0
 90 93  2  0
 93 94  1  0
 94 95  1  0
 93 96  1  0
 87 97  2  0
 97 98  1  0
 86 99  1  0
 99100  2  0
100101  1  0
100102  1  0
102103  2  0
103104  1  0
104105  2  0
105106  1  0
106107  1  0
107108  1  0
108109  1  0
109110  1  0
108111  2  0
111112  1  0
111113  1  0
113114  1  0
105115  1  0
115116  2  0
116117  1  0
117118  1  0
118119  1  0
119120  1  0
120121  1  0
121122  1  0
120123  2  0
123124  1  0
124125  1  0
123126  1  0
117127  2  0
127128  1  0
116129  1  0
129130  2  0
130131  1  0
130132  1  0
132133  2  0
133134  1  0
134135  2  0
135136  1  0
136137  1  0
137138  1  0
138139  1  0
139140  1  0
138141  2  0
141142  1  0
141143  1  0
143144  1  0
135145  1  0
145146  2  0
146147  1  0
147148  1  0
148149  1  0
149150  1  0
150151  1  0
151152  1  0
150153  2  0
153154  1  0
154155  1  0
153156  1  0
147157  2  0
157158  1  0
146159  1  0
159160  2  0
160161  1  0
 27  1  1  0
 35 31  2  0
 68 42  1  0
 98 72  1  0
128102  1  0
158132  1  0
 26  3  1  0
 40 34  1  0
 67 44  1  0
 97 74  1  0
127104  1  0
157134  1  0
 12  5  2  0
 30 14  1  0
 53 46  2  0
 71 55  1  0
 83 76  2  0
101 85  1  0
113106  2  0
131115  1  0
143136  2  0
161145  1  0
 23 17  2  0
 64 58  2  0
 94 88  2  0
124118  2  0
154148  2  0
  1162  1  0
  2163  1  0
  8164  1  0
  8165  1  0
  9166  1  0
  9167  1  0
  9168  1  0
 20169  1  0
 20170  1  0
 21171  1  0
 21172  1  0
 21173  1  0
 28174  1  0
 37175  1  0
 38176  1  0
 39177  1  0
 41178  1  0
 43179  1  0
 49180  1  0
 49181  1  0
 50182  1  0
 50183  1  0
 50184  1  0
 61185  1  0
 61186  1  0
 62187  1  0
 62188  1  0
 62189  1  0
 69190  1  0
 73191  1  0
 79192  1  0
 79193  1  0
 80194  1  0
 80195  1  0
 80196  1  0
 91197  1  0
 91198  1  0
 92199  1  0
 92200  1  0
 92201  1  0
 99202  1  0
103203  1  0
109204  1  0
109205  1  0
110206  1  0
110207  1  0
110208  1  0
121209  1  0
121210  1  0
122211  1  0
122212  1  0
122213  1  0
129214  1  0
133215  1  0
139216  1  0
139217  1  0
140218  1  0
140219  1  0
140220  1  0
151221  1  0
151222  1  0
152223  1  0
152224  1  0
152225  1  0
159226  1  0
160227  1  0
M  END

