
     RDKit          3D

117133  0  0  0  0  0  0  0  0999 V2000
    4.8580    3.7780   -0.9348 C   0  0  0  0  0  0  0  0  0  0  0  0
    6.2285    3.8023   -1.2105 C   0  0  0  0  0  0  0  0  0  0  0  0
    7.0339    2.6870   -0.9191 C   0  0  0  0  0  0  0  0  0  0  0  0
    8.4864    2.7102   -1.2062 C   0  0  0  0  0  0  0  0  0  0  0  0
    9.0263    3.7216   -1.7343 O   0  0  0  0  0  0  0  0  0  0  0  0
    9.2869    1.5707   -0.8877 N   0  0  0  0  0  0  0  0  0  0  0  0
    8.6881    0.4100   -0.3051 C   0  0  0  0  0  0  0  0  0  0  0  0
    9.4065   -0.5887   -0.0300 O   0  0  0  0  0  0  0  0  0  0  0  0
    7.2303    0.3940   -0.0375 C   0  0  0  0  0  0  0  0  0  0  0  0
    6.6167   -0.7410    0.5221 C   0  0  0  0  0  0  0  0  0  0  0  0
    5.2329   -0.7660    0.7372 C   0  0  0  0  0  0  0  0  0  0  0  0
    4.4578    0.3654    0.4504 C   0  0  0  0  0  0  0  0  0  0  0  0
    5.0539    1.5125   -0.0894 C   0  0  0  0  0  0  0  0  0  0  0  0
    4.2729    2.6419   -0.3761 C   0  0  0  0  0  0  0  0  0  0  0  0
    6.4484    1.5303   -0.3512 C   0  0  0  0  0  0  0  0  0  0  0  0
    4.5842   -1.9458    1.3339 C   0  0  0  0  0  0  0  0  0  0  0  0
    3.8387   -1.8856    2.8385 S   0  0  0  0  0  0  0  0  0  0  0  0
    3.1298   -3.4070    2.7976 C   0  0  0  0  0  0  0  0  0  0  0  0
    3.4327   -3.9832    1.5585 C   0  0  0  0  0  0  0  0  0  0  0  0
    4.2447   -3.1699    0.7258 C   0  0  0  0  0  0  0  0  0  0  0  0
    4.5449   -3.5973   -0.5915 C   0  0  0  0  0  0  0  0  0  0  0  0
    5.4804   -2.6208   -1.7708 S   0  0  0  0  0  0  0  0  0  0  0  0
    4.0619   -4.8389   -1.0265 C   0  0  0  0  0  0  0  0  0  0  0  0
    3.2705   -5.6386   -0.1979 C   0  0  0  0  0  0  0  0  0  0  0  0
    2.9370   -5.2157    1.0949 C   0  0  0  0  0  0  0  0  0  0  0  0
    2.1331   -6.0173    1.9043 O   0  0  0  0  0  0  0  0  0  0  0  0
    1.9819   -3.7550    3.6473 C   0  0  0  0  0  0  0  0  0  0  0  0
    2.1112   -4.6119    4.7472 C   0  0  0  0  0  0  0  0  0  0  0  0
    0.9857   -4.9283    5.5376 C   0  0  0  0  0  0  0  0  0  0  0  0
    1.1092   -5.8267    6.7067 C   0  0  0  0  0  0  0  0  0  0  0  0
    2.2216   -6.3255    7.0237 O   0  0  0  0  0  0  0  0  0  0  0  0
   -0.0496   -6.1286    7.4907 N   0  0  0  0  0  0  0  0  0  0  0  0
   -1.3223   -5.5746    7.1459 C   0  0  0  0  0  0  0  0  0  0  0  0
   -2.3352   -5.8664    7.8359 O   0  0  0  0  0  0  0  0  0  0  0  0
   -1.4346   -4.6655    5.9809 C   0  0  0  0  0  0  0  0  0  0  0  0
   -2.6696   -4.0783    5.6365 C   0  0  0  0  0  0  0  0  0  0  0  0
   -2.7664   -3.2076    4.5364 C   0  0  0  0  0  0  0  0  0  0  0  0
   -1.6127   -2.9221    3.7904 C   0  0  0  0  0  0  0  0  0  0  0  0
   -0.3869   -3.5055    4.1076 C   0  0  0  0  0  0  0  0  0  0  0  0
    0.7381   -3.2080    3.3333 C   0  0  0  0  0  0  0  0  0  0  0  0
   -0.2795   -4.3753    5.2139 C   0  0  0  0  0  0  0  0  0  0  0  0
   -4.0362   -2.5220    4.1779 C   0  0  0  0  0  0  0  0  0  0  0  0
   -4.8651   -1.9669    5.1669 C   0  0  0  0  0  0  0  0  0  0  0  0
   -5.8861   -1.0597    4.8223 C   0  0  0  0  0  0  0  0  0  0  0  0
   -6.7259   -0.4352    5.8691 C   0  0  0  0  0  0  0  0  0  0  0  0
   -6.6301   -0.7930    7.0744 O   0  0  0  0  0  0  0  0  0  0  0  0
   -7.6644    0.5808    5.5070 N   0  0  0  0  0  0  0  0  0  0  0  0
   -7.7712    1.0117    4.1483 C   0  0  0  0  0  0  0  0  0  0  0  0
   -8.5801    1.9307    3.8505 O   0  0  0  0  0  0  0  0  0  0  0  0
   -6.9291    0.3743    3.1100 C   0  0  0  0  0  0  0  0  0  0  0  0
   -6.9380    0.8469    1.7827 C   0  0  0  0  0  0  0  0  0  0  0  0
   -6.1186    0.2580    0.8006 C   0  0  0  0  0  0  0  0  0  0  0  0
   -5.3486   -0.8627    1.1481 C   0  0  0  0  0  0  0  0  0  0  0  0
   -5.2655   -1.2906    2.4747 C   0  0  0  0  0  0  0  0  0  0  0  0
   -4.3163   -2.2524    2.8298 C   0  0  0  0  0  0  0  0  0  0  0  0
   -6.0472   -0.6692    3.4718 C   0  0  0  0  0  0  0  0  0  0  0  0
   -5.9488    0.8880   -0.5423 C   0  0  0  0  0  0  0  0  0  0  0  0
   -7.0108    1.5526   -1.1809 C   0  0  0  0  0  0  0  0  0  0  0  0
   -6.8098    2.2355   -2.3953 C   0  0  0  0  0  0  0  0  0  0  0  0
   -7.9242    2.9638   -3.0457 C   0  0  0  0  0  0  0  0  0  0  0  0
   -9.0853    2.9422   -2.5540 O   0  0  0  0  0  0  0  0  0  0  0  0
   -7.6810    3.7024   -4.2426 N   0  0  0  0  0  0  0  0  0  0  0  0
   -6.3762    3.7173   -4.8271 C   0  0  0  0  0  0  0  0  0  0  0  0
   -6.1694    4.3962   -5.8668 O   0  0  0  0  0  0  0  0  0  0  0  0
   -5.2834    2.9426   -4.1963 C   0  0  0  0  0  0  0  0  0  0  0  0
   -4.0016    2.9096   -4.7741 C   0  0  0  0  0  0  0  0  0  0  0  0
   -2.9590    2.1722   -4.1834 C   0  0  0  0  0  0  0  0  0  0  0  0
   -3.2080    1.4924   -2.9801 C   0  0  0  0  0  0  0  0  0  0  0  0
   -4.4739    1.5332   -2.3802 C   0  0  0  0  0  0  0  0  0  0  0  0
   -4.6851    0.8839   -1.1598 C   0  0  0  0  0  0  0  0  0  0  0  0
   -5.5300    2.2381   -2.9970 C   0  0  0  0  0  0  0  0  0  0  0  0
   -1.6136    2.1033   -4.8229 C   0  0  0  0  0  0  0  0  0  0  0  0
   -0.4495    2.0780   -4.0348 C   0  0  0  0  0  0  0  0  0  0  0  0
    0.8224    1.9826   -4.6221 C   0  0  0  0  0  0  0  0  0  0  0  0
    2.0394    1.9173   -3.7769 C   0  0  0  0  0  0  0  0  0  0  0  0
    1.9531    1.8997   -2.5197 O   0  0  0  0  0  0  0  0  0  0  0  0
    3.3262    1.8569   -4.3930 N   0  0  0  0  0  0  0  0  0  0  0  0
    3.4391    1.8397   -5.8186 C   0  0  0  0  0  0  0  0  0  0  0  0
    4.5812    1.7943   -6.3530 O   0  0  0  0  0  0  0  0  0  0  0  0
    2.2128    1.8727   -6.6498 C   0  0  0  0  0  0  0  0  0  0  0  0
    2.2949    1.8361   -8.0526 C   0  0  0  0  0  0  0  0  0  0  0  0
    1.1360    1.8603   -8.8315 C   0  0  0  0  0  0  0  0  0  0  0  0
   -0.1176    1.9294   -8.2263 C   0  0  0  0  0  0  0  0  0  0  0  0
   -0.2278    1.9740   -6.8285 C   0  0  0  0  0  0  0  0  0  0  0  0
   -1.4883    2.0446   -6.2224 C   0  0  0  0  0  0  0  0  0  0  0  0
    0.9416    1.9428   -6.0289 C   0  0  0  0  0  0  0  0  0  0  0  0
    4.2478    4.6453   -1.1508 H   0  0  0  0  0  0  0  0  0  0  0  0
    6.6549    4.6994   -1.6425 H   0  0  0  0  0  0  0  0  0  0  0  0
   10.3132    1.5822   -1.0924 H   0  0  0  0  0  0  0  0  0  0  0  0
    7.2055   -1.6153    0.7759 H   0  0  0  0  0  0  0  0  0  0  0  0
    3.3891    0.3512    0.6411 H   0  0  0  0  0  0  0  0  0  0  0  0
    3.2084    2.6454   -0.1718 H   0  0  0  0  0  0  0  0  0  0  0  0
    4.3176   -1.9862   -2.2482 H   0  0  0  0  0  0  0  0  0  0  0  0
    4.2878   -5.1832   -2.0284 H   0  0  0  0  0  0  0  0  0  0  0  0
    2.9018   -6.5866   -0.5690 H   0  0  0  0  0  0  0  0  0  0  0  0
    1.7604   -6.9000    1.5783 H   0  0  0  0  0  0  0  0  0  0  0  0
    3.0831   -5.0258    4.9834 H   0  0  0  0  0  0  0  0  0  0  0  0
    0.0343   -6.7589    8.3196 H   0  0  0  0  0  0  0  0  0  0  0  0
   -3.5534   -4.3006    6.2207 H   0  0  0  0  0  0  0  0  0  0  0  0
   -1.6591   -2.2164    2.9696 H   0  0  0  0  0  0  0  0  0  0  0  0
    0.6519   -2.5433    2.4808 H   0  0  0  0  0  0  0  0  0  0  0  0
   -4.6650   -2.1728    6.2132 H   0  0  0  0  0  0  0  0  0  0  0  0
   -8.2669    1.0177    6.2407 H   0  0  0  0  0  0  0  0  0  0  0  0
   -7.5350    1.7161    1.5396 H   0  0  0  0  0  0  0  0  0  0  0  0
   -4.7480   -1.3580    0.3925 H   0  0  0  0  0  0  0  0  0  0  0  0
   -3.7080   -2.7116    2.0560 H   0  0  0  0  0  0  0  0  0  0  0  0
   -7.9950    1.5423   -0.7279 H   0  0  0  0  0  0  0  0  0  0  0  0
   -8.4594    4.2354   -4.6925 H   0  0  0  0  0  0  0  0  0  0  0  0
   -3.8124    3.4651   -5.6826 H   0  0  0  0  0  0  0  0  0  0  0  0
   -2.4197    0.9091   -2.5182 H   0  0  0  0  0  0  0  0  0  0  0  0
   -3.8422    0.4106   -0.6735 H   0  0  0  0  0  0  0  0  0  0  0  0
   -0.5277    2.1447   -2.9580 H   0  0  0  0  0  0  0  0  0  0  0  0
    4.1881    1.8130   -3.8007 H   0  0  0  0  0  0  0  0  0  0  0  0
    3.2551    1.7889   -8.5507 H   0  0  0  0  0  0  0  0  0  0  0  0
    1.2134    1.8249   -9.9114 H   0  0  0  0  0  0  0  0  0  0  0  0
   -1.0006    1.9495   -8.8554 H   0  0  0  0  0  0  0  0  0  0  0  0
   -2.3772    2.0360   -6.8439 H   0  0  0  0  0  0  0  0  0  0  0  0
  1  2  2  0
  2  3  1  0
  3  4  1  0
  4  5  2  0
  4  6  1  0
  6  7  1  0
  7  8  2  0
  7  9  1  0
  9 10  2  0
 10 11  1  0
 11 12  2  0
 12 13  1  0
 13 14  2  0
 13 15  1  0
 11 16  1  0
 16 17  1  0
 17 18  1  0
 18 19  2  0
 19 20  1  0
 20 21  1  0
 21 22  1  0
 21 23  2  0
 23 24  1  0
 24 25  2  0
 25 26  1  0
 18 27  1  0
 27 28  2  0
 28 29  1  0
 29 30  1  0
 30 31  2  0
 30 32  1  0
 32 33  1  0
 33 34  2  0
 33 35  1  0
 35 36  2  0
 36 37  1  0
 37 38  2  0
 38 39  1  0
 39 40  2  0
 39 41  1  0
 37 42  1  0
 42 43  2  0
 43 44  1  0
 44 45  1  0
 45 46  2  0
 45 47  1  0
 47 48  1  0
 48 49  2  0
 48 50  1  0
 50 51  2  0
 51 52  1  0
 52 53  2  0
 53 54  1  0
 54 55  2  0
 54 56  1  0
 52 57  1  0
 57 58  2  0
 58 59  1  0
 59 60  1  0
 60 61  2  0
 60 62  1  0
 62 63  1  0
 63 64  2  0
 63 65  1  0
 65 66  2  0
 66 67  1  0
 67 68  2  0
 68 69  1  0
 69 70  2  0
 69 71  1  0
 67 72  1  0
 72 73  2  0
 73 74  1  0
 74 75  1  0
 75 76  2  0
 75 77  1  0
 77 78  1  0
 78 79  2  0
 78 80  1  0
 80 81  2  0
 81 82  1  0
 82 83  2  0
 83 84  1  0
 84 85  2  0
 84 86  1  0
 14  1  1  0
 20 16  2  0
 40 27  1  0
 55 42  1  0
 70 57  1  0
 85 72  1  0
 15  3  2  0
 25 19  1  0
 41 29  2  0
 56 44  2  0
 71 59  2  0
 86 74  2  0
 15  9  1  0
 41 35  1  0
 56 50  1  0
 71 65  1  0
 86 80  1  0
  1 87  1  0
  2 88  1  0
  6 89  1  0
 10 90  1  0
 12 91  1  0
 14 92  1  0
 22 93  1  0
 23 94  1  0
 24 95  1  0
 26 96  1  0
 28 97  1  0
 32 98  1  0
 36 99  1  0
 38100  1  0
 40101  1  0
 43102  1  0
 47103  1  0
 51104  1  0
 53105  1  0
 55106  1  0
 58107  1  0
 62108  1  0
 66109  1  0
 68110  1  0
 70111  1  0
 73112  1  0
 77113  1  0
 81114  1  0
 82115  1  0
 83116  1  0
 85117  1  0
M  END

