
     RDKit          3D

160176  0  0  0  0  0  0  0  0999 V2000
    2.5649    8.4438    6.8448 C   0  0  0  0  0  0  0  0  0  0  0  0
    2.2775    7.4547    7.7808 C   0  0  0  0  0  0  0  0  0  0  0  0
    1.4265    6.4493    7.2852 C   0  0  0  0  0  0  0  0  0  0  0  0
    0.9588    5.3187    7.9919 C   0  0  0  0  0  0  0  0  0  0  0  0
    1.3619    5.0336    9.4210 C   0  0  0  0  0  0  0  0  0  0  0  0
    0.4071    5.7087   10.4010 C   0  0  0  0  0  0  0  0  0  0  0  0
    0.0515    4.4843    7.3119 C   0  0  0  0  0  0  0  0  0  0  0  0
   -0.3449    4.7117    5.9872 C   0  0  0  0  0  0  0  0  0  0  0  0
    0.1794    5.8007    5.2579 C   0  0  0  0  0  0  0  0  0  0  0  0
   -0.1878    6.0579    3.8144 C   0  0  0  0  0  0  0  0  0  0  0  0
   -1.4696    6.8808    3.7129 C   0  0  0  0  0  0  0  0  0  0  0  0
    1.0448    6.6644    5.9552 C   0  0  0  0  0  0  0  0  0  0  0  0
    1.7660    8.0824    5.4045 S   0  0  0  0  0  0  0  0  0  0  0  0
   -1.2665    3.7595    5.5191 C   0  0  0  0  0  0  0  0  0  0  0  0
   -1.5740    2.7848    6.4684 C   0  0  0  0  0  0  0  0  0  0  0  0
   -0.7167    3.1002    7.8864 S   0  0  0  0  0  0  0  0  0  0  0  0
   -2.4280    1.6104    6.2375 C   0  0  0  0  0  0  0  0  0  0  0  0
   -2.4555    0.4622    7.0283 C   0  0  0  0  0  0  0  0  0  0  0  0
   -3.2335   -0.5719    6.4728 C   0  0  0  0  0  0  0  0  0  0  0  0
   -3.3509   -1.8886    6.9741 C   0  0  0  0  0  0  0  0  0  0  0  0
   -2.6103   -2.3465    8.2093 C   0  0  0  0  0  0  0  0  0  0  0  0
   -1.1789   -2.7503    7.8617 C   0  0  0  0  0  0  0  0  0  0  0  0
   -4.0588   -2.8056    6.1733 C   0  0  0  0  0  0  0  0  0  0  0  0
   -4.6377   -2.4554    4.9496 C   0  0  0  0  0  0  0  0  0  0  0  0
   -4.5475   -1.1321    4.4619 C   0  0  0  0  0  0  0  0  0  0  0  0
   -5.1340   -0.7276    3.1257 C   0  0  0  0  0  0  0  0  0  0  0  0
   -6.6452   -0.5431    3.2263 C   0  0  0  0  0  0  0  0  0  0  0  0
   -3.8286   -0.2174    5.2550 C   0  0  0  0  0  0  0  0  0  0  0  0
   -3.3818    1.3601    4.8703 S   0  0  0  0  0  0  0  0  0  0  0  0
   -5.1363   -3.5636    4.2417 C   0  0  0  0  0  0  0  0  0  0  0  0
   -4.9111   -4.7877    4.8768 C   0  0  0  0  0  0  0  0  0  0  0  0
   -4.1409   -4.4763    6.3499 S   0  0  0  0  0  0  0  0  0  0  0  0
   -4.8520   -6.0701    4.1373 C   0  0  0  0  0  0  0  0  0  0  0  0
   -3.7307   -6.8973    4.2307 C   0  0  0  0  0  0  0  0  0  0  0  0
   -2.7369   -6.8537    5.1322 N   0  0  0  0  0  0  0  0  0  0  0  0
   -1.8245   -7.7072    4.6831 N   0  0  0  0  0  0  0  0  0  0  0  0
   -0.5763   -7.9890    5.3798 C   0  0  0  0  0  0  0  0  0  0  0  0
   -0.7886   -9.0994    6.4022 C   0  0  0  0  0  0  0  0  0  0  0  0
   -2.1692   -8.2743    3.5323 N   0  0  0  0  0  0  0  0  0  0  0  0
   -3.3791   -7.7672    3.2356 C   0  0  0  0  0  0  0  0  0  0  0  0
   -4.1131   -7.8803    2.0401 C   0  0  0  0  0  0  0  0  0  0  0  0
   -5.3890   -7.2499    2.0470 C   0  0  0  0  0  0  0  0  0  0  0  0
   -5.7399   -6.3373    3.0717 C   0  0  0  0  0  0  0  0  0  0  0  0
   -6.9081   -5.6524    2.9709 F   0  0  0  0  0  0  0  0  0  0  0  0
   -6.2770   -7.4440    1.0408 F   0  0  0  0  0  0  0  0  0  0  0  0
   -3.4428   -8.3058    0.7668 C   0  0  0  0  0  0  0  0  0  0  0  0
   -3.8761   -7.9656   -0.5271 C   0  0  0  0  0  0  0  0  0  0  0  0
   -2.8406   -7.8747   -1.4803 C   0  0  0  0  0  0  0  0  0  0  0  0
   -2.9579   -7.3208   -2.7763 C   0  0  0  0  0  0  0  0  0  0  0  0
   -4.3028   -7.0282   -3.4069 C   0  0  0  0  0  0  0  0  0  0  0  0
   -4.9989   -8.3214   -3.8266 C   0  0  0  0  0  0  0  0  0  0  0  0
   -1.7536   -6.9745   -3.4214 C   0  0  0  0  0  0  0  0  0  0  0  0
   -0.4952   -7.2134   -2.8524 C   0  0  0  0  0  0  0  0  0  0  0  0
   -0.3799   -7.9041   -1.6263 C   0  0  0  0  0  0  0  0  0  0  0  0
    0.9645   -8.2419   -1.0164 C   0  0  0  0  0  0  0  0  0  0  0  0
    1.5856   -9.4422   -1.7245 C   0  0  0  0  0  0  0  0  0  0  0  0
   -1.5854   -8.1976   -0.9602 C   0  0  0  0  0  0  0  0  0  0  0  0
   -1.7812   -8.6002    0.6513 S   0  0  0  0  0  0  0  0  0  0  0  0
    0.5485   -6.5554   -3.5285 C   0  0  0  0  0  0  0  0  0  0  0  0
    0.1094   -5.7918   -4.6092 C   0  0  0  0  0  0  0  0  0  0  0  0
   -1.5588   -5.9712   -4.7582 S   0  0  0  0  0  0  0  0  0  0  0  0
    0.8389   -4.6481   -5.1745 C   0  0  0  0  0  0  0  0  0  0  0  0
    1.6665   -3.8094   -4.4266 C   0  0  0  0  0  0  0  0  0  0  0  0
    1.9385   -2.5853   -5.0646 C   0  0  0  0  0  0  0  0  0  0  0  0
    2.6407   -1.4910   -4.5094 C   0  0  0  0  0  0  0  0  0  0  0  0
    3.2665   -1.5508   -3.1329 C   0  0  0  0  0  0  0  0  0  0  0  0
    4.6178   -2.2568   -3.1837 C   0  0  0  0  0  0  0  0  0  0  0  0
    2.7350   -0.3343   -5.3077 C   0  0  0  0  0  0  0  0  0  0  0  0
    2.1638   -0.2437   -6.5837 C   0  0  0  0  0  0  0  0  0  0  0  0
    1.4311   -1.3250   -7.1222 C   0  0  0  0  0  0  0  0  0  0  0  0
    0.7735   -1.2519   -8.4812 C   0  0  0  0  0  0  0  0  0  0  0  0
    1.7739   -1.5942   -9.5811 C   0  0  0  0  0  0  0  0  0  0  0  0
    1.3459   -2.4856   -6.3301 C   0  0  0  0  0  0  0  0  0  0  0  0
    0.4569   -3.8849   -6.6296 S   0  0  0  0  0  0  0  0  0  0  0  0
    2.3595    1.0134   -7.1851 C   0  0  0  0  0  0  0  0  0  0  0  0
    3.0503    1.9084   -6.3688 C   0  0  0  0  0  0  0  0  0  0  0  0
    3.4434    1.1437   -4.9180 S   0  0  0  0  0  0  0  0  0  0  0  0
    3.3126    3.3198   -6.6839 C   0  0  0  0  0  0  0  0  0  0  0  0
    3.6280    4.3121   -5.7565 C   0  0  0  0  0  0  0  0  0  0  0  0
    3.7492    5.5870   -6.3371 C   0  0  0  0  0  0  0  0  0  0  0  0
    4.0110    6.7972   -5.6558 C   0  0  0  0  0  0  0  0  0  0  0  0
    4.1918    6.8579   -4.1555 C   0  0  0  0  0  0  0  0  0  0  0  0
    5.6386    6.5702   -3.7675 C   0  0  0  0  0  0  0  0  0  0  0  0
    4.1088    7.9552   -6.4485 C   0  0  0  0  0  0  0  0  0  0  0  0
    3.9262    7.9460   -7.8370 C   0  0  0  0  0  0  0  0  0  0  0  0
    3.6475    6.7388   -8.5175 C   0  0  0  0  0  0  0  0  0  0  0  0
    3.3977    6.6918  -10.0082 C   0  0  0  0  0  0  0  0  0  0  0  0
    1.9390    7.0091  -10.3244 C   0  0  0  0  0  0  0  0  0  0  0  0
    3.5576    5.5782   -7.7255 C   0  0  0  0  0  0  0  0  0  0  0  0
    3.1975    4.0100   -8.2198 S   0  0  0  0  0  0  0  0  0  0  0  0
    4.0470    9.2246   -8.4131 C   0  0  0  0  0  0  0  0  0  0  0  0
    4.3244   10.2242   -7.4845 C   0  0  0  0  0  0  0  0  0  0  0  0
    4.4215    9.5329   -5.9514 S   0  0  0  0  0  0  0  0  0  0  0  0
    3.1923    9.3070    7.0188 H   0  0  0  0  0  0  0  0  0  0  0  0
    2.6697    7.4853    8.7883 H   0  0  0  0  0  0  0  0  0  0  0  0
    1.3644    3.9382    9.6092 H   0  0  0  0  0  0  0  0  0  0  0  0
    2.4015    5.3754    9.6121 H   0  0  0  0  0  0  0  0  0  0  0  0
    0.4144    6.8089   10.2529 H   0  0  0  0  0  0  0  0  0  0  0  0
   -0.6252    5.3280   10.2514 H   0  0  0  0  0  0  0  0  0  0  0  0
    0.7232    5.4868   11.4429 H   0  0  0  0  0  0  0  0  0  0  0  0
    0.6306    6.5982    3.2938 H   0  0  0  0  0  0  0  0  0  0  0  0
   -0.3157    5.0998    3.2678 H   0  0  0  0  0  0  0  0  0  0  0  0
   -2.3102    6.3543    4.2124 H   0  0  0  0  0  0  0  0  0  0  0  0
   -1.3245    7.8749    4.1866 H   0  0  0  0  0  0  0  0  0  0  0  0
   -1.7296    7.0297    2.6430 H   0  0  0  0  0  0  0  0  0  0  0  0
   -1.6870    3.7589    4.5225 H   0  0  0  0  0  0  0  0  0  0  0  0
   -1.8762    0.3643    7.9365 H   0  0  0  0  0  0  0  0  0  0  0  0
   -2.5995   -1.5447    8.9771 H   0  0  0  0  0  0  0  0  0  0  0  0
   -3.1299   -3.2102    8.6770 H   0  0  0  0  0  0  0  0  0  0  0  0
   -0.6265   -1.8859    7.4326 H   0  0  0  0  0  0  0  0  0  0  0  0
   -0.6511   -3.0874    8.7791 H   0  0  0  0  0  0  0  0  0  0  0  0
   -1.1805   -3.5827    7.1243 H   0  0  0  0  0  0  0  0  0  0  0  0
   -4.8982   -1.4909    2.3561 H   0  0  0  0  0  0  0  0  0  0  0  0
   -4.6871    0.2184    2.7559 H   0  0  0  0  0  0  0  0  0  0  0  0
   -6.8846    0.2634    3.9517 H   0  0  0  0  0  0  0  0  0  0  0  0
   -7.0532   -0.2637    2.2314 H   0  0  0  0  0  0  0  0  0  0  0  0
   -7.1330   -1.4857    3.5554 H   0  0  0  0  0  0  0  0  0  0  0  0
   -5.5181   -3.4976    3.2328 H   0  0  0  0  0  0  0  0  0  0  0  0
   -0.2221   -7.0712    5.8988 H   0  0  0  0  0  0  0  0  0  0  0  0
    0.2024   -8.2987    4.6499 H   0  0  0  0  0  0  0  0  0  0  0  0
   -1.5875   -8.8135    7.1196 H   0  0  0  0  0  0  0  0  0  0  0  0
    0.1518   -9.2709    6.9656 H   0  0  0  0  0  0  0  0  0  0  0  0
   -1.0789  -10.0392    5.8863 H   0  0  0  0  0  0  0  0  0  0  0  0
   -4.8752   -7.6350   -0.7524 H   0  0  0  0  0  0  0  0  0  0  0  0
   -4.9456   -6.4625   -2.7011 H   0  0  0  0  0  0  0  0  0  0  0  0
   -4.2007   -6.3897   -4.3095 H   0  0  0  0  0  0  0  0  0  0  0  0
   -4.3502   -8.9021   -4.5184 H   0  0  0  0  0  0  0  0  0  0  0  0
   -5.2336   -8.9454   -2.9369 H   0  0  0  0  0  0  0  0  0  0  0  0
   -5.9473   -8.0816   -4.3499 H   0  0  0  0  0  0  0  0  0  0  0  0
    0.8700   -8.4858    0.0607 H   0  0  0  0  0  0  0  0  0  0  0  0
    1.6484   -7.3711   -1.0738 H   0  0  0  0  0  0  0  0  0  0  0  0
    2.5640   -9.6847   -1.2575 H   0  0  0  0  0  0  0  0  0  0  0  0
    0.9200  -10.3281   -1.6351 H   0  0  0  0  0  0  0  0  0  0  0  0
    1.7507   -9.2158   -2.7999 H   0  0  0  0  0  0  0  0  0  0  0  0
    1.5736   -6.5319   -3.1852 H   0  0  0  0  0  0  0  0  0  0  0  0
    1.9775   -4.0443   -3.4177 H   0  0  0  0  0  0  0  0  0  0  0  0
    3.4111   -0.5300   -2.7185 H   0  0  0  0  0  0  0  0  0  0  0  0
    2.5953   -2.0746   -2.4206 H   0  0  0  0  0  0  0  0  0  0  0  0
    4.4860   -3.3221   -3.4654 H   0  0  0  0  0  0  0  0  0  0  0  0
    5.0972   -2.2130   -2.1842 H   0  0  0  0  0  0  0  0  0  0  0  0
    5.2817   -1.7635   -3.9243 H   0  0  0  0  0  0  0  0  0  0  0  0
   -0.0855   -1.9528   -8.5424 H   0  0  0  0  0  0  0  0  0  0  0  0
    0.3532   -0.2404   -8.6562 H   0  0  0  0  0  0  0  0  0  0  0  0
    1.2781   -1.5228  -10.5718 H   0  0  0  0  0  0  0  0  0  0  0  0
    2.1528   -2.6297   -9.4433 H   0  0  0  0  0  0  0  0  0  0  0  0
    2.6328   -0.8884   -9.5577 H   0  0  0  0  0  0  0  0  0  0  0  0
    1.9817    1.2852   -8.1612 H   0  0  0  0  0  0  0  0  0  0  0  0
    3.7369    4.1110   -4.6991 H   0  0  0  0  0  0  0  0  0  0  0  0
    3.9034    7.8576   -3.7683 H   0  0  0  0  0  0  0  0  0  0  0  0
    3.5176    6.1333   -3.6520 H   0  0  0  0  0  0  0  0  0  0  0  0
    5.7440    6.6267   -2.6622 H   0  0  0  0  0  0  0  0  0  0  0  0
    5.9353    5.5550   -4.1025 H   0  0  0  0  0  0  0  0  0  0  0  0
    6.3145    7.3206   -4.2290 H   0  0  0  0  0  0  0  0  0  0  0  0
    4.0592    7.4092  -10.5372 H   0  0  0  0  0  0  0  0  0  0  0  0
    3.6459    5.6905  -10.4147 H   0  0  0  0  0  0  0  0  0  0  0  0
    1.6785    8.0308   -9.9745 H   0  0  0  0  0  0  0  0  0  0  0  0
    1.7750    6.9587  -11.4216 H   0  0  0  0  0  0  0  0  0  0  0  0
    1.2692    6.2733   -9.8290 H   0  0  0  0  0  0  0  0  0  0  0  0
    3.9354    9.4338   -9.4697 H   0  0  0  0  0  0  0  0  0  0  0  0
    4.4542   11.2730   -7.7142 H   0  0  0  0  0  0  0  0  0  0  0  0
  1  2  2  0
  2  3  1  0
  3  4  2  0
  4  5  1  0
  5  6  1  0
  4  7  1  0
  7  8  2  0
  8  9  1  0
  9 10  1  0
 10 11  1  0
  9 12  2  0
 12 13  1  0
  8 14  1  0
 14 15  2  0
 15 16  1  0
 15 17  1  0
 17 18  2  0
 18 19  1  0
 19 20  2  0
 20 21  1  0
 21 22  1  0
 20 23  1  0
 23 24  2  0
 24 25  1  0
 25 26  1  0
 26 27  1  0
 25 28  2  0
 28 29  1  0
 24 30  1  0
 30 31  2  0
 31 32  1  0
 31 33  1  0
 33 34  1  0
 34 35  2  0
 35 36  1  0
 36 37  1  0
 37 38  1  0
 36 39  1  0
 39 40  2  0
 40 41  1  0
 41 42  2  0
 42 43  1  0
 43 44  1  0
 42 45  1  0
 41 46  1  0
 46 47  2  0
 47 48  1  0
 48 49  2  0
 49 50  1  0
 50 51  1  0
 49 52  1  0
 52 53  2  0
 53 54  1  0
 54 55  1  0
 55 56  1  0
 54 57  2  0
 57 58  1  0
 53 59  1  0
 59 60  2  0
 60 61  1  0
 60 62  1  0
 62 63  2  0
 63 64  1  0
 64 65  2  0
 65 66  1  0
 66 67  1  0
 65 68  1  0
 68 69  2  0
 69 70  1  0
 70 71  1  0
 71 72  1  0
 70 73  2  0
 73 74  1  0
 69 75  1  0
 75 76  2  0
 76 77  1  0
 76 78  1  0
 78 79  2  0
 79 80  1  0
 80 81  2  0
 81 82  1  0
 82 83  1  0
 81 84  1  0
 84 85  2  0
 85 86  1  0
 86 87  1  0
 87 88  1  0
 86 89  2  0
 89 90  1  0
 85 91  1  0
 91 92  2  0
 92 93  1  0
 13  1  1  0
 29 17  1  0
 43 33  2  0
 58 46  1  0
 74 62  1  0
 90 78  1  0
 12  3  1  0
 28 19  1  0
 40 34  1  0
 57 48  1  0
 73 64  1  0
 89 80  1  0
 16  7  1  0
 32 23  1  0
 61 52  1  0
 77 68  1  0
 93 84  1  0
  1 94  1  0
  2 95  1  0
  5 96  1  0
  5 97  1  0
  6 98  1  0
  6 99  1  0
  6100  1  0
 10101  1  0
 10102  1  0
 11103  1  0
 11104  1  0
 11105  1  0
 14106  1  0
 18107  1  0
 21108  1  0
 21109  1  0
 22110  1  0
 22111  1  0
 22112  1  0
 26113  1  0
 26114  1  0
 27115  1  0
 27116  1  0
 27117  1  0
 30118  1  0
 37119  1  0
 37120  1  0
 38121  1  0
 38122  1  0
 38123  1  0
 47124  1  0
 50125  1  0
 50126  1  0
 51127  1  0
 51128  1  0
 51129  1  0
 55130  1  0
 55131  1  0
 56132  1  0
 56133  1  0
 56134  1  0
 59135  1  0
 63136  1  0
 66137  1  0
 66138  1  0
 67139  1  0
 67140  1  0
 67141  1  0
 71142  1  0
 71143  1  0
 72144  1  0
 72145  1  0
 72146  1  0
 75147  1  0
 79148  1  0
 82149  1  0
 82150  1  0
 83151  1  0
 83152  1  0
 83153  1  0
 87154  1  0
 87155  1  0
 88156  1  0
 88157  1  0
 88158  1  0
 91159  1  0
 92160  1  0
M  END

