
     RDKit          3D

108119  0  0  0  0  0  0  0  0999 V2000
   -2.0944   -4.4758   -3.0792 C   0  0  0  0  0  0  0  0  0  0  0  0
   -1.8898   -5.2316   -1.5916 S   0  0  0  0  0  0  0  0  0  0  0  0
   -0.5640   -6.1777   -2.0345 C   0  0  0  0  0  0  0  0  0  0  0  0
   -0.2940   -5.9494   -3.3849 C   0  0  0  0  0  0  0  0  0  0  0  0
   -1.1282   -4.9656   -3.9515 C   0  0  0  0  0  0  0  0  0  0  0  0
   -1.0532   -4.5622   -5.3985 C   0  0  0  0  0  0  0  0  0  0  0  0
    0.2786   -4.9853   -6.0414 C   0  0  0  0  0  0  0  0  0  0  0  0
    0.6297   -6.4370   -5.6683 C   0  0  1  0  0  0  0  0  0  0  0  0
    1.8122   -6.8824   -6.4034 N   0  0  0  0  0  4  0  0  0  0  0  0
    1.6700   -7.7532   -7.4593 O   0  0  0  0  0  1  0  0  0  0  0  0
    2.9337   -6.3808   -6.1747 O   0  0  0  0  0  0  0  0  0  0  0  0
    0.8499   -6.5680   -4.1483 C   0  0  0  0  0  0  0  0  0  0  0  0
    0.1573   -7.1084   -1.1448 C   0  0  0  0  0  0  0  0  0  0  0  0
    0.7513   -6.7035    0.0091 C   0  0  0  0  0  0  0  0  0  0  0  0
    1.5546   -7.5749    0.7635 O   0  0  0  0  0  0  0  0  0  0  0  0
    2.1139   -8.7274    0.2133 C   0  0  0  0  0  0  0  0  0  0  0  0
    3.2644   -9.3295    0.6978 C   0  0  0  0  0  0  0  0  0  0  0  0
    3.6349  -10.5969   -0.3492 S   0  0  0  0  0  0  0  0  0  0  0  0
    2.3333  -10.3955   -1.4005 C   0  0  0  0  0  0  0  0  0  0  0  0
    1.5927   -9.3217   -0.9298 C   0  0  0  0  0  0  0  0  0  0  0  0
   -0.0220   -8.8666   -1.5240 S   0  0  0  0  0  0  0  0  0  0  0  0
    0.6418   -5.3207    0.5121 C   0  0  0  0  0  0  0  0  0  0  0  0
    1.0488   -3.9299   -0.3267 S   0  0  0  0  0  0  0  0  0  0  0  0
    0.6599   -2.8105    0.8759 C   0  0  0  0  0  0  0  0  0  0  0  0
    0.2444   -3.5519    2.0060 C   0  0  0  0  0  0  0  0  0  0  0  0
    0.2101   -4.9470    1.7796 C   0  0  0  0  0  0  0  0  0  0  0  0
   -0.2477   -5.9390    2.8130 C   0  0  0  0  0  0  0  0  0  0  0  0
   -1.1107   -5.2739    3.8893 C   0  0  0  0  0  0  0  0  0  0  0  0
   -0.4580   -3.9921    4.4304 C   0  0  1  0  0  0  0  0  0  0  0  0
    0.7888   -4.2974    5.1415 N   0  0  0  0  0  4  0  0  0  0  0  0
    0.7405   -4.6213    6.4771 O   0  0  0  0  0  1  0  0  0  0  0  0
    1.8662   -4.4299    4.5227 O   0  0  0  0  0  0  0  0  0  0  0  0
   -0.2353   -2.9521    3.3101 C   0  0  0  0  0  0  0  0  0  0  0  0
    0.6487   -1.3242    0.6908 C   0  0  0  0  0  0  0  0  0  0  0  0
    0.2224   -0.2121    1.8790 S   0  0  0  0  0  0  0  0  0  0  0  0
    0.2560    1.1795    0.9561 C   0  0  0  0  0  0  0  0  0  0  0  0
    0.6116    0.8065   -0.3431 C   0  0  0  0  0  0  0  0  0  0  0  0
    0.8620   -0.5805   -0.4923 C   0  0  0  0  0  0  0  0  0  0  0  0
    1.1956   -1.1903   -1.8364 C   0  0  0  0  0  0  0  0  0  0  0  0
    1.4734   -0.1536   -2.9380 C   0  0  0  0  0  0  0  0  0  0  0  0
    0.5731    1.0888   -2.8548 C   0  0  1  0  0  0  0  0  0  0  0  0
   -0.8291    0.7705   -3.1503 N   0  0  0  0  0  4  0  0  0  0  0  0
   -1.5064    1.5238   -4.0806 O   0  0  0  0  0  1  0  0  0  0  0  0
   -1.4785   -0.0030   -2.4169 O   0  0  0  0  0  0  0  0  0  0  0  0
    0.7134    1.7784   -1.4898 C   0  0  0  0  0  0  0  0  0  0  0  0
   -0.0297    2.5404    1.4598 C   0  0  0  0  0  0  0  0  0  0  0  0
    0.8154    3.9249    1.0014 S   0  0  0  0  0  0  0  0  0  0  0  0
   -0.0695    5.0119    1.9244 C   0  0  0  0  0  0  0  0  0  0  0  0
   -1.0677    4.3106    2.5976 C   0  0  0  0  0  0  0  0  0  0  0  0
   -1.0291    2.9191    2.3704 C   0  0  0  0  0  0  0  0  0  0  0  0
   -2.0893    1.9877    2.9125 C   0  0  0  0  0  0  0  0  0  0  0  0
   -2.9851    2.6529    3.9721 C   0  0  0  0  0  0  0  0  0  0  0  0
   -3.3726    4.0804    3.5602 C   0  0  1  0  0  0  0  0  0  0  0  0
   -4.3515    4.6306    4.5015 N   0  0  0  0  0  4  0  0  0  0  0  0
   -5.6824    4.3245    4.3421 O   0  0  0  0  0  1  0  0  0  0  0  0
   -3.9889    5.2719    5.5128 O   0  0  0  0  0  0  0  0  0  0  0  0
   -2.1115    4.9614    3.4684 C   0  0  0  0  0  0  0  0  0  0  0  0
    0.1663    6.4611    1.9750 C   0  0  0  0  0  0  0  0  0  0  0  0
    0.3511    7.3546    3.3898 S   0  0  0  0  0  0  0  0  0  0  0  0
    0.5286    8.8552    2.6497 C   0  0  0  0  0  0  0  0  0  0  0  0
    0.4485    8.6721    1.2713 C   0  0  0  0  0  0  0  0  0  0  0  0
    0.2219    7.3362    0.8908 C   0  0  0  0  0  0  0  0  0  0  0  0
    0.0563    6.9222   -0.5488 C   0  0  0  0  0  0  0  0  0  0  0  0
   -0.3182    8.1161   -1.4442 C   0  0  0  0  0  0  0  0  0  0  0  0
    0.5825    9.3307   -1.1490 C   0  0  1  0  0  0  0  0  0  0  0  0
    0.3031   10.4087   -2.1013 N   0  0  0  0  0  4  0  0  0  0  0  0
    1.1086   10.5600   -3.2072 O   0  0  0  0  0  1  0  0  0  0  0  0
   -0.7567   11.0624   -2.0323 O   0  0  0  0  0  0  0  0  0  0  0  0
    0.3791    9.8141    0.3016 C   0  0  0  0  0  0  0  0  0  0  0  0
   -2.8492   -3.7384   -3.3183 H   0  0  0  0  0  0  0  0  0  0  0  0
   -1.1656   -3.4600   -5.4877 H   0  0  0  0  0  0  0  0  0  0  0  0
   -1.8936   -5.0451   -5.9437 H   0  0  0  0  0  0  0  0  0  0  0  0
    0.1999   -4.8885   -7.1458 H   0  0  0  0  0  0  0  0  0  0  0  0
    1.0894   -4.3059   -5.6963 H   0  0  0  0  0  0  0  0  0  0  0  0
   -0.2280   -7.0878   -5.9518 H   0  0  0  0  0  0  0  0  0  0  0  0
    0.9494   -7.6424   -3.8940 H   0  0  0  0  0  0  0  0  0  0  0  0
    1.7859   -6.0493   -3.8506 H   0  0  0  0  0  0  0  0  0  0  0  0
    3.8366   -9.0174    1.5620 H   0  0  0  0  0  0  0  0  0  0  0  0
    2.0851  -11.0257   -2.2435 H   0  0  0  0  0  0  0  0  0  0  0  0
    0.6398   -6.4138    3.2807 H   0  0  0  0  0  0  0  0  0  0  0  0
   -0.8473   -6.7385    2.3266 H   0  0  0  0  0  0  0  0  0  0  0  0
   -2.1060   -5.0250    3.4577 H   0  0  0  0  0  0  0  0  0  0  0  0
   -1.2772   -5.9910    4.7215 H   0  0  0  0  0  0  0  0  0  0  0  0
   -1.1659   -3.5398    5.1600 H   0  0  0  0  0  0  0  0  0  0  0  0
   -1.1990   -2.4344    3.1132 H   0  0  0  0  0  0  0  0  0  0  0  0
    0.5019   -2.2082    3.6772 H   0  0  0  0  0  0  0  0  0  0  0  0
    0.3491   -1.8367   -2.1553 H   0  0  0  0  0  0  0  0  0  0  0  0
    2.1030   -1.8214   -1.7360 H   0  0  0  0  0  0  0  0  0  0  0  0
    1.3483   -0.6324   -3.9339 H   0  0  0  0  0  0  0  0  0  0  0  0
    2.5341    0.1738   -2.8662 H   0  0  0  0  0  0  0  0  0  0  0  0
    0.9300    1.8069   -3.6280 H   0  0  0  0  0  0  0  0  0  0  0  0
   -0.0715    2.5610   -1.4062 H   0  0  0  0  0  0  0  0  0  0  0  0
    1.7043    2.2788   -1.4378 H   0  0  0  0  0  0  0  0  0  0  0  0
   -2.7210    1.6418    2.0674 H   0  0  0  0  0  0  0  0  0  0  0  0
   -1.6169    1.1061    3.3857 H   0  0  0  0  0  0  0  0  0  0  0  0
   -3.9026    2.0396    4.1017 H   0  0  0  0  0  0  0  0  0  0  0  0
   -2.4500    2.6802    4.9477 H   0  0  0  0  0  0  0  0  0  0  0  0
   -3.8433    4.0445    2.5511 H   0  0  0  0  0  0  0  0  0  0  0  0
   -1.6702    5.1178    4.4759 H   0  0  0  0  0  0  0  0  0  0  0  0
   -2.3956    5.9527    3.0496 H   0  0  0  0  0  0  0  0  0  0  0  0
    0.6452    9.8028    3.1570 H   0  0  0  0  0  0  0  0  0  0  0  0
    1.0118    6.4793   -0.9042 H   0  0  0  0  0  0  0  0  0  0  0  0
   -0.7374    6.1465   -0.6309 H   0  0  0  0  0  0  0  0  0  0  0  0
   -0.2140    7.8158   -2.5094 H   0  0  0  0  0  0  0  0  0  0  0  0
   -1.3830    8.3869   -1.2694 H   0  0  0  0  0  0  0  0  0  0  0  0
    1.6453    9.0209   -1.2638 H   0  0  0  0  0  0  0  0  0  0  0  0
    1.1433   10.5771    0.5532 H   0  0  0  0  0  0  0  0  0  0  0  0
   -0.6259   10.2730    0.4005 H   0  0  0  0  0  0  0  0  0  0  0  0
  1  2  1  0
  2  3  1  0
  3  4  2  0
  4  5  1  0
  5  6  1  0
  6  7  1  0
  7  8  1  0
  8  9  1  0
  9 10  1  0
  9 11  2  0
  8 12  1  0
  3 13  1  0
 13 14  2  0
 14 15  1  0
 15 16  1  0
 16 17  2  0
 17 18  1  0
 18 19  1  0
 19 20  2  0
 20 21  1  0
 14 22  1  0
 22 23  1  0
 23 24  1  0
 24 25  2  0
 25 26  1  0
 26 27  1  0
 27 28  1  0
 28 29  1  0
 29 30  1  0
 30 31  1  0
 30 32  2  0
 29 33  1  0
 24 34  1  0
 34 35  1  0
 35 36  1  0
 36 37  2  0
 37 38  1  0
 38 39  1  0
 39 40  1  0
 40 41  1  0
 41 42  1  0
 42 43  1  0
 42 44  2  0
 41 45  1  0
 36 46  1  0
 46 47  1  0
 47 48  1  0
 48 49  2  0
 49 50  1  0
 50 51  1  0
 51 52  1  0
 52 53  1  0
 53 54  1  0
 54 55  1  0
 54 56  2  0
 53 57  1  0
 48 58  1  0
 58 59  1  0
 59 60  1  0
 60 61  2  0
 61 62  1  0
 62 63  1  0
 63 64  1  0
 64 65  1  0
 65 66  1  0
 66 67  1  0
 66 68  2  0
 65 69  1  0
  5  1  2  0
 21 13  1  0
 26 22  2  0
 38 34  2  0
 50 46  2  0
 62 58  2  0
 12  4  1  0
 20 16  1  0
 33 25  1  0
 45 37  1  0
 57 49  1  0
 69 61  1  0
  1 70  1  0
  6 71  1  0
  6 72  1  0
  7 73  1  0
  7 74  1  0
  8 75  1  6
 12 76  1  0
 12 77  1  0
 17 78  1  0
 19 79  1  0
 27 80  1  0
 27 81  1  0
 28 82  1  0
 28 83  1  0
 29 84  1  1
 33 85  1  0
 33 86  1  0
 39 87  1  0
 39 88  1  0
 40 89  1  0
 40 90  1  0
 41 91  1  6
 45 92  1  0
 45 93  1  0
 51 94  1  0
 51 95  1  0
 52 96  1  0
 52 97  1  0
 53 98  1  6
 57 99  1  0
 57100  1  0
 60101  1  0
 63102  1  0
 63103  1  0
 64104  1  0
 64105  1  0
 65106  1  1
 69107  1  0
 69108  1  0
M  CHG  8   9   1  10  -1  30   1  31  -1  42   1  43  -1  54   1  55  -1
M  CHG  2  66   1  67  -1
M  END

