
     RDKit          3D

266296  0  0  0  0  0  0  0  0999 V2000
   -3.1348   -4.1456   10.3834 C   0  0  0  0  0  0  0  0  0  0  0  0
   -2.7348   -2.8552   10.0520 C   0  0  0  0  0  0  0  0  0  0  0  0
   -3.4466   -2.3145    8.9688 C   0  0  0  0  0  0  0  0  0  0  0  0
   -3.2717   -1.0330    8.4048 C   0  0  0  0  0  0  0  0  0  0  0  0
   -2.1952   -0.1239    8.8511 C   0  0  0  0  0  0  0  0  0  0  0  0
   -0.5511   -0.4848    8.7918 S   0  0  0  0  0  0  0  0  0  0  0  0
   -0.0209    0.9823    9.4191 C   0  0  0  0  0  0  0  0  0  0  0  0
    1.4176    1.3407    9.6471 C   0  0  0  0  0  0  0  0  0  0  0  0
    1.9997    2.0609    8.4383 C   0  0  0  0  0  0  0  0  0  0  0  0
   -1.1299    1.7938    9.6553 C   0  0  0  0  0  0  0  0  0  0  0  0
   -1.0160    3.4311   10.2834 Cl  0  0  0  0  0  0  0  0  0  0  0  0
   -2.3492    1.1689    9.3472 C   0  0  0  0  0  0  0  0  0  0  0  0
   -3.9116    1.9231    9.6341 Cl  0  0  0  0  0  0  0  0  0  0  0  0
   -4.1223   -0.6890    7.3384 C   0  0  0  0  0  0  0  0  0  0  0  0
   -5.0844   -1.5677    6.8266 C   0  0  0  0  0  0  0  0  0  0  0  0
   -5.2582   -2.8501    7.3887 C   0  0  0  0  0  0  0  0  0  0  0  0
   -6.2459   -3.8039    6.8534 C   0  0  0  0  0  0  0  0  0  0  0  0
   -5.8607   -5.2343    6.0536 S   0  0  0  0  0  0  0  0  0  0  0  0
   -7.4406   -5.6440    5.6455 C   0  0  0  0  0  0  0  0  0  0  0  0
   -7.8195   -6.8111    4.7819 C   0  0  0  0  0  0  0  0  0  0  0  0
   -7.7461   -6.4334    3.3081 C   0  0  0  0  0  0  0  0  0  0  0  0
   -8.2961   -4.6448    6.1123 C   0  0  0  0  0  0  0  0  0  0  0  0
   -7.6286   -3.6211    6.8001 C   0  0  0  0  0  0  0  0  0  0  0  0
   -8.4490   -2.2438    7.5201 Cl  0  0  0  0  0  0  0  0  0  0  0  0
  -10.0337   -4.6477    5.8434 Cl  0  0  0  0  0  0  0  0  0  0  0  0
   -4.4161   -3.1894    8.4624 C   0  0  0  0  0  0  0  0  0  0  0  0
   -4.3756   -4.6202    9.3439 S   0  0  0  0  0  0  0  0  0  0  0  0
   -5.7534   -1.0622    5.7035 C   0  0  0  0  0  0  0  0  0  0  0  0
   -5.3298    0.2161    5.3490 C   0  0  0  0  0  0  0  0  0  0  0  0
   -4.0983    0.7026    6.3949 S   0  0  0  0  0  0  0  0  0  0  0  0
   -5.6955    0.9128    4.1095 C   0  0  0  0  0  0  0  0  0  0  0  0
   -5.2429    2.1794    3.7418 C   0  0  0  0  0  0  0  0  0  0  0  0
   -5.4688    2.4673    2.3854 C   0  0  0  0  0  0  0  0  0  0  0  0
   -5.0007    3.5960    1.6798 C   0  0  0  0  0  0  0  0  0  0  0  0
   -4.2907    4.7055    2.3461 C   0  0  0  0  0  0  0  0  0  0  0  0
   -4.8599    6.2837    2.4054 S   0  0  0  0  0  0  0  0  0  0  0  0
   -3.5465    6.9164    3.2456 C   0  0  0  0  0  0  0  0  0  0  0  0
   -3.4406    8.3391    3.7046 C   0  0  0  0  0  0  0  0  0  0  0  0
   -4.0620    8.5083    5.0853 C   0  0  0  0  0  0  0  0  0  0  0  0
   -2.6478    5.8856    3.5107 C   0  0  0  0  0  0  0  0  0  0  0  0
   -1.1448    6.1088    4.3942 Cl  0  0  0  0  0  0  0  0  0  0  0  0
   -3.0599    4.6478    2.9946 C   0  0  0  0  0  0  0  0  0  0  0  0
   -2.0859    3.1975    3.1084 Cl  0  0  0  0  0  0  0  0  0  0  0  0
   -5.1984    3.6003    0.2891 C   0  0  0  0  0  0  0  0  0  0  0  0
   -5.8465    2.5621   -0.3847 C   0  0  0  0  0  0  0  0  0  0  0  0
   -6.3497    1.4524    0.3230 C   0  0  0  0  0  0  0  0  0  0  0  0
   -6.9260    0.2822   -0.3624 C   0  0  0  0  0  0  0  0  0  0  0  0
   -8.5154   -0.2347   -0.2039 S   0  0  0  0  0  0  0  0  0  0  0  0
   -8.3566   -1.5974   -1.1797 C   0  0  0  0  0  0  0  0  0  0  0  0
   -9.4465   -2.6005   -1.4163 C   0  0  0  0  0  0  0  0  0  0  0  0
   -9.4558   -3.6619   -0.3201 C   0  0  0  0  0  0  0  0  0  0  0  0
   -7.0340   -1.6830   -1.6156 C   0  0  0  0  0  0  0  0  0  0  0  0
   -6.2316   -0.6273   -1.1566 C   0  0  0  0  0  0  0  0  0  0  0  0
   -4.5091   -0.5143   -1.4729 Cl  0  0  0  0  0  0  0  0  0  0  0  0
   -6.4185   -2.9962   -2.6077 Cl  0  0  0  0  0  0  0  0  0  0  0  0
   -6.1387    1.4398    1.7111 C   0  0  0  0  0  0  0  0  0  0  0  0
   -6.4245    0.1723    2.7791 S   0  0  0  0  0  0  0  0  0  0  0  0
   -5.7864    2.6856   -1.7821 C   0  0  0  0  0  0  0  0  0  0  0  0
   -5.0302    3.7816   -2.2055 C   0  0  0  0  0  0  0  0  0  0  0  0
   -4.5005    4.6267   -0.8427 S   0  0  0  0  0  0  0  0  0  0  0  0
   -4.3664    3.8402   -3.5201 C   0  0  0  0  0  0  0  0  0  0  0  0
   -3.0282    4.2011   -3.6781 C   0  0  0  0  0  0  0  0  0  0  0  0
   -2.4154    3.5953   -4.7870 C   0  0  0  0  0  0  0  0  0  0  0  0
   -1.0281    3.5467   -5.0292 C   0  0  0  0  0  0  0  0  0  0  0  0
   -0.0772    4.3020   -4.1963 C   0  0  0  0  0  0  0  0  0  0  0  0
    0.1381    5.9686   -4.2750 S   0  0  0  0  0  0  0  0  0  0  0  0
    1.3073    6.0546   -3.0660 C   0  0  0  0  0  0  0  0  0  0  0  0
    2.0097    7.3116   -2.6506 C   0  0  0  0  0  0  0  0  0  0  0  0
    3.1959    7.5980   -3.5660 C   0  0  0  0  0  0  0  0  0  0  0  0
    1.5536    4.7659   -2.5917 C   0  0  0  0  0  0  0  0  0  0  0  0
    2.7160    4.4029   -1.3228 Cl  0  0  0  0  0  0  0  0  0  0  0  0
    0.7641    3.7834   -3.2117 C   0  0  0  0  0  0  0  0  0  0  0  0
    0.7863    2.0909   -2.7343 Cl  0  0  0  0  0  0  0  0  0  0  0  0
   -0.5863    2.6187   -5.9885 C   0  0  0  0  0  0  0  0  0  0  0  0
   -1.4638    1.7982   -6.7026 C   0  0  0  0  0  0  0  0  0  0  0  0
   -2.8558    1.9100   -6.5222 C   0  0  0  0  0  0  0  0  0  0  0  0
   -3.7910    0.9948   -7.1953 C   0  0  0  0  0  0  0  0  0  0  0  0
   -4.2791    1.1350   -8.7979 S   0  0  0  0  0  0  0  0  0  0  0  0
   -5.2632   -0.2301   -8.8029 C   0  0  0  0  0  0  0  0  0  0  0  0
   -6.0795   -0.6864   -9.9750 C   0  0  0  0  0  0  0  0  0  0  0  0
   -7.3979    0.0806  -10.0526 C   0  0  0  0  0  0  0  0  0  0  0  0
   -5.2308   -0.8111   -7.5345 C   0  0  0  0  0  0  0  0  0  0  0  0
   -4.3909   -0.1338   -6.6380 C   0  0  0  0  0  0  0  0  0  0  0  0
   -4.0706   -0.6990   -5.0050 Cl  0  0  0  0  0  0  0  0  0  0  0  0
   -6.1192   -2.2630   -7.1032 Cl  0  0  0  0  0  0  0  0  0  0  0  0
   -3.2973    2.8073   -5.5376 C   0  0  0  0  0  0  0  0  0  0  0  0
   -4.8111    2.8516   -4.8170 S   0  0  0  0  0  0  0  0  0  0  0  0
   -0.8170    0.7550   -7.3834 C   0  0  0  0  0  0  0  0  0  0  0  0
    0.5653    0.7350   -7.1846 C   0  0  0  0  0  0  0  0  0  0  0  0
    0.9770    2.0542   -6.2159 S   0  0  0  0  0  0  0  0  0  0  0  0
    1.3522   -0.5089   -7.1994 C   0  0  0  0  0  0  0  0  0  0  0  0
    2.7486   -0.6070   -7.0225 C   0  0  0  0  0  0  0  0  0  0  0  0
    3.6641    0.5006   -7.1653 N   0  0  0  0  0  0  0  0  0  0  0  0
    3.5763    1.3590   -8.3243 C   0  0  0  0  0  0  0  0  0  0  0  0
    3.2065    0.8320   -9.5776 C   0  0  0  0  0  0  0  0  0  0  0  0
    3.0845    1.6702  -10.6911 C   0  0  0  0  0  0  0  0  0  0  0  0
    3.3352    3.0389  -10.5665 C   0  0  0  0  0  0  0  0  0  0  0  0
    3.7077    3.5733   -9.3293 C   0  0  0  0  0  0  0  0  0  0  0  0
    3.8288    2.7398   -8.2131 C   0  0  0  0  0  0  0  0  0  0  0  0
    4.6742    0.7312   -6.1598 C   0  0  0  0  0  0  0  0  0  0  0  0
    4.3351    0.7269   -4.7930 C   0  0  0  0  0  0  0  0  0  0  0  0
    5.3246    0.9091   -3.8221 C   0  0  0  0  0  0  0  0  0  0  0  0
    6.6559    1.1014   -4.2047 C   0  0  0  0  0  0  0  0  0  0  0  0
    6.9990    1.1136   -5.5602 C   0  0  0  0  0  0  0  0  0  0  0  0
    6.0143    0.9321   -6.5350 C   0  0  0  0  0  0  0  0  0  0  0  0
    3.1127   -1.8810   -6.5634 C   0  0  0  0  0  0  0  0  0  0  0  0
    4.4867   -2.5058   -5.8376 S   0  0  0  0  0  0  0  0  0  0  0  0
    3.7274   -3.8912   -5.1872 C   0  0  0  0  0  0  0  0  0  0  0  0
    2.3669   -3.8595   -5.5807 C   0  0  0  0  0  0  0  0  0  0  0  0
    1.3288   -4.6916   -5.0311 N   0  0  0  0  0  0  0  0  0  0  0  0
    0.3376   -4.0903   -4.1646 C   0  0  0  0  0  0  0  0  0  0  0  0
    0.7195   -3.1311   -3.2033 C   0  0  0  0  0  0  0  0  0  0  0  0
   -0.2391   -2.5200   -2.3899 C   0  0  0  0  0  0  0  0  0  0  0  0
   -1.5881   -2.8542   -2.5299 C   0  0  0  0  0  0  0  0  0  0  0  0
   -1.9831   -3.7997   -3.4818 C   0  0  0  0  0  0  0  0  0  0  0  0
   -1.0273   -4.4137   -4.3001 C   0  0  0  0  0  0  0  0  0  0  0  0
    1.2770   -6.0941   -5.3845 C   0  0  0  0  0  0  0  0  0  0  0  0
    0.7982   -7.0524   -4.4668 C   0  0  0  0  0  0  0  0  0  0  0  0
    0.8062   -8.4126   -4.7912 C   0  0  0  0  0  0  0  0  0  0  0  0
    1.2840   -8.8314   -6.0343 C   0  0  0  0  0  0  0  0  0  0  0  0
    1.7560   -7.8938   -6.9551 C   0  0  0  0  0  0  0  0  0  0  0  0
    1.7576   -6.5345   -6.6333 C   0  0  0  0  0  0  0  0  0  0  0  0
    2.0814   -2.7369   -6.3562 C   0  0  0  0  0  0  0  0  0  0  0  0
    0.6427   -1.9935   -6.7600 S   0  0  0  0  0  0  0  0  0  0  0  0
    4.2739   -4.5962   -4.0019 C   0  0  0  0  0  0  0  0  0  0  0  0
    5.4191   -4.1725   -3.3168 C   0  0  0  0  0  0  0  0  0  0  0  0
    5.3951   -4.4603   -1.9395 C   0  0  0  0  0  0  0  0  0  0  0  0
    6.2298   -3.8613   -0.9772 C   0  0  0  0  0  0  0  0  0  0  0  0
    7.4707   -3.1551   -1.3695 C   0  0  0  0  0  0  0  0  0  0  0  0
    7.8337   -1.5443   -1.0440 S   0  0  0  0  0  0  0  0  0  0  0  0
    9.3346   -1.5372   -1.8059 C   0  0  0  0  0  0  0  0  0  0  0  0
   10.3018   -0.3934   -1.7702 C   0  0  0  0  0  0  0  0  0  0  0  0
   11.2582   -0.5413   -0.5903 C   0  0  0  0  0  0  0  0  0  0  0  0
    9.5808   -2.8090   -2.3165 C   0  0  0  0  0  0  0  0  0  0  0  0
   11.0772   -3.2572   -3.1254 Cl  0  0  0  0  0  0  0  0  0  0  0  0
    8.5325   -3.7129   -2.0847 C   0  0  0  0  0  0  0  0  0  0  0  0
    8.5981   -5.4021   -2.5669 Cl  0  0  0  0  0  0  0  0  0  0  0  0
    5.7585   -3.8617    0.3513 C   0  0  0  0  0  0  0  0  0  0  0  0
    4.5717   -4.5047    0.7295 C   0  0  0  0  0  0  0  0  0  0  0  0
    3.8171   -5.2348   -0.2164 C   0  0  0  0  0  0  0  0  0  0  0  0
    2.4895   -5.8109    0.0996 C   0  0  0  0  0  0  0  0  0  0  0  0
    1.1521   -4.9324    0.6286 S   0  0  0  0  0  0  0  0  0  0  0  0
    0.0630   -6.2160    0.5987 C   0  0  0  0  0  0  0  0  0  0  0  0
   -1.3850   -6.1128    0.9733 C   0  0  0  0  0  0  0  0  0  0  0  0
   -2.2362   -5.7886   -0.2485 C   0  0  0  0  0  0  0  0  0  0  0  0
    0.7225   -7.3443    0.1145 C   0  0  0  0  0  0  0  0  0  0  0  0
    2.0803   -7.1204   -0.1587 C   0  0  0  0  0  0  0  0  0  0  0  0
    3.1647   -8.3708   -0.7505 Cl  0  0  0  0  0  0  0  0  0  0  0  0
   -0.0713   -8.8926   -0.1420 Cl  0  0  0  0  0  0  0  0  0  0  0  0
    4.2584   -5.1733   -1.5474 C   0  0  0  0  0  0  0  0  0  0  0  0
    3.3152   -5.4368   -2.8998 S   0  0  0  0  0  0  0  0  0  0  0  0
    4.1461   -4.1631    2.0216 C   0  0  0  0  0  0  0  0  0  0  0  0
    4.9345   -3.1819    2.6259 C   0  0  0  0  0  0  0  0  0  0  0  0
    6.2417   -2.8539    1.6089 S   0  0  0  0  0  0  0  0  0  0  0  0
    4.3681   -2.1613    3.5180 C   0  0  0  0  0  0  0  0  0  0  0  0
    5.0756   -1.0912    4.0703 C   0  0  0  0  0  0  0  0  0  0  0  0
    4.2484   -0.0085    4.4280 C   0  0  0  0  0  0  0  0  0  0  0  0
    4.6708    1.2546    4.8966 C   0  0  0  0  0  0  0  0  0  0  0  0
    6.0963    1.5820    5.0783 C   0  0  0  0  0  0  0  0  0  0  0  0
    6.8053    2.0062    6.5416 S   0  0  0  0  0  0  0  0  0  0  0  0
    8.3457    2.2821    5.9170 C   0  0  0  0  0  0  0  0  0  0  0  0
    9.5018    2.8082    6.7114 C   0  0  0  0  0  0  0  0  0  0  0  0
    9.4480    4.3311    6.7944 C   0  0  0  0  0  0  0  0  0  0  0  0
    8.3127    2.0707    4.5381 C   0  0  0  0  0  0  0  0  0  0  0  0
    9.6960    2.3158    3.4832 Cl  0  0  0  0  0  0  0  0  0  0  0  0
    7.0515    1.6757    4.0682 C   0  0  0  0  0  0  0  0  0  0  0  0
    6.6979    1.4131    2.3671 Cl  0  0  0  0  0  0  0  0  0  0  0  0
    3.6733    2.2294    5.0870 C   0  0  0  0  0  0  0  0  0  0  0  0
    2.3288    2.0029    4.7732 C   0  0  0  0  0  0  0  0  0  0  0  0
    1.9123    0.7498    4.2909 C   0  0  0  0  0  0  0  0  0  0  0  0
    0.5931    0.5519    3.6752 C   0  0  0  0  0  0  0  0  0  0  0  0
   -0.6703   -0.3316    4.3460 S   0  0  0  0  0  0  0  0  0  0  0  0
   -1.6230   -0.3493    2.9556 C   0  0  0  0  0  0  0  0  0  0  0  0
   -2.9293   -1.0695    2.8259 C   0  0  0  0  0  0  0  0  0  0  0  0
   -2.7176   -2.5044    2.3637 C   0  0  0  0  0  0  0  0  0  0  0  0
   -0.9387    0.3087    1.9336 C   0  0  0  0  0  0  0  0  0  0  0  0
    0.3015    0.8127    2.3386 C   0  0  0  0  0  0  0  0  0  0  0  0
    1.4197    1.6216    1.2494 Cl  0  0  0  0  0  0  0  0  0  0  0  0
   -1.5555    0.4839    0.2961 Cl  0  0  0  0  0  0  0  0  0  0  0  0
    2.8956   -0.2413    4.1665 C   0  0  0  0  0  0  0  0  0  0  0  0
    2.7237   -1.7640    3.4884 S   0  0  0  0  0  0  0  0  0  0  0  0
    1.5163    3.1376    4.9499 C   0  0  0  0  0  0  0  0  0  0  0  0
    2.2213    4.2472    5.4061 C   0  0  0  0  0  0  0  0  0  0  0  0
    3.8484    3.8303    5.5704 S   0  0  0  0  0  0  0  0  0  0  0  0
   -2.7154   -4.7455   11.1795 H   0  0  0  0  0  0  0  0  0  0  0  0
   -1.9608   -2.3279   10.5914 H   0  0  0  0  0  0  0  0  0  0  0  0
    2.0040    0.4153    9.8351 H   0  0  0  0  0  0  0  0  0  0  0  0
    1.5060    1.9863   10.5466 H   0  0  0  0  0  0  0  0  0  0  0  0
    1.4557    3.0111    8.2551 H   0  0  0  0  0  0  0  0  0  0  0  0
    1.9322    1.4154    7.5377 H   0  0  0  0  0  0  0  0  0  0  0  0
    3.0677    2.2979    8.6286 H   0  0  0  0  0  0  0  0  0  0  0  0
   -8.8493   -7.1535    5.0254 H   0  0  0  0  0  0  0  0  0  0  0  0
   -7.1243   -7.6556    4.9774 H   0  0  0  0  0  0  0  0  0  0  0  0
   -8.0228   -7.3101    2.6837 H   0  0  0  0  0  0  0  0  0  0  0  0
   -8.4447   -5.6007    3.0832 H   0  0  0  0  0  0  0  0  0  0  0  0
   -6.7123   -6.1219    3.0409 H   0  0  0  0  0  0  0  0  0  0  0  0
   -6.4799   -1.6256    5.1338 H   0  0  0  0  0  0  0  0  0  0  0  0
   -4.7052    2.8367    4.4164 H   0  0  0  0  0  0  0  0  0  0  0  0
   -2.3744    8.6509    3.7342 H   0  0  0  0  0  0  0  0  0  0  0  0
   -3.9723    8.9964    2.9831 H   0  0  0  0  0  0  0  0  0  0  0  0
   -3.9703    9.5672    5.4041 H   0  0  0  0  0  0  0  0  0  0  0  0
   -5.1409    8.2431    5.0551 H   0  0  0  0  0  0  0  0  0  0  0  0
   -3.5455    7.8631    5.8262 H   0  0  0  0  0  0  0  0  0  0  0  0
   -9.3071   -3.0890   -2.4050 H   0  0  0  0  0  0  0  0  0  0  0  0
  -10.4290   -2.0803   -1.4314 H   0  0  0  0  0  0  0  0  0  0  0  0
  -10.2945   -4.3707   -0.4991 H   0  0  0  0  0  0  0  0  0  0  0  0
   -9.5972   -3.1894    0.6758 H   0  0  0  0  0  0  0  0  0  0  0  0
   -8.5016   -4.2289   -0.3276 H   0  0  0  0  0  0  0  0  0  0  0  0
   -6.1580    1.9297   -2.4595 H   0  0  0  0  0  0  0  0  0  0  0  0
   -2.4722    4.7281   -2.9159 H   0  0  0  0  0  0  0  0  0  0  0  0
    1.2953    8.1632   -2.6883 H   0  0  0  0  0  0  0  0  0  0  0  0
    2.3683    7.2166   -1.6031 H   0  0  0  0  0  0  0  0  0  0  0  0
    2.8458    7.8116   -4.5961 H   0  0  0  0  0  0  0  0  0  0  0  0
    3.7452    8.4878   -3.1923 H   0  0  0  0  0  0  0  0  0  0  0  0
    3.8920    6.7335   -3.5837 H   0  0  0  0  0  0  0  0  0  0  0  0
   -6.2967   -1.7732   -9.8909 H   0  0  0  0  0  0  0  0  0  0  0  0
   -5.5045   -0.5279  -10.9118 H   0  0  0  0  0  0  0  0  0  0  0  0
   -7.2067    1.1628  -10.2235 H   0  0  0  0  0  0  0  0  0  0  0  0
   -8.0045   -0.3075  -10.8953 H   0  0  0  0  0  0  0  0  0  0  0  0
   -7.9734   -0.0424   -9.1115 H   0  0  0  0  0  0  0  0  0  0  0  0
   -1.3482   -0.0593   -7.8629 H   0  0  0  0  0  0  0  0  0  0  0  0
    3.0136   -0.2283   -9.6941 H   0  0  0  0  0  0  0  0  0  0  0  0
    2.7969    1.2567  -11.6479 H   0  0  0  0  0  0  0  0  0  0  0  0
    3.2313    3.6874  -11.4251 H   0  0  0  0  0  0  0  0  0  0  0  0
    3.8961    4.6358   -9.2339 H   0  0  0  0  0  0  0  0  0  0  0  0
    4.0944    3.1750   -7.2589 H   0  0  0  0  0  0  0  0  0  0  0  0
    3.3087    0.5748   -4.4843 H   0  0  0  0  0  0  0  0  0  0  0  0
    5.0612    0.8997   -2.7704 H   0  0  0  0  0  0  0  0  0  0  0  0
    7.4228    1.2357   -3.4508 H   0  0  0  0  0  0  0  0  0  0  0  0
    8.0316    1.2583   -5.8554 H   0  0  0  0  0  0  0  0  0  0  0  0
    6.2956    0.9281   -7.5815 H   0  0  0  0  0  0  0  0  0  0  0  0
    1.7603   -2.8602   -3.0803 H   0  0  0  0  0  0  0  0  0  0  0  0
    0.0629   -1.7856   -1.6506 H   0  0  0  0  0  0  0  0  0  0  0  0
   -2.3256   -2.3917   -1.8890 H   0  0  0  0  0  0  0  0  0  0  0  0
   -3.0299   -4.0541   -3.5844 H   0  0  0  0  0  0  0  0  0  0  0  0
   -1.3509   -5.1298   -5.0443 H   0  0  0  0  0  0  0  0  0  0  0  0
    0.4466   -6.7488   -3.4876 H   0  0  0  0  0  0  0  0  0  0  0  0
    0.4512   -9.1407   -4.0726 H   0  0  0  0  0  0  0  0  0  0  0  0
    1.2907   -9.8825   -6.2846 H   0  0  0  0  0  0  0  0  0  0  0  0
    2.1308   -8.2179   -7.9180 H   0  0  0  0  0  0  0  0  0  0  0  0
    2.1338   -5.8226   -7.3619 H   0  0  0  0  0  0  0  0  0  0  0  0
    6.1454   -3.5037   -3.7594 H   0  0  0  0  0  0  0  0  0  0  0  0
   10.8757   -0.3598   -2.7213 H   0  0  0  0  0  0  0  0  0  0  0  0
    9.7417    0.5629   -1.6751 H   0  0  0  0  0  0  0  0  0  0  0  0
   11.8497   -1.4780   -0.6852 H   0  0  0  0  0  0  0  0  0  0  0  0
   10.6935   -0.5629    0.3644 H   0  0  0  0  0  0  0  0  0  0  0  0
   11.9568    0.3196   -0.5662 H   0  0  0  0  0  0  0  0  0  0  0  0
   -1.7305   -7.0649    1.4334 H   0  0  0  0  0  0  0  0  0  0  0  0
   -1.5128   -5.3113    1.7312 H   0  0  0  0  0  0  0  0  0  0  0  0
   -3.3009   -5.6762    0.0577 H   0  0  0  0  0  0  0  0  0  0  0  0
   -1.8984   -4.8351   -0.6943 H   0  0  0  0  0  0  0  0  0  0  0  0
   -2.1591   -6.6032   -1.0025 H   0  0  0  0  0  0  0  0  0  0  0  0
    3.2046   -4.4860    2.4460 H   0  0  0  0  0  0  0  0  0  0  0  0
    6.1556   -1.0656    4.1219 H   0  0  0  0  0  0  0  0  0  0  0  0
    9.4684    2.3840    7.7389 H   0  0  0  0  0  0  0  0  0  0  0  0
   10.4597    2.4905    6.2479 H   0  0  0  0  0  0  0  0  0  0  0  0
    9.4961    4.7745    5.7759 H   0  0  0  0  0  0  0  0  0  0  0  0
   10.3077    4.7035    7.3903 H   0  0  0  0  0  0  0  0  0  0  0  0
    8.5073    4.6572    7.2894 H   0  0  0  0  0  0  0  0  0  0  0  0
   -3.5825   -0.5325    2.1027 H   0  0  0  0  0  0  0  0  0  0  0  0
   -3.4409   -1.0801    3.8077 H   0  0  0  0  0  0  0  0  0  0  0  0
   -2.1399   -3.0686    3.1273 H   0  0  0  0  0  0  0  0  0  0  0  0
   -3.7050   -2.9992    2.2374 H   0  0  0  0  0  0  0  0  0  0  0  0
   -2.1739   -2.5316    1.3948 H   0  0  0  0  0  0  0  0  0  0  0  0
    0.4540    3.1578    4.7481 H   0  0  0  0  0  0  0  0  0  0  0  0
    1.7935    5.2196    5.6069 H   0  0  0  0  0  0  0  0  0  0  0  0
  1  2  2  0
  2  3  1  0
  3  4  2  0
  4  5  1  0
  5  6  1  0
  6  7  1  0
  7  8  1  0
  8  9  1  0
  7 10  2  0
 10 11  1  0
 10 12  1  0
 12 13  1  0
  4 14  1  0
 14 15  2  0
 15 16  1  0
 16 17  1  0
 17 18  1  0
 18 19  1  0
 19 20  1  0
 20 21  1  0
 19 22  2  0
 22 23  1  0
 23 24  1  0
 22 25  1  0
 16 26  2  0
 26 27  1  0
 15 28  1  0
 28 29  2  0
 29 30  1  0
 29 31  1  0
 31 32  2  0
 32 33  1  0
 33 34  2  0
 34 35  1  0
 35 36  1  0
 36 37  1  0
 37 38  1  0
 38 39  1  0
 37 40  2  0
 40 41  1  0
 40 42  1  0
 42 43  1  0
 34 44  1  0
 44 45  2  0
 45 46  1  0
 46 47  1  0
 47 48  1  0
 48 49  1  0
 49 50  1  0
 50 51  1  0
 49 52  2  0
 52 53  1  0
 53 54  1  0
 52 55  1  0
 46 56  2  0
 56 57  1  0
 45 58  1  0
 58 59  2  0
 59 60  1  0
 59 61  1  0
 61 62  2  0
 62 63  1  0
 63 64  2  0
 64 65  1  0
 65 66  1  0
 66 67  1  0
 67 68  1  0
 68 69  1  0
 67 70  2  0
 70 71  1  0
 70 72  1  0
 72 73  1  0
 64 74  1  0
 74 75  2  0
 75 76  1  0
 76 77  1  0
 77 78  1  0
 78 79  1  0
 79 80  1  0
 80 81  1  0
 79 82  2  0
 82 83  1  0
 83 84  1  0
 82 85  1  0
 76 86  2  0
 86 87  1  0
 75 88  1  0
 88 89  2  0
 89 90  1  0
 89 91  1  0
 91 92  2  0
 92 93  1  0
 93 94  1  0
 94 95  2  0
 95 96  1  0
 96 97  2  0
 97 98  1  0
 98 99  2  0
 93100  1  0
100101  2  0
101102  1  0
102103  2  0
103104  1  0
104105  2  0
 92106  1  0
106107  1  0
107108  1  0
108109  2  0
109110  1  0
110111  1  0
111112  2  0
112113  1  0
113114  2  0
114115  1  0
115116  2  0
110117  1  0
117118  2  0
118119  1  0
119120  2  0
120121  1  0
121122  2  0
109123  1  0
123124  1  0
108125  1  0
125126  2  0
126127  1  0
127128  2  0
128129  1  0
129130  1  0
130131  1  0
131132  1  0
132133  1  0
131134  2  0
134135  1  0
134136  1  0
136137  1  0
128138  1  0
138139  2  0
139140  1  0
140141  1  0
141142  1  0
142143  1  0
143144  1  0
144145  1  0
143146  2  0
146147  1  0
147148  1  0
146149  1  0
140150  2  0
150151  1  0
139152  1  0
152153  2  0
153154  1  0
153155  1  0
155156  2  0
156157  1  0
157158  2  0
158159  1  0
159160  1  0
160161  1  0
161162  1  0
162163  1  0
161164  2  0
164165  1  0
164166  1  0
166167  1  0
158168  1  0
168169  2  0
169170  1  0
170171  1  0
171172  1  0
172173  1  0
173174  1  0
174175  1  0
173176  2  0
176177  1  0
177178  1  0
176179  1  0
170180  2  0
180181  1  0
169182  1  0
182183  2  0
183184  1  0
 27  1  1  0
 57 31  1  0
 87 61  1  0
124 91  1  0
151125  1  0
181155  1  0
 26  3  1  0
 56 33  1  0
 86 63  1  0
 99 94  1  0
105100  1  0
123106  2  0
150127  1  0
180157  1  0
 12  5  2  0
 30 14  1  0
 42 35  2  0
 60 44  1  0
 72 65  2  0
 90 74  1  0
116111  1  0
122117  1  0
136129  2  0
154138  1  0
166159  2  0
184168  1  0
 23 17  2  0
 53 47  2  0
 83 77  2  0
147141  2  0
177171  2  0
  1185  1  0
  2186  1  0
  8187  1  0
  8188  1  0
  9189  1  0
  9190  1  0
  9191  1  0
 20192  1  0
 20193  1  0
 21194  1  0
 21195  1  0
 21196  1  0
 28197  1  0
 32198  1  0
 38199  1  0
 38200  1  0
 39201  1  0
 39202  1  0
 39203  1  0
 50204  1  0
 50205  1  0
 51206  1  0
 51207  1  0
 51208  1  0
 58209  1  0
 62210  1  0
 68211  1  0
 68212  1  0
 69213  1  0
 69214  1  0
 69215  1  0
 80216  1  0
 80217  1  0
 81218  1  0
 81219  1  0
 81220  1  0
 88221  1  0
 95222  1  0
 96223  1  0
 97224  1  0
 98225  1  0
 99226  1  0
101227  1  0
102228  1  0
103229  1  0
104230  1  0
105231  1  0
112232  1  0
113233  1  0
114234  1  0
115235  1  0
116236  1  0
118237  1  0
119238  1  0
120239  1  0
121240  1  0
122241  1  0
126242  1  0
132243  1  0
132244  1  0
133245  1  0
133246  1  0
133247  1  0
144248  1  0
144249  1  0
145250  1  0
145251  1  0
145252  1  0
152253  1  0
156254  1  0
162255  1  0
162256  1  0
163257  1  0
163258  1  0
163259  1  0
174260  1  0
174261  1  0
175262  1  0
175263  1  0
175264  1  0
182265  1  0
183266  1  0
M  END

