
     RDKit          3D

278309  0  0  0  0  0  0  0  0999 V2000
   10.2510   -1.3214   10.2638 C   0  0  0  0  0  0  0  0  0  0  0  0
   11.1577   -0.3380    9.8786 C   0  0  0  0  0  0  0  0  0  0  0  0
   12.1224    0.2489   10.7812 N   0  0  0  0  0  0  0  0  0  0  0  0
   13.4346   -0.3502   10.7980 C   0  0  0  0  0  0  0  0  0  0  0  0
   14.3274   -0.1480    9.7326 C   0  0  0  0  0  0  0  0  0  0  0  0
   15.6340   -0.6586    9.7977 C   0  0  0  0  0  0  0  0  0  0  0  0
   16.0480   -1.3764   10.9285 C   0  0  0  0  0  0  0  0  0  0  0  0
   15.1669   -1.5730   11.9886 C   0  0  0  0  0  0  0  0  0  0  0  0
   13.8658   -1.0806   11.9254 C   0  0  0  0  0  0  0  0  0  0  0  0
   11.7029    1.0946   11.8980 C   0  0  0  0  0  0  0  0  0  0  0  0
   12.6691    1.7409   12.7101 C   0  0  0  0  0  0  0  0  0  0  0  0
   12.2856    2.4912   13.8110 C   0  0  0  0  0  0  0  0  0  0  0  0
   10.9318    2.6454   14.1195 C   0  0  0  0  0  0  0  0  0  0  0  0
    9.9653    2.0579   13.3044 C   0  0  0  0  0  0  0  0  0  0  0  0
   10.3301    1.2784   12.2147 C   0  0  0  0  0  0  0  0  0  0  0  0
   10.9450    0.0895    8.5570 C   0  0  0  0  0  0  0  0  0  0  0  0
   11.6009    1.2734    7.5477 S   0  0  0  0  0  0  0  0  0  0  0  0
   10.4620    1.0102    6.2848 C   0  0  0  0  0  0  0  0  0  0  0  0
    9.5768   -0.0138    6.6698 C   0  0  0  0  0  0  0  0  0  0  0  0
    8.2893   -0.2005    6.0472 N   0  0  0  0  0  0  0  0  0  0  0  0
    8.2539   -0.8722    4.7809 C   0  0  0  0  0  0  0  0  0  0  0  0
    7.8561   -0.1758    3.6337 C   0  0  0  0  0  0  0  0  0  0  0  0
    7.7956   -0.8254    2.4060 C   0  0  0  0  0  0  0  0  0  0  0  0
    8.2330   -2.1445    2.2807 C   0  0  0  0  0  0  0  0  0  0  0  0
    8.6614   -2.8489    3.4069 C   0  0  0  0  0  0  0  0  0  0  0  0
    8.6841   -2.2168    4.6564 C   0  0  0  0  0  0  0  0  0  0  0  0
    7.1579    0.6220    6.5131 C   0  0  0  0  0  0  0  0  0  0  0  0
    5.9057    0.5641    5.8736 C   0  0  0  0  0  0  0  0  0  0  0  0
    4.8724    1.4138    6.2708 C   0  0  0  0  0  0  0  0  0  0  0  0
    5.0441    2.2485    7.3698 C   0  0  0  0  0  0  0  0  0  0  0  0
    6.2611    2.3212    8.0305 C   0  0  0  0  0  0  0  0  0  0  0  0
    7.3245    1.5050    7.6126 C   0  0  0  0  0  0  0  0  0  0  0  0
    9.8956   -0.5153    7.9297 C   0  0  0  0  0  0  0  0  0  0  0  0
    9.1738   -1.6018    8.9775 S   0  0  0  0  0  0  0  0  0  0  0  0
   10.5355    1.5608    4.9198 C   0  0  0  0  0  0  0  0  0  0  0  0
    9.8728    2.7033    4.4529 C   0  0  0  0  0  0  0  0  0  0  0  0
    9.8226    2.7742    3.0580 C   0  0  0  0  0  0  0  0  0  0  0  0
    9.2985    3.8664    2.3327 C   0  0  0  0  0  0  0  0  0  0  0  0
    9.6770    5.1596    2.9162 C   0  0  0  0  0  0  0  0  0  0  0  0
   11.2409    5.7465    2.9249 S   0  0  0  0  0  0  0  0  0  0  0  0
   11.1203    6.7776    4.2360 C   0  0  0  0  0  0  0  0  0  0  0  0
   12.0851    7.9098    4.4523 C   0  0  0  0  0  0  0  0  0  0  0  0
   11.7893    8.9935    3.4115 C   0  0  0  0  0  0  0  0  0  0  0  0
    9.7362    6.8491    4.5158 C   0  0  0  0  0  0  0  0  0  0  0  0
    9.0579    8.0989    5.5561 Cl  0  0  0  0  0  0  0  0  0  0  0  0
    8.9006    5.9789    3.7380 C   0  0  0  0  0  0  0  0  0  0  0  0
    7.1154    6.0372    3.7619 Cl  0  0  0  0  0  0  0  0  0  0  0  0
    9.2053    3.6694    0.9365 C   0  0  0  0  0  0  0  0  0  0  0  0
    9.7236    2.5517    0.2629 C   0  0  0  0  0  0  0  0  0  0  0  0
   10.4145    1.5474    1.0239 C   0  0  0  0  0  0  0  0  0  0  0  0
   10.9551    0.2985    0.4125 C   0  0  0  0  0  0  0  0  0  0  0  0
   12.4204   -0.4381    0.8487 S   0  0  0  0  0  0  0  0  0  0  0  0
   12.1077   -1.9462    0.1829 C   0  0  0  0  0  0  0  0  0  0  0  0
   12.9074   -3.1844    0.4540 C   0  0  0  0  0  0  0  0  0  0  0  0
   13.5265   -3.7677   -0.8184 C   0  0  0  0  0  0  0  0  0  0  0  0
   10.8406   -1.9103   -0.4122 C   0  0  0  0  0  0  0  0  0  0  0  0
   10.2002   -0.6577   -0.2963 C   0  0  0  0  0  0  0  0  0  0  0  0
    8.5451   -0.5132   -0.8107 Cl  0  0  0  0  0  0  0  0  0  0  0  0
   10.0670   -3.3368   -1.0690 Cl  0  0  0  0  0  0  0  0  0  0  0  0
   10.4708    1.7323    2.4204 C   0  0  0  0  0  0  0  0  0  0  0  0
   11.0919    0.7094    3.6169 S   0  0  0  0  0  0  0  0  0  0  0  0
    9.2857    2.4591   -1.0776 C   0  0  0  0  0  0  0  0  0  0  0  0
    8.3192    3.4005   -1.4309 C   0  0  0  0  0  0  0  0  0  0  0  0
    8.1332    4.4207   -0.1065 S   0  0  0  0  0  0  0  0  0  0  0  0
    7.2365    3.1404   -2.3835 C   0  0  0  0  0  0  0  0  0  0  0  0
    6.9369    1.8612   -2.8784 C   0  0  0  0  0  0  0  0  0  0  0  0
    5.5745    1.6937   -3.2200 C   0  0  0  0  0  0  0  0  0  0  0  0
    4.9320    0.5035   -3.6200 C   0  0  0  0  0  0  0  0  0  0  0  0
    5.7170   -0.6009   -4.1809 C   0  0  0  0  0  0  0  0  0  0  0  0
    6.7120   -1.6791   -3.3559 S   0  0  0  0  0  0  0  0  0  0  0  0
    7.4837   -2.2835   -4.7215 C   0  0  0  0  0  0  0  0  0  0  0  0
    8.4697   -3.4215   -4.7103 C   0  0  0  0  0  0  0  0  0  0  0  0
    7.7428   -4.7678   -4.5450 C   0  0  0  0  0  0  0  0  0  0  0  0
    6.8996   -1.7181   -5.8639 C   0  0  0  0  0  0  0  0  0  0  0  0
    7.5671   -1.8467   -7.4709 Cl  0  0  0  0  0  0  0  0  0  0  0  0
    5.9050   -0.7656   -5.5434 C   0  0  0  0  0  0  0  0  0  0  0  0
    5.0314    0.1966   -6.7388 Cl  0  0  0  0  0  0  0  0  0  0  0  0
    3.5338    0.5473   -3.7937 C   0  0  0  0  0  0  0  0  0  0  0  0
    2.8046    1.7248   -3.7152 C   0  0  0  0  0  0  0  0  0  0  0  0
    3.4640    2.9448   -3.4368 C   0  0  0  0  0  0  0  0  0  0  0  0
    2.7899    4.2430   -3.6052 C   0  0  0  0  0  0  0  0  0  0  0  0
    2.9007    5.5427   -2.5243 S   0  0  0  0  0  0  0  0  0  0  0  0
    2.2534    6.6914   -3.5400 C   0  0  0  0  0  0  0  0  0  0  0  0
    2.1770    8.1546   -3.2619 C   0  0  0  0  0  0  0  0  0  0  0  0
    3.4216    8.8617   -3.7941 C   0  0  0  0  0  0  0  0  0  0  0  0
    1.9526    6.0948   -4.7707 C   0  0  0  0  0  0  0  0  0  0  0  0
    2.2566    4.7222   -4.8013 C   0  0  0  0  0  0  0  0  0  0  0  0
    2.1547    3.7622   -6.2746 Cl  0  0  0  0  0  0  0  0  0  0  0  0
    1.3332    6.9698   -6.1621 Cl  0  0  0  0  0  0  0  0  0  0  0  0
    4.8337    2.8734   -3.1399 C   0  0  0  0  0  0  0  0  0  0  0  0
    5.8582    4.0892   -2.5557 S   0  0  0  0  0  0  0  0  0  0  0  0
    1.4338    1.5470   -3.8423 C   0  0  0  0  0  0  0  0  0  0  0  0
    1.0482    0.1952   -3.9583 C   0  0  0  0  0  0  0  0  0  0  0  0
    2.4495   -0.7265   -4.0282 S   0  0  0  0  0  0  0  0  0  0  0  0
   -0.3239   -0.3374   -3.7294 C   0  0  0  0  0  0  0  0  0  0  0  0
   -1.5224    0.3959   -3.5374 C   0  0  0  0  0  0  0  0  0  0  0  0
   -1.6935    1.8198   -3.6502 N   0  0  0  0  0  0  0  0  0  0  0  0
   -2.0213    2.3344   -4.9561 C   0  0  0  0  0  0  0  0  0  0  0  0
   -3.3022    2.8645   -5.2289 C   0  0  0  0  0  0  0  0  0  0  0  0
   -3.5764    3.4399   -6.4704 C   0  0  0  0  0  0  0  0  0  0  0  0
   -2.6217    3.4046   -7.4924 C   0  0  0  0  0  0  0  0  0  0  0  0
   -1.3833    2.7726   -7.2682 C   0  0  0  0  0  0  0  0  0  0  0  0
   -1.1065    2.2216   -6.0250 C   0  0  0  0  0  0  0  0  0  0  0  0
   -1.6067    2.6338   -2.4542 C   0  0  0  0  0  0  0  0  0  0  0  0
   -2.5166    3.6915   -2.1962 C   0  0  0  0  0  0  0  0  0  0  0  0
   -2.4324    4.4273   -1.0105 C   0  0  0  0  0  0  0  0  0  0  0  0
   -1.4233    4.1560   -0.0740 C   0  0  0  0  0  0  0  0  0  0  0  0
   -0.5076    3.1286   -0.3250 C   0  0  0  0  0  0  0  0  0  0  0  0
   -0.6265    2.3462   -1.4641 C   0  0  0  0  0  0  0  0  0  0  0  0
   -2.5765   -0.4101   -3.0995 C   0  0  0  0  0  0  0  0  0  0  0  0
   -4.1337   -0.1246   -2.5845 S   0  0  0  0  0  0  0  0  0  0  0  0
   -4.4507   -1.7220   -2.1417 C   0  0  0  0  0  0  0  0  0  0  0  0
   -3.3132   -2.5166   -2.4277 C   0  0  0  0  0  0  0  0  0  0  0  0
   -3.1365   -3.8789   -1.9948 N   0  0  0  0  0  0  0  0  0  0  0  0
   -2.9521   -4.1188   -0.5960 C   0  0  0  0  0  0  0  0  0  0  0  0
   -2.1783   -3.2391    0.1815 C   0  0  0  0  0  0  0  0  0  0  0  0
   -1.9471   -3.5019    1.5294 C   0  0  0  0  0  0  0  0  0  0  0  0
   -2.4980   -4.6376    2.1288 C   0  0  0  0  0  0  0  0  0  0  0  0
   -3.2926   -5.5213    1.3745 C   0  0  0  0  0  0  0  0  0  0  0  0
   -3.5262   -5.2556    0.0269 C   0  0  0  0  0  0  0  0  0  0  0  0
   -3.0039   -4.9081   -2.9791 C   0  0  0  0  0  0  0  0  0  0  0  0
   -2.0833   -5.9635   -2.7795 C   0  0  0  0  0  0  0  0  0  0  0  0
   -1.9184   -6.9573   -3.7483 C   0  0  0  0  0  0  0  0  0  0  0  0
   -2.6409   -6.9103   -4.9382 C   0  0  0  0  0  0  0  0  0  0  0  0
   -3.5576   -5.8762   -5.1594 C   0  0  0  0  0  0  0  0  0  0  0  0
   -3.7323   -4.8817   -4.1983 C   0  0  0  0  0  0  0  0  0  0  0  0
   -2.2692   -1.7418   -2.9613 C   0  0  0  0  0  0  0  0  0  0  0  0
   -0.6600   -1.9667   -3.3314 S   0  0  0  0  0  0  0  0  0  0  0  0
   -5.7894   -2.1613   -1.6647 C   0  0  0  0  0  0  0  0  0  0  0  0
   -6.4361   -3.3421   -2.0354 C   0  0  0  0  0  0  0  0  0  0  0  0
   -7.8446   -3.2904   -1.8527 C   0  0  0  0  0  0  0  0  0  0  0  0
   -8.7528   -4.2434   -2.3355 C   0  0  0  0  0  0  0  0  0  0  0  0
   -8.2561   -5.5303   -2.7974 C   0  0  0  0  0  0  0  0  0  0  0  0
   -7.4347   -6.6068   -1.8139 S   0  0  0  0  0  0  0  0  0  0  0  0
   -7.2904   -7.8340   -2.9331 C   0  0  0  0  0  0  0  0  0  0  0  0
   -6.8373   -9.2175   -2.5884 C   0  0  0  0  0  0  0  0  0  0  0  0
   -7.8929   -9.9351   -1.7512 C   0  0  0  0  0  0  0  0  0  0  0  0
   -7.9511   -7.4409   -4.1040 C   0  0  0  0  0  0  0  0  0  0  0  0
   -8.1203   -8.4609   -5.5109 Cl  0  0  0  0  0  0  0  0  0  0  0  0
   -8.5085   -6.1441   -4.0272 C   0  0  0  0  0  0  0  0  0  0  0  0
   -9.2984   -5.3528   -5.3815 Cl  0  0  0  0  0  0  0  0  0  0  0  0
  -10.1185   -3.8889   -2.3065 C   0  0  0  0  0  0  0  0  0  0  0  0
  -10.5622   -2.6913   -1.7240 C   0  0  0  0  0  0  0  0  0  0  0  0
   -9.6468   -1.8161   -1.1019 C   0  0  0  0  0  0  0  0  0  0  0  0
  -10.1062   -0.7102   -0.2315 C   0  0  0  0  0  0  0  0  0  0  0  0
   -9.3967    0.8223   -0.1135 S   0  0  0  0  0  0  0  0  0  0  0  0
  -10.2483    1.3584    1.2164 C   0  0  0  0  0  0  0  0  0  0  0  0
   -9.9667    2.6177    1.9559 C   0  0  0  0  0  0  0  0  0  0  0  0
   -9.0854    2.3359    3.1865 C   0  0  0  0  0  0  0  0  0  0  0  0
  -11.1105    0.3320    1.6107 C   0  0  0  0  0  0  0  0  0  0  0  0
  -11.0256   -0.8266    0.8120 C   0  0  0  0  0  0  0  0  0  0  0  0
  -11.8305   -2.3163    1.2575 Cl  0  0  0  0  0  0  0  0  0  0  0  0
  -12.1310    0.4325    3.0306 Cl  0  0  0  0  0  0  0  0  0  0  0  0
   -8.2861   -2.1031   -1.2640 C   0  0  0  0  0  0  0  0  0  0  0  0
   -6.9289   -1.1312   -1.0195 S   0  0  0  0  0  0  0  0  0  0  0  0
  -11.9241   -2.4582   -1.9186 C   0  0  0  0  0  0  0  0  0  0  0  0
  -12.5790   -3.4636   -2.6491 C   0  0  0  0  0  0  0  0  0  0  0  0
  -11.4446   -4.6597   -3.0110 S   0  0  0  0  0  0  0  0  0  0  0  0
  -13.9258   -3.3571   -3.2291 C   0  0  0  0  0  0  0  0  0  0  0  0
  -14.6855   -2.1709   -3.2464 C   0  0  0  0  0  0  0  0  0  0  0  0
  -15.8276   -2.2691   -4.0520 C   0  0  0  0  0  0  0  0  0  0  0  0
  -16.7197   -1.2116   -4.3679 C   0  0  0  0  0  0  0  0  0  0  0  0
  -16.4476    0.1594   -3.9122 C   0  0  0  0  0  0  0  0  0  0  0  0
  -16.2647    0.6518   -2.3141 S   0  0  0  0  0  0  0  0  0  0  0  0
  -15.9290    2.2640   -2.6451 C   0  0  0  0  0  0  0  0  0  0  0  0
  -15.5892    3.3077   -1.6202 C   0  0  0  0  0  0  0  0  0  0  0  0
  -14.0767    3.5166   -1.5591 C   0  0  0  0  0  0  0  0  0  0  0  0
  -15.9618    2.4532   -4.0248 C   0  0  0  0  0  0  0  0  0  0  0  0
  -15.6620    3.9954   -4.8124 Cl  0  0  0  0  0  0  0  0  0  0  0  0
  -16.2579    1.2754   -4.7393 C   0  0  0  0  0  0  0  0  0  0  0  0
  -16.2349    1.2213   -6.4989 Cl  0  0  0  0  0  0  0  0  0  0  0  0
  -17.7868   -1.4979   -5.2420 C   0  0  0  0  0  0  0  0  0  0  0  0
  -17.9421   -2.7565   -5.8412 C   0  0  0  0  0  0  0  0  0  0  0  0
  -17.0176   -3.7950   -5.5714 C   0  0  0  0  0  0  0  0  0  0  0  0
  -17.0378   -5.0630   -6.3302 C   0  0  0  0  0  0  0  0  0  0  0  0
  -17.0268   -6.6003   -5.6302 S   0  0  0  0  0  0  0  0  0  0  0  0
  -16.8973   -7.4484   -7.0751 C   0  0  0  0  0  0  0  0  0  0  0  0
  -16.7359   -8.9371   -7.1716 C   0  0  0  0  0  0  0  0  0  0  0  0
  -15.2611   -9.3213   -7.1060 C   0  0  0  0  0  0  0  0  0  0  0  0
  -16.8127   -6.5410   -8.1192 C   0  0  0  0  0  0  0  0  0  0  0  0
  -16.9081   -5.2006   -7.7091 C   0  0  0  0  0  0  0  0  0  0  0  0
  -16.7610   -3.8397   -8.8135 Cl  0  0  0  0  0  0  0  0  0  0  0  0
  -16.5917   -7.0059   -9.8007 Cl  0  0  0  0  0  0  0  0  0  0  0  0
  -15.9873   -3.5168   -4.6566 C   0  0  0  0  0  0  0  0  0  0  0  0
  -14.6878   -4.4871   -4.2203 S   0  0  0  0  0  0  0  0  0  0  0  0
  -19.0755   -2.8301   -6.6723 C   0  0  0  0  0  0  0  0  0  0  0  0
  -19.8107   -1.6457   -6.7142 C   0  0  0  0  0  0  0  0  0  0  0  0
  -19.0693   -0.5103   -5.7294 S   0  0  0  0  0  0  0  0  0  0  0  0
   10.2029   -1.7457   11.2644 H   0  0  0  0  0  0  0  0  0  0  0  0
   14.0236    0.4217    8.8580 H   0  0  0  0  0  0  0  0  0  0  0  0
   16.3144   -0.5152    8.9575 H   0  0  0  0  0  0  0  0  0  0  0  0
   17.0604   -1.7591   10.9760 H   0  0  0  0  0  0  0  0  0  0  0  0
   15.4879   -2.1382   12.8522 H   0  0  0  0  0  0  0  0  0  0  0  0
   13.1851   -1.2401   12.7517 H   0  0  0  0  0  0  0  0  0  0  0  0
   13.7231    1.6039   12.5209 H   0  0  0  0  0  0  0  0  0  0  0  0
   13.0364    2.9332   14.4472 H   0  0  0  0  0  0  0  0  0  0  0  0
   10.6324    3.2175   14.9815 H   0  0  0  0  0  0  0  0  0  0  0  0
    8.9155    2.1939   13.5266 H   0  0  0  0  0  0  0  0  0  0  0  0
    9.5423    0.8174   11.6224 H   0  0  0  0  0  0  0  0  0  0  0  0
    7.5592    0.8663    3.6977 H   0  0  0  0  0  0  0  0  0  0  0  0
    7.4369   -0.2774    1.5503 H   0  0  0  0  0  0  0  0  0  0  0  0
    8.2085   -2.6379    1.3159 H   0  0  0  0  0  0  0  0  0  0  0  0
    9.0125   -3.8658    3.3103 H   0  0  0  0  0  0  0  0  0  0  0  0
    9.0365   -2.7528    5.5242 H   0  0  0  0  0  0  0  0  0  0  0  0
    5.7300   -0.0303    5.0005 H   0  0  0  0  0  0  0  0  0  0  0  0
    3.9581    1.4257    5.7128 H   0  0  0  0  0  0  0  0  0  0  0  0
    4.2324    2.9190    7.6648 H   0  0  0  0  0  0  0  0  0  0  0  0
    6.3743    2.9643    8.8964 H   0  0  0  0  0  0  0  0  0  0  0  0
    8.2637    1.6015    8.1501 H   0  0  0  0  0  0  0  0  0  0  0  0
    9.4326    3.4589    5.1074 H   0  0  0  0  0  0  0  0  0  0  0  0
   13.1508    7.5707    4.3228 H   0  0  0  0  0  0  0  0  0  0  0  0
   11.9307    8.3359    5.4616 H   0  0  0  0  0  0  0  0  0  0  0  0
   12.4302    9.8796    3.6036 H   0  0  0  0  0  0  0  0  0  0  0  0
   10.7111    9.2964    3.3934 H   0  0  0  0  0  0  0  0  0  0  0  0
   12.0365    8.6316    2.3835 H   0  0  0  0  0  0  0  0  0  0  0  0
   13.7202   -2.9593    1.1856 H   0  0  0  0  0  0  0  0  0  0  0  0
   12.2357   -3.9409    0.9173 H   0  0  0  0  0  0  0  0  0  0  0  0
   14.2362   -3.0449   -1.2670 H   0  0  0  0  0  0  0  0  0  0  0  0
   14.0669   -4.7036   -0.5658 H   0  0  0  0  0  0  0  0  0  0  0  0
   12.7278   -4.0094   -1.5612 H   0  0  0  0  0  0  0  0  0  0  0  0
    9.6331    1.6689   -1.7325 H   0  0  0  0  0  0  0  0  0  0  0  0
    7.6370    1.0470   -2.9055 H   0  0  0  0  0  0  0  0  0  0  0  0
    9.0969   -3.4297   -5.6187 H   0  0  0  0  0  0  0  0  0  0  0  0
    9.1631   -3.2880   -3.8614 H   0  0  0  0  0  0  0  0  0  0  0  0
    8.4698   -5.5970   -4.6234 H   0  0  0  0  0  0  0  0  0  0  0  0
    6.9876   -4.8546   -5.3405 H   0  0  0  0  0  0  0  0  0  0  0  0
    7.2460   -4.7861   -3.5526 H   0  0  0  0  0  0  0  0  0  0  0  0
    1.2661    8.6004   -3.7146 H   0  0  0  0  0  0  0  0  0  0  0  0
    2.1363    8.3151   -2.1499 H   0  0  0  0  0  0  0  0  0  0  0  0
    3.7485    8.4268   -4.7656 H   0  0  0  0  0  0  0  0  0  0  0  0
    3.2143    9.9511   -3.9340 H   0  0  0  0  0  0  0  0  0  0  0  0
    4.2755    8.7651   -3.0754 H   0  0  0  0  0  0  0  0  0  0  0  0
    0.7454    2.3623   -3.7770 H   0  0  0  0  0  0  0  0  0  0  0  0
   -4.0812    2.7929   -4.4933 H   0  0  0  0  0  0  0  0  0  0  0  0
   -4.5494    3.8630   -6.6577 H   0  0  0  0  0  0  0  0  0  0  0  0
   -2.8280    3.8642   -8.4434 H   0  0  0  0  0  0  0  0  0  0  0  0
   -0.6665    2.7121   -8.0722 H   0  0  0  0  0  0  0  0  0  0  0  0
   -0.1529    1.7366   -5.8925 H   0  0  0  0  0  0  0  0  0  0  0  0
   -3.2817    3.9530   -2.8810 H   0  0  0  0  0  0  0  0  0  0  0  0
   -3.1581    5.1887   -0.8031 H   0  0  0  0  0  0  0  0  0  0  0  0
   -1.3658    4.7344    0.8371 H   0  0  0  0  0  0  0  0  0  0  0  0
    0.2708    2.9274    0.4053 H   0  0  0  0  0  0  0  0  0  0  0  0
    0.0621    1.5343   -1.5860 H   0  0  0  0  0  0  0  0  0  0  0  0
   -1.7274   -2.3692   -0.2593 H   0  0  0  0  0  0  0  0  0  0  0  0
   -1.3428   -2.8357    2.1237 H   0  0  0  0  0  0  0  0  0  0  0  0
   -2.3112   -4.8521    3.1779 H   0  0  0  0  0  0  0  0  0  0  0  0
   -3.7194   -6.3998    1.8369 H   0  0  0  0  0  0  0  0  0  0  0  0
   -4.1397   -5.9397   -0.5600 H   0  0  0  0  0  0  0  0  0  0  0  0
   -1.4947   -6.0107   -1.8775 H   0  0  0  0  0  0  0  0  0  0  0  0
   -1.2023   -7.7540   -3.5909 H   0  0  0  0  0  0  0  0  0  0  0  0
   -2.5065   -7.6674   -5.6894 H   0  0  0  0  0  0  0  0  0  0  0  0
   -4.1044   -5.8160   -6.0910 H   0  0  0  0  0  0  0  0  0  0  0  0
   -4.4377   -4.0687   -4.3822 H   0  0  0  0  0  0  0  0  0  0  0  0
   -5.9225   -4.1517   -2.5429 H   0  0  0  0  0  0  0  0  0  0  0  0
   -5.8974   -9.1465   -2.0001 H   0  0  0  0  0  0  0  0  0  0  0  0
   -6.6278   -9.7985   -3.5047 H   0  0  0  0  0  0  0  0  0  0  0  0
   -7.4604  -10.8631   -1.3173 H   0  0  0  0  0  0  0  0  0  0  0  0
   -8.2483   -9.2856   -0.9229 H   0  0  0  0  0  0  0  0  0  0  0  0
   -8.7851  -10.1650   -2.3788 H   0  0  0  0  0  0  0  0  0  0  0  0
   -9.4291    3.3373    1.2963 H   0  0  0  0  0  0  0  0  0  0  0  0
  -10.9265    3.0866    2.2939 H   0  0  0  0  0  0  0  0  0  0  0  0
   -8.1365    1.8445    2.8748 H   0  0  0  0  0  0  0  0  0  0  0  0
   -8.8353    3.2980    3.6827 H   0  0  0  0  0  0  0  0  0  0  0  0
   -9.6228    1.6902    3.9082 H   0  0  0  0  0  0  0  0  0  0  0  0
  -12.4156   -1.5475   -1.6080 H   0  0  0  0  0  0  0  0  0  0  0  0
  -14.3981   -1.2770   -2.7368 H   0  0  0  0  0  0  0  0  0  0  0  0
  -16.1023    4.2605   -1.8794 H   0  0  0  0  0  0  0  0  0  0  0  0
  -15.9547    2.9690   -0.6256 H   0  0  0  0  0  0  0  0  0  0  0  0
  -13.5908    2.5612   -1.2689 H   0  0  0  0  0  0  0  0  0  0  0  0
  -13.8368    4.2716   -0.7956 H   0  0  0  0  0  0  0  0  0  0  0  0
  -13.6976    3.8350   -2.5457 H   0  0  0  0  0  0  0  0  0  0  0  0
  -17.2733   -9.4210   -6.3346 H   0  0  0  0  0  0  0  0  0  0  0  0
  -17.1907   -9.3211   -8.1214 H   0  0  0  0  0  0  0  0  0  0  0  0
  -15.1562  -10.4262   -7.1590 H   0  0  0  0  0  0  0  0  0  0  0  0
  -14.8338   -8.9609   -6.1430 H   0  0  0  0  0  0  0  0  0  0  0  0
  -14.6916   -8.8676   -7.9394 H   0  0  0  0  0  0  0  0  0  0  0  0
  -19.3800   -3.7199   -7.2071 H   0  0  0  0  0  0  0  0  0  0  0  0
  -20.7103   -1.4874   -7.2912 H   0  0  0  0  0  0  0  0  0  0  0  0
  1  2  2  0
  2  3  1  0
  3  4  1  0
  4  5  2  0
  5  6  1  0
  6  7  2  0
  7  8  1  0
  8  9  2  0
  3 10  1  0
 10 11  2  0
 11 12  1  0
 12 13  2  0
 13 14  1  0
 14 15  2  0
  2 16  1  0
 16 17  1  0
 17 18  1  0
 18 19  2  0
 19 20  1  0
 20 21  1  0
 21 22  2  0
 22 23  1  0
 23 24  2  0
 24 25  1  0
 25 26  2  0
 20 27  1  0
 27 28  2  0
 28 29  1  0
 29 30  2  0
 30 31  1  0
 31 32  2  0
 19 33  1  0
 33 34  1  0
 18 35  1  0
 35 36  2  0
 36 37  1  0
 37 38  2  0
 38 39  1  0
 39 40  1  0
 40 41  1  0
 41 42  1  0
 42 43  1  0
 41 44  2  0
 44 45  1  0
 44 46  1  0
 46 47  1  0
 38 48  1  0
 48 49  2  0
 49 50  1  0
 50 51  1  0
 51 52  1  0
 52 53  1  0
 53 54  1  0
 54 55  1  0
 53 56  2  0
 56 57  1  0
 57 58  1  0
 56 59  1  0
 50 60  2  0
 60 61  1  0
 49 62  1  0
 62 63  2  0
 63 64  1  0
 63 65  1  0
 65 66  2  0
 66 67  1  0
 67 68  2  0
 68 69  1  0
 69 70  1  0
 70 71  1  0
 71 72  1  0
 72 73  1  0
 71 74  2  0
 74 75  1  0
 74 76  1  0
 76 77  1  0
 68 78  1  0
 78 79  2  0
 79 80  1  0
 80 81  1  0
 81 82  1  0
 82 83  1  0
 83 84  1  0
 84 85  1  0
 83 86  2  0
 86 87  1  0
 87 88  1  0
 86 89  1  0
 80 90  2  0
 90 91  1  0
 79 92  1  0
 92 93  2  0
 93 94  1  0
 93 95  1  0
 95 96  2  0
 96 97  1  0
 97 98  1  0
 98 99  2  0
 99100  1  0
100101  2  0
101102  1  0
102103  2  0
 97104  1  0
104105  2  0
105106  1  0
106107  2  0
107108  1  0
108109  2  0
 96110  1  0
110111  1  0
111112  1  0
112113  2  0
113114  1  0
114115  1  0
115116  2  0
116117  1  0
117118  2  0
118119  1  0
119120  2  0
114121  1  0
121122  2  0
122123  1  0
123124  2  0
124125  1  0
125126  2  0
113127  1  0
127128  1  0
112129  1  0
129130  2  0
130131  1  0
131132  2  0
132133  1  0
133134  1  0
134135  1  0
135136  1  0
136137  1  0
135138  2  0
138139  1  0
138140  1  0
140141  1  0
132142  1  0
142143  2  0
143144  1  0
144145  1  0
145146  1  0
146147  1  0
147148  1  0
148149  1  0
147150  2  0
150151  1  0
151152  1  0
150153  1  0
144154  2  0
154155  1  0
143156  1  0
156157  2  0
157158  1  0
157159  1  0
159160  2  0
160161  1  0
161162  2  0
162163  1  0
163164  1  0
164165  1  0
165166  1  0
166167  1  0
165168  2  0
168169  1  0
168170  1  0
170171  1  0
162172  1  0
172173  2  0
173174  1  0
174175  1  0
175176  1  0
176177  1  0
177178  1  0
178179  1  0
177180  2  0
180181  1  0
181182  1  0
180183  1  0
174184  2  0
184185  1  0
173186  1  0
186187  2  0
187188  1  0
 34  1  1  0
 61 35  1  0
 91 65  1  0
128 95  1  0
155129  1  0
185159  1  0
  9  4  1  0
 15 10  1  0
 33 16  2  0
 60 37  1  0
 90 67  1  0
103 98  1  0
109104  1  0
127110  2  0
154131  1  0
184161  1  0
 26 21  1  0
 32 27  1  0
 46 39  2  0
 64 48  1  0
 76 69  2  0
 94 78  1  0
120115  1  0
126121  1  0
140133  2  0
158142  1  0
170163  2  0
188172  1  0
 57 51  2  0
 87 81  2  0
151145  2  0
181175  2  0
  1189  1  0
  5190  1  0
  6191  1  0
  7192  1  0
  8193  1  0
  9194  1  0
 11195  1  0
 12196  1  0
 13197  1  0
 14198  1  0
 15199  1  0
 22200  1  0
 23201  1  0
 24202  1  0
 25203  1  0
 26204  1  0
 28205  1  0
 29206  1  0
 30207  1  0
 31208  1  0
 32209  1  0
 36210  1  0
 42211  1  0
 42212  1  0
 43213  1  0
 43214  1  0
 43215  1  0
 54216  1  0
 54217  1  0
 55218  1  0
 55219  1  0
 55220  1  0
 62221  1  0
 66222  1  0
 72223  1  0
 72224  1  0
 73225  1  0
 73226  1  0
 73227  1  0
 84228  1  0
 84229  1  0
 85230  1  0
 85231  1  0
 85232  1  0
 92233  1  0
 99234  1  0
100235  1  0
101236  1  0
102237  1  0
103238  1  0
105239  1  0
106240  1  0
107241  1  0
108242  1  0
109243  1  0
116244  1  0
117245  1  0
118246  1  0
119247  1  0
120248  1  0
122249  1  0
123250  1  0
124251  1  0
125252  1  0
126253  1  0
130254  1  0
136255  1  0
136256  1  0
137257  1  0
137258  1  0
137259  1  0
148260  1  0
148261  1  0
149262  1  0
149263  1  0
149264  1  0
156265  1  0
160266  1  0
166267  1  0
166268  1  0
167269  1  0
167270  1  0
167271  1  0
178272  1  0
178273  1  0
179274  1  0
179275  1  0
179276  1  0
186277  1  0
187278  1  0
M  END

