
     RDKit          3D

236261  0  0  0  0  0  0  0  0999 V2000
    2.3892   -9.1589    9.3743 C   0  0  0  0  0  0  0  0  0  0  0  0
    2.6389   -7.8417    9.0000 C   0  0  0  0  0  0  0  0  0  0  0  0
    1.5279   -7.2109    8.4199 C   0  0  0  0  0  0  0  0  0  0  0  0
    1.4632   -5.8767    7.9744 C   0  0  0  0  0  0  0  0  0  0  0  0
    2.6020   -4.9509    8.1071 C   0  0  0  0  0  0  0  0  0  0  0  0
    3.4590   -4.2902    6.8200 S   0  0  0  0  0  0  0  0  0  0  0  0
    4.5285   -3.3910    7.7608 C   0  0  0  0  0  0  0  0  0  0  0  0
    5.6643   -2.5742    7.2158 C   0  0  0  0  0  0  0  0  0  0  0  0
    6.9298   -3.4169    7.1160 C   0  0  0  0  0  0  0  0  0  0  0  0
    4.2328   -3.6093    9.1052 C   0  0  0  0  0  0  0  0  0  0  0  0
    5.1249   -2.8737   10.4308 Cl  0  0  0  0  0  0  0  0  0  0  0  0
    3.1488   -4.4777    9.2988 C   0  0  0  0  0  0  0  0  0  0  0  0
    2.5229   -4.9023   10.8872 Cl  0  0  0  0  0  0  0  0  0  0  0  0
    0.2406   -5.4519    7.4293 C   0  0  0  0  0  0  0  0  0  0  0  0
   -0.8801   -6.2862    7.3296 C   0  0  0  0  0  0  0  0  0  0  0  0
   -0.8152   -7.6180    7.7872 C   0  0  0  0  0  0  0  0  0  0  0  0
   -1.9889   -8.5071    7.7685 C   0  0  0  0  0  0  0  0  0  0  0  0
   -3.3787   -8.2707    8.6855 S   0  0  0  0  0  0  0  0  0  0  0  0
   -4.1733   -9.6622    8.1632 C   0  0  0  0  0  0  0  0  0  0  0  0
   -5.5746  -10.0323    8.5418 C   0  0  0  0  0  0  0  0  0  0  0  0
   -6.5723   -9.4711    7.5351 C   0  0  0  0  0  0  0  0  0  0  0  0
   -3.3607  -10.3211    7.2425 C   0  0  0  0  0  0  0  0  0  0  0  0
   -2.1315   -9.6774    7.0271 C   0  0  0  0  0  0  0  0  0  0  0  0
   -0.9343  -10.2427    5.8740 Cl  0  0  0  0  0  0  0  0  0  0  0  0
   -3.8323  -11.7882    6.4011 Cl  0  0  0  0  0  0  0  0  0  0  0  0
    0.4115   -8.0469    8.3235 C   0  0  0  0  0  0  0  0  0  0  0  0
    0.7953   -9.5462    8.9839 S   0  0  0  0  0  0  0  0  0  0  0  0
   -1.9966   -5.6492    6.7595 C   0  0  0  0  0  0  0  0  0  0  0  0
   -1.7544   -4.3079    6.4603 C   0  0  0  0  0  0  0  0  0  0  0  0
   -0.1611   -3.9207    6.8628 S   0  0  0  0  0  0  0  0  0  0  0  0
   -2.7241   -3.3456    5.9105 C   0  0  0  0  0  0  0  0  0  0  0  0
   -2.9191   -2.1107    6.5481 C   0  0  0  0  0  0  0  0  0  0  0  0
   -2.2813   -1.8757    7.7817 O   0  0  0  0  0  0  0  0  0  0  0  0
   -2.4068   -0.7052    8.5905 C   0  0  0  0  0  0  0  0  0  0  0  0
   -3.7422   -0.6957    9.3284 C   0  0  0  0  0  0  0  0  0  0  0  0
   -3.7331   -1.1469    5.9366 C   0  0  0  0  0  0  0  0  0  0  0  0
   -4.3401   -1.3892    4.6869 C   0  0  0  0  0  0  0  0  0  0  0  0
   -5.0730   -0.3773    4.0374 O   0  0  0  0  0  0  0  0  0  0  0  0
   -5.2334    0.9525    4.5299 C   0  0  0  0  0  0  0  0  0  0  0  0
   -6.0679    1.7663    3.5587 C   0  0  0  0  0  0  0  0  0  0  0  0
   -4.1698   -2.6510    4.0650 C   0  0  0  0  0  0  0  0  0  0  0  0
   -3.3740   -3.6227    4.7017 C   0  0  0  0  0  0  0  0  0  0  0  0
   -4.6501   -2.9189    2.6801 C   0  0  0  0  0  0  0  0  0  0  0  0
   -5.7187   -2.3082    2.0067 C   0  0  0  0  0  0  0  0  0  0  0  0
   -5.7416   -2.5878    0.6271 C   0  0  0  0  0  0  0  0  0  0  0  0
   -6.6136   -2.0271   -0.3310 C   0  0  0  0  0  0  0  0  0  0  0  0
   -7.7178   -1.1183    0.0313 C   0  0  0  0  0  0  0  0  0  0  0  0
   -7.5296    0.4172    0.6873 S   0  0  0  0  0  0  0  0  0  0  0  0
   -9.1641    0.8186    0.6828 C   0  0  0  0  0  0  0  0  0  0  0  0
   -9.7330    2.0993    1.2150 C   0  0  0  0  0  0  0  0  0  0  0  0
  -10.3196    1.8983    2.6082 C   0  0  0  0  0  0  0  0  0  0  0  0
   -9.8851   -0.2534    0.1540 C   0  0  0  0  0  0  0  0  0  0  0  0
  -11.6326   -0.2517   -0.0349 Cl  0  0  0  0  0  0  0  0  0  0  0  0
   -9.0732   -1.3364   -0.2147 C   0  0  0  0  0  0  0  0  0  0  0  0
   -9.7071   -2.8319   -0.8844 Cl  0  0  0  0  0  0  0  0  0  0  0  0
   -6.3222   -2.2883   -1.6809 C   0  0  0  0  0  0  0  0  0  0  0  0
   -5.2846   -3.1339   -2.0815 C   0  0  0  0  0  0  0  0  0  0  0  0
   -4.5005   -3.8024   -1.1217 C   0  0  0  0  0  0  0  0  0  0  0  0
   -3.4575   -4.7724   -1.5093 C   0  0  0  0  0  0  0  0  0  0  0  0
   -1.8192   -4.6525   -1.1363 S   0  0  0  0  0  0  0  0  0  0  0  0
   -1.3700   -6.1129   -1.8444 C   0  0  0  0  0  0  0  0  0  0  0  0
    0.0298   -6.6440   -1.8772 C   0  0  0  0  0  0  0  0  0  0  0  0
    0.6686   -6.4146   -3.2422 C   0  0  0  0  0  0  0  0  0  0  0  0
   -2.5015   -6.7112   -2.3969 C   0  0  0  0  0  0  0  0  0  0  0  0
   -3.6724   -5.9609   -2.2087 C   0  0  0  0  0  0  0  0  0  0  0  0
   -5.2595   -6.5008   -2.7405 Cl  0  0  0  0  0  0  0  0  0  0  0  0
   -2.4763   -8.2658   -3.2191 Cl  0  0  0  0  0  0  0  0  0  0  0  0
   -4.7251   -3.4626    0.2247 C   0  0  0  0  0  0  0  0  0  0  0  0
   -3.8018   -3.8699    1.5655 S   0  0  0  0  0  0  0  0  0  0  0  0
   -5.0087   -3.0599   -3.4568 C   0  0  0  0  0  0  0  0  0  0  0  0
   -5.7953   -2.1179   -4.1291 C   0  0  0  0  0  0  0  0  0  0  0  0
   -6.8742   -1.4353   -3.0194 S   0  0  0  0  0  0  0  0  0  0  0  0
   -5.3982   -1.4558   -5.3879 C   0  0  0  0  0  0  0  0  0  0  0  0
   -5.6806   -0.1171   -5.6727 C   0  0  0  0  0  0  0  0  0  0  0  0
   -4.7765    0.4634   -6.5744 C   0  0  0  0  0  0  0  0  0  0  0  0
   -4.6327    1.8445   -6.8197 C   0  0  0  0  0  0  0  0  0  0  0  0
   -5.5193    2.8481   -6.2025 C   0  0  0  0  0  0  0  0  0  0  0  0
   -6.5174    3.8919   -7.0639 S   0  0  0  0  0  0  0  0  0  0  0  0
   -7.0467    4.7724   -5.7338 C   0  0  0  0  0  0  0  0  0  0  0  0
   -8.0340    5.8987   -5.8031 C   0  0  0  0  0  0  0  0  0  0  0  0
   -9.4607    5.3662   -5.7854 C   0  0  0  0  0  0  0  0  0  0  0  0
   -6.4423    4.2565   -4.5869 C   0  0  0  0  0  0  0  0  0  0  0  0
   -6.7171    4.8913   -2.9684 Cl  0  0  0  0  0  0  0  0  0  0  0  0
   -5.5709    3.1913   -4.8529 C   0  0  0  0  0  0  0  0  0  0  0  0
   -4.5812    2.4202   -3.6186 Cl  0  0  0  0  0  0  0  0  0  0  0  0
   -3.4782    2.2501   -7.5074 C   0  0  0  0  0  0  0  0  0  0  0  0
   -2.5208    1.3470   -7.9774 C   0  0  0  0  0  0  0  0  0  0  0  0
   -2.7149   -0.0420   -7.8180 C   0  0  0  0  0  0  0  0  0  0  0  0
   -1.7191   -1.0305   -8.2684 C   0  0  0  0  0  0  0  0  0  0  0  0
   -0.1718   -1.2159   -7.6281 S   0  0  0  0  0  0  0  0  0  0  0  0
    0.2997   -2.4517   -8.6669 C   0  0  0  0  0  0  0  0  0  0  0  0
    1.6307   -3.1371   -8.6260 C   0  0  0  0  0  0  0  0  0  0  0  0
    1.5455   -4.4400   -7.8392 C   0  0  0  0  0  0  0  0  0  0  0  0
   -0.7626   -2.7537   -9.5193 C   0  0  0  0  0  0  0  0  0  0  0  0
   -1.8936   -1.9554   -9.2962 C   0  0  0  0  0  0  0  0  0  0  0  0
   -3.3587   -2.0657  -10.2564 Cl  0  0  0  0  0  0  0  0  0  0  0  0
   -0.6898   -3.9945  -10.7619 Cl  0  0  0  0  0  0  0  0  0  0  0  0
   -3.8401   -0.4455   -7.0757 C   0  0  0  0  0  0  0  0  0  0  0  0
   -4.0883   -1.9395   -6.3401 S   0  0  0  0  0  0  0  0  0  0  0  0
   -1.3254    1.9711   -8.3768 C   0  0  0  0  0  0  0  0  0  0  0  0
   -1.3030    3.3460   -8.1244 C   0  0  0  0  0  0  0  0  0  0  0  0
   -2.8210    3.7964   -7.5374 S   0  0  0  0  0  0  0  0  0  0  0  0
   -0.0648    4.0606   -7.7463 C   0  0  0  0  0  0  0  0  0  0  0  0
    0.0011    4.8724   -6.6118 C   0  0  0  0  0  0  0  0  0  0  0  0
    1.2787    4.9301   -6.0390 C   0  0  0  0  0  0  0  0  0  0  0  0
    1.5879    5.4453   -4.7623 C   0  0  0  0  0  0  0  0  0  0  0  0
    0.5727    6.0858   -3.9029 C   0  0  0  0  0  0  0  0  0  0  0  0
   -0.8139    5.3303   -3.3121 S   0  0  0  0  0  0  0  0  0  0  0  0
   -1.4333    6.6830   -2.5237 C   0  0  0  0  0  0  0  0  0  0  0  0
   -2.7237    6.7102   -1.7627 C   0  0  0  0  0  0  0  0  0  0  0  0
   -2.4753    6.6459   -0.2602 C   0  0  0  0  0  0  0  0  0  0  0  0
   -0.5445    7.7459   -2.6945 C   0  0  0  0  0  0  0  0  0  0  0  0
   -0.8254    9.3578   -2.0538 Cl  0  0  0  0  0  0  0  0  0  0  0  0
    0.5801    7.4100   -3.4665 C   0  0  0  0  0  0  0  0  0  0  0  0
    1.8301    8.5672   -3.9076 Cl  0  0  0  0  0  0  0  0  0  0  0  0
    2.8876    5.2058   -4.2830 C   0  0  0  0  0  0  0  0  0  0  0  0
    3.8576    4.5360   -5.0367 C   0  0  0  0  0  0  0  0  0  0  0  0
    3.5645    4.0743   -6.3375 C   0  0  0  0  0  0  0  0  0  0  0  0
    4.5629    3.3554   -7.1535 C   0  0  0  0  0  0  0  0  0  0  0  0
    5.2380    1.8634   -6.7651 S   0  0  0  0  0  0  0  0  0  0  0  0
    6.3070    1.8135   -8.0643 C   0  0  0  0  0  0  0  0  0  0  0  0
    7.2588    0.6901   -8.3413 C   0  0  0  0  0  0  0  0  0  0  0  0
    6.6296   -0.3343   -9.2793 C   0  0  0  0  0  0  0  0  0  0  0  0
    6.1305    2.9631   -8.8366 C   0  0  0  0  0  0  0  0  0  0  0  0
    5.1551    3.8293   -8.3213 C   0  0  0  0  0  0  0  0  0  0  0  0
    4.7719    5.3872   -9.0414 Cl  0  0  0  0  0  0  0  0  0  0  0  0
    7.0708    3.3182  -10.2783 Cl  0  0  0  0  0  0  0  0  0  0  0  0
    2.2488    4.2605   -6.7927 C   0  0  0  0  0  0  0  0  0  0  0  0
    1.4975    3.5116   -8.0984 S   0  0  0  0  0  0  0  0  0  0  0  0
    5.0382    4.2909   -4.3218 C   0  0  0  0  0  0  0  0  0  0  0  0
    4.9748    4.7139   -2.9931 C   0  0  0  0  0  0  0  0  0  0  0  0
    3.4740    5.4435   -2.7207 S   0  0  0  0  0  0  0  0  0  0  0  0
    5.9318    4.3454   -1.9368 C   0  0  0  0  0  0  0  0  0  0  0  0
    6.9934    3.4539   -2.0957 C   0  0  0  0  0  0  0  0  0  0  0  0
    7.6217    3.1214   -0.8880 C   0  0  0  0  0  0  0  0  0  0  0  0
    8.6745    2.2007   -0.7283 C   0  0  0  0  0  0  0  0  0  0  0  0
    9.1710    1.3919   -1.8576 C   0  0  0  0  0  0  0  0  0  0  0  0
    8.2399    0.2670   -2.6940 S   0  0  0  0  0  0  0  0  0  0  0  0
    9.4235   -0.1499   -3.8135 C   0  0  0  0  0  0  0  0  0  0  0  0
    9.2406   -1.1621   -4.9028 C   0  0  0  0  0  0  0  0  0  0  0  0
    9.6380   -2.5527   -4.4253 C   0  0  0  0  0  0  0  0  0  0  0  0
   10.5800    0.5778   -3.5328 C   0  0  0  0  0  0  0  0  0  0  0  0
   12.0630    0.4410   -4.4640 Cl  0  0  0  0  0  0  0  0  0  0  0  0
   10.4355    1.4500   -2.4436 C   0  0  0  0  0  0  0  0  0  0  0  0
   11.6936    2.5590   -1.9182 Cl  0  0  0  0  0  0  0  0  0  0  0  0
    9.1606    2.0138    0.5750 C   0  0  0  0  0  0  0  0  0  0  0  0
    8.6195    2.6754    1.6814 C   0  0  0  0  0  0  0  0  0  0  0  0
    7.5343    3.5649    1.5297 C   0  0  0  0  0  0  0  0  0  0  0  0
    6.8682    4.1894    2.6917 C   0  0  0  0  0  0  0  0  0  0  0  0
    6.8076    5.8447    2.9950 S   0  0  0  0  0  0  0  0  0  0  0  0
    5.9655    5.7269    4.4505 C   0  0  0  0  0  0  0  0  0  0  0  0
    5.6220    6.8894    5.3332 C   0  0  0  0  0  0  0  0  0  0  0  0
    6.7004    7.0988    6.3908 C   0  0  0  0  0  0  0  0  0  0  0  0
    5.7353    4.3798    4.7259 C   0  0  0  0  0  0  0  0  0  0  0  0
    6.2303    3.5188    3.7361 C   0  0  0  0  0  0  0  0  0  0  0  0
    6.0335    1.7713    3.7961 Cl  0  0  0  0  0  0  0  0  0  0  0  0
    4.9024    3.8111    6.1683 Cl  0  0  0  0  0  0  0  0  0  0  0  0
    7.0743    3.7815    0.2190 C   0  0  0  0  0  0  0  0  0  0  0  0
    5.7823    4.7352   -0.2982 S   0  0  0  0  0  0  0  0  0  0  0  0
    9.2573    2.3392    2.8869 C   0  0  0  0  0  0  0  0  0  0  0  0
   10.2739    1.4039    2.7259 C   0  0  0  0  0  0  0  0  0  0  0  0
   10.3918    0.9934    1.0962 S   0  0  0  0  0  0  0  0  0  0  0  0
    3.0971   -9.8225    9.8533 H   0  0  0  0  0  0  0  0  0  0  0  0
    3.5959   -7.3621    9.1556 H   0  0  0  0  0  0  0  0  0  0  0  0
    5.3966   -2.1981    6.2084 H   0  0  0  0  0  0  0  0  0  0  0  0
    5.8470   -1.6936    7.8665 H   0  0  0  0  0  0  0  0  0  0  0  0
    7.7689   -2.7872    6.7520 H   0  0  0  0  0  0  0  0  0  0  0  0
    7.2012   -3.8291    8.1105 H   0  0  0  0  0  0  0  0  0  0  0  0
    6.7758   -4.2581    6.4032 H   0  0  0  0  0  0  0  0  0  0  0  0
   -5.6753  -11.1344    8.5816 H   0  0  0  0  0  0  0  0  0  0  0  0
   -5.8057   -9.6260    9.5504 H   0  0  0  0  0  0  0  0  0  0  0  0
   -7.6035   -9.7404    7.8453 H   0  0  0  0  0  0  0  0  0  0  0  0
   -6.4908   -8.3653    7.4834 H   0  0  0  0  0  0  0  0  0  0  0  0
   -6.3853   -9.8966    6.5245 H   0  0  0  0  0  0  0  0  0  0  0  0
   -2.9533   -6.1287    6.5925 H   0  0  0  0  0  0  0  0  0  0  0  0
   -2.2737    0.2138    7.9817 H   0  0  0  0  0  0  0  0  0  0  0  0
   -1.5903   -0.7178    9.3458 H   0  0  0  0  0  0  0  0  0  0  0  0
   -3.8532   -1.6251    9.9246 H   0  0  0  0  0  0  0  0  0  0  0  0
   -4.5834   -0.6189    8.6145 H   0  0  0  0  0  0  0  0  0  0  0  0
   -3.7816    0.1787   10.0113 H   0  0  0  0  0  0  0  0  0  0  0  0
   -3.8595   -0.1878    6.4098 H   0  0  0  0  0  0  0  0  0  0  0  0
   -5.7505    0.9323    5.5153 H   0  0  0  0  0  0  0  0  0  0  0  0
   -4.2376    1.4367    4.6401 H   0  0  0  0  0  0  0  0  0  0  0  0
   -6.1442    2.8136    3.9156 H   0  0  0  0  0  0  0  0  0  0  0  0
   -5.5920    1.7602    2.5556 H   0  0  0  0  0  0  0  0  0  0  0  0
   -7.0867    1.3359    3.4935 H   0  0  0  0  0  0  0  0  0  0  0  0
   -3.2028   -4.5815    4.2263 H   0  0  0  0  0  0  0  0  0  0  0  0
   -6.4346   -1.6583    2.4892 H   0  0  0  0  0  0  0  0  0  0  0  0
   -8.9345    2.8696    1.2625 H   0  0  0  0  0  0  0  0  0  0  0  0
  -10.5280    2.4665    0.5314 H   0  0  0  0  0  0  0  0  0  0  0  0
   -9.5391    1.5342    3.3087 H   0  0  0  0  0  0  0  0  0  0  0  0
  -11.1524    1.1642    2.5812 H   0  0  0  0  0  0  0  0  0  0  0  0
  -10.7147    2.8653    2.9871 H   0  0  0  0  0  0  0  0  0  0  0  0
    0.6377   -6.1369   -1.0977 H   0  0  0  0  0  0  0  0  0  0  0  0
    0.0207   -7.7314   -1.6475 H   0  0  0  0  0  0  0  0  0  0  0  0
    0.1124   -6.9634   -4.0299 H   0  0  0  0  0  0  0  0  0  0  0  0
    0.6772   -5.3306   -3.4847 H   0  0  0  0  0  0  0  0  0  0  0  0
    1.7152   -6.7863   -3.2279 H   0  0  0  0  0  0  0  0  0  0  0  0
   -4.1612   -3.5526   -3.9155 H   0  0  0  0  0  0  0  0  0  0  0  0
   -6.4124    0.4581   -5.1205 H   0  0  0  0  0  0  0  0  0  0  0  0
   -7.8673    6.4708   -6.7418 H   0  0  0  0  0  0  0  0  0  0  0  0
   -7.8839    6.5957   -4.9516 H   0  0  0  0  0  0  0  0  0  0  0  0
  -10.1706    6.2187   -5.8557 H   0  0  0  0  0  0  0  0  0  0  0  0
   -9.6331    4.6926   -6.6526 H   0  0  0  0  0  0  0  0  0  0  0  0
   -9.6535    4.8103   -4.8445 H   0  0  0  0  0  0  0  0  0  0  0  0
    1.9742   -3.3509   -9.6612 H   0  0  0  0  0  0  0  0  0  0  0  0
    2.3805   -2.4678   -8.1524 H   0  0  0  0  0  0  0  0  0  0  0  0
    0.8091   -5.1266   -8.3071 H   0  0  0  0  0  0  0  0  0  0  0  0
    1.2458   -4.2377   -6.7883 H   0  0  0  0  0  0  0  0  0  0  0  0
    2.5408   -4.9355   -7.8381 H   0  0  0  0  0  0  0  0  0  0  0  0
   -0.4361    1.4218   -8.6568 H   0  0  0  0  0  0  0  0  0  0  0  0
   -0.8813    5.2735   -6.1314 H   0  0  0  0  0  0  0  0  0  0  0  0
   -3.3509    5.8459   -2.0682 H   0  0  0  0  0  0  0  0  0  0  0  0
   -3.2828    7.6365   -2.0118 H   0  0  0  0  0  0  0  0  0  0  0  0
   -3.4527    6.6180    0.2720 H   0  0  0  0  0  0  0  0  0  0  0  0
   -1.8951    5.7379    0.0034 H   0  0  0  0  0  0  0  0  0  0  0  0
   -1.9256    7.5471    0.0775 H   0  0  0  0  0  0  0  0  0  0  0  0
    8.1896    1.0872   -8.7963 H   0  0  0  0  0  0  0  0  0  0  0  0
    7.5338    0.1958   -7.3851 H   0  0  0  0  0  0  0  0  0  0  0  0
    5.7083   -0.7607   -8.8238 H   0  0  0  0  0  0  0  0  0  0  0  0
    7.3501   -1.1599   -9.4647 H   0  0  0  0  0  0  0  0  0  0  0  0
    6.3735    0.1374  -10.2511 H   0  0  0  0  0  0  0  0  0  0  0  0
    5.8859    3.7573   -4.7303 H   0  0  0  0  0  0  0  0  0  0  0  0
    7.2743    3.0264   -3.0517 H   0  0  0  0  0  0  0  0  0  0  0  0
    9.8409   -0.8814   -5.7929 H   0  0  0  0  0  0  0  0  0  0  0  0
    8.1727   -1.1732   -5.2104 H   0  0  0  0  0  0  0  0  0  0  0  0
   10.7231   -2.5838   -4.1867 H   0  0  0  0  0  0  0  0  0  0  0  0
    9.0495   -2.8372   -3.5277 H   0  0  0  0  0  0  0  0  0  0  0  0
    9.4251   -3.2920   -5.2286 H   0  0  0  0  0  0  0  0  0  0  0  0
    5.5312    7.8072    4.7151 H   0  0  0  0  0  0  0  0  0  0  0  0
    4.6447    6.7091    5.8292 H   0  0  0  0  0  0  0  0  0  0  0  0
    6.7913    6.2001    7.0376 H   0  0  0  0  0  0  0  0  0  0  0  0
    6.4356    7.9692    7.0253 H   0  0  0  0  0  0  0  0  0  0  0  0
    7.6792    7.3009    5.9067 H   0  0  0  0  0  0  0  0  0  0  0  0
    8.9945    2.7545    3.8537 H   0  0  0  0  0  0  0  0  0  0  0  0
   10.8915    1.0052    3.5204 H   0  0  0  0  0  0  0  0  0  0  0  0
  1  2  2  0
  2  3  1  0
  3  4  2  0
  4  5  1  0
  5  6  1  0
  6  7  1  0
  7  8  1  0
  8  9  1  0
  7 10  2  0
 10 11  1  0
 10 12  1  0
 12 13  1  0
  4 14  1  0
 14 15  2  0
 15 16  1  0
 16 17  1  0
 17 18  1  0
 18 19  1  0
 19 20  1  0
 20 21  1  0
 19 22  2  0
 22 23  1  0
 23 24  1  0
 22 25  1  0
 16 26  2  0
 26 27  1  0
 15 28  1  0
 28 29  2  0
 29 30  1  0
 29 31  1  0
 31 32  2  0
 32 33  1  0
 33 34  1  0
 34 35  1  0
 32 36  1  0
 36 37  2  0
 37 38  1  0
 38 39  1  0
 39 40  1  0
 37 41  1  0
 41 42  2  0
 41 43  1  0
 43 44  2  0
 44 45  1  0
 45 46  2  0
 46 47  1  0
 47 48  1  0
 48 49  1  0
 49 50  1  0
 50 51  1  0
 49 52  2  0
 52 53  1  0
 52 54  1  0
 54 55  1  0
 46 56  1  0
 56 57  2  0
 57 58  1  0
 58 59  1  0
 59 60  1  0
 60 61  1  0
 61 62  1  0
 62 63  1  0
 61 64  2  0
 64 65  1  0
 65 66  1  0
 64 67  1  0
 58 68  2  0
 68 69  1  0
 57 70  1  0
 70 71  2  0
 71 72  1  0
 71 73  1  0
 73 74  2  0
 74 75  1  0
 75 76  2  0
 76 77  1  0
 77 78  1  0
 78 79  1  0
 79 80  1  0
 80 81  1  0
 79 82  2  0
 82 83  1  0
 82 84  1  0
 84 85  1  0
 76 86  1  0
 86 87  2  0
 87 88  1  0
 88 89  1  0
 89 90  1  0
 90 91  1  0
 91 92  1  0
 92 93  1  0
 91 94  2  0
 94 95  1  0
 95 96  1  0
 94 97  1  0
 88 98  2  0
 98 99  1  0
 87100  1  0
100101  2  0
101102  1  0
101103  1  0
103104  2  0
104105  1  0
105106  2  0
106107  1  0
107108  1  0
108109  1  0
109110  1  0
110111  1  0
109112  2  0
112113  1  0
112114  1  0
114115  1  0
106116  1  0
116117  2  0
117118  1  0
118119  1  0
119120  1  0
120121  1  0
121122  1  0
122123  1  0
121124  2  0
124125  1  0
125126  1  0
124127  1  0
118128  2  0
128129  1  0
117130  1  0
130131  2  0
131132  1  0
131133  1  0
133134  2  0
134135  1  0
135136  2  0
136137  1  0
137138  1  0
138139  1  0
139140  1  0
140141  1  0
139142  2  0
142143  1  0
142144  1  0
144145  1  0
136146  1  0
146147  2  0
147148  1  0
148149  1  0
149150  1  0
150151  1  0
151152  1  0
152153  1  0
151154  2  0
154155  1  0
155156  1  0
154157  1  0
148158  2  0
158159  1  0
147160  1  0
160161  2  0
161162  1  0
 27  1  1  0
 42 31  1  0
 69 43  1  0
 99 73  1  0
129103  1  0
159133  1  0
 26  3  1  0
 68 45  1  0
 98 75  1  0
128105  1  0
158135  1  0
 12  5  2  0
 30 14  1  0
 54 47  2  0
 72 56  1  0
 84 77  2  0
102 86  1  0
114107  2  0
132116  1  0
144137  2  0
162146  1  0
 23 17  2  0
 65 59  2  0
 95 89  2  0
125119  2  0
155149  2  0
  1163  1  0
  2164  1  0
  8165  1  0
  8166  1  0
  9167  1  0
  9168  1  0
  9169  1  0
 20170  1  0
 20171  1  0
 21172  1  0
 21173  1  0
 21174  1  0
 28175  1  0
 34176  1  0
 34177  1  0
 35178  1  0
 35179  1  0
 35180  1  0
 36181  1  0
 39182  1  0
 39183  1  0
 40184  1  0
 40185  1  0
 40186  1  0
 42187  1  0
 44188  1  0
 50189  1  0
 50190  1  0
 51191  1  0
 51192  1  0
 51193  1  0
 62194  1  0
 62195  1  0
 63196  1  0
 63197  1  0
 63198  1  0
 70199  1  0
 74200  1  0
 80201  1  0
 80202  1  0
 81203  1  0
 81204  1  0
 81205  1  0
 92206  1  0
 92207  1  0
 93208  1  0
 93209  1  0
 93210  1  0
100211  1  0
104212  1  0
110213  1  0
110214  1  0
111215  1  0
111216  1  0
111217  1  0
122218  1  0
122219  1  0
123220  1  0
123221  1  0
123222  1  0
130223  1  0
134224  1  0
140225  1  0
140226  1  0
141227  1  0
141228  1  0
141229  1  0
152230  1  0
152231  1  0
153232  1  0
153233  1  0
153234  1  0
160235  1  0
161236  1  0
M  END

