
     RDKit          3D

148165  0  0  0  0  0  0  0  0999 V2000
    7.4716    1.2352    6.3234 C   0  0  0  0  0  0  0  0  0  0  0  0
    7.3487    1.9018    7.5539 C   0  0  0  0  0  0  0  0  0  0  0  0
    6.2202    2.6954    7.7753 C   0  0  0  0  0  0  0  0  0  0  0  0
    5.2470    2.8246    6.8021 C   0  0  0  0  0  0  0  0  0  0  0  0
    5.3456    2.1734    5.5727 C   0  0  0  0  0  0  0  0  0  0  0  0
    6.4741    1.3712    5.3361 C   0  0  0  0  0  0  0  0  0  0  0  0
    4.2210    3.7099    7.3056 C   0  0  0  0  0  0  0  0  0  0  0  0
    4.5784    4.1105    8.5791 C   0  0  0  0  0  0  0  0  0  0  0  0
    5.8850    3.4994    9.0001 C   0  0  0  0  0  0  0  0  0  0  0  0
    3.7621    4.9747    9.3121 C   0  0  0  0  0  0  0  0  0  0  0  0
    2.5536    5.4173    8.7370 C   0  0  0  0  0  0  0  0  0  0  0  0
    2.2189    5.0234    7.4168 C   0  0  0  0  0  0  0  0  0  0  0  0
    3.0511    4.1554    6.6968 C   0  0  0  0  0  0  0  0  0  0  0  0
    1.6620    6.3136    9.5081 C   0  0  0  0  0  0  0  0  0  0  0  0
    0.3328    6.1447    9.6014 C   0  0  0  0  0  0  0  0  0  0  0  0
   -0.3668    4.9471    9.0989 C   0  0  0  0  0  0  0  0  0  0  0  0
   -1.3996    5.0856    8.1503 C   0  0  0  0  0  0  0  0  0  0  0  0
   -1.9617    3.9317    7.5998 C   0  0  0  0  0  0  0  0  0  0  0  0
   -1.5376    2.6792    8.0005 C   0  0  0  0  0  0  0  0  0  0  0  0
   -0.5441    2.5113    8.9627 C   0  0  0  0  0  0  0  0  0  0  0  0
    0.0401    3.6576    9.5176 C   0  0  0  0  0  0  0  0  0  0  0  0
   -2.2004    1.6918    7.1802 C   0  0  0  0  0  0  0  0  0  0  0  0
   -3.0111    2.3503    6.2782 C   0  0  0  0  0  0  0  0  0  0  0  0
   -2.9581    3.8390    6.4795 C   0  0  0  0  0  0  0  0  0  0  0  0
   -3.6910    1.6479    5.2805 C   0  0  0  0  0  0  0  0  0  0  0  0
   -3.5348    0.2411    5.2064 C   0  0  0  0  0  0  0  0  0  0  0  0
   -2.7287   -0.4156    6.1684 C   0  0  0  0  0  0  0  0  0  0  0  0
   -2.0466    0.3094    7.1559 C   0  0  0  0  0  0  0  0  0  0  0  0
   -4.1325   -0.5850    4.1282 C   0  0  0  0  0  0  0  0  0  0  0  0
   -4.6435   -0.0963    2.9888 C   0  0  0  0  0  0  0  0  0  0  0  0
   -5.0305   -0.9890    1.8745 C   0  0  0  0  0  0  0  0  0  0  0  0
   -4.3947   -2.5269    1.6315 S   0  0  0  0  0  0  0  0  0  0  0  0
   -5.8069   -0.6720    0.7514 C   0  0  0  0  0  0  0  0  0  0  0  0
   -6.5231    0.6141    0.5131 C   0  0  0  0  0  0  0  0  0  0  0  0
   -6.5575    1.5367    1.3692 O   0  0  0  0  0  0  0  0  0  0  0  0
   -7.2163    0.7651   -0.7716 C   0  0  0  0  0  0  0  0  0  0  0  0
   -7.8470    1.8593   -1.3258 C   0  0  0  0  0  0  0  0  0  0  0  0
   -8.3089    1.5204   -2.5512 N   0  0  0  0  0  0  0  0  0  0  0  0
   -8.9386    2.4260   -3.5072 C   0  0  0  0  0  0  0  0  0  0  0  0
   -7.8823    3.0767   -4.3922 C   0  0  0  0  0  0  0  0  0  0  0  0
   -7.9706    0.2318   -2.7845 C   0  0  0  0  0  0  0  0  0  0  0  0
   -7.2928   -0.2538   -1.6860 C   0  0  0  0  0  0  0  0  0  0  0  0
   -6.6842   -1.5675   -1.4454 C   0  0  0  0  0  0  0  0  0  0  0  0
   -6.9172   -2.5333   -2.2198 O   0  0  0  0  0  0  0  0  0  0  0  0
   -5.8522   -1.7152   -0.2196 C   0  0  0  0  0  0  0  0  0  0  0  0
   -5.0789   -2.8334    0.1277 C   0  0  0  0  0  0  0  0  0  0  0  0
   -4.6663   -3.9808   -0.7114 C   0  0  0  0  0  0  0  0  0  0  0  0
   -4.3179   -3.7970   -2.0679 C   0  0  0  0  0  0  0  0  0  0  0  0
   -3.7558   -4.8622   -2.7738 C   0  0  0  0  0  0  0  0  0  0  0  0
   -3.4789   -6.0596   -2.1435 C   0  0  0  0  0  0  0  0  0  0  0  0
   -3.8111   -6.2769   -0.8087 C   0  0  0  0  0  0  0  0  0  0  0  0
   -4.4227   -5.2331   -0.0974 C   0  0  0  0  0  0  0  0  0  0  0  0
   -2.6867   -6.8706   -3.0440 C   0  0  0  0  0  0  0  0  0  0  0  0
   -2.5365   -6.1767   -4.2298 C   0  0  0  0  0  0  0  0  0  0  0  0
   -3.2266   -4.8445   -4.1790 C   0  0  0  0  0  0  0  0  0  0  0  0
   -1.6781   -6.6428   -5.2260 C   0  0  0  0  0  0  0  0  0  0  0  0
   -0.8796   -7.7728   -4.9551 C   0  0  0  0  0  0  0  0  0  0  0  0
   -1.0655   -8.4940   -3.7560 C   0  0  0  0  0  0  0  0  0  0  0  0
   -1.9715   -8.0398   -2.7852 C   0  0  0  0  0  0  0  0  0  0  0  0
    0.1266   -8.2340   -5.9266 C   0  0  0  0  0  0  0  0  0  0  0  0
    1.3092   -7.6423   -6.1832 C   0  0  0  0  0  0  0  0  0  0  0  0
    1.8490   -6.3908   -5.5778 C   0  0  0  0  0  0  0  0  0  0  0  0
    0.9535   -5.1976   -4.7990 S   0  0  0  0  0  0  0  0  0  0  0  0
    3.1581   -5.8847   -5.7082 C   0  0  0  0  0  0  0  0  0  0  0  0
    4.3266   -6.5892   -6.3168 C   0  0  0  0  0  0  0  0  0  0  0  0
    4.2590   -7.7742   -6.7328 O   0  0  0  0  0  0  0  0  0  0  0  0
    5.5961   -5.8533   -6.3861 C   0  0  0  0  0  0  0  0  0  0  0  0
    6.8106   -6.2133   -6.9299 C   0  0  0  0  0  0  0  0  0  0  0  0
    7.6863   -5.1978   -6.7495 N   0  0  0  0  0  0  0  0  0  0  0  0
    9.0639   -5.1553   -7.2344 C   0  0  0  0  0  0  0  0  0  0  0  0
    9.1147   -4.5351   -8.6247 C   0  0  0  0  0  0  0  0  0  0  0  0
    7.0394   -4.1964   -6.1116 C   0  0  0  0  0  0  0  0  0  0  0  0
    5.7393   -4.5883   -5.8760 C   0  0  0  0  0  0  0  0  0  0  0  0
    4.6344   -3.8770   -5.2255 C   0  0  0  0  0  0  0  0  0  0  0  0
    4.8181   -2.7482   -4.6969 O   0  0  0  0  0  0  0  0  0  0  0  0
    3.3159   -4.5655   -5.1846 C   0  0  0  0  0  0  0  0  0  0  0  0
    2.1446   -4.0405   -4.6337 C   0  0  0  0  0  0  0  0  0  0  0  0
    1.8529   -2.6513   -4.2427 C   0  0  0  0  0  0  0  0  0  0  0  0
    2.1151   -1.5969   -5.1429 C   0  0  0  0  0  0  0  0  0  0  0  0
    1.6598   -0.3156   -4.8290 C   0  0  0  0  0  0  0  0  0  0  0  0
    0.9601   -0.0796   -3.6620 C   0  0  0  0  0  0  0  0  0  0  0  0
    0.6878   -1.1000   -2.7508 C   0  0  0  0  0  0  0  0  0  0  0  0
    1.1355   -2.3961   -3.0509 C   0  0  0  0  0  0  0  0  0  0  0  0
    0.5288    1.3025   -3.6678 C   0  0  0  0  0  0  0  0  0  0  0  0
    0.9725    1.8870   -4.8362 C   0  0  0  0  0  0  0  0  0  0  0  0
    1.7446    0.9166   -5.6807 C   0  0  0  0  0  0  0  0  0  0  0  0
    0.6607    3.2133   -5.1353 C   0  0  0  0  0  0  0  0  0  0  0  0
   -0.1248    3.9554   -4.2278 C   0  0  0  0  0  0  0  0  0  0  0  0
   -0.5610    3.3421   -3.0235 C   0  0  0  0  0  0  0  0  0  0  0  0
   -0.2401    2.0052   -2.7426 C   0  0  0  0  0  0  0  0  0  0  0  0
   -0.4409    5.3656   -4.5602 C   0  0  0  0  0  0  0  0  0  0  0  0
   -1.4448    6.0538   -4.0156 C   0  0  0  0  0  0  0  0  0  0  0  0
    8.3377    0.6153    6.1299 H   0  0  0  0  0  0  0  0  0  0  0  0
    8.1145    1.8059    8.3120 H   0  0  0  0  0  0  0  0  0  0  0  0
    4.5791    2.2843    4.8172 H   0  0  0  0  0  0  0  0  0  0  0  0
    6.5801    0.8579    4.3894 H   0  0  0  0  0  0  0  0  0  0  0  0
    6.6493    4.2848    9.1812 H   0  0  0  0  0  0  0  0  0  0  0  0
    5.7494    2.8387    9.8833 H   0  0  0  0  0  0  0  0  0  0  0  0
    4.0456    5.2744   10.3134 H   0  0  0  0  0  0  0  0  0  0  0  0
    1.3160    5.3918    6.9447 H   0  0  0  0  0  0  0  0  0  0  0  0
    2.7885    3.8457    5.6937 H   0  0  0  0  0  0  0  0  0  0  0  0
    2.1091    7.1604   10.0134 H   0  0  0  0  0  0  0  0  0  0  0  0
   -0.2561    6.9107   10.0909 H   0  0  0  0  0  0  0  0  0  0  0  0
   -1.7104    6.0638    7.8042 H   0  0  0  0  0  0  0  0  0  0  0  0
   -0.2070    1.5248    9.2523 H   0  0  0  0  0  0  0  0  0  0  0  0
    0.8295    3.5439   10.2501 H   0  0  0  0  0  0  0  0  0  0  0  0
   -3.9483    4.2337    6.7916 H   0  0  0  0  0  0  0  0  0  0  0  0
   -2.5783    4.3468    5.5673 H   0  0  0  0  0  0  0  0  0  0  0  0
   -4.3058    2.1980    4.5836 H   0  0  0  0  0  0  0  0  0  0  0  0
   -2.5959   -1.4905    6.1316 H   0  0  0  0  0  0  0  0  0  0  0  0
   -1.3995   -0.1944    7.8607 H   0  0  0  0  0  0  0  0  0  0  0  0
   -4.0742   -1.6601    4.2490 H   0  0  0  0  0  0  0  0  0  0  0  0
   -4.7010    0.9675    2.8305 H   0  0  0  0  0  0  0  0  0  0  0  0
   -7.9376    2.8421   -0.8808 H   0  0  0  0  0  0  0  0  0  0  0  0
   -9.5035    3.2151   -2.9646 H   0  0  0  0  0  0  0  0  0  0  0  0
   -9.6580    1.8640   -4.1405 H   0  0  0  0  0  0  0  0  0  0  0  0
   -8.3694    3.7714   -5.1082 H   0  0  0  0  0  0  0  0  0  0  0  0
   -7.1626    3.6491   -3.7694 H   0  0  0  0  0  0  0  0  0  0  0  0
   -7.3321    2.3001   -4.9641 H   0  0  0  0  0  0  0  0  0  0  0  0
   -8.1750   -0.3035   -3.7025 H   0  0  0  0  0  0  0  0  0  0  0  0
   -4.4052   -2.8302   -2.5452 H   0  0  0  0  0  0  0  0  0  0  0  0
   -3.5697   -7.2110   -0.3182 H   0  0  0  0  0  0  0  0  0  0  0  0
   -4.6569   -5.3854    0.9497 H   0  0  0  0  0  0  0  0  0  0  0  0
   -2.4974   -4.0178   -4.3176 H   0  0  0  0  0  0  0  0  0  0  0  0
   -4.0548   -4.7944   -4.9168 H   0  0  0  0  0  0  0  0  0  0  0  0
   -1.5512   -6.0794   -6.1425 H   0  0  0  0  0  0  0  0  0  0  0  0
   -0.4741   -9.3787   -3.5555 H   0  0  0  0  0  0  0  0  0  0  0  0
   -2.0676   -8.5560   -1.8389 H   0  0  0  0  0  0  0  0  0  0  0  0
   -0.0740   -9.1838   -6.4105 H   0  0  0  0  0  0  0  0  0  0  0  0
    1.9262   -8.1500   -6.9081 H   0  0  0  0  0  0  0  0  0  0  0  0
    7.0368   -7.1418   -7.4364 H   0  0  0  0  0  0  0  0  0  0  0  0
    9.6900   -4.5582   -6.5376 H   0  0  0  0  0  0  0  0  0  0  0  0
    9.4820   -6.1835   -7.2755 H   0  0  0  0  0  0  0  0  0  0  0  0
   10.1690   -4.4498   -8.9596 H   0  0  0  0  0  0  0  0  0  0  0  0
    8.6567   -3.5228   -8.6147 H   0  0  0  0  0  0  0  0  0  0  0  0
    8.5618   -5.1758   -9.3458 H   0  0  0  0  0  0  0  0  0  0  0  0
    7.4807   -3.2408   -5.8530 H   0  0  0  0  0  0  0  0  0  0  0  0
    2.6076   -1.7801   -6.0898 H   0  0  0  0  0  0  0  0  0  0  0  0
    0.1167   -0.9087   -1.8520 H   0  0  0  0  0  0  0  0  0  0  0  0
    0.9000   -3.2069   -2.3725 H   0  0  0  0  0  0  0  0  0  0  0  0
    2.7983    1.2446   -5.8018 H   0  0  0  0  0  0  0  0  0  0  0  0
    1.2440    0.7580   -6.6585 H   0  0  0  0  0  0  0  0  0  0  0  0
    1.0064    3.6518   -6.0644 H   0  0  0  0  0  0  0  0  0  0  0  0
   -1.1347    3.8920   -2.2903 H   0  0  0  0  0  0  0  0  0  0  0  0
   -0.5829    1.5360   -1.8295 H   0  0  0  0  0  0  0  0  0  0  0  0
    0.1547    5.8606   -5.3192 H   0  0  0  0  0  0  0  0  0  0  0  0
   -1.6175    7.0801   -4.3183 H   0  0  0  0  0  0  0  0  0  0  0  0
   -2.1212    5.6177   -3.2941 H   0  0  0  0  0  0  0  0  0  0  0  0
  1  2  2  0
  2  3  1  0
  3  4  2  0
  4  5  1  0
  5  6  2  0
  4  7  1  0
  7  8  2  0
  8  9  1  0
  8 10  1  0
 10 11  2  0
 11 12  1  0
 12 13  2  0
 11 14  1  0
 14 15  2  3
 15 16  1  0
 16 17  2  0
 17 18  1  0
 18 19  2  0
 19 20  1  0
 20 21  2  0
 19 22  1  0
 22 23  2  0
 23 24  1  0
 23 25  1  0
 25 26  2  0
 26 27  1  0
 27 28  2  0
 26 29  1  0
 29 30  2  3
 30 31  1  0
 31 32  1  0
 31 33  2  0
 33 34  1  0
 34 35  2  0
 34 36  1  0
 36 37  2  0
 37 38  1  0
 38 39  1  0
 39 40  1  0
 38 41  1  0
 41 42  2  0
 42 43  1  0
 43 44  2  0
 43 45  1  0
 45 46  2  0
 46 47  1  0
 47 48  2  0
 48 49  1  0
 49 50  2  0
 50 51  1  0
 51 52  2  0
 50 53  1  0
 53 54  2  0
 54 55  1  0
 54 56  1  0
 56 57  2  0
 57 58  1  0
 58 59  2  0
 57 60  1  0
 60 61  2  3
 61 62  1  0
 62 63  1  0
 62 64  2  0
 64 65  1  0
 65 66  2  0
 65 67  1  0
 67 68  2  0
 68 69  1  0
 69 70  1  0
 70 71  1  0
 69 72  1  0
 72 73  2  0
 73 74  1  0
 74 75  2  0
 74 76  1  0
 76 77  2  0
 77 78  1  0
 78 79  2  0
 79 80  1  0
 80 81  2  0
 81 82  1  0
 82 83  2  0
 81 84  1  0
 84 85  2  0
 85 86  1  0
 85 87  1  0
 87 88  2  0
 88 89  1  0
 89 90  2  0
 88 91  1  0
 91 92  2  3
  6  1  1  0
 13  7  1  0
 21 16  1  0
 28 22  1  0
 46 32  1  0
 52 47  1  0
 59 53  1  0
 77 63  1  0
 83 78  1  0
 90 84  1  0
  9  3  1  0
 24 18  1  0
 45 33  1  0
 55 49  1  0
 76 64  1  0
 86 80  1  0
 42 36  1  0
 73 67  1  0
  1 93  1  0
  2 94  1  0
  5 95  1  0
  6 96  1  0
  9 97  1  0
  9 98  1  0
 10 99  1  0
 12100  1  0
 13101  1  0
 14102  1  0
 15103  1  0
 17104  1  0
 20105  1  0
 21106  1  0
 24107  1  0
 24108  1  0
 25109  1  0
 27110  1  0
 28111  1  0
 29112  1  0
 30113  1  0
 37114  1  0
 39115  1  0
 39116  1  0
 40117  1  0
 40118  1  0
 40119  1  0
 41120  1  0
 48121  1  0
 51122  1  0
 52123  1  0
 55124  1  0
 55125  1  0
 56126  1  0
 58127  1  0
 59128  1  0
 60129  1  0
 61130  1  0
 68131  1  0
 70132  1  0
 70133  1  0
 71134  1  0
 71135  1  0
 71136  1  0
 72137  1  0
 79138  1  0
 82139  1  0
 83140  1  0
 86141  1  0
 86142  1  0
 87143  1  0
 89144  1  0
 90145  1  0
 91146  1  0
 92147  1  0
 92148  1  0
M  END

