
     RDKit          3D

206223  0  0  0  0  0  0  0  0999 V2000
    1.7607   -0.9457   12.3389 C   0  0  0  0  0  0  0  0  0  0  0  0
    2.2834   -0.3033   11.2069 C   0  0  0  0  0  0  0  0  0  0  0  0
    2.7836    1.0076   11.2558 O   0  0  0  0  0  0  0  0  0  0  0  0
    2.9121    1.7726   12.4459 C   0  0  0  0  0  0  0  0  0  0  0  0
    2.3136   -0.9824    9.9870 C   0  0  0  0  0  0  0  0  0  0  0  0
    2.7626   -0.3203    8.8905 F   0  0  0  0  0  0  0  0  0  0  0  0
    1.8567   -2.3144    9.8880 C   0  0  0  0  0  0  0  0  0  0  0  0
    1.3369   -2.9598   11.0317 C   0  0  0  0  0  0  0  0  0  0  0  0
    0.9133   -4.2958   10.9154 O   0  0  0  0  0  0  0  0  0  0  0  0
    0.1853   -5.0273   11.8925 C   0  0  0  0  0  0  0  0  0  0  0  0
    1.2829   -2.2539   12.2564 C   0  0  0  0  0  0  0  0  0  0  0  0
    0.8086   -2.8237   13.3925 F   0  0  0  0  0  0  0  0  0  0  0  0
    1.9435   -3.0262    8.5876 C   0  0  0  0  0  0  0  0  0  0  0  0
    3.0030   -2.9247    7.6835 C   0  0  0  0  0  0  0  0  0  0  0  0
    2.8298   -3.7175    6.5379 C   0  0  0  0  0  0  0  0  0  0  0  0
    3.7269   -3.8217    5.4602 C   0  0  0  0  0  0  0  0  0  0  0  0
    4.9246   -2.9706    5.3716 C   0  0  0  0  0  0  0  0  0  0  0  0
    6.0600   -3.2514    6.1472 C   0  0  0  0  0  0  0  0  0  0  0  0
    7.1792   -2.4128    6.0807 C   0  0  0  0  0  0  0  0  0  0  0  0
    7.1659   -1.2855    5.2488 C   0  0  0  0  0  0  0  0  0  0  0  0
    8.6032   -0.2059    5.1874 S   0  0  0  0  0  0  0  0  0  0  0  0
    9.4852   -1.1772    3.9133 C   0  0  0  0  0  0  0  0  0  0  0  0
    9.0107   -0.8126    2.5122 C   0  0  0  0  0  0  0  0  0  0  0  0
    6.0216   -0.9896    4.4951 C   0  0  0  0  0  0  0  0  0  0  0  0
    5.9779    0.1239    3.7226 F   0  0  0  0  0  0  0  0  0  0  0  0
    4.9080   -1.8308    4.5539 C   0  0  0  0  0  0  0  0  0  0  0  0
    3.3709   -4.6857    4.4149 C   0  0  0  0  0  0  0  0  0  0  0  0
    2.1648   -5.3894    4.3984 C   0  0  0  0  0  0  0  0  0  0  0  0
    1.2573   -5.2849    5.4742 C   0  0  0  0  0  0  0  0  0  0  0  0
   -0.0119   -6.0432    5.4996 C   0  0  0  0  0  0  0  0  0  0  0  0
    0.0101   -7.4483    5.4665 C   0  0  0  0  0  0  0  0  0  0  0  0
   -1.1832   -8.1740    5.5189 C   0  0  0  0  0  0  0  0  0  0  0  0
   -2.4107   -7.5047    5.5930 C   0  0  0  0  0  0  0  0  0  0  0  0
   -3.9361   -8.4513    5.7101 S   0  0  0  0  0  0  0  0  0  0  0  0
   -4.2940   -8.4296    3.9186 C   0  0  0  0  0  0  0  0  0  0  0  0
   -3.5150   -9.5147    3.1906 C   0  0  0  0  0  0  0  0  0  0  0  0
   -2.4381   -6.1037    5.6297 C   0  0  0  0  0  0  0  0  0  0  0  0
   -1.2437   -5.3771    5.5822 C   0  0  0  0  0  0  0  0  0  0  0  0
   -3.6193   -5.4425    5.7121 F   0  0  0  0  0  0  0  0  0  0  0  0
    1.6285   -4.4355    6.5332 C   0  0  0  0  0  0  0  0  0  0  0  0
    0.7944   -4.0956    7.9531 S   0  0  0  0  0  0  0  0  0  0  0  0
    1.9621   -6.0963    3.2013 C   0  0  0  0  0  0  0  0  0  0  0  0
    3.0235   -5.9826    2.2919 C   0  0  0  0  0  0  0  0  0  0  0  0
    4.1953   -4.9710    2.9817 S   0  0  0  0  0  0  0  0  0  0  0  0
    2.9396   -6.3909    0.8613 C   0  0  0  0  0  0  0  0  0  0  0  0
    2.0191   -7.3878    0.4607 C   0  0  0  0  0  0  0  0  0  0  0  0
    1.6227   -8.4283    1.3140 O   0  0  0  0  0  0  0  0  0  0  0  0
    2.5468   -9.2007    2.0745 C   0  0  0  0  0  0  0  0  0  0  0  0
    1.4280   -7.3068   -0.8034 C   0  0  0  0  0  0  0  0  0  0  0  0
    0.3982   -8.1372   -1.1092 F   0  0  0  0  0  0  0  0  0  0  0  0
    1.8245   -6.3125   -1.7116 C   0  0  0  0  0  0  0  0  0  0  0  0
    2.9651   -5.5354   -1.4240 C   0  0  0  0  0  0  0  0  0  0  0  0
    3.4596   -4.6543   -2.3960 O   0  0  0  0  0  0  0  0  0  0  0  0
    4.8427   -4.4569   -2.6666 C   0  0  0  0  0  0  0  0  0  0  0  0
    3.5200   -5.5774   -0.1328 C   0  0  0  0  0  0  0  0  0  0  0  0
    4.4740   -4.6748    0.1948 F   0  0  0  0  0  0  0  0  0  0  0  0
    0.8521   -5.8461   -2.7244 C   0  0  0  0  0  0  0  0  0  0  0  0
   -0.4019   -5.3912   -2.3270 C   0  0  0  0  0  0  0  0  0  0  0  0
   -0.9383   -4.4010   -3.1642 C   0  0  0  0  0  0  0  0  0  0  0  0
   -2.0555   -3.5916   -2.8652 C   0  0  0  0  0  0  0  0  0  0  0  0
   -2.8181   -3.7611   -1.6066 C   0  0  0  0  0  0  0  0  0  0  0  0
   -2.1862   -3.5699   -0.3656 C   0  0  0  0  0  0  0  0  0  0  0  0
   -2.8605   -3.8658    0.8203 C   0  0  0  0  0  0  0  0  0  0  0  0
   -4.1815   -4.3260    0.7842 C   0  0  0  0  0  0  0  0  0  0  0  0
   -4.9855   -4.8345    2.3083 S   0  0  0  0  0  0  0  0  0  0  0  0
   -5.5369   -3.1619    2.7931 C   0  0  0  0  0  0  0  0  0  0  0  0
   -6.8087   -2.7756    2.0510 C   0  0  0  0  0  0  0  0  0  0  0  0
   -4.8357   -4.4666   -0.4489 C   0  0  0  0  0  0  0  0  0  0  0  0
   -6.1129   -4.9192   -0.4997 F   0  0  0  0  0  0  0  0  0  0  0  0
   -4.1556   -4.1812   -1.6400 C   0  0  0  0  0  0  0  0  0  0  0  0
   -2.3007   -2.5083   -3.7263 C   0  0  0  0  0  0  0  0  0  0  0  0
   -1.4878   -2.2292   -4.8329 C   0  0  0  0  0  0  0  0  0  0  0  0
   -0.3934   -3.0612   -5.1505 C   0  0  0  0  0  0  0  0  0  0  0  0
    0.5466   -2.7190   -6.2391 C   0  0  0  0  0  0  0  0  0  0  0  0
    0.1146   -2.7329   -7.5745 C   0  0  0  0  0  0  0  0  0  0  0  0
    0.9989   -2.3899   -8.6023 C   0  0  0  0  0  0  0  0  0  0  0  0
    2.3199   -2.0339   -8.3065 C   0  0  0  0  0  0  0  0  0  0  0  0
    3.4392   -1.5816   -9.6368 S   0  0  0  0  0  0  0  0  0  0  0  0
    3.9706   -3.2932  -10.0061 C   0  0  0  0  0  0  0  0  0  0  0  0
    5.0836   -3.7351   -9.0639 C   0  0  0  0  0  0  0  0  0  0  0  0
    2.7485   -1.9987   -6.9712 C   0  0  0  0  0  0  0  0  0  0  0  0
    1.8658   -2.3428   -5.9447 C   0  0  0  0  0  0  0  0  0  0  0  0
    4.0124   -1.6156   -6.6640 F   0  0  0  0  0  0  0  0  0  0  0  0
   -0.1413   -4.1363   -4.2804 C   0  0  0  0  0  0  0  0  0  0  0  0
    1.2403   -5.0952   -4.1917 S   0  0  0  0  0  0  0  0  0  0  0  0
   -1.7588   -0.9778   -5.4143 C   0  0  0  0  0  0  0  0  0  0  0  0
   -2.7584   -0.2671   -4.7478 C   0  0  0  0  0  0  0  0  0  0  0  0
   -3.3314   -1.2058   -3.4647 S   0  0  0  0  0  0  0  0  0  0  0  0
   -2.9949    1.1755   -4.8936 C   0  0  0  0  0  0  0  0  0  0  0  0
   -3.7573    1.9536   -4.0266 C   0  0  0  0  0  0  0  0  0  0  0  0
   -3.5650    3.3336   -4.2112 C   0  0  0  0  0  0  0  0  0  0  0  0
   -4.1521    4.3659   -3.4491 C   0  0  0  0  0  0  0  0  0  0  0  0
   -5.0716    4.0861   -2.3310 C   0  0  0  0  0  0  0  0  0  0  0  0
   -6.4140    4.4891   -2.4002 C   0  0  0  0  0  0  0  0  0  0  0  0
   -7.2925    4.1883   -1.3549 C   0  0  0  0  0  0  0  0  0  0  0  0
   -6.8334    3.4928   -0.2285 C   0  0  0  0  0  0  0  0  0  0  0  0
   -7.9743    3.0861    1.0978 S   0  0  0  0  0  0  0  0  0  0  0  0
   -8.6102    1.5594    0.3149 C   0  0  0  0  0  0  0  0  0  0  0  0
   -7.5921    0.4271    0.3742 C   0  0  0  0  0  0  0  0  0  0  0  0
   -5.4859    3.1203   -0.1410 C   0  0  0  0  0  0  0  0  0  0  0  0
   -5.0202    2.4680    0.9552 F   0  0  0  0  0  0  0  0  0  0  0  0
   -4.6083    3.4151   -1.1897 C   0  0  0  0  0  0  0  0  0  0  0  0
   -3.7695    5.6834   -3.7610 C   0  0  0  0  0  0  0  0  0  0  0  0
   -2.8456    5.9805   -4.7674 C   0  0  0  0  0  0  0  0  0  0  0  0
   -2.2774    4.9514   -5.5506 C   0  0  0  0  0  0  0  0  0  0  0  0
   -1.3210    5.2357   -6.6438 C   0  0  0  0  0  0  0  0  0  0  0  0
   -1.6927    6.0869   -7.6951 C   0  0  0  0  0  0  0  0  0  0  0  0
   -0.7934    6.3759   -8.7229 C   0  0  0  0  0  0  0  0  0  0  0  0
    0.4830    5.7991   -8.7212 C   0  0  0  0  0  0  0  0  0  0  0  0
    1.6218    6.1568  -10.0633 S   0  0  0  0  0  0  0  0  0  0  0  0
    2.5690    7.4256   -9.1516 C   0  0  0  0  0  0  0  0  0  0  0  0
    1.7921    8.7318   -9.0248 C   0  0  0  0  0  0  0  0  0  0  0  0
    0.8524    4.9325   -7.6845 C   0  0  0  0  0  0  0  0  0  0  0  0
   -0.0410    4.6576   -6.6449 C   0  0  0  0  0  0  0  0  0  0  0  0
    2.0833    4.3598   -7.6729 F   0  0  0  0  0  0  0  0  0  0  0  0
   -2.6648    3.6336   -5.2377 C   0  0  0  0  0  0  0  0  0  0  0  0
   -2.1137    2.1936   -5.9115 S   0  0  0  0  0  0  0  0  0  0  0  0
   -2.5275    7.3486   -4.8323 C   0  0  0  0  0  0  0  0  0  0  0  0
   -3.2180    8.1218   -3.8972 C   0  0  0  0  0  0  0  0  0  0  0  0
   -4.2033    7.1032   -2.9750 S   0  0  0  0  0  0  0  0  0  0  0  0
   -3.0703    9.5850   -3.6983 C   0  0  0  0  0  0  0  0  0  0  0  0
   -2.9284   10.4580   -4.8043 C   0  0  0  0  0  0  0  0  0  0  0  0
   -2.9478    9.9050   -6.0989 O   0  0  0  0  0  0  0  0  0  0  0  0
   -2.5848   10.5807   -7.2955 C   0  0  0  0  0  0  0  0  0  0  0  0
   -2.7955   11.8456   -4.5751 C   0  0  0  0  0  0  0  0  0  0  0  0
   -2.7051   12.7296   -5.5977 F   0  0  0  0  0  0  0  0  0  0  0  0
   -2.7783   12.3480   -3.2756 C   0  0  0  0  0  0  0  0  0  0  0  0
   -2.9030   11.4857   -2.1766 C   0  0  0  0  0  0  0  0  0  0  0  0
   -2.8756   11.9496   -0.8535 O   0  0  0  0  0  0  0  0  0  0  0  0
   -2.6730   13.3114   -0.4773 C   0  0  0  0  0  0  0  0  0  0  0  0
   -3.0529   10.1142   -2.3926 C   0  0  0  0  0  0  0  0  0  0  0  0
   -3.1361    9.2921   -1.3138 F   0  0  0  0  0  0  0  0  0  0  0  0
    1.7195   -0.4405   13.2931 H   0  0  0  0  0  0  0  0  0  0  0  0
    1.9084    1.9880   12.8727 H   0  0  0  0  0  0  0  0  0  0  0  0
    3.5347    1.2267   13.1860 H   0  0  0  0  0  0  0  0  0  0  0  0
    3.4153    2.7332   12.2046 H   0  0  0  0  0  0  0  0  0  0  0  0
   -0.7472   -4.4847   12.1537 H   0  0  0  0  0  0  0  0  0  0  0  0
   -0.0941   -6.0123   11.4681 H   0  0  0  0  0  0  0  0  0  0  0  0
    0.8121   -5.1976   12.7928 H   0  0  0  0  0  0  0  0  0  0  0  0
    3.8773   -2.3162    7.8577 H   0  0  0  0  0  0  0  0  0  0  0  0
    6.0788   -4.1183    6.7958 H   0  0  0  0  0  0  0  0  0  0  0  0
    8.0516   -2.6400    6.6788 H   0  0  0  0  0  0  0  0  0  0  0  0
   10.5675   -0.9447    3.9948 H   0  0  0  0  0  0  0  0  0  0  0  0
    9.3593   -2.2670    4.0849 H   0  0  0  0  0  0  0  0  0  0  0  0
    9.6287   -1.3469    1.7581 H   0  0  0  0  0  0  0  0  0  0  0  0
    7.9510   -1.1070    2.3719 H   0  0  0  0  0  0  0  0  0  0  0  0
    9.1157    0.2796    2.3472 H   0  0  0  0  0  0  0  0  0  0  0  0
    4.0281   -1.5932    3.9692 H   0  0  0  0  0  0  0  0  0  0  0  0
    0.9525   -7.9792    5.4157 H   0  0  0  0  0  0  0  0  0  0  0  0
   -1.1509   -9.2549    5.4998 H   0  0  0  0  0  0  0  0  0  0  0  0
   -4.0596   -7.4370    3.4811 H   0  0  0  0  0  0  0  0  0  0  0  0
   -5.3818   -8.6161    3.7818 H   0  0  0  0  0  0  0  0  0  0  0  0
   -3.7215  -10.5112    3.6383 H   0  0  0  0  0  0  0  0  0  0  0  0
   -3.8239   -9.5336    2.1222 H   0  0  0  0  0  0  0  0  0  0  0  0
   -2.4257   -9.3059    3.2386 H   0  0  0  0  0  0  0  0  0  0  0  0
   -1.2769   -4.2940    5.6028 H   0  0  0  0  0  0  0  0  0  0  0  0
    1.0337   -6.6024    2.9746 H   0  0  0  0  0  0  0  0  0  0  0  0
    1.9839   -9.9402    2.6822 H   0  0  0  0  0  0  0  0  0  0  0  0
    3.1454   -8.5686    2.7588 H   0  0  0  0  0  0  0  0  0  0  0  0
    3.2304   -9.7477    1.3878 H   0  0  0  0  0  0  0  0  0  0  0  0
    4.9425   -3.8824   -3.6120 H   0  0  0  0  0  0  0  0  0  0  0  0
    5.3375   -3.8792   -1.8585 H   0  0  0  0  0  0  0  0  0  0  0  0
    5.3478   -5.4389   -2.7945 H   0  0  0  0  0  0  0  0  0  0  0  0
   -0.8343   -5.6594   -1.3714 H   0  0  0  0  0  0  0  0  0  0  0  0
   -1.1562   -3.2352   -0.3216 H   0  0  0  0  0  0  0  0  0  0  0  0
   -2.3482   -3.7618    1.7673 H   0  0  0  0  0  0  0  0  0  0  0  0
   -4.7395   -2.4115    2.6064 H   0  0  0  0  0  0  0  0  0  0  0  0
   -5.7444   -3.1734    3.8821 H   0  0  0  0  0  0  0  0  0  0  0  0
   -6.5852   -2.5842    0.9791 H   0  0  0  0  0  0  0  0  0  0  0  0
   -7.2292   -1.8526    2.4985 H   0  0  0  0  0  0  0  0  0  0  0  0
   -7.5655   -3.5855    2.1301 H   0  0  0  0  0  0  0  0  0  0  0  0
   -4.6596   -4.3214   -2.5882 H   0  0  0  0  0  0  0  0  0  0  0  0
   -0.9047   -3.0089   -7.8177 H   0  0  0  0  0  0  0  0  0  0  0  0
    0.6552   -2.4036   -9.6281 H   0  0  0  0  0  0  0  0  0  0  0  0
    4.3574   -3.3163  -11.0479 H   0  0  0  0  0  0  0  0  0  0  0  0
    3.1133   -3.9984   -9.9445 H   0  0  0  0  0  0  0  0  0  0  0  0
    5.4603   -4.7318   -9.3755 H   0  0  0  0  0  0  0  0  0  0  0  0
    5.9221   -3.0089   -9.0977 H   0  0  0  0  0  0  0  0  0  0  0  0
    4.7014   -3.8142   -8.0255 H   0  0  0  0  0  0  0  0  0  0  0  0
    2.2068   -2.3057   -4.9167 H   0  0  0  0  0  0  0  0  0  0  0  0
   -1.1653   -0.5514   -6.2121 H   0  0  0  0  0  0  0  0  0  0  0  0
   -4.3820    1.5342   -3.2495 H   0  0  0  0  0  0  0  0  0  0  0  0
   -6.7831    5.0145   -3.2721 H   0  0  0  0  0  0  0  0  0  0  0  0
   -8.3292    4.4887   -1.4256 H   0  0  0  0  0  0  0  0  0  0  0  0
   -9.5218    1.2474    0.8678 H   0  0  0  0  0  0  0  0  0  0  0  0
   -8.9013    1.7558   -0.7396 H   0  0  0  0  0  0  0  0  0  0  0  0
   -6.7467    0.6240   -0.3154 H   0  0  0  0  0  0  0  0  0  0  0  0
   -8.0755   -0.5224    0.0639 H   0  0  0  0  0  0  0  0  0  0  0  0
   -7.2063    0.3140    1.4073 H   0  0  0  0  0  0  0  0  0  0  0  0
   -3.5733    3.1085   -1.1187 H   0  0  0  0  0  0  0  0  0  0  0  0
   -2.6803    6.5283   -7.7198 H   0  0  0  0  0  0  0  0  0  0  0  0
   -1.0890    7.0433   -9.5212 H   0  0  0  0  0  0  0  0  0  0  0  0
    3.5084    7.6194   -9.7122 H   0  0  0  0  0  0  0  0  0  0  0  0
    2.8515    7.0551   -8.1440 H   0  0  0  0  0  0  0  0  0  0  0  0
    1.4716    9.0879  -10.0278 H   0  0  0  0  0  0  0  0  0  0  0  0
    2.4491    9.4995   -8.5619 H   0  0  0  0  0  0  0  0  0  0  0  0
    0.9030    8.5946   -8.3737 H   0  0  0  0  0  0  0  0  0  0  0  0
    0.2684    4.0050   -5.8382 H   0  0  0  0  0  0  0  0  0  0  0  0
   -1.7828    7.7558   -5.5036 H   0  0  0  0  0  0  0  0  0  0  0  0
   -1.5725   11.0290   -7.1885 H   0  0  0  0  0  0  0  0  0  0  0  0
   -2.5545    9.8478   -8.1294 H   0  0  0  0  0  0  0  0  0  0  0  0
   -3.3397   11.3563   -7.5392 H   0  0  0  0  0  0  0  0  0  0  0  0
   -2.6782   13.4157   -3.1316 H   0  0  0  0  0  0  0  0  0  0  0  0
   -3.4925   13.9453   -0.8776 H   0  0  0  0  0  0  0  0  0  0  0  0
   -2.6725   13.3815    0.6292 H   0  0  0  0  0  0  0  0  0  0  0  0
   -1.6925   13.6673   -0.8600 H   0  0  0  0  0  0  0  0  0  0  0  0
  1  2  2  0
  2  3  1  0
  3  4  1  0
  2  5  1  0
  5  6  1  0
  5  7  2  0
  7  8  1  0
  8  9  1  0
  9 10  1  0
  8 11  2  0
 11 12  1  0
  7 13  1  0
 13 14  2  0
 14 15  1  0
 15 16  2  0
 16 17  1  0
 17 18  2  0
 18 19  1  0
 19 20  2  0
 20 21  1  0
 21 22  1  0
 22 23  1  0
 20 24  1  0
 24 25  1  0
 24 26  2  0
 16 27  1  0
 27 28  2  0
 28 29  1  0
 29 30  1  0
 30 31  2  0
 31 32  1  0
 32 33  2  0
 33 34  1  0
 34 35  1  0
 35 36  1  0
 33 37  1  0
 37 38  2  0
 37 39  1  0
 29 40  2  0
 40 41  1  0
 28 42  1  0
 42 43  2  0
 43 44  1  0
 43 45  1  0
 45 46  2  0
 46 47  1  0
 47 48  1  0
 46 49  1  0
 49 50  1  0
 49 51  2  0
 51 52  1  0
 52 53  1  0
 53 54  1  0
 52 55  2  0
 55 56  1  0
 51 57  1  0
 57 58  2  0
 58 59  1  0
 59 60  2  0
 60 61  1  0
 61 62  2  0
 62 63  1  0
 63 64  2  0
 64 65  1  0
 65 66  1  0
 66 67  1  0
 64 68  1  0
 68 69  1  0
 68 70  2  0
 60 71  1  0
 71 72  2  0
 72 73  1  0
 73 74  1  0
 74 75  2  0
 75 76  1  0
 76 77  2  0
 77 78  1  0
 78 79  1  0
 79 80  1  0
 77 81  1  0
 81 82  2  0
 81 83  1  0
 73 84  2  0
 84 85  1  0
 72 86  1  0
 86 87  2  0
 87 88  1  0
 87 89  1  0
 89 90  2  0
 90 91  1  0
 91 92  2  0
 92 93  1  0
 93 94  2  0
 94 95  1  0
 95 96  2  0
 96 97  1  0
 97 98  1  0
 98 99  1  0
 96100  1  0
100101  1  0
100102  2  0
 92103  1  0
103104  2  0
104105  1  0
105106  1  0
106107  2  0
107108  1  0
108109  2  0
109110  1  0
110111  1  0
111112  1  0
109113  1  0
113114  2  0
113115  1  0
105116  2  0
116117  1  0
104118  1  0
118119  2  0
119120  1  0
119121  1  0
121122  2  0
122123  1  0
123124  1  0
122125  1  0
125126  1  0
125127  2  0
127128  1  0
128129  1  0
129130  1  0
128131  2  0
131132  1  0
 11  1  1  0
 41 13  1  0
 55 45  1  0
 85 57  1  0
117 89  1  0
131121  1  0
 40 15  1  0
 84 59  1  0
116 91  1  0
 26 17  1  0
 44 27  1  0
 70 61  1  0
 88 71  1  0
102 93  1  0
120103  1  0
 38 30  1  0
 82 74  1  0
114106  1  0
  1133  1  0
  4134  1  0
  4135  1  0
  4136  1  0
 10137  1  0
 10138  1  0
 10139  1  0
 14140  1  0
 18141  1  0
 19142  1  0
 22143  1  0
 22144  1  0
 23145  1  0
 23146  1  0
 23147  1  0
 26148  1  0
 31149  1  0
 32150  1  0
 35151  1  0
 35152  1  0
 36153  1  0
 36154  1  0
 36155  1  0
 38156  1  0
 42157  1  0
 48158  1  0
 48159  1  0
 48160  1  0
 54161  1  0
 54162  1  0
 54163  1  0
 58164  1  0
 62165  1  0
 63166  1  0
 66167  1  0
 66168  1  0
 67169  1  0
 67170  1  0
 67171  1  0
 70172  1  0
 75173  1  0
 76174  1  0
 79175  1  0
 79176  1  0
 80177  1  0
 80178  1  0
 80179  1  0
 82180  1  0
 86181  1  0
 90182  1  0
 94183  1  0
 95184  1  0
 98185  1  0
 98186  1  0
 99187  1  0
 99188  1  0
 99189  1  0
102190  1  0
107191  1  0
108192  1  0
111193  1  0
111194  1  0
112195  1  0
112196  1  0
112197  1  0
114198  1  0
118199  1  0
124200  1  0
124201  1  0
124202  1  0
127203  1  0
130204  1  0
130205  1  0
130206  1  0
M  END

