
     RDKit          3D

242267  0  0  0  0  0  0  0  0999 V2000
    3.9790   -9.7905   11.9514 C   0  0  0  0  0  0  0  0  0  0  0  0
    4.7753   -9.2144   10.9642 C   0  0  0  0  0  0  0  0  0  0  0  0
    4.1814   -8.0975   10.3565 C   0  0  0  0  0  0  0  0  0  0  0  0
    4.7352   -7.3222    9.3198 C   0  0  0  0  0  0  0  0  0  0  0  0
    6.0794   -7.5903    8.7793 C   0  0  0  0  0  0  0  0  0  0  0  0
    7.5130   -7.3418    9.6215 S   0  0  0  0  0  0  0  0  0  0  0  0
    8.5418   -7.7739    8.3592 C   0  0  0  0  0  0  0  0  0  0  0  0
   10.0350   -7.6854    8.4174 C   0  0  0  0  0  0  0  0  0  0  0  0
   10.5031   -6.2871    8.0312 C   0  0  0  0  0  0  0  0  0  0  0  0
    7.7670   -8.1003    7.2469 C   0  0  0  0  0  0  0  0  0  0  0  0
    8.4458   -8.5687    5.6948 Cl  0  0  0  0  0  0  0  0  0  0  0  0
    6.3870   -8.0040    7.4847 C   0  0  0  0  0  0  0  0  0  0  0  0
    5.1668   -8.3823    6.2747 Cl  0  0  0  0  0  0  0  0  0  0  0  0
    3.9589   -6.2572    8.8399 C   0  0  0  0  0  0  0  0  0  0  0  0
    2.6953   -5.9460    9.3552 C   0  0  0  0  0  0  0  0  0  0  0  0
    2.1338   -6.7296   10.3874 C   0  0  0  0  0  0  0  0  0  0  0  0
    0.7790   -6.4756   10.9166 C   0  0  0  0  0  0  0  0  0  0  0  0
   -0.4995   -7.5656   10.8258 S   0  0  0  0  0  0  0  0  0  0  0  0
   -1.6336   -6.5807   11.5760 C   0  0  0  0  0  0  0  0  0  0  0  0
   -3.0697   -6.9527   11.7970 C   0  0  0  0  0  0  0  0  0  0  0  0
   -3.9492   -6.4185   10.6718 C   0  0  0  0  0  0  0  0  0  0  0  0
   -1.0267   -5.3704   11.9034 C   0  0  0  0  0  0  0  0  0  0  0  0
    0.3285   -5.3118   11.5392 C   0  0  0  0  0  0  0  0  0  0  0  0
    1.3622   -3.9319   11.8927 Cl  0  0  0  0  0  0  0  0  0  0  0  0
   -1.8689   -4.0458   12.6974 Cl  0  0  0  0  0  0  0  0  0  0  0  0
    2.9111   -7.8029   10.8616 C   0  0  0  0  0  0  0  0  0  0  0  0
    2.5391   -8.9169   12.0684 S   0  0  0  0  0  0  0  0  0  0  0  0
    2.0982   -4.8458    8.7162 C   0  0  0  0  0  0  0  0  0  0  0  0
    2.9007   -4.3108    7.7142 C   0  0  0  0  0  0  0  0  0  0  0  0
    4.3376   -5.1846    7.6019 S   0  0  0  0  0  0  0  0  0  0  0  0
    2.5500   -3.2022    6.8333 C   0  0  0  0  0  0  0  0  0  0  0  0
    2.3619   -1.8812    7.2264 C   0  0  0  0  0  0  0  0  0  0  0  0
    2.1992   -1.0114    6.1331 C   0  0  0  0  0  0  0  0  0  0  0  0
    2.0355    0.3910    6.1886 C   0  0  0  0  0  0  0  0  0  0  0  0
    1.9158    1.1163    7.4680 C   0  0  0  0  0  0  0  0  0  0  0  0
    2.9103    2.3834    7.9546 S   0  0  0  0  0  0  0  0  0  0  0  0
    2.1430    2.6693    9.4223 C   0  0  0  0  0  0  0  0  0  0  0  0
    2.4968    3.7798   10.3642 C   0  0  0  0  0  0  0  0  0  0  0  0
    1.8163    5.0778    9.9458 C   0  0  0  0  0  0  0  0  0  0  0  0
    1.0709    1.7865    9.5403 C   0  0  0  0  0  0  0  0  0  0  0  0
   -0.0376    1.7838   10.9073 Cl  0  0  0  0  0  0  0  0  0  0  0  0
    0.9427    0.9142    8.4468 C   0  0  0  0  0  0  0  0  0  0  0  0
   -0.3748   -0.2434    8.2897 Cl  0  0  0  0  0  0  0  0  0  0  0  0
    2.0000    1.0702    4.9567 C   0  0  0  0  0  0  0  0  0  0  0  0
    2.0685    0.4037    3.7277 C   0  0  0  0  0  0  0  0  0  0  0  0
    2.1541   -0.9984    3.6744 C   0  0  0  0  0  0  0  0  0  0  0  0
    1.9897   -1.7468    2.4137 C   0  0  0  0  0  0  0  0  0  0  0  0
    3.1014   -2.8371    1.7779 S   0  0  0  0  0  0  0  0  0  0  0  0
    2.1013   -3.4279    0.5606 C   0  0  0  0  0  0  0  0  0  0  0  0
    2.4504   -4.5686   -0.3440 C   0  0  0  0  0  0  0  0  0  0  0  0
    2.1538   -5.9014    0.3358 C   0  0  0  0  0  0  0  0  0  0  0  0
    0.8631   -2.7975    0.6572 C   0  0  0  0  0  0  0  0  0  0  0  0
    0.8036   -1.8468    1.6879 C   0  0  0  0  0  0  0  0  0  0  0  0
   -0.6604   -0.9569    2.0907 Cl  0  0  0  0  0  0  0  0  0  0  0  0
   -0.5145   -3.2005   -0.3639 Cl  0  0  0  0  0  0  0  0  0  0  0  0
    2.2641   -1.6708    4.8986 C   0  0  0  0  0  0  0  0  0  0  0  0
    2.5180   -3.3120    5.1542 S   0  0  0  0  0  0  0  0  0  0  0  0
    2.0360    1.2652    2.6263 C   0  0  0  0  0  0  0  0  0  0  0  0
    1.9150    2.6038    2.9880 C   0  0  0  0  0  0  0  0  0  0  0  0
    1.8330    2.7239    4.6706 S   0  0  0  0  0  0  0  0  0  0  0  0
    1.7618    3.7042    2.0313 C   0  0  0  0  0  0  0  0  0  0  0  0
    0.8945    4.7847    2.1881 C   0  0  0  0  0  0  0  0  0  0  0  0
    0.6533    5.4688    0.9815 C   0  0  0  0  0  0  0  0  0  0  0  0
   -0.3400    6.4491    0.7518 C   0  0  0  0  0  0  0  0  0  0  0  0
   -1.1306    7.0558    1.8438 C   0  0  0  0  0  0  0  0  0  0  0  0
   -2.0854    6.2203    2.9519 S   0  0  0  0  0  0  0  0  0  0  0  0
   -2.5867    7.5711    3.8203 C   0  0  0  0  0  0  0  0  0  0  0  0
   -3.4034    7.5218    5.0766 C   0  0  0  0  0  0  0  0  0  0  0  0
   -2.4985    7.4615    6.3041 C   0  0  0  0  0  0  0  0  0  0  0  0
   -1.9995    8.7032    3.2588 C   0  0  0  0  0  0  0  0  0  0  0  0
   -2.2187   10.3316    3.8873 Cl  0  0  0  0  0  0  0  0  0  0  0  0
   -1.1949    8.4149    2.1452 C   0  0  0  0  0  0  0  0  0  0  0  0
   -0.2967    9.6470    1.2643 Cl  0  0  0  0  0  0  0  0  0  0  0  0
   -0.5977    6.7777   -0.5930 C   0  0  0  0  0  0  0  0  0  0  0  0
    0.1673    6.2784   -1.6539 C   0  0  0  0  0  0  0  0  0  0  0  0
    1.2406    5.3999   -1.4094 C   0  0  0  0  0  0  0  0  0  0  0  0
    2.0843    4.8511   -2.4907 C   0  0  0  0  0  0  0  0  0  0  0  0
    1.5536    3.8489   -3.7347 S   0  0  0  0  0  0  0  0  0  0  0  0
    3.0628    3.6166   -4.4495 C   0  0  0  0  0  0  0  0  0  0  0  0
    3.3280    2.7301   -5.6323 C   0  0  0  0  0  0  0  0  0  0  0  0
    3.7327    1.3337   -5.1784 C   0  0  0  0  0  0  0  0  0  0  0  0
    4.0133    4.3037   -3.6967 C   0  0  0  0  0  0  0  0  0  0  0  0
    3.4676    4.9941   -2.6022 C   0  0  0  0  0  0  0  0  0  0  0  0
    4.4326    5.9507   -1.4847 Cl  0  0  0  0  0  0  0  0  0  0  0  0
    5.7298    4.2959   -4.0702 Cl  0  0  0  0  0  0  0  0  0  0  0  0
    1.4134    4.9721   -0.0853 C   0  0  0  0  0  0  0  0  0  0  0  0
    2.3035    3.6485    0.4362 S   0  0  0  0  0  0  0  0  0  0  0  0
   -0.3696    6.5849   -2.9129 C   0  0  0  0  0  0  0  0  0  0  0  0
   -1.6123    7.2188   -2.8460 C   0  0  0  0  0  0  0  0  0  0  0  0
   -1.9820    7.5035   -1.2208 S   0  0  0  0  0  0  0  0  0  0  0  0
   -2.6239    7.0718   -3.9064 C   0  0  0  0  0  0  0  0  0  0  0  0
   -3.8882    6.5307   -3.6640 C   0  0  0  0  0  0  0  0  0  0  0  0
   -4.4374    5.8781   -4.7795 C   0  0  0  0  0  0  0  0  0  0  0  0
   -5.5772    5.0457   -4.7628 C   0  0  0  0  0  0  0  0  0  0  0  0
   -6.4418    4.9441   -3.5702 C   0  0  0  0  0  0  0  0  0  0  0  0
   -6.6700    3.5543   -2.6472 S   0  0  0  0  0  0  0  0  0  0  0  0
   -7.7394    4.2410   -1.5432 C   0  0  0  0  0  0  0  0  0  0  0  0
   -8.4143    3.4947   -0.4312 C   0  0  0  0  0  0  0  0  0  0  0  0
   -9.7153    2.8655   -0.9141 C   0  0  0  0  0  0  0  0  0  0  0  0
   -7.9476    5.5729   -1.8964 C   0  0  0  0  0  0  0  0  0  0  0  0
   -9.0411    6.6459   -1.0341 Cl  0  0  0  0  0  0  0  0  0  0  0  0
   -7.2108    5.9699   -3.0248 C   0  0  0  0  0  0  0  0  0  0  0  0
   -7.2997    7.5866   -3.7110 Cl  0  0  0  0  0  0  0  0  0  0  0  0
   -5.7797    4.2250   -5.8854 C   0  0  0  0  0  0  0  0  0  0  0  0
   -4.9403    4.2633   -7.0039 C   0  0  0  0  0  0  0  0  0  0  0  0
   -3.8648    5.1736   -7.0671 C   0  0  0  0  0  0  0  0  0  0  0  0
   -2.9822    5.2430   -8.2547 C   0  0  0  0  0  0  0  0  0  0  0  0
   -1.3099    5.0389   -8.2512 S   0  0  0  0  0  0  0  0  0  0  0  0
   -1.0902    5.2657   -9.9015 C   0  0  0  0  0  0  0  0  0  0  0  0
    0.2457    5.3364  -10.5816 C   0  0  0  0  0  0  0  0  0  0  0  0
    0.7442    6.7774  -10.6403 C   0  0  0  0  0  0  0  0  0  0  0  0
   -2.3305    5.5147  -10.4854 C   0  0  0  0  0  0  0  0  0  0  0  0
   -3.3901    5.4975   -9.5650 C   0  0  0  0  0  0  0  0  0  0  0  0
   -5.0565    5.8486  -10.0147 Cl  0  0  0  0  0  0  0  0  0  0  0  0
   -2.5482    5.8368  -12.2004 Cl  0  0  0  0  0  0  0  0  0  0  0  0
   -3.6203    5.9404   -5.9132 C   0  0  0  0  0  0  0  0  0  0  0  0
   -2.2290    6.8006   -5.5241 S   0  0  0  0  0  0  0  0  0  0  0  0
   -5.1727    3.2145   -7.9047 C   0  0  0  0  0  0  0  0  0  0  0  0
   -6.1932    2.3547   -7.4977 C   0  0  0  0  0  0  0  0  0  0  0  0
   -6.8171    2.9064   -6.0292 S   0  0  0  0  0  0  0  0  0  0  0  0
   -6.2460    0.9772   -7.8901 N   0  0  0  0  0  0  0  0  0  0  0  0
   -7.5356    0.2846   -7.9275 C   0  0  0  0  0  0  0  0  0  0  0  0
   -7.5259   -0.8368   -8.9652 C   0  0  0  0  0  0  0  0  0  0  0  0
   -5.0393    0.2329   -7.6683 C   0  0  0  0  0  0  0  0  0  0  0  0
   -4.7028   -0.1712   -6.3704 C   0  0  0  0  0  0  0  0  0  0  0  0
   -3.4079   -0.5963   -6.0838 C   0  0  0  0  0  0  0  0  0  0  0  0
   -2.4319   -0.6458   -7.0916 C   0  0  0  0  0  0  0  0  0  0  0  0
   -2.7965   -0.3459   -8.4288 C   0  0  0  0  0  0  0  0  0  0  0  0
   -4.0956    0.1164   -8.6960 C   0  0  0  0  0  0  0  0  0  0  0  0
   -1.8424   -0.4251   -9.5587 C   0  0  0  0  0  0  0  0  0  0  0  0
   -0.9205   -1.3814   -9.6688 C   0  0  0  0  0  0  0  0  0  0  0  0
   -1.0517   -0.7940   -6.7085 N   0  0  0  0  0  0  0  0  0  0  0  0
   -0.1934    0.3944   -6.7804 C   0  0  0  0  0  0  0  0  0  0  0  0
   -0.2877    1.1927   -5.4859 C   0  0  0  0  0  0  0  0  0  0  0  0
   -0.6076   -2.0021   -6.0543 C   0  0  0  0  0  0  0  0  0  0  0  0
    0.6555   -2.2165   -5.4923 C   0  0  0  0  0  0  0  0  0  0  0  0
    0.8128   -3.5157   -4.9843 C   0  0  0  0  0  0  0  0  0  0  0  0
    1.9747   -4.0429   -4.3810 C   0  0  0  0  0  0  0  0  0  0  0  0
    3.1740   -3.2176   -4.1282 C   0  0  0  0  0  0  0  0  0  0  0  0
    4.7091   -3.5504   -4.7291 S   0  0  0  0  0  0  0  0  0  0  0  0
    5.4912   -2.2784   -3.9534 C   0  0  0  0  0  0  0  0  0  0  0  0
    6.9691   -2.0362   -4.0018 C   0  0  0  0  0  0  0  0  0  0  0  0
    7.6776   -2.7803   -2.8746 C   0  0  0  0  0  0  0  0  0  0  0  0
    4.5582   -1.5847   -3.1843 C   0  0  0  0  0  0  0  0  0  0  0  0
    4.9740   -0.2415   -2.1284 Cl  0  0  0  0  0  0  0  0  0  0  0  0
    3.2556   -2.0994   -3.2967 C   0  0  0  0  0  0  0  0  0  0  0  0
    1.8865   -1.4328   -2.4144 Cl  0  0  0  0  0  0  0  0  0  0  0  0
    1.9378   -5.4017   -4.0202 C   0  0  0  0  0  0  0  0  0  0  0  0
    0.8001   -6.1968   -4.1888 C   0  0  0  0  0  0  0  0  0  0  0  0
   -0.3702   -5.6582   -4.7586 C   0  0  0  0  0  0  0  0  0  0  0  0
   -1.5876   -6.4642   -4.9463 C   0  0  0  0  0  0  0  0  0  0  0  0
   -2.2168   -6.9171   -6.4391 S   0  0  0  0  0  0  0  0  0  0  0  0
   -3.5165   -7.7914   -5.8224 C   0  0  0  0  0  0  0  0  0  0  0  0
   -4.4666   -8.5919   -6.6595 C   0  0  0  0  0  0  0  0  0  0  0  0
   -3.9350  -10.0073   -6.8615 C   0  0  0  0  0  0  0  0  0  0  0  0
   -3.4636   -7.7536   -4.4301 C   0  0  0  0  0  0  0  0  0  0  0  0
   -2.3837   -7.0011   -3.9382 C   0  0  0  0  0  0  0  0  0  0  0  0
   -2.0955   -6.7331   -2.2239 Cl  0  0  0  0  0  0  0  0  0  0  0  0
   -4.6235   -8.5737   -3.3940 Cl  0  0  0  0  0  0  0  0  0  0  0  0
   -0.3191   -4.3171   -5.1684 C   0  0  0  0  0  0  0  0  0  0  0  0
   -1.5197   -3.4203   -5.9322 S   0  0  0  0  0  0  0  0  0  0  0  0
    0.9833   -7.5210   -3.7579 C   0  0  0  0  0  0  0  0  0  0  0  0
    2.2550   -7.7599   -3.2438 C   0  0  0  0  0  0  0  0  0  0  0  0
    3.1556   -6.3381   -3.3330 S   0  0  0  0  0  0  0  0  0  0  0  0
    4.2402  -10.6593   12.5374 H   0  0  0  0  0  0  0  0  0  0  0  0
    5.7464   -9.6097   10.6909 H   0  0  0  0  0  0  0  0  0  0  0  0
   10.4905   -8.4333    7.7360 H   0  0  0  0  0  0  0  0  0  0  0  0
   10.3731   -7.9125    9.4515 H   0  0  0  0  0  0  0  0  0  0  0  0
   10.1741   -6.0361    6.9994 H   0  0  0  0  0  0  0  0  0  0  0  0
   11.6117   -6.2398    8.0707 H   0  0  0  0  0  0  0  0  0  0  0  0
   10.0887   -5.5325    8.7357 H   0  0  0  0  0  0  0  0  0  0  0  0
   -3.1596   -8.0601   11.8349 H   0  0  0  0  0  0  0  0  0  0  0  0
   -3.4230   -6.5491   12.7710 H   0  0  0  0  0  0  0  0  0  0  0  0
   -5.0065   -6.7057   10.8583 H   0  0  0  0  0  0  0  0  0  0  0  0
   -3.8885   -5.3100   10.6188 H   0  0  0  0  0  0  0  0  0  0  0  0
   -3.6299   -6.8493    9.6991 H   0  0  0  0  0  0  0  0  0  0  0  0
    1.1106   -4.4674    8.9455 H   0  0  0  0  0  0  0  0  0  0  0  0
    2.3950   -1.5619    8.2618 H   0  0  0  0  0  0  0  0  0  0  0  0
    3.5972    3.9235   10.3683 H   0  0  0  0  0  0  0  0  0  0  0  0
    2.1847    3.5175   11.3971 H   0  0  0  0  0  0  0  0  0  0  0  0
    2.1716    5.3934    8.9410 H   0  0  0  0  0  0  0  0  0  0  0  0
    2.0613    5.8778   10.6762 H   0  0  0  0  0  0  0  0  0  0  0  0
    0.7134    4.9420    9.9182 H   0  0  0  0  0  0  0  0  0  0  0  0
    3.5283   -4.5130   -0.6047 H   0  0  0  0  0  0  0  0  0  0  0  0
    1.8638   -4.4961   -1.2823 H   0  0  0  0  0  0  0  0  0  0  0  0
    2.7285   -5.9970    1.2828 H   0  0  0  0  0  0  0  0  0  0  0  0
    2.4371   -6.7376   -0.3375 H   0  0  0  0  0  0  0  0  0  0  0  0
    1.0666   -5.9824    0.5565 H   0  0  0  0  0  0  0  0  0  0  0  0
    2.0698    0.9308    1.5978 H   0  0  0  0  0  0  0  0  0  0  0  0
    0.3748    4.9836    3.1158 H   0  0  0  0  0  0  0  0  0  0  0  0
   -4.0574    6.6234    5.0592 H   0  0  0  0  0  0  0  0  0  0  0  0
   -4.0570    8.4186    5.1376 H   0  0  0  0  0  0  0  0  0  0  0  0
   -3.1198    7.4204    7.2242 H   0  0  0  0  0  0  0  0  0  0  0  0
   -1.8490    8.3619    6.3520 H   0  0  0  0  0  0  0  0  0  0  0  0
   -1.8582    6.5548    6.2673 H   0  0  0  0  0  0  0  0  0  0  0  0
    2.4159    2.6646   -6.2617 H   0  0  0  0  0  0  0  0  0  0  0  0
    4.1347    3.1660   -6.2575 H   0  0  0  0  0  0  0  0  0  0  0  0
    2.9501    0.8959   -4.5220 H   0  0  0  0  0  0  0  0  0  0  0  0
    4.6969    1.3787   -4.6301 H   0  0  0  0  0  0  0  0  0  0  0  0
    3.8626    0.6733   -6.0628 H   0  0  0  0  0  0  0  0  0  0  0  0
    0.0447    6.2139   -3.8401 H   0  0  0  0  0  0  0  0  0  0  0  0
   -4.3150    6.4603   -2.6706 H   0  0  0  0  0  0  0  0  0  0  0  0
   -7.7345    2.6981   -0.0589 H   0  0  0  0  0  0  0  0  0  0  0  0
   -8.6263    4.1838    0.4135 H   0  0  0  0  0  0  0  0  0  0  0  0
  -10.4174    3.6544   -1.2611 H   0  0  0  0  0  0  0  0  0  0  0  0
   -9.5178    2.1590   -1.7484 H   0  0  0  0  0  0  0  0  0  0  0  0
  -10.1906    2.3101   -0.0794 H   0  0  0  0  0  0  0  0  0  0  0  0
    0.1654    4.9280  -11.6113 H   0  0  0  0  0  0  0  0  0  0  0  0
    0.9798    4.7180  -10.0221 H   0  0  0  0  0  0  0  0  0  0  0  0
    0.8827    7.1824   -9.6141 H   0  0  0  0  0  0  0  0  0  0  0  0
    0.0185    7.4162  -11.1885 H   0  0  0  0  0  0  0  0  0  0  0  0
    1.7195    6.8116  -11.1723 H   0  0  0  0  0  0  0  0  0  0  0  0
   -4.5375    3.0018   -8.7553 H   0  0  0  0  0  0  0  0  0  0  0  0
   -8.3393    1.0046   -8.1975 H   0  0  0  0  0  0  0  0  0  0  0  0
   -7.7646   -0.1354   -6.9246 H   0  0  0  0  0  0  0  0  0  0  0  0
   -8.5542   -1.2324   -9.0990 H   0  0  0  0  0  0  0  0  0  0  0  0
   -6.8701   -1.6652   -8.6279 H   0  0  0  0  0  0  0  0  0  0  0  0
   -7.1599   -0.4510   -9.9387 H   0  0  0  0  0  0  0  0  0  0  0  0
   -5.4168   -0.0589   -5.5663 H   0  0  0  0  0  0  0  0  0  0  0  0
   -3.1381   -0.8088   -5.0568 H   0  0  0  0  0  0  0  0  0  0  0  0
   -4.3649    0.4359   -9.6967 H   0  0  0  0  0  0  0  0  0  0  0  0
   -1.9478    0.2806  -10.3755 H   0  0  0  0  0  0  0  0  0  0  0  0
   -0.2713   -1.4057  -10.5331 H   0  0  0  0  0  0  0  0  0  0  0  0
   -0.8173   -2.1592   -8.9247 H   0  0  0  0  0  0  0  0  0  0  0  0
    0.8605    0.1130   -6.9869 H   0  0  0  0  0  0  0  0  0  0  0  0
   -0.5094    1.0511   -7.6207 H   0  0  0  0  0  0  0  0  0  0  0  0
   -1.3474    1.4165   -5.2466 H   0  0  0  0  0  0  0  0  0  0  0  0
    0.1708    0.6292   -4.6472 H   0  0  0  0  0  0  0  0  0  0  0  0
    0.2403    2.1554   -5.6128 H   0  0  0  0  0  0  0  0  0  0  0  0
    1.4358   -1.4698   -5.4571 H   0  0  0  0  0  0  0  0  0  0  0  0
    7.1790   -0.9499   -3.9161 H   0  0  0  0  0  0  0  0  0  0  0  0
    7.3677   -2.3857   -4.9790 H   0  0  0  0  0  0  0  0  0  0  0  0
    7.4934   -3.8732   -2.9557 H   0  0  0  0  0  0  0  0  0  0  0  0
    8.7705   -2.6002   -2.9421 H   0  0  0  0  0  0  0  0  0  0  0  0
    7.3205   -2.4192   -1.8849 H   0  0  0  0  0  0  0  0  0  0  0  0
   -5.4628   -8.6342   -6.1744 H   0  0  0  0  0  0  0  0  0  0  0  0
   -4.5869   -8.1012   -7.6489 H   0  0  0  0  0  0  0  0  0  0  0  0
   -3.8304  -10.5234   -5.8830 H   0  0  0  0  0  0  0  0  0  0  0  0
   -2.9445   -9.9770   -7.3647 H   0  0  0  0  0  0  0  0  0  0  0  0
   -4.6377  -10.5849   -7.4971 H   0  0  0  0  0  0  0  0  0  0  0  0
    0.2221   -8.2901   -3.8179 H   0  0  0  0  0  0  0  0  0  0  0  0
    2.6043   -8.7094   -2.8571 H   0  0  0  0  0  0  0  0  0  0  0  0
  1  2  2  0
  2  3  1  0
  3  4  2  0
  4  5  1  0
  5  6  1  0
  6  7  1  0
  7  8  1  0
  8  9  1  0
  7 10  2  0
 10 11  1  0
 10 12  1  0
 12 13  1  0
  4 14  1  0
 14 15  2  0
 15 16  1  0
 16 17  1  0
 17 18  1  0
 18 19  1  0
 19 20  1  0
 20 21  1  0
 19 22  2  0
 22 23  1  0
 23 24  1  0
 22 25  1  0
 16 26  2  0
 26 27  1  0
 15 28  1  0
 28 29  2  0
 29 30  1  0
 29 31  1  0
 31 32  2  0
 32 33  1  0
 33 34  2  0
 34 35  1  0
 35 36  1  0
 36 37  1  0
 37 38  1  0
 38 39  1  0
 37 40  2  0
 40 41  1  0
 40 42  1  0
 42 43  1  0
 34 44  1  0
 44 45  2  0
 45 46  1  0
 46 47  1  0
 47 48  1  0
 48 49  1  0
 49 50  1  0
 50 51  1  0
 49 52  2  0
 52 53  1  0
 53 54  1  0
 52 55  1  0
 46 56  2  0
 56 57  1  0
 45 58  1  0
 58 59  2  0
 59 60  1  0
 59 61  1  0
 61 62  2  0
 62 63  1  0
 63 64  2  0
 64 65  1  0
 65 66  1  0
 66 67  1  0
 67 68  1  0
 68 69  1  0
 67 70  2  0
 70 71  1  0
 70 72  1  0
 72 73  1  0
 64 74  1  0
 74 75  2  0
 75 76  1  0
 76 77  1  0
 77 78  1  0
 78 79  1  0
 79 80  1  0
 80 81  1  0
 79 82  2  0
 82 83  1  0
 83 84  1  0
 82 85  1  0
 76 86  2  0
 86 87  1  0
 75 88  1  0
 88 89  2  0
 89 90  1  0
 89 91  1  0
 91 92  2  0
 92 93  1  0
 93 94  2  0
 94 95  1  0
 95 96  1  0
 96 97  1  0
 97 98  1  0
 98 99  1  0
 97100  2  0
100101  1  0
100102  1  0
102103  1  0
 94104  1  0
104105  2  0
105106  1  0
106107  1  0
107108  1  0
108109  1  0
109110  1  0
110111  1  0
109112  2  0
112113  1  0
113114  1  0
112115  1  0
106116  2  0
116117  1  0
105118  1  0
118119  2  0
119120  1  0
119121  1  0
121122  1  0
122123  1  0
121124  1  0
124125  2  0
125126  1  0
126127  2  0
127128  1  0
128129  2  0
128130  1  0
130131  2  3
127132  1  0
132133  1  0
133134  1  0
132135  1  0
135136  2  0
136137  1  0
137138  2  0
138139  1  0
139140  1  0
140141  1  0
141142  1  0
142143  1  0
141144  2  0
144145  1  0
144146  1  0
146147  1  0
138148  1  0
148149  2  0
149150  1  0
150151  1  0
151152  1  0
152153  1  0
153154  1  0
154155  1  0
153156  2  0
156157  1  0
157158  1  0
156159  1  0
150160  2  0
160161  1  0
149162  1  0
162163  2  0
163164  1  0
 27  1  1  0
 57 31  1  0
 87 61  1  0
117 91  1  0
129124  1  0
161135  1  0
 26  3  1  0
 56 33  1  0
 86 63  1  0
116 93  1  0
160137  1  0
 12  5  2  0
 30 14  1  0
 42 35  2  0
 60 44  1  0
 72 65  2  0
 90 74  1  0
102 95  2  0
120104  1  0
146139  2  0
164148  1  0
 23 17  2  0
 53 47  2  0
 83 77  2  0
113107  2  0
157151  2  0
  1165  1  0
  2166  1  0
  8167  1  0
  8168  1  0
  9169  1  0
  9170  1  0
  9171  1  0
 20172  1  0
 20173  1  0
 21174  1  0
 21175  1  0
 21176  1  0
 28177  1  0
 32178  1  0
 38179  1  0
 38180  1  0
 39181  1  0
 39182  1  0
 39183  1  0
 50184  1  0
 50185  1  0
 51186  1  0
 51187  1  0
 51188  1  0
 58189  1  0
 62190  1  0
 68191  1  0
 68192  1  0
 69193  1  0
 69194  1  0
 69195  1  0
 80196  1  0
 80197  1  0
 81198  1  0
 81199  1  0
 81200  1  0
 88201  1  0
 92202  1  0
 98203  1  0
 98204  1  0
 99205  1  0
 99206  1  0
 99207  1  0
110208  1  0
110209  1  0
111210  1  0
111211  1  0
111212  1  0
118213  1  0
122214  1  0
122215  1  0
123216  1  0
123217  1  0
123218  1  0
125219  1  0
126220  1  0
129221  1  0
130222  1  0
131223  1  0
131224  1  0
133225  1  0
133226  1  0
134227  1  0
134228  1  0
134229  1  0
136230  1  0
142231  1  0
142232  1  0
143233  1  0
143234  1  0
143235  1  0
154236  1  0
154237  1  0
155238  1  0
155239  1  0
155240  1  0
162241  1  0
163242  1  0
M  END

