
     RDKit          3D

234260  0  0  0  0  0  0  0  0999 V2000
    2.2014   -8.9902   11.2578 C   0  0  0  0  0  0  0  0  0  0  0  0
    2.3795   -7.7501   10.6487 C   0  0  0  0  0  0  0  0  0  0  0  0
    1.4513   -7.5008    9.6238 C   0  0  0  0  0  0  0  0  0  0  0  0
    1.3813   -6.3449    8.8225 C   0  0  0  0  0  0  0  0  0  0  0  0
    2.3306   -5.2276    8.9705 C   0  0  0  0  0  0  0  0  0  0  0  0
    1.9145   -3.6777    9.4788 S   0  0  0  0  0  0  0  0  0  0  0  0
    3.4548   -3.0184    9.3296 C   0  0  0  0  0  0  0  0  0  0  0  0
    3.8270   -1.6233    9.7318 C   0  0  0  0  0  0  0  0  0  0  0  0
    4.3465   -1.5981   11.1641 C   0  0  0  0  0  0  0  0  0  0  0  0
    4.3240   -4.0142    8.8814 C   0  0  0  0  0  0  0  0  0  0  0  0
    6.0392   -3.7506    8.6026 Cl  0  0  0  0  0  0  0  0  0  0  0  0
    3.6902   -5.2504    8.6727 C   0  0  0  0  0  0  0  0  0  0  0  0
    4.5246   -6.6702    8.0602 Cl  0  0  0  0  0  0  0  0  0  0  0  0
    0.3687   -6.3063    7.8518 C   0  0  0  0  0  0  0  0  0  0  0  0
   -0.5326   -7.3566    7.6514 C   0  0  0  0  0  0  0  0  0  0  0  0
   -0.4737   -8.5039    8.4678 C   0  0  0  0  0  0  0  0  0  0  0  0
   -1.4176   -9.6197    8.3088 C   0  0  0  0  0  0  0  0  0  0  0  0
   -1.4933  -10.6254    6.9634 S   0  0  0  0  0  0  0  0  0  0  0  0
   -2.7501  -11.5873    7.5317 C   0  0  0  0  0  0  0  0  0  0  0  0
   -3.3770  -12.7053    6.7556 C   0  0  0  0  0  0  0  0  0  0  0  0
   -4.3789  -12.1598    5.7468 C   0  0  0  0  0  0  0  0  0  0  0  0
   -3.1419  -11.1190    8.7849 C   0  0  0  0  0  0  0  0  0  0  0  0
   -2.3849  -10.0217    9.2270 C   0  0  0  0  0  0  0  0  0  0  0  0
   -2.6733   -9.1988   10.7529 Cl  0  0  0  0  0  0  0  0  0  0  0  0
   -4.4657  -11.8084    9.7133 Cl  0  0  0  0  0  0  0  0  0  0  0  0
    0.5361   -8.5423    9.4456 C   0  0  0  0  0  0  0  0  0  0  0  0
    0.8924   -9.7715   10.5368 S   0  0  0  0  0  0  0  0  0  0  0  0
   -1.4423   -7.1148    6.6025 C   0  0  0  0  0  0  0  0  0  0  0  0
   -1.2401   -5.8784    5.9904 C   0  0  0  0  0  0  0  0  0  0  0  0
    0.0497   -5.0869    6.7439 S   0  0  0  0  0  0  0  0  0  0  0  0
   -1.9887   -5.3234    4.8538 C   0  0  0  0  0  0  0  0  0  0  0  0
   -1.8904   -4.0039    4.4273 C   0  0  0  0  0  0  0  0  0  0  0  0
   -2.6675   -3.7329    3.2957 C   0  0  0  0  0  0  0  0  0  0  0  0
   -2.7875   -2.4834    2.6725 C   0  0  0  0  0  0  0  0  0  0  0  0
   -2.1434   -1.2771    3.2146 C   0  0  0  0  0  0  0  0  0  0  0  0
   -0.8466   -0.4744    2.5052 S   0  0  0  0  0  0  0  0  0  0  0  0
   -0.7564    0.7563    3.6460 C   0  0  0  0  0  0  0  0  0  0  0  0
    0.2947    1.8235    3.6635 C   0  0  0  0  0  0  0  0  0  0  0  0
    1.4559    1.4126    4.5630 C   0  0  0  0  0  0  0  0  0  0  0  0
   -1.7375    0.5451    4.6135 C   0  0  0  0  0  0  0  0  0  0  0  0
   -1.9756    1.5963    6.0012 Cl  0  0  0  0  0  0  0  0  0  0  0  0
   -2.5206   -0.5926    4.3682 C   0  0  0  0  0  0  0  0  0  0  0  0
   -3.8581   -1.0872    5.3937 Cl  0  0  0  0  0  0  0  0  0  0  0  0
   -3.5894   -2.4192    1.5313 C   0  0  0  0  0  0  0  0  0  0  0  0
   -4.2728   -3.5248    1.0109 C   0  0  0  0  0  0  0  0  0  0  0  0
   -4.1908   -4.7778    1.6658 C   0  0  0  0  0  0  0  0  0  0  0  0
   -4.9828   -5.9394    1.2226 C   0  0  0  0  0  0  0  0  0  0  0  0
   -4.3423   -7.4193    0.7381 S   0  0  0  0  0  0  0  0  0  0  0  0
   -5.8185   -8.1575    0.4091 C   0  0  0  0  0  0  0  0  0  0  0  0
   -5.9762   -9.5373   -0.1563 C   0  0  0  0  0  0  0  0  0  0  0  0
   -6.1572   -9.4862   -1.6691 C   0  0  0  0  0  0  0  0  0  0  0  0
   -6.8404   -7.2425    0.6629 C   0  0  0  0  0  0  0  0  0  0  0  0
   -6.3719   -6.0051    1.1313 C   0  0  0  0  0  0  0  0  0  0  0  0
   -7.4450   -4.6953    1.6112 Cl  0  0  0  0  0  0  0  0  0  0  0  0
   -8.5445   -7.5996    0.4264 Cl  0  0  0  0  0  0  0  0  0  0  0  0
   -3.3570   -4.8475    2.8045 C   0  0  0  0  0  0  0  0  0  0  0  0
   -3.0335   -6.1629    3.8176 S   0  0  0  0  0  0  0  0  0  0  0  0
   -5.0090   -3.2125   -0.1546 C   0  0  0  0  0  0  0  0  0  0  0  0
   -4.9374   -1.8557   -0.4734 C   0  0  0  0  0  0  0  0  0  0  0  0
   -3.9449   -1.0614    0.6290 S   0  0  0  0  0  0  0  0  0  0  0  0
   -5.6086   -1.1398   -1.5631 C   0  0  0  0  0  0  0  0  0  0  0  0
   -6.1399    0.1242   -1.3340 C   0  0  0  0  0  0  0  0  0  0  0  0
   -6.0311    0.9872   -2.4271 C   0  0  0  0  0  0  0  0  0  0  0  0
   -6.2921    2.3666   -2.4002 C   0  0  0  0  0  0  0  0  0  0  0  0
   -6.8719    3.0377   -1.2243 C   0  0  0  0  0  0  0  0  0  0  0  0
   -6.0898    3.2500    0.2492 S   0  0  0  0  0  0  0  0  0  0  0  0
   -7.3040    4.1696    0.9648 C   0  0  0  0  0  0  0  0  0  0  0  0
   -7.2075    4.7879    2.3277 C   0  0  0  0  0  0  0  0  0  0  0  0
   -6.7267    6.2336    2.2326 C   0  0  0  0  0  0  0  0  0  0  0  0
   -8.3301    4.3516    0.0388 C   0  0  0  0  0  0  0  0  0  0  0  0
   -9.7748    5.3009    0.3601 Cl  0  0  0  0  0  0  0  0  0  0  0  0
   -8.0840    3.7215   -1.1903 C   0  0  0  0  0  0  0  0  0  0  0  0
   -9.1907    3.7963   -2.5599 Cl  0  0  0  0  0  0  0  0  0  0  0  0
   -5.8823    3.1063   -3.5101 C   0  0  0  0  0  0  0  0  0  0  0  0
   -5.3133    2.5262   -4.6444 C   0  0  0  0  0  0  0  0  0  0  0  0
   -5.1341    1.1246   -4.7133 C   0  0  0  0  0  0  0  0  0  0  0  0
   -4.5697    0.4745   -5.9118 C   0  0  0  0  0  0  0  0  0  0  0  0
   -3.1857   -0.4806   -5.9447 S   0  0  0  0  0  0  0  0  0  0  0  0
   -3.2595   -0.8549   -7.5850 C   0  0  0  0  0  0  0  0  0  0  0  0
   -2.2707   -1.7105   -8.3126 C   0  0  0  0  0  0  0  0  0  0  0  0
   -1.2431   -0.8570   -9.0447 C   0  0  0  0  0  0  0  0  0  0  0  0
   -4.3679   -0.2171   -8.1360 C   0  0  0  0  0  0  0  0  0  0  0  0
   -5.1063    0.5214   -7.1991 C   0  0  0  0  0  0  0  0  0  0  0  0
   -6.5927    1.3698   -7.6012 Cl  0  0  0  0  0  0  0  0  0  0  0  0
   -4.8168   -0.3471   -9.8315 Cl  0  0  0  0  0  0  0  0  0  0  0  0
   -5.4711    0.3855   -3.5581 C   0  0  0  0  0  0  0  0  0  0  0  0
   -5.0912   -1.2134   -3.1731 S   0  0  0  0  0  0  0  0  0  0  0  0
   -4.8357    3.4834   -5.5626 C   0  0  0  0  0  0  0  0  0  0  0  0
   -5.0329    4.8029   -5.1357 C   0  0  0  0  0  0  0  0  0  0  0  0
   -5.7597    4.7713   -3.6142 S   0  0  0  0  0  0  0  0  0  0  0  0
   -4.3803    6.0009   -5.7004 C   0  0  0  0  0  0  0  0  0  0  0  0
   -2.8346    5.9309   -6.3727 S   0  0  0  0  0  0  0  0  0  0  0  0
   -2.4079    7.5383   -6.1316 C   0  0  0  0  0  0  0  0  0  0  0  0
   -3.5183    8.1833   -5.5892 C   0  0  0  0  0  0  0  0  0  0  0  0
   -4.6394    7.3471   -5.3766 C   0  0  0  0  0  0  0  0  0  0  0  0
   -5.8551    7.9115   -4.9105 C   0  0  0  0  0  0  0  0  0  0  0  0
   -7.1497    7.1903   -4.9646 C   0  0  0  0  0  0  0  0  0  0  0  0
   -7.3994    6.4244   -5.9351 O   0  0  0  0  0  0  0  0  0  0  0  0
   -8.1997    7.4000   -3.9182 C   0  0  0  0  0  0  0  0  0  0  0  0
   -5.8633    9.2717   -4.5404 C   0  0  0  0  0  0  0  0  0  0  0  0
   -4.7264   10.0694   -4.7012 C   0  0  0  0  0  0  0  0  0  0  0  0
   -3.5601    9.5392   -5.2493 C   0  0  0  0  0  0  0  0  0  0  0  0
   -1.2401    8.2246   -6.7086 C   0  0  0  0  0  0  0  0  0  0  0  0
    0.0558    8.0046   -6.4439 C   0  0  0  0  0  0  0  0  0  0  0  0
    0.6685    7.0018   -5.5423 C   0  0  0  0  0  0  0  0  0  0  0  0
    2.0373    6.9836   -5.2768 C   0  0  0  0  0  0  0  0  0  0  0  0
    2.4574    5.8610   -4.5469 C   0  0  0  0  0  0  0  0  0  0  0  0
    3.7848    5.5505   -4.1961 C   0  0  0  0  0  0  0  0  0  0  0  0
    4.8828    6.5157   -4.3842 C   0  0  0  0  0  0  0  0  0  0  0  0
    6.1912    6.3120   -5.4213 S   0  0  0  0  0  0  0  0  0  0  0  0
    6.9128    7.7967   -5.0908 C   0  0  0  0  0  0  0  0  0  0  0  0
    8.1318    8.3254   -5.7829 C   0  0  0  0  0  0  0  0  0  0  0  0
    7.7408    9.2043   -6.9659 C   0  0  0  0  0  0  0  0  0  0  0  0
    6.1242    8.4812   -4.1657 C   0  0  0  0  0  0  0  0  0  0  0  0
    6.4969   10.0922   -3.5691 Cl  0  0  0  0  0  0  0  0  0  0  0  0
    4.9925    7.7597   -3.7643 C   0  0  0  0  0  0  0  0  0  0  0  0
    3.8369    8.3535   -2.5767 Cl  0  0  0  0  0  0  0  0  0  0  0  0
    4.0111    4.2927   -3.6155 C   0  0  0  0  0  0  0  0  0  0  0  0
    2.9728    3.3985   -3.3246 C   0  0  0  0  0  0  0  0  0  0  0  0
    1.6305    3.7532   -3.5933 C   0  0  0  0  0  0  0  0  0  0  0  0
    0.4985    2.9050   -3.1770 C   0  0  0  0  0  0  0  0  0  0  0  0
    0.2334    1.3230   -3.6809 S   0  0  0  0  0  0  0  0  0  0  0  0
   -1.0449    1.0144   -2.6308 C   0  0  0  0  0  0  0  0  0  0  0  0
   -1.6758   -0.3277   -2.4390 C   0  0  0  0  0  0  0  0  0  0  0  0
   -0.9045   -1.1503   -1.4148 C   0  0  0  0  0  0  0  0  0  0  0  0
   -1.2811    2.1548   -1.8630 C   0  0  0  0  0  0  0  0  0  0  0  0
   -0.4125    3.2152   -2.1676 C   0  0  0  0  0  0  0  0  0  0  0  0
   -0.4039    4.7382   -1.2884 Cl  0  0  0  0  0  0  0  0  0  0  0  0
   -2.4951    2.2364   -0.5907 Cl  0  0  0  0  0  0  0  0  0  0  0  0
    1.4155    4.9881   -4.2299 C   0  0  0  0  0  0  0  0  0  0  0  0
   -0.0201    5.6250   -4.8364 S   0  0  0  0  0  0  0  0  0  0  0  0
    3.4328    2.1903   -2.7697 C   0  0  0  0  0  0  0  0  0  0  0  0
    4.8163    2.1539   -2.6282 C   0  0  0  0  0  0  0  0  0  0  0  0
    5.4815    3.6010   -3.1728 S   0  0  0  0  0  0  0  0  0  0  0  0
    5.5973    0.9758   -2.2542 C   0  0  0  0  0  0  0  0  0  0  0  0
    5.8657   -0.0989   -3.0959 C   0  0  0  0  0  0  0  0  0  0  0  0
    6.6992   -1.0586   -2.4993 C   0  0  0  0  0  0  0  0  0  0  0  0
    7.1807   -2.2386   -3.0990 C   0  0  0  0  0  0  0  0  0  0  0  0
    6.8665   -2.5833   -4.4935 C   0  0  0  0  0  0  0  0  0  0  0  0
    5.3576   -3.0762   -5.0509 S   0  0  0  0  0  0  0  0  0  0  0  0
    5.8128   -3.2418   -6.6630 C   0  0  0  0  0  0  0  0  0  0  0  0
    4.8878   -3.6422   -7.7717 C   0  0  0  0  0  0  0  0  0  0  0  0
    4.1678   -2.4305   -8.3462 C   0  0  0  0  0  0  0  0  0  0  0  0
    7.1560   -2.8868   -6.7876 C   0  0  0  0  0  0  0  0  0  0  0  0
    8.0153   -2.8513   -8.3186 Cl  0  0  0  0  0  0  0  0  0  0  0  0
    7.7486   -2.5288   -5.5681 C   0  0  0  0  0  0  0  0  0  0  0  0
    9.4186   -2.0008   -5.4171 Cl  0  0  0  0  0  0  0  0  0  0  0  0
    8.0184   -3.0542   -2.3215 C   0  0  0  0  0  0  0  0  0  0  0  0
    8.3705   -2.7348   -1.0096 C   0  0  0  0  0  0  0  0  0  0  0  0
    7.9044   -1.5463   -0.4155 C   0  0  0  0  0  0  0  0  0  0  0  0
    8.2803   -1.1683    0.9549 C   0  0  0  0  0  0  0  0  0  0  0  0
    9.3277    0.0885    1.3459 S   0  0  0  0  0  0  0  0  0  0  0  0
    9.2724   -0.1514    3.0114 C   0  0  0  0  0  0  0  0  0  0  0  0
    9.9908    0.6992    4.0132 C   0  0  0  0  0  0  0  0  0  0  0  0
    9.1878    1.9563    4.3258 C   0  0  0  0  0  0  0  0  0  0  0  0
    8.4045   -1.2106    3.2813 C   0  0  0  0  0  0  0  0  0  0  0  0
    7.8564   -1.7870    2.1268 C   0  0  0  0  0  0  0  0  0  0  0  0
    6.7194   -3.1251    2.1558 Cl  0  0  0  0  0  0  0  0  0  0  0  0
    8.0164   -1.7579    4.9087 Cl  0  0  0  0  0  0  0  0  0  0  0  0
    7.0760   -0.7229   -1.1935 C   0  0  0  0  0  0  0  0  0  0  0  0
    6.3889    0.7596   -0.7796 S   0  0  0  0  0  0  0  0  0  0  0  0
    9.2166   -3.6878   -0.4194 C   0  0  0  0  0  0  0  0  0  0  0  0
    9.5203   -4.7517   -1.2666 C   0  0  0  0  0  0  0  0  0  0  0  0
    8.7439   -4.5118   -2.7452 S   0  0  0  0  0  0  0  0  0  0  0  0
    2.8041   -9.3846   12.0632 H   0  0  0  0  0  0  0  0  0  0  0  0
    3.1626   -7.0622   10.9394 H   0  0  0  0  0  0  0  0  0  0  0  0
    2.9348   -0.9647    9.6545 H   0  0  0  0  0  0  0  0  0  0  0  0
    4.6063   -1.2274    9.0472 H   0  0  0  0  0  0  0  0  0  0  0  0
    4.5822   -0.5544   11.4592 H   0  0  0  0  0  0  0  0  0  0  0  0
    5.2715   -2.2086   11.2491 H   0  0  0  0  0  0  0  0  0  0  0  0
    3.5791   -1.9995   11.8613 H   0  0  0  0  0  0  0  0  0  0  0  0
   -2.5824  -13.2716    6.2234 H   0  0  0  0  0  0  0  0  0  0  0  0
   -3.8939  -13.4078    7.4414 H   0  0  0  0  0  0  0  0  0  0  0  0
   -3.8710  -11.4754    5.0346 H   0  0  0  0  0  0  0  0  0  0  0  0
   -4.8272  -13.0005    5.1775 H   0  0  0  0  0  0  0  0  0  0  0  0
   -5.1905  -11.6080    6.2704 H   0  0  0  0  0  0  0  0  0  0  0  0
   -2.2179   -7.8068    6.3029 H   0  0  0  0  0  0  0  0  0  0  0  0
   -1.2794   -3.2606    4.9241 H   0  0  0  0  0  0  0  0  0  0  0  0
   -0.1410    2.7778    4.0289 H   0  0  0  0  0  0  0  0  0  0  0  0
    0.6708    1.9886    2.6314 H   0  0  0  0  0  0  0  0  0  0  0  0
    1.1087    1.2844    5.6097 H   0  0  0  0  0  0  0  0  0  0  0  0
    2.2382    2.1967    4.5486 H   0  0  0  0  0  0  0  0  0  0  0  0
    1.9013    0.4593    4.2058 H   0  0  0  0  0  0  0  0  0  0  0  0
   -5.0713  -10.1385    0.0793 H   0  0  0  0  0  0  0  0  0  0  0  0
   -6.8509  -10.0414    0.3069 H   0  0  0  0  0  0  0  0  0  0  0  0
   -6.2464  -10.5169   -2.0707 H   0  0  0  0  0  0  0  0  0  0  0  0
   -7.0790   -8.9259   -1.9300 H   0  0  0  0  0  0  0  0  0  0  0  0
   -5.2820   -8.9939   -2.1421 H   0  0  0  0  0  0  0  0  0  0  0  0
   -5.5937   -3.9242   -0.7213 H   0  0  0  0  0  0  0  0  0  0  0  0
   -6.4449    0.4490   -0.3470 H   0  0  0  0  0  0  0  0  0  0  0  0
   -8.1986    4.7573    2.8288 H   0  0  0  0  0  0  0  0  0  0  0  0
   -6.4914    4.2046    2.9436 H   0  0  0  0  0  0  0  0  0  0  0  0
   -5.7753    6.2893    1.6649 H   0  0  0  0  0  0  0  0  0  0  0  0
   -6.5554    6.6366    3.2532 H   0  0  0  0  0  0  0  0  0  0  0  0
   -7.4901    6.8618    1.7274 H   0  0  0  0  0  0  0  0  0  0  0  0
   -1.7470   -2.3725   -7.5890 H   0  0  0  0  0  0  0  0  0  0  0  0
   -2.8021   -2.3608   -9.0419 H   0  0  0  0  0  0  0  0  0  0  0  0
   -1.7438   -0.1914   -9.7806 H   0  0  0  0  0  0  0  0  0  0  0  0
   -0.6722   -0.2379   -8.3205 H   0  0  0  0  0  0  0  0  0  0  0  0
   -0.5346   -1.5159   -9.5898 H   0  0  0  0  0  0  0  0  0  0  0  0
   -4.2935    3.2318   -6.4663 H   0  0  0  0  0  0  0  0  0  0  0  0
   -7.7247    7.4446   -2.9140 H   0  0  0  0  0  0  0  0  0  0  0  0
   -8.9283    6.5621   -3.9290 H   0  0  0  0  0  0  0  0  0  0  0  0
   -8.7410    8.3515   -4.1113 H   0  0  0  0  0  0  0  0  0  0  0  0
   -6.7680    9.7418   -4.1771 H   0  0  0  0  0  0  0  0  0  0  0  0
   -4.7656   11.1180   -4.4297 H   0  0  0  0  0  0  0  0  0  0  0  0
   -2.6946   10.1790   -5.3806 H   0  0  0  0  0  0  0  0  0  0  0  0
   -1.4642    9.0698   -7.3479 H   0  0  0  0  0  0  0  0  0  0  0  0
    0.7553    8.6780   -6.9295 H   0  0  0  0  0  0  0  0  0  0  0  0
    2.7168    7.7410   -5.6467 H   0  0  0  0  0  0  0  0  0  0  0  0
    8.7460    8.9124   -5.0665 H   0  0  0  0  0  0  0  0  0  0  0  0
    8.7475    7.4741   -6.1483 H   0  0  0  0  0  0  0  0  0  0  0  0
    7.1840    8.6058   -7.7193 H   0  0  0  0  0  0  0  0  0  0  0  0
    7.1055   10.0510   -6.6294 H   0  0  0  0  0  0  0  0  0  0  0  0
    8.6564    9.6178   -7.4393 H   0  0  0  0  0  0  0  0  0  0  0  0
   -2.7197   -0.1995   -2.0927 H   0  0  0  0  0  0  0  0  0  0  0  0
   -1.6947   -0.8716   -3.4070 H   0  0  0  0  0  0  0  0  0  0  0  0
   -0.9279   -0.6401   -0.4319 H   0  0  0  0  0  0  0  0  0  0  0  0
   -1.3733   -2.1512   -1.3077 H   0  0  0  0  0  0  0  0  0  0  0  0
    0.1508   -1.2818   -1.7361 H   0  0  0  0  0  0  0  0  0  0  0  0
    2.7941    1.3631   -2.4921 H   0  0  0  0  0  0  0  0  0  0  0  0
    5.4933   -0.1677   -4.1103 H   0  0  0  0  0  0  0  0  0  0  0  0
    5.4598   -4.1482   -8.5772 H   0  0  0  0  0  0  0  0  0  0  0  0
    4.1420   -4.3665   -7.3819 H   0  0  0  0  0  0  0  0  0  0  0  0
    3.4644   -2.7594   -9.1408 H   0  0  0  0  0  0  0  0  0  0  0  0
    4.9014   -1.7278   -8.7965 H   0  0  0  0  0  0  0  0  0  0  0  0
    3.5972   -1.9058   -7.5494 H   0  0  0  0  0  0  0  0  0  0  0  0
   10.1609    0.1265    4.9484 H   0  0  0  0  0  0  0  0  0  0  0  0
   10.9828    0.9878    3.6037 H   0  0  0  0  0  0  0  0  0  0  0  0
    9.0395    2.5555    3.4011 H   0  0  0  0  0  0  0  0  0  0  0  0
    9.7401    2.5750    5.0634 H   0  0  0  0  0  0  0  0  0  0  0  0
    8.1967    1.6858    4.7513 H   0  0  0  0  0  0  0  0  0  0  0  0
    9.6032   -3.6154    0.5882 H   0  0  0  0  0  0  0  0  0  0  0  0
   10.1548   -5.5905   -1.0190 H   0  0  0  0  0  0  0  0  0  0  0  0
  1  2  2  0
  2  3  1  0
  3  4  2  0
  4  5  1  0
  5  6  1  0
  6  7  1  0
  7  8  1  0
  8  9  1  0
  7 10  2  0
 10 11  1  0
 10 12  1  0
 12 13  1  0
  4 14  1  0
 14 15  2  0
 15 16  1  0
 16 17  1  0
 17 18  1  0
 18 19  1  0
 19 20  1  0
 20 21  1  0
 19 22  2  0
 22 23  1  0
 23 24  1  0
 22 25  1  0
 16 26  2  0
 26 27  1  0
 15 28  1  0
 28 29  2  0
 29 30  1  0
 29 31  1  0
 31 32  2  0
 32 33  1  0
 33 34  2  0
 34 35  1  0
 35 36  1  0
 36 37  1  0
 37 38  1  0
 38 39  1  0
 37 40  2  0
 40 41  1  0
 40 42  1  0
 42 43  1  0
 34 44  1  0
 44 45  2  0
 45 46  1  0
 46 47  1  0
 47 48  1  0
 48 49  1  0
 49 50  1  0
 50 51  1  0
 49 52  2  0
 52 53  1  0
 53 54  1  0
 52 55  1  0
 46 56  2  0
 56 57  1  0
 45 58  1  0
 58 59  2  0
 59 60  1  0
 59 61  1  0
 61 62  2  0
 62 63  1  0
 63 64  2  0
 64 65  1  0
 65 66  1  0
 66 67  1  0
 67 68  1  0
 68 69  1  0
 67 70  2  0
 70 71  1  0
 70 72  1  0
 72 73  1  0
 64 74  1  0
 74 75  2  0
 75 76  1  0
 76 77  1  0
 77 78  1  0
 78 79  1  0
 79 80  1  0
 80 81  1  0
 79 82  2  0
 82 83  1  0
 83 84  1  0
 82 85  1  0
 76 86  2  0
 86 87  1  0
 75 88  1  0
 88 89  2  0
 89 90  1  0
 89 91  1  0
 91 92  1  0
 92 93  1  0
 93 94  2  0
 94 95  1  0
 95 96  1  0
 96 97  1  0
 97 98  2  0
 97 99  1  0
 96100  2  0
100101  1  0
101102  2  0
 93103  1  0
103104  2  3
104105  1  0
105106  2  0
106107  1  0
107108  2  0
108109  1  0
109110  1  0
110111  1  0
111112  1  0
112113  1  0
111114  2  0
114115  1  0
114116  1  0
116117  1  0
108118  1  0
118119  2  0
119120  1  0
120121  1  0
121122  1  0
122123  1  0
123124  1  0
124125  1  0
123126  2  0
126127  1  0
127128  1  0
126129  1  0
120130  2  0
130131  1  0
119132  1  0
132133  2  0
133134  1  0
133135  1  0
135136  2  0
136137  1  0
137138  2  0
138139  1  0
139140  1  0
140141  1  0
141142  1  0
142143  1  0
141144  2  0
144145  1  0
144146  1  0
146147  1  0
138148  1  0
148149  2  0
149150  1  0
150151  1  0
151152  1  0
152153  1  0
153154  1  0
154155  1  0
153156  2  0
156157  1  0
157158  1  0
156159  1  0
150160  2  0
160161  1  0
149162  1  0
162163  2  0
163164  1  0
 27  1  1  0
 57 31  1  0
 87 61  1  0
 95 91  2  0
131105  1  0
161135  1  0
 26  3  1  0
 56 33  1  0
 86 63  1  0
102 94  1  0
130107  1  0
160137  1  0
 12  5  2  0
 30 14  1  0
 42 35  2  0
 60 44  1  0
 72 65  2  0
 90 74  1  0
116109  2  0
134118  1  0
146139  2  0
164148  1  0
 23 17  2  0
 53 47  2  0
 83 77  2  0
127121  2  0
157151  2  0
  1165  1  0
  2166  1  0
  8167  1  0
  8168  1  0
  9169  1  0
  9170  1  0
  9171  1  0
 20172  1  0
 20173  1  0
 21174  1  0
 21175  1  0
 21176  1  0
 28177  1  0
 32178  1  0
 38179  1  0
 38180  1  0
 39181  1  0
 39182  1  0
 39183  1  0
 50184  1  0
 50185  1  0
 51186  1  0
 51187  1  0
 51188  1  0
 58189  1  0
 62190  1  0
 68191  1  0
 68192  1  0
 69193  1  0
 69194  1  0
 69195  1  0
 80196  1  0
 80197  1  0
 81198  1  0
 81199  1  0
 81200  1  0
 88201  1  0
 99202  1  0
 99203  1  0
 99204  1  0
100205  1  0
101206  1  0
102207  1  0
103208  1  0
104209  1  0
106210  1  0
112211  1  0
112212  1  0
113213  1  0
113214  1  0
113215  1  0
124216  1  0
124217  1  0
125218  1  0
125219  1  0
125220  1  0
132221  1  0
136222  1  0
142223  1  0
142224  1  0
143225  1  0
143226  1  0
143227  1  0
154228  1  0
154229  1  0
155230  1  0
155231  1  0
155232  1  0
162233  1  0
163234  1  0
M  END

