
     RDKit          3D

186207  0  0  0  0  0  0  0  0999 V2000
    5.0546  -11.5427   12.1693 C   0  0  0  0  0  0  0  0  0  0  0  0
    5.8565  -10.4056   12.1575 C   0  0  0  0  0  0  0  0  0  0  0  0
    5.2160   -9.2839   11.6088 C   0  0  0  0  0  0  0  0  0  0  0  0
    5.7944   -8.0208   11.3908 C   0  0  0  0  0  0  0  0  0  0  0  0
    7.2022   -7.7455   11.7114 C   0  0  0  0  0  0  0  0  0  0  0  0
    7.8199   -7.5302   13.2601 S   0  0  0  0  0  0  0  0  0  0  0  0
    9.4101   -7.2583   12.7749 C   0  0  0  0  0  0  0  0  0  0  0  0
   10.5636   -7.0541   13.7112 C   0  0  0  0  0  0  0  0  0  0  0  0
   11.1650   -8.3950   14.1218 C   0  0  0  0  0  0  0  0  0  0  0  0
    9.4805   -7.3602   11.3874 C   0  0  0  0  0  0  0  0  0  0  0  0
   10.9719   -7.1840   10.4713 Cl  0  0  0  0  0  0  0  0  0  0  0  0
    8.2404   -7.6257   10.7900 C   0  0  0  0  0  0  0  0  0  0  0  0
    8.0246   -7.8334    9.0555 Cl  0  0  0  0  0  0  0  0  0  0  0  0
    4.9975   -7.0588   10.7498 C   0  0  0  0  0  0  0  0  0  0  0  0
    3.6937   -7.3216   10.3208 C   0  0  0  0  0  0  0  0  0  0  0  0
    3.1127   -8.5872   10.5363 C   0  0  0  0  0  0  0  0  0  0  0  0
    1.7862   -8.9301    9.9964 C   0  0  0  0  0  0  0  0  0  0  0  0
    1.4114   -8.9834    8.3565 S   0  0  0  0  0  0  0  0  0  0  0  0
   -0.1989   -9.4250    8.5546 C   0  0  0  0  0  0  0  0  0  0  0  0
   -1.1467   -9.7124    7.4296 C   0  0  0  0  0  0  0  0  0  0  0  0
   -1.1830  -11.2076    7.1277 C   0  0  0  0  0  0  0  0  0  0  0  0
   -0.4616   -9.5573    9.9191 C   0  0  0  0  0  0  0  0  0  0  0  0
    0.6507   -9.2735   10.7283 C   0  0  0  0  0  0  0  0  0  0  0  0
    0.6025   -9.3058   12.4862 Cl  0  0  0  0  0  0  0  0  0  0  0  0
   -2.0281  -10.0296   10.5640 Cl  0  0  0  0  0  0  0  0  0  0  0  0
    3.9052   -9.5455   11.1949 C   0  0  0  0  0  0  0  0  0  0  0  0
    3.5540  -11.1623   11.4965 S   0  0  0  0  0  0  0  0  0  0  0  0
    3.1112   -6.2414    9.6339 C   0  0  0  0  0  0  0  0  0  0  0  0
    3.9673   -5.1500    9.5093 C   0  0  0  0  0  0  0  0  0  0  0  0
    5.4333   -5.5062   10.2701 S   0  0  0  0  0  0  0  0  0  0  0  0
    3.7353   -3.9801    8.6488 C   0  0  0  0  0  0  0  0  0  0  0  0
    4.6897   -3.0065    8.3603 C   0  0  0  0  0  0  0  0  0  0  0  0
    4.3176   -2.1761    7.2914 C   0  0  0  0  0  0  0  0  0  0  0  0
    5.1180   -1.1811    6.6960 C   0  0  0  0  0  0  0  0  0  0  0  0
    6.4467   -0.8281    7.2239 C   0  0  0  0  0  0  0  0  0  0  0  0
    6.8151    0.6473    7.9432 S   0  0  0  0  0  0  0  0  0  0  0  0
    8.4150    0.2738    8.3019 C   0  0  0  0  0  0  0  0  0  0  0  0
    9.3411    1.1711    9.0637 C   0  0  0  0  0  0  0  0  0  0  0  0
    9.2960    0.8551   10.5559 C   0  0  0  0  0  0  0  0  0  0  0  0
    8.6790   -1.0259    7.8735 C   0  0  0  0  0  0  0  0  0  0  0  0
   10.2335   -1.8215    8.0896 Cl  0  0  0  0  0  0  0  0  0  0  0  0
    7.5780   -1.6414    7.2589 C   0  0  0  0  0  0  0  0  0  0  0  0
    7.6296   -3.2653    6.5846 Cl  0  0  0  0  0  0  0  0  0  0  0  0
    4.6020   -0.5454    5.5597 C   0  0  0  0  0  0  0  0  0  0  0  0
    3.3338   -0.8340    5.0434 C   0  0  0  0  0  0  0  0  0  0  0  0
    2.5123   -1.8010    5.6624 C   0  0  0  0  0  0  0  0  0  0  0  0
    1.1871   -2.1599    5.1219 C   0  0  0  0  0  0  0  0  0  0  0  0
    0.7653   -3.6765    4.5228 S   0  0  0  0  0  0  0  0  0  0  0  0
   -0.8113   -3.2686    4.0977 C   0  0  0  0  0  0  0  0  0  0  0  0
   -1.7708   -4.1931    3.4083 C   0  0  0  0  0  0  0  0  0  0  0  0
   -1.5725   -4.1469    1.8994 C   0  0  0  0  0  0  0  0  0  0  0  0
   -1.0238   -1.9258    4.4024 C   0  0  0  0  0  0  0  0  0  0  0  0
    0.0929   -1.3070    4.9860 C   0  0  0  0  0  0  0  0  0  0  0  0
    0.0961    0.3706    5.5229 Cl  0  0  0  0  0  0  0  0  0  0  0  0
   -2.5312   -1.0805    4.0791 Cl  0  0  0  0  0  0  0  0  0  0  0  0
    3.0523   -2.4748    6.7737 C   0  0  0  0  0  0  0  0  0  0  0  0
    2.4072   -3.7787    7.6222 S   0  0  0  0  0  0  0  0  0  0  0  0
    3.0686   -0.1698    3.8336 C   0  0  0  0  0  0  0  0  0  0  0  0
    4.1373    0.6125    3.4044 C   0  0  0  0  0  0  0  0  0  0  0  0
    5.4071    0.4895    4.5062 S   0  0  0  0  0  0  0  0  0  0  0  0
    4.2456    1.2051    2.0676 C   0  0  0  0  0  0  0  0  0  0  0  0
    5.0804    0.7681    1.1277 C   0  0  0  0  0  0  0  0  0  0  0  0
    4.7343    1.4023   -0.1434 C   0  0  0  0  0  0  0  0  0  0  0  0
    3.7076    2.2218    0.0468 C   0  0  0  0  0  0  0  0  0  0  0  0
    3.3357    2.1688    1.4587 C   0  0  0  0  0  0  0  0  0  0  0  0
    1.9639    2.7649    2.1285 S   0  0  0  0  0  0  0  0  0  0  0  0
    3.0254    2.9813   -1.0124 C   0  0  0  0  0  0  0  0  0  0  0  0
    2.7419    4.2728   -0.9543 C   0  0  0  0  0  0  0  0  0  0  0  0
    1.9591    4.6325   -2.1335 C   0  0  0  0  0  0  0  0  0  0  0  0
    1.7524    3.5479   -2.8783 C   0  0  0  0  0  0  0  0  0  0  0  0
    2.4573    2.4268   -2.2366 C   0  0  0  0  0  0  0  0  0  0  0  0
    2.1258    0.8296   -2.4326 S   0  0  0  0  0  0  0  0  0  0  0  0
    0.8557    3.5046   -4.0605 C   0  0  0  0  0  0  0  0  0  0  0  0
    0.1901    4.6021   -4.6193 C   0  0  0  0  0  0  0  0  0  0  0  0
   -0.7218    4.2472   -5.6263 C   0  0  0  0  0  0  0  0  0  0  0  0
   -1.5994    5.1175   -6.3009 C   0  0  0  0  0  0  0  0  0  0  0  0
   -1.5498    6.5791   -6.1118 C   0  0  0  0  0  0  0  0  0  0  0  0
   -0.2520    7.5480   -6.5645 S   0  0  0  0  0  0  0  0  0  0  0  0
   -0.9691    9.0112   -6.1481 C   0  0  0  0  0  0  0  0  0  0  0  0
   -0.3617   10.3554   -6.4090 C   0  0  0  0  0  0  0  0  0  0  0  0
   -0.7134   10.8375   -7.8120 C   0  0  0  0  0  0  0  0  0  0  0  0
   -2.2548    8.7612   -5.6658 C   0  0  0  0  0  0  0  0  0  0  0  0
   -3.3708   10.0237   -5.1709 Cl  0  0  0  0  0  0  0  0  0  0  0  0
   -2.5748    7.3942   -5.6332 C   0  0  0  0  0  0  0  0  0  0  0  0
   -4.0983    6.7798   -5.0038 Cl  0  0  0  0  0  0  0  0  0  0  0  0
   -2.5225    4.5299   -7.1851 C   0  0  0  0  0  0  0  0  0  0  0  0
   -2.5877    3.1490   -7.3956 C   0  0  0  0  0  0  0  0  0  0  0  0
   -1.6945    2.2823   -6.7403 C   0  0  0  0  0  0  0  0  0  0  0  0
   -1.7671    0.8211   -6.9111 C   0  0  0  0  0  0  0  0  0  0  0  0
   -3.0712   -0.1316   -6.4457 S   0  0  0  0  0  0  0  0  0  0  0  0
   -2.4581   -1.5754   -7.0479 C   0  0  0  0  0  0  0  0  0  0  0  0
   -3.2094   -2.8736   -7.0513 C   0  0  0  0  0  0  0  0  0  0  0  0
   -4.2192   -2.9039   -8.1938 C   0  0  0  0  0  0  0  0  0  0  0  0
   -1.2241   -1.3252   -7.6469 C   0  0  0  0  0  0  0  0  0  0  0  0
   -0.8265    0.0189   -7.5530 C   0  0  0  0  0  0  0  0  0  0  0  0
    0.6538    0.6448   -8.2644 Cl  0  0  0  0  0  0  0  0  0  0  0  0
   -0.2864   -2.5478   -8.4924 Cl  0  0  0  0  0  0  0  0  0  0  0  0
   -0.7690    2.8706   -5.8635 C   0  0  0  0  0  0  0  0  0  0  0  0
    0.3157    2.1038   -4.8372 S   0  0  0  0  0  0  0  0  0  0  0  0
   -3.6120    2.7706   -8.2769 C   0  0  0  0  0  0  0  0  0  0  0  0
   -4.3457    3.8538   -8.7536 C   0  0  0  0  0  0  0  0  0  0  0  0
   -3.7147    5.2805   -8.1082 S   0  0  0  0  0  0  0  0  0  0  0  0
   -5.5631    3.7603   -9.5677 C   0  0  0  0  0  0  0  0  0  0  0  0
   -6.3028    4.8354  -10.0565 C   0  0  0  0  0  0  0  0  0  0  0  0
   -7.4934    4.4374  -10.6901 C   0  0  0  0  0  0  0  0  0  0  0  0
   -8.4736    5.2874  -11.2461 C   0  0  0  0  0  0  0  0  0  0  0  0
   -8.2926    6.7517  -11.3002 C   0  0  0  0  0  0  0  0  0  0  0  0
   -9.2687    7.8714  -10.5102 S   0  0  0  0  0  0  0  0  0  0  0  0
   -8.4084    9.2318  -10.9981 C   0  0  0  0  0  0  0  0  0  0  0  0
   -8.7353   10.6398  -10.5899 C   0  0  0  0  0  0  0  0  0  0  0  0
   -7.9342   11.0453   -9.3565 C   0  0  0  0  0  0  0  0  0  0  0  0
   -7.3323    8.8232  -11.7837 C   0  0  0  0  0  0  0  0  0  0  0  0
   -6.1712    9.9375  -12.4963 Cl  0  0  0  0  0  0  0  0  0  0  0  0
   -7.2707    7.4335  -11.9590 C   0  0  0  0  0  0  0  0  0  0  0  0
   -6.0467    6.6394  -12.9445 Cl  0  0  0  0  0  0  0  0  0  0  0  0
   -9.6404    4.6722  -11.7346 C   0  0  0  0  0  0  0  0  0  0  0  0
   -9.8364    3.2861  -11.6960 C   0  0  0  0  0  0  0  0  0  0  0  0
   -8.8470    2.4419  -11.1623 C   0  0  0  0  0  0  0  0  0  0  0  0
   -9.0217    0.9860  -11.0537 C   0  0  0  0  0  0  0  0  0  0  0  0
   -9.8293    0.2311   -9.7869 S   0  0  0  0  0  0  0  0  0  0  0  0
   -9.3250   -1.3306  -10.1610 C   0  0  0  0  0  0  0  0  0  0  0  0
   -9.5711   -2.5298   -9.2973 C   0  0  0  0  0  0  0  0  0  0  0  0
   -8.4426   -2.7042   -8.2887 C   0  0  0  0  0  0  0  0  0  0  0  0
   -8.4861   -1.2733  -11.2758 C   0  0  0  0  0  0  0  0  0  0  0  0
   -8.3134    0.0270  -11.7716 C   0  0  0  0  0  0  0  0  0  0  0  0
   -7.2559    0.4196  -13.1188 Cl  0  0  0  0  0  0  0  0  0  0  0  0
   -7.6706   -2.6759  -11.9488 Cl  0  0  0  0  0  0  0  0  0  0  0  0
   -7.6836    3.0544  -10.6718 C   0  0  0  0  0  0  0  0  0  0  0  0
   -6.3824    2.3233   -9.9004 S   0  0  0  0  0  0  0  0  0  0  0  0
  -11.0681    2.8843  -12.2346 C   0  0  0  0  0  0  0  0  0  0  0  0
  -11.8325    3.9495  -12.7035 C   0  0  0  0  0  0  0  0  0  0  0  0
  -10.9856    5.3880  -12.4486 S   0  0  0  0  0  0  0  0  0  0  0  0
    5.3558  -12.5172   12.5279 H   0  0  0  0  0  0  0  0  0  0  0  0
    6.8762  -10.4078   12.5152 H   0  0  0  0  0  0  0  0  0  0  0  0
   10.2126   -6.5184   14.6167 H   0  0  0  0  0  0  0  0  0  0  0  0
   11.3436   -6.4332   13.2283 H   0  0  0  0  0  0  0  0  0  0  0  0
   11.5397   -8.9413   13.2313 H   0  0  0  0  0  0  0  0  0  0  0  0
   10.4016   -9.0200   14.6360 H   0  0  0  0  0  0  0  0  0  0  0  0
   12.0118   -8.2227   14.8217 H   0  0  0  0  0  0  0  0  0  0  0  0
   -2.1653   -9.3581    7.6880 H   0  0  0  0  0  0  0  0  0  0  0  0
   -0.8125   -9.1707    6.5211 H   0  0  0  0  0  0  0  0  0  0  0  0
   -0.1725  -11.5649    6.8311 H   0  0  0  0  0  0  0  0  0  0  0  0
   -1.5257  -11.7759    8.0188 H   0  0  0  0  0  0  0  0  0  0  0  0
   -1.8901  -11.3990    6.2919 H   0  0  0  0  0  0  0  0  0  0  0  0
    2.1212   -6.2671    9.2007 H   0  0  0  0  0  0  0  0  0  0  0  0
    5.6495   -2.9519    8.8553 H   0  0  0  0  0  0  0  0  0  0  0  0
   10.3811    1.0504    8.6900 H   0  0  0  0  0  0  0  0  0  0  0  0
    9.0422    2.2294    8.9069 H   0  0  0  0  0  0  0  0  0  0  0  0
    9.9700    1.5444   11.1023 H   0  0  0  0  0  0  0  0  0  0  0  0
    8.2634    0.9854   10.9456 H   0  0  0  0  0  0  0  0  0  0  0  0
    9.6299   -0.1886   10.7385 H   0  0  0  0  0  0  0  0  0  0  0  0
   -1.6057   -5.2303    3.7690 H   0  0  0  0  0  0  0  0  0  0  0  0
   -2.8162   -3.9113    3.6536 H   0  0  0  0  0  0  0  0  0  0  0  0
   -1.7543   -3.1201    1.5139 H   0  0  0  0  0  0  0  0  0  0  0  0
   -0.5392   -4.4583    1.6333 H   0  0  0  0  0  0  0  0  0  0  0  0
   -2.2881   -4.8418    1.4107 H   0  0  0  0  0  0  0  0  0  0  0  0
    2.1743   -0.3199    3.2429 H   0  0  0  0  0  0  0  0  0  0  0  0
    5.8242   -0.0066    1.2638 H   0  0  0  0  0  0  0  0  0  0  0  0
    5.2050    1.2055   -1.0987 H   0  0  0  0  0  0  0  0  0  0  0  0
    3.0080    4.9392   -0.1437 H   0  0  0  0  0  0  0  0  0  0  0  0
    1.5453    5.6137   -2.3136 H   0  0  0  0  0  0  0  0  0  0  0  0
    0.3268    5.6177   -4.2800 H   0  0  0  0  0  0  0  0  0  0  0  0
   -0.7225   11.0933   -5.6590 H   0  0  0  0  0  0  0  0  0  0  0  0
    0.7414   10.2840   -6.3138 H   0  0  0  0  0  0  0  0  0  0  0  0
   -1.8139   10.9544   -7.9196 H   0  0  0  0  0  0  0  0  0  0  0  0
   -0.2296   11.8201   -8.0017 H   0  0  0  0  0  0  0  0  0  0  0  0
   -0.3448   10.1130   -8.5705 H   0  0  0  0  0  0  0  0  0  0  0  0
   -3.7444   -2.9853   -6.0848 H   0  0  0  0  0  0  0  0  0  0  0  0
   -2.5095   -3.7302   -7.1485 H   0  0  0  0  0  0  0  0  0  0  0  0
   -4.7713   -3.8701   -8.1819 H   0  0  0  0  0  0  0  0  0  0  0  0
   -4.9539   -2.0760   -8.0789 H   0  0  0  0  0  0  0  0  0  0  0  0
   -3.7049   -2.7975   -9.1724 H   0  0  0  0  0  0  0  0  0  0  0  0
   -3.8310    1.7456   -8.5449 H   0  0  0  0  0  0  0  0  0  0  0  0
   -6.0081    5.8676   -9.9257 H   0  0  0  0  0  0  0  0  0  0  0  0
   -8.5114   11.3389  -11.4231 H   0  0  0  0  0  0  0  0  0  0  0  0
   -9.8205   10.7186  -10.3637 H   0  0  0  0  0  0  0  0  0  0  0  0
   -6.8454   11.0116   -9.5729 H   0  0  0  0  0  0  0  0  0  0  0  0
   -8.2085   12.0810   -9.0599 H   0  0  0  0  0  0  0  0  0  0  0  0
   -8.1602   10.3639   -8.5079 H   0  0  0  0  0  0  0  0  0  0  0  0
  -10.5349   -2.4007   -8.7563 H   0  0  0  0  0  0  0  0  0  0  0  0
   -9.6515   -3.4419   -9.9289 H   0  0  0  0  0  0  0  0  0  0  0  0
   -8.6342   -3.6045   -7.6676 H   0  0  0  0  0  0  0  0  0  0  0  0
   -8.3804   -1.8186   -7.6184 H   0  0  0  0  0  0  0  0  0  0  0  0
   -7.4709   -2.8360   -8.8095 H   0  0  0  0  0  0  0  0  0  0  0  0
  -11.3985    1.8546  -12.2910 H   0  0  0  0  0  0  0  0  0  0  0  0
  -12.8105    3.8660  -13.1581 H   0  0  0  0  0  0  0  0  0  0  0  0
  1  2  2  0
  2  3  1  0
  3  4  2  0
  4  5  1  0
  5  6  1  0
  6  7  1  0
  7  8  1  0
  8  9  1  0
  7 10  2  0
 10 11  1  0
 10 12  1  0
 12 13  1  0
  4 14  1  0
 14 15  2  0
 15 16  1  0
 16 17  1  0
 17 18  1  0
 18 19  1  0
 19 20  1  0
 20 21  1  0
 19 22  2  0
 22 23  1  0
 23 24  1  0
 22 25  1  0
 16 26  2  0
 26 27  1  0
 15 28  1  0
 28 29  2  0
 29 30  1  0
 29 31  1  0
 31 32  2  0
 32 33  1  0
 33 34  2  0
 34 35  1  0
 35 36  1  0
 36 37  1  0
 37 38  1  0
 38 39  1  0
 37 40  2  0
 40 41  1  0
 40 42  1  0
 42 43  1  0
 34 44  1  0
 44 45  2  0
 45 46  1  0
 46 47  1  0
 47 48  1  0
 48 49  1  0
 49 50  1  0
 50 51  1  0
 49 52  2  0
 52 53  1  0
 53 54  1  0
 52 55  1  0
 46 56  2  0
 56 57  1  0
 45 58  1  0
 58 59  2  0
 59 60  1  0
 59 61  1  0
 61 62  2  0
 62 63  1  0
 63 64  2  0
 64 65  1  0
 65 66  2  0
 64 67  1  0
 67 68  2  0
 68 69  1  0
 69 70  2  0
 70 71  1  0
 71 72  2  0
 70 73  1  0
 73 74  2  0
 74 75  1  0
 75 76  2  0
 76 77  1  0
 77 78  1  0
 78 79  1  0
 79 80  1  0
 80 81  1  0
 79 82  2  0
 82 83  1  0
 82 84  1  0
 84 85  1  0
 76 86  1  0
 86 87  2  0
 87 88  1  0
 88 89  1  0
 89 90  1  0
 90 91  1  0
 91 92  1  0
 92 93  1  0
 91 94  2  0
 94 95  1  0
 95 96  1  0
 94 97  1  0
 88 98  2  0
 98 99  1  0
 87100  1  0
100101  2  0
101102  1  0
101103  1  0
103104  2  0
104105  1  0
105106  2  0
106107  1  0
107108  1  0
108109  1  0
109110  1  0
110111  1  0
109112  2  0
112113  1  0
112114  1  0
114115  1  0
106116  1  0
116117  2  0
117118  1  0
118119  1  0
119120  1  0
120121  1  0
121122  1  0
122123  1  0
121124  2  0
124125  1  0
125126  1  0
124127  1  0
118128  2  0
128129  1  0
117130  1  0
130131  2  0
131132  1  0
 27  1  1  0
 57 31  1  0
 65 61  1  0
 71 67  1  0
 99 73  1  0
129103  1  0
 26  3  1  0
 56 33  1  0
 98 75  1  0
128105  1  0
 12  5  2  0
 30 14  1  0
 42 35  2  0
 60 44  1  0
 84 77  2  0
102 86  1  0
114107  2  0
132116  1  0
 23 17  2  0
 53 47  2  0
 95 89  2  0
125119  2  0
  1133  1  0
  2134  1  0
  8135  1  0
  8136  1  0
  9137  1  0
  9138  1  0
  9139  1  0
 20140  1  0
 20141  1  0
 21142  1  0
 21143  1  0
 21144  1  0
 28145  1  0
 32146  1  0
 38147  1  0
 38148  1  0
 39149  1  0
 39150  1  0
 39151  1  0
 50152  1  0
 50153  1  0
 51154  1  0
 51155  1  0
 51156  1  0
 58157  1  0
 62158  1  0
 63159  1  0
 68160  1  0
 69161  1  0
 74162  1  0
 80163  1  0
 80164  1  0
 81165  1  0
 81166  1  0
 81167  1  0
 92168  1  0
 92169  1  0
 93170  1  0
 93171  1  0
 93172  1  0
100173  1  0
104174  1  0
110175  1  0
110176  1  0
111177  1  0
111178  1  0
111179  1  0
122180  1  0
122181  1  0
123182  1  0
123183  1  0
123184  1  0
130185  1  0
131186  1  0
M  END

