
     RDKit          3D

106113  0  0  0  0  0  0  0  0999 V2000
    7.1434    0.8704    6.4240 C   0  0  0  0  0  0  0  0  0  0  0  0
    5.9938    1.1549    7.0959 N   0  0  0  0  0  0  0  0  0  0  0  0
    5.1553    1.8205    6.2534 C   0  0  0  0  0  0  0  0  0  0  0  0
    5.8085    1.9557    5.0504 C   0  0  0  0  0  0  0  0  0  0  0  0
    6.9970    1.3920    5.1660 C   0  0  0  0  0  0  0  0  0  0  0  0
    7.6948    1.3808    4.0253 N   0  0  0  0  0  0  0  0  0  0  0  0
    6.8677    1.9939    3.1341 C   0  0  0  0  0  0  0  0  0  0  0  0
    5.6605    2.3794    3.7533 C   0  0  0  0  0  0  0  0  0  0  0  0
    4.4494    2.9636    3.1508 C   0  0  0  0  0  0  0  0  0  0  0  0
    4.3195    3.1373    1.8321 C   0  0  0  0  0  0  0  0  0  0  0  0
    3.0701    3.5780    1.1778 C   0  0  0  0  0  0  0  0  0  0  0  0
    3.0920    4.1783    0.0086 O   0  0  0  0  0  0  0  0  0  0  0  0
    1.8676    4.4847   -0.3499 C   0  0  0  0  0  0  0  0  0  0  0  0
    0.9866    4.0598    0.6203 C   0  0  0  0  0  0  0  0  0  0  0  0
   -0.4876    4.2925    0.6228 C   0  0  0  0  0  0  0  0  0  0  0  0
    1.7435    3.4595    1.6116 C   0  0  0  0  0  0  0  0  0  0  0  0
    1.1826    2.8568    2.8441 C   0  0  0  0  0  0  0  0  0  0  0  0
    1.4061    1.6028    3.2644 C   0  0  0  0  0  0  0  0  0  0  0  0
    2.2948    0.6457    2.5807 C   0  0  0  0  0  0  0  0  0  0  0  0
    2.5174   -0.5705    3.0835 C   0  0  0  0  0  0  0  0  0  0  0  0
    3.5218   -1.5058    2.5400 C   0  0  0  0  0  0  0  0  0  0  0  0
    4.0821   -2.4215    3.3010 O   0  0  0  0  0  0  0  0  0  0  0  0
    4.9919   -3.0701    2.6099 C   0  0  0  0  0  0  0  0  0  0  0  0
    5.0380   -2.5627    1.3282 C   0  0  0  0  0  0  0  0  0  0  0  0
    5.9133   -3.0375    0.2127 C   0  0  0  0  0  0  0  0  0  0  0  0
    4.0695   -1.5793    1.2582 C   0  0  0  0  0  0  0  0  0  0  0  0
    3.7360   -0.8080    0.0483 C   0  0  0  0  0  0  0  0  0  0  0  0
    2.4744   -0.6187   -0.3474 C   0  0  0  0  0  0  0  0  0  0  0  0
    2.1816    0.2532   -1.4961 C   0  0  0  0  0  0  0  0  0  0  0  0
    0.9397    0.3971   -1.9704 C   0  0  0  0  0  0  0  0  0  0  0  0
    0.6607    1.3220   -3.0859 C   0  0  0  0  0  0  0  0  0  0  0  0
    1.5623    2.1351   -3.5959 O   0  0  0  0  0  0  0  0  0  0  0  0
    1.0326    2.7956   -4.6007 C   0  0  0  0  0  0  0  0  0  0  0  0
   -0.2811    2.4019   -4.7637 C   0  0  0  0  0  0  0  0  0  0  0  0
   -1.2120    2.8449   -5.8469 C   0  0  0  0  0  0  0  0  0  0  0  0
   -0.5337    1.4637   -3.7817 C   0  0  0  0  0  0  0  0  0  0  0  0
   -1.7680    0.6655   -3.6622 C   0  0  0  0  0  0  0  0  0  0  0  0
   -2.5452    0.6347   -2.5742 C   0  0  0  0  0  0  0  0  0  0  0  0
   -2.2611    1.3986   -1.3377 C   0  0  0  0  0  0  0  0  0  0  0  0
   -3.0793    1.4334   -0.2744 C   0  0  0  0  0  0  0  0  0  0  0  0
   -4.3417    0.6809   -0.1475 C   0  0  0  0  0  0  0  0  0  0  0  0
   -5.4832    1.2587    0.1519 O   0  0  0  0  0  0  0  0  0  0  0  0
   -6.4253    0.3467    0.2072 C   0  0  0  0  0  0  0  0  0  0  0  0
   -5.8819   -0.8958   -0.0520 C   0  0  0  0  0  0  0  0  0  0  0  0
   -6.6316   -2.1877   -0.0286 C   0  0  0  0  0  0  0  0  0  0  0  0
   -4.5294   -0.6865   -0.2893 C   0  0  0  0  0  0  0  0  0  0  0  0
   -3.4697   -1.6906   -0.5257 C   0  0  0  0  0  0  0  0  0  0  0  0
   -3.6657   -2.7781   -1.2753 C   0  0  0  0  0  0  0  0  0  0  0  0
   -2.5722   -3.7394   -1.5378 C   0  0  0  0  0  0  0  0  0  0  0  0
   -2.7192   -4.8534   -2.2674 C   0  0  0  0  0  0  0  0  0  0  0  0
   -4.0040   -5.3090   -2.8214 C   0  0  0  0  0  0  0  0  0  0  0  0
   -4.2204   -5.6126   -4.1297 N   0  0  0  0  0  0  0  0  0  0  0  0
   -5.5372   -5.9321   -4.2736 C   0  0  0  0  0  0  0  0  0  0  0  0
   -6.1313   -5.8455   -3.0311 C   0  0  0  0  0  0  0  0  0  0  0  0
   -5.1938   -5.4939   -2.1626 C   0  0  0  0  0  0  0  0  0  0  0  0
   -5.6347   -5.4013   -0.9021 N   0  0  0  0  0  0  0  0  0  0  0  0
   -6.9602   -5.6945   -1.0046 C   0  0  0  0  0  0  0  0  0  0  0  0
   -7.3158   -5.9810   -2.3330 C   0  0  0  0  0  0  0  0  0  0  0  0
   -8.6691   -6.3170   -2.8031 C   0  0  0  0  0  0  0  0  0  0  0  0
   -8.9910   -6.4189   -4.0891 C   0  0  0  0  0  0  0  0  0  0  0  0
    7.9812    0.3132    6.8218 H   0  0  0  0  0  0  0  0  0  0  0  0
    5.7789    0.8806    8.0802 H   0  0  0  0  0  0  0  0  0  0  0  0
    4.1483    2.1414    6.4931 H   0  0  0  0  0  0  0  0  0  0  0  0
    8.6324    0.9510    3.8476 H   0  0  0  0  0  0  0  0  0  0  0  0
    7.1187    2.1324    2.0923 H   0  0  0  0  0  0  0  0  0  0  0  0
    3.6358    3.2170    3.8124 H   0  0  0  0  0  0  0  0  0  0  0  0
    5.1614    2.9528    1.1803 H   0  0  0  0  0  0  0  0  0  0  0  0
    1.6100    4.9974   -1.2659 H   0  0  0  0  0  0  0  0  0  0  0  0
   -0.7032    5.2769    1.0890 H   0  0  0  0  0  0  0  0  0  0  0  0
   -0.9977    3.4957    1.2011 H   0  0  0  0  0  0  0  0  0  0  0  0
   -0.8720    4.2845   -0.4183 H   0  0  0  0  0  0  0  0  0  0  0  0
    0.4570    3.4473    3.3915 H   0  0  0  0  0  0  0  0  0  0  0  0
    0.8950    1.2772    4.1625 H   0  0  0  0  0  0  0  0  0  0  0  0
    2.8209    0.9612    1.7030 H   0  0  0  0  0  0  0  0  0  0  0  0
    2.0266   -0.8576    4.0051 H   0  0  0  0  0  0  0  0  0  0  0  0
    5.6096   -3.8687    3.0028 H   0  0  0  0  0  0  0  0  0  0  0  0
    5.2915   -3.5233   -0.5664 H   0  0  0  0  0  0  0  0  0  0  0  0
    6.4543   -2.1775   -0.2358 H   0  0  0  0  0  0  0  0  0  0  0  0
    6.6632   -3.7644    0.5837 H   0  0  0  0  0  0  0  0  0  0  0  0
    4.5548   -0.4223   -0.5484 H   0  0  0  0  0  0  0  0  0  0  0  0
    1.6574   -1.0684    0.2086 H   0  0  0  0  0  0  0  0  0  0  0  0
    3.0011    0.8037   -1.9477 H   0  0  0  0  0  0  0  0  0  0  0  0
    0.1289   -0.1808   -1.5432 H   0  0  0  0  0  0  0  0  0  0  0  0
    1.5610    3.5301   -5.1997 H   0  0  0  0  0  0  0  0  0  0  0  0
   -1.2466    2.0759   -6.6470 H   0  0  0  0  0  0  0  0  0  0  0  0
   -0.8647    3.8067   -6.2782 H   0  0  0  0  0  0  0  0  0  0  0  0
   -2.2304    2.9917   -5.4306 H   0  0  0  0  0  0  0  0  0  0  0  0
   -2.1233    0.1662   -4.5537 H   0  0  0  0  0  0  0  0  0  0  0  0
   -3.4671    0.0768   -2.6539 H   0  0  0  0  0  0  0  0  0  0  0  0
   -1.3824    2.0305   -1.3011 H   0  0  0  0  0  0  0  0  0  0  0  0
   -2.8519    2.1322    0.5212 H   0  0  0  0  0  0  0  0  0  0  0  0
   -7.4645    0.5508    0.4311 H   0  0  0  0  0  0  0  0  0  0  0  0
   -6.8233   -2.5363   -1.0629 H   0  0  0  0  0  0  0  0  0  0  0  0
   -7.6062   -2.0475    0.4770 H   0  0  0  0  0  0  0  0  0  0  0  0
   -6.0561   -2.9465    0.5375 H   0  0  0  0  0  0  0  0  0  0  0  0
   -2.4778   -1.4846   -0.1434 H   0  0  0  0  0  0  0  0  0  0  0  0
   -4.6233   -2.9195   -1.7492 H   0  0  0  0  0  0  0  0  0  0  0  0
   -1.5802   -3.5061   -1.1699 H   0  0  0  0  0  0  0  0  0  0  0  0
   -1.8323   -5.4233   -2.5144 H   0  0  0  0  0  0  0  0  0  0  0  0
   -3.5101   -5.5811   -4.8945 H   0  0  0  0  0  0  0  0  0  0  0  0
   -5.9995   -6.2146   -5.2080 H   0  0  0  0  0  0  0  0  0  0  0  0
   -5.0940   -5.1615   -0.0432 H   0  0  0  0  0  0  0  0  0  0  0  0
   -7.6415   -5.6869   -0.1629 H   0  0  0  0  0  0  0  0  0  0  0  0
   -9.4472   -6.4510   -2.0607 H   0  0  0  0  0  0  0  0  0  0  0  0
   -8.2627   -6.2722   -4.8700 H   0  0  0  0  0  0  0  0  0  0  0  0
  -10.0099   -6.6446   -4.3700 H   0  0  0  0  0  0  0  0  0  0  0  0
  1  2  1  0
  2  3  1  0
  3  4  2  0
  4  5  1  0
  5  6  1  0
  6  7  1  0
  7  8  2  0
  8  9  1  0
  9 10  2  3
 10 11  1  0
 11 12  1  0
 12 13  1  0
 13 14  2  0
 14 15  1  0
 14 16  1  0
 16 17  1  0
 17 18  2  3
 18 19  1  0
 19 20  2  3
 20 21  1  0
 21 22  1  0
 22 23  1  0
 23 24  2  0
 24 25  1  0
 24 26  1  0
 26 27  1  0
 27 28  2  3
 28 29  1  0
 29 30  2  3
 30 31  1  0
 31 32  1  0
 32 33  1  0
 33 34  2  0
 34 35  1  0
 34 36  1  0
 36 37  1  0
 37 38  2  3
 38 39  1  0
 39 40  2  3
 40 41  1  0
 41 42  1  0
 42 43  1  0
 43 44  2  0
 44 45  1  0
 44 46  1  0
 46 47  1  0
 47 48  2  3
 48 49  1  0
 49 50  2  3
 50 51  1  0
 51 52  1  0
 52 53  1  0
 53 54  2  0
 54 55  1  0
 55 56  1  0
 56 57  1  0
 57 58  2  0
 58 59  1  0
 59 60  2  3
  5  1  2  0
 16 11  2  0
 26 21  2  0
 36 31  2  0
 46 41  2  0
 55 51  2  0
  8  4  1  0
 58 54  1  0
  1 61  1  0
  2 62  1  0
  3 63  1  0
  6 64  1  0
  7 65  1  0
  9 66  1  0
 10 67  1  0
 13 68  1  0
 15 69  1  0
 15 70  1  0
 15 71  1  0
 17 72  1  0
 18 73  1  0
 19 74  1  0
 20 75  1  0
 23 76  1  0
 25 77  1  0
 25 78  1  0
 25 79  1  0
 27 80  1  0
 28 81  1  0
 29 82  1  0
 30 83  1  0
 33 84  1  0
 35 85  1  0
 35 86  1  0
 35 87  1  0
 37 88  1  0
 38 89  1  0
 39 90  1  0
 40 91  1  0
 43 92  1  0
 45 93  1  0
 45 94  1  0
 45 95  1  0
 47 96  1  0
 48 97  1  0
 49 98  1  0
 50 99  1  0
 52100  1  0
 53101  1  0
 56102  1  0
 57103  1  0
 59104  1  0
 60105  1  0
 60106  1  0
M  END

