
     RDKit          3D

230256  0  0  0  0  0  0  0  0999 V2000
    4.0005  -10.5850    7.8746 C   0  0  0  0  0  0  0  0  0  0  0  0
    4.2276  -10.2920    6.5338 C   0  0  0  0  0  0  0  0  0  0  0  0
    3.0999   -9.7630    5.8837 C   0  0  0  0  0  0  0  0  0  0  0  0
    3.0159   -9.3565    4.5340 C   0  0  0  0  0  0  0  0  0  0  0  0
    4.1653   -9.4536    3.6170 C   0  0  0  0  0  0  0  0  0  0  0  0
    4.9414   -8.1409    2.9030 S   0  0  0  0  0  0  0  0  0  0  0  0
    6.1136   -9.0407    2.0985 C   0  0  0  0  0  0  0  0  0  0  0  0
    7.1591   -8.4551    1.1987 C   0  0  0  0  0  0  0  0  0  0  0  0
    6.8000   -8.6750   -0.2680 C   0  0  0  0  0  0  0  0  0  0  0  0
    5.8974  -10.3911    2.3644 C   0  0  0  0  0  0  0  0  0  0  0  0
    6.8830  -11.6828    1.7000 Cl  0  0  0  0  0  0  0  0  0  0  0  0
    4.8044  -10.6231    3.2154 C   0  0  0  0  0  0  0  0  0  0  0  0
    4.2569  -12.2319    3.6727 Cl  0  0  0  0  0  0  0  0  0  0  0  0
    1.7966   -8.7978    4.1129 C   0  0  0  0  0  0  0  0  0  0  0  0
    0.7073   -8.6426    4.9748 C   0  0  0  0  0  0  0  0  0  0  0  0
    0.7802   -9.0734    6.3102 C   0  0  0  0  0  0  0  0  0  0  0  0
   -0.3686   -8.9506    7.2209 C   0  0  0  0  0  0  0  0  0  0  0  0
   -1.7849   -9.8483    7.0937 S   0  0  0  0  0  0  0  0  0  0  0  0
   -2.6179   -9.0366    8.3093 C   0  0  0  0  0  0  0  0  0  0  0  0
   -4.0550   -9.2882    8.6591 C   0  0  0  0  0  0  0  0  0  0  0  0
   -4.9780   -8.4488    7.7833 C   0  0  0  0  0  0  0  0  0  0  0  0
   -1.8033   -8.0213    8.8084 C   0  0  0  0  0  0  0  0  0  0  0  0
   -0.5384   -7.9771    8.2001 C   0  0  0  0  0  0  0  0  0  0  0  0
    0.6727   -6.7595    8.5709 Cl  0  0  0  0  0  0  0  0  0  0  0  0
   -2.3244   -6.8726   10.0308 Cl  0  0  0  0  0  0  0  0  0  0  0  0
    1.9984   -9.6243    6.7342 C   0  0  0  0  0  0  0  0  0  0  0  0
    2.4099  -10.1793    8.2655 S   0  0  0  0  0  0  0  0  0  0  0  0
   -0.3798   -7.9862    4.3827 C   0  0  0  0  0  0  0  0  0  0  0  0
   -0.1514   -7.6559    3.0502 C   0  0  0  0  0  0  0  0  0  0  0  0
    1.3975   -8.1614    2.6027 S   0  0  0  0  0  0  0  0  0  0  0  0
   -1.0270   -6.8028    2.2443 C   0  0  0  0  0  0  0  0  0  0  0  0
   -1.7823   -5.7510    2.7554 C   0  0  0  0  0  0  0  0  0  0  0  0
   -2.4049   -4.9932    1.7569 C   0  0  0  0  0  0  0  0  0  0  0  0
   -3.1411   -3.8085    1.9573 C   0  0  0  0  0  0  0  0  0  0  0  0
   -3.2797   -3.1981    3.2931 C   0  0  0  0  0  0  0  0  0  0  0  0
   -1.9928   -2.6468    4.2255 S   0  0  0  0  0  0  0  0  0  0  0  0
   -2.9203   -2.1598    5.5440 C   0  0  0  0  0  0  0  0  0  0  0  0
   -2.3625   -1.5471    6.7942 C   0  0  0  0  0  0  0  0  0  0  0  0
   -1.9230   -0.1105    6.5392 C   0  0  0  0  0  0  0  0  0  0  0  0
   -4.2621   -2.4166    5.2622 C   0  0  0  0  0  0  0  0  0  0  0  0
   -5.5776   -2.0552    6.3697 Cl  0  0  0  0  0  0  0  0  0  0  0  0
   -4.4618   -3.0059    4.0042 C   0  0  0  0  0  0  0  0  0  0  0  0
   -6.0382   -3.5052    3.4122 Cl  0  0  0  0  0  0  0  0  0  0  0  0
   -3.6375   -3.1713    0.8084 C   0  0  0  0  0  0  0  0  0  0  0  0
   -3.4205   -3.6660   -0.4820 C   0  0  0  0  0  0  0  0  0  0  0  0
   -2.7019   -4.8630   -0.6764 C   0  0  0  0  0  0  0  0  0  0  0  0
   -2.4935   -5.4272   -2.0156 C   0  0  0  0  0  0  0  0  0  0  0  0
   -1.5603   -4.7228   -3.2183 S   0  0  0  0  0  0  0  0  0  0  0  0
   -1.9240   -5.8507   -4.4107 C   0  0  0  0  0  0  0  0  0  0  0  0
   -1.3639   -5.8305   -5.7992 C   0  0  0  0  0  0  0  0  0  0  0  0
   -0.0766   -6.6438   -5.8761 C   0  0  0  0  0  0  0  0  0  0  0  0
   -2.7789   -6.8110   -3.8719 C   0  0  0  0  0  0  0  0  0  0  0  0
   -3.1054   -6.5687   -2.5280 C   0  0  0  0  0  0  0  0  0  0  0  0
   -4.2162   -7.5702   -1.6047 Cl  0  0  0  0  0  0  0  0  0  0  0  0
   -3.4045   -8.1740   -4.7867 Cl  0  0  0  0  0  0  0  0  0  0  0  0
   -2.1882   -5.4934    0.4678 C   0  0  0  0  0  0  0  0  0  0  0  0
   -1.1564   -6.8265    0.5596 S   0  0  0  0  0  0  0  0  0  0  0  0
   -3.9405   -2.8297   -1.4880 C   0  0  0  0  0  0  0  0  0  0  0  0
   -4.5411   -1.6808   -0.9776 C   0  0  0  0  0  0  0  0  0  0  0  0
   -4.4496   -1.7049    0.7064 S   0  0  0  0  0  0  0  0  0  0  0  0
   -5.0289   -0.5416   -1.7653 C   0  0  0  0  0  0  0  0  0  0  0  0
   -5.7146    0.5499   -1.2401 C   0  0  0  0  0  0  0  0  0  0  0  0
   -5.9085    1.5743   -2.1755 C   0  0  0  0  0  0  0  0  0  0  0  0
   -6.5452    2.8051   -1.9317 C   0  0  0  0  0  0  0  0  0  0  0  0
   -7.1619    3.1211   -0.6316 C   0  0  0  0  0  0  0  0  0  0  0  0
   -6.3339    3.2486    0.8280 S   0  0  0  0  0  0  0  0  0  0  0  0
   -7.7032    3.4561    1.7857 C   0  0  0  0  0  0  0  0  0  0  0  0
   -7.6836    3.6241    3.2747 C   0  0  0  0  0  0  0  0  0  0  0  0
   -7.7881    5.0948    3.6555 C   0  0  0  0  0  0  0  0  0  0  0  0
   -8.8312    3.4401    0.9680 C   0  0  0  0  0  0  0  0  0  0  0  0
  -10.4740    3.5990    1.5753 Cl  0  0  0  0  0  0  0  0  0  0  0  0
   -8.5276    3.2460   -0.3874 C   0  0  0  0  0  0  0  0  0  0  0  0
   -9.7512    3.0910   -1.6398 Cl  0  0  0  0  0  0  0  0  0  0  0  0
   -6.5768    3.7208   -2.9932 C   0  0  0  0  0  0  0  0  0  0  0  0
   -6.0501    3.4312   -4.2585 C   0  0  0  0  0  0  0  0  0  0  0  0
   -5.4709    2.1720   -4.5227 C   0  0  0  0  0  0  0  0  0  0  0  0
   -4.9759    1.8039   -5.8624 C   0  0  0  0  0  0  0  0  0  0  0  0
   -3.4008    1.3229   -6.2176 S   0  0  0  0  0  0  0  0  0  0  0  0
   -3.6664    1.0298   -7.8550 C   0  0  0  0  0  0  0  0  0  0  0  0
   -2.6186    0.5719   -8.8222 C   0  0  0  0  0  0  0  0  0  0  0  0
   -1.8879    1.7631   -9.4338 C   0  0  0  0  0  0  0  0  0  0  0  0
   -4.9947    1.3307   -8.1517 C   0  0  0  0  0  0  0  0  0  0  0  0
   -5.7306    1.7541   -7.0345 C   0  0  0  0  0  0  0  0  0  0  0  0
   -7.4547    2.1030   -7.0982 Cl  0  0  0  0  0  0  0  0  0  0  0  0
   -5.6867    1.1828   -9.7600 Cl  0  0  0  0  0  0  0  0  0  0  0  0
   -5.3898    1.2749   -3.4417 C   0  0  0  0  0  0  0  0  0  0  0  0
   -4.6855   -0.2560   -3.3953 S   0  0  0  0  0  0  0  0  0  0  0  0
   -6.0743    4.5353   -5.1261 C   0  0  0  0  0  0  0  0  0  0  0  0
   -6.6021    5.6802   -4.5291 C   0  0  0  0  0  0  0  0  0  0  0  0
   -7.0548    5.3279   -2.9449 S   0  0  0  0  0  0  0  0  0  0  0  0
   -6.4627    7.0559   -5.0347 C   0  0  0  0  0  0  0  0  0  0  0  0
   -5.2066    7.7166   -5.0262 C   0  0  0  0  0  0  0  0  0  0  0  0
   -5.1435    9.0861   -5.3362 C   0  0  0  0  0  0  0  0  0  0  0  0
   -6.3100    9.7939   -5.6387 C   0  0  0  0  0  0  0  0  0  0  0  0
   -7.5546    9.1345   -5.6488 C   0  0  0  0  0  0  0  0  0  0  0  0
   -7.6274    7.7719   -5.3451 C   0  0  0  0  0  0  0  0  0  0  0  0
   -8.6806    9.8412   -5.9336 N   0  0  0  0  0  0  0  0  0  0  0  0
   -8.6249   11.1704   -6.2120 C   0  0  0  0  0  0  0  0  0  0  0  0
   -7.3891   11.8247   -6.2015 C   0  0  0  0  0  0  0  0  0  0  0  0
   -6.2603   11.1242   -5.9169 N   0  0  0  0  0  0  0  0  0  0  0  0
   -3.9740    6.9743   -4.6818 C   0  0  0  0  0  0  0  0  0  0  0  0
   -3.0415    7.4524   -3.8487 C   0  0  0  0  0  0  0  0  0  0  0  0
   -1.9077    6.6160   -3.4043 C   0  0  0  0  0  0  0  0  0  0  0  0
   -0.9433    7.0015   -2.4729 C   0  0  0  0  0  0  0  0  0  0  0  0
   -0.0196    5.9815   -2.1861 C   0  0  0  0  0  0  0  0  0  0  0  0
    1.0726    6.0567   -1.2953 C   0  0  0  0  0  0  0  0  0  0  0  0
    1.3065    7.2427   -0.4543 C   0  0  0  0  0  0  0  0  0  0  0  0
    2.6710    8.2248   -0.5144 S   0  0  0  0  0  0  0  0  0  0  0  0
    2.2162    9.2403    0.7491 C   0  0  0  0  0  0  0  0  0  0  0  0
    3.0714   10.3385    1.3077 C   0  0  0  0  0  0  0  0  0  0  0  0
    3.9965    9.8039    2.3934 C   0  0  0  0  0  0  0  0  0  0  0  0
    0.9938    8.8007    1.2564 C   0  0  0  0  0  0  0  0  0  0  0  0
    0.1971    9.5282    2.6449 Cl  0  0  0  0  0  0  0  0  0  0  0  0
    0.4854    7.6836    0.5791 C   0  0  0  0  0  0  0  0  0  0  0  0
   -0.9964    6.8612    1.0516 Cl  0  0  0  0  0  0  0  0  0  0  0  0
    1.8907    4.9149   -1.1896 C   0  0  0  0  0  0  0  0  0  0  0  0
    1.6165    3.7327   -1.8842 C   0  0  0  0  0  0  0  0  0  0  0  0
    0.5253    3.6569   -2.7672 C   0  0  0  0  0  0  0  0  0  0  0  0
    0.2534    2.4552   -3.5689 C   0  0  0  0  0  0  0  0  0  0  0  0
   -0.3988    1.0188   -2.9785 S   0  0  0  0  0  0  0  0  0  0  0  0
   -0.3217    0.1857   -4.4400 C   0  0  0  0  0  0  0  0  0  0  0  0
   -0.7063   -1.2480   -4.6290 C   0  0  0  0  0  0  0  0  0  0  0  0
    0.5233   -2.1482   -4.5912 C   0  0  0  0  0  0  0  0  0  0  0  0
    0.2449    1.0221   -5.4029 C   0  0  0  0  0  0  0  0  0  0  0  0
    0.5517    2.2986   -4.9185 C   0  0  0  0  0  0  0  0  0  0  0  0
    1.2952    3.5564   -5.8948 Cl  0  0  0  0  0  0  0  0  0  0  0  0
    0.6023    0.5135   -7.0457 Cl  0  0  0  0  0  0  0  0  0  0  0  0
   -0.2645    4.8071   -2.9021 C   0  0  0  0  0  0  0  0  0  0  0  0
   -1.6148    5.0141   -3.8748 S   0  0  0  0  0  0  0  0  0  0  0  0
    2.5280    2.7064   -1.6106 C   0  0  0  0  0  0  0  0  0  0  0  0
    3.5217    3.0884   -0.7155 C   0  0  0  0  0  0  0  0  0  0  0  0
    3.2714    4.6938   -0.2489 S   0  0  0  0  0  0  0  0  0  0  0  0
    4.6077    2.2144   -0.2544 C   0  0  0  0  0  0  0  0  0  0  0  0
    5.8941    2.6176    0.1049 C   0  0  0  0  0  0  0  0  0  0  0  0
    6.7273    1.5361    0.4371 C   0  0  0  0  0  0  0  0  0  0  0  0
    8.0922    1.6039    0.7920 C   0  0  0  0  0  0  0  0  0  0  0  0
    8.8399    2.8757    0.7774 C   0  0  0  0  0  0  0  0  0  0  0  0
    9.0858    3.8209   -0.5946 S   0  0  0  0  0  0  0  0  0  0  0  0
    9.9771    5.0249    0.1707 C   0  0  0  0  0  0  0  0  0  0  0  0
   10.5767    6.2089   -0.5250 C   0  0  0  0  0  0  0  0  0  0  0  0
   12.0118    5.9189   -0.9480 C   0  0  0  0  0  0  0  0  0  0  0  0
   10.1079    4.6926    1.5180 C   0  0  0  0  0  0  0  0  0  0  0  0
   10.9897    5.6763    2.6778 Cl  0  0  0  0  0  0  0  0  0  0  0  0
    9.4627    3.4931    1.8616 C   0  0  0  0  0  0  0  0  0  0  0  0
    9.3919    2.8730    3.5053 Cl  0  0  0  0  0  0  0  0  0  0  0  0
    8.7303    0.3843    1.0956 C   0  0  0  0  0  0  0  0  0  0  0  0
    8.0644   -0.8458    1.0568 C   0  0  0  0  0  0  0  0  0  0  0  0
    6.7071   -0.9112    0.6954 C   0  0  0  0  0  0  0  0  0  0  0  0
    5.9675   -2.1840    0.6594 C   0  0  0  0  0  0  0  0  0  0  0  0
    6.0252   -3.2992   -0.5987 S   0  0  0  0  0  0  0  0  0  0  0  0
    4.8987   -4.3643    0.0595 C   0  0  0  0  0  0  0  0  0  0  0  0
    4.3938   -5.5999   -0.6218 C   0  0  0  0  0  0  0  0  0  0  0  0
    3.1223   -5.3013   -1.4112 C   0  0  0  0  0  0  0  0  0  0  0  0
    4.4519   -3.8483    1.2738 C   0  0  0  0  0  0  0  0  0  0  0  0
    5.0503   -2.6261    1.6111 C   0  0  0  0  0  0  0  0  0  0  0  0
    4.6802   -1.7348    3.0792 Cl  0  0  0  0  0  0  0  0  0  0  0  0
    3.2355   -4.6357    2.2718 Cl  0  0  0  0  0  0  0  0  0  0  0  0
    6.0725    0.3011    0.3811 C   0  0  0  0  0  0  0  0  0  0  0  0
    4.4913    0.5350   -0.1341 S   0  0  0  0  0  0  0  0  0  0  0  0
    8.8899   -1.9322    1.3877 C   0  0  0  0  0  0  0  0  0  0  0  0
   10.1999   -1.5576    1.6709 C   0  0  0  0  0  0  0  0  0  0  0  0
   10.3393    0.1179    1.5105 S   0  0  0  0  0  0  0  0  0  0  0  0
    4.7309  -10.9923    8.5637 H   0  0  0  0  0  0  0  0  0  0  0  0
    5.1844  -10.4502    6.0549 H   0  0  0  0  0  0  0  0  0  0  0  0
    8.1439   -8.9191    1.4149 H   0  0  0  0  0  0  0  0  0  0  0  0
    7.2478   -7.3663    1.3929 H   0  0  0  0  0  0  0  0  0  0  0  0
    7.4651   -8.0635   -0.9182 H   0  0  0  0  0  0  0  0  0  0  0  0
    5.7439   -8.3803   -0.4613 H   0  0  0  0  0  0  0  0  0  0  0  0
    6.9320   -9.7441   -0.5428 H   0  0  0  0  0  0  0  0  0  0  0  0
   -4.2833  -10.3631    8.5074 H   0  0  0  0  0  0  0  0  0  0  0  0
   -4.2360   -9.0491    9.7261 H   0  0  0  0  0  0  0  0  0  0  0  0
   -6.0384   -8.6920    8.0123 H   0  0  0  0  0  0  0  0  0  0  0  0
   -4.8188   -7.3685    7.9867 H   0  0  0  0  0  0  0  0  0  0  0  0
   -4.7906   -8.6522    6.7049 H   0  0  0  0  0  0  0  0  0  0  0  0
   -1.2863   -7.7234    4.9141 H   0  0  0  0  0  0  0  0  0  0  0  0
   -1.8282   -5.5140    3.8113 H   0  0  0  0  0  0  0  0  0  0  0  0
   -1.4881   -2.1452    7.1329 H   0  0  0  0  0  0  0  0  0  0  0  0
   -3.1172   -1.5600    7.6079 H   0  0  0  0  0  0  0  0  0  0  0  0
   -1.1339   -0.0805    5.7579 H   0  0  0  0  0  0  0  0  0  0  0  0
   -1.5092    0.3252    7.4725 H   0  0  0  0  0  0  0  0  0  0  0  0
   -2.7888    0.5025    6.2077 H   0  0  0  0  0  0  0  0  0  0  0  0
   -1.1573   -4.7820   -6.1004 H   0  0  0  0  0  0  0  0  0  0  0  0
   -2.1065   -6.2468   -6.5111 H   0  0  0  0  0  0  0  0  0  0  0  0
   -0.2685   -7.7015   -5.5926 H   0  0  0  0  0  0  0  0  0  0  0  0
    0.3159   -6.6223   -6.9148 H   0  0  0  0  0  0  0  0  0  0  0  0
    0.6959   -6.2175   -5.1973 H   0  0  0  0  0  0  0  0  0  0  0  0
   -3.8532   -3.0329   -2.5482 H   0  0  0  0  0  0  0  0  0  0  0  0
   -6.0337    0.6032   -0.2079 H   0  0  0  0  0  0  0  0  0  0  0  0
   -6.7392    3.2053    3.6819 H   0  0  0  0  0  0  0  0  0  0  0  0
   -8.5269    3.0579    3.7219 H   0  0  0  0  0  0  0  0  0  0  0  0
   -6.9217    5.6587    3.2538 H   0  0  0  0  0  0  0  0  0  0  0  0
   -7.7934    5.1916    4.7624 H   0  0  0  0  0  0  0  0  0  0  0  0
   -8.7288    5.5338    3.2589 H   0  0  0  0  0  0  0  0  0  0  0  0
   -3.0812   -0.0297   -9.6337 H   0  0  0  0  0  0  0  0  0  0  0  0
   -1.8903   -0.0813   -8.2961 H   0  0  0  0  0  0  0  0  0  0  0  0
   -1.0905    1.4018  -10.1167 H   0  0  0  0  0  0  0  0  0  0  0  0
   -1.4185    2.3862   -8.6407 H   0  0  0  0  0  0  0  0  0  0  0  0
   -2.5973    2.3879  -10.0167 H   0  0  0  0  0  0  0  0  0  0  0  0
   -5.6348    4.5352   -6.1166 H   0  0  0  0  0  0  0  0  0  0  0  0
   -4.1920    9.6073   -5.3378 H   0  0  0  0  0  0  0  0  0  0  0  0
   -8.5899    7.2732   -5.3239 H   0  0  0  0  0  0  0  0  0  0  0  0
   -9.5323   11.7162   -6.4355 H   0  0  0  0  0  0  0  0  0  0  0  0
   -7.3264   12.8829   -6.4149 H   0  0  0  0  0  0  0  0  0  0  0  0
   -3.8715    5.9655   -5.0590 H   0  0  0  0  0  0  0  0  0  0  0  0
   -3.1475    8.4462   -3.4309 H   0  0  0  0  0  0  0  0  0  0  0  0
   -0.9217    7.9813   -2.0162 H   0  0  0  0  0  0  0  0  0  0  0  0
    2.4308   11.1409    1.7298 H   0  0  0  0  0  0  0  0  0  0  0  0
    3.6787   10.7833    0.4923 H   0  0  0  0  0  0  0  0  0  0  0  0
    3.4037    9.3421    3.2137 H   0  0  0  0  0  0  0  0  0  0  0  0
    4.5932   10.6390    2.8229 H   0  0  0  0  0  0  0  0  0  0  0  0
    4.6905    9.0462    1.9693 H   0  0  0  0  0  0  0  0  0  0  0  0
   -1.2352   -1.3707   -5.6016 H   0  0  0  0  0  0  0  0  0  0  0  0
   -1.4074   -1.5552   -3.8214 H   0  0  0  0  0  0  0  0  0  0  0  0
    0.9930   -2.1162   -3.5839 H   0  0  0  0  0  0  0  0  0  0  0  0
    1.2635   -1.8374   -5.3603 H   0  0  0  0  0  0  0  0  0  0  0  0
    0.2323   -3.1918   -4.8152 H   0  0  0  0  0  0  0  0  0  0  0  0
    2.4836    1.7240   -2.0630 H   0  0  0  0  0  0  0  0  0  0  0  0
    6.2160    3.6499    0.0970 H   0  0  0  0  0  0  0  0  0  0  0  0
   10.5564    7.0941    0.1447 H   0  0  0  0  0  0  0  0  0  0  0  0
    9.9727    6.4490   -1.4252 H   0  0  0  0  0  0  0  0  0  0  0  0
   12.0412    5.0496   -1.6395 H   0  0  0  0  0  0  0  0  0  0  0  0
   12.4291    6.8058   -1.4725 H   0  0  0  0  0  0  0  0  0  0  0  0
   12.6414    5.6993   -0.0603 H   0  0  0  0  0  0  0  0  0  0  0  0
    5.1708   -5.9820   -1.3159 H   0  0  0  0  0  0  0  0  0  0  0  0
    4.1864   -6.3882    0.1327 H   0  0  0  0  0  0  0  0  0  0  0  0
    3.3359   -4.5880   -2.2356 H   0  0  0  0  0  0  0  0  0  0  0  0
    2.3408   -4.8675   -0.7496 H   0  0  0  0  0  0  0  0  0  0  0  0
    2.7277   -6.2427   -1.8515 H   0  0  0  0  0  0  0  0  0  0  0  0
    8.5537   -2.9609    1.4130 H   0  0  0  0  0  0  0  0  0  0  0  0
   10.9967   -2.2337    1.9462 H   0  0  0  0  0  0  0  0  0  0  0  0
  1  2  2  0
  2  3  1  0
  3  4  2  0
  4  5  1  0
  5  6  1  0
  6  7  1  0
  7  8  1  0
  8  9  1  0
  7 10  2  0
 10 11  1  0
 10 12  1  0
 12 13  1  0
  4 14  1  0
 14 15  2  0
 15 16  1  0
 16 17  1  0
 17 18  1  0
 18 19  1  0
 19 20  1  0
 20 21  1  0
 19 22  2  0
 22 23  1  0
 23 24  1  0
 22 25  1  0
 16 26  2  0
 26 27  1  0
 15 28  1  0
 28 29  2  0
 29 30  1  0
 29 31  1  0
 31 32  2  0
 32 33  1  0
 33 34  2  0
 34 35  1  0
 35 36  1  0
 36 37  1  0
 37 38  1  0
 38 39  1  0
 37 40  2  0
 40 41  1  0
 40 42  1  0
 42 43  1  0
 34 44  1  0
 44 45  2  0
 45 46  1  0
 46 47  1  0
 47 48  1  0
 48 49  1  0
 49 50  1  0
 50 51  1  0
 49 52  2  0
 52 53  1  0
 53 54  1  0
 52 55  1  0
 46 56  2  0
 56 57  1  0
 45 58  1  0
 58 59  2  0
 59 60  1  0
 59 61  1  0
 61 62  2  0
 62 63  1  0
 63 64  2  0
 64 65  1  0
 65 66  1  0
 66 67  1  0
 67 68  1  0
 68 69  1  0
 67 70  2  0
 70 71  1  0
 70 72  1  0
 72 73  1  0
 64 74  1  0
 74 75  2  0
 75 76  1  0
 76 77  1  0
 77 78  1  0
 78 79  1  0
 79 80  1  0
 80 81  1  0
 79 82  2  0
 82 83  1  0
 83 84  1  0
 82 85  1  0
 76 86  2  0
 86 87  1  0
 75 88  1  0
 88 89  2  0
 89 90  1  0
 89 91  1  0
 91 92  1  0
 92 93  2  0
 93 94  1  0
 94 95  2  0
 95 96  1  0
 95 97  1  0
 97 98  2  0
 98 99  1  0
 99100  2  0
 92101  1  0
101102  2  3
102103  1  0
103104  2  0
104105  1  0
105106  2  0
106107  1  0
107108  1  0
108109  1  0
109110  1  0
110111  1  0
109112  2  0
112113  1  0
112114  1  0
114115  1  0
106116  1  0
116117  2  0
117118  1  0
118119  1  0
119120  1  0
120121  1  0
121122  1  0
122123  1  0
121124  2  0
124125  1  0
125126  1  0
124127  1  0
118128  2  0
128129  1  0
117130  1  0
130131  2  0
131132  1  0
131133  1  0
133134  2  0
134135  1  0
135136  2  0
136137  1  0
137138  1  0
138139  1  0
139140  1  0
140141  1  0
139142  2  0
142143  1  0
142144  1  0
144145  1  0
136146  1  0
146147  2  0
147148  1  0
148149  1  0
149150  1  0
150151  1  0
151152  1  0
152153  1  0
151154  2  0
154155  1  0
155156  1  0
154157  1  0
148158  2  0
158159  1  0
147160  1  0
160161  2  0
161162  1  0
 27  1  1  0
 57 31  1  0
 87 61  1  0
 96 91  2  0
129103  1  0
159133  1  0
 26  3  1  0
 56 33  1  0
 86 63  1  0
100 94  1  0
128105  1  0
158135  1  0
 12  5  2  0
 30 14  1  0
 42 35  2  0
 60 44  1  0
 72 65  2  0
 90 74  1  0
114107  2  0
132116  1  0
144137  2  0
162146  1  0
 23 17  2  0
 53 47  2  0
 83 77  2  0
125119  2  0
155149  2  0
  1163  1  0
  2164  1  0
  8165  1  0
  8166  1  0
  9167  1  0
  9168  1  0
  9169  1  0
 20170  1  0
 20171  1  0
 21172  1  0
 21173  1  0
 21174  1  0
 28175  1  0
 32176  1  0
 38177  1  0
 38178  1  0
 39179  1  0
 39180  1  0
 39181  1  0
 50182  1  0
 50183  1  0
 51184  1  0
 51185  1  0
 51186  1  0
 58187  1  0
 62188  1  0
 68189  1  0
 68190  1  0
 69191  1  0
 69192  1  0
 69193  1  0
 80194  1  0
 80195  1  0
 81196  1  0
 81197  1  0
 81198  1  0
 88199  1  0
 93200  1  0
 96201  1  0
 98202  1  0
 99203  1  0
101204  1  0
102205  1  0
104206  1  0
110207  1  0
110208  1  0
111209  1  0
111210  1  0
111211  1  0
122212  1  0
122213  1  0
123214  1  0
123215  1  0
123216  1  0
130217  1  0
134218  1  0
140219  1  0
140220  1  0
141221  1  0
141222  1  0
141223  1  0
152224  1  0
152225  1  0
153226  1  0
153227  1  0
153228  1  0
160229  1  0
161230  1  0
M  END

