
     RDKit          3D

166183  0  0  0  0  0  0  0  0999 V2000
    1.4994   -2.2008  -12.7820 C   0  0  0  0  0  0  0  0  0  0  0  0
    0.1178   -2.3718  -12.7748 C   0  0  0  0  0  0  0  0  0  0  0  0
   -0.4502   -2.2654  -11.4921 C   0  0  0  0  0  0  0  0  0  0  0  0
   -1.8216   -2.3644  -11.1698 C   0  0  0  0  0  0  0  0  0  0  0  0
   -2.8784   -2.6317  -12.2192 C   0  0  0  0  0  0  0  0  0  0  0  0
   -3.3225   -1.3369  -12.8903 C   0  0  0  0  0  0  0  0  0  0  0  0
   -2.1674   -2.1557   -9.8212 C   0  0  0  0  0  0  0  0  0  0  0  0
   -1.2118   -1.9348   -8.8197 C   0  0  0  0  0  0  0  0  0  0  0  0
    0.1607   -1.8584   -9.1374 C   0  0  0  0  0  0  0  0  0  0  0  0
    1.2069   -1.5319   -8.0960 C   0  0  0  0  0  0  0  0  0  0  0  0
    1.2856   -0.0242   -7.8640 C   0  0  0  0  0  0  0  0  0  0  0  0
    0.4996   -2.0120  -10.4935 C   0  0  0  0  0  0  0  0  0  0  0  0
    2.0211   -1.9152  -11.2028 S   0  0  0  0  0  0  0  0  0  0  0  0
   -1.7788   -1.7632   -7.5475 C   0  0  0  0  0  0  0  0  0  0  0  0
   -3.1696   -1.8135   -7.5640 C   0  0  0  0  0  0  0  0  0  0  0  0
   -3.7102   -2.0814   -9.1391 S   0  0  0  0  0  0  0  0  0  0  0  0
   -4.0213   -1.5735   -6.3995 C   0  0  0  0  0  0  0  0  0  0  0  0
   -4.9580   -0.5501   -6.2935 C   0  0  0  0  0  0  0  0  0  0  0  0
   -5.4354   -0.3820   -4.9796 C   0  0  0  0  0  0  0  0  0  0  0  0
   -6.2835    0.6518   -4.5202 C   0  0  0  0  0  0  0  0  0  0  0  0
   -6.8621    1.6872   -5.4580 C   0  0  0  0  0  0  0  0  0  0  0  0
   -8.0809    1.1302   -6.1862 C   0  0  0  0  0  0  0  0  0  0  0  0
   -6.5511    0.6799   -3.1366 C   0  0  0  0  0  0  0  0  0  0  0  0
   -6.0327   -0.2650   -2.2459 C   0  0  0  0  0  0  0  0  0  0  0  0
   -5.1805   -1.2946   -2.7013 C   0  0  0  0  0  0  0  0  0  0  0  0
   -4.5933   -2.3248   -1.7600 C   0  0  0  0  0  0  0  0  0  0  0  0
   -5.6191   -3.4035   -1.4306 C   0  0  0  0  0  0  0  0  0  0  0  0
   -4.8938   -1.3099   -4.0789 C   0  0  0  0  0  0  0  0  0  0  0  0
   -3.7932   -2.2862   -4.8926 S   0  0  0  0  0  0  0  0  0  0  0  0
   -6.3298    0.0208   -0.9024 C   0  0  0  0  0  0  0  0  0  0  0  0
   -7.0306    1.2163   -0.7287 C   0  0  0  0  0  0  0  0  0  0  0  0
   -7.3231    1.8877   -2.2495 S   0  0  0  0  0  0  0  0  0  0  0  0
   -6.9967    1.9794    0.5287 C   0  0  0  0  0  0  0  0  0  0  0  0
   -6.5963    3.3145    0.5831 C   0  0  0  0  0  0  0  0  0  0  0  0
   -6.0005    3.6692    1.8070 C   0  0  0  0  0  0  0  0  0  0  0  0
   -5.2521    4.8439    2.0467 C   0  0  0  0  0  0  0  0  0  0  0  0
   -5.2613    6.0098    1.0778 C   0  0  0  0  0  0  0  0  0  0  0  0
   -6.6134    6.7217    1.1012 C   0  0  0  0  0  0  0  0  0  0  0  0
   -4.4122    4.8300    3.1795 C   0  0  0  0  0  0  0  0  0  0  0  0
   -4.3933    3.7715    4.0956 C   0  0  0  0  0  0  0  0  0  0  0  0
   -5.2566    2.6646    3.9328 C   0  0  0  0  0  0  0  0  0  0  0  0
   -5.2463    1.4918    4.8873 C   0  0  0  0  0  0  0  0  0  0  0  0
   -4.2009    0.4525    4.4898 C   0  0  0  0  0  0  0  0  0  0  0  0
   -6.0028    2.6245    2.7401 C   0  0  0  0  0  0  0  0  0  0  0  0
   -6.7052    1.2715    2.0338 S   0  0  0  0  0  0  0  0  0  0  0  0
   -3.3219    3.8440    5.0023 C   0  0  0  0  0  0  0  0  0  0  0  0
   -2.4607    4.9131    4.7564 C   0  0  0  0  0  0  0  0  0  0  0  0
   -3.0748    5.8106    3.4687 S   0  0  0  0  0  0  0  0  0  0  0  0
   -1.0349    4.8938    5.1279 C   0  0  0  0  0  0  0  0  0  0  0  0
   -0.5046    4.1885    6.2114 C   0  0  0  0  0  0  0  0  0  0  0  0
    0.8667    3.8976    6.0708 C   0  0  0  0  0  0  0  0  0  0  0  0
    1.6423    3.0815    6.9264 C   0  0  0  0  0  0  0  0  0  0  0  0
    1.1006    2.5503    8.2374 C   0  0  0  0  0  0  0  0  0  0  0  0
    1.1874    3.6081    9.3323 C   0  0  0  0  0  0  0  0  0  0  0  0
    2.9407    2.7569    6.4827 C   0  0  0  0  0  0  0  0  0  0  0  0
    3.4569    3.2023    5.2574 C   0  0  0  0  0  0  0  0  0  0  0  0
    2.7109    4.0786    4.4400 C   0  0  0  0  0  0  0  0  0  0  0  0
    3.2185    4.5454    3.0955 C   0  0  0  0  0  0  0  0  0  0  0  0
    2.8937    3.5253    2.0066 C   0  0  0  0  0  0  0  0  0  0  0  0
    1.4109    4.3932    4.8798 C   0  0  0  0  0  0  0  0  0  0  0  0
    0.2031    5.1832    4.0192 S   0  0  0  0  0  0  0  0  0  0  0  0
    4.6915    2.6134    4.9307 C   0  0  0  0  0  0  0  0  0  0  0  0
    5.1507    1.7402    5.9099 C   0  0  0  0  0  0  0  0  0  0  0  0
    4.0340    1.6739    7.1697 S   0  0  0  0  0  0  0  0  0  0  0  0
    6.2563    0.7930    5.7411 C   0  0  0  0  0  0  0  0  0  0  0  0
    6.2116   -0.2174    4.8904 C   0  0  0  0  0  0  0  0  0  0  0  0
    7.3435   -1.1681    5.0960 C   0  0  2  0  0  0  0  0  0  0  0  0
    8.2953   -0.3922    6.0075 C   0  0  2  0  0  0  0  0  0  0  0  0
    7.4373    0.7217    6.6354 C   0  0  0  0  0  0  0  0  0  0  0  0
    9.4332    0.1482    5.0991 C   0  0  2  0  0  0  0  0  0  0  0  0
    9.3750   -0.6539    3.7930 C   0  0  1  0  0  0  0  0  0  0  0  0
   10.5811   -1.5306    3.8488 C   0  0  0  0  0  0  0  0  0  0  0  0
   11.3688   -1.2333    4.8677 C   0  0  0  0  0  0  0  0  0  0  0  0
   10.8398   -0.1024    5.6758 C   0  0  0  0  0  0  0  0  0  0  0  0
    8.1022   -1.4328    3.8386 C   0  0  0  0  0  0  0  0  0  0  0  0
    7.7667   -2.3017    2.8616 C   0  0  0  0  0  0  0  0  0  0  0  0
    6.5914   -3.2059    2.8265 C   0  0  0  0  0  0  0  0  0  0  0  0
    6.4309   -4.2171    1.8779 C   0  0  0  0  0  0  0  0  0  0  0  0
    5.2291   -4.9391    2.0184 C   0  0  0  0  0  0  0  0  0  0  0  0
    4.7946   -6.0199    1.2156 C   0  0  0  0  0  0  0  0  0  0  0  0
    5.5972   -6.5295    0.0396 C   0  0  0  0  0  0  0  0  0  0  0  0
    5.2645   -5.7393   -1.2215 C   0  0  0  0  0  0  0  0  0  0  0  0
    3.5352   -6.5649    1.5247 C   0  0  0  0  0  0  0  0  0  0  0  0
    2.7378   -6.0951    2.5751 C   0  0  0  0  0  0  0  0  0  0  0  0
    3.1705   -5.0167    3.3755 C   0  0  0  0  0  0  0  0  0  0  0  0
    2.3405   -4.4690    4.5170 C   0  0  0  0  0  0  0  0  0  0  0  0
    2.6237   -5.2264    5.8097 C   0  0  0  0  0  0  0  0  0  0  0  0
    4.4345   -4.4768    3.0720 C   0  0  0  0  0  0  0  0  0  0  0  0
    5.2312   -3.2072    3.8292 S   0  0  0  0  0  0  0  0  0  0  0  0
    1.5249   -6.7956    2.7013 C   0  0  0  0  0  0  0  0  0  0  0  0
    1.3686   -7.7982    1.7509 C   0  0  0  0  0  0  0  0  0  0  0  0
    2.7288   -7.8277    0.7560 S   0  0  0  0  0  0  0  0  0  0  0  0
    2.1337   -2.2374  -13.6595 H   0  0  0  0  0  0  0  0  0  0  0  0
   -0.4419   -2.5515  -13.6824 H   0  0  0  0  0  0  0  0  0  0  0  0
   -2.4960   -3.3385  -12.9854 H   0  0  0  0  0  0  0  0  0  0  0  0
   -3.7643   -3.1254  -11.7642 H   0  0  0  0  0  0  0  0  0  0  0  0
   -4.1134   -1.5581  -13.6393 H   0  0  0  0  0  0  0  0  0  0  0  0
   -3.7365   -0.6334  -12.1355 H   0  0  0  0  0  0  0  0  0  0  0  0
   -2.4679   -0.8526  -13.4085 H   0  0  0  0  0  0  0  0  0  0  0  0
    2.2065   -1.9018   -8.4104 H   0  0  0  0  0  0  0  0  0  0  0  0
    0.9757   -2.0432   -7.1388 H   0  0  0  0  0  0  0  0  0  0  0  0
    1.5740    0.4954   -8.8017 H   0  0  0  0  0  0  0  0  0  0  0  0
    0.3072    0.3694   -7.5147 H   0  0  0  0  0  0  0  0  0  0  0  0
    2.0487    0.1943   -7.0875 H   0  0  0  0  0  0  0  0  0  0  0  0
   -1.2155   -1.5568   -6.6446 H   0  0  0  0  0  0  0  0  0  0  0  0
   -5.2129    0.0937   -7.1222 H   0  0  0  0  0  0  0  0  0  0  0  0
   -6.0986    2.0096   -6.1957 H   0  0  0  0  0  0  0  0  0  0  0  0
   -7.1623    2.6027   -4.9055 H   0  0  0  0  0  0  0  0  0  0  0  0
   -7.7945    0.2611   -6.8138 H   0  0  0  0  0  0  0  0  0  0  0  0
   -8.8571    0.8145   -5.4552 H   0  0  0  0  0  0  0  0  0  0  0  0
   -8.5126    1.9128   -6.8428 H   0  0  0  0  0  0  0  0  0  0  0  0
   -3.6964   -2.8077   -2.2048 H   0  0  0  0  0  0  0  0  0  0  0  0
   -4.2406   -1.8394   -0.8257 H   0  0  0  0  0  0  0  0  0  0  0  0
   -5.1659   -4.1523   -0.7457 H   0  0  0  0  0  0  0  0  0  0  0  0
   -6.5024   -2.9564   -0.9272 H   0  0  0  0  0  0  0  0  0  0  0  0
   -5.9440   -3.9178   -2.3586 H   0  0  0  0  0  0  0  0  0  0  0  0
   -5.9353   -0.5459   -0.0695 H   0  0  0  0  0  0  0  0  0  0  0  0
   -6.5667    3.9456   -0.2955 H   0  0  0  0  0  0  0  0  0  0  0  0
   -5.0356    5.6548    0.0503 H   0  0  0  0  0  0  0  0  0  0  0  0
   -4.4825    6.7535    1.3359 H   0  0  0  0  0  0  0  0  0  0  0  0
   -6.8271    7.1030    2.1222 H   0  0  0  0  0  0  0  0  0  0  0  0
   -7.4286    6.0361    0.7922 H   0  0  0  0  0  0  0  0  0  0  0  0
   -6.5924    7.5820    0.3959 H   0  0  0  0  0  0  0  0  0  0  0  0
   -6.2490    1.0131    4.9118 H   0  0  0  0  0  0  0  0  0  0  0  0
   -5.0476    1.8446    5.9219 H   0  0  0  0  0  0  0  0  0  0  0  0
   -4.1272   -0.3185    5.2887 H   0  0  0  0  0  0  0  0  0  0  0  0
   -3.2071    0.9246    4.3494 H   0  0  0  0  0  0  0  0  0  0  0  0
   -4.5012   -0.0535    3.5495 H   0  0  0  0  0  0  0  0  0  0  0  0
   -3.0775    3.0514    5.6976 H   0  0  0  0  0  0  0  0  0  0  0  0
   -1.1237    3.8143    7.0149 H   0  0  0  0  0  0  0  0  0  0  0  0
    0.0487    2.2200    8.1162 H   0  0  0  0  0  0  0  0  0  0  0  0
    1.6624    1.6510    8.5643 H   0  0  0  0  0  0  0  0  0  0  0  0
    0.7760    3.1983   10.2767 H   0  0  0  0  0  0  0  0  0  0  0  0
    0.5989    4.5088    9.0513 H   0  0  0  0  0  0  0  0  0  0  0  0
    2.2453    3.9013    9.4988 H   0  0  0  0  0  0  0  0  0  0  0  0
    2.7628    5.5226    2.8253 H   0  0  0  0  0  0  0  0  0  0  0  0
    4.3123    4.7152    3.1361 H   0  0  0  0  0  0  0  0  0  0  0  0
    3.3132    2.5292    2.2673 H   0  0  0  0  0  0  0  0  0  0  0  0
    3.3366    3.8558    1.0442 H   0  0  0  0  0  0  0  0  0  0  0  0
    1.7943    3.4364    1.8810 H   0  0  0  0  0  0  0  0  0  0  0  0
    5.2138    2.7660    3.9952 H   0  0  0  0  0  0  0  0  0  0  0  0
    5.3888   -0.3816    4.2050 H   0  0  0  0  0  0  0  0  0  0  0  0
    7.0151   -2.1035    5.6012 H   0  0  0  0  0  0  0  0  0  0  0  0
    8.6859   -1.0702    6.7990 H   0  0  0  0  0  0  0  0  0  0  0  0
    7.1067    0.4217    7.6547 H   0  0  0  0  0  0  0  0  0  0  0  0
    7.9626    1.6982    6.6891 H   0  0  0  0  0  0  0  0  0  0  0  0
    9.2995    1.2283    4.8715 H   0  0  0  0  0  0  0  0  0  0  0  0
    9.4121    0.0082    2.9011 H   0  0  0  0  0  0  0  0  0  0  0  0
   10.8175   -2.2954    3.1175 H   0  0  0  0  0  0  0  0  0  0  0  0
   12.3206   -1.7243    5.0529 H   0  0  0  0  0  0  0  0  0  0  0  0
   10.8362   -0.3584    6.7599 H   0  0  0  0  0  0  0  0  0  0  0  0
   11.4861    0.7876    5.5206 H   0  0  0  0  0  0  0  0  0  0  0  0
    8.4495   -2.3912    2.0251 H   0  0  0  0  0  0  0  0  0  0  0  0
    7.1674   -4.4122    1.1096 H   0  0  0  0  0  0  0  0  0  0  0  0
    5.3858   -7.6049   -0.1398 H   0  0  0  0  0  0  0  0  0  0  0  0
    6.6848   -6.4622    0.2475 H   0  0  0  0  0  0  0  0  0  0  0  0
    4.1896   -5.8637   -1.4786 H   0  0  0  0  0  0  0  0  0  0  0  0
    5.8761   -6.1143   -2.0709 H   0  0  0  0  0  0  0  0  0  0  0  0
    5.4816   -4.6608   -1.0724 H   0  0  0  0  0  0  0  0  0  0  0  0
    1.2597   -4.5300    4.2779 H   0  0  0  0  0  0  0  0  0  0  0  0
    2.5528   -3.3902    4.6765 H   0  0  0  0  0  0  0  0  0  0  0  0
    3.6776   -5.0675    6.1240 H   0  0  0  0  0  0  0  0  0  0  0  0
    2.4413   -6.3138    5.6723 H   0  0  0  0  0  0  0  0  0  0  0  0
    1.9540   -4.8523    6.6130 H   0  0  0  0  0  0  0  0  0  0  0  0
    0.7748   -6.5960    3.4538 H   0  0  0  0  0  0  0  0  0  0  0  0
    0.5127   -8.4541    1.6653 H   0  0  0  0  0  0  0  0  0  0  0  0
  1  2  2  0
  2  3  1  0
  3  4  2  0
  4  5  1  0
  5  6  1  0
  4  7  1  0
  7  8  2  0
  8  9  1  0
  9 10  1  0
 10 11  1  0
  9 12  2  0
 12 13  1  0
  8 14  1  0
 14 15  2  0
 15 16  1  0
 15 17  1  0
 17 18  2  0
 18 19  1  0
 19 20  2  0
 20 21  1  0
 21 22  1  0
 20 23  1  0
 23 24  2  0
 24 25  1  0
 25 26  1  0
 26 27  1  0
 25 28  2  0
 28 29  1  0
 24 30  1  0
 30 31  2  0
 31 32  1  0
 31 33  1  0
 33 34  2  0
 34 35  1  0
 35 36  2  0
 36 37  1  0
 37 38  1  0
 36 39  1  0
 39 40  2  0
 40 41  1  0
 41 42  1  0
 42 43  1  0
 41 44  2  0
 44 45  1  0
 40 46  1  0
 46 47  2  0
 47 48  1  0
 47 49  1  0
 49 50  2  0
 50 51  1  0
 51 52  2  0
 52 53  1  0
 53 54  1  0
 52 55  1  0
 55 56  2  0
 56 57  1  0
 57 58  1  0
 58 59  1  0
 57 60  2  0
 60 61  1  0
 56 62  1  0
 62 63  2  0
 63 64  1  0
 63 65  1  0
 65 66  2  0
 66 67  1  0
 67 68  1  0
 68 69  1  0
 68 70  1  0
 70 71  1  0
 71 72  1  0
 72 73  2  0
 73 74  1  0
 71 75  1  0
 75 76  2  3
 76 77  1  0
 77 78  2  0
 78 79  1  0
 79 80  2  0
 80 81  1  0
 81 82  1  0
 80 83  1  0
 83 84  2  0
 84 85  1  0
 85 86  1  0
 86 87  1  0
 85 88  2  0
 88 89  1  0
 84 90  1  0
 90 91  2  0
 91 92  1  0
 13  1  1  0
 29 17  1  0
 45 33  1  0
 61 49  1  0
 69 65  1  0
 74 70  1  0
 89 77  1  0
 12  3  1  0
 28 19  1  0
 44 35  1  0
 60 51  1  0
 75 67  1  0
 88 79  1  0
 16  7  1  0
 32 23  1  0
 48 39  1  0
 64 55  1  0
 92 83  1  0
  1 93  1  0
  2 94  1  0
  5 95  1  0
  5 96  1  0
  6 97  1  0
  6 98  1  0
  6 99  1  0
 10100  1  0
 10101  1  0
 11102  1  0
 11103  1  0
 11104  1  0
 14105  1  0
 18106  1  0
 21107  1  0
 21108  1  0
 22109  1  0
 22110  1  0
 22111  1  0
 26112  1  0
 26113  1  0
 27114  1  0
 27115  1  0
 27116  1  0
 30117  1  0
 34118  1  0
 37119  1  0
 37120  1  0
 38121  1  0
 38122  1  0
 38123  1  0
 42124  1  0
 42125  1  0
 43126  1  0
 43127  1  0
 43128  1  0
 46129  1  0
 50130  1  0
 53131  1  0
 53132  1  0
 54133  1  0
 54134  1  0
 54135  1  0
 58136  1  0
 58137  1  0
 59138  1  0
 59139  1  0
 59140  1  0
 62141  1  0
 66142  1  0
 67143  1  1
 68144  1  1
 69145  1  0
 69146  1  0
 70147  1  6
 71148  1  6
 72149  1  0
 73150  1  0
 74151  1  0
 74152  1  0
 76153  1  0
 78154  1  0
 81155  1  0
 81156  1  0
 82157  1  0
 82158  1  0
 82159  1  0
 86160  1  0
 86161  1  0
 87162  1  0
 87163  1  0
 87164  1  0
 90165  1  0
 91166  1  0
M  END

