
     RDKit          3D

202219  0  0  0  0  0  0  0  0999 V2000
   -4.1045   -4.6704   -4.0570 C   0  0  0  0  0  0  0  0  0  0  0  0
   -4.9416   -5.1071   -2.6712 S   0  0  0  0  0  0  0  0  0  0  0  0
   -6.4352   -4.4972   -3.1288 C   0  0  0  0  0  0  0  0  0  0  0  0
   -6.3051   -3.9171   -4.3842 C   0  0  0  0  0  0  0  0  0  0  0  0
   -4.9858   -4.0226   -4.9240 C   0  0  0  0  0  0  0  0  0  0  0  0
   -4.5970   -3.4300   -6.2356 C   0  0  0  0  0  0  0  0  0  0  0  0
   -5.7611   -2.6042   -7.0091 S   0  0  0  0  0  4  0  0  0  0  0  0
   -5.4575   -1.7458   -8.4903 O   0  0  0  0  0  0  0  0  0  0  0  0
   -5.3561   -0.3908   -8.1503 C   0  0  0  0  0  0  0  0  0  0  0  0
   -7.3572   -2.6035   -6.2133 C   0  0  0  0  0  0  0  0  0  0  0  0
   -7.4617   -3.2364   -5.0349 C   0  0  0  0  0  0  0  0  0  0  0  0
   -8.4280   -1.9575   -6.8478 O   0  0  0  0  0  0  0  0  0  0  0  0
   -9.7723   -1.9532   -6.3744 C   0  0  0  0  0  0  0  0  0  0  0  0
   -3.2701   -3.5240   -6.8891 C   0  0  0  0  0  0  0  0  0  0  0  0
   -2.4995   -4.6149   -6.8568 C   0  0  0  0  0  0  0  0  0  0  0  0
   -1.3594   -4.7437   -7.7744 C   0  0  0  0  0  0  0  0  0  0  0  0
   -1.5710   -5.0256   -9.4146 S   0  0  0  0  0  0  0  0  0  0  0  0
    0.0271   -5.3662   -9.7732 C   0  0  0  0  0  0  0  0  0  0  0  0
    0.7711   -5.2812   -8.6030 C   0  0  0  0  0  0  0  0  0  0  0  0
    0.0027   -4.9020   -7.4585 C   0  0  0  0  0  0  0  0  0  0  0  0
    0.6122   -4.6805   -6.1153 C   0  0  0  0  0  0  0  0  0  0  0  0
    2.2059   -5.0225   -5.9944 S   0  0  0  0  0  4  0  0  0  0  0  0
    3.1505   -4.6257   -4.5889 O   0  0  0  0  0  0  0  0  0  0  0  0
    3.5666   -5.8349   -4.0133 C   0  0  0  0  0  0  0  0  0  0  0  0
    2.9838   -5.5635   -7.5067 C   0  0  0  0  0  0  0  0  0  0  0  0
    2.2213   -5.6166   -8.6096 C   0  0  0  0  0  0  0  0  0  0  0  0
    4.3494   -5.8918   -7.4946 O   0  0  0  0  0  0  0  0  0  0  0  0
    5.0762   -6.3801   -8.6193 C   0  0  0  0  0  0  0  0  0  0  0  0
   -0.1034   -3.9778   -5.0271 C   0  0  0  0  0  0  0  0  0  0  0  0
    0.1662   -4.1827   -3.7309 C   0  0  0  0  0  0  0  0  0  0  0  0
   -0.5103   -3.4439   -2.6554 C   0  0  0  0  0  0  0  0  0  0  0  0
   -0.0742   -3.4068   -1.3338 C   0  0  0  0  0  0  0  0  0  0  0  0
   -0.8991   -2.6278   -0.5113 C   0  0  0  0  0  0  0  0  0  0  0  0
   -0.7090   -2.3645    0.8608 C   0  0  0  0  0  0  0  0  0  0  0  0
    0.4840   -2.8460    1.5769 C   0  0  0  0  0  0  0  0  0  0  0  0
    0.5931   -4.1939    1.9479 C   0  0  0  0  0  0  0  0  0  0  0  0
    1.7560   -4.6600    2.5684 C   0  0  0  0  0  0  0  0  0  0  0  0
    2.8155   -3.7831    2.8264 C   0  0  0  0  0  0  0  0  0  0  0  0
    4.3091   -4.3944    3.6139 S   0  0  0  0  0  0  0  0  0  0  0  0
    3.7186   -4.1404    5.3253 C   0  0  0  0  0  0  0  0  0  0  0  0
    3.9118   -2.6924    5.7604 C   0  0  0  0  0  0  0  0  0  0  0  0
    2.7151   -2.4397    2.4463 C   0  0  0  0  0  0  0  0  0  0  0  0
    3.7490   -1.5932    2.6603 F   0  0  0  0  0  0  0  0  0  0  0  0
    1.5475   -1.9670    1.8361 C   0  0  0  0  0  0  0  0  0  0  0  0
   -1.6838   -1.5762    1.4988 C   0  0  0  0  0  0  0  0  0  0  0  0
   -2.8012   -1.0739    0.8193 C   0  0  0  0  0  0  0  0  0  0  0  0
   -2.9825   -1.3261   -0.5549 C   0  0  0  0  0  0  0  0  0  0  0  0
   -4.1871   -0.8920   -1.2868 C   0  0  0  0  0  0  0  0  0  0  0  0
   -4.0922    0.0757   -2.2992 C   0  0  0  0  0  0  0  0  0  0  0  0
   -5.2196    0.4184   -3.0504 C   0  0  0  0  0  0  0  0  0  0  0  0
   -6.4489   -0.2033   -2.8005 C   0  0  0  0  0  0  0  0  0  0  0  0
   -7.8809    0.2211   -3.7987 S   0  0  0  0  0  0  0  0  0  0  0  0
   -8.5865    1.4195   -2.6095 C   0  0  0  0  0  0  0  0  0  0  0  0
  -10.0246    1.0362   -2.2904 C   0  0  0  0  0  0  0  0  0  0  0  0
   -6.5486   -1.1711   -1.7918 C   0  0  0  0  0  0  0  0  0  0  0  0
   -5.4229   -1.5070   -1.0324 C   0  0  0  0  0  0  0  0  0  0  0  0
   -7.7316   -1.7851   -1.5413 F   0  0  0  0  0  0  0  0  0  0  0  0
   -1.9946   -2.0880   -1.1919 C   0  0  0  0  0  0  0  0  0  0  0  0
   -1.9207   -2.5300   -2.8061 S   0  0  0  0  0  0  0  0  0  0  0  0
   -3.6463   -0.3179    1.6361 C   0  0  0  0  0  0  0  0  0  0  0  0
   -3.1938   -0.2353    2.9458 C   0  0  0  0  0  0  0  0  0  0  0  0
   -1.7525   -1.1040    3.1165 S   0  0  0  0  0  0  0  0  0  0  0  0
   -3.8870    0.5055    3.9979 C   0  0  0  0  0  0  0  0  0  0  0  0
   -5.2819   -0.0760    4.7236 S   0  0  0  0  0  0  0  0  0  0  0  0
   -5.8560    1.3967    5.2873 C   0  0  0  0  0  0  0  0  0  0  0  0
   -4.9813    2.3953    4.8698 C   0  0  0  0  0  0  0  0  0  0  0  0
   -3.8496    1.8958    4.1645 C   0  0  0  0  0  0  0  0  0  0  0  0
   -2.7530    2.7719    3.6770 C   0  0  0  0  0  0  0  0  0  0  0  0
   -3.0149    4.3752    3.7767 S   0  0  0  0  0  4  0  0  0  0  0  0
   -1.7991    5.5368    3.3296 O   0  0  0  0  0  0  0  0  0  0  0  0
   -1.7923    5.6020    1.9298 C   0  0  0  0  0  0  0  0  0  0  0  0
   -4.5294    4.8297    4.6300 C   0  0  0  0  0  0  0  0  0  0  0  0
   -5.2946    3.8373    5.0940 C   0  0  0  0  0  0  0  0  0  0  0  0
   -4.9218    6.1561    4.8407 O   0  0  0  0  0  0  0  0  0  0  0  0
   -4.1895    7.2832    4.3758 C   0  0  0  0  0  0  0  0  0  0  0  0
   -1.4056    2.2592    3.3534 C   0  0  0  0  0  0  0  0  0  0  0  0
   -0.3848    2.2025    4.2272 C   0  0  0  0  0  0  0  0  0  0  0  0
   -0.4591    2.6631    5.6367 C   0  0  0  0  0  0  0  0  0  0  0  0
   -1.7942    2.4367    6.6410 S   0  0  0  0  0  0  0  0  0  0  0  0
   -1.2474    3.3028    7.9534 C   0  0  0  0  0  0  0  0  0  0  0  0
    0.0201    3.7867    7.6539 C   0  0  0  0  0  0  0  0  0  0  0  0
    0.5124    3.3764    6.3678 C   0  0  0  0  0  0  0  0  0  0  0  0
    1.8936    3.7127    5.9098 C   0  0  0  0  0  0  0  0  0  0  0  0
    2.7434    4.7241    6.8704 S   0  0  0  0  0  4  0  0  0  0  0  0
    4.3983    5.1419    6.5366 O   0  0  0  0  0  0  0  0  0  0  0  0
    5.1887    4.5412    7.5265 C   0  0  0  0  0  0  0  0  0  0  0  0
    1.9348    5.1965    8.3857 C   0  0  0  0  0  0  0  0  0  0  0  0
    0.7243    4.6725    8.6233 C   0  0  0  0  0  0  0  0  0  0  0  0
    2.5944    6.0643    9.2694 O   0  0  0  0  0  0  0  0  0  0  0  0
    2.0464    6.5394   10.4957 C   0  0  0  0  0  0  0  0  0  0  0  0
    2.5908    3.0382    4.7959 C   0  0  0  0  0  0  0  0  0  0  0  0
    3.5947    2.1936    5.0616 C   0  0  0  0  0  0  0  0  0  0  0  0
    4.5196    1.6716    4.0492 C   0  0  0  0  0  0  0  0  0  0  0  0
    4.2501    1.3473    2.7181 C   0  0  0  0  0  0  0  0  0  0  0  0
    5.3847    0.8452    2.0429 C   0  0  0  0  0  0  0  0  0  0  0  0
    5.4409    0.3710    0.7096 C   0  0  0  0  0  0  0  0  0  0  0  0
    4.2420    0.2989   -0.1606 C   0  0  0  0  0  0  0  0  0  0  0  0
    3.4917    1.4504   -0.4453 C   0  0  0  0  0  0  0  0  0  0  0  0
    2.3766    1.3733   -1.2831 C   0  0  0  0  0  0  0  0  0  0  0  0
    2.0152    0.1525   -1.8657 C   0  0  0  0  0  0  0  0  0  0  0  0
    0.5540    0.0651   -2.9103 S   0  0  0  0  0  0  0  0  0  0  0  0
    1.4508    0.1803   -4.4971 C   0  0  0  0  0  0  0  0  0  0  0  0
    1.9093    1.6067   -4.7740 C   0  0  0  0  0  0  0  0  0  0  0  0
    2.7743   -0.9939   -1.6043 C   0  0  0  0  0  0  0  0  0  0  0  0
    2.4715   -2.1728   -2.2016 F   0  0  0  0  0  0  0  0  0  0  0  0
    3.8712   -0.9239   -0.7435 C   0  0  0  0  0  0  0  0  0  0  0  0
    6.6939   -0.0858    0.2537 C   0  0  0  0  0  0  0  0  0  0  0  0
    7.8358   -0.1023    1.0602 C   0  0  0  0  0  0  0  0  0  0  0  0
    7.7718    0.3290    2.4011 C   0  0  0  0  0  0  0  0  0  0  0  0
    8.9554    0.3243    3.2903 C   0  0  0  0  0  0  0  0  0  0  0  0
    8.9487   -0.4202    4.4802 C   0  0  0  0  0  0  0  0  0  0  0  0
   10.0452   -0.3794    5.3462 C   0  0  0  0  0  0  0  0  0  0  0  0
   11.1602    0.4049    5.0294 C   0  0  0  0  0  0  0  0  0  0  0  0
   12.5554    0.4807    6.1602 S   0  0  0  0  0  0  0  0  0  0  0  0
   12.0019    2.0112    6.9950 C   0  0  0  0  0  0  0  0  0  0  0  0
   11.0488    1.6950    8.1403 C   0  0  0  0  0  0  0  0  0  0  0  0
   11.1845    1.1295    3.8294 C   0  0  0  0  0  0  0  0  0  0  0  0
   10.0851    1.0977    2.9699 C   0  0  0  0  0  0  0  0  0  0  0  0
   12.2663    1.8775    3.5005 F   0  0  0  0  0  0  0  0  0  0  0  0
    6.5248    0.7890    2.8579 C   0  0  0  0  0  0  0  0  0  0  0  0
    6.1303    1.3371    4.3940 S   0  0  0  0  0  0  0  0  0  0  0  0
    8.9710   -0.6011    0.3984 C   0  0  0  0  0  0  0  0  0  0  0  0
    8.7234   -0.9560   -0.9247 C   0  0  0  0  0  0  0  0  0  0  0  0
    7.1029   -0.6600   -1.2744 S   0  0  0  0  0  0  0  0  0  0  0  0
   -3.0482   -4.8316   -4.2007 H   0  0  0  0  0  0  0  0  0  0  0  0
   -7.3350   -4.5279   -2.5301 H   0  0  0  0  0  0  0  0  0  0  0  0
   -4.5646   -0.2203   -7.3898 H   0  0  0  0  0  0  0  0  0  0  0  0
   -5.0835    0.1832   -9.0599 H   0  0  0  0  0  0  0  0  0  0  0  0
   -6.3342   -0.0061   -7.7833 H   0  0  0  0  0  0  0  0  0  0  0  0
   -8.4070   -3.2545   -4.5132 H   0  0  0  0  0  0  0  0  0  0  0  0
  -10.1589   -2.9932   -6.3109 H   0  0  0  0  0  0  0  0  0  0  0  0
   -9.8287   -1.4692   -5.3777 H   0  0  0  0  0  0  0  0  0  0  0  0
  -10.4043   -1.3819   -7.0835 H   0  0  0  0  0  0  0  0  0  0  0  0
   -2.9815   -2.7077   -7.5409 H   0  0  0  0  0  0  0  0  0  0  0  0
   -2.7997   -5.4939   -6.3073 H   0  0  0  0  0  0  0  0  0  0  0  0
    0.4067   -5.6405  -10.7478 H   0  0  0  0  0  0  0  0  0  0  0  0
    2.6969   -6.4158   -3.6400 H   0  0  0  0  0  0  0  0  0  0  0  0
    4.2190   -5.6099   -3.1439 H   0  0  0  0  0  0  0  0  0  0  0  0
    4.1536   -6.4500   -4.7283 H   0  0  0  0  0  0  0  0  0  0  0  0
    2.6543   -5.9266   -9.5497 H   0  0  0  0  0  0  0  0  0  0  0  0
    6.1196   -6.5888   -8.3122 H   0  0  0  0  0  0  0  0  0  0  0  0
    5.0870   -5.6190   -9.4286 H   0  0  0  0  0  0  0  0  0  0  0  0
    4.6181   -7.3224   -8.9876 H   0  0  0  0  0  0  0  0  0  0  0  0
   -0.8500   -3.2513   -5.2995 H   0  0  0  0  0  0  0  0  0  0  0  0
    0.9122   -4.9075   -3.4370 H   0  0  0  0  0  0  0  0  0  0  0  0
    0.8154   -3.9176   -0.9851 H   0  0  0  0  0  0  0  0  0  0  0  0
   -0.2184   -4.8838    1.7482 H   0  0  0  0  0  0  0  0  0  0  0  0
    1.8343   -5.7034    2.8455 H   0  0  0  0  0  0  0  0  0  0  0  0
    2.6515   -4.4303    5.4201 H   0  0  0  0  0  0  0  0  0  0  0  0
    4.3111   -4.7963    5.9947 H   0  0  0  0  0  0  0  0  0  0  0  0
    4.9625   -2.3757    5.5873 H   0  0  0  0  0  0  0  0  0  0  0  0
    3.6823   -2.5953    6.8415 H   0  0  0  0  0  0  0  0  0  0  0  0
    3.2296   -2.0219    5.1993 H   0  0  0  0  0  0  0  0  0  0  0  0
    1.4807   -0.9262    1.5449 H   0  0  0  0  0  0  0  0  0  0  0  0
   -3.1422    0.5490   -2.5150 H   0  0  0  0  0  0  0  0  0  0  0  0
   -5.1344    1.1571   -3.8348 H   0  0  0  0  0  0  0  0  0  0  0  0
   -8.5732    2.4275   -3.0747 H   0  0  0  0  0  0  0  0  0  0  0  0
   -8.0053    1.4643   -1.6669 H   0  0  0  0  0  0  0  0  0  0  0  0
  -10.6429    1.0534   -3.2139 H   0  0  0  0  0  0  0  0  0  0  0  0
  -10.4551    1.7505   -1.5548 H   0  0  0  0  0  0  0  0  0  0  0  0
  -10.0578    0.0159   -1.8489 H   0  0  0  0  0  0  0  0  0  0  0  0
   -5.5034   -2.2716   -0.2686 H   0  0  0  0  0  0  0  0  0  0  0  0
   -4.5543    0.1593    1.2898 H   0  0  0  0  0  0  0  0  0  0  0  0
   -6.7893    1.5474    5.8172 H   0  0  0  0  0  0  0  0  0  0  0  0
   -1.0892    6.4011    1.6140 H   0  0  0  0  0  0  0  0  0  0  0  0
   -1.4428    4.6456    1.4911 H   0  0  0  0  0  0  0  0  0  0  0  0
   -2.8001    5.8641    1.5287 H   0  0  0  0  0  0  0  0  0  0  0  0
   -6.2039    4.0907    5.6241 H   0  0  0  0  0  0  0  0  0  0  0  0
   -4.7324    8.2071    4.6515 H   0  0  0  0  0  0  0  0  0  0  0  0
   -4.0940    7.2476    3.2698 H   0  0  0  0  0  0  0  0  0  0  0  0
   -3.1836    7.3075    4.8504 H   0  0  0  0  0  0  0  0  0  0  0  0
   -1.2413    1.9000    2.3456 H   0  0  0  0  0  0  0  0  0  0  0  0
    0.5483    1.8084    3.8579 H   0  0  0  0  0  0  0  0  0  0  0  0
   -1.7958    3.4705    8.8686 H   0  0  0  0  0  0  0  0  0  0  0  0
    4.9761    4.9879    8.5218 H   0  0  0  0  0  0  0  0  0  0  0  0
    6.2579    4.7199    7.2889 H   0  0  0  0  0  0  0  0  0  0  0  0
    5.0289    3.4415    7.5576 H   0  0  0  0  0  0  0  0  0  0  0  0
    0.2135    4.9054    9.5462 H   0  0  0  0  0  0  0  0  0  0  0  0
    1.1158    7.1120   10.3004 H   0  0  0  0  0  0  0  0  0  0  0  0
    2.7786    7.2139   10.9840 H   0  0  0  0  0  0  0  0  0  0  0  0
    1.8338    5.6933   11.1788 H   0  0  0  0  0  0  0  0  0  0  0  0
    2.3665    3.3254    3.7763 H   0  0  0  0  0  0  0  0  0  0  0  0
    3.8305    1.9587    6.0918 H   0  0  0  0  0  0  0  0  0  0  0  0
    3.2675    1.4388    2.2776 H   0  0  0  0  0  0  0  0  0  0  0  0
    3.7739    2.4065   -0.0239 H   0  0  0  0  0  0  0  0  0  0  0  0
    1.7956    2.2653   -1.4855 H   0  0  0  0  0  0  0  0  0  0  0  0
    2.3217   -0.5085   -4.5084 H   0  0  0  0  0  0  0  0  0  0  0  0
    0.7565   -0.1341   -5.3061 H   0  0  0  0  0  0  0  0  0  0  0  0
    2.3055    1.6785   -5.8087 H   0  0  0  0  0  0  0  0  0  0  0  0
    1.0570    2.3121   -4.6719 H   0  0  0  0  0  0  0  0  0  0  0  0
    2.7161    1.8975   -4.0691 H   0  0  0  0  0  0  0  0  0  0  0  0
    4.4353   -1.8260   -0.5359 H   0  0  0  0  0  0  0  0  0  0  0  0
    8.0915   -1.0275    4.7433 H   0  0  0  0  0  0  0  0  0  0  0  0
   10.0310   -0.9592    6.2625 H   0  0  0  0  0  0  0  0  0  0  0  0
   12.8940    2.5277    7.4049 H   0  0  0  0  0  0  0  0  0  0  0  0
   11.5116    2.7016    6.2763 H   0  0  0  0  0  0  0  0  0  0  0  0
   11.5620    1.0707    8.9012 H   0  0  0  0  0  0  0  0  0  0  0  0
   10.7199    2.6412    8.6188 H   0  0  0  0  0  0  0  0  0  0  0  0
   10.1514    1.1595    7.7682 H   0  0  0  0  0  0  0  0  0  0  0  0
   10.1043    1.6855    2.0620 H   0  0  0  0  0  0  0  0  0  0  0  0
    9.9434   -0.7131    0.8599 H   0  0  0  0  0  0  0  0  0  0  0  0
    9.4500   -1.3619   -1.6153 H   0  0  0  0  0  0  0  0  0  0  0  0
  1  2  1  0
  2  3  1  0
  3  4  2  0
  4  5  1  0
  5  6  1  0
  6  7  2  0
  7  8  1  0
  8  9  1  0
  7 10  1  0
 10 11  2  0
 10 12  1  0
 12 13  1  0
  6 14  1  0
 14 15  2  3
 15 16  1  0
 16 17  1  0
 17 18  1  0
 18 19  2  0
 19 20  1  0
 20 21  1  0
 21 22  2  0
 22 23  1  0
 23 24  1  0
 22 25  1  0
 25 26  2  0
 25 27  1  0
 27 28  1  0
 21 29  1  0
 29 30  2  3
 30 31  1  0
 31 32  2  0
 32 33  1  0
 33 34  2  0
 34 35  1  0
 35 36  2  0
 36 37  1  0
 37 38  2  0
 38 39  1  0
 39 40  1  0
 40 41  1  0
 38 42  1  0
 42 43  1  0
 42 44  2  0
 34 45  1  0
 45 46  2  0
 46 47  1  0
 47 48  1  0
 48 49  2  0
 49 50  1  0
 50 51  2  0
 51 52  1  0
 52 53  1  0
 53 54  1  0
 51 55  1  0
 55 56  2  0
 55 57  1  0
 47 58  2  0
 58 59  1  0
 46 60  1  0
 60 61  2  0
 61 62  1  0
 61 63  1  0
 63 64  1  0
 64 65  1  0
 65 66  2  0
 66 67  1  0
 67 68  1  0
 68 69  2  0
 69 70  1  0
 70 71  1  0
 69 72  1  0
 72 73  2  0
 72 74  1  0
 74 75  1  0
 68 76  1  0
 76 77  2  3
 77 78  1  0
 78 79  1  0
 79 80  1  0
 80 81  2  0
 81 82  1  0
 82 83  1  0
 83 84  2  0
 84 85  1  0
 85 86  1  0
 84 87  1  0
 87 88  2  0
 87 89  1  0
 89 90  1  0
 83 91  1  0
 91 92  2  3
 92 93  1  0
 93 94  2  0
 94 95  1  0
 95 96  2  0
 96 97  1  0
 97 98  2  0
 98 99  1  0
 99100  2  0
100101  1  0
101102  1  0
102103  1  0
100104  1  0
104105  1  0
104106  2  0
 96107  1  0
107108  2  0
108109  1  0
109110  1  0
110111  2  0
111112  1  0
112113  2  0
113114  1  0
114115  1  0
115116  1  0
113117  1  0
117118  2  0
117119  1  0
109120  2  0
120121  1  0
108122  1  0
122123  2  0
123124  1  0
  5  1  2  0
 20 16  2  0
 59 31  1  0
 67 63  2  0
 82 78  2  0
121 93  1  0
 11  4  1  0
 26 19  1  0
 58 33  1  0
 73 66  1  0
 88 81  1  0
120 95  1  0
 44 35  1  0
 62 45  1  0
106 97  1  0
124107  1  0
 56 48  1  0
118110  1  0
  1125  1  0
  3126  1  0
  9127  1  0
  9128  1  0
  9129  1  0
 11130  1  0
 13131  1  0
 13132  1  0
 13133  1  0
 14134  1  0
 15135  1  0
 18136  1  0
 24137  1  0
 24138  1  0
 24139  1  0
 26140  1  0
 28141  1  0
 28142  1  0
 28143  1  0
 29144  1  0
 30145  1  0
 32146  1  0
 36147  1  0
 37148  1  0
 40149  1  0
 40150  1  0
 41151  1  0
 41152  1  0
 41153  1  0
 44154  1  0
 49155  1  0
 50156  1  0
 53157  1  0
 53158  1  0
 54159  1  0
 54160  1  0
 54161  1  0
 56162  1  0
 60163  1  0
 65164  1  0
 71165  1  0
 71166  1  0
 71167  1  0
 73168  1  0
 75169  1  0
 75170  1  0
 75171  1  0
 76172  1  0
 77173  1  0
 80174  1  0
 86175  1  0
 86176  1  0
 86177  1  0
 88178  1  0
 90179  1  0
 90180  1  0
 90181  1  0
 91182  1  0
 92183  1  0
 94184  1  0
 98185  1  0
 99186  1  0
102187  1  0
102188  1  0
103189  1  0
103190  1  0
103191  1  0
106192  1  0
111193  1  0
112194  1  0
115195  1  0
115196  1  0
116197  1  0
116198  1  0
116199  1  0
118200  1  0
122201  1  0
123202  1  0
M  END

