
     RDKit          3D

252275  0  0  0  0  0  0  0  0999 V2000
    4.3490   -1.1796   11.8235 C   0  0  0  0  0  0  0  0  0  0  0  0
    5.3337   -0.7004   13.1014 S   0  0  0  0  0  0  0  0  0  0  0  0
    5.5824    0.8796   12.5914 C   0  0  0  0  0  0  0  0  0  0  0  0
    4.8791    1.0801   11.4113 C   0  0  0  0  0  0  0  0  0  0  0  0
    4.1844   -0.0873   10.9690 C   0  0  0  0  0  0  0  0  0  0  0  0
    3.3356   -0.1145    9.7539 C   0  0  0  0  0  0  0  0  0  0  0  0
    3.1925    1.2972    8.9584 S   0  0  0  0  0  4  0  0  0  0  0  0
    2.3988    1.4339    7.4209 O   0  0  0  0  0  0  0  0  0  0  0  0
    1.5507    2.5585    7.4416 C   0  0  0  0  0  0  0  0  0  0  0  0
    4.2042    2.6186    9.5892 C   0  0  0  0  0  0  0  0  0  0  0  0
    4.8910    2.3954   10.7143 C   0  0  0  0  0  0  0  0  0  0  0  0
    4.2582    3.8254    8.8863 O   0  0  0  0  0  0  0  0  0  0  0  0
    5.4190    4.6578    8.8349 C   0  0  0  0  0  0  0  0  0  0  0  0
    2.8015   -1.3607    9.1580 C   0  0  0  0  0  0  0  0  0  0  0  0
    1.5109   -1.6568    9.2955 C   0  0  0  0  0  0  0  0  0  0  0  0
    0.6464   -1.8218    8.1124 C   0  0  0  0  0  0  0  0  0  0  0  0
   -0.4964   -2.6206    8.0292 C   0  0  0  0  0  0  0  0  0  0  0  0
   -1.2816   -2.3322    6.8955 C   0  0  0  0  0  0  0  0  0  0  0  0
   -2.4993   -2.9432    6.5232 C   0  0  0  0  0  0  0  0  0  0  0  0
   -2.9071   -4.2183    7.1343 C   0  0  0  0  0  0  0  0  0  0  0  0
   -3.9291   -4.2617    8.0973 C   0  0  0  0  0  0  0  0  0  0  0  0
   -4.1860   -5.4526    8.7921 C   0  0  0  0  0  0  0  0  0  0  0  0
   -3.4316   -6.6062    8.5157 C   0  0  0  0  0  0  0  0  0  0  0  0
   -3.6581   -8.0949    9.5066 S   0  0  0  0  0  0  0  0  0  0  0  0
   -4.8326   -8.9125    8.3697 C   0  0  0  0  0  0  0  0  0  0  0  0
   -6.2582   -8.4749    8.6783 C   0  0  0  0  0  0  0  0  0  0  0  0
   -2.4282   -6.5646    7.5362 C   0  0  0  0  0  0  0  0  0  0  0  0
   -1.6812   -7.6639    7.2724 F   0  0  0  0  0  0  0  0  0  0  0  0
   -2.1718   -5.3776    6.8473 C   0  0  0  0  0  0  0  0  0  0  0  0
   -3.2118   -2.3535    5.4570 C   0  0  0  0  0  0  0  0  0  0  0  0
   -2.7106   -1.2370    4.7659 C   0  0  0  0  0  0  0  0  0  0  0  0
   -1.4529   -0.6971    5.0746 C   0  0  0  0  0  0  0  0  0  0  0  0
   -0.9351    0.4979    4.3819 C   0  0  0  0  0  0  0  0  0  0  0  0
   -1.4206    1.7695    4.7241 C   0  0  0  0  0  0  0  0  0  0  0  0
   -0.9774    2.8942    4.0311 C   0  0  0  0  0  0  0  0  0  0  0  0
   -0.0413    2.7647    2.9932 C   0  0  0  0  0  0  0  0  0  0  0  0
    0.4591    4.2187    2.0634 S   0  0  0  0  0  0  0  0  0  0  0  0
    1.7473    4.7456    3.2588 C   0  0  0  0  0  0  0  0  0  0  0  0
    3.0316    3.9506    3.0904 C   0  0  0  0  0  0  0  0  0  0  0  0
    0.4515    1.4926    2.6546 C   0  0  0  0  0  0  0  0  0  0  0  0
    0.0114    0.3607    3.3513 C   0  0  0  0  0  0  0  0  0  0  0  0
    1.3356    1.3465    1.6360 F   0  0  0  0  0  0  0  0  0  0  0  0
   -0.7615   -1.2878    6.1296 C   0  0  0  0  0  0  0  0  0  0  0  0
    0.6825   -0.7921    6.7835 S   0  0  0  0  0  0  0  0  0  0  0  0
   -3.5724   -0.7399    3.7908 C   0  0  0  0  0  0  0  0  0  0  0  0
   -4.7564   -1.4622    3.6885 C   0  0  0  0  0  0  0  0  0  0  0  0
   -4.7271   -2.7485    4.8022 S   0  0  0  0  0  0  0  0  0  0  0  0
   -5.7992   -1.1073    2.7115 C   0  0  0  0  0  0  0  0  0  0  0  0
   -6.0671    0.2388    2.4476 C   0  0  0  0  0  0  0  0  0  0  0  0
   -6.3650    0.5072    1.1000 C   0  0  0  0  0  0  0  0  0  0  0  0
   -6.3771    1.7854    0.4940 C   0  0  0  0  0  0  0  0  0  0  0  0
   -6.2682    3.0289    1.2764 C   0  0  0  0  0  0  0  0  0  0  0  0
   -5.0833    3.3487    1.9549 C   0  0  0  0  0  0  0  0  0  0  0  0
   -4.9982    4.5314    2.6992 C   0  0  0  0  0  0  0  0  0  0  0  0
   -6.1005    5.4025    2.7676 C   0  0  0  0  0  0  0  0  0  0  0  0
   -5.9956    6.8965    3.7573 S   0  0  0  0  0  0  0  0  0  0  0  0
   -6.6597    6.0942    5.2578 C   0  0  0  0  0  0  0  0  0  0  0  0
   -6.9175    7.1420    6.3320 C   0  0  0  0  0  0  0  0  0  0  0  0
   -7.2724    5.0961    2.0561 C   0  0  0  0  0  0  0  0  0  0  0  0
   -8.3350    5.9432    2.0987 F   0  0  0  0  0  0  0  0  0  0  0  0
   -7.3559    3.9156    1.3160 C   0  0  0  0  0  0  0  0  0  0  0  0
   -6.3371    1.8305   -0.9042 C   0  0  0  0  0  0  0  0  0  0  0  0
   -6.3521    0.6764   -1.6906 C   0  0  0  0  0  0  0  0  0  0  0  0
   -6.4950   -0.5933   -1.0856 C   0  0  0  0  0  0  0  0  0  0  0  0
   -6.7013   -1.8036   -1.8874 C   0  0  0  0  0  0  0  0  0  0  0  0
   -8.0053   -2.2992   -2.0317 C   0  0  0  0  0  0  0  0  0  0  0  0
   -8.2734   -3.3054   -2.9611 C   0  0  0  0  0  0  0  0  0  0  0  0
   -7.2427   -3.8201   -3.7538 C   0  0  0  0  0  0  0  0  0  0  0  0
   -7.6395   -4.9236   -5.1110 S   0  0  0  0  0  0  0  0  0  0  0  0
   -7.6567   -3.6009   -6.3820 C   0  0  0  0  0  0  0  0  0  0  0  0
   -8.9666   -2.8206   -6.3704 C   0  0  0  0  0  0  0  0  0  0  0  0
   -5.9177   -3.4090   -3.5341 C   0  0  0  0  0  0  0  0  0  0  0  0
   -5.6509   -2.3891   -2.6098 C   0  0  0  0  0  0  0  0  0  0  0  0
   -4.9082   -3.9200   -4.2794 F   0  0  0  0  0  0  0  0  0  0  0  0
   -6.4331   -0.6433    0.3171 C   0  0  0  0  0  0  0  0  0  0  0  0
   -6.0457   -1.9728    1.2748 S   0  0  0  0  0  0  0  0  0  0  0  0
   -5.9862    0.9150   -3.0333 C   0  0  0  0  0  0  0  0  0  0  0  0
   -5.5947    2.2430   -3.2753 C   0  0  0  0  0  0  0  0  0  0  0  0
   -5.8431    3.1210   -1.8533 S   0  0  0  0  0  0  0  0  0  0  0  0
   -4.5321    2.6272   -4.2376 C   0  0  0  0  0  0  0  0  0  0  0  0
   -4.0836    1.8406   -5.3061 C   0  0  0  0  0  0  0  0  0  0  0  0
   -2.7461    2.1075   -5.6630 C   0  0  0  0  0  0  0  0  0  0  0  0
   -1.9647    1.4077   -6.6089 C   0  0  0  0  0  0  0  0  0  0  0  0
   -2.5555    0.6950   -7.7658 C   0  0  0  0  0  0  0  0  0  0  0  0
   -3.2745   -0.5030   -7.6117 C   0  0  0  0  0  0  0  0  0  0  0  0
   -3.7161   -1.2055   -8.7479 C   0  0  0  0  0  0  0  0  0  0  0  0
   -3.4073   -0.7328  -10.0335 C   0  0  0  0  0  0  0  0  0  0  0  0
   -3.7768   -1.7363  -11.4774 S   0  0  0  0  0  0  0  0  0  0  0  0
   -5.4079   -0.9952  -11.8511 C   0  0  0  0  0  0  0  0  0  0  0  0
   -5.3364   -0.1311  -13.1073 C   0  0  0  0  0  0  0  0  0  0  0  0
   -2.7116    0.4714  -10.1874 C   0  0  0  0  0  0  0  0  0  0  0  0
   -2.3787    0.9287  -11.4176 F   0  0  0  0  0  0  0  0  0  0  0  0
   -2.2977    1.1837   -9.0598 C   0  0  0  0  0  0  0  0  0  0  0  0
   -0.5750    1.6375   -6.5708 C   0  0  0  0  0  0  0  0  0  0  0  0
    0.0069    2.6399   -5.7862 C   0  0  0  0  0  0  0  0  0  0  0  0
   -0.8000    3.4571   -4.9748 C   0  0  0  0  0  0  0  0  0  0  0  0
   -0.2580    4.6240   -4.2674 C   0  0  0  0  0  0  0  0  0  0  0  0
   -0.2494    4.6822   -2.8624 C   0  0  0  0  0  0  0  0  0  0  0  0
    0.1185    5.8642   -2.2124 C   0  0  0  0  0  0  0  0  0  0  0  0
    0.4576    7.0089   -2.9579 C   0  0  0  0  0  0  0  0  0  0  0  0
    0.8160    8.5543   -2.1188 S   0  0  0  0  0  0  0  0  0  0  0  0
    2.5880    8.1937   -1.9054 C   0  0  0  0  0  0  0  0  0  0  0  0
    3.3273    9.4354   -1.4314 C   0  0  0  0  0  0  0  0  0  0  0  0
    0.4770    6.9394   -4.3610 C   0  0  0  0  0  0  0  0  0  0  0  0
    0.1324    5.7568   -5.0117 C   0  0  0  0  0  0  0  0  0  0  0  0
    0.7978    8.0291   -5.0995 F   0  0  0  0  0  0  0  0  0  0  0  0
   -2.1626    3.1191   -4.8932 C   0  0  0  0  0  0  0  0  0  0  0  0
   -3.2898    3.6934   -3.8077 S   0  0  0  0  0  0  0  0  0  0  0  0
    1.4084    2.7007   -5.9087 C   0  0  0  0  0  0  0  0  0  0  0  0
    1.9202    1.6901   -6.7198 C   0  0  0  0  0  0  0  0  0  0  0  0
    0.6433    0.8093   -7.3815 S   0  0  0  0  0  0  0  0  0  0  0  0
    3.3109    1.5634   -7.1843 C   0  0  0  0  0  0  0  0  0  0  0  0
    3.7082    1.7910   -8.7942 S   0  0  0  0  0  0  0  0  0  0  0  0
    5.2655    1.1970   -8.7262 C   0  0  0  0  0  0  0  0  0  0  0  0
    5.5067    0.7465   -7.4298 C   0  0  0  0  0  0  0  0  0  0  0  0
    4.4136    0.9647   -6.5291 C   0  0  0  0  0  0  0  0  0  0  0  0
    4.4754    0.5712   -5.0910 C   0  0  0  0  0  0  0  0  0  0  0  0
    5.8818   -0.1023   -4.5909 S   0  0  0  0  0  4  0  0  0  0  0  0
    6.2196   -0.3476   -2.8950 O   0  0  0  0  0  0  0  0  0  0  0  0
    6.9798   -1.5204   -2.7652 C   0  0  0  0  0  0  0  0  0  0  0  0
    7.0822   -0.3801   -5.8743 C   0  0  0  0  0  0  0  0  0  0  0  0
    6.7871    0.0558   -7.0999 C   0  0  0  0  0  0  0  0  0  0  0  0
    8.3006   -0.9951   -5.5584 O   0  0  0  0  0  0  0  0  0  0  0  0
    9.0188   -1.8622   -6.4330 C   0  0  0  0  0  0  0  0  0  0  0  0
    3.4964    1.0417   -4.0920 C   0  0  0  0  0  0  0  0  0  0  0  0
    3.0160    0.3236   -3.0617 C   0  0  0  0  0  0  0  0  0  0  0  0
    3.3136   -1.0938   -2.7789 C   0  0  0  0  0  0  0  0  0  0  0  0
    3.5039   -2.1259   -3.6983 C   0  0  0  0  0  0  0  0  0  0  0  0
    3.8804   -3.3261   -3.0837 C   0  0  0  0  0  0  0  0  0  0  0  0
    4.2070   -4.5275   -3.7402 C   0  0  0  0  0  0  0  0  0  0  0  0
    4.1811   -4.6744   -5.2004 C   0  0  0  0  0  0  0  0  0  0  0  0
    5.2612   -4.2189   -5.9681 C   0  0  0  0  0  0  0  0  0  0  0  0
    5.4237   -4.6687   -7.2870 C   0  0  0  0  0  0  0  0  0  0  0  0
    4.5027   -5.5760   -7.8366 C   0  0  0  0  0  0  0  0  0  0  0  0
    4.8621   -6.3690   -9.4114 S   0  0  0  0  0  0  0  0  0  0  0  0
    5.7917   -7.7610   -8.6621 C   0  0  0  0  0  0  0  0  0  0  0  0
    7.2762   -7.6320   -8.9820 C   0  0  0  0  0  0  0  0  0  0  0  0
    3.3725   -5.9553   -7.1013 C   0  0  0  0  0  0  0  0  0  0  0  0
    2.4696   -6.8257   -7.6223 F   0  0  0  0  0  0  0  0  0  0  0  0
    3.2159   -5.5064   -5.7877 C   0  0  0  0  0  0  0  0  0  0  0  0
    4.6510   -5.5896   -2.9438 C   0  0  0  0  0  0  0  0  0  0  0  0
    4.7876   -5.5036   -1.5610 C   0  0  0  0  0  0  0  0  0  0  0  0
    4.4316   -4.3165   -0.8872 C   0  0  0  0  0  0  0  0  0  0  0  0
    4.5817   -4.1859    0.5817 C   0  0  0  0  0  0  0  0  0  0  0  0
    5.3852   -3.1708    1.1260 C   0  0  0  0  0  0  0  0  0  0  0  0
    5.5768   -3.0881    2.5079 C   0  0  0  0  0  0  0  0  0  0  0  0
    4.9907   -4.0311    3.3550 C   0  0  0  0  0  0  0  0  0  0  0  0
    5.2965   -3.9537    5.1209 S   0  0  0  0  0  0  0  0  0  0  0  0
    3.7033   -3.1653    5.5498 C   0  0  0  0  0  0  0  0  0  0  0  0
    2.9187   -4.1013    6.4604 C   0  0  0  0  0  0  0  0  0  0  0  0
    4.1813   -5.0492    2.8231 C   0  0  0  0  0  0  0  0  0  0  0  0
    3.9655   -5.1085    1.4414 C   0  0  0  0  0  0  0  0  0  0  0  0
    3.6254   -5.9835    3.6317 F   0  0  0  0  0  0  0  0  0  0  0  0
    3.9815   -3.2394   -1.6882 C   0  0  0  0  0  0  0  0  0  0  0  0
    3.5584   -1.6841   -1.2116 S   0  0  0  0  0  0  0  0  0  0  0  0
    5.3440   -6.6614   -0.9863 C   0  0  0  0  0  0  0  0  0  0  0  0
    5.6209   -7.6524   -1.9140 C   0  0  0  0  0  0  0  0  0  0  0  0
    5.2161   -7.0903   -3.4459 S   0  0  0  0  0  0  0  0  0  0  0  0
    3.9091   -2.1621   11.7151 H   0  0  0  0  0  0  0  0  0  0  0  0
    6.1538    1.6256   13.1172 H   0  0  0  0  0  0  0  0  0  0  0  0
    0.6270    2.3152    6.8677 H   0  0  0  0  0  0  0  0  0  0  0  0
    2.0560    3.4147    6.9551 H   0  0  0  0  0  0  0  0  0  0  0  0
    1.2139    2.8491    8.4645 H   0  0  0  0  0  0  0  0  0  0  0  0
    5.5063    3.1843   11.1253 H   0  0  0  0  0  0  0  0  0  0  0  0
    5.3351    5.3513    7.9749 H   0  0  0  0  0  0  0  0  0  0  0  0
    6.3279    4.0287    8.7004 H   0  0  0  0  0  0  0  0  0  0  0  0
    5.4929    5.2571    9.7737 H   0  0  0  0  0  0  0  0  0  0  0  0
    3.4385   -2.2087    9.3733 H   0  0  0  0  0  0  0  0  0  0  0  0
    1.0134   -1.4896   10.2432 H   0  0  0  0  0  0  0  0  0  0  0  0
   -0.7890   -3.3363    8.7899 H   0  0  0  0  0  0  0  0  0  0  0  0
   -4.5001   -3.3753    8.3360 H   0  0  0  0  0  0  0  0  0  0  0  0
   -4.9493   -5.4811    9.5567 H   0  0  0  0  0  0  0  0  0  0  0  0
   -4.5850   -8.6896    7.3105 H   0  0  0  0  0  0  0  0  0  0  0  0
   -4.7491  -10.0072    8.5213 H   0  0  0  0  0  0  0  0  0  0  0  0
   -6.9613   -9.0389    8.0346 H   0  0  0  0  0  0  0  0  0  0  0  0
   -6.3808   -7.3913    8.4809 H   0  0  0  0  0  0  0  0  0  0  0  0
   -6.5016   -8.6889    9.7437 H   0  0  0  0  0  0  0  0  0  0  0  0
   -1.3713   -5.3460    6.1184 H   0  0  0  0  0  0  0  0  0  0  0  0
   -2.1525    1.8740    5.5148 H   0  0  0  0  0  0  0  0  0  0  0  0
   -1.3627    3.8605    4.2963 H   0  0  0  0  0  0  0  0  0  0  0  0
    1.9639    5.8165    3.0678 H   0  0  0  0  0  0  0  0  0  0  0  0
    1.3750    4.6574    4.3028 H   0  0  0  0  0  0  0  0  0  0  0  0
    3.3563    3.9808    2.0296 H   0  0  0  0  0  0  0  0  0  0  0  0
    3.8269    4.3892    3.7303 H   0  0  0  0  0  0  0  0  0  0  0  0
    2.8694    2.8990    3.4053 H   0  0  0  0  0  0  0  0  0  0  0  0
    0.3876   -0.6244    3.0835 H   0  0  0  0  0  0  0  0  0  0  0  0
   -3.3478    0.1078    3.1631 H   0  0  0  0  0  0  0  0  0  0  0  0
   -5.8600    1.0171    3.1601 H   0  0  0  0  0  0  0  0  0  0  0  0
   -4.2301    2.6858    1.9108 H   0  0  0  0  0  0  0  0  0  0  0  0
   -4.0840    4.7705    3.2323 H   0  0  0  0  0  0  0  0  0  0  0  0
   -7.6153    5.5819    5.0246 H   0  0  0  0  0  0  0  0  0  0  0  0
   -5.9272    5.3503    5.6391 H   0  0  0  0  0  0  0  0  0  0  0  0
   -7.6328    7.9043    5.9539 H   0  0  0  0  0  0  0  0  0  0  0  0
   -5.9642    7.6386    6.6215 H   0  0  0  0  0  0  0  0  0  0  0  0
   -7.3544    6.6504    7.2261 H   0  0  0  0  0  0  0  0  0  0  0  0
   -8.2661    3.6891    0.7777 H   0  0  0  0  0  0  0  0  0  0  0  0
   -8.8190   -1.8559   -1.4664 H   0  0  0  0  0  0  0  0  0  0  0  0
   -9.2971   -3.6292   -3.1059 H   0  0  0  0  0  0  0  0  0  0  0  0
   -6.8033   -2.9043   -6.2348 H   0  0  0  0  0  0  0  0  0  0  0  0
   -7.5367   -4.0798   -7.3781 H   0  0  0  0  0  0  0  0  0  0  0  0
   -8.9312   -2.0289   -7.1482 H   0  0  0  0  0  0  0  0  0  0  0  0
   -9.1240   -2.3324   -5.3895 H   0  0  0  0  0  0  0  0  0  0  0  0
   -9.8196   -3.4987   -6.5849 H   0  0  0  0  0  0  0  0  0  0  0  0
   -4.6385   -2.0203   -2.5007 H   0  0  0  0  0  0  0  0  0  0  0  0
   -5.8091    0.1230   -3.7462 H   0  0  0  0  0  0  0  0  0  0  0  0
   -4.6596    1.0326   -5.7212 H   0  0  0  0  0  0  0  0  0  0  0  0
   -3.4837   -0.8998   -6.6290 H   0  0  0  0  0  0  0  0  0  0  0  0
   -4.2487   -2.1399   -8.6225 H   0  0  0  0  0  0  0  0  0  0  0  0
   -6.1178   -1.8325  -12.0313 H   0  0  0  0  0  0  0  0  0  0  0  0
   -5.7984   -0.3946  -11.0030 H   0  0  0  0  0  0  0  0  0  0  0  0
   -4.6923   -0.5948  -13.8783 H   0  0  0  0  0  0  0  0  0  0  0  0
   -4.9341    0.8713  -12.8576 H   0  0  0  0  0  0  0  0  0  0  0  0
   -6.3507   -0.0114  -13.5353 H   0  0  0  0  0  0  0  0  0  0  0  0
   -1.7315    2.0925   -9.1955 H   0  0  0  0  0  0  0  0  0  0  0  0
   -0.5561    3.8169   -2.2778 H   0  0  0  0  0  0  0  0  0  0  0  0
    0.1088    5.9034   -1.1279 H   0  0  0  0  0  0  0  0  0  0  0  0
    3.0346    7.8347   -2.8515 H   0  0  0  0  0  0  0  0  0  0  0  0
    2.6828    7.4069   -1.1305 H   0  0  0  0  0  0  0  0  0  0  0  0
    3.4201   10.1678   -2.2663 H   0  0  0  0  0  0  0  0  0  0  0  0
    4.3347    9.1356   -1.0602 H   0  0  0  0  0  0  0  0  0  0  0  0
    2.7672    9.8870   -0.5821 H   0  0  0  0  0  0  0  0  0  0  0  0
    0.1069    5.7362   -6.0945 H   0  0  0  0  0  0  0  0  0  0  0  0
    2.0170    3.4679   -5.4666 H   0  0  0  0  0  0  0  0  0  0  0  0
    5.9496    1.1276   -9.5580 H   0  0  0  0  0  0  0  0  0  0  0  0
    8.0396   -1.3348   -3.0367 H   0  0  0  0  0  0  0  0  0  0  0  0
    6.9465   -1.8463   -1.7116 H   0  0  0  0  0  0  0  0  0  0  0  0
    6.5735   -2.3559   -3.3854 H   0  0  0  0  0  0  0  0  0  0  0  0
    7.5058   -0.0551   -7.9035 H   0  0  0  0  0  0  0  0  0  0  0  0
    9.1996   -1.3911   -7.4224 H   0  0  0  0  0  0  0  0  0  0  0  0
   10.0048   -2.0874   -5.9726 H   0  0  0  0  0  0  0  0  0  0  0  0
    8.4497   -2.8123   -6.5542 H   0  0  0  0  0  0  0  0  0  0  0  0
    3.2332    2.0870   -4.1308 H   0  0  0  0  0  0  0  0  0  0  0  0
    2.4579    0.8682   -2.3082 H   0  0  0  0  0  0  0  0  0  0  0  0
    3.3884   -1.9986   -4.7635 H   0  0  0  0  0  0  0  0  0  0  0  0
    6.0298   -3.5873   -5.5297 H   0  0  0  0  0  0  0  0  0  0  0  0
    6.2975   -4.3698   -7.8555 H   0  0  0  0  0  0  0  0  0  0  0  0
    5.4133   -8.7110   -9.0877 H   0  0  0  0  0  0  0  0  0  0  0  0
    5.6663   -7.7948   -7.5631 H   0  0  0  0  0  0  0  0  0  0  0  0
    7.4478   -7.7606  -10.0714 H   0  0  0  0  0  0  0  0  0  0  0  0
    7.8410   -8.4097   -8.4234 H   0  0  0  0  0  0  0  0  0  0  0  0
    7.6462   -6.6339   -8.6699 H   0  0  0  0  0  0  0  0  0  0  0  0
    2.3864   -5.8703   -5.1932 H   0  0  0  0  0  0  0  0  0  0  0  0
    5.8805   -2.4598    0.4836 H   0  0  0  0  0  0  0  0  0  0  0  0
    6.2093   -2.3086    2.9175 H   0  0  0  0  0  0  0  0  0  0  0  0
    3.9077   -2.2160    6.0935 H   0  0  0  0  0  0  0  0  0  0  0  0
    3.0760   -2.9447    4.6586 H   0  0  0  0  0  0  0  0  0  0  0  0
    2.7686   -5.0874    5.9656 H   0  0  0  0  0  0  0  0  0  0  0  0
    1.9296   -3.6677    6.6950 H   0  0  0  0  0  0  0  0  0  0  0  0
    3.4747   -4.2815    7.4064 H   0  0  0  0  0  0  0  0  0  0  0  0
    3.3444   -5.9000    1.0367 H   0  0  0  0  0  0  0  0  0  0  0  0
    5.5633   -6.7779    0.0666 H   0  0  0  0  0  0  0  0  0  0  0  0
    6.0558   -8.6162   -1.6839 H   0  0  0  0  0  0  0  0  0  0  0  0
  1  2  1  0
  2  3  1  0
  3  4  2  0
  4  5  1  0
  5  6  1  0
  6  7  2  0
  7  8  1  0
  8  9  1  0
  7 10  1  0
 10 11  2  0
 10 12  1  0
 12 13  1  0
  6 14  1  0
 14 15  2  3
 15 16  1  0
 16 17  2  0
 17 18  1  0
 18 19  2  0
 19 20  1  0
 20 21  2  0
 21 22  1  0
 22 23  2  0
 23 24  1  0
 24 25  1  0
 25 26  1  0
 23 27  1  0
 27 28  1  0
 27 29  2  0
 19 30  1  0
 30 31  2  0
 31 32  1  0
 32 33  1  0
 33 34  2  0
 34 35  1  0
 35 36  2  0
 36 37  1  0
 37 38  1  0
 38 39  1  0
 36 40  1  0
 40 41  2  0
 40 42  1  0
 32 43  2  0
 43 44  1  0
 31 45  1  0
 45 46  2  0
 46 47  1  0
 46 48  1  0
 48 49  2  0
 49 50  1  0
 50 51  2  0
 51 52  1  0
 52 53  2  0
 53 54  1  0
 54 55  2  0
 55 56  1  0
 56 57  1  0
 57 58  1  0
 55 59  1  0
 59 60  1  0
 59 61  2  0
 51 62  1  0
 62 63  2  0
 63 64  1  0
 64 65  1  0
 65 66  2  0
 66 67  1  0
 67 68  2  0
 68 69  1  0
 69 70  1  0
 70 71  1  0
 68 72  1  0
 72 73  2  0
 72 74  1  0
 64 75  2  0
 75 76  1  0
 63 77  1  0
 77 78  2  0
 78 79  1  0
 78 80  1  0
 80 81  2  0
 81 82  1  0
 82 83  2  0
 83 84  1  0
 84 85  2  0
 85 86  1  0
 86 87  2  0
 87 88  1  0
 88 89  1  0
 89 90  1  0
 87 91  1  0
 91 92  1  0
 91 93  2  0
 83 94  1  0
 94 95  2  0
 95 96  1  0
 96 97  1  0
 97 98  2  0
 98 99  1  0
 99100  2  0
100101  1  0
101102  1  0
102103  1  0
100104  1  0
104105  2  0
104106  1  0
 96107  2  0
107108  1  0
 95109  1  0
109110  2  0
110111  1  0
110112  1  0
112113  1  0
113114  1  0
114115  2  0
115116  1  0
116117  1  0
117118  2  0
118119  1  0
119120  1  0
118121  1  0
121122  2  0
121123  1  0
123124  1  0
117125  1  0
125126  2  3
126127  1  0
127128  2  0
128129  1  0
129130  2  0
130131  1  0
131132  2  0
132133  1  0
133134  2  0
134135  1  0
135136  1  0
136137  1  0
134138  1  0
138139  1  0
138140  2  0
130141  1  0
141142  2  0
142143  1  0
143144  1  0
144145  2  0
145146  1  0
146147  2  0
147148  1  0
148149  1  0
149150  1  0
147151  1  0
151152  2  0
151153  1  0
143154  2  0
154155  1  0
142156  1  0
156157  2  0
157158  1  0
  5  1  2  0
 44 16  1  0
 76 48  1  0
108 80  1  0
116112  2  0
155127  1  0
 11  4  1  0
 43 18  1  0
 75 50  1  0
107 82  1  0
122115  1  0
154129  1  0
 29 20  1  0
 47 30  1  0
 61 52  1  0
 79 62  1  0
 93 84  1  0
111 94  1  0
140131  1  0
158141  1  0
 41 33  1  0
 73 65  1  0
105 97  1  0
152144  1  0
  1159  1  0
  3160  1  0
  9161  1  0
  9162  1  0
  9163  1  0
 11164  1  0
 13165  1  0
 13166  1  0
 13167  1  0
 14168  1  0
 15169  1  0
 17170  1  0
 21171  1  0
 22172  1  0
 25173  1  0
 25174  1  0
 26175  1  0
 26176  1  0
 26177  1  0
 29178  1  0
 34179  1  0
 35180  1  0
 38181  1  0
 38182  1  0
 39183  1  0
 39184  1  0
 39185  1  0
 41186  1  0
 45187  1  0
 49188  1  0
 53189  1  0
 54190  1  0
 57191  1  0
 57192  1  0
 58193  1  0
 58194  1  0
 58195  1  0
 61196  1  0
 66197  1  0
 67198  1  0
 70199  1  0
 70200  1  0
 71201  1  0
 71202  1  0
 71203  1  0
 73204  1  0
 77205  1  0
 81206  1  0
 85207  1  0
 86208  1  0
 89209  1  0
 89210  1  0
 90211  1  0
 90212  1  0
 90213  1  0
 93214  1  0
 98215  1  0
 99216  1  0
102217  1  0
102218  1  0
103219  1  0
103220  1  0
103221  1  0
105222  1  0
109223  1  0
114224  1  0
120225  1  0
120226  1  0
120227  1  0
122228  1  0
124229  1  0
124230  1  0
124231  1  0
125232  1  0
126233  1  0
128234  1  0
132235  1  0
133236  1  0
136237  1  0
136238  1  0
137239  1  0
137240  1  0
137241  1  0
140242  1  0
145243  1  0
146244  1  0
149245  1  0
149246  1  0
150247  1  0
150248  1  0
150249  1  0
152250  1  0
156251  1  0
157252  1  0
M  END

