
     RDKit          3D

202219  0  0  0  0  0  0  0  0999 V2000
    7.3046   -5.1866   10.6720 C   0  0  0  0  0  0  0  0  0  0  0  0
    8.2759   -4.2191   11.6286 S   0  0  0  0  0  0  0  0  0  0  0  0
    9.1533   -3.4563   10.4078 C   0  0  0  0  0  0  0  0  0  0  0  0
    8.6768   -3.9576    9.1860 C   0  0  0  0  0  0  0  0  0  0  0  0
    7.6164   -4.9501    9.3309 C   0  0  0  0  0  0  0  0  0  0  0  0
    6.9899   -5.5659    8.1841 C   0  0  0  0  0  0  0  0  0  0  0  0
    7.5723   -5.1969    6.7089 S   0  0  0  0  0  4  0  0  0  0  0  0
    6.9065   -5.9626    5.2800 O   0  0  0  0  0  0  0  0  0  0  0  0
    7.5016   -5.4977    4.0700 C   0  0  0  0  0  0  0  0  0  0  0  0
    8.8153   -3.9621    6.7103 C   0  0  0  0  0  0  0  0  0  0  0  0
    9.2263   -3.4877    7.8882 C   0  0  0  0  0  0  0  0  0  0  0  0
    9.3388   -3.4846    5.5101 O   0  0  0  0  0  0  0  0  0  0  0  0
   10.2500   -2.3881    5.4077 C   0  0  0  0  0  0  0  0  0  0  0  0
    5.8148   -6.4442    8.4416 C   0  0  0  0  0  0  0  0  0  0  0  0
    4.7110   -6.6898    7.6468 C   0  0  0  0  0  0  0  0  0  0  0  0
    4.4146   -6.0261    6.3520 C   0  0  0  0  0  0  0  0  0  0  0  0
    3.6737   -6.6672    5.3480 C   0  0  0  0  0  0  0  0  0  0  0  0
    3.3764   -5.7319    4.2840 C   0  0  0  0  0  0  0  0  0  0  0  0
    2.6655   -6.0586    3.1567 C   0  0  0  0  0  0  0  0  0  0  0  0
    2.0109   -7.3163    2.9433 C   0  0  0  0  0  0  0  0  0  0  0  0
    0.9291   -7.6289    3.7194 C   0  0  0  0  0  0  0  0  0  0  0  0
    0.2543   -8.8562    3.5876 C   0  0  0  0  0  0  0  0  0  0  0  0
    0.6560   -9.7596    2.6655 C   0  0  0  0  0  0  0  0  0  0  0  0
   -0.1966  -11.3502    2.5701 S   0  0  0  0  0  0  0  0  0  0  0  0
   -1.5595  -10.9651    1.3953 C   0  0  0  0  0  0  0  0  0  0  0  0
   -1.0119  -10.7406    0.0238 C   0  0  0  0  0  0  0  0  0  0  0  0
    1.7831   -9.4842    1.8555 C   0  0  0  0  0  0  0  0  0  0  0  0
    2.2205  -10.3702    0.9709 F   0  0  0  0  0  0  0  0  0  0  0  0
    2.4514   -8.2640    1.9770 C   0  0  0  0  0  0  0  0  0  0  0  0
    2.3996   -5.0211    2.1864 C   0  0  0  0  0  0  0  0  0  0  0  0
    2.9076   -3.7714    2.4116 C   0  0  0  0  0  0  0  0  0  0  0  0
    3.6532   -3.4583    3.5171 C   0  0  0  0  0  0  0  0  0  0  0  0
    4.0601   -2.1053    3.8140 C   0  0  0  0  0  0  0  0  0  0  0  0
    3.0602   -1.1867    4.0843 C   0  0  0  0  0  0  0  0  0  0  0  0
    3.3820    0.1578    4.3505 C   0  0  0  0  0  0  0  0  0  0  0  0
    4.6719    0.5866    4.3835 C   0  0  0  0  0  0  0  0  0  0  0  0
    5.0357    2.3247    4.6200 S   0  0  0  0  0  0  0  0  0  0  0  0
    5.0678    2.5527    6.4646 C   0  0  0  0  0  0  0  0  0  0  0  0
    3.6911    2.3069    7.0703 C   0  0  0  0  0  0  0  0  0  0  0  0
    5.6909   -0.3450    4.1114 C   0  0  0  0  0  0  0  0  0  0  0  0
    5.4005   -1.6993    3.8345 C   0  0  0  0  0  0  0  0  0  0  0  0
    6.9668    0.0374    4.1301 F   0  0  0  0  0  0  0  0  0  0  0  0
    3.8664   -4.4795    4.4768 C   0  0  0  0  0  0  0  0  0  0  0  0
    4.6262   -4.4333    5.9481 S   0  0  0  0  0  0  0  0  0  0  0  0
    2.5669   -2.8239    1.3479 C   0  0  0  0  0  0  0  0  0  0  0  0
    1.7896   -3.3528    0.3525 C   0  0  0  0  0  0  0  0  0  0  0  0
    1.5265   -4.9789    0.7479 S   0  0  0  0  0  0  0  0  0  0  0  0
    1.3265   -2.4887   -0.7730 C   0  0  0  0  0  0  0  0  0  0  0  0
    0.2313   -2.6949   -1.6258 C   0  0  0  0  0  0  0  0  0  0  0  0
   -0.0483   -1.5407   -2.4773 C   0  0  0  0  0  0  0  0  0  0  0  0
   -1.0755   -1.4694   -3.4018 C   0  0  0  0  0  0  0  0  0  0  0  0
   -1.9655   -2.5551   -3.7690 C   0  0  0  0  0  0  0  0  0  0  0  0
   -1.8659   -3.0644   -5.0386 C   0  0  0  0  0  0  0  0  0  0  0  0
   -2.7345   -4.0920   -5.4976 C   0  0  0  0  0  0  0  0  0  0  0  0
   -3.6884   -4.6078   -4.6340 C   0  0  0  0  0  0  0  0  0  0  0  0
   -4.8651   -5.8341   -5.2262 S   0  0  0  0  0  0  0  0  0  0  0  0
   -3.9389   -7.4342   -5.1543 C   0  0  0  0  0  0  0  0  0  0  0  0
   -3.5961   -7.8249   -3.7277 C   0  0  0  0  0  0  0  0  0  0  0  0
   -3.8229   -4.0636   -3.3335 C   0  0  0  0  0  0  0  0  0  0  0  0
   -4.7621   -4.5053   -2.5241 F   0  0  0  0  0  0  0  0  0  0  0  0
   -2.9381   -3.0344   -2.8957 C   0  0  0  0  0  0  0  0  0  0  0  0
   -1.2628   -0.2169   -4.0726 C   0  0  0  0  0  0  0  0  0  0  0  0
   -0.4483    0.8530   -3.7951 C   0  0  0  0  0  0  0  0  0  0  0  0
    0.6089    0.7545   -2.9394 C   0  0  0  0  0  0  0  0  0  0  0  0
    1.6367    1.8195   -2.7725 C   0  0  0  0  0  0  0  0  0  0  0  0
    2.0506    2.2073   -1.4697 C   0  0  0  0  0  0  0  0  0  0  0  0
    3.0551    3.1829   -1.3342 C   0  0  0  0  0  0  0  0  0  0  0  0
    3.5786    3.8351   -2.4550 C   0  0  0  0  0  0  0  0  0  0  0  0
    4.6404    5.2853   -2.1964 S   0  0  0  0  0  0  0  0  0  0  0  0
    6.2346    4.6244   -1.5216 C   0  0  0  0  0  0  0  0  0  0  0  0
    6.9838    3.7328   -2.5197 C   0  0  0  0  0  0  0  0  0  0  0  0
    3.0755    3.5445   -3.7222 C   0  0  0  0  0  0  0  0  0  0  0  0
    2.1141    2.5116   -3.8693 C   0  0  0  0  0  0  0  0  0  0  0  0
    3.4738    4.2332   -4.8232 F   0  0  0  0  0  0  0  0  0  0  0  0
    0.8031   -0.4808   -2.2671 C   0  0  0  0  0  0  0  0  0  0  0  0
    1.8842   -0.9304   -1.0957 S   0  0  0  0  0  0  0  0  0  0  0  0
   -0.8441    2.0522   -4.5041 C   0  0  0  0  0  0  0  0  0  0  0  0
   -1.9546    1.8679   -5.3120 C   0  0  0  0  0  0  0  0  0  0  0  0
   -2.3801    0.2558   -5.2169 S   0  0  0  0  0  0  0  0  0  0  0  0
   -2.2965    2.8999   -6.3496 C   0  0  0  0  0  0  0  0  0  0  0  0
   -1.1326    3.4907   -7.3565 S   0  0  0  0  0  0  0  0  0  0  0  0
   -2.1044    4.4842   -8.2983 C   0  0  0  0  0  0  0  0  0  0  0  0
   -3.4025    4.3705   -7.8048 C   0  0  0  0  0  0  0  0  0  0  0  0
   -3.5613    3.4860   -6.6334 C   0  0  0  0  0  0  0  0  0  0  0  0
   -4.8649    3.2891   -6.0231 C   0  0  0  0  0  0  0  0  0  0  0  0
   -6.1429    3.9638   -6.7913 S   0  0  0  0  0  4  0  0  0  0  0  0
   -7.7763    3.9874   -6.1297 O   0  0  0  0  0  0  0  0  0  0  0  0
   -8.4931    2.7782   -6.3333 C   0  0  0  0  0  0  0  0  0  0  0  0
   -5.7786    5.0070   -8.1519 C   0  0  0  0  0  0  0  0  0  0  0  0
   -4.5000    5.1092   -8.4813 C   0  0  0  0  0  0  0  0  0  0  0  0
   -6.7120    5.6811   -8.9055 O   0  0  0  0  0  0  0  0  0  0  0  0
   -7.8108    4.9536   -9.4532 C   0  0  0  0  0  0  0  0  0  0  0  0
   -5.2655    2.7379   -4.7100 C   0  0  0  0  0  0  0  0  0  0  0  0
   -4.6993    2.0426   -3.7168 C   0  0  0  0  0  0  0  0  0  0  0  0
   -5.6237    1.4127   -2.7541 C   0  0  0  0  0  0  0  0  0  0  0  0
   -5.4768   -0.1789   -2.3220 S   0  0  0  0  0  0  0  0  0  0  0  0
   -6.8888   -0.3678   -1.4479 C   0  0  0  0  0  0  0  0  0  0  0  0
   -7.5437    0.8509   -1.4773 C   0  0  0  0  0  0  0  0  0  0  0  0
   -6.8273    1.8940   -2.1527 C   0  0  0  0  0  0  0  0  0  0  0  0
   -7.3825    3.2742   -2.2053 C   0  0  0  0  0  0  0  0  0  0  0  0
   -8.8535    3.5198   -1.7002 S   0  0  0  0  0  4  0  0  0  0  0  0
   -9.6871    5.0767   -1.8929 O   0  0  0  0  0  0  0  0  0  0  0  0
  -10.5013    5.3830   -0.7955 C   0  0  0  0  0  0  0  0  0  0  0  0
   -9.6107    2.1350   -0.9574 C   0  0  0  0  0  0  0  0  0  0  0  0
   -8.8982    1.0003   -0.8823 C   0  0  0  0  0  0  0  0  0  0  0  0
  -10.9062    2.1794   -0.4470 O   0  0  0  0  0  0  0  0  0  0  0  0
  -11.3540    1.2928    0.6118 C   0  0  0  0  0  0  0  0  0  0  0  0
   -6.6834    4.4826   -2.7229 C   0  0  0  0  0  0  0  0  0  0  0  0
   -5.4242    4.8774   -2.4626 C   0  0  0  0  0  0  0  0  0  0  0  0
   -4.5617    4.2045   -1.4555 C   0  0  0  0  0  0  0  0  0  0  0  0
   -5.0192    3.1611   -0.2350 S   0  0  0  0  0  0  0  0  0  0  0  0
   -3.5784    2.9954    0.5405 C   0  0  0  0  0  0  0  0  0  0  0  0
   -2.6859    3.8601   -0.0880 C   0  0  0  0  0  0  0  0  0  0  0  0
   -3.2163    4.5597   -1.2440 C   0  0  0  0  0  0  0  0  0  0  0  0
   -2.5057    5.6136   -1.8837 C   0  0  0  0  0  0  0  0  0  0  0  0
   -1.1717    6.2007   -1.1589 S   0  0  0  0  0  4  0  0  0  0  0  0
   -0.1191    7.3710   -1.9586 O   0  0  0  0  0  0  0  0  0  0  0  0
    1.1640    7.2490   -1.4028 C   0  0  0  0  0  0  0  0  0  0  0  0
   -0.5979    5.1543    0.0965 C   0  0  0  0  0  0  0  0  0  0  0  0
   -1.3428    4.0910    0.4564 C   0  0  0  0  0  0  0  0  0  0  0  0
    0.5912    5.4578    0.7825 O   0  0  0  0  0  0  0  0  0  0  0  0
    1.1498    4.5888    1.7466 C   0  0  0  0  0  0  0  0  0  0  0  0
   -2.5678    5.5903   -3.3478 C   0  0  0  0  0  0  0  0  0  0  0  0
   -2.1180    6.5378   -4.1062 C   0  0  0  0  0  0  0  0  0  0  0  0
    6.5514   -5.8685   11.0143 H   0  0  0  0  0  0  0  0  0  0  0  0
    9.9303   -2.7039   10.5306 H   0  0  0  0  0  0  0  0  0  0  0  0
    8.5733   -5.2982    4.1605 H   0  0  0  0  0  0  0  0  0  0  0  0
    6.9854   -4.6156    3.7445 H   0  0  0  0  0  0  0  0  0  0  0  0
    7.3144   -6.2875    3.3101 H   0  0  0  0  0  0  0  0  0  0  0  0
   10.0076   -2.7400    7.8976 H   0  0  0  0  0  0  0  0  0  0  0  0
   11.1815   -2.6045    5.9655 H   0  0  0  0  0  0  0  0  0  0  0  0
    9.7982   -1.4633    5.8111 H   0  0  0  0  0  0  0  0  0  0  0  0
   10.5080   -2.2271    4.3441 H   0  0  0  0  0  0  0  0  0  0  0  0
    5.8318   -6.9762    9.3526 H   0  0  0  0  0  0  0  0  0  0  0  0
    4.0013   -7.3821    8.0635 H   0  0  0  0  0  0  0  0  0  0  0  0
    3.3857   -7.6617    5.3443 H   0  0  0  0  0  0  0  0  0  0  0  0
    0.5626   -6.9397    4.4648 H   0  0  0  0  0  0  0  0  0  0  0  0
   -0.6093   -9.0449    4.2419 H   0  0  0  0  0  0  0  0  0  0  0  0
   -2.1509  -10.0961    1.7369 H   0  0  0  0  0  0  0  0  0  0  0  0
   -2.2148  -11.8800    1.4061 H   0  0  0  0  0  0  0  0  0  0  0  0
   -1.8310  -10.6659   -0.7378 H   0  0  0  0  0  0  0  0  0  0  0  0
   -0.3484  -11.6061   -0.2466 H   0  0  0  0  0  0  0  0  0  0  0  0
   -0.4105   -9.7913    0.0397 H   0  0  0  0  0  0  0  0  0  0  0  0
    3.3117   -8.0233    1.3685 H   0  0  0  0  0  0  0  0  0  0  0  0
    2.0265   -1.4817    4.0776 H   0  0  0  0  0  0  0  0  0  0  0  0
    2.5753    0.8434    4.5461 H   0  0  0  0  0  0  0  0  0  0  0  0
    5.8246    1.8726    6.8967 H   0  0  0  0  0  0  0  0  0  0  0  0
    5.3250    3.6143    6.6442 H   0  0  0  0  0  0  0  0  0  0  0  0
    3.7223    2.4180    8.1773 H   0  0  0  0  0  0  0  0  0  0  0  0
    2.9290    2.9867    6.6100 H   0  0  0  0  0  0  0  0  0  0  0  0
    3.3687    1.2607    6.8545 H   0  0  0  0  0  0  0  0  0  0  0  0
    6.1741   -2.3994    3.6325 H   0  0  0  0  0  0  0  0  0  0  0  0
    2.8801   -1.8178    1.3847 H   0  0  0  0  0  0  0  0  0  0  0  0
   -0.3267   -3.5814   -1.6426 H   0  0  0  0  0  0  0  0  0  0  0  0
   -1.1280   -2.6852   -5.7136 H   0  0  0  0  0  0  0  0  0  0  0  0
   -2.6496   -4.4937   -6.4807 H   0  0  0  0  0  0  0  0  0  0  0  0
   -4.5817   -8.2090   -5.6004 H   0  0  0  0  0  0  0  0  0  0  0  0
   -3.0164   -7.4063   -5.7691 H   0  0  0  0  0  0  0  0  0  0  0  0
   -2.8159   -8.6305   -3.7493 H   0  0  0  0  0  0  0  0  0  0  0  0
   -3.1924   -6.9557   -3.1963 H   0  0  0  0  0  0  0  0  0  0  0  0
   -4.5139   -8.1943   -3.2089 H   0  0  0  0  0  0  0  0  0  0  0  0
   -3.0408   -2.6408   -1.9240 H   0  0  0  0  0  0  0  0  0  0  0  0
    1.6842    1.7125   -0.5959 H   0  0  0  0  0  0  0  0  0  0  0  0
    3.4315    3.4155   -0.3458 H   0  0  0  0  0  0  0  0  0  0  0  0
    6.0740    4.0713   -0.5890 H   0  0  0  0  0  0  0  0  0  0  0  0
    6.8827    5.4859   -1.2661 H   0  0  0  0  0  0  0  0  0  0  0  0
    8.0778    3.7998   -2.3051 H   0  0  0  0  0  0  0  0  0  0  0  0
    6.6427    2.6727   -2.3394 H   0  0  0  0  0  0  0  0  0  0  0  0
    6.7932    4.0033   -3.5475 H   0  0  0  0  0  0  0  0  0  0  0  0
    1.8210    2.2868   -4.8844 H   0  0  0  0  0  0  0  0  0  0  0  0
   -0.4111    2.9893   -4.3611 H   0  0  0  0  0  0  0  0  0  0  0  0
   -1.7999    5.0903   -9.1478 H   0  0  0  0  0  0  0  0  0  0  0  0
   -8.0731    2.1505   -7.1409 H   0  0  0  0  0  0  0  0  0  0  0  0
   -9.5476    3.0585   -6.5756 H   0  0  0  0  0  0  0  0  0  0  0  0
   -8.4765    2.2313   -5.3716 H   0  0  0  0  0  0  0  0  0  0  0  0
   -4.2731    5.7472   -9.3028 H   0  0  0  0  0  0  0  0  0  0  0  0
   -8.4960    5.5906  -10.0323 H   0  0  0  0  0  0  0  0  0  0  0  0
   -7.4100    4.1468  -10.1089 H   0  0  0  0  0  0  0  0  0  0  0  0
   -8.3890    4.4438   -8.6664 H   0  0  0  0  0  0  0  0  0  0  0  0
   -6.2676    2.8615   -4.5130 H   0  0  0  0  0  0  0  0  0  0  0  0
   -3.6683    1.7854   -3.5655 H   0  0  0  0  0  0  0  0  0  0  0  0
   -7.2821   -1.2582   -0.9732 H   0  0  0  0  0  0  0  0  0  0  0  0
  -11.4898    4.8946   -0.9352 H   0  0  0  0  0  0  0  0  0  0  0  0
  -10.0260    5.1114    0.1449 H   0  0  0  0  0  0  0  0  0  0  0  0
  -10.6611    6.4946   -0.8139 H   0  0  0  0  0  0  0  0  0  0  0  0
   -9.3664    0.1530   -0.4763 H   0  0  0  0  0  0  0  0  0  0  0  0
  -11.3095    0.2493    0.2380 H   0  0  0  0  0  0  0  0  0  0  0  0
  -10.6894    1.4471    1.4801 H   0  0  0  0  0  0  0  0  0  0  0  0
  -12.3852    1.5512    0.9074 H   0  0  0  0  0  0  0  0  0  0  0  0
   -7.2020    5.0299   -3.4891 H   0  0  0  0  0  0  0  0  0  0  0  0
   -5.0811    5.6266   -3.1550 H   0  0  0  0  0  0  0  0  0  0  0  0
   -3.3925    2.4269    1.4424 H   0  0  0  0  0  0  0  0  0  0  0  0
    1.5772    6.1653   -1.4073 H   0  0  0  0  0  0  0  0  0  0  0  0
    1.8690    7.8580   -1.9701 H   0  0  0  0  0  0  0  0  0  0  0  0
    1.1264    7.6809   -0.3134 H   0  0  0  0  0  0  0  0  0  0  0  0
   -0.9019    3.3747    1.1062 H   0  0  0  0  0  0  0  0  0  0  0  0
    1.3341    3.5889    1.3160 H   0  0  0  0  0  0  0  0  0  0  0  0
    2.0822    4.9829    2.1524 H   0  0  0  0  0  0  0  0  0  0  0  0
    0.4322    4.5185    2.5685 H   0  0  0  0  0  0  0  0  0  0  0  0
   -3.2635    4.8963   -3.8386 H   0  0  0  0  0  0  0  0  0  0  0  0
   -1.5740    7.3497   -3.6053 H   0  0  0  0  0  0  0  0  0  0  0  0
   -2.1635    6.4925   -5.1703 H   0  0  0  0  0  0  0  0  0  0  0  0
  1  2  1  0
  2  3  1  0
  3  4  2  0
  4  5  1  0
  5  6  1  0
  6  7  2  0
  7  8  1  0
  8  9  1  0
  7 10  1  0
 10 11  2  0
 10 12  1  0
 12 13  1  0
  6 14  1  0
 14 15  2  3
 15 16  1  0
 16 17  2  0
 17 18  1  0
 18 19  2  0
 19 20  1  0
 20 21  2  0
 21 22  1  0
 22 23  2  0
 23 24  1  0
 24 25  1  0
 25 26  1  0
 23 27  1  0
 27 28  1  0
 27 29  2  0
 19 30  1  0
 30 31  2  0
 31 32  1  0
 32 33  1  0
 33 34  2  0
 34 35  1  0
 35 36  2  0
 36 37  1  0
 37 38  1  0
 38 39  1  0
 36 40  1  0
 40 41  2  0
 40 42  1  0
 32 43  2  0
 43 44  1  0
 31 45  1  0
 45 46  2  0
 46 47  1  0
 46 48  1  0
 48 49  2  0
 49 50  1  0
 50 51  2  0
 51 52  1  0
 52 53  2  0
 53 54  1  0
 54 55  2  0
 55 56  1  0
 56 57  1  0
 57 58  1  0
 55 59  1  0
 59 60  1  0
 59 61  2  0
 51 62  1  0
 62 63  2  0
 63 64  1  0
 64 65  1  0
 65 66  2  0
 66 67  1  0
 67 68  2  0
 68 69  1  0
 69 70  1  0
 70 71  1  0
 68 72  1  0
 72 73  2  0
 72 74  1  0
 64 75  2  0
 75 76  1  0
 63 77  1  0
 77 78  2  0
 78 79  1  0
 78 80  1  0
 80 81  1  0
 81 82  1  0
 82 83  2  0
 83 84  1  0
 84 85  1  0
 85 86  2  0
 86 87  1  0
 87 88  1  0
 86 89  1  0
 89 90  2  0
 89 91  1  0
 91 92  1  0
 85 93  1  0
 93 94  2  3
 94 95  1  0
 95 96  1  0
 96 97  1  0
 97 98  2  0
 98 99  1  0
 99100  1  0
100101  2  0
101102  1  0
102103  1  0
101104  1  0
104105  2  0
104106  1  0
106107  1  0
100108  1  0
108109  2  3
109110  1  0
110111  1  0
111112  1  0
112113  2  0
113114  1  0
114115  1  0
115116  2  0
116117  1  0
117118  1  0
116119  1  0
119120  2  0
119121  1  0
121122  1  0
115123  1  0
123124  2  3
  5  1  2  0
 44 16  1  0
 76 48  1  0
 84 80  2  0
 99 95  2  0
114110  2  0
 11  4  1  0
 43 18  1  0
 75 50  1  0
 90 83  1  0
105 98  1  0
120113  1  0
 29 20  1  0
 47 30  1  0
 61 52  1  0
 79 62  1  0
 41 33  1  0
 73 65  1  0
  1125  1  0
  3126  1  0
  9127  1  0
  9128  1  0
  9129  1  0
 11130  1  0
 13131  1  0
 13132  1  0
 13133  1  0
 14134  1  0
 15135  1  0
 17136  1  0
 21137  1  0
 22138  1  0
 25139  1  0
 25140  1  0
 26141  1  0
 26142  1  0
 26143  1  0
 29144  1  0
 34145  1  0
 35146  1  0
 38147  1  0
 38148  1  0
 39149  1  0
 39150  1  0
 39151  1  0
 41152  1  0
 45153  1  0
 49154  1  0
 53155  1  0
 54156  1  0
 57157  1  0
 57158  1  0
 58159  1  0
 58160  1  0
 58161  1  0
 61162  1  0
 66163  1  0
 67164  1  0
 70165  1  0
 70166  1  0
 71167  1  0
 71168  1  0
 71169  1  0
 73170  1  0
 77171  1  0
 82172  1  0
 88173  1  0
 88174  1  0
 88175  1  0
 90176  1  0
 92177  1  0
 92178  1  0
 92179  1  0
 93180  1  0
 94181  1  0
 97182  1  0
103183  1  0
103184  1  0
103185  1  0
105186  1  0
107187  1  0
107188  1  0
107189  1  0
108190  1  0
109191  1  0
112192  1  0
118193  1  0
118194  1  0
118195  1  0
120196  1  0
122197  1  0
122198  1  0
122199  1  0
123200  1  0
124201  1  0
124202  1  0
M  END

