
     RDKit          3D

227247  0  0  0  0  0  0  0  0999 V2000
    4.6513   -8.6296    4.1932 C   0  0  0  0  0  0  0  0  0  0  0  0
    4.0462   -7.3772    4.1829 C   0  0  0  0  0  0  0  0  0  0  0  0
    2.6436   -7.4436    4.2317 C   0  0  0  0  0  0  0  0  0  0  0  0
    1.7564   -6.3495    4.2307 C   0  0  0  0  0  0  0  0  0  0  0  0
    2.2377   -4.9538    4.2234 C   0  0  0  0  0  0  0  0  0  0  0  0
    2.1001   -4.1624    3.0735 C   0  0  0  0  0  0  0  0  0  0  0  0
    2.5297   -2.8306    3.0814 C   0  0  0  0  0  0  0  0  0  0  0  0
    3.0844   -2.2742    4.2418 C   0  0  0  0  0  0  0  0  0  0  0  0
    3.5515   -0.5377    4.2613 S   0  0  0  0  0  0  0  0  0  0  0  0
    5.3157   -0.8615    3.9372 C   0  0  0  0  0  0  0  0  0  0  0  0
    6.0486    0.4474    3.6848 C   0  0  0  0  0  0  0  0  0  0  0  0
    3.2218   -3.0644    5.3926 C   0  0  0  0  0  0  0  0  0  0  0  0
    3.7473   -2.5377    6.5270 F   0  0  0  0  0  0  0  0  0  0  0  0
    2.8063   -4.4014    5.3801 C   0  0  0  0  0  0  0  0  0  0  0  0
    0.3850   -6.6448    4.2697 C   0  0  0  0  0  0  0  0  0  0  0  0
   -0.1142   -7.9511    4.3333 C   0  0  0  0  0  0  0  0  0  0  0  0
    0.7752   -9.0483    4.3316 C   0  0  0  0  0  0  0  0  0  0  0  0
    0.3008  -10.4460    4.3651 C   0  0  0  0  0  0  0  0  0  0  0  0
   -0.3997  -10.9228    5.4817 C   0  0  0  0  0  0  0  0  0  0  0  0
   -0.8230  -12.2557    5.5297 C   0  0  0  0  0  0  0  0  0  0  0  0
   -0.5500  -13.1205    4.4627 C   0  0  0  0  0  0  0  0  0  0  0  0
   -1.0571  -14.8417    4.5548 S   0  0  0  0  0  0  0  0  0  0  0  0
   -2.7708  -14.5516    3.9936 C   0  0  0  0  0  0  0  0  0  0  0  0
   -2.8412  -14.3874    2.4819 C   0  0  0  0  0  0  0  0  0  0  0  0
    0.1536  -12.6478    3.3463 C   0  0  0  0  0  0  0  0  0  0  0  0
    0.5772  -11.3162    3.2989 C   0  0  0  0  0  0  0  0  0  0  0  0
    0.4405  -13.4783    2.3111 F   0  0  0  0  0  0  0  0  0  0  0  0
    2.1519   -8.7508    4.2712 C   0  0  0  0  0  0  0  0  0  0  0  0
    3.4556   -9.8168    4.2607 S   0  0  0  0  0  0  0  0  0  0  0  0
   -1.5222   -8.0050    4.3808 C   0  0  0  0  0  0  0  0  0  0  0  0
   -2.1041   -6.7415    4.3321 C   0  0  0  0  0  0  0  0  0  0  0  0
   -0.8948   -5.5647    4.2573 S   0  0  0  0  0  0  0  0  0  0  0  0
   -3.5384   -6.4201    4.3940 C   0  0  0  0  0  0  0  0  0  0  0  0
   -4.4183   -6.6105    5.8116 S   0  0  0  0  0  0  0  0  0  0  0  0
   -5.4817   -5.3301    5.5815 C   0  0  0  0  0  0  0  0  0  0  0  0
   -5.1274   -4.6829    4.4034 C   0  0  0  0  0  0  0  0  0  0  0  0
   -4.1122   -5.3620    3.6793 C   0  0  0  0  0  0  0  0  0  0  0  0
   -3.6369   -4.9159    2.3482 C   0  0  0  0  0  0  0  0  0  0  0  0
   -3.7961   -3.3138    2.0910 S   0  0  0  0  0  4  0  0  0  0  0  0
   -3.0522   -2.4896    0.7507 O   0  0  0  0  0  0  0  0  0  0  0  0
   -2.2981   -1.4376    1.2825 C   0  0  0  0  0  0  0  0  0  0  0  0
   -4.9902   -2.5244    3.1765 C   0  0  0  0  0  0  0  0  0  0  0  0
   -5.5823   -3.2935    4.1112 C   0  0  0  0  0  0  0  0  0  0  0  0
   -5.2867   -1.1685    2.9994 O   0  0  0  0  0  0  0  0  0  0  0  0
   -5.9605   -0.3618    3.9633 C   0  0  0  0  0  0  0  0  0  0  0  0
   -3.0851   -5.9072    1.3799 C   0  0  0  0  0  0  0  0  0  0  0  0
   -3.2068   -5.9433    0.0415 C   0  0  0  0  0  0  0  0  0  0  0  0
   -3.7962   -4.9297   -0.8456 C   0  0  0  0  0  0  0  0  0  0  0  0
   -4.9524   -4.1686   -0.6654 C   0  0  0  0  0  0  0  0  0  0  0  0
   -5.0357   -3.0972   -1.5759 C   0  0  0  0  0  0  0  0  0  0  0  0
   -5.9218   -1.9998   -1.4900 C   0  0  0  0  0  0  0  0  0  0  0  0
   -7.0542   -1.9874   -0.5317 C   0  0  0  0  0  0  0  0  0  0  0  0
   -8.0232   -3.0027   -0.5939 C   0  0  0  0  0  0  0  0  0  0  0  0
   -9.1124   -2.9966    0.2779 C   0  0  0  0  0  0  0  0  0  0  0  0
   -9.2567   -1.9664    1.2184 C   0  0  0  0  0  0  0  0  0  0  0  0
  -10.6712   -1.9535    2.3279 S   0  0  0  0  0  0  0  0  0  0  0  0
   -9.8375   -2.8757    3.6684 C   0  0  0  0  0  0  0  0  0  0  0  0
   -9.9454   -4.3800    3.4488 C   0  0  0  0  0  0  0  0  0  0  0  0
   -8.3036   -0.9404    1.2749 C   0  0  0  0  0  0  0  0  0  0  0  0
   -8.4564    0.0886    2.1455 F   0  0  0  0  0  0  0  0  0  0  0  0
   -7.1962   -0.9640    0.4193 C   0  0  0  0  0  0  0  0  0  0  0  0
   -5.6370   -0.8920   -2.3183 C   0  0  0  0  0  0  0  0  0  0  0  0
   -4.5953   -0.9026   -3.2497 C   0  0  0  0  0  0  0  0  0  0  0  0
   -3.7646   -2.0311   -3.3982 C   0  0  0  0  0  0  0  0  0  0  0  0
   -2.5990   -2.0204   -4.3227 C   0  0  0  0  0  0  0  0  0  0  0  0
   -2.7980   -1.8333   -5.7014 C   0  0  0  0  0  0  0  0  0  0  0  0
   -1.7009   -1.7478   -6.5668 C   0  0  0  0  0  0  0  0  0  0  0  0
   -0.3999   -1.8553   -6.0677 C   0  0  0  0  0  0  0  0  0  0  0  0
    1.0032   -1.6737   -7.1771 S   0  0  0  0  0  0  0  0  0  0  0  0
    1.0856   -3.4313   -7.6785 C   0  0  0  0  0  0  0  0  0  0  0  0
    0.7914   -3.5531   -9.1663 C   0  0  0  0  0  0  0  0  0  0  0  0
   -0.1950   -2.0540   -4.6952 C   0  0  0  0  0  0  0  0  0  0  0  0
   -1.2903   -2.1279   -3.8276 C   0  0  0  0  0  0  0  0  0  0  0  0
    1.0568   -2.1923   -4.2033 F   0  0  0  0  0  0  0  0  0  0  0  0
   -3.9939   -3.0954   -2.5123 C   0  0  0  0  0  0  0  0  0  0  0  0
   -2.9784   -4.3943   -2.2096 S   0  0  0  0  0  0  0  0  0  0  0  0
   -4.3337    0.3529   -3.8095 C   0  0  0  0  0  0  0  0  0  0  0  0
   -5.1147    1.3810   -3.2817 C   0  0  0  0  0  0  0  0  0  0  0  0
   -6.1988    0.6934   -2.1787 S   0  0  0  0  0  0  0  0  0  0  0  0
   -4.6235    2.7711   -3.2062 C   0  0  0  0  0  0  0  0  0  0  0  0
   -3.5139    3.2073   -3.9305 C   0  0  0  0  0  0  0  0  0  0  0  0
   -2.7551    4.1783   -3.2673 C   0  0  0  0  0  0  0  0  0  0  0  0
   -1.4264    4.5066   -3.5839 C   0  0  0  0  0  0  0  0  0  0  0  0
   -0.7335    3.9189   -4.7502 C   0  0  0  0  0  0  0  0  0  0  0  0
    0.2721    2.9579   -4.5630 C   0  0  0  0  0  0  0  0  0  0  0  0
    0.9434    2.4183   -5.6617 C   0  0  0  0  0  0  0  0  0  0  0  0
    0.6173    2.8323   -6.9596 C   0  0  0  0  0  0  0  0  0  0  0  0
    1.5331    2.1694   -8.3591 S   0  0  0  0  0  0  0  0  0  0  0  0
    2.9050    3.3757   -8.2378 C   0  0  0  0  0  0  0  0  0  0  0  0
    2.6072    4.6214   -9.0610 C   0  0  0  0  0  0  0  0  0  0  0  0
   -0.4136    3.7624   -7.1537 C   0  0  0  0  0  0  0  0  0  0  0  0
   -0.7663    4.1429   -8.4076 F   0  0  0  0  0  0  0  0  0  0  0  0
   -1.0882    4.3040   -6.0526 C   0  0  0  0  0  0  0  0  0  0  0  0
   -0.7237    5.2686   -2.6453 C   0  0  0  0  0  0  0  0  0  0  0  0
   -1.2859    5.7366   -1.4593 C   0  0  0  0  0  0  0  0  0  0  0  0
   -2.6302    5.4199   -1.1458 C   0  0  0  0  0  0  0  0  0  0  0  0
   -3.2457    5.7754    0.1501 C   0  0  0  0  0  0  0  0  0  0  0  0
   -2.7351    5.2586    1.3504 C   0  0  0  0  0  0  0  0  0  0  0  0
   -3.3623    5.5542    2.5665 C   0  0  0  0  0  0  0  0  0  0  0  0
   -4.5150    6.3485    2.5881 C   0  0  0  0  0  0  0  0  0  0  0  0
   -5.3619    6.6605    4.1424 S   0  0  0  0  0  0  0  0  0  0  0  0
   -6.2672    5.0676    4.1705 C   0  0  0  0  0  0  0  0  0  0  0  0
   -7.3754    5.0126    3.1242 C   0  0  0  0  0  0  0  0  0  0  0  0
   -5.0046    6.8939    1.3941 C   0  0  0  0  0  0  0  0  0  0  0  0
   -4.3806    6.5991    0.1804 C   0  0  0  0  0  0  0  0  0  0  0  0
   -6.1006    7.6915    1.4054 F   0  0  0  0  0  0  0  0  0  0  0  0
   -3.3285    4.6130   -2.0696 C   0  0  0  0  0  0  0  0  0  0  0  0
   -4.7265    3.7105   -1.8018 S   0  0  0  0  0  0  0  0  0  0  0  0
   -0.3540    6.4052   -0.6336 C   0  0  0  0  0  0  0  0  0  0  0  0
    0.9489    6.4178   -1.1561 C   0  0  0  0  0  0  0  0  0  0  0  0
    0.9077    5.6107   -2.6367 S   0  0  0  0  0  0  0  0  0  0  0  0
    2.1747    6.7712   -0.3854 C   0  0  0  0  0  0  0  0  0  0  0  0
    2.0925    7.3273    1.2040 S   0  0  0  0  0  0  0  0  0  0  0  0
    3.6234    6.8589    1.6960 C   0  0  0  0  0  0  0  0  0  0  0  0
    4.2301    6.2095    0.6304 C   0  0  0  0  0  0  0  0  0  0  0  0
    3.4809    6.2689   -0.5783 C   0  0  0  0  0  0  0  0  0  0  0  0
    4.0204    5.7184   -1.8466 C   0  0  0  0  0  0  0  0  0  0  0  0
    5.0053    4.4363   -1.6451 S   0  0  0  0  0  4  0  0  0  0  0  0
    5.4695    3.3783   -2.9448 O   0  0  0  0  0  0  0  0  0  0  0  0
    4.3067    2.7119   -3.3622 C   0  0  0  0  0  0  0  0  0  0  0  0
    5.8147    4.4195   -0.0421 C   0  0  0  0  0  0  0  0  0  0  0  0
    5.4151    5.3305    0.8512 C   0  0  0  0  0  0  0  0  0  0  0  0
    6.8553    3.5439    0.2769 O   0  0  0  0  0  0  0  0  0  0  0  0
    7.3346    2.5377   -0.6087 C   0  0  0  0  0  0  0  0  0  0  0  0
    3.8340    6.4515   -3.1343 C   0  0  0  0  0  0  0  0  0  0  0  0
    4.6267    6.4726   -4.2201 C   0  0  0  0  0  0  0  0  0  0  0  0
    5.9457    5.8418   -4.3806 C   0  0  0  0  0  0  0  0  0  0  0  0
    6.2763    4.8261   -5.6730 S   0  0  0  0  0  0  0  0  0  0  0  0
    7.8433    4.4370   -5.2332 C   0  0  0  0  0  0  0  0  0  0  0  0
    8.1588    5.1198   -4.0630 C   0  0  0  0  0  0  0  0  0  0  0  0
    7.1134    5.9754   -3.6009 C   0  0  0  0  0  0  0  0  0  0  0  0
    7.2695    6.8417   -2.3931 C   0  0  0  0  0  0  0  0  0  0  0  0
    8.5756    6.5529   -1.4733 S   0  0  0  0  0  4  0  0  0  0  0  0
    8.9232    7.4918   -0.0488 O   0  0  0  0  0  0  0  0  0  0  0  0
    9.0662    6.5837    1.0081 C   0  0  0  0  0  0  0  0  0  0  0  0
    9.7747    5.4496   -2.1970 C   0  0  0  0  0  0  0  0  0  0  0  0
    9.4639    4.8918   -3.3783 C   0  0  0  0  0  0  0  0  0  0  0  0
   10.9956    5.2438   -1.5386 O   0  0  0  0  0  0  0  0  0  0  0  0
   12.0967    4.5229   -2.0780 C   0  0  0  0  0  0  0  0  0  0  0  0
    6.4153    7.9901   -2.0467 C   0  0  0  0  0  0  0  0  0  0  0  0
    6.0182    8.8797   -2.9522 C   0  0  0  0  0  0  0  0  0  0  0  0
    5.7162   -8.8082    4.1571 H   0  0  0  0  0  0  0  0  0  0  0  0
    4.6047   -6.4496    4.1358 H   0  0  0  0  0  0  0  0  0  0  0  0
    1.6606   -4.5787    2.1736 H   0  0  0  0  0  0  0  0  0  0  0  0
    2.4155   -2.2290    2.1879 H   0  0  0  0  0  0  0  0  0  0  0  0
    5.7612   -1.3640    4.8212 H   0  0  0  0  0  0  0  0  0  0  0  0
    5.4248   -1.5213    3.0509 H   0  0  0  0  0  0  0  0  0  0  0  0
    7.1311    0.2435    3.5320 H   0  0  0  0  0  0  0  0  0  0  0  0
    5.9365    1.1224    4.5595 H   0  0  0  0  0  0  0  0  0  0  0  0
    5.6433    0.9453    2.7794 H   0  0  0  0  0  0  0  0  0  0  0  0
    2.9096   -4.9996    6.2787 H   0  0  0  0  0  0  0  0  0  0  0  0
   -0.6098  -10.2675    6.3176 H   0  0  0  0  0  0  0  0  0  0  0  0
   -1.3583  -12.6156    6.3996 H   0  0  0  0  0  0  0  0  0  0  0  0
   -3.3774  -15.4339    4.2835 H   0  0  0  0  0  0  0  0  0  0  0  0
   -3.2018  -13.6613    4.4955 H   0  0  0  0  0  0  0  0  0  0  0  0
   -2.3693  -15.2557    1.9775 H   0  0  0  0  0  0  0  0  0  0  0  0
   -3.9035  -14.3250    2.1669 H   0  0  0  0  0  0  0  0  0  0  0  0
   -2.3288  -13.4573    2.1661 H   0  0  0  0  0  0  0  0  0  0  0  0
    1.1206  -10.9609    2.4315 H   0  0  0  0  0  0  0  0  0  0  0  0
   -2.0965   -8.9204    4.4294 H   0  0  0  0  0  0  0  0  0  0  0  0
   -6.2050   -4.9818    6.3050 H   0  0  0  0  0  0  0  0  0  0  0  0
   -1.5479   -1.8173    2.0098 H   0  0  0  0  0  0  0  0  0  0  0  0
   -1.7521   -0.9375    0.4563 H   0  0  0  0  0  0  0  0  0  0  0  0
   -2.9613   -0.6844    1.7568 H   0  0  0  0  0  0  0  0  0  0  0  0
   -6.3373   -2.8714    4.7596 H   0  0  0  0  0  0  0  0  0  0  0  0
   -6.9802   -0.7558    4.1619 H   0  0  0  0  0  0  0  0  0  0  0  0
   -6.0610    0.6686    3.5624 H   0  0  0  0  0  0  0  0  0  0  0  0
   -5.3734   -0.3276    4.9053 H   0  0  0  0  0  0  0  0  0  0  0  0
   -2.6179   -6.7836    1.8098 H   0  0  0  0  0  0  0  0  0  0  0  0
   -2.7165   -6.7653   -0.4607 H   0  0  0  0  0  0  0  0  0  0  0  0
   -5.6359   -4.3148    0.1619 H   0  0  0  0  0  0  0  0  0  0  0  0
   -7.9381   -3.7960   -1.3266 H   0  0  0  0  0  0  0  0  0  0  0  0
   -9.8519   -3.7858    0.2213 H   0  0  0  0  0  0  0  0  0  0  0  0
  -10.3380   -2.6168    4.6232 H   0  0  0  0  0  0  0  0  0  0  0  0
   -8.7702   -2.5799    3.7534 H   0  0  0  0  0  0  0  0  0  0  0  0
   -9.5474   -4.9169    4.3357 H   0  0  0  0  0  0  0  0  0  0  0  0
  -11.0075   -4.6713    3.3015 H   0  0  0  0  0  0  0  0  0  0  0  0
   -9.3574   -4.6863    2.5592 H   0  0  0  0  0  0  0  0  0  0  0  0
   -6.4515   -0.1832    0.5052 H   0  0  0  0  0  0  0  0  0  0  0  0
   -3.8017   -1.7388   -6.1003 H   0  0  0  0  0  0  0  0  0  0  0  0
   -1.8673   -1.5902   -7.6244 H   0  0  0  0  0  0  0  0  0  0  0  0
    0.3733   -4.0634   -7.1071 H   0  0  0  0  0  0  0  0  0  0  0  0
    2.1131   -3.8029   -7.4812 H   0  0  0  0  0  0  0  0  0  0  0  0
    0.8597   -4.6175   -9.4823 H   0  0  0  0  0  0  0  0  0  0  0  0
   -0.2330   -3.1832   -9.3819 H   0  0  0  0  0  0  0  0  0  0  0  0
    1.5293   -2.9601   -9.7514 H   0  0  0  0  0  0  0  0  0  0  0  0
   -1.1099   -2.2447   -2.7660 H   0  0  0  0  0  0  0  0  0  0  0  0
   -3.4758    0.5287   -4.4401 H   0  0  0  0  0  0  0  0  0  0  0  0
   -3.1603    2.7081   -4.8242 H   0  0  0  0  0  0  0  0  0  0  0  0
    0.5373    2.6333   -3.5623 H   0  0  0  0  0  0  0  0  0  0  0  0
    1.7254    1.6863   -5.5010 H   0  0  0  0  0  0  0  0  0  0  0  0
    3.8238    2.8957   -8.6317 H   0  0  0  0  0  0  0  0  0  0  0  0
    3.0965    3.6623   -7.1835 H   0  0  0  0  0  0  0  0  0  0  0  0
    3.4753    5.3151   -9.0151 H   0  0  0  0  0  0  0  0  0  0  0  0
    1.7165    5.1453   -8.6582 H   0  0  0  0  0  0  0  0  0  0  0  0
    2.4250    4.3512  -10.1215 H   0  0  0  0  0  0  0  0  0  0  0  0
   -1.8739    5.0337   -6.2143 H   0  0  0  0  0  0  0  0  0  0  0  0
   -1.8637    4.6099    1.3421 H   0  0  0  0  0  0  0  0  0  0  0  0
   -2.9632    5.1391    3.4849 H   0  0  0  0  0  0  0  0  0  0  0  0
   -6.7241    4.9483    5.1737 H   0  0  0  0  0  0  0  0  0  0  0  0
   -5.5671    4.2213    4.0142 H   0  0  0  0  0  0  0  0  0  0  0  0
   -6.9480    5.0176    2.0973 H   0  0  0  0  0  0  0  0  0  0  0  0
   -8.0757    5.8685    3.2424 H   0  0  0  0  0  0  0  0  0  0  0  0
   -7.9426    4.0623    3.2515 H   0  0  0  0  0  0  0  0  0  0  0  0
   -4.7838    7.0057   -0.7395 H   0  0  0  0  0  0  0  0  0  0  0  0
   -0.6098    6.7958    0.3409 H   0  0  0  0  0  0  0  0  0  0  0  0
    4.0007    6.9202    2.7071 H   0  0  0  0  0  0  0  0  0  0  0  0
    4.5713    2.0022   -4.1756 H   0  0  0  0  0  0  0  0  0  0  0  0
    3.8679    2.1239   -2.5275 H   0  0  0  0  0  0  0  0  0  0  0  0
    3.5612    3.4308   -3.7675 H   0  0  0  0  0  0  0  0  0  0  0  0
    5.8993    5.3560    1.8181 H   0  0  0  0  0  0  0  0  0  0  0  0
    8.1309    1.9582   -0.1012 H   0  0  0  0  0  0  0  0  0  0  0  0
    6.5077    1.8492   -0.8812 H   0  0  0  0  0  0  0  0  0  0  0  0
    7.7574    3.0031   -1.5243 H   0  0  0  0  0  0  0  0  0  0  0  0
    3.0014    7.1440   -3.1743 H   0  0  0  0  0  0  0  0  0  0  0  0
    4.2654    7.0247   -5.0759 H   0  0  0  0  0  0  0  0  0  0  0  0
    8.4910    3.7541   -5.7651 H   0  0  0  0  0  0  0  0  0  0  0  0
    9.2303    7.1511    1.9484 H   0  0  0  0  0  0  0  0  0  0  0  0
    8.1474    5.9779    1.1396 H   0  0  0  0  0  0  0  0  0  0  0  0
    9.9420    5.9221    0.8456 H   0  0  0  0  0  0  0  0  0  0  0  0
   10.1680    4.2297   -3.8614 H   0  0  0  0  0  0  0  0  0  0  0  0
   12.9470    4.5873   -1.3727 H   0  0  0  0  0  0  0  0  0  0  0  0
   11.8235    3.4554   -2.2117 H   0  0  0  0  0  0  0  0  0  0  0  0
   12.4011    4.9686   -3.0524 H   0  0  0  0  0  0  0  0  0  0  0  0
    6.1913    8.1769   -1.0056 H   0  0  0  0  0  0  0  0  0  0  0  0
    6.2869    8.7779   -3.9984 H   0  0  0  0  0  0  0  0  0  0  0  0
    5.4195    9.7279   -2.6463 H   0  0  0  0  0  0  0  0  0  0  0  0
  1  2  2  0
  2  3  1  0
  3  4  2  0
  4  5  1  0
  5  6  2  0
  6  7  1  0
  7  8  2  0
  8  9  1  0
  9 10  1  0
 10 11  1  0
  8 12  1  0
 12 13  1  0
 12 14  2  0
  4 15  1  0
 15 16  2  0
 16 17  1  0
 17 18  1  0
 18 19  2  0
 19 20  1  0
 20 21  2  0
 21 22  1  0
 22 23  1  0
 23 24  1  0
 21 25  1  0
 25 26  2  0
 25 27  1  0
 17 28  2  0
 28 29  1  0
 16 30  1  0
 30 31  2  0
 31 32  1  0
 31 33  1  0
 33 34  1  0
 34 35  1  0
 35 36  2  0
 36 37  1  0
 37 38  1  0
 38 39  2  0
 39 40  1  0
 40 41  1  0
 39 42  1  0
 42 43  2  0
 42 44  1  0
 44 45  1  0
 38 46  1  0
 46 47  2  3
 47 48  1  0
 48 49  2  0
 49 50  1  0
 50 51  2  0
 51 52  1  0
 52 53  2  0
 53 54  1  0
 54 55  2  0
 55 56  1  0
 56 57  1  0
 57 58  1  0
 55 59  1  0
 59 60  1  0
 59 61  2  0
 51 62  1  0
 62 63  2  0
 63 64  1  0
 64 65  1  0
 65 66  2  0
 66 67  1  0
 67 68  2  0
 68 69  1  0
 69 70  1  0
 70 71  1  0
 68 72  1  0
 72 73  2  0
 72 74  1  0
 64 75  2  0
 75 76  1  0
 63 77  1  0
 77 78  2  0
 78 79  1  0
 78 80  1  0
 80 81  2  0
 81 82  1  0
 82 83  2  0
 83 84  1  0
 84 85  2  0
 85 86  1  0
 86 87  2  0
 87 88  1  0
 88 89  1  0
 89 90  1  0
 87 91  1  0
 91 92  1  0
 91 93  2  0
 83 94  1  0
 94 95  2  0
 95 96  1  0
 96 97  1  0
 97 98  2  0
 98 99  1  0
 99100  2  0
100101  1  0
101102  1  0
102103  1  0
100104  1  0
104105  2  0
104106  1  0
 96107  2  0
107108  1  0
 95109  1  0
109110  2  0
110111  1  0
110112  1  0
112113  1  0
113114  1  0
114115  2  0
115116  1  0
116117  1  0
117118  2  0
118119  1  0
119120  1  0
118121  1  0
121122  2  0
121123  1  0
123124  1  0
117125  1  0
125126  2  3
126127  1  0
127128  1  0
128129  1  0
129130  2  0
130131  1  0
131132  1  0
132133  2  0
133134  1  0
134135  1  0
133136  1  0
136137  2  0
136138  1  0
138139  1  0
132140  1  0
140141  2  3
 29  1  1  0
 37 33  2  0
 76 48  1  0
108 80  1  0
116112  2  0
131127  2  0
 28  3  1  0
 43 36  1  0
 75 50  1  0
107 82  1  0
122115  1  0
137130  1  0
 14  5  1  0
 32 15  1  0
 61 52  1  0
 79 62  1  0
 93 84  1  0
111 94  1  0
 26 18  1  0
 73 65  1  0
105 97  1  0
  1142  1  0
  2143  1  0
  6144  1  0
  7145  1  0
 10146  1  0
 10147  1  0
 11148  1  0
 11149  1  0
 11150  1  0
 14151  1  0
 19152  1  0
 20153  1  0
 23154  1  0
 23155  1  0
 24156  1  0
 24157  1  0
 24158  1  0
 26159  1  0
 30160  1  0
 35161  1  0
 41162  1  0
 41163  1  0
 41164  1  0
 43165  1  0
 45166  1  0
 45167  1  0
 45168  1  0
 46169  1  0
 47170  1  0
 49171  1  0
 53172  1  0
 54173  1  0
 57174  1  0
 57175  1  0
 58176  1  0
 58177  1  0
 58178  1  0
 61179  1  0
 66180  1  0
 67181  1  0
 70182  1  0
 70183  1  0
 71184  1  0
 71185  1  0
 71186  1  0
 73187  1  0
 77188  1  0
 81189  1  0
 85190  1  0
 86191  1  0
 89192  1  0
 89193  1  0
 90194  1  0
 90195  1  0
 90196  1  0
 93197  1  0
 98198  1  0
 99199  1  0
102200  1  0
102201  1  0
103202  1  0
103203  1  0
103204  1  0
105205  1  0
109206  1  0
114207  1  0
120208  1  0
120209  1  0
120210  1  0
122211  1  0
124212  1  0
124213  1  0
124214  1  0
125215  1  0
126216  1  0
129217  1  0
135218  1  0
135219  1  0
135220  1  0
137221  1  0
139222  1  0
139223  1  0
139224  1  0
140225  1  0
141226  1  0
141227  1  0
M  END

