
     RDKit          3D

 87 93  0  0  0  0  0  0  0  0999 V2000
    1.3680   -4.6726    3.8787 C   0  0  0  0  0  0  0  0  0  0  0  0
    0.5139   -4.2874    5.2662 S   0  0  0  0  0  0  0  0  0  0  0  0
    1.5266   -3.0507    5.7933 C   0  0  0  0  0  0  0  0  0  0  0  0
    2.6029   -2.9417    4.8966 C   0  0  0  0  0  0  0  0  0  0  0  0
    2.4848   -3.8512    3.8228 C   0  0  0  0  0  0  0  0  0  0  0  0
    3.7985   -2.0648    5.0301 C   0  0  0  0  0  0  0  0  0  0  0  0
    4.7237   -2.1676    4.1730 O   0  0  0  0  0  0  0  0  0  0  0  0
    3.9830   -1.0751    6.1413 C   0  0  0  0  0  0  0  0  0  0  0  0
    1.2728   -2.3103    7.0375 C   0  0  0  0  0  0  0  0  0  0  0  0
    1.4111   -3.0344    8.5468 S   0  0  0  0  0  0  0  0  0  0  0  0
    0.8969   -1.7253    9.4509 C   0  0  0  0  0  0  0  0  0  0  0  0
    0.5760   -0.6867    8.5835 C   0  0  0  0  0  0  0  0  0  0  0  0
    0.7660   -1.0096    7.2034 C   0  0  0  0  0  0  0  0  0  0  0  0
    0.4761   -0.0309    6.1123 C   0  0  0  0  0  0  0  0  0  0  0  0
    0.0345    1.4651    6.5726 S   0  0  0  0  0  4  0  0  0  0  0  0
   -0.4148    2.6816    5.4161 O   0  0  0  0  0  0  0  0  0  0  0  0
   -1.6986    2.3614    4.9515 C   0  0  0  0  0  0  0  0  0  0  0  0
   -0.1806    1.6701    8.3437 C   0  0  0  0  0  0  0  0  0  0  0  0
    0.0872    0.6149    9.1192 C   0  0  0  0  0  0  0  0  0  0  0  0
   -0.6126    2.8670    8.9285 O   0  0  0  0  0  0  0  0  0  0  0  0
   -0.7903    4.0758    8.2086 C   0  0  0  0  0  0  0  0  0  0  0  0
    0.6021   -0.3001    4.6749 C   0  0  0  0  0  0  0  0  0  0  0  0
   -0.1825   -1.1842    4.0591 C   0  0  0  0  0  0  0  0  0  0  0  0
   -0.1314   -1.3927    2.6035 C   0  0  0  0  0  0  0  0  0  0  0  0
    0.5599   -0.3599    1.4731 S   0  0  0  0  0  0  0  0  0  0  0  0
    0.1621   -1.2648    0.1107 C   0  0  0  0  0  0  0  0  0  0  0  0
   -0.5127   -2.4191    0.5393 C   0  0  0  0  0  0  0  0  0  0  0  0
   -0.6935   -2.4688    1.9321 C   0  0  0  0  0  0  0  0  0  0  0  0
   -0.9687   -3.5227   -0.3257 C   0  0  0  0  0  0  0  0  0  0  0  0
   -2.1341   -3.9731   -0.1817 O   0  0  0  0  0  0  0  0  0  0  0  0
   -0.0505   -4.1756   -1.3156 C   0  0  0  0  0  0  0  0  0  0  0  0
    0.3420   -0.7642   -1.2669 C   0  0  0  0  0  0  0  0  0  0  0  0
   -0.5751   -1.1954   -2.6086 S   0  0  0  0  0  0  0  0  0  0  0  0
    0.0817   -0.0657   -3.6674 C   0  0  0  0  0  0  0  0  0  0  0  0
    1.0411    0.6891   -2.9728 C   0  0  0  0  0  0  0  0  0  0  0  0
    1.1688    0.2967   -1.6269 C   0  0  0  0  0  0  0  0  0  0  0  0
    1.8843    1.7527   -3.5707 C   0  0  0  0  0  0  0  0  0  0  0  0
    2.1245    1.7490   -4.8090 O   0  0  0  0  0  0  0  0  0  0  0  0
    2.5041    2.8152   -2.7159 C   0  0  0  0  0  0  0  0  0  0  0  0
   -0.4170    0.1437   -5.0348 C   0  0  0  0  0  0  0  0  0  0  0  0
   -0.9310   -1.0728   -6.0701 S   0  0  0  0  0  0  0  0  0  0  0  0
   -1.4744   -0.0623   -7.3045 C   0  0  0  0  0  0  0  0  0  0  0  0
   -1.2980    1.2696   -6.8879 C   0  0  0  0  0  0  0  0  0  0  0  0
   -0.6989    1.3713   -5.6196 C   0  0  0  0  0  0  0  0  0  0  0  0
   -1.7900    2.4666   -7.6026 C   0  0  0  0  0  0  0  0  0  0  0  0
   -2.8531    2.4081   -8.2778 O   0  0  0  0  0  0  0  0  0  0  0  0
   -1.1024    3.7878   -7.4551 C   0  0  0  0  0  0  0  0  0  0  0  0
   -1.9706   -0.5690   -8.6012 C   0  0  0  0  0  0  0  0  0  0  0  0
   -1.9041    0.2310  -10.0802 S   0  0  0  0  0  0  0  0  0  0  0  0
   -2.5251   -1.0212  -11.0130 C   0  0  0  0  0  0  0  0  0  0  0  0
   -2.7571   -2.1120  -10.1807 C   0  0  0  0  0  0  0  0  0  0  0  0
   -2.4425   -1.8581   -8.8318 C   0  0  0  0  0  0  0  0  0  0  0  0
   -3.2765   -3.4051  -10.6781 C   0  0  0  0  0  0  0  0  0  0  0  0
   -3.6063   -3.5238  -11.8901 O   0  0  0  0  0  0  0  0  0  0  0  0
   -3.4272   -4.5847   -9.7638 C   0  0  0  0  0  0  0  0  0  0  0  0
    1.0996   -5.4368    3.1573 H   0  0  0  0  0  0  0  0  0  0  0  0
    3.2064   -3.9267    3.0247 H   0  0  0  0  0  0  0  0  0  0  0  0
    3.2526   -0.2446    6.0430 H   0  0  0  0  0  0  0  0  0  0  0  0
    5.0009   -0.6347    6.0937 H   0  0  0  0  0  0  0  0  0  0  0  0
    3.8814   -1.5733    7.1284 H   0  0  0  0  0  0  0  0  0  0  0  0
    0.8135   -1.7019   10.5339 H   0  0  0  0  0  0  0  0  0  0  0  0
   -1.6955    1.3997    4.3962 H   0  0  0  0  0  0  0  0  0  0  0  0
   -2.4270    2.3192    5.7866 H   0  0  0  0  0  0  0  0  0  0  0  0
   -2.0270    3.1531    4.2497 H   0  0  0  0  0  0  0  0  0  0  0  0
   -0.0359    0.7128   10.1907 H   0  0  0  0  0  0  0  0  0  0  0  0
   -1.0893    4.8799    8.9198 H   0  0  0  0  0  0  0  0  0  0  0  0
    0.1596    4.3750    7.7206 H   0  0  0  0  0  0  0  0  0  0  0  0
   -1.5958    3.9611    7.4583 H   0  0  0  0  0  0  0  0  0  0  0  0
    1.2554    0.3440    4.1020 H   0  0  0  0  0  0  0  0  0  0  0  0
   -0.8764   -1.7777    4.6437 H   0  0  0  0  0  0  0  0  0  0  0  0
   -1.1957   -3.2826    2.4396 H   0  0  0  0  0  0  0  0  0  0  0  0
   -0.5379   -4.2173   -2.3145 H   0  0  0  0  0  0  0  0  0  0  0  0
    0.1666   -5.2166   -0.9825 H   0  0  0  0  0  0  0  0  0  0  0  0
    0.9143   -3.6235   -1.3968 H   0  0  0  0  0  0  0  0  0  0  0  0
    1.8513    0.7708   -0.9313 H   0  0  0  0  0  0  0  0  0  0  0  0
    3.3626    2.3909   -2.1551 H   0  0  0  0  0  0  0  0  0  0  0  0
    2.8710    3.6587   -3.3437 H   0  0  0  0  0  0  0  0  0  0  0  0
    1.7495    3.2057   -1.9989 H   0  0  0  0  0  0  0  0  0  0  0  0
   -0.5336    2.3154   -5.1128 H   0  0  0  0  0  0  0  0  0  0  0  0
   -0.0007    3.6411   -7.4139 H   0  0  0  0  0  0  0  0  0  0  0  0
   -1.3430    4.4407   -8.3204 H   0  0  0  0  0  0  0  0  0  0  0  0
   -1.4443    4.2808   -6.5197 H   0  0  0  0  0  0  0  0  0  0  0  0
   -2.6845   -0.9907  -12.0830 H   0  0  0  0  0  0  0  0  0  0  0  0
   -2.5639   -2.5880   -8.0378 H   0  0  0  0  0  0  0  0  0  0  0  0
   -2.4558   -4.7985   -9.2688 H   0  0  0  0  0  0  0  0  0  0  0  0
   -3.7274   -5.4880  -10.3359 H   0  0  0  0  0  0  0  0  0  0  0  0
   -4.2028   -4.3738   -8.9955 H   0  0  0  0  0  0  0  0  0  0  0  0
  1  2  1  0
  2  3  1  0
  3  4  2  0
  4  5  1  0
  4  6  1  0
  6  7  2  0
  6  8  1  0
  3  9  1  0
  9 10  1  0
 10 11  1  0
 11 12  2  0
 12 13  1  0
 13 14  1  0
 14 15  2  0
 15 16  1  0
 16 17  1  0
 15 18  1  0
 18 19  2  0
 18 20  1  0
 20 21  1  0
 14 22  1  0
 22 23  2  3
 23 24  1  0
 24 25  1  0
 25 26  1  0
 26 27  2  0
 27 28  1  0
 27 29  1  0
 29 30  2  0
 29 31  1  0
 26 32  1  0
 32 33  1  0
 33 34  1  0
 34 35  2  0
 35 36  1  0
 35 37  1  0
 37 38  2  0
 37 39  1  0
 34 40  1  0
 40 41  1  0
 41 42  1  0
 42 43  2  0
 43 44  1  0
 43 45  1  0
 45 46  2  0
 45 47  1  0
 42 48  1  0
 48 49  1  0
 49 50  1  0
 50 51  2  0
 51 52  1  0
 51 53  1  0
 53 54  2  0
 53 55  1  0
  5  1  2  0
 13  9  2  0
 28 24  2  0
 36 32  2  0
 44 40  2  0
 52 48  2  0
 19 12  1  0
  1 56  1  0
  5 57  1  0
  8 58  1  0
  8 59  1  0
  8 60  1  0
 11 61  1  0
 17 62  1  0
 17 63  1  0
 17 64  1  0
 19 65  1  0
 21 66  1  0
 21 67  1  0
 21 68  1  0
 22 69  1  0
 23 70  1  0
 28 71  1  0
 31 72  1  0
 31 73  1  0
 31 74  1  0
 36 75  1  0
 39 76  1  0
 39 77  1  0
 39 78  1  0
 44 79  1  0
 47 80  1  0
 47 81  1  0
 47 82  1  0
 50 83  1  0
 52 84  1  0
 55 85  1  0
 55 86  1  0
 55 87  1  0
M  END

