
     RDKit          3D

227247  0  0  0  0  0  0  0  0999 V2000
   -2.0450   -1.7276    9.5912 C   0  0  0  0  0  0  0  0  0  0  0  0
   -1.4294   -0.7713    8.7917 C   0  0  0  0  0  0  0  0  0  0  0  0
   -1.1073   -1.2442    7.5060 C   0  0  0  0  0  0  0  0  0  0  0  0
   -0.4666   -0.5176    6.4820 C   0  0  0  0  0  0  0  0  0  0  0  0
    0.0559    0.8501    6.7000 C   0  0  0  0  0  0  0  0  0  0  0  0
    1.4376    1.0812    6.6201 C   0  0  0  0  0  0  0  0  0  0  0  0
    1.9541    2.3504    6.8809 C   0  0  0  0  0  0  0  0  0  0  0  0
    1.0995    3.4033    7.2136 C   0  0  0  0  0  0  0  0  0  0  0  0
    1.7927    5.0107    7.6206 S   0  0  0  0  0  0  0  0  0  0  0  0
    1.9670    5.5241    5.8787 C   0  0  0  0  0  0  0  0  0  0  0  0
    2.6366    6.8887    5.8057 C   0  0  0  0  0  0  0  0  0  0  0  0
   -0.2823    3.1836    7.2808 C   0  0  0  0  0  0  0  0  0  0  0  0
   -1.1251    4.1960    7.6056 F   0  0  0  0  0  0  0  0  0  0  0  0
   -0.8044    1.9093    7.0236 C   0  0  0  0  0  0  0  0  0  0  0  0
   -0.2158   -1.2047    5.2812 C   0  0  0  0  0  0  0  0  0  0  0  0
   -0.5095   -2.5582    5.0999 C   0  0  0  0  0  0  0  0  0  0  0  0
   -1.1648   -3.2867    6.1220 C   0  0  0  0  0  0  0  0  0  0  0  0
   -1.6075   -4.6889    5.9427 C   0  0  0  0  0  0  0  0  0  0  0  0
   -2.9630   -5.0210    6.1135 C   0  0  0  0  0  0  0  0  0  0  0  0
   -3.3946   -6.3403    5.9505 C   0  0  0  0  0  0  0  0  0  0  0  0
   -2.4841   -7.3381    5.5915 C   0  0  0  0  0  0  0  0  0  0  0  0
   -3.0428   -9.0320    5.3753 S   0  0  0  0  0  0  0  0  0  0  0  0
   -3.4783   -8.8536    3.6034 C   0  0  0  0  0  0  0  0  0  0  0  0
   -4.9899   -8.8385    3.4394 C   0  0  0  0  0  0  0  0  0  0  0  0
   -1.1315   -7.0163    5.4192 C   0  0  0  0  0  0  0  0  0  0  0  0
   -0.6926   -5.7014    5.6157 C   0  0  0  0  0  0  0  0  0  0  0  0
   -0.2388   -7.9777    5.0720 F   0  0  0  0  0  0  0  0  0  0  0  0
   -1.4561   -2.5851    7.3108 C   0  0  0  0  0  0  0  0  0  0  0  0
   -2.1720   -3.1676    8.7226 S   0  0  0  0  0  0  0  0  0  0  0  0
   -0.0872   -3.0461    3.8474 C   0  0  0  0  0  0  0  0  0  0  0  0
    0.4600   -2.0650    3.0144 C   0  0  0  0  0  0  0  0  0  0  0  0
    0.4837   -0.6108    3.8781 S   0  0  0  0  0  0  0  0  0  0  0  0
    1.1644   -2.2260    1.7155 C   0  0  0  0  0  0  0  0  0  0  0  0
    2.2093   -1.0190    1.1751 S   0  0  0  0  0  0  0  0  0  0  0  0
    2.9941   -1.8840   -0.0103 C   0  0  0  0  0  0  0  0  0  0  0  0
    2.4716   -3.1690   -0.0147 C   0  0  0  0  0  0  0  0  0  0  0  0
    1.3776   -3.3579    0.8941 C   0  0  0  0  0  0  0  0  0  0  0  0
    0.6127   -4.6429    0.9197 C   0  0  0  0  0  0  0  0  0  0  0  0
    1.2496   -5.8834    0.0910 S   0  0  0  0  0  4  0  0  0  0  0  0
    0.4596   -7.4250   -0.0090 O   0  0  0  0  0  0  0  0  0  0  0  0
    1.1255   -8.2769    0.8820 C   0  0  0  0  0  0  0  0  0  0  0  0
    2.7148   -5.5002   -0.8402 C   0  0  0  0  0  0  0  0  0  0  0  0
    3.1253   -4.2261   -0.8350 C   0  0  0  0  0  0  0  0  0  0  0  0
    3.3487   -6.5178   -1.5651 O   0  0  0  0  0  0  0  0  0  0  0  0
    4.7356   -6.5137   -1.8936 C   0  0  0  0  0  0  0  0  0  0  0  0
   -0.7673   -4.8169    1.3743 C   0  0  0  0  0  0  0  0  0  0  0  0
   -1.7694   -4.0684    0.9188 C   0  0  0  0  0  0  0  0  0  0  0  0
   -3.1554   -4.4539    1.2272 C   0  0  0  0  0  0  0  0  0  0  0  0
   -3.6782   -4.8651    2.7694 S   0  0  0  0  0  0  0  0  0  0  0  0
   -5.1772   -5.4638    2.3354 C   0  0  0  0  0  0  0  0  0  0  0  0
   -5.2862   -5.4047    0.9507 C   0  0  0  0  0  0  0  0  0  0  0  0
   -4.1688   -4.7795    0.3167 C   0  0  0  0  0  0  0  0  0  0  0  0
   -4.0936   -4.5960   -1.1515 C   0  0  0  0  0  0  0  0  0  0  0  0
   -5.2821   -5.2618   -2.0316 S   0  0  0  0  0  4  0  0  0  0  0  0
   -5.2859   -5.1788   -3.7691 O   0  0  0  0  0  0  0  0  0  0  0  0
   -6.5176   -4.6342   -4.1573 C   0  0  0  0  0  0  0  0  0  0  0  0
   -6.5339   -6.1037   -1.0824 C   0  0  0  0  0  0  0  0  0  0  0  0
   -6.4301   -6.0595    0.2547 C   0  0  0  0  0  0  0  0  0  0  0  0
   -7.5672   -6.7646   -1.7584 O   0  0  0  0  0  0  0  0  0  0  0  0
   -8.3088   -7.8559   -1.2210 C   0  0  0  0  0  0  0  0  0  0  0  0
   -3.1110   -3.7503   -1.8269 C   0  0  0  0  0  0  0  0  0  0  0  0
   -3.4712   -2.5466   -2.2857 C   0  0  0  0  0  0  0  0  0  0  0  0
   -2.6181   -1.7920   -3.2170 C   0  0  0  0  0  0  0  0  0  0  0  0
   -0.9376   -1.8118   -3.1773 S   0  0  0  0  0  0  0  0  0  0  0  0
   -0.6856   -1.0834   -4.6633 C   0  0  0  0  0  0  0  0  0  0  0  0
   -1.9233   -0.8371   -5.2480 C   0  0  0  0  0  0  0  0  0  0  0  0
   -3.0293   -1.1691   -4.4089 C   0  0  0  0  0  0  0  0  0  0  0  0
   -4.4466   -0.9499   -4.8367 C   0  0  0  0  0  0  0  0  0  0  0  0
   -4.6765   -0.6279   -6.4123 S   0  0  0  0  0  4  0  0  0  0  0  0
   -6.2461   -0.2375   -7.0518 O   0  0  0  0  0  0  0  0  0  0  0  0
   -6.4664    1.1239   -6.8030 C   0  0  0  0  0  0  0  0  0  0  0  0
   -3.1862   -0.2608   -7.3170 C   0  0  0  0  0  0  0  0  0  0  0  0
   -2.0157   -0.3624   -6.6606 C   0  0  0  0  0  0  0  0  0  0  0  0
   -3.2932    0.1356   -8.6591 O   0  0  0  0  0  0  0  0  0  0  0  0
   -2.1905    0.4644   -9.4962 C   0  0  0  0  0  0  0  0  0  0  0  0
   -5.6107   -0.8294   -3.9347 C   0  0  0  0  0  0  0  0  0  0  0  0
   -5.6758    0.0035   -2.8878 C   0  0  0  0  0  0  0  0  0  0  0  0
   -4.5743    0.8873   -2.4773 C   0  0  0  0  0  0  0  0  0  0  0  0
   -3.9862    0.8666   -1.2164 C   0  0  0  0  0  0  0  0  0  0  0  0
   -2.7984    1.6135   -1.1594 C   0  0  0  0  0  0  0  0  0  0  0  0
   -1.9066    1.6793   -0.0691 C   0  0  0  0  0  0  0  0  0  0  0  0
   -2.2033    1.0073    1.2124 C   0  0  0  0  0  0  0  0  0  0  0  0
   -2.3330   -0.3870    1.2623 C   0  0  0  0  0  0  0  0  0  0  0  0
   -2.7793   -1.0070    2.4302 C   0  0  0  0  0  0  0  0  0  0  0  0
   -3.1177   -0.2497    3.5505 C   0  0  0  0  0  0  0  0  0  0  0  0
   -3.8094   -1.0625    4.9944 S   0  0  0  0  0  0  0  0  0  0  0  0
   -5.5482   -0.9600    4.4310 C   0  0  0  0  0  0  0  0  0  0  0  0
   -5.9009   -2.1291    3.5215 C   0  0  0  0  0  0  0  0  0  0  0  0
   -2.9222    1.1380    3.5314 C   0  0  0  0  0  0  0  0  0  0  0  0
   -3.2150    1.8855    4.6245 F   0  0  0  0  0  0  0  0  0  0  0  0
   -2.4602    1.7622    2.3649 C   0  0  0  0  0  0  0  0  0  0  0  0
   -0.6971    2.3596   -0.2759 C   0  0  0  0  0  0  0  0  0  0  0  0
   -0.4003    3.0108   -1.4784 C   0  0  0  0  0  0  0  0  0  0  0  0
   -1.3207    3.0068   -2.5472 C   0  0  0  0  0  0  0  0  0  0  0  0
   -1.0317    3.6858   -3.8331 C   0  0  0  0  0  0  0  0  0  0  0  0
   -1.0217    2.9593   -5.0347 C   0  0  0  0  0  0  0  0  0  0  0  0
   -0.8562    3.6158   -6.2549 C   0  0  0  0  0  0  0  0  0  0  0  0
   -0.6802    5.0023   -6.2884 C   0  0  0  0  0  0  0  0  0  0  0  0
   -0.5482    5.8426   -7.8710 S   0  0  0  0  0  0  0  0  0  0  0  0
   -2.3555    6.0270   -8.1022 C   0  0  0  0  0  0  0  0  0  0  0  0
   -2.8744    7.2751   -7.4000 C   0  0  0  0  0  0  0  0  0  0  0  0
   -0.6231    5.7255   -5.0897 C   0  0  0  0  0  0  0  0  0  0  0  0
   -0.8060    5.0707   -3.8681 C   0  0  0  0  0  0  0  0  0  0  0  0
   -0.4132    7.0642   -5.1069 F   0  0  0  0  0  0  0  0  0  0  0  0
   -2.5015    2.2660   -2.3596 C   0  0  0  0  0  0  0  0  0  0  0  0
   -3.6953    1.9103   -3.4897 S   0  0  0  0  0  0  0  0  0  0  0  0
    0.9188    3.4854   -1.5366 C   0  0  0  0  0  0  0  0  0  0  0  0
    1.6636    3.1574   -0.4076 C   0  0  0  0  0  0  0  0  0  0  0  0
    0.6851    2.3205    0.6870 S   0  0  0  0  0  0  0  0  0  0  0  0
    3.1281    3.2099   -0.3634 C   0  0  0  0  0  0  0  0  0  0  0  0
    3.9109    4.1394   -1.0472 C   0  0  0  0  0  0  0  0  0  0  0  0
    5.2604    3.7701   -1.1243 C   0  0  0  0  0  0  0  0  0  0  0  0
    6.2683    4.4545   -1.8333 C   0  0  0  0  0  0  0  0  0  0  0  0
    5.9906    5.7153   -2.5478 C   0  0  0  0  0  0  0  0  0  0  0  0
    5.6247    6.8698   -1.8369 C   0  0  0  0  0  0  0  0  0  0  0  0
    5.2810    8.0366   -2.5251 C   0  0  0  0  0  0  0  0  0  0  0  0
    5.2955    8.0610   -3.9231 C   0  0  0  0  0  0  0  0  0  0  0  0
    4.7896    9.5467   -4.7926 S   0  0  0  0  0  0  0  0  0  0  0  0
    3.0423    9.0261   -4.9021 C   0  0  0  0  0  0  0  0  0  0  0  0
    2.1959   10.1613   -5.4558 C   0  0  0  0  0  0  0  0  0  0  0  0
    5.6825    6.9176   -4.6353 C   0  0  0  0  0  0  0  0  0  0  0  0
    5.6989    6.9259   -5.9918 F   0  0  0  0  0  0  0  0  0  0  0  0
    6.0246    5.7491   -3.9495 C   0  0  0  0  0  0  0  0  0  0  0  0
    7.5263    3.8341   -1.9019 C   0  0  0  0  0  0  0  0  0  0  0  0
    7.7855    2.5882   -1.3234 C   0  0  0  0  0  0  0  0  0  0  0  0
    6.7743    1.9001   -0.6243 C   0  0  0  0  0  0  0  0  0  0  0  0
    6.9638    0.5151   -0.1620 C   0  0  0  0  0  0  0  0  0  0  0  0
    6.7269   -0.5490   -1.0444 C   0  0  0  0  0  0  0  0  0  0  0  0
    6.9576   -1.8658   -0.6359 C   0  0  0  0  0  0  0  0  0  0  0  0
    7.4317   -2.1292    0.6522 C   0  0  0  0  0  0  0  0  0  0  0  0
    7.7724   -3.8249    1.1455 S   0  0  0  0  0  0  0  0  0  0  0  0
    9.5598   -3.7452    0.7620 C   0  0  0  0  0  0  0  0  0  0  0  0
    9.8221   -3.9995   -0.7175 C   0  0  0  0  0  0  0  0  0  0  0  0
    7.6473   -1.0671    1.5454 C   0  0  0  0  0  0  0  0  0  0  0  0
    7.4266    0.2524    1.1343 C   0  0  0  0  0  0  0  0  0  0  0  0
    8.1172   -1.3076    2.7959 F   0  0  0  0  0  0  0  0  0  0  0  0
    5.5263    2.5335   -0.5247 C   0  0  0  0  0  0  0  0  0  0  0  0
    4.1018    1.9208    0.1289 S   0  0  0  0  0  0  0  0  0  0  0  0
    9.0951    2.1319   -1.5546 C   0  0  0  0  0  0  0  0  0  0  0  0
    9.8622    3.0263   -2.2961 C   0  0  0  0  0  0  0  0  0  0  0  0
    8.9176    4.3725   -2.6816 S   0  0  0  0  0  0  0  0  0  0  0  0
   -2.3757   -1.5818   10.6091 H   0  0  0  0  0  0  0  0  0  0  0  0
   -1.2240    0.2274    9.1441 H   0  0  0  0  0  0  0  0  0  0  0  0
    2.1156    0.2732    6.3785 H   0  0  0  0  0  0  0  0  0  0  0  0
    3.0210    2.5116    6.8247 H   0  0  0  0  0  0  0  0  0  0  0  0
    0.9619    5.5791    5.4086 H   0  0  0  0  0  0  0  0  0  0  0  0
    2.5913    4.7839    5.3324 H   0  0  0  0  0  0  0  0  0  0  0  0
    2.7681    7.1841    4.7444 H   0  0  0  0  0  0  0  0  0  0  0  0
    2.0080    7.6500    6.3151 H   0  0  0  0  0  0  0  0  0  0  0  0
    3.6371    6.8534    6.2908 H   0  0  0  0  0  0  0  0  0  0  0  0
   -1.8725    1.7457    7.0858 H   0  0  0  0  0  0  0  0  0  0  0  0
   -3.6901   -4.2569    6.3563 H   0  0  0  0  0  0  0  0  0  0  0  0
   -4.4405   -6.5802    6.0897 H   0  0  0  0  0  0  0  0  0  0  0  0
   -3.0676   -9.7272    3.0548 H   0  0  0  0  0  0  0  0  0  0  0  0
   -3.0431   -7.9320    3.1597 H   0  0  0  0  0  0  0  0  0  0  0  0
   -5.4298   -9.7746    3.8518 H   0  0  0  0  0  0  0  0  0  0  0  0
   -5.2534   -8.7653    2.3616 H   0  0  0  0  0  0  0  0  0  0  0  0
   -5.4240   -7.9721    3.9807 H   0  0  0  0  0  0  0  0  0  0  0  0
    0.3623   -5.4747    5.5104 H   0  0  0  0  0  0  0  0  0  0  0  0
   -0.1124   -4.0891    3.6058 H   0  0  0  0  0  0  0  0  0  0  0  0
    3.8163   -1.5229   -0.6114 H   0  0  0  0  0  0  0  0  0  0  0  0
    1.1476   -7.8501    1.9064 H   0  0  0  0  0  0  0  0  0  0  0  0
    2.1574   -8.4808    0.5240 H   0  0  0  0  0  0  0  0  0  0  0  0
    0.5822   -9.2424    0.9262 H   0  0  0  0  0  0  0  0  0  0  0  0
    3.9861   -3.9354   -1.4180 H   0  0  0  0  0  0  0  0  0  0  0  0
    4.9767   -7.4317   -2.4689 H   0  0  0  0  0  0  0  0  0  0  0  0
    5.3367   -6.5228   -0.9563 H   0  0  0  0  0  0  0  0  0  0  0  0
    5.0134   -5.6248   -2.5013 H   0  0  0  0  0  0  0  0  0  0  0  0
   -0.9884   -5.7090    1.9528 H   0  0  0  0  0  0  0  0  0  0  0  0
   -1.5657   -3.2518    0.2419 H   0  0  0  0  0  0  0  0  0  0  0  0
   -5.9122   -5.8740    3.0141 H   0  0  0  0  0  0  0  0  0  0  0  0
   -6.7486   -3.7008   -3.5972 H   0  0  0  0  0  0  0  0  0  0  0  0
   -6.4701   -4.3747   -5.2350 H   0  0  0  0  0  0  0  0  0  0  0  0
   -7.3269   -5.3814   -4.0197 H   0  0  0  0  0  0  0  0  0  0  0  0
   -7.1823   -6.5344    0.8683 H   0  0  0  0  0  0  0  0  0  0  0  0
   -7.6243   -8.7133   -1.0387 H   0  0  0  0  0  0  0  0  0  0  0  0
   -8.8189   -7.5745   -0.2736 H   0  0  0  0  0  0  0  0  0  0  0  0
   -9.0818   -8.1676   -1.9549 H   0  0  0  0  0  0  0  0  0  0  0  0
   -2.1571   -4.1875   -2.1000 H   0  0  0  0  0  0  0  0  0  0  0  0
   -4.4612   -2.1922   -2.0495 H   0  0  0  0  0  0  0  0  0  0  0  0
    0.2808   -0.9121   -5.1169 H   0  0  0  0  0  0  0  0  0  0  0  0
   -5.6626    1.7441   -7.2522 H   0  0  0  0  0  0  0  0  0  0  0  0
   -6.5298    1.3089   -5.7106 H   0  0  0  0  0  0  0  0  0  0  0  0
   -7.4289    1.4217   -7.2647 H   0  0  0  0  0  0  0  0  0  0  0  0
   -1.0912   -0.1281   -7.1683 H   0  0  0  0  0  0  0  0  0  0  0  0
   -2.5637    0.7104  -10.5106 H   0  0  0  0  0  0  0  0  0  0  0  0
   -1.6474    1.3447   -9.0892 H   0  0  0  0  0  0  0  0  0  0  0  0
   -1.5042   -0.4075   -9.5770 H   0  0  0  0  0  0  0  0  0  0  0  0
   -6.4985   -1.3929   -4.1914 H   0  0  0  0  0  0  0  0  0  0  0  0
   -6.5566   -0.0280   -2.2600 H   0  0  0  0  0  0  0  0  0  0  0  0
   -4.3696    0.2634   -0.4020 H   0  0  0  0  0  0  0  0  0  0  0  0
   -2.1321   -0.9810    0.3821 H   0  0  0  0  0  0  0  0  0  0  0  0
   -2.8939   -2.0760    2.4560 H   0  0  0  0  0  0  0  0  0  0  0  0
   -5.7458   -0.0000    3.9097 H   0  0  0  0  0  0  0  0  0  0  0  0
   -6.2001   -1.0051    5.3287 H   0  0  0  0  0  0  0  0  0  0  0  0
   -5.6825   -3.0882    4.0345 H   0  0  0  0  0  0  0  0  0  0  0  0
   -5.3359   -2.0731    2.5697 H   0  0  0  0  0  0  0  0  0  0  0  0
   -6.9842   -2.0999    3.2771 H   0  0  0  0  0  0  0  0  0  0  0  0
   -2.3507    2.8413    2.3473 H   0  0  0  0  0  0  0  0  0  0  0  0
   -1.1582    1.8890   -5.0237 H   0  0  0  0  0  0  0  0  0  0  0  0
   -0.8820    3.0440   -7.1726 H   0  0  0  0  0  0  0  0  0  0  0  0
   -2.8966    5.1331   -7.7247 H   0  0  0  0  0  0  0  0  0  0  0  0
   -2.5604    6.1122   -9.1895 H   0  0  0  0  0  0  0  0  0  0  0  0
   -2.7755    7.1732   -6.3012 H   0  0  0  0  0  0  0  0  0  0  0  0
   -3.9489    7.4233   -7.6465 H   0  0  0  0  0  0  0  0  0  0  0  0
   -2.3064    8.1721   -7.7308 H   0  0  0  0  0  0  0  0  0  0  0  0
   -0.7968    5.6454   -2.9498 H   0  0  0  0  0  0  0  0  0  0  0  0
    1.3564    3.9269   -2.4235 H   0  0  0  0  0  0  0  0  0  0  0  0
    3.4991    5.0149   -1.5311 H   0  0  0  0  0  0  0  0  0  0  0  0
    5.5967    6.8590   -0.7541 H   0  0  0  0  0  0  0  0  0  0  0  0
    4.9861    8.9165   -1.9684 H   0  0  0  0  0  0  0  0  0  0  0  0
    2.6660    8.7485   -3.8953 H   0  0  0  0  0  0  0  0  0  0  0  0
    2.9633    8.1469   -5.5746 H   0  0  0  0  0  0  0  0  0  0  0  0
    2.5589   10.4512   -6.4653 H   0  0  0  0  0  0  0  0  0  0  0  0
    1.1384    9.8307   -5.5387 H   0  0  0  0  0  0  0  0  0  0  0  0
    2.2460   11.0394   -4.7775 H   0  0  0  0  0  0  0  0  0  0  0  0
    6.2930    4.8615   -4.5112 H   0  0  0  0  0  0  0  0  0  0  0  0
    6.3623   -0.3601   -2.0477 H   0  0  0  0  0  0  0  0  0  0  0  0
    6.7852   -2.6791   -1.3282 H   0  0  0  0  0  0  0  0  0  0  0  0
    9.9901   -2.7633    1.0568 H   0  0  0  0  0  0  0  0  0  0  0  0
   10.0757   -4.5309    1.3502 H   0  0  0  0  0  0  0  0  0  0  0  0
    9.3941   -4.9813   -1.0170 H   0  0  0  0  0  0  0  0  0  0  0  0
   10.9179   -4.0174   -0.9086 H   0  0  0  0  0  0  0  0  0  0  0  0
    9.3706   -3.1963   -1.3347 H   0  0  0  0  0  0  0  0  0  0  0  0
    7.6232    1.0690    1.8187 H   0  0  0  0  0  0  0  0  0  0  0  0
    9.4756    1.1869   -1.1897 H   0  0  0  0  0  0  0  0  0  0  0  0
   10.8918    2.8754   -2.5826 H   0  0  0  0  0  0  0  0  0  0  0  0
  1  2  2  0
  2  3  1  0
  3  4  2  0
  4  5  1  0
  5  6  2  0
  6  7  1  0
  7  8  2  0
  8  9  1  0
  9 10  1  0
 10 11  1  0
  8 12  1  0
 12 13  1  0
 12 14  2  0
  4 15  1  0
 15 16  2  0
 16 17  1  0
 17 18  1  0
 18 19  2  0
 19 20  1  0
 20 21  2  0
 21 22  1  0
 22 23  1  0
 23 24  1  0
 21 25  1  0
 25 26  2  0
 25 27  1  0
 17 28  2  0
 28 29  1  0
 16 30  1  0
 30 31  2  0
 31 32  1  0
 31 33  1  0
 33 34  1  0
 34 35  1  0
 35 36  2  0
 36 37  1  0
 37 38  1  0
 38 39  2  0
 39 40  1  0
 40 41  1  0
 39 42  1  0
 42 43  2  0
 42 44  1  0
 44 45  1  0
 38 46  1  0
 46 47  2  3
 47 48  1  0
 48 49  1  0
 49 50  1  0
 50 51  2  0
 51 52  1  0
 52 53  1  0
 53 54  2  0
 54 55  1  0
 55 56  1  0
 54 57  1  0
 57 58  2  0
 57 59  1  0
 59 60  1  0
 53 61  1  0
 61 62  2  3
 62 63  1  0
 63 64  1  0
 64 65  1  0
 65 66  2  0
 66 67  1  0
 67 68  1  0
 68 69  2  0
 69 70  1  0
 70 71  1  0
 69 72  1  0
 72 73  2  0
 72 74  1  0
 74 75  1  0
 68 76  1  0
 76 77  2  3
 77 78  1  0
 78 79  2  0
 79 80  1  0
 80 81  2  0
 81 82  1  0
 82 83  2  0
 83 84  1  0
 84 85  2  0
 85 86  1  0
 86 87  1  0
 87 88  1  0
 85 89  1  0
 89 90  1  0
 89 91  2  0
 81 92  1  0
 92 93  2  0
 93 94  1  0
 94 95  1  0
 95 96  2  0
 96 97  1  0
 97 98  2  0
 98 99  1  0
 99100  1  0
100101  1  0
 98102  1  0
102103  2  0
102104  1  0
 94105  2  0
105106  1  0
 93107  1  0
107108  2  0
108109  1  0
108110  1  0
110111  2  0
111112  1  0
112113  2  0
113114  1  0
114115  2  0
115116  1  0
116117  2  0
117118  1  0
118119  1  0
119120  1  0
117121  1  0
121122  1  0
121123  2  0
113124  1  0
124125  2  0
125126  1  0
126127  1  0
127128  2  0
128129  1  0
129130  2  0
130131  1  0
131132  1  0
132133  1  0
130134  1  0
134135  2  0
134136  1  0
126137  2  0
137138  1  0
125139  1  0
139140  2  0
140141  1  0
 29  1  1  0
 37 33  2  0
 52 48  2  0
 67 63  2  0
106 78  1  0
138110  1  0
 28  3  1  0
 43 36  1  0
 58 51  1  0
 73 66  1  0
105 80  1  0
137112  1  0
 14  5  1  0
 32 15  1  0
 91 82  1  0
109 92  1  0
123114  1  0
141124  1  0
 26 18  1  0
103 95  1  0
135127  1  0
  1142  1  0
  2143  1  0
  6144  1  0
  7145  1  0
 10146  1  0
 10147  1  0
 11148  1  0
 11149  1  0
 11150  1  0
 14151  1  0
 19152  1  0
 20153  1  0
 23154  1  0
 23155  1  0
 24156  1  0
 24157  1  0
 24158  1  0
 26159  1  0
 30160  1  0
 35161  1  0
 41162  1  0
 41163  1  0
 41164  1  0
 43165  1  0
 45166  1  0
 45167  1  0
 45168  1  0
 46169  1  0
 47170  1  0
 50171  1  0
 56172  1  0
 56173  1  0
 56174  1  0
 58175  1  0
 60176  1  0
 60177  1  0
 60178  1  0
 61179  1  0
 62180  1  0
 65181  1  0
 71182  1  0
 71183  1  0
 71184  1  0
 73185  1  0
 75186  1  0
 75187  1  0
 75188  1  0
 76189  1  0
 77190  1  0
 79191  1  0
 83192  1  0
 84193  1  0
 87194  1  0
 87195  1  0
 88196  1  0
 88197  1  0
 88198  1  0
 91199  1  0
 96200  1  0
 97201  1  0
100202  1  0
100203  1  0
101204  1  0
101205  1  0
101206  1  0
103207  1  0
107208  1  0
111209  1  0
115210  1  0
116211  1  0
119212  1  0
119213  1  0
120214  1  0
120215  1  0
120216  1  0
123217  1  0
128218  1  0
129219  1  0
132220  1  0
132221  1  0
133222  1  0
133223  1  0
133224  1  0
135225  1  0
139226  1  0
140227  1  0
M  END

