
     RDKit          3D

227247  0  0  0  0  0  0  0  0999 V2000
    1.9410   -5.9559   -6.7576 C   0  0  0  0  0  0  0  0  0  0  0  0
    1.6896   -4.5963   -6.9283 C   0  0  0  0  0  0  0  0  0  0  0  0
    2.5940   -3.7792   -6.2284 C   0  0  0  0  0  0  0  0  0  0  0  0
    2.5987   -2.3671   -6.1978 C   0  0  0  0  0  0  0  0  0  0  0  0
    1.6498   -1.5592   -6.9930 C   0  0  0  0  0  0  0  0  0  0  0  0
    2.1211   -0.7649   -8.0487 C   0  0  0  0  0  0  0  0  0  0  0  0
    1.2391    0.0283   -8.7845 C   0  0  0  0  0  0  0  0  0  0  0  0
   -0.1233    0.0592   -8.4534 C   0  0  0  0  0  0  0  0  0  0  0  0
   -1.2435    1.1171   -9.3806 S   0  0  0  0  0  0  0  0  0  0  0  0
   -0.8204    2.6467   -8.4713 C   0  0  0  0  0  0  0  0  0  0  0  0
   -1.5358    2.7126   -7.1283 C   0  0  0  0  0  0  0  0  0  0  0  0
   -0.6065   -0.7529   -7.4144 C   0  0  0  0  0  0  0  0  0  0  0  0
   -1.9239   -0.7519   -7.0956 F   0  0  0  0  0  0  0  0  0  0  0  0
    0.2757   -1.5721   -6.7013 C   0  0  0  0  0  0  0  0  0  0  0  0
    3.5901   -1.7504   -5.4082 C   0  0  0  0  0  0  0  0  0  0  0  0
    4.5541   -2.4786   -4.7056 C   0  0  0  0  0  0  0  0  0  0  0  0
    4.5665   -3.8845   -4.7627 C   0  0  0  0  0  0  0  0  0  0  0  0
    5.5763   -4.6734   -4.0301 C   0  0  0  0  0  0  0  0  0  0  0  0
    5.5873   -4.6745   -2.6284 C   0  0  0  0  0  0  0  0  0  0  0  0
    6.5924   -5.3552   -1.9339 C   0  0  0  0  0  0  0  0  0  0  0  0
    7.5999   -6.0326   -2.6338 C   0  0  0  0  0  0  0  0  0  0  0  0
    8.9010   -6.8663   -1.7265 S   0  0  0  0  0  0  0  0  0  0  0  0
    7.9961   -8.4456   -1.5866 C   0  0  0  0  0  0  0  0  0  0  0  0
    8.5193   -9.2363   -0.3955 C   0  0  0  0  0  0  0  0  0  0  0  0
    7.5874   -6.0375   -4.0373 C   0  0  0  0  0  0  0  0  0  0  0  0
    6.5773   -5.3628   -4.7305 C   0  0  0  0  0  0  0  0  0  0  0  0
    8.5649   -6.6688   -4.7323 F   0  0  0  0  0  0  0  0  0  0  0  0
    3.5590   -4.5038   -5.5250 C   0  0  0  0  0  0  0  0  0  0  0  0
    3.2842   -6.1483   -5.7533 S   0  0  0  0  0  0  0  0  0  0  0  0
    5.4608   -1.6678   -4.0064 C   0  0  0  0  0  0  0  0  0  0  0  0
    5.1357   -0.3148   -4.0611 C   0  0  0  0  0  0  0  0  0  0  0  0
    3.8382   -0.1138   -5.1277 S   0  0  0  0  0  0  0  0  0  0  0  0
    5.9426    0.7926   -3.5248 C   0  0  0  0  0  0  0  0  0  0  0  0
    6.4646    2.0395   -4.5239 S   0  0  0  0  0  0  0  0  0  0  0  0
    7.3863    2.8455   -3.3951 C   0  0  0  0  0  0  0  0  0  0  0  0
    7.3092    2.1609   -2.1884 C   0  0  0  0  0  0  0  0  0  0  0  0
    6.4637    1.0062   -2.2264 C   0  0  0  0  0  0  0  0  0  0  0  0
    6.1306    0.2402   -0.9809 C   0  0  0  0  0  0  0  0  0  0  0  0
    6.8809    0.7209    0.3856 S   0  0  0  0  0  4  0  0  0  0  0  0
    6.7568   -0.1806    1.8666 O   0  0  0  0  0  0  0  0  0  0  0  0
    7.7008   -1.2153    1.7928 C   0  0  0  0  0  0  0  0  0  0  0  0
    8.0442    2.0513    0.1851 C   0  0  0  0  0  0  0  0  0  0  0  0
    8.1210    2.6217   -1.0247 C   0  0  0  0  0  0  0  0  0  0  0  0
    8.8308    2.4398    1.2828 O   0  0  0  0  0  0  0  0  0  0  0  0
   10.0071    3.2375    1.1893 C   0  0  0  0  0  0  0  0  0  0  0  0
    5.3326   -0.9934   -0.9407 C   0  0  0  0  0  0  0  0  0  0  0  0
    4.2579   -1.2247   -0.1730 C   0  0  0  0  0  0  0  0  0  0  0  0
    3.5502   -0.2677    0.7023 C   0  0  0  0  0  0  0  0  0  0  0  0
    3.5778    1.1320    0.6887 C   0  0  0  0  0  0  0  0  0  0  0  0
    2.6850    1.7118    1.6117 C   0  0  0  0  0  0  0  0  0  0  0  0
    2.4961    3.0921    1.8622 C   0  0  0  0  0  0  0  0  0  0  0  0
    3.3665    4.1366    1.2645 C   0  0  0  0  0  0  0  0  0  0  0  0
    4.1006    5.0042    2.0939 C   0  0  0  0  0  0  0  0  0  0  0  0
    4.8985    6.0064    1.5408 C   0  0  0  0  0  0  0  0  0  0  0  0
    5.0109    6.1307    0.1496 C   0  0  0  0  0  0  0  0  0  0  0  0
    6.0208    7.4396   -0.5530 S   0  0  0  0  0  0  0  0  0  0  0  0
    7.6003    6.5312   -0.4258 C   0  0  0  0  0  0  0  0  0  0  0  0
    8.2724    6.8086    0.9150 C   0  0  0  0  0  0  0  0  0  0  0  0
    4.2970    5.2595   -0.6851 C   0  0  0  0  0  0  0  0  0  0  0  0
    4.3858    5.3724   -2.0343 F   0  0  0  0  0  0  0  0  0  0  0  0
    3.4687    4.2801   -0.1265 C   0  0  0  0  0  0  0  0  0  0  0  0
    1.5033    3.4321    2.8067 C   0  0  0  0  0  0  0  0  0  0  0  0
    0.7844    2.4738    3.5275 C   0  0  0  0  0  0  0  0  0  0  0  0
    1.0350    1.1029    3.3315 C   0  0  0  0  0  0  0  0  0  0  0  0
    0.3563    0.0650    4.1322 C   0  0  0  0  0  0  0  0  0  0  0  0
    1.0295   -0.5774    5.1841 C   0  0  0  0  0  0  0  0  0  0  0  0
    0.3675   -1.5426    5.9507 C   0  0  0  0  0  0  0  0  0  0  0  0
   -0.9681   -1.8661    5.6764 C   0  0  0  0  0  0  0  0  0  0  0  0
   -1.8219   -3.0912    6.6766 S   0  0  0  0  0  0  0  0  0  0  0  0
   -2.6240   -1.8715    7.7782 C   0  0  0  0  0  0  0  0  0  0  0  0
   -1.6558   -1.3697    8.8413 C   0  0  0  0  0  0  0  0  0  0  0  0
   -1.6304   -1.2417    4.6145 C   0  0  0  0  0  0  0  0  0  0  0  0
   -0.9723   -0.2769    3.8519 C   0  0  0  0  0  0  0  0  0  0  0  0
   -2.9160   -1.5592    4.3209 F   0  0  0  0  0  0  0  0  0  0  0  0
    1.9724    0.7607    2.3466 C   0  0  0  0  0  0  0  0  0  0  0  0
    2.4364   -0.7753    1.8622 S   0  0  0  0  0  0  0  0  0  0  0  0
   -0.1139    3.0310    4.4550 C   0  0  0  0  0  0  0  0  0  0  0  0
   -0.1114    4.4205    4.4336 C   0  0  0  0  0  0  0  0  0  0  0  0
    1.0209    4.9652    3.3082 S   0  0  0  0  0  0  0  0  0  0  0  0
   -0.6995    5.2848    5.4608 C   0  0  0  0  0  0  0  0  0  0  0  0
    0.2135    5.8715    6.7449 S   0  0  0  0  0  0  0  0  0  0  0  0
   -0.9331    6.9285    7.3503 C   0  0  0  0  0  0  0  0  0  0  0  0
   -2.0638    6.8615    6.5442 C   0  0  0  0  0  0  0  0  0  0  0  0
   -1.9545    5.9222    5.4685 C   0  0  0  0  0  0  0  0  0  0  0  0
   -3.0695    5.6781    4.5026 C   0  0  0  0  0  0  0  0  0  0  0  0
   -4.3712    6.6482    4.6646 S   0  0  0  0  0  4  0  0  0  0  0  0
   -5.7634    6.5141    3.6362 O   0  0  0  0  0  0  0  0  0  0  0  0
   -5.7170    7.6014    2.7538 C   0  0  0  0  0  0  0  0  0  0  0  0
   -4.3237    7.7807    6.0435 C   0  0  0  0  0  0  0  0  0  0  0  0
   -3.2315    7.7517    6.8206 C   0  0  0  0  0  0  0  0  0  0  0  0
   -5.4220    8.6198    6.2730 O   0  0  0  0  0  0  0  0  0  0  0  0
   -5.5339    9.5188    7.3728 C   0  0  0  0  0  0  0  0  0  0  0  0
   -3.1295    4.5136    3.5962 C   0  0  0  0  0  0  0  0  0  0  0  0
   -4.1931    3.6997    3.6299 C   0  0  0  0  0  0  0  0  0  0  0  0
   -4.2772    2.4249    2.9035 C   0  0  0  0  0  0  0  0  0  0  0  0
   -5.1886    1.4278    3.2355 C   0  0  0  0  0  0  0  0  0  0  0  0
   -4.9746    0.2373    2.5335 C   0  0  0  0  0  0  0  0  0  0  0  0
   -5.6834   -0.9648    2.7185 C   0  0  0  0  0  0  0  0  0  0  0  0
   -6.8354   -1.0477    3.6333 C   0  0  0  0  0  0  0  0  0  0  0  0
   -6.6402   -1.3444    4.9893 C   0  0  0  0  0  0  0  0  0  0  0  0
   -7.7278   -1.3550    5.8639 C   0  0  0  0  0  0  0  0  0  0  0  0
   -9.0173   -1.0719    5.3910 C   0  0  0  0  0  0  0  0  0  0  0  0
  -10.4129   -1.0800    6.5241 S   0  0  0  0  0  0  0  0  0  0  0  0
  -10.8936   -2.8104    6.1818 C   0  0  0  0  0  0  0  0  0  0  0  0
  -10.0910   -3.7808    7.0388 C   0  0  0  0  0  0  0  0  0  0  0  0
   -9.2103   -0.7654    4.0361 C   0  0  0  0  0  0  0  0  0  0  0  0
  -10.4484   -0.4719    3.5647 F   0  0  0  0  0  0  0  0  0  0  0  0
   -8.1209   -0.7547    3.1611 C   0  0  0  0  0  0  0  0  0  0  0  0
   -5.2379   -2.0821    2.0021 C   0  0  0  0  0  0  0  0  0  0  0  0
   -4.1584   -2.0262    1.1217 C   0  0  0  0  0  0  0  0  0  0  0  0
   -3.4866   -0.8091    0.8960 C   0  0  0  0  0  0  0  0  0  0  0  0
   -2.4419   -0.7015   -0.1314 C   0  0  0  0  0  0  0  0  0  0  0  0
   -1.1073   -1.0140    0.1658 C   0  0  0  0  0  0  0  0  0  0  0  0
   -0.1417   -0.9963   -0.8453 C   0  0  0  0  0  0  0  0  0  0  0  0
   -0.5081   -0.6943   -2.1606 C   0  0  0  0  0  0  0  0  0  0  0  0
    0.7236   -0.7589   -3.4555 S   0  0  0  0  0  0  0  0  0  0  0  0
    0.9828    1.0457   -3.5205 C   0  0  0  0  0  0  0  0  0  0  0  0
    1.9748    1.4865   -2.4554 C   0  0  0  0  0  0  0  0  0  0  0  0
   -1.8436   -0.4005   -2.4676 C   0  0  0  0  0  0  0  0  0  0  0  0
   -2.8056   -0.3970   -1.4524 C   0  0  0  0  0  0  0  0  0  0  0  0
   -2.2167   -0.1343   -3.7432 F   0  0  0  0  0  0  0  0  0  0  0  0
   -3.9116    0.3079    1.6336 C   0  0  0  0  0  0  0  0  0  0  0  0
   -3.2332    1.8527    1.6959 S   0  0  0  0  0  0  0  0  0  0  0  0
   -3.8429   -3.2729    0.5562 C   0  0  0  0  0  0  0  0  0  0  0  0
   -4.7075   -4.2890    0.9647 C   0  0  0  0  0  0  0  0  0  0  0  0
   -5.8242   -3.6545    2.0674 S   0  0  0  0  0  0  0  0  0  0  0  0
   -4.5910   -5.7210    0.6358 C   0  0  0  0  0  0  0  0  0  0  0  0
   -4.8647   -6.9185    1.7792 S   0  0  0  0  0  0  0  0  0  0  0  0
   -4.2972   -8.2082    0.8819 C   0  0  0  0  0  0  0  0  0  0  0  0
   -3.8632   -7.7289   -0.3485 C   0  0  0  0  0  0  0  0  0  0  0  0
   -4.0811   -6.3266   -0.5294 C   0  0  0  0  0  0  0  0  0  0  0  0
   -3.7733   -5.6387   -1.8249 C   0  0  0  0  0  0  0  0  0  0  0  0
   -2.8869   -6.4880   -2.8939 S   0  0  0  0  0  4  0  0  0  0  0  0
   -2.4548   -5.8399   -4.4460 O   0  0  0  0  0  0  0  0  0  0  0  0
   -1.2615   -5.1169   -4.2739 C   0  0  0  0  0  0  0  0  0  0  0  0
   -2.6757   -8.2266   -2.4769 C   0  0  0  0  0  0  0  0  0  0  0  0
   -3.1856   -8.6420   -1.3136 C   0  0  0  0  0  0  0  0  0  0  0  0
   -2.0542   -9.1529   -3.3214 O   0  0  0  0  0  0  0  0  0  0  0  0
   -1.5365   -8.8340   -4.6053 C   0  0  0  0  0  0  0  0  0  0  0  0
   -4.3455   -4.3528   -2.2807 C   0  0  0  0  0  0  0  0  0  0  0  0
   -5.5830   -3.9636   -1.9821 C   0  0  0  0  0  0  0  0  0  0  0  0
    1.3675   -6.7556   -7.1960 H   0  0  0  0  0  0  0  0  0  0  0  0
    0.8776   -4.2240   -7.5394 H   0  0  0  0  0  0  0  0  0  0  0  0
    3.1738   -0.7625   -8.3046 H   0  0  0  0  0  0  0  0  0  0  0  0
    1.6134    0.6337   -9.5991 H   0  0  0  0  0  0  0  0  0  0  0  0
    0.2764    2.7198   -8.3184 H   0  0  0  0  0  0  0  0  0  0  0  0
   -1.1382    3.5104   -9.0918 H   0  0  0  0  0  0  0  0  0  0  0  0
   -1.1806    1.9058   -6.4552 H   0  0  0  0  0  0  0  0  0  0  0  0
   -2.6319    2.6125   -7.2739 H   0  0  0  0  0  0  0  0  0  0  0  0
   -1.3311    3.6923   -6.6479 H   0  0  0  0  0  0  0  0  0  0  0  0
   -0.1043   -2.2007   -5.9057 H   0  0  0  0  0  0  0  0  0  0  0  0
    4.8230   -4.1461   -2.0708 H   0  0  0  0  0  0  0  0  0  0  0  0
    6.5944   -5.3462   -0.8517 H   0  0  0  0  0  0  0  0  0  0  0  0
    8.1401   -9.0347   -2.5187 H   0  0  0  0  0  0  0  0  0  0  0  0
    6.9084   -8.2623   -1.4406 H   0  0  0  0  0  0  0  0  0  0  0  0
    9.6065   -9.4425   -0.5123 H   0  0  0  0  0  0  0  0  0  0  0  0
    8.3538   -8.6599    0.5396 H   0  0  0  0  0  0  0  0  0  0  0  0
    7.9767  -10.2013   -0.3209 H   0  0  0  0  0  0  0  0  0  0  0  0
    6.5892   -5.3502   -5.8132 H   0  0  0  0  0  0  0  0  0  0  0  0
    6.3535   -2.0424   -3.5224 H   0  0  0  0  0  0  0  0  0  0  0  0
    7.9638    3.7419   -3.5802 H   0  0  0  0  0  0  0  0  0  0  0  0
    7.7215   -1.7490    2.7665 H   0  0  0  0  0  0  0  0  0  0  0  0
    7.4163   -1.9477    1.0044 H   0  0  0  0  0  0  0  0  0  0  0  0
    8.7208   -0.8203    1.5967 H   0  0  0  0  0  0  0  0  0  0  0  0
    8.8163    3.4395   -1.1902 H   0  0  0  0  0  0  0  0  0  0  0  0
   10.7632    2.7227    0.5615 H   0  0  0  0  0  0  0  0  0  0  0  0
    9.7717    4.2271    0.7501 H   0  0  0  0  0  0  0  0  0  0  0  0
   10.4183    3.3905    2.2080 H   0  0  0  0  0  0  0  0  0  0  0  0
    5.7526   -1.8512   -1.4354 H   0  0  0  0  0  0  0  0  0  0  0  0
    3.8764   -2.2397   -0.1603 H   0  0  0  0  0  0  0  0  0  0  0  0
    4.1913    1.7056    0.0115 H   0  0  0  0  0  0  0  0  0  0  0  0
    4.0517    4.9077    3.1722 H   0  0  0  0  0  0  0  0  0  0  0  0
    5.4316    6.6845    2.1952 H   0  0  0  0  0  0  0  0  0  0  0  0
    8.2653    6.8841   -1.2422 H   0  0  0  0  0  0  0  0  0  0  0  0
    7.4468    5.4396   -0.5543 H   0  0  0  0  0  0  0  0  0  0  0  0
    8.2251    7.8901    1.1594 H   0  0  0  0  0  0  0  0  0  0  0  0
    7.7804    6.2257    1.7230 H   0  0  0  0  0  0  0  0  0  0  0  0
    9.3409    6.5180    0.8681 H   0  0  0  0  0  0  0  0  0  0  0  0
    2.8969    3.6393   -0.7796 H   0  0  0  0  0  0  0  0  0  0  0  0
    2.0585   -0.3246    5.4130 H   0  0  0  0  0  0  0  0  0  0  0  0
    0.8927   -2.0282    6.7621 H   0  0  0  0  0  0  0  0  0  0  0  0
   -3.4800   -2.3735    8.2819 H   0  0  0  0  0  0  0  0  0  0  0  0
   -3.0207   -1.0161    7.1935 H   0  0  0  0  0  0  0  0  0  0  0  0
   -2.1945   -0.7175    9.5602 H   0  0  0  0  0  0  0  0  0  0  0  0
   -1.2174   -2.2261    9.3935 H   0  0  0  0  0  0  0  0  0  0  0  0
   -0.8366   -0.7848    8.3755 H   0  0  0  0  0  0  0  0  0  0  0  0
   -1.4834    0.2059    3.0362 H   0  0  0  0  0  0  0  0  0  0  0  0
   -0.7134    2.4485    5.1420 H   0  0  0  0  0  0  0  0  0  0  0  0
   -0.8023    7.5751    8.2063 H   0  0  0  0  0  0  0  0  0  0  0  0
   -6.5927    7.5445    2.0739 H   0  0  0  0  0  0  0  0  0  0  0  0
   -4.7960    7.5672    2.1292 H   0  0  0  0  0  0  0  0  0  0  0  0
   -5.7804    8.5621    3.3086 H   0  0  0  0  0  0  0  0  0  0  0  0
   -3.1597    8.4106    7.6741 H   0  0  0  0  0  0  0  0  0  0  0  0
   -5.5207    8.9541    8.3298 H   0  0  0  0  0  0  0  0  0  0  0  0
   -6.4965   10.0620    7.2979 H   0  0  0  0  0  0  0  0  0  0  0  0
   -4.7070   10.2582    7.3539 H   0  0  0  0  0  0  0  0  0  0  0  0
   -2.2809    4.2717    2.9758 H   0  0  0  0  0  0  0  0  0  0  0  0
   -5.0026    3.9087    4.3215 H   0  0  0  0  0  0  0  0  0  0  0  0
   -5.9463    1.5495    4.0034 H   0  0  0  0  0  0  0  0  0  0  0  0
   -5.6475   -1.5525    5.3679 H   0  0  0  0  0  0  0  0  0  0  0  0
   -7.5702   -1.5718    6.9133 H   0  0  0  0  0  0  0  0  0  0  0  0
  -10.7583   -3.0544    5.1071 H   0  0  0  0  0  0  0  0  0  0  0  0
  -11.9711   -2.9220    6.4268 H   0  0  0  0  0  0  0  0  0  0  0  0
   -9.0112   -3.7288    6.7820 H   0  0  0  0  0  0  0  0  0  0  0  0
  -10.4489   -4.8162    6.8607 H   0  0  0  0  0  0  0  0  0  0  0  0
  -10.2237   -3.5382    8.1141 H   0  0  0  0  0  0  0  0  0  0  0  0
   -8.2750   -0.5050    2.1167 H   0  0  0  0  0  0  0  0  0  0  0  0
   -0.8207   -1.3003    1.1672 H   0  0  0  0  0  0  0  0  0  0  0  0
    0.8826   -1.2519   -0.6120 H   0  0  0  0  0  0  0  0  0  0  0  0
    0.0266    1.5944   -3.3938 H   0  0  0  0  0  0  0  0  0  0  0  0
    1.3792    1.2994   -4.5273 H   0  0  0  0  0  0  0  0  0  0  0  0
    1.4934    1.4604   -1.4557 H   0  0  0  0  0  0  0  0  0  0  0  0
    2.8685    0.8248   -2.4433 H   0  0  0  0  0  0  0  0  0  0  0  0
    2.3074    2.5192   -2.6843 H   0  0  0  0  0  0  0  0  0  0  0  0
   -3.8384   -0.1804   -1.6996 H   0  0  0  0  0  0  0  0  0  0  0  0
   -2.9940   -3.4316   -0.1025 H   0  0  0  0  0  0  0  0  0  0  0  0
   -4.2383   -9.2323    1.2218 H   0  0  0  0  0  0  0  0  0  0  0  0
   -0.9428   -4.7085   -5.2570 H   0  0  0  0  0  0  0  0  0  0  0  0
   -0.4425   -5.7750   -3.8996 H   0  0  0  0  0  0  0  0  0  0  0  0
   -1.4149   -4.2597   -3.5811 H   0  0  0  0  0  0  0  0  0  0  0  0
   -3.0843   -9.6862   -1.0452 H   0  0  0  0  0  0  0  0  0  0  0  0
   -1.1619   -9.7595   -5.0862 H   0  0  0  0  0  0  0  0  0  0  0  0
   -0.6930   -8.1179   -4.5115 H   0  0  0  0  0  0  0  0  0  0  0  0
   -2.3405   -8.4060   -5.2431 H   0  0  0  0  0  0  0  0  0  0  0  0
   -3.7603   -3.7429   -2.9563 H   0  0  0  0  0  0  0  0  0  0  0  0
   -6.2375   -4.5477   -1.3448 H   0  0  0  0  0  0  0  0  0  0  0  0
   -5.9415   -3.0129   -2.3563 H   0  0  0  0  0  0  0  0  0  0  0  0
  1  2  2  0
  2  3  1  0
  3  4  2  0
  4  5  1  0
  5  6  2  0
  6  7  1  0
  7  8  2  0
  8  9  1  0
  9 10  1  0
 10 11  1  0
  8 12  1  0
 12 13  1  0
 12 14  2  0
  4 15  1  0
 15 16  2  0
 16 17  1  0
 17 18  1  0
 18 19  2  0
 19 20  1  0
 20 21  2  0
 21 22  1  0
 22 23  1  0
 23 24  1  0
 21 25  1  0
 25 26  2  0
 25 27  1  0
 17 28  2  0
 28 29  1  0
 16 30  1  0
 30 31  2  0
 31 32  1  0
 31 33  1  0
 33 34  1  0
 34 35  1  0
 35 36  2  0
 36 37  1  0
 37 38  1  0
 38 39  2  0
 39 40  1  0
 40 41  1  0
 39 42  1  0
 42 43  2  0
 42 44  1  0
 44 45  1  0
 38 46  1  0
 46 47  2  3
 47 48  1  0
 48 49  2  0
 49 50  1  0
 50 51  2  0
 51 52  1  0
 52 53  2  0
 53 54  1  0
 54 55  2  0
 55 56  1  0
 56 57  1  0
 57 58  1  0
 55 59  1  0
 59 60  1  0
 59 61  2  0
 51 62  1  0
 62 63  2  0
 63 64  1  0
 64 65  1  0
 65 66  2  0
 66 67  1  0
 67 68  2  0
 68 69  1  0
 69 70  1  0
 70 71  1  0
 68 72  1  0
 72 73  2  0
 72 74  1  0
 64 75  2  0
 75 76  1  0
 63 77  1  0
 77 78  2  0
 78 79  1  0
 78 80  1  0
 80 81  1  0
 81 82  1  0
 82 83  2  0
 83 84  1  0
 84 85  1  0
 85 86  2  0
 86 87  1  0
 87 88  1  0
 86 89  1  0
 89 90  2  0
 89 91  1  0
 91 92  1  0
 85 93  1  0
 93 94  2  3
 94 95  1  0
 95 96  2  0
 96 97  1  0
 97 98  2  0
 98 99  1  0
 99100  2  0
100101  1  0
101102  2  0
102103  1  0
103104  1  0
104105  1  0
102106  1  0
106107  1  0
106108  2  0
 98109  1  0
109110  2  0
110111  1  0
111112  1  0
112113  2  0
113114  1  0
114115  2  0
115116  1  0
116117  1  0
117118  1  0
115119  1  0
119120  2  0
119121  1  0
111122  2  0
122123  1  0
110124  1  0
124125  2  0
125126  1  0
125127  1  0
127128  1  0
128129  1  0
129130  2  0
130131  1  0
131132  1  0
132133  2  0
133134  1  0
134135  1  0
133136  1  0
136137  2  0
136138  1  0
138139  1  0
132140  1  0
140141  2  3
 29  1  1  0
 37 33  2  0
 76 48  1  0
 84 80  2  0
123 95  1  0
131127  2  0
 28  3  1  0
 43 36  1  0
 75 50  1  0
 90 83  1  0
122 97  1  0
137130  1  0
 14  5  1  0
 32 15  1  0
 61 52  1  0
 79 62  1  0
108 99  1  0
126109  1  0
 26 18  1  0
 73 65  1  0
120112  1  0
  1142  1  0
  2143  1  0
  6144  1  0
  7145  1  0
 10146  1  0
 10147  1  0
 11148  1  0
 11149  1  0
 11150  1  0
 14151  1  0
 19152  1  0
 20153  1  0
 23154  1  0
 23155  1  0
 24156  1  0
 24157  1  0
 24158  1  0
 26159  1  0
 30160  1  0
 35161  1  0
 41162  1  0
 41163  1  0
 41164  1  0
 43165  1  0
 45166  1  0
 45167  1  0
 45168  1  0
 46169  1  0
 47170  1  0
 49171  1  0
 53172  1  0
 54173  1  0
 57174  1  0
 57175  1  0
 58176  1  0
 58177  1  0
 58178  1  0
 61179  1  0
 66180  1  0
 67181  1  0
 70182  1  0
 70183  1  0
 71184  1  0
 71185  1  0
 71186  1  0
 73187  1  0
 77188  1  0
 82189  1  0
 88190  1  0
 88191  1  0
 88192  1  0
 90193  1  0
 92194  1  0
 92195  1  0
 92196  1  0
 93197  1  0
 94198  1  0
 96199  1  0
100200  1  0
101201  1  0
104202  1  0
104203  1  0
105204  1  0
105205  1  0
105206  1  0
108207  1  0
113208  1  0
114209  1  0
117210  1  0
117211  1  0
118212  1  0
118213  1  0
118214  1  0
120215  1  0
124216  1  0
129217  1  0
135218  1  0
135219  1  0
135220  1  0
137221  1  0
139222  1  0
139223  1  0
139224  1  0
140225  1  0
141226  1  0
141227  1  0
M  END

