
     RDKit          3D

 87 93  0  0  0  0  0  0  0  0999 V2000
   -1.1599   -6.6012   -1.4406 C   0  0  0  0  0  0  0  0  0  0  0  0
   -1.3840   -4.9423   -1.5920 S   0  0  0  0  0  0  0  0  0  0  0  0
   -2.9913   -5.0061   -2.0970 C   0  0  0  0  0  0  0  0  0  0  0  0
   -3.3677   -6.3474   -2.1803 C   0  0  0  0  0  0  0  0  0  0  0  0
   -2.3486   -7.2345   -1.8069 C   0  0  0  0  0  0  0  0  0  0  0  0
   -2.5367   -8.6224   -1.8099 O   0  0  0  0  0  0  0  0  0  0  0  0
   -1.5344   -9.5507   -1.4168 C   0  0  0  0  0  0  0  0  0  0  0  0
   -4.6797   -6.7940   -2.5729 C   0  0  0  0  0  0  0  0  0  0  0  0
   -5.7323   -7.1492   -2.8900 N   0  0  0  0  0  0  0  0  0  0  0  0
   -3.8053   -3.8348   -2.4803 C   0  0  0  0  0  0  0  0  0  0  0  0
   -4.6693   -3.7533   -3.9211 S   0  0  0  0  0  0  0  0  0  0  0  0
   -5.0370   -2.1224   -3.8520 C   0  0  0  0  0  0  0  0  0  0  0  0
   -4.4747   -1.5929   -2.6954 C   0  0  0  0  0  0  0  0  0  0  0  0
   -3.8162   -2.5627   -1.8800 C   0  0  0  0  0  0  0  0  0  0  0  0
   -3.2278   -2.2470   -0.5417 C   0  0  0  0  0  0  0  0  0  0  0  0
   -3.0624   -0.6405   -0.2377 S   0  0  0  0  0  4  0  0  0  0  0  0
   -1.8924    0.0163    0.8580 O   0  0  0  0  0  0  0  0  0  0  0  0
   -0.7500    0.3009    0.0915 C   0  0  0  0  0  0  0  0  0  0  0  0
   -3.8462    0.4381   -1.4273 C   0  0  0  0  0  0  0  0  0  0  0  0
   -4.5003   -0.1268   -2.4509 C   0  0  0  0  0  0  0  0  0  0  0  0
   -3.7696    1.8243   -1.2250 O   0  0  0  0  0  0  0  0  0  0  0  0
   -4.3696    2.7999   -2.0734 C   0  0  0  0  0  0  0  0  0  0  0  0
   -3.2552   -3.3090    0.5124 C   0  0  0  0  0  0  0  0  0  0  0  0
   -2.7154   -3.3410    1.7387 C   0  0  0  0  0  0  0  0  0  0  0  0
   -1.8336   -2.3479    2.3347 C   0  0  0  0  0  0  0  0  0  0  0  0
   -0.1635   -2.3642    2.1247 S   0  0  0  0  0  0  0  0  0  0  0  0
    0.1831   -1.2074    3.2987 C   0  0  0  0  0  0  0  0  0  0  0  0
   -1.0154   -0.8017    3.8838 C   0  0  0  0  0  0  0  0  0  0  0  0
   -2.1445   -1.4599    3.3769 C   0  0  0  0  0  0  0  0  0  0  0  0
   -3.4255   -1.1881    3.8889 O   0  0  0  0  0  0  0  0  0  0  0  0
   -4.6537   -1.6384    3.3266 C   0  0  0  0  0  0  0  0  0  0  0  0
   -1.0999    0.2012    4.9149 C   0  0  0  0  0  0  0  0  0  0  0  0
   -1.1671    1.0078    5.7426 N   0  0  0  0  0  0  0  0  0  0  0  0
    1.4829   -0.5373    3.4365 C   0  0  0  0  0  0  0  0  0  0  0  0
    1.6908    1.0976    3.1192 S   0  0  0  0  0  0  0  0  0  0  0  0
    3.3685    1.0957    2.9910 C   0  0  0  0  0  0  0  0  0  0  0  0
    3.7949   -0.2243    3.2006 C   0  0  0  0  0  0  0  0  0  0  0  0
    2.7485   -1.1303    3.4566 C   0  0  0  0  0  0  0  0  0  0  0  0
    3.0016   -2.4838    3.7210 O   0  0  0  0  0  0  0  0  0  0  0  0
    2.2661   -3.2487    4.6743 C   0  0  0  0  0  0  0  0  0  0  0  0
    5.1722   -0.6460    3.1932 C   0  0  0  0  0  0  0  0  0  0  0  0
    6.2791   -0.9870    3.1909 N   0  0  0  0  0  0  0  0  0  0  0  0
    4.1739    2.2685    2.5605 C   0  0  0  0  0  0  0  0  0  0  0  0
    5.7541    2.1994    1.9767 S   0  0  0  0  0  0  0  0  0  0  0  0
    5.8656    3.8019    1.4944 C   0  0  0  0  0  0  0  0  0  0  0  0
    4.6563    4.4391    1.7876 C   0  0  0  0  0  0  0  0  0  0  0  0
    3.6998    3.5778    2.3879 C   0  0  0  0  0  0  0  0  0  0  0  0
    2.3990    3.9373    2.7895 O   0  0  0  0  0  0  0  0  0  0  0  0
    1.7290    5.1489    2.4712 C   0  0  0  0  0  0  0  0  0  0  0  0
    4.4658    5.8537    1.5628 C   0  0  0  0  0  0  0  0  0  0  0  0
    4.3214    6.9894    1.3790 N   0  0  0  0  0  0  0  0  0  0  0  0
    7.0307    4.3650    0.7907 C   0  0  0  0  0  0  0  0  0  0  0  0
    8.6319    4.0934    1.2304 S   0  0  0  0  0  0  0  0  0  0  0  0
    9.3270    4.9085   -0.0618 C   0  0  0  0  0  0  0  0  0  0  0  0
    8.3092    5.3921   -0.8777 C   0  0  0  0  0  0  0  0  0  0  0  0
    7.0080    5.0722   -0.4110 C   0  0  0  0  0  0  0  0  0  0  0  0
    5.7901    5.3642   -1.0486 O   0  0  0  0  0  0  0  0  0  0  0  0
    5.6434    5.9589   -2.3327 C   0  0  0  0  0  0  0  0  0  0  0  0
    8.6112    6.1195   -2.0839 C   0  0  0  0  0  0  0  0  0  0  0  0
    8.8581    6.7020   -3.0541 N   0  0  0  0  0  0  0  0  0  0  0  0
   -0.2438   -7.0820   -1.1207 H   0  0  0  0  0  0  0  0  0  0  0  0
   -1.9258  -10.5811   -1.5458 H   0  0  0  0  0  0  0  0  0  0  0  0
   -0.6294   -9.4285   -2.0497 H   0  0  0  0  0  0  0  0  0  0  0  0
   -1.2753   -9.3951   -0.3480 H   0  0  0  0  0  0  0  0  0  0  0  0
   -5.5806   -1.5659   -4.6055 H   0  0  0  0  0  0  0  0  0  0  0  0
    0.0048    0.7682    0.7473 H   0  0  0  0  0  0  0  0  0  0  0  0
   -0.3169   -0.6375   -0.3170 H   0  0  0  0  0  0  0  0  0  0  0  0
   -0.9793    1.0149   -0.7310 H   0  0  0  0  0  0  0  0  0  0  0  0
   -5.0113    0.4958   -3.1765 H   0  0  0  0  0  0  0  0  0  0  0  0
   -3.9445    2.7279   -3.0968 H   0  0  0  0  0  0  0  0  0  0  0  0
   -4.1609    3.8114   -1.6683 H   0  0  0  0  0  0  0  0  0  0  0  0
   -5.4715    2.6562   -2.1088 H   0  0  0  0  0  0  0  0  0  0  0  0
   -3.8567   -4.1777    0.2754 H   0  0  0  0  0  0  0  0  0  0  0  0
   -2.9209   -4.2054    2.3529 H   0  0  0  0  0  0  0  0  0  0  0  0
   -5.4933   -1.1766    3.8849 H   0  0  0  0  0  0  0  0  0  0  0  0
   -4.7244   -1.3276    2.2611 H   0  0  0  0  0  0  0  0  0  0  0  0
   -4.7447   -2.7390    3.4191 H   0  0  0  0  0  0  0  0  0  0  0  0
    1.2599   -3.4994    4.2886 H   0  0  0  0  0  0  0  0  0  0  0  0
    2.1787   -2.6861    5.6316 H   0  0  0  0  0  0  0  0  0  0  0  0
    2.8000   -4.2001    4.8700 H   0  0  0  0  0  0  0  0  0  0  0  0
    1.7194    5.2961    1.3691 H   0  0  0  0  0  0  0  0  0  0  0  0
    2.2083    6.0094    2.9853 H   0  0  0  0  0  0  0  0  0  0  0  0
    0.6792    5.0760    2.8279 H   0  0  0  0  0  0  0  0  0  0  0  0
   10.3903    5.0282   -0.2328 H   0  0  0  0  0  0  0  0  0  0  0  0
    4.5654    6.0028   -2.5852 H   0  0  0  0  0  0  0  0  0  0  0  0
    6.1526    5.3353   -3.0979 H   0  0  0  0  0  0  0  0  0  0  0  0
    6.0448    6.9936   -2.3268 H   0  0  0  0  0  0  0  0  0  0  0  0
  1  2  1  0
  2  3  1  0
  3  4  2  0
  4  5  1  0
  5  6  1  0
  6  7  1  0
  4  8  1  0
  8  9  3  0
  3 10  1  0
 10 11  1  0
 11 12  1  0
 12 13  2  0
 13 14  1  0
 14 15  1  0
 15 16  2  0
 16 17  1  0
 17 18  1  0
 16 19  1  0
 19 20  2  0
 19 21  1  0
 21 22  1  0
 15 23  1  0
 23 24  2  3
 24 25  1  0
 25 26  1  0
 26 27  1  0
 27 28  2  0
 28 29  1  0
 29 30  1  0
 30 31  1  0
 28 32  1  0
 32 33  3  0
 27 34  1  0
 34 35  1  0
 35 36  1  0
 36 37  2  0
 37 38  1  0
 38 39  1  0
 39 40  1  0
 37 41  1  0
 41 42  3  0
 36 43  1  0
 43 44  1  0
 44 45  1  0
 45 46  2  0
 46 47  1  0
 47 48  1  0
 48 49  1  0
 46 50  1  0
 50 51  3  0
 45 52  1  0
 52 53  1  0
 53 54  1  0
 54 55  2  0
 55 56  1  0
 56 57  1  0
 57 58  1  0
 55 59  1  0
 59 60  3  0
  5  1  2  0
 14 10  2  0
 29 25  2  0
 38 34  2  0
 47 43  2  0
 56 52  2  0
 20 13  1  0
  1 61  1  0
  7 62  1  0
  7 63  1  0
  7 64  1  0
 12 65  1  0
 18 66  1  0
 18 67  1  0
 18 68  1  0
 20 69  1  0
 22 70  1  0
 22 71  1  0
 22 72  1  0
 23 73  1  0
 24 74  1  0
 31 75  1  0
 31 76  1  0
 31 77  1  0
 40 78  1  0
 40 79  1  0
 40 80  1  0
 49 81  1  0
 49 82  1  0
 49 83  1  0
 54 84  1  0
 58 85  1  0
 58 86  1  0
 58 87  1  0
M  END

