
     RDKit          3D

202219  0  0  0  0  0  0  0  0999 V2000
   -0.5668   -4.9384   -7.7632 C   0  0  0  0  0  0  0  0  0  0  0  0
   -2.1640   -5.4252   -7.9443 S   0  0  0  0  0  0  0  0  0  0  0  0
   -1.9086   -7.0701   -7.7291 C   0  0  0  0  0  0  0  0  0  0  0  0
   -0.5529   -7.2769   -7.5060 C   0  0  0  0  0  0  0  0  0  0  0  0
    0.2056   -6.0711   -7.5145 C   0  0  0  0  0  0  0  0  0  0  0  0
    1.6723   -6.0326   -7.2949 C   0  0  0  0  0  0  0  0  0  0  0  0
    2.4050   -7.4649   -7.0961 S   0  0  0  0  0  4  0  0  0  0  0  0
    4.1304   -7.6173   -6.9680 O   0  0  0  0  0  0  0  0  0  0  0  0
    4.6042   -7.8766   -8.2631 C   0  0  0  0  0  0  0  0  0  0  0  0
    1.3114   -8.8784   -7.1062 C   0  0  0  0  0  0  0  0  0  0  0  0
    0.0010   -8.6461   -7.2995 C   0  0  0  0  0  0  0  0  0  0  0  0
    1.8514  -10.1575   -6.9114 O   0  0  0  0  0  0  0  0  0  0  0  0
    1.0859  -11.3568   -6.8347 C   0  0  0  0  0  0  0  0  0  0  0  0
    2.4592   -4.7879   -7.2292 C   0  0  0  0  0  0  0  0  0  0  0  0
    2.2302   -3.7977   -6.3525 C   0  0  0  0  0  0  0  0  0  0  0  0
    1.2550   -3.8575   -5.2445 C   0  0  0  0  0  0  0  0  0  0  0  0
    0.6406   -2.7433   -4.6742 C   0  0  0  0  0  0  0  0  0  0  0  0
   -0.2228   -3.0774   -3.6188 C   0  0  0  0  0  0  0  0  0  0  0  0
   -0.9814   -2.1783   -2.8456 C   0  0  0  0  0  0  0  0  0  0  0  0
   -0.8832   -0.7189   -3.0132 C   0  0  0  0  0  0  0  0  0  0  0  0
    0.0164    0.0121   -2.2234 C   0  0  0  0  0  0  0  0  0  0  0  0
    0.0759    1.4042   -2.3374 C   0  0  0  0  0  0  0  0  0  0  0  0
   -0.7561    2.0727   -3.2438 C   0  0  0  0  0  0  0  0  0  0  0  0
   -0.6984    3.8642   -3.3445 S   0  0  0  0  0  0  0  0  0  0  0  0
    0.7117    3.9329   -4.5055 C   0  0  0  0  0  0  0  0  0  0  0  0
    0.2464    3.7555   -5.9435 C   0  0  0  0  0  0  0  0  0  0  0  0
   -1.6605    1.3423   -4.0304 C   0  0  0  0  0  0  0  0  0  0  0  0
   -2.4966    1.9811   -4.8880 F   0  0  0  0  0  0  0  0  0  0  0  0
   -1.7217   -0.0514   -3.9171 C   0  0  0  0  0  0  0  0  0  0  0  0
   -1.7737   -2.7283   -1.8268 C   0  0  0  0  0  0  0  0  0  0  0  0
   -1.8030   -4.0968   -1.5436 C   0  0  0  0  0  0  0  0  0  0  0  0
   -1.0426   -5.0000   -2.3151 C   0  0  0  0  0  0  0  0  0  0  0  0
   -1.0539   -6.4556   -2.0630 C   0  0  0  0  0  0  0  0  0  0  0  0
   -1.5463   -7.3350   -3.0420 C   0  0  0  0  0  0  0  0  0  0  0  0
   -1.5466   -8.7135   -2.8115 C   0  0  0  0  0  0  0  0  0  0  0  0
   -1.0458   -9.2273   -1.6086 C   0  0  0  0  0  0  0  0  0  0  0  0
   -1.0810  -10.9998   -1.3192 S   0  0  0  0  0  0  0  0  0  0  0  0
    0.4954  -11.3481   -2.1796 C   0  0  0  0  0  0  0  0  0  0  0  0
    1.6809  -11.1210   -1.2537 C   0  0  0  0  0  0  0  0  0  0  0  0
   -0.5625   -8.3512   -0.6247 C   0  0  0  0  0  0  0  0  0  0  0  0
   -0.5596   -6.9714   -0.8549 C   0  0  0  0  0  0  0  0  0  0  0  0
   -0.1026   -8.8326    0.5568 F   0  0  0  0  0  0  0  0  0  0  0  0
   -0.2659   -4.4488   -3.3503 C   0  0  0  0  0  0  0  0  0  0  0  0
    0.7738   -5.2426   -4.4005 S   0  0  0  0  0  0  0  0  0  0  0  0
   -2.6232   -4.4133   -0.4480 C   0  0  0  0  0  0  0  0  0  0  0  0
   -3.2084   -3.2902    0.1360 C   0  0  0  0  0  0  0  0  0  0  0  0
   -2.7674   -1.9199   -0.7451 S   0  0  0  0  0  0  0  0  0  0  0  0
   -4.0495   -3.3255    1.3436 C   0  0  0  0  0  0  0  0  0  0  0  0
   -5.3857   -4.3342    1.4791 S   0  0  0  0  0  0  0  0  0  0  0  0
   -5.5466   -4.2581    3.1464 C   0  0  0  0  0  0  0  0  0  0  0  0
   -4.5079   -3.4816    3.6479 C   0  0  0  0  0  0  0  0  0  0  0  0
   -3.6899   -2.9015    2.6343 C   0  0  0  0  0  0  0  0  0  0  0  0
   -2.5193   -2.0431    2.9565 C   0  0  0  0  0  0  0  0  0  0  0  0
   -1.9598   -2.1483    4.4721 S   0  0  0  0  0  4  0  0  0  0  0  0
   -0.5917   -1.2229    5.0059 O   0  0  0  0  0  0  0  0  0  0  0  0
    0.3584   -2.1368    5.4797 C   0  0  0  0  0  0  0  0  0  0  0  0
   -3.1062   -2.8968    5.6188 C   0  0  0  0  0  0  0  0  0  0  0  0
   -4.2379   -3.4191    5.1128 C   0  0  0  0  0  0  0  0  0  0  0  0
   -2.8133   -2.8653    6.9896 O   0  0  0  0  0  0  0  0  0  0  0  0
   -3.6910   -3.3213    8.0112 C   0  0  0  0  0  0  0  0  0  0  0  0
   -2.0994   -0.8912    2.1380 C   0  0  0  0  0  0  0  0  0  0  0  0
   -2.9491    0.0763    1.7496 C   0  0  0  0  0  0  0  0  0  0  0  0
   -4.3764    0.0897    2.1277 C   0  0  0  0  0  0  0  0  0  0  0  0
   -5.6082   -0.3836    1.0882 S   0  0  0  0  0  0  0  0  0  0  0  0
   -6.7989   -0.5635    2.2573 C   0  0  0  0  0  0  0  0  0  0  0  0
   -6.2513   -0.2565    3.4999 C   0  0  0  0  0  0  0  0  0  0  0  0
   -4.8945    0.1673    3.4278 C   0  0  0  0  0  0  0  0  0  0  0  0
   -4.1395    0.6711    4.6042 C   0  0  0  0  0  0  0  0  0  0  0  0
   -4.8714    0.5132    6.0487 S   0  0  0  0  0  4  0  0  0  0  0  0
   -4.2743    1.3142    7.4716 O   0  0  0  0  0  0  0  0  0  0  0  0
   -3.9244    0.3160    8.3901 C   0  0  0  0  0  0  0  0  0  0  0  0
   -6.5310   -0.1487    5.9706 C   0  0  0  0  0  0  0  0  0  0  0  0
   -7.0331   -0.4316    4.7550 C   0  0  0  0  0  0  0  0  0  0  0  0
   -7.2528   -0.3159    7.1613 O   0  0  0  0  0  0  0  0  0  0  0  0
   -8.6004   -0.7720    7.2318 C   0  0  0  0  0  0  0  0  0  0  0  0
   -2.9499    1.5240    4.4361 C   0  0  0  0  0  0  0  0  0  0  0  0
   -1.9081    1.5143    5.2761 C   0  0  0  0  0  0  0  0  0  0  0  0
   -0.6635    2.2373    4.9571 C   0  0  0  0  0  0  0  0  0  0  0  0
   -0.5317    3.2747    4.0337 C   0  0  0  0  0  0  0  0  0  0  0  0
    0.8027    3.6172    3.7820 C   0  0  0  0  0  0  0  0  0  0  0  0
    1.2429    4.5497    2.8260 C   0  0  0  0  0  0  0  0  0  0  0  0
    0.2978    5.3323    2.0088 C   0  0  0  0  0  0  0  0  0  0  0  0
   -0.4620    4.7072    1.0076 C   0  0  0  0  0  0  0  0  0  0  0  0
   -1.3859    5.4488    0.2655 C   0  0  0  0  0  0  0  0  0  0  0  0
   -1.5582    6.8157    0.5194 C   0  0  0  0  0  0  0  0  0  0  0  0
   -2.7897    7.7448   -0.4005 S   0  0  0  0  0  0  0  0  0  0  0  0
   -1.6094    8.4879   -1.5814 C   0  0  0  0  0  0  0  0  0  0  0  0
   -1.1798    7.4842   -2.6432 C   0  0  0  0  0  0  0  0  0  0  0  0
   -0.8004    7.4410    1.5197 C   0  0  0  0  0  0  0  0  0  0  0  0
   -0.9651    8.7617    1.7844 F   0  0  0  0  0  0  0  0  0  0  0  0
    0.1319    6.7030    2.2550 C   0  0  0  0  0  0  0  0  0  0  0  0
    2.6266    4.6820    2.6579 C   0  0  0  0  0  0  0  0  0  0  0  0
    3.5532    3.9428    3.4003 C   0  0  0  0  0  0  0  0  0  0  0  0
    3.1142    3.0177    4.3768 C   0  0  0  0  0  0  0  0  0  0  0  0
    4.0599    2.1716    5.1388 C   0  0  0  0  0  0  0  0  0  0  0  0
    4.9288    1.2973    4.4667 C   0  0  0  0  0  0  0  0  0  0  0  0
    5.8494    0.5286    5.1822 C   0  0  0  0  0  0  0  0  0  0  0  0
    5.9024    0.6113    6.5772 C   0  0  0  0  0  0  0  0  0  0  0  0
    7.1133   -0.3629    7.4735 S   0  0  0  0  0  0  0  0  0  0  0  0
    5.9995   -1.7926    7.6885 C   0  0  0  0  0  0  0  0  0  0  0  0
    6.7817   -2.9808    8.2314 C   0  0  0  0  0  0  0  0  0  0  0  0
    5.0262    1.4691    7.2594 C   0  0  0  0  0  0  0  0  0  0  0  0
    4.1084    2.2458    6.5416 C   0  0  0  0  0  0  0  0  0  0  0  0
    5.0668    1.5591    8.6118 F   0  0  0  0  0  0  0  0  0  0  0  0
    1.7206    2.8824    4.5403 C   0  0  0  0  0  0  0  0  0  0  0  0
    0.8724    1.7829    5.4970 S   0  0  0  0  0  0  0  0  0  0  0  0
    4.8826    4.1858    3.0088 C   0  0  0  0  0  0  0  0  0  0  0  0
    4.9841    5.0952    1.9550 C   0  0  0  0  0  0  0  0  0  0  0  0
    3.4341    5.5859    1.4974 S   0  0  0  0  0  0  0  0  0  0  0  0
    6.2006    5.3172    1.1558 C   0  0  0  0  0  0  0  0  0  0  0  0
    7.2288    4.0537    0.7371 S   0  0  0  0  0  0  0  0  0  0  0  0
    8.1015    4.8711   -0.4334 C   0  0  0  0  0  0  0  0  0  0  0  0
    7.5971    6.1620   -0.5355 C   0  0  0  0  0  0  0  0  0  0  0  0
    6.5465    6.4442    0.3893 C   0  0  0  0  0  0  0  0  0  0  0  0
    5.9405    7.8000    0.5264 C   0  0  0  0  0  0  0  0  0  0  0  0
    6.3878    8.9018   -0.5930 S   0  0  0  0  0  4  0  0  0  0  0  0
    5.9890   10.5872   -0.4389 O   0  0  0  0  0  0  0  0  0  0  0  0
    5.3368   10.9677   -1.6206 C   0  0  0  0  0  0  0  0  0  0  0  0
    7.6420    8.3401   -1.7351 C   0  0  0  0  0  0  0  0  0  0  0  0
    8.1090    7.0915   -1.5800 C   0  0  0  0  0  0  0  0  0  0  0  0
    8.1052    9.2199   -2.7254 O   0  0  0  0  0  0  0  0  0  0  0  0
    9.0546    8.8756   -3.7315 C   0  0  0  0  0  0  0  0  0  0  0  0
    5.1877    8.2122    1.7308 C   0  0  0  0  0  0  0  0  0  0  0  0
    4.2116    9.1189    1.7019 C   0  0  0  0  0  0  0  0  0  0  0  0
   -0.2132   -3.9178   -7.8286 H   0  0  0  0  0  0  0  0  0  0  0  0
   -2.6701   -7.8393   -7.7718 H   0  0  0  0  0  0  0  0  0  0  0  0
    4.1368   -8.7922   -8.6887 H   0  0  0  0  0  0  0  0  0  0  0  0
    4.4165   -7.0047   -8.9270 H   0  0  0  0  0  0  0  0  0  0  0  0
    5.6999   -8.0405   -8.2170 H   0  0  0  0  0  0  0  0  0  0  0  0
   -0.6935   -9.4748   -7.3134 H   0  0  0  0  0  0  0  0  0  0  0  0
    0.3681  -11.2962   -5.9892 H   0  0  0  0  0  0  0  0  0  0  0  0
    0.5410  -11.5235   -7.7879 H   0  0  0  0  0  0  0  0  0  0  0  0
    1.7678  -12.2137   -6.6616 H   0  0  0  0  0  0  0  0  0  0  0  0
    3.2697   -4.6709   -7.9379 H   0  0  0  0  0  0  0  0  0  0  0  0
    2.8068   -2.8866   -6.4588 H   0  0  0  0  0  0  0  0  0  0  0  0
    0.8064   -1.7309   -5.0179 H   0  0  0  0  0  0  0  0  0  0  0  0
    0.6575   -0.4936   -1.5131 H   0  0  0  0  0  0  0  0  0  0  0  0
    0.7647    1.9617   -1.7177 H   0  0  0  0  0  0  0  0  0  0  0  0
    1.1925    4.9299   -4.4042 H   0  0  0  0  0  0  0  0  0  0  0  0
    1.4710    3.1606   -4.2542 H   0  0  0  0  0  0  0  0  0  0  0  0
   -0.1731    2.7393   -6.0939 H   0  0  0  0  0  0  0  0  0  0  0  0
    1.1066    3.8863   -6.6323 H   0  0  0  0  0  0  0  0  0  0  0  0
   -0.5264    4.5142   -6.1908 H   0  0  0  0  0  0  0  0  0  0  0  0
   -2.4325   -0.6094   -4.5159 H   0  0  0  0  0  0  0  0  0  0  0  0
   -1.9334   -6.9523   -3.9793 H   0  0  0  0  0  0  0  0  0  0  0  0
   -1.9285   -9.3827   -3.5721 H   0  0  0  0  0  0  0  0  0  0  0  0
    0.5968  -10.7246   -3.0939 H   0  0  0  0  0  0  0  0  0  0  0  0
    0.4867  -12.4135   -2.4944 H   0  0  0  0  0  0  0  0  0  0  0  0
    1.5571  -11.7061   -0.3179 H   0  0  0  0  0  0  0  0  0  0  0  0
    2.6154  -11.4480   -1.7586 H   0  0  0  0  0  0  0  0  0  0  0  0
    1.7747  -10.0439   -1.0034 H   0  0  0  0  0  0  0  0  0  0  0  0
   -0.1712   -6.3039   -0.0938 H   0  0  0  0  0  0  0  0  0  0  0  0
   -2.7657   -5.4153   -0.0667 H   0  0  0  0  0  0  0  0  0  0  0  0
   -6.2750   -4.8016    3.7324 H   0  0  0  0  0  0  0  0  0  0  0  0
    0.6377   -2.8675    4.6891 H   0  0  0  0  0  0  0  0  0  0  0  0
    1.2750   -1.5836    5.7685 H   0  0  0  0  0  0  0  0  0  0  0  0
   -0.0217   -2.6651    6.3791 H   0  0  0  0  0  0  0  0  0  0  0  0
   -4.9655   -3.8693    5.7756 H   0  0  0  0  0  0  0  0  0  0  0  0
   -4.6698   -2.7993    7.9396 H   0  0  0  0  0  0  0  0  0  0  0  0
   -3.2437   -3.1007    9.0008 H   0  0  0  0  0  0  0  0  0  0  0  0
   -3.8419   -4.4181    7.9232 H   0  0  0  0  0  0  0  0  0  0  0  0
   -1.0497   -0.7931    1.8883 H   0  0  0  0  0  0  0  0  0  0  0  0
   -2.5829    0.8681    1.1112 H   0  0  0  0  0  0  0  0  0  0  0  0
   -7.8100   -0.9064    2.0771 H   0  0  0  0  0  0  0  0  0  0  0  0
   -3.6033    0.7994    9.3356 H   0  0  0  0  0  0  0  0  0  0  0  0
   -3.0740   -0.2830    8.0058 H   0  0  0  0  0  0  0  0  0  0  0  0
   -4.7933   -0.3375    8.6212 H   0  0  0  0  0  0  0  0  0  0  0  0
   -8.0409   -0.8180    4.6650 H   0  0  0  0  0  0  0  0  0  0  0  0
   -8.9158   -0.8102    8.2949 H   0  0  0  0  0  0  0  0  0  0  0  0
   -8.6796   -1.7935    6.8007 H   0  0  0  0  0  0  0  0  0  0  0  0
   -9.2697   -0.0740    6.6858 H   0  0  0  0  0  0  0  0  0  0  0  0
   -2.8975    2.0997    3.5242 H   0  0  0  0  0  0  0  0  0  0  0  0
   -1.9194    0.8648    6.1415 H   0  0  0  0  0  0  0  0  0  0  0  0
   -1.3668    3.7434    3.5329 H   0  0  0  0  0  0  0  0  0  0  0  0
   -0.3460    3.6473    0.8147 H   0  0  0  0  0  0  0  0  0  0  0  0
   -1.9746    4.9579   -0.4991 H   0  0  0  0  0  0  0  0  0  0  0  0
   -2.1144    9.3432   -2.0776 H   0  0  0  0  0  0  0  0  0  0  0  0
   -0.7176    8.8785   -1.0468 H   0  0  0  0  0  0  0  0  0  0  0  0
   -2.0702    7.0648   -3.1571 H   0  0  0  0  0  0  0  0  0  0  0  0
   -0.5932    6.6648   -2.1826 H   0  0  0  0  0  0  0  0  0  0  0  0
   -0.5396    7.9917   -3.3947 H   0  0  0  0  0  0  0  0  0  0  0  0
    0.7104    7.1932    3.0297 H   0  0  0  0  0  0  0  0  0  0  0  0
    4.8981    1.2181    3.3863 H   0  0  0  0  0  0  0  0  0  0  0  0
    6.5275   -0.1277    4.6514 H   0  0  0  0  0  0  0  0  0  0  0  0
    5.1935   -1.5224    8.4040 H   0  0  0  0  0  0  0  0  0  0  0  0
    5.5430   -2.0748    6.7153 H   0  0  0  0  0  0  0  0  0  0  0  0
    7.3022   -2.7054    9.1708 H   0  0  0  0  0  0  0  0  0  0  0  0
    6.0863   -3.8214    8.4380 H   0  0  0  0  0  0  0  0  0  0  0  0
    7.5292   -3.3176    7.4831 H   0  0  0  0  0  0  0  0  0  0  0  0
    3.4443    2.9148    7.0760 H   0  0  0  0  0  0  0  0  0  0  0  0
    5.7442    3.6907    3.4360 H   0  0  0  0  0  0  0  0  0  0  0  0
    8.8922    4.4478   -1.0372 H   0  0  0  0  0  0  0  0  0  0  0  0
    5.1039   12.0506   -1.5650 H   0  0  0  0  0  0  0  0  0  0  0  0
    4.3794   10.4157   -1.7318 H   0  0  0  0  0  0  0  0  0  0  0  0
    5.9844   10.8071   -2.5084 H   0  0  0  0  0  0  0  0  0  0  0  0
    8.8819    6.7222   -2.2403 H   0  0  0  0  0  0  0  0  0  0  0  0
   10.0341    8.6329   -3.2681 H   0  0  0  0  0  0  0  0  0  0  0  0
    8.6897    8.0082   -4.3204 H   0  0  0  0  0  0  0  0  0  0  0  0
    9.1877    9.7376   -4.4165 H   0  0  0  0  0  0  0  0  0  0  0  0
    5.4032    7.7242    2.6714 H   0  0  0  0  0  0  0  0  0  0  0  0
    3.9048    9.5910    0.7788 H   0  0  0  0  0  0  0  0  0  0  0  0
    3.6798    9.3661    2.6108 H   0  0  0  0  0  0  0  0  0  0  0  0
  1  2  1  0
  2  3  1  0
  3  4  2  0
  4  5  1  0
  5  6  1  0
  6  7  2  0
  7  8  1  0
  8  9  1  0
  7 10  1  0
 10 11  2  0
 10 12  1  0
 12 13  1  0
  6 14  1  0
 14 15  2  3
 15 16  1  0
 16 17  2  0
 17 18  1  0
 18 19  2  0
 19 20  1  0
 20 21  2  0
 21 22  1  0
 22 23  2  0
 23 24  1  0
 24 25  1  0
 25 26  1  0
 23 27  1  0
 27 28  1  0
 27 29  2  0
 19 30  1  0
 30 31  2  0
 31 32  1  0
 32 33  1  0
 33 34  2  0
 34 35  1  0
 35 36  2  0
 36 37  1  0
 37 38  1  0
 38 39  1  0
 36 40  1  0
 40 41  2  0
 40 42  1  0
 32 43  2  0
 43 44  1  0
 31 45  1  0
 45 46  2  0
 46 47  1  0
 46 48  1  0
 48 49  1  0
 49 50  1  0
 50 51  2  0
 51 52  1  0
 52 53  1  0
 53 54  2  0
 54 55  1  0
 55 56  1  0
 54 57  1  0
 57 58  2  0
 57 59  1  0
 59 60  1  0
 53 61  1  0
 61 62  2  3
 62 63  1  0
 63 64  1  0
 64 65  1  0
 65 66  2  0
 66 67  1  0
 67 68  1  0
 68 69  2  0
 69 70  1  0
 70 71  1  0
 69 72  1  0
 72 73  2  0
 72 74  1  0
 74 75  1  0
 68 76  1  0
 76 77  2  3
 77 78  1  0
 78 79  2  0
 79 80  1  0
 80 81  2  0
 81 82  1  0
 82 83  2  0
 83 84  1  0
 84 85  2  0
 85 86  1  0
 86 87  1  0
 87 88  1  0
 85 89  1  0
 89 90  1  0
 89 91  2  0
 81 92  1  0
 92 93  2  0
 93 94  1  0
 94 95  1  0
 95 96  2  0
 96 97  1  0
 97 98  2  0
 98 99  1  0
 99100  1  0
100101  1  0
 98102  1  0
102103  2  0
102104  1  0
 94105  2  0
105106  1  0
 93107  1  0
107108  2  0
108109  1  0
108110  1  0
110111  1  0
111112  1  0
112113  2  0
113114  1  0
114115  1  0
115116  2  0
116117  1  0
117118  1  0
116119  1  0
119120  2  0
119121  1  0
121122  1  0
115123  1  0
123124  2  3
  5  1  2  0
 44 16  1  0
 52 48  2  0
 67 63  2  0
106 78  1  0
114110  2  0
 11  4  1  0
 43 18  1  0
 58 51  1  0
 73 66  1  0
105 80  1  0
120113  1  0
 29 20  1  0
 47 30  1  0
 91 82  1  0
109 92  1  0
 41 33  1  0
103 95  1  0
  1125  1  0
  3126  1  0
  9127  1  0
  9128  1  0
  9129  1  0
 11130  1  0
 13131  1  0
 13132  1  0
 13133  1  0
 14134  1  0
 15135  1  0
 17136  1  0
 21137  1  0
 22138  1  0
 25139  1  0
 25140  1  0
 26141  1  0
 26142  1  0
 26143  1  0
 29144  1  0
 34145  1  0
 35146  1  0
 38147  1  0
 38148  1  0
 39149  1  0
 39150  1  0
 39151  1  0
 41152  1  0
 45153  1  0
 50154  1  0
 56155  1  0
 56156  1  0
 56157  1  0
 58158  1  0
 60159  1  0
 60160  1  0
 60161  1  0
 61162  1  0
 62163  1  0
 65164  1  0
 71165  1  0
 71166  1  0
 71167  1  0
 73168  1  0
 75169  1  0
 75170  1  0
 75171  1  0
 76172  1  0
 77173  1  0
 79174  1  0
 83175  1  0
 84176  1  0
 87177  1  0
 87178  1  0
 88179  1  0
 88180  1  0
 88181  1  0
 91182  1  0
 96183  1  0
 97184  1  0
100185  1  0
100186  1  0
101187  1  0
101188  1  0
101189  1  0
103190  1  0
107191  1  0
112192  1  0
118193  1  0
118194  1  0
118195  1  0
120196  1  0
122197  1  0
122198  1  0
122199  1  0
123200  1  0
124201  1  0
124202  1  0
M  END

