
     RDKit          3D

252275  0  0  0  0  0  0  0  0999 V2000
   -0.7980   -2.1025    5.0870 C   0  0  0  0  0  0  0  0  0  0  0  0
   -0.3638   -0.8700    4.6110 C   0  0  0  0  0  0  0  0  0  0  0  0
   -1.3259   -0.2041    3.8301 C   0  0  0  0  0  0  0  0  0  0  0  0
   -1.1649    1.0311    3.1735 C   0  0  0  0  0  0  0  0  0  0  0  0
    0.0500    1.8560    3.3640 C   0  0  0  0  0  0  0  0  0  0  0  0
    0.8244    2.2620    2.2681 C   0  0  0  0  0  0  0  0  0  0  0  0
    1.9860    3.0107    2.4681 C   0  0  0  0  0  0  0  0  0  0  0  0
    2.3863    3.3678    3.7579 C   0  0  0  0  0  0  0  0  0  0  0  0
    3.8666    4.3608    3.9999 S   0  0  0  0  0  0  0  0  0  0  0  0
    5.0581    3.0205    3.6493 C   0  0  0  0  0  0  0  0  0  0  0  0
    5.1756    2.0670    4.8318 C   0  0  0  0  0  0  0  0  0  0  0  0
    1.6118    2.9739    4.8574 C   0  0  0  0  0  0  0  0  0  0  0  0
    1.9611    3.3481    6.1147 F   0  0  0  0  0  0  0  0  0  0  0  0
    0.4480    2.2314    4.6623 C   0  0  0  0  0  0  0  0  0  0  0  0
   -2.2405    1.4678    2.3747 C   0  0  0  0  0  0  0  0  0  0  0  0
   -3.4510    0.7739    2.2699 C   0  0  0  0  0  0  0  0  0  0  0  0
   -3.5994   -0.4710    2.9251 C   0  0  0  0  0  0  0  0  0  0  0  0
   -4.7665   -1.3494    2.7434 C   0  0  0  0  0  0  0  0  0  0  0  0
   -5.5940   -1.6407    3.8352 C   0  0  0  0  0  0  0  0  0  0  0  0
   -6.5040   -2.6996    3.7677 C   0  0  0  0  0  0  0  0  0  0  0  0
   -6.5660   -3.5016    2.6216 C   0  0  0  0  0  0  0  0  0  0  0  0
   -7.6713   -4.9150    2.5773 S   0  0  0  0  0  0  0  0  0  0  0  0
   -6.3812   -6.1611    2.9507 C   0  0  0  0  0  0  0  0  0  0  0  0
   -6.0118   -6.1639    4.4306 C   0  0  0  0  0  0  0  0  0  0  0  0
   -5.7444   -3.2032    1.5247 C   0  0  0  0  0  0  0  0  0  0  0  0
   -4.8687   -2.1167    1.5735 C   0  0  0  0  0  0  0  0  0  0  0  0
   -5.7229   -4.0270    0.4498 F   0  0  0  0  0  0  0  0  0  0  0  0
   -2.5143   -0.9235    3.6954 C   0  0  0  0  0  0  0  0  0  0  0  0
   -2.3681   -2.3747    4.5378 S   0  0  0  0  0  0  0  0  0  0  0  0
   -4.4325    1.4539    1.5136 C   0  0  0  0  0  0  0  0  0  0  0  0
   -3.9769    2.6729    0.9759 C   0  0  0  0  0  0  0  0  0  0  0  0
   -2.3737    2.8803    1.4942 S   0  0  0  0  0  0  0  0  0  0  0  0
   -4.6925    3.7546    0.2273 C   0  0  0  0  0  0  0  0  0  0  0  0
   -3.8414    5.1396   -0.2300 S   0  0  0  0  0  0  0  0  0  0  0  0
   -5.1293    6.1451   -0.5272 C   0  0  0  0  0  0  0  0  0  0  0  0
   -6.2870    5.4351   -0.2640 C   0  0  0  0  0  0  0  0  0  0  0  0
   -6.0733    4.0564    0.0769 C   0  0  0  0  0  0  0  0  0  0  0  0
   -7.2166    3.0959    0.1425 C   0  0  0  0  0  0  0  0  0  0  0  0
   -8.7102    3.7737    0.2515 S   0  0  0  0  0  4  0  0  0  0  0  0
  -10.1702    2.8593    0.0074 O   0  0  0  0  0  0  0  0  0  0  0  0
  -10.9676    3.0445    1.1446 C   0  0  0  0  0  0  0  0  0  0  0  0
   -8.7418    5.5451    0.0697 C   0  0  0  0  0  0  0  0  0  0  0  0
   -7.5874    6.1576   -0.2159 C   0  0  0  0  0  0  0  0  0  0  0  0
   -9.9629    6.2229    0.1934 O   0  0  0  0  0  0  0  0  0  0  0  0
  -10.1038    7.6379    0.1969 C   0  0  0  0  0  0  0  0  0  0  0  0
   -7.0757    1.7057   -0.3383 C   0  0  0  0  0  0  0  0  0  0  0  0
   -8.0160    0.7636   -0.1706 C   0  0  0  0  0  0  0  0  0  0  0  0
   -7.9488   -0.5973   -0.7482 C   0  0  0  0  0  0  0  0  0  0  0  0
   -8.8038   -1.8792   -0.0751 S   0  0  0  0  0  0  0  0  0  0  0  0
   -8.0984   -3.1003   -0.9792 C   0  0  0  0  0  0  0  0  0  0  0  0
   -7.1355   -2.5253   -1.8037 C   0  0  0  0  0  0  0  0  0  0  0  0
   -7.1278   -1.1097   -1.7656 C   0  0  0  0  0  0  0  0  0  0  0  0
   -6.3200   -0.2912   -2.6956 C   0  0  0  0  0  0  0  0  0  0  0  0
   -4.9510   -1.0284   -3.1890 S   0  0  0  0  0  4  0  0  0  0  0  0
   -3.4495   -0.1689   -3.3405 O   0  0  0  0  0  0  0  0  0  0  0  0
   -2.9548    0.0252   -2.0420 C   0  0  0  0  0  0  0  0  0  0  0  0
   -4.9560   -2.8038   -2.9410 C   0  0  0  0  0  0  0  0  0  0  0  0
   -6.0667   -3.3513   -2.4239 C   0  0  0  0  0  0  0  0  0  0  0  0
   -3.8300   -3.5493   -3.3180 O   0  0  0  0  0  0  0  0  0  0  0  0
   -3.6538   -4.9386   -3.0420 C   0  0  0  0  0  0  0  0  0  0  0  0
   -6.9695    0.8929   -3.3485 C   0  0  0  0  0  0  0  0  0  0  0  0
   -6.5262    1.7298   -4.3035 C   0  0  0  0  0  0  0  0  0  0  0  0
   -5.1866    1.7789   -4.8831 C   0  0  0  0  0  0  0  0  0  0  0  0
   -4.5819    0.8312   -5.7085 C   0  0  0  0  0  0  0  0  0  0  0  0
   -3.2325    1.1322   -5.9691 C   0  0  0  0  0  0  0  0  0  0  0  0
   -2.2797    0.2422   -6.5087 C   0  0  0  0  0  0  0  0  0  0  0  0
   -2.6650   -1.1015   -6.9740 C   0  0  0  0  0  0  0  0  0  0  0  0
   -3.3937   -1.2445   -8.1619 C   0  0  0  0  0  0  0  0  0  0  0  0
   -3.7561   -2.5157   -8.6129 C   0  0  0  0  0  0  0  0  0  0  0  0
   -3.4040   -3.6512   -7.8748 C   0  0  0  0  0  0  0  0  0  0  0  0
   -3.8981   -5.2834   -8.4419 S   0  0  0  0  0  0  0  0  0  0  0  0
   -5.5952   -5.1838   -7.7564 C   0  0  0  0  0  0  0  0  0  0  0  0
   -5.5963   -5.3006   -6.2336 C   0  0  0  0  0  0  0  0  0  0  0  0
   -2.6582   -3.5124   -6.6954 C   0  0  0  0  0  0  0  0  0  0  0  0
   -2.2845   -4.6048   -5.9873 F   0  0  0  0  0  0  0  0  0  0  0  0
   -2.3023   -2.2403   -6.2396 C   0  0  0  0  0  0  0  0  0  0  0  0
   -0.9294    0.6309   -6.4254 C   0  0  0  0  0  0  0  0  0  0  0  0
   -0.5384    1.8747   -5.9263 C   0  0  0  0  0  0  0  0  0  0  0  0
   -1.4925    2.7878   -5.4338 C   0  0  0  0  0  0  0  0  0  0  0  0
   -1.0930    4.0810   -4.8265 C   0  0  0  0  0  0  0  0  0  0  0  0
   -1.3322    4.3410   -3.4658 C   0  0  0  0  0  0  0  0  0  0  0  0
   -0.9901    5.5794   -2.9165 C   0  0  0  0  0  0  0  0  0  0  0  0
   -0.4011    6.5671   -3.7164 C   0  0  0  0  0  0  0  0  0  0  0  0
   -0.0205    8.1795   -3.0236 S   0  0  0  0  0  0  0  0  0  0  0  0
   -1.6551    8.9138   -3.3979 C   0  0  0  0  0  0  0  0  0  0  0  0
   -2.6174    8.7073   -2.2333 C   0  0  0  0  0  0  0  0  0  0  0  0
   -0.1179    6.2944   -5.0618 C   0  0  0  0  0  0  0  0  0  0  0  0
   -0.4612    5.0565   -5.6108 C   0  0  0  0  0  0  0  0  0  0  0  0
    0.4848    7.2296   -5.8385 F   0  0  0  0  0  0  0  0  0  0  0  0
   -2.8293    2.3620   -5.4325 C   0  0  0  0  0  0  0  0  0  0  0  0
   -4.1222    3.0534   -4.6122 S   0  0  0  0  0  0  0  0  0  0  0  0
    0.8442    1.9792   -5.7362 C   0  0  0  0  0  0  0  0  0  0  0  0
    1.5396    0.7870   -5.9684 C   0  0  0  0  0  0  0  0  0  0  0  0
    0.4343   -0.3512   -6.5593 S   0  0  0  0  0  0  0  0  0  0  0  0
    2.7370    0.4083   -5.1949 C   0  0  0  0  0  0  0  0  0  0  0  0
    3.1305    1.1079   -4.0576 C   0  0  0  0  0  0  0  0  0  0  0  0
    3.8487    0.3383   -3.1439 C   0  0  0  0  0  0  0  0  0  0  0  0
    4.1600    0.7324   -1.8290 C   0  0  0  0  0  0  0  0  0  0  0  0
    3.7132    2.0429   -1.3108 C   0  0  0  0  0  0  0  0  0  0  0  0
    4.6316    3.0915   -1.1690 C   0  0  0  0  0  0  0  0  0  0  0  0
    4.1759    4.3987   -0.9881 C   0  0  0  0  0  0  0  0  0  0  0  0
    2.8013    4.6660   -0.9420 C   0  0  0  0  0  0  0  0  0  0  0  0
    2.2234    6.3688   -0.9560 S   0  0  0  0  0  0  0  0  0  0  0  0
    1.9824    6.5049    0.8470 C   0  0  0  0  0  0  0  0  0  0  0  0
    3.2920    6.8671    1.5345 C   0  0  0  0  0  0  0  0  0  0  0  0
    1.8858    3.6107   -1.0122 C   0  0  0  0  0  0  0  0  0  0  0  0
    0.5522    3.8505   -0.9347 F   0  0  0  0  0  0  0  0  0  0  0  0
    2.3407    2.3018   -1.1827 C   0  0  0  0  0  0  0  0  0  0  0  0
    4.8049   -0.2134   -1.0217 C   0  0  0  0  0  0  0  0  0  0  0  0
    5.1317   -1.4956   -1.4833 C   0  0  0  0  0  0  0  0  0  0  0  0
    4.8194   -1.8912   -2.8059 C   0  0  0  0  0  0  0  0  0  0  0  0
    5.2049   -3.2163   -3.3327 C   0  0  0  0  0  0  0  0  0  0  0  0
    6.5606   -3.5743   -3.3923 C   0  0  0  0  0  0  0  0  0  0  0  0
    6.9409   -4.8179   -3.9040 C   0  0  0  0  0  0  0  0  0  0  0  0
    5.9734   -5.7136   -4.3728 C   0  0  0  0  0  0  0  0  0  0  0  0
    6.4792   -7.3263   -4.9896 S   0  0  0  0  0  0  0  0  0  0  0  0
    6.8380   -6.7777   -6.6952 C   0  0  0  0  0  0  0  0  0  0  0  0
    5.5618   -6.7084   -7.5225 C   0  0  0  0  0  0  0  0  0  0  0  0
    4.6158   -5.3688   -4.3008 C   0  0  0  0  0  0  0  0  0  0  0  0
    4.2361   -4.1222   -3.7876 C   0  0  0  0  0  0  0  0  0  0  0  0
    3.6607   -6.2394   -4.7180 F   0  0  0  0  0  0  0  0  0  0  0  0
    4.1364   -0.9477   -3.6003 C   0  0  0  0  0  0  0  0  0  0  0  0
    3.4027   -1.1491   -5.1068 S   0  0  0  0  0  0  0  0  0  0  0  0
    5.6753   -2.3140   -0.4796 C   0  0  0  0  0  0  0  0  0  0  0  0
    5.7659   -1.6685    0.7561 C   0  0  0  0  0  0  0  0  0  0  0  0
    5.1836   -0.0914    0.6084 S   0  0  0  0  0  0  0  0  0  0  0  0
    6.1628   -2.2895    2.0251 C   0  0  0  0  0  0  0  0  0  0  0  0
    6.5393   -3.6196    2.2118 C   0  0  0  0  0  0  0  0  0  0  0  0
    6.7879   -3.9372    3.5600 C   0  0  0  0  0  0  0  0  0  0  0  0
    7.1728   -5.1976    4.0714 C   0  0  0  0  0  0  0  0  0  0  0  0
    7.3384   -6.3791    3.1953 C   0  0  0  0  0  0  0  0  0  0  0  0
    8.2335   -6.3489    2.1133 C   0  0  0  0  0  0  0  0  0  0  0  0
    8.3276   -7.4415    1.2465 C   0  0  0  0  0  0  0  0  0  0  0  0
    7.5348   -8.5766    1.4565 C   0  0  0  0  0  0  0  0  0  0  0  0
    7.6716   -9.9802    0.3400 S   0  0  0  0  0  0  0  0  0  0  0  0
    6.2196   -9.5259   -0.6721 C   0  0  0  0  0  0  0  0  0  0  0  0
    6.5659   -8.4343   -1.6732 C   0  0  0  0  0  0  0  0  0  0  0  0
    6.6641   -8.6241    2.5515 C   0  0  0  0  0  0  0  0  0  0  0  0
    5.8970   -9.7214    2.7728 F   0  0  0  0  0  0  0  0  0  0  0  0
    6.5569   -7.5263    3.4083 C   0  0  0  0  0  0  0  0  0  0  0  0
    7.3247   -5.2922    5.4713 C   0  0  0  0  0  0  0  0  0  0  0  0
    7.0898   -4.2161    6.3331 C   0  0  0  0  0  0  0  0  0  0  0  0
    6.6852   -2.9635    5.8222 C   0  0  0  0  0  0  0  0  0  0  0  0
    6.3178   -1.8310    6.7049 C   0  0  0  0  0  0  0  0  0  0  0  0
    7.2538   -1.2751    7.5877 C   0  0  0  0  0  0  0  0  0  0  0  0
    6.8895   -0.2098    8.4202 C   0  0  0  0  0  0  0  0  0  0  0  0
    5.5901    0.3051    8.3779 C   0  0  0  0  0  0  0  0  0  0  0  0
    5.1255    1.6576    9.4678 S   0  0  0  0  0  0  0  0  0  0  0  0
    4.3761    0.5834   10.7425 C   0  0  0  0  0  0  0  0  0  0  0  0
    5.4371   -0.1550   11.5480 C   0  0  0  0  0  0  0  0  0  0  0  0
    4.6607   -0.2278    7.4743 C   0  0  0  0  0  0  0  0  0  0  0  0
    5.0206   -1.2965    6.6481 C   0  0  0  0  0  0  0  0  0  0  0  0
    3.4021    0.2715    7.4078 F   0  0  0  0  0  0  0  0  0  0  0  0
    6.5673   -2.8598    4.4252 C   0  0  0  0  0  0  0  0  0  0  0  0
    6.1113   -1.5187    3.5242 S   0  0  0  0  0  0  0  0  0  0  0  0
    7.2528   -4.5507    7.6880 C   0  0  0  0  0  0  0  0  0  0  0  0
    7.6483   -5.8717    7.8815 C   0  0  0  0  0  0  0  0  0  0  0  0
    7.7720   -6.6334    6.3846 S   0  0  0  0  0  0  0  0  0  0  0  0
   -0.2162   -2.7788    5.6987 H   0  0  0  0  0  0  0  0  0  0  0  0
    0.6281   -0.4884    4.8035 H   0  0  0  0  0  0  0  0  0  0  0  0
    0.5354    1.9854    1.2635 H   0  0  0  0  0  0  0  0  0  0  0  0
    2.5857    3.3088    1.6239 H   0  0  0  0  0  0  0  0  0  0  0  0
    4.7654    2.4634    2.7338 H   0  0  0  0  0  0  0  0  0  0  0  0
    6.0501    3.4862    3.4609 H   0  0  0  0  0  0  0  0  0  0  0  0
    4.2112    1.5479    5.0081 H   0  0  0  0  0  0  0  0  0  0  0  0
    5.4700    2.6266    5.7417 H   0  0  0  0  0  0  0  0  0  0  0  0
    5.9565    1.3107    4.6193 H   0  0  0  0  0  0  0  0  0  0  0  0
   -0.1473    1.9434    5.5213 H   0  0  0  0  0  0  0  0  0  0  0  0
   -5.4932   -1.0839    4.7588 H   0  0  0  0  0  0  0  0  0  0  0  0
   -7.1226   -2.9288    4.6255 H   0  0  0  0  0  0  0  0  0  0  0  0
   -5.4735   -5.9862    2.3343 H   0  0  0  0  0  0  0  0  0  0  0  0
   -6.7851   -7.1635    2.6863 H   0  0  0  0  0  0  0  0  0  0  0  0
   -5.3356   -7.0207    4.6424 H   0  0  0  0  0  0  0  0  0  0  0  0
   -5.4887   -5.2216    4.7029 H   0  0  0  0  0  0  0  0  0  0  0  0
   -6.9252   -6.2691    5.0529 H   0  0  0  0  0  0  0  0  0  0  0  0
   -4.2088   -1.9301    0.7362 H   0  0  0  0  0  0  0  0  0  0  0  0
   -5.4355    1.0810    1.4275 H   0  0  0  0  0  0  0  0  0  0  0  0
   -5.0661    7.1954   -0.7869 H   0  0  0  0  0  0  0  0  0  0  0  0
  -10.4297    2.7294    2.0687 H   0  0  0  0  0  0  0  0  0  0  0  0
  -11.8725    2.4143    1.0517 H   0  0  0  0  0  0  0  0  0  0  0  0
  -11.3006    4.0996    1.2277 H   0  0  0  0  0  0  0  0  0  0  0  0
   -7.5736    7.2290   -0.3778 H   0  0  0  0  0  0  0  0  0  0  0  0
   -9.7749    8.0564   -0.7782 H   0  0  0  0  0  0  0  0  0  0  0  0
   -9.5068    8.0769    1.0217 H   0  0  0  0  0  0  0  0  0  0  0  0
  -11.1756    7.8977    0.3518 H   0  0  0  0  0  0  0  0  0  0  0  0
   -6.1499    1.4618   -0.8406 H   0  0  0  0  0  0  0  0  0  0  0  0
   -8.8423    0.9507    0.4951 H   0  0  0  0  0  0  0  0  0  0  0  0
   -8.2600   -4.1596   -0.8386 H   0  0  0  0  0  0  0  0  0  0  0  0
   -1.9866    0.5603   -2.1083 H   0  0  0  0  0  0  0  0  0  0  0  0
   -2.7841   -0.9520   -1.5316 H   0  0  0  0  0  0  0  0  0  0  0  0
   -3.6533    0.6581   -1.4502 H   0  0  0  0  0  0  0  0  0  0  0  0
   -6.1431   -4.4292   -2.3137 H   0  0  0  0  0  0  0  0  0  0  0  0
   -3.6807   -5.1120   -1.9448 H   0  0  0  0  0  0  0  0  0  0  0  0
   -4.4427   -5.5352   -3.5390 H   0  0  0  0  0  0  0  0  0  0  0  0
   -2.6656   -5.2641   -3.4320 H   0  0  0  0  0  0  0  0  0  0  0  0
   -7.9818    1.0983   -3.0103 H   0  0  0  0  0  0  0  0  0  0  0  0
   -7.1750    2.5518   -4.5749 H   0  0  0  0  0  0  0  0  0  0  0  0
   -5.0692   -0.0840   -6.0037 H   0  0  0  0  0  0  0  0  0  0  0  0
   -3.6846   -0.3765   -8.7343 H   0  0  0  0  0  0  0  0  0  0  0  0
   -4.3250   -2.6166   -9.5286 H   0  0  0  0  0  0  0  0  0  0  0  0
   -6.0875   -4.2356   -8.0671 H   0  0  0  0  0  0  0  0  0  0  0  0
   -6.1775   -6.0309   -8.1822 H   0  0  0  0  0  0  0  0  0  0  0  0
   -5.0111   -6.1908   -5.9161 H   0  0  0  0  0  0  0  0  0  0  0  0
   -6.6432   -5.4116   -5.8727 H   0  0  0  0  0  0  0  0  0  0  0  0
   -5.1680   -4.3849   -5.7698 H   0  0  0  0  0  0  0  0  0  0  0  0
   -1.7518   -2.1432   -5.3137 H   0  0  0  0  0  0  0  0  0  0  0  0
   -1.7857    3.5914   -2.8350 H   0  0  0  0  0  0  0  0  0  0  0  0
   -1.1832    5.7723   -1.8692 H   0  0  0  0  0  0  0  0  0  0  0  0
   -1.5069   10.0059   -3.5594 H   0  0  0  0  0  0  0  0  0  0  0  0
   -2.0902    8.4812   -4.3270 H   0  0  0  0  0  0  0  0  0  0  0  0
   -2.7909    7.6251   -2.0644 H   0  0  0  0  0  0  0  0  0  0  0  0
   -2.1985    9.1662   -1.3118 H   0  0  0  0  0  0  0  0  0  0  0  0
   -3.5907    9.1922   -2.4641 H   0  0  0  0  0  0  0  0  0  0  0  0
   -0.2437    4.8604   -6.6528 H   0  0  0  0  0  0  0  0  0  0  0  0
    1.3013    2.8432   -5.2740 H   0  0  0  0  0  0  0  0  0  0  0  0
    2.7964    2.1090   -3.8330 H   0  0  0  0  0  0  0  0  0  0  0  0
    5.6914    2.9093   -1.2776 H   0  0  0  0  0  0  0  0  0  0  0  0
    4.8886    5.2129   -0.9412 H   0  0  0  0  0  0  0  0  0  0  0  0
    1.5658    5.5695    1.2687 H   0  0  0  0  0  0  0  0  0  0  0  0
    1.2476    7.3214    1.0294 H   0  0  0  0  0  0  0  0  0  0  0  0
    3.7271    7.7731    1.0688 H   0  0  0  0  0  0  0  0  0  0  0  0
    4.0189    6.0293    1.4513 H   0  0  0  0  0  0  0  0  0  0  0  0
    3.0984    7.0693    2.6087 H   0  0  0  0  0  0  0  0  0  0  0  0
    1.6213    1.5015   -1.2963 H   0  0  0  0  0  0  0  0  0  0  0  0
    7.3201   -2.8871   -3.0465 H   0  0  0  0  0  0  0  0  0  0  0  0
    7.9907   -5.0804   -3.9381 H   0  0  0  0  0  0  0  0  0  0  0  0
    7.3504   -5.7925   -6.6945 H   0  0  0  0  0  0  0  0  0  0  0  0
    7.5246   -7.5221   -7.1500 H   0  0  0  0  0  0  0  0  0  0  0  0
    5.0162   -7.6760   -7.4639 H   0  0  0  0  0  0  0  0  0  0  0  0
    4.9089   -5.8891   -7.1600 H   0  0  0  0  0  0  0  0  0  0  0  0
    5.8214   -6.5170   -8.5872 H   0  0  0  0  0  0  0  0  0  0  0  0
    3.1831   -3.8699   -3.7358 H   0  0  0  0  0  0  0  0  0  0  0  0
    5.9337   -3.3506   -0.6349 H   0  0  0  0  0  0  0  0  0  0  0  0
    6.6039   -4.3292    1.4009 H   0  0  0  0  0  0  0  0  0  0  0  0
    8.8512   -5.4781    1.9402 H   0  0  0  0  0  0  0  0  0  0  0  0
    9.0112   -7.3997    0.4091 H   0  0  0  0  0  0  0  0  0  0  0  0
    5.3778   -9.1959   -0.0298 H   0  0  0  0  0  0  0  0  0  0  0  0
    5.8975  -10.4304   -1.2329 H   0  0  0  0  0  0  0  0  0  0  0  0
    7.4656   -8.7216   -2.2551 H   0  0  0  0  0  0  0  0  0  0  0  0
    6.7583   -7.4713   -1.1542 H   0  0  0  0  0  0  0  0  0  0  0  0
    5.7111   -8.2945   -2.3653 H   0  0  0  0  0  0  0  0  0  0  0  0
    5.8607   -7.5689    4.2348 H   0  0  0  0  0  0  0  0  0  0  0  0
    8.2657   -1.6604    7.6360 H   0  0  0  0  0  0  0  0  0  0  0  0
    7.6133    0.2045    9.1085 H   0  0  0  0  0  0  0  0  0  0  0  0
    3.7910    1.2308   11.4307 H   0  0  0  0  0  0  0  0  0  0  0  0
    3.6793   -0.1422   10.2759 H   0  0  0  0  0  0  0  0  0  0  0  0
    5.8986   -0.9577   10.9368 H   0  0  0  0  0  0  0  0  0  0  0  0
    6.2262    0.5486   11.8820 H   0  0  0  0  0  0  0  0  0  0  0  0
    4.9689   -0.6227   12.4374 H   0  0  0  0  0  0  0  0  0  0  0  0
    4.2863   -1.7141    5.9710 H   0  0  0  0  0  0  0  0  0  0  0  0
    7.0835   -3.8698    8.5128 H   0  0  0  0  0  0  0  0  0  0  0  0
    7.8245   -6.3388    8.8443 H   0  0  0  0  0  0  0  0  0  0  0  0
  1  2  2  0
  2  3  1  0
  3  4  2  0
  4  5  1  0
  5  6  2  0
  6  7  1  0
  7  8  2  0
  8  9  1  0
  9 10  1  0
 10 11  1  0
  8 12  1  0
 12 13  1  0
 12 14  2  0
  4 15  1  0
 15 16  2  0
 16 17  1  0
 17 18  1  0
 18 19  2  0
 19 20  1  0
 20 21  2  0
 21 22  1  0
 22 23  1  0
 23 24  1  0
 21 25  1  0
 25 26  2  0
 25 27  1  0
 17 28  2  0
 28 29  1  0
 16 30  1  0
 30 31  2  0
 31 32  1  0
 31 33  1  0
 33 34  1  0
 34 35  1  0
 35 36  2  0
 36 37  1  0
 37 38  1  0
 38 39  2  0
 39 40  1  0
 40 41  1  0
 39 42  1  0
 42 43  2  0
 42 44  1  0
 44 45  1  0
 38 46  1  0
 46 47  2  3
 47 48  1  0
 48 49  1  0
 49 50  1  0
 50 51  2  0
 51 52  1  0
 52 53  1  0
 53 54  2  0
 54 55  1  0
 55 56  1  0
 54 57  1  0
 57 58  2  0
 57 59  1  0
 59 60  1  0
 53 61  1  0
 61 62  2  3
 62 63  1  0
 63 64  2  0
 64 65  1  0
 65 66  2  0
 66 67  1  0
 67 68  2  0
 68 69  1  0
 69 70  2  0
 70 71  1  0
 71 72  1  0
 72 73  1  0
 70 74  1  0
 74 75  1  0
 74 76  2  0
 66 77  1  0
 77 78  2  0
 78 79  1  0
 79 80  1  0
 80 81  2  0
 81 82  1  0
 82 83  2  0
 83 84  1  0
 84 85  1  0
 85 86  1  0
 83 87  1  0
 87 88  2  0
 87 89  1  0
 79 90  2  0
 90 91  1  0
 78 92  1  0
 92 93  2  0
 93 94  1  0
 93 95  1  0
 95 96  2  0
 96 97  1  0
 97 98  2  0
 98 99  1  0
 99100  2  0
100101  1  0
101102  2  0
102103  1  0
103104  1  0
104105  1  0
102106  1  0
106107  1  0
106108  2  0
 98109  1  0
109110  2  0
110111  1  0
111112  1  0
112113  2  0
113114  1  0
114115  2  0
115116  1  0
116117  1  0
117118  1  0
115119  1  0
119120  2  0
119121  1  0
111122  2  0
122123  1  0
110124  1  0
124125  2  0
125126  1  0
125127  1  0
127128  2  0
128129  1  0
129130  2  0
130131  1  0
131132  2  0
132133  1  0
133134  2  0
134135  1  0
135136  1  0
136137  1  0
134138  1  0
138139  1  0
138140  2  0
130141  1  0
141142  2  0
142143  1  0
143144  1  0
144145  2  0
145146  1  0
146147  2  0
147148  1  0
148149  1  0
149150  1  0
147151  1  0
151152  2  0
151153  1  0
143154  2  0
154155  1  0
142156  1  0
156157  2  0
157158  1  0
 29  1  1  0
 37 33  2  0
 52 48  2  0
 91 63  1  0
123 95  1  0
155127  1  0
 28  3  1  0
 43 36  1  0
 58 51  1  0
 90 65  1  0
122 97  1  0
154129  1  0
 14  5  1  0
 32 15  1  0
 76 67  1  0
 94 77  1  0
108 99  1  0
126109  1  0
140131  1  0
158141  1  0
 26 18  1  0
 88 80  1  0
120112  1  0
152144  1  0
  1159  1  0
  2160  1  0
  6161  1  0
  7162  1  0
 10163  1  0
 10164  1  0
 11165  1  0
 11166  1  0
 11167  1  0
 14168  1  0
 19169  1  0
 20170  1  0
 23171  1  0
 23172  1  0
 24173  1  0
 24174  1  0
 24175  1  0
 26176  1  0
 30177  1  0
 35178  1  0
 41179  1  0
 41180  1  0
 41181  1  0
 43182  1  0
 45183  1  0
 45184  1  0
 45185  1  0
 46186  1  0
 47187  1  0
 50188  1  0
 56189  1  0
 56190  1  0
 56191  1  0
 58192  1  0
 60193  1  0
 60194  1  0
 60195  1  0
 61196  1  0
 62197  1  0
 64198  1  0
 68199  1  0
 69200  1  0
 72201  1  0
 72202  1  0
 73203  1  0
 73204  1  0
 73205  1  0
 76206  1  0
 81207  1  0
 82208  1  0
 85209  1  0
 85210  1  0
 86211  1  0
 86212  1  0
 86213  1  0
 88214  1  0
 92215  1  0
 96216  1  0
100217  1  0
101218  1  0
104219  1  0
104220  1  0
105221  1  0
105222  1  0
105223  1  0
108224  1  0
113225  1  0
114226  1  0
117227  1  0
117228  1  0
118229  1  0
118230  1  0
118231  1  0
120232  1  0
124233  1  0
128234  1  0
132235  1  0
133236  1  0
136237  1  0
136238  1  0
137239  1  0
137240  1  0
137241  1  0
140242  1  0
145243  1  0
146244  1  0
149245  1  0
149246  1  0
150247  1  0
150248  1  0
150249  1  0
152250  1  0
156251  1  0
157252  1  0
M  END

