
     RDKit          3D

277303  0  0  0  0  0  0  0  0999 V2000
    0.2096   -2.2796    1.1115 C   0  0  0  0  0  0  0  0  0  0  0  0
   -0.3168   -2.1660    2.3957 C   0  0  0  0  0  0  0  0  0  0  0  0
   -0.8381   -3.3748    2.8868 C   0  0  0  0  0  0  0  0  0  0  0  0
   -1.4107   -3.5857    4.1590 C   0  0  0  0  0  0  0  0  0  0  0  0
   -1.3972   -2.5382    5.1960 C   0  0  0  0  0  0  0  0  0  0  0  0
   -2.5958   -2.0064    5.6940 C   0  0  0  0  0  0  0  0  0  0  0  0
   -2.5664   -1.0308    6.6958 C   0  0  0  0  0  0  0  0  0  0  0  0
   -1.3404   -0.5827    7.2073 C   0  0  0  0  0  0  0  0  0  0  0  0
   -1.3157    0.6506    8.5135 S   0  0  0  0  0  0  0  0  0  0  0  0
   -1.4221    2.0887    7.3914 C   0  0  0  0  0  0  0  0  0  0  0  0
   -0.0484    2.4999    6.8806 C   0  0  0  0  0  0  0  0  0  0  0  0
   -0.1428   -1.1179    6.7163 C   0  0  0  0  0  0  0  0  0  0  0  0
    1.0505   -0.7098    7.2147 F   0  0  0  0  0  0  0  0  0  0  0  0
   -0.1720   -2.0886    5.7120 C   0  0  0  0  0  0  0  0  0  0  0  0
   -1.8855   -4.8822    4.4352 C   0  0  0  0  0  0  0  0  0  0  0  0
   -1.7808   -5.9322    3.5175 C   0  0  0  0  0  0  0  0  0  0  0  0
   -1.2016   -5.7189    2.2529 C   0  0  0  0  0  0  0  0  0  0  0  0
   -1.1387   -6.7845    1.2402 C   0  0  0  0  0  0  0  0  0  0  0  0
   -2.1144   -6.8421    0.2385 C   0  0  0  0  0  0  0  0  0  0  0  0
   -2.0773   -7.8561   -0.7201 C   0  0  0  0  0  0  0  0  0  0  0  0
   -1.0736   -8.8318   -0.6719 C   0  0  0  0  0  0  0  0  0  0  0  0
   -1.0528  -10.1499   -1.8935 S   0  0  0  0  0  0  0  0  0  0  0  0
   -1.9433  -11.3613   -0.8530 C   0  0  0  0  0  0  0  0  0  0  0  0
   -3.4386  -11.0691   -0.8132 C   0  0  0  0  0  0  0  0  0  0  0  0
   -0.0858   -8.7674    0.3218 C   0  0  0  0  0  0  0  0  0  0  0  0
   -0.1218   -7.7491    1.2807 C   0  0  0  0  0  0  0  0  0  0  0  0
    0.8999   -9.6986    0.3704 F   0  0  0  0  0  0  0  0  0  0  0  0
   -0.7373   -4.4255    1.9727 C   0  0  0  0  0  0  0  0  0  0  0  0
    0.0312   -3.8712    0.5859 S   0  0  0  0  0  0  0  0  0  0  0  0
   -2.2381   -7.1593    4.0227 C   0  0  0  0  0  0  0  0  0  0  0  0
   -2.7240   -7.0613    5.3247 C   0  0  0  0  0  0  0  0  0  0  0  0
   -2.5291   -5.4772    5.8721 S   0  0  0  0  0  0  0  0  0  0  0  0
   -2.9963   -8.2070    6.1966 C   0  0  0  0  0  0  0  0  0  0  0  0
   -1.8789   -8.7298    7.3369 S   0  0  0  0  0  0  0  0  0  0  0  0
   -2.7833   -9.9990    7.9436 C   0  0  0  0  0  0  0  0  0  0  0  0
   -3.9999  -10.0361    7.2745 C   0  0  0  0  0  0  0  0  0  0  0  0
   -4.1379   -9.0282    6.2673 C   0  0  0  0  0  0  0  0  0  0  0  0
   -5.3941   -8.8571    5.4744 C   0  0  0  0  0  0  0  0  0  0  0  0
   -6.6112   -9.8883    5.8244 S   0  0  0  0  0  4  0  0  0  0  0  0
   -8.1237   -9.8692    4.9663 O   0  0  0  0  0  0  0  0  0  0  0  0
   -7.9019  -10.4544    3.7128 C   0  0  0  0  0  0  0  0  0  0  0  0
   -6.2359  -11.1029    7.0904 C   0  0  0  0  0  0  0  0  0  0  0  0
   -5.0278  -11.0459    7.6496 C   0  0  0  0  0  0  0  0  0  0  0  0
   -7.1439  -12.0874    7.5044 O   0  0  0  0  0  0  0  0  0  0  0  0
   -8.4084  -12.3021    6.8942 C   0  0  0  0  0  0  0  0  0  0  0  0
   -5.5462   -7.8796    4.3806 C   0  0  0  0  0  0  0  0  0  0  0  0
   -6.6714   -7.1712    4.2124 C   0  0  0  0  0  0  0  0  0  0  0  0
   -6.8383   -6.1980    3.1214 C   0  0  0  0  0  0  0  0  0  0  0  0
   -7.9267   -5.3333    3.0096 C   0  0  0  0  0  0  0  0  0  0  0  0
   -7.7840   -4.4041    1.9648 C   0  0  0  0  0  0  0  0  0  0  0  0
   -8.6437   -3.3126    1.6955 C   0  0  0  0  0  0  0  0  0  0  0  0
   -9.9974   -3.2245    2.2957 C   0  0  0  0  0  0  0  0  0  0  0  0
  -10.8789   -4.3114    2.1619 C   0  0  0  0  0  0  0  0  0  0  0  0
  -12.1722   -4.2424    2.6799 C   0  0  0  0  0  0  0  0  0  0  0  0
  -12.6170   -3.0748    3.3086 C   0  0  0  0  0  0  0  0  0  0  0  0
  -14.2985   -2.9918    3.9394 S   0  0  0  0  0  0  0  0  0  0  0  0
  -15.0801   -2.6622    2.3181 C   0  0  0  0  0  0  0  0  0  0  0  0
  -14.8938   -1.2108    1.8959 C   0  0  0  0  0  0  0  0  0  0  0  0
  -11.7411   -1.9884    3.4569 C   0  0  0  0  0  0  0  0  0  0  0  0
  -12.1517   -0.8586    4.0849 F   0  0  0  0  0  0  0  0  0  0  0  0
  -10.4335   -2.0681    2.9644 C   0  0  0  0  0  0  0  0  0  0  0  0
   -8.1792   -2.3638    0.7592 C   0  0  0  0  0  0  0  0  0  0  0  0
   -7.0073   -2.5574    0.0231 C   0  0  0  0  0  0  0  0  0  0  0  0
   -6.1928   -3.6850    0.2422 C   0  0  0  0  0  0  0  0  0  0  0  0
   -4.9181   -3.8565   -0.4800 C   0  0  0  0  0  0  0  0  0  0  0  0
   -3.8627   -2.9583   -0.2629 C   0  0  0  0  0  0  0  0  0  0  0  0
   -2.7346   -2.9949   -1.0832 C   0  0  0  0  0  0  0  0  0  0  0  0
   -2.6341   -3.9508   -2.0996 C   0  0  0  0  0  0  0  0  0  0  0  0
   -1.1917   -3.9643   -3.1631 S   0  0  0  0  0  0  0  0  0  0  0  0
   -1.8758   -2.7198   -4.3055 C   0  0  0  0  0  0  0  0  0  0  0  0
   -0.8495   -2.3759   -5.3737 C   0  0  0  0  0  0  0  0  0  0  0  0
   -3.6656   -4.8809   -2.2887 C   0  0  0  0  0  0  0  0  0  0  0  0
   -4.8076   -4.8302   -1.4820 C   0  0  0  0  0  0  0  0  0  0  0  0
   -3.5749   -5.8175   -3.2640 F   0  0  0  0  0  0  0  0  0  0  0  0
   -6.5930   -4.5721    1.2487 C   0  0  0  0  0  0  0  0  0  0  0  0
   -5.7136   -5.8430    1.9079 S   0  0  0  0  0  0  0  0  0  0  0  0
   -6.6764   -1.4747   -0.7964 C   0  0  0  0  0  0  0  0  0  0  0  0
   -7.5038   -0.3680   -0.6254 C   0  0  0  0  0  0  0  0  0  0  0  0
   -8.7264   -0.7927    0.4656 S   0  0  0  0  0  0  0  0  0  0  0  0
   -6.9304    0.9774   -0.7666 C   0  0  0  0  0  0  0  0  0  0  0  0
   -6.1244    1.2871   -1.8670 C   0  0  0  0  0  0  0  0  0  0  0  0
   -4.9424    1.9708   -1.5296 C   0  0  0  0  0  0  0  0  0  0  0  0
   -3.8447    2.2036   -2.3840 C   0  0  0  0  0  0  0  0  0  0  0  0
   -3.9130    1.9924   -3.8459 C   0  0  0  0  0  0  0  0  0  0  0  0
   -4.1182    0.7151   -4.3900 C   0  0  0  0  0  0  0  0  0  0  0  0
   -4.2270    0.5537   -5.7753 C   0  0  0  0  0  0  0  0  0  0  0  0
   -4.1166    1.6631   -6.6252 C   0  0  0  0  0  0  0  0  0  0  0  0
   -4.2903    1.4515   -8.4020 S   0  0  0  0  0  0  0  0  0  0  0  0
   -6.1118    1.6253   -8.4112 C   0  0  0  0  0  0  0  0  0  0  0  0
   -6.5276    3.0906   -8.4414 C   0  0  0  0  0  0  0  0  0  0  0  0
   -3.8527    2.9288   -6.0868 C   0  0  0  0  0  0  0  0  0  0  0  0
   -3.6989    4.0049   -6.8986 F   0  0  0  0  0  0  0  0  0  0  0  0
   -3.7598    3.0929   -4.7029 C   0  0  0  0  0  0  0  0  0  0  0  0
   -2.6619    2.6635   -1.7849 C   0  0  0  0  0  0  0  0  0  0  0  0
   -2.5641    2.9596   -0.4214 C   0  0  0  0  0  0  0  0  0  0  0  0
   -3.6870    2.8062    0.4205 C   0  0  0  0  0  0  0  0  0  0  0  0
   -3.6363    3.1336    1.8619 C   0  0  0  0  0  0  0  0  0  0  0  0
   -3.3714    4.4511    2.2668 C   0  0  0  0  0  0  0  0  0  0  0  0
   -3.4351    4.7988    3.6170 C   0  0  0  0  0  0  0  0  0  0  0  0
   -3.7765    3.8382    4.5755 C   0  0  0  0  0  0  0  0  0  0  0  0
   -3.9280    4.3278    6.2985 S   0  0  0  0  0  0  0  0  0  0  0  0
   -5.6569    4.9044    6.1616 C   0  0  0  0  0  0  0  0  0  0  0  0
   -6.6293    3.7578    6.3912 C   0  0  0  0  0  0  0  0  0  0  0  0
   -3.9944    2.5089    4.1846 C   0  0  0  0  0  0  0  0  0  0  0  0
   -3.9152    2.1566    2.8343 C   0  0  0  0  0  0  0  0  0  0  0  0
   -4.3076    1.5622    5.1039 F   0  0  0  0  0  0  0  0  0  0  0  0
   -4.8561    2.2839   -0.1701 C   0  0  0  0  0  0  0  0  0  0  0  0
   -6.2338    1.7002    0.5910 S   0  0  0  0  0  0  0  0  0  0  0  0
   -1.2503    3.2747   -0.0210 C   0  0  0  0  0  0  0  0  0  0  0  0
   -0.3386    3.1884   -1.0720 C   0  0  0  0  0  0  0  0  0  0  0  0
   -1.1392    2.7504   -2.4867 S   0  0  0  0  0  0  0  0  0  0  0  0
    1.1199    3.2613   -0.9626 C   0  0  0  0  0  0  0  0  0  0  0  0
    1.9843    2.2792   -1.4355 C   0  0  0  0  0  0  0  0  0  0  0  0
    3.3230    2.7000   -1.4778 C   0  0  0  0  0  0  0  0  0  0  0  0
    4.4221    1.9568   -1.9629 C   0  0  0  0  0  0  0  0  0  0  0  0
    4.2968    0.5385   -2.3643 C   0  0  0  0  0  0  0  0  0  0  0  0
    3.4610    0.1586   -3.4294 C   0  0  0  0  0  0  0  0  0  0  0  0
    3.3083   -1.1924   -3.7560 C   0  0  0  0  0  0  0  0  0  0  0  0
    3.9975   -2.1730   -3.0318 C   0  0  0  0  0  0  0  0  0  0  0  0
    3.7725   -3.9076   -3.4372 S   0  0  0  0  0  0  0  0  0  0  0  0
    2.4758   -4.1612   -2.1806 C   0  0  0  0  0  0  0  0  0  0  0  0
    2.0011   -5.6076   -2.2059 C   0  0  0  0  0  0  0  0  0  0  0  0
    4.8628   -1.7964   -1.9959 C   0  0  0  0  0  0  0  0  0  0  0  0
    5.5473   -2.7353   -1.2965 F   0  0  0  0  0  0  0  0  0  0  0  0
    5.0059   -0.4477   -1.6610 C   0  0  0  0  0  0  0  0  0  0  0  0
    5.6564    2.6261   -2.0360 C   0  0  0  0  0  0  0  0  0  0  0  0
    5.8132    3.9570   -1.6380 C   0  0  0  0  0  0  0  0  0  0  0  0
    4.7314    4.6791   -1.0917 C   0  0  0  0  0  0  0  0  0  0  0  0
    4.8773    6.0832   -0.6601 C   0  0  0  0  0  0  0  0  0  0  0  0
    5.2049    7.0780   -1.5937 C   0  0  0  0  0  0  0  0  0  0  0  0
    5.4398    8.3874   -1.1708 C   0  0  0  0  0  0  0  0  0  0  0  0
    5.3485    8.7171    0.1861 C   0  0  0  0  0  0  0  0  0  0  0  0
    5.6893   10.4001    0.7165 S   0  0  0  0  0  0  0  0  0  0  0  0
    7.4222   10.0823    1.2101 C   0  0  0  0  0  0  0  0  0  0  0  0
    8.3485   10.0104    0.0017 C   0  0  0  0  0  0  0  0  0  0  0  0
    4.9780    7.7358    1.1171 C   0  0  0  0  0  0  0  0  0  0  0  0
    4.7448    6.4215    0.6948 C   0  0  0  0  0  0  0  0  0  0  0  0
    4.8674    8.0452    2.4342 F   0  0  0  0  0  0  0  0  0  0  0  0
    3.4936    4.0158   -1.0288 C   0  0  0  0  0  0  0  0  0  0  0  0
    1.9965    4.6528   -0.5840 S   0  0  0  0  0  0  0  0  0  0  0  0
    7.0991    4.4603   -1.8943 C   0  0  0  0  0  0  0  0  0  0  0  0
    7.9322    3.5355   -2.5194 C   0  0  0  0  0  0  0  0  0  0  0  0
    7.0977    2.0804   -2.7185 S   0  0  0  0  0  0  0  0  0  0  0  0
    9.2419    3.8519   -3.1094 C   0  0  0  0  0  0  0  0  0  0  0  0
    9.6509    5.1278   -3.4903 C   0  0  0  0  0  0  0  0  0  0  0  0
   10.8922    5.1321   -4.1417 C   0  0  0  0  0  0  0  0  0  0  0  0
   11.5282    6.2591   -4.6923 C   0  0  0  0  0  0  0  0  0  0  0  0
   10.8426    7.5605   -4.7683 C   0  0  0  0  0  0  0  0  0  0  0  0
    9.8755    7.7686   -5.7609 C   0  0  0  0  0  0  0  0  0  0  0  0
    9.1663    8.9705   -5.8099 C   0  0  0  0  0  0  0  0  0  0  0  0
    9.4073    9.9675   -4.8577 C   0  0  0  0  0  0  0  0  0  0  0  0
    8.4456   11.4826   -4.9080 S   0  0  0  0  0  0  0  0  0  0  0  0
    7.0872   10.7927   -3.9055 C   0  0  0  0  0  0  0  0  0  0  0  0
    5.8874   11.7276   -3.9296 C   0  0  0  0  0  0  0  0  0  0  0  0
   10.3839    9.7696   -3.8709 C   0  0  0  0  0  0  0  0  0  0  0  0
   10.6293   10.7303   -2.9458 F   0  0  0  0  0  0  0  0  0  0  0  0
   11.1032    8.5677   -3.8281 C   0  0  0  0  0  0  0  0  0  0  0  0
   12.7705    6.0509   -5.3096 C   0  0  0  0  0  0  0  0  0  0  0  0
   13.3543    4.7843   -5.4188 C   0  0  0  0  0  0  0  0  0  0  0  0
   12.6989    3.6443   -4.8990 C   0  0  0  0  0  0  0  0  0  0  0  0
   13.2430    2.2807   -5.0691 C   0  0  0  0  0  0  0  0  0  0  0  0
   12.5232    1.3231   -5.8005 C   0  0  0  0  0  0  0  0  0  0  0  0
   13.0412    0.0376   -5.9776 C   0  0  0  0  0  0  0  0  0  0  0  0
   14.2774   -0.3063   -5.4182 C   0  0  0  0  0  0  0  0  0  0  0  0
   14.9429   -1.9559   -5.6834 S   0  0  0  0  0  0  0  0  0  0  0  0
   14.0101   -2.7401   -4.3194 C   0  0  0  0  0  0  0  0  0  0  0  0
   14.7109   -2.5288   -2.9842 C   0  0  0  0  0  0  0  0  0  0  0  0
   15.0047    0.6490   -4.6931 C   0  0  0  0  0  0  0  0  0  0  0  0
   14.4853    1.9364   -4.5155 C   0  0  0  0  0  0  0  0  0  0  0  0
   16.2168    0.3385   -4.1691 F   0  0  0  0  0  0  0  0  0  0  0  0
   11.4623    3.8617   -4.2577 C   0  0  0  0  0  0  0  0  0  0  0  0
   10.4151    2.7299   -3.5740 S   0  0  0  0  0  0  0  0  0  0  0  0
   14.5625    4.8010   -6.1372 C   0  0  0  0  0  0  0  0  0  0  0  0
   14.9226    6.0729   -6.5751 C   0  0  0  0  0  0  0  0  0  0  0  0
   13.7429    7.1764   -6.0913 S   0  0  0  0  0  0  0  0  0  0  0  0
    0.6566   -1.4752    0.5446 H   0  0  0  0  0  0  0  0  0  0  0  0
   -0.3214   -1.2355    2.9462 H   0  0  0  0  0  0  0  0  0  0  0  0
   -3.5494   -2.3431    5.3037 H   0  0  0  0  0  0  0  0  0  0  0  0
   -3.4954   -0.6227    7.0726 H   0  0  0  0  0  0  0  0  0  0  0  0
   -1.8561    2.9341    7.9644 H   0  0  0  0  0  0  0  0  0  0  0  0
   -2.0944    1.8720    6.5354 H   0  0  0  0  0  0  0  0  0  0  0  0
    0.3950    1.6934    6.2640 H   0  0  0  0  0  0  0  0  0  0  0  0
   -0.1480    3.4091    6.2517 H   0  0  0  0  0  0  0  0  0  0  0  0
    0.6225    2.7285    7.7343 H   0  0  0  0  0  0  0  0  0  0  0  0
    0.7582   -2.5029    5.3431 H   0  0  0  0  0  0  0  0  0  0  0  0
   -2.9069   -6.1072    0.2123 H   0  0  0  0  0  0  0  0  0  0  0  0
   -2.8388   -7.8942   -1.4871 H   0  0  0  0  0  0  0  0  0  0  0  0
   -1.7911  -12.3696   -1.2924 H   0  0  0  0  0  0  0  0  0  0  0  0
   -1.5288  -11.3703    0.1772 H   0  0  0  0  0  0  0  0  0  0  0  0
   -3.9602  -11.8769   -0.2568 H   0  0  0  0  0  0  0  0  0  0  0  0
   -3.8493  -11.0224   -1.8438 H   0  0  0  0  0  0  0  0  0  0  0  0
   -3.6374  -10.1098   -0.2950 H   0  0  0  0  0  0  0  0  0  0  0  0
    0.6340   -7.7130    2.0544 H   0  0  0  0  0  0  0  0  0  0  0  0
   -2.1754   -8.0943    3.4829 H   0  0  0  0  0  0  0  0  0  0  0  0
   -2.4747  -10.6645    8.7391 H   0  0  0  0  0  0  0  0  0  0  0  0
   -7.5164  -11.4913    3.8176 H   0  0  0  0  0  0  0  0  0  0  0  0
   -8.8641  -10.4971    3.1658 H   0  0  0  0  0  0  0  0  0  0  0  0
   -7.1936   -9.8426    3.1107 H   0  0  0  0  0  0  0  0  0  0  0  0
   -4.7797  -11.7669    8.4192 H   0  0  0  0  0  0  0  0  0  0  0  0
   -9.0336  -11.3885    6.9692 H   0  0  0  0  0  0  0  0  0  0  0  0
   -8.9271  -13.1291    7.4214 H   0  0  0  0  0  0  0  0  0  0  0  0
   -8.2766  -12.5900    5.8299 H   0  0  0  0  0  0  0  0  0  0  0  0
   -4.7380   -7.7619    3.6815 H   0  0  0  0  0  0  0  0  0  0  0  0
   -7.4830   -7.2742    4.9225 H   0  0  0  0  0  0  0  0  0  0  0  0
   -8.7526   -5.3351    3.7090 H   0  0  0  0  0  0  0  0  0  0  0  0
  -10.5690   -5.2111    1.6419 H   0  0  0  0  0  0  0  0  0  0  0  0
  -12.8387   -5.0888    2.5694 H   0  0  0  0  0  0  0  0  0  0  0  0
  -16.1659   -2.8728    2.4128 H   0  0  0  0  0  0  0  0  0  0  0  0
  -14.6704   -3.3411    1.5390 H   0  0  0  0  0  0  0  0  0  0  0  0
  -13.8225   -0.9934    1.7117 H   0  0  0  0  0  0  0  0  0  0  0  0
  -15.4599   -1.0238    0.9597 H   0  0  0  0  0  0  0  0  0  0  0  0
  -15.2801   -0.5308    2.6835 H   0  0  0  0  0  0  0  0  0  0  0  0
   -9.7636   -1.2305    3.1034 H   0  0  0  0  0  0  0  0  0  0  0  0
   -3.9376   -2.1953    0.5026 H   0  0  0  0  0  0  0  0  0  0  0  0
   -1.9515   -2.2603   -0.9452 H   0  0  0  0  0  0  0  0  0  0  0  0
   -2.1360   -1.7967   -3.7427 H   0  0  0  0  0  0  0  0  0  0  0  0
   -2.7928   -3.1212   -4.7888 H   0  0  0  0  0  0  0  0  0  0  0  0
   -0.5653   -3.2876   -5.9398 H   0  0  0  0  0  0  0  0  0  0  0  0
    0.0572   -1.9375   -4.9057 H   0  0  0  0  0  0  0  0  0  0  0  0
   -1.2825   -1.6375   -6.0812 H   0  0  0  0  0  0  0  0  0  0  0  0
   -5.6190   -5.5264   -1.6600 H   0  0  0  0  0  0  0  0  0  0  0  0
   -5.7586   -1.4210   -1.3669 H   0  0  0  0  0  0  0  0  0  0  0  0
   -6.2958    0.8447   -2.8390 H   0  0  0  0  0  0  0  0  0  0  0  0
   -4.2067   -0.1499   -3.7449 H   0  0  0  0  0  0  0  0  0  0  0  0
   -4.4089   -0.4310   -6.1862 H   0  0  0  0  0  0  0  0  0  0  0  0
   -6.5006    1.1241   -9.3208 H   0  0  0  0  0  0  0  0  0  0  0  0
   -6.5611    1.1219   -7.5292 H   0  0  0  0  0  0  0  0  0  0  0  0
   -7.6292    3.1585   -8.5602 H   0  0  0  0  0  0  0  0  0  0  0  0
   -6.2510    3.5940   -7.4929 H   0  0  0  0  0  0  0  0  0  0  0  0
   -6.0426    3.6135   -9.2925 H   0  0  0  0  0  0  0  0  0  0  0  0
   -3.5790    4.0801   -4.2953 H   0  0  0  0  0  0  0  0  0  0  0  0
   -3.1479    5.2144    1.5309 H   0  0  0  0  0  0  0  0  0  0  0  0
   -3.2508    5.8229    3.9137 H   0  0  0  0  0  0  0  0  0  0  0  0
   -5.8214    5.6800    6.9368 H   0  0  0  0  0  0  0  0  0  0  0  0
   -5.8456    5.3739    5.1714 H   0  0  0  0  0  0  0  0  0  0  0  0
   -6.5344    2.9980    5.5891 H   0  0  0  0  0  0  0  0  0  0  0  0
   -7.6710    4.1440    6.3917 H   0  0  0  0  0  0  0  0  0  0  0  0
   -6.4292    3.2774    7.3734 H   0  0  0  0  0  0  0  0  0  0  0  0
   -4.0922    1.1287    2.5412 H   0  0  0  0  0  0  0  0  0  0  0  0
   -0.9570    3.4702    1.0017 H   0  0  0  0  0  0  0  0  0  0  0  0
    1.6377    1.3161   -1.7796 H   0  0  0  0  0  0  0  0  0  0  0  0
    2.9212    0.9078   -3.9938 H   0  0  0  0  0  0  0  0  0  0  0  0
    2.6507   -1.4742   -4.5669 H   0  0  0  0  0  0  0  0  0  0  0  0
    2.8806   -3.9271   -1.1724 H   0  0  0  0  0  0  0  0  0  0  0  0
    1.6199   -3.4854   -2.3899 H   0  0  0  0  0  0  0  0  0  0  0  0
    1.5857   -5.8590   -3.2050 H   0  0  0  0  0  0  0  0  0  0  0  0
    1.2099   -5.7602   -1.4433 H   0  0  0  0  0  0  0  0  0  0  0  0
    2.8470   -6.2898   -1.9790 H   0  0  0  0  0  0  0  0  0  0  0  0
    5.6555   -0.1702   -0.8394 H   0  0  0  0  0  0  0  0  0  0  0  0
    5.3016    6.8325   -2.6445 H   0  0  0  0  0  0  0  0  0  0  0  0
    5.7035    9.1419   -1.8968 H   0  0  0  0  0  0  0  0  0  0  0  0
    7.7519   10.9210    1.8585 H   0  0  0  0  0  0  0  0  0  0  0  0
    7.4941    9.1451    1.8016 H   0  0  0  0  0  0  0  0  0  0  0  0
    8.1084    9.1285   -0.6259 H   0  0  0  0  0  0  0  0  0  0  0  0
    9.4004    9.9171    0.3472 H   0  0  0  0  0  0  0  0  0  0  0  0
    8.2565   10.9344   -0.6066 H   0  0  0  0  0  0  0  0  0  0  0  0
    4.4930    5.6633    1.4253 H   0  0  0  0  0  0  0  0  0  0  0  0
    7.4070    5.4738   -1.6726 H   0  0  0  0  0  0  0  0  0  0  0  0
    9.0540    6.0174   -3.3368 H   0  0  0  0  0  0  0  0  0  0  0  0
    9.6602    6.9955   -6.4877 H   0  0  0  0  0  0  0  0  0  0  0  0
    8.4137    9.1152   -6.5749 H   0  0  0  0  0  0  0  0  0  0  0  0
    6.7799    9.8042   -4.3099 H   0  0  0  0  0  0  0  0  0  0  0  0
    7.4355   10.6655   -2.8598 H   0  0  0  0  0  0  0  0  0  0  0  0
    5.0648   11.2928   -3.3244 H   0  0  0  0  0  0  0  0  0  0  0  0
    5.5300   11.8567   -4.9733 H   0  0  0  0  0  0  0  0  0  0  0  0
    6.1633   12.7184   -3.5092 H   0  0  0  0  0  0  0  0  0  0  0  0
   11.8456    8.4128   -3.0557 H   0  0  0  0  0  0  0  0  0  0  0  0
   11.5688    1.5759   -6.2438 H   0  0  0  0  0  0  0  0  0  0  0  0
   12.4778   -0.6915   -6.5433 H   0  0  0  0  0  0  0  0  0  0  0  0
   12.9745   -2.3418   -4.2696 H   0  0  0  0  0  0  0  0  0  0  0  0
   13.9465   -3.8276   -4.5220 H   0  0  0  0  0  0  0  0  0  0  0  0
   14.7189   -1.4526   -2.7146 H   0  0  0  0  0  0  0  0  0  0  0  0
   15.7538   -2.9051   -3.0366 H   0  0  0  0  0  0  0  0  0  0  0  0
   14.1747   -3.0916   -2.1907 H   0  0  0  0  0  0  0  0  0  0  0  0
   15.0538    2.6656   -3.9512 H   0  0  0  0  0  0  0  0  0  0  0  0
   15.1542    3.9230   -6.3580 H   0  0  0  0  0  0  0  0  0  0  0  0
   15.8056    6.3098   -7.1524 H   0  0  0  0  0  0  0  0  0  0  0  0
  1  2  2  0
  2  3  1  0
  3  4  2  0
  4  5  1  0
  5  6  2  0
  6  7  1  0
  7  8  2  0
  8  9  1  0
  9 10  1  0
 10 11  1  0
  8 12  1  0
 12 13  1  0
 12 14  2  0
  4 15  1  0
 15 16  2  0
 16 17  1  0
 17 18  1  0
 18 19  2  0
 19 20  1  0
 20 21  2  0
 21 22  1  0
 22 23  1  0
 23 24  1  0
 21 25  1  0
 25 26  2  0
 25 27  1  0
 17 28  2  0
 28 29  1  0
 16 30  1  0
 30 31  2  0
 31 32  1  0
 31 33  1  0
 33 34  1  0
 34 35  1  0
 35 36  2  0
 36 37  1  0
 37 38  1  0
 38 39  2  0
 39 40  1  0
 40 41  1  0
 39 42  1  0
 42 43  2  0
 42 44  1  0
 44 45  1  0
 38 46  1  0
 46 47  2  3
 47 48  1  0
 48 49  2  0
 49 50  1  0
 50 51  2  0
 51 52  1  0
 52 53  2  0
 53 54  1  0
 54 55  2  0
 55 56  1  0
 56 57  1  0
 57 58  1  0
 55 59  1  0
 59 60  1  0
 59 61  2  0
 51 62  1  0
 62 63  2  0
 63 64  1  0
 64 65  1  0
 65 66  2  0
 66 67  1  0
 67 68  2  0
 68 69  1  0
 69 70  1  0
 70 71  1  0
 68 72  1  0
 72 73  2  0
 72 74  1  0
 64 75  2  0
 75 76  1  0
 63 77  1  0
 77 78  2  0
 78 79  1  0
 78 80  1  0
 80 81  2  0
 81 82  1  0
 82 83  2  0
 83 84  1  0
 84 85  2  0
 85 86  1  0
 86 87  2  0
 87 88  1  0
 88 89  1  0
 89 90  1  0
 87 91  1  0
 91 92  1  0
 91 93  2  0
 83 94  1  0
 94 95  2  0
 95 96  1  0
 96 97  1  0
 97 98  2  0
 98 99  1  0
 99100  2  0
100101  1  0
101102  1  0
102103  1  0
100104  1  0
104105  2  0
104106  1  0
 96107  2  0
107108  1  0
 95109  1  0
109110  2  0
110111  1  0
110112  1  0
112113  2  0
113114  1  0
114115  2  0
115116  1  0
116117  2  0
117118  1  0
118119  2  0
119120  1  0
120121  1  0
121122  1  0
119123  1  0
123124  1  0
123125  2  0
115126  1  0
126127  2  0
127128  1  0
128129  1  0
129130  2  0
130131  1  0
131132  2  0
132133  1  0
133134  1  0
134135  1  0
132136  1  0
136137  2  0
136138  1  0
128139  2  0
139140  1  0
127141  1  0
141142  2  0
142143  1  0
142144  1  0
144145  2  0
145146  1  0
146147  2  0
147148  1  0
148149  2  0
149150  1  0
150151  2  0
151152  1  0
152153  1  0
153154  1  0
151155  1  0
155156  1  0
155157  2  0
147158  1  0
158159  2  0
159160  1  0
160161  1  0
161162  2  0
162163  1  0
163164  2  0
164165  1  0
165166  1  0
166167  1  0
164168  1  0
168169  2  0
168170  1  0
160171  2  0
171172  1  0
159173  1  0
173174  2  0
174175  1  0
 29  1  1  0
 37 33  2  0
 76 48  1  0
108 80  1  0
140112  1  0
172144  1  0
 28  3  1  0
 43 36  1  0
 75 50  1  0
107 82  1  0
139114  1  0
171146  1  0
 14  5  1  0
 32 15  1  0
 61 52  1  0
 79 62  1  0
 93 84  1  0
111 94  1  0
125116  1  0
143126  1  0
157148  1  0
175158  1  0
 26 18  1  0
 73 65  1  0
105 97  1  0
137129  1  0
169161  1  0
  1176  1  0
  2177  1  0
  6178  1  0
  7179  1  0
 10180  1  0
 10181  1  0
 11182  1  0
 11183  1  0
 11184  1  0
 14185  1  0
 19186  1  0
 20187  1  0
 23188  1  0
 23189  1  0
 24190  1  0
 24191  1  0
 24192  1  0
 26193  1  0
 30194  1  0
 35195  1  0
 41196  1  0
 41197  1  0
 41198  1  0
 43199  1  0
 45200  1  0
 45201  1  0
 45202  1  0
 46203  1  0
 47204  1  0
 49205  1  0
 53206  1  0
 54207  1  0
 57208  1  0
 57209  1  0
 58210  1  0
 58211  1  0
 58212  1  0
 61213  1  0
 66214  1  0
 67215  1  0
 70216  1  0
 70217  1  0
 71218  1  0
 71219  1  0
 71220  1  0
 73221  1  0
 77222  1  0
 81223  1  0
 85224  1  0
 86225  1  0
 89226  1  0
 89227  1  0
 90228  1  0
 90229  1  0
 90230  1  0
 93231  1  0
 98232  1  0
 99233  1  0
102234  1  0
102235  1  0
103236  1  0
103237  1  0
103238  1  0
105239  1  0
109240  1  0
113241  1  0
117242  1  0
118243  1  0
121244  1  0
121245  1  0
122246  1  0
122247  1  0
122248  1  0
125249  1  0
130250  1  0
131251  1  0
134252  1  0
134253  1  0
135254  1  0
135255  1  0
135256  1  0
137257  1  0
141258  1  0
145259  1  0
149260  1  0
150261  1  0
153262  1  0
153263  1  0
154264  1  0
154265  1  0
154266  1  0
157267  1  0
162268  1  0
163269  1  0
166270  1  0
166271  1  0
167272  1  0
167273  1  0
167274  1  0
169275  1  0
173276  1  0
174277  1  0
M  END

