
     RDKit          3D

227247  0  0  0  0  0  0  0  0999 V2000
   -0.8638   -2.8045    4.4319 C   0  0  0  0  0  0  0  0  0  0  0  0
    0.0157   -1.9489    3.2875 S   0  0  0  0  0  0  0  0  0  0  0  0
    0.4952   -0.6939    4.2879 C   0  0  0  0  0  0  0  0  0  0  0  0
   -0.0279   -0.9226    5.5557 C   0  0  0  0  0  0  0  0  0  0  0  0
   -0.7817   -2.1342    5.6520 C   0  0  0  0  0  0  0  0  0  0  0  0
   -1.4329   -2.5831    6.9188 C   0  0  0  0  0  0  0  0  0  0  0  0
   -1.2797   -1.5720    8.1821 S   0  0  0  0  0  4  0  0  0  0  0  0
   -1.9889   -1.9181    9.7325 O   0  0  0  0  0  0  0  0  0  0  0  0
   -3.1732   -1.1702    9.8107 C   0  0  0  0  0  0  0  0  0  0  0  0
   -0.3507   -0.0810    7.8706 C   0  0  0  0  0  0  0  0  0  0  0  0
    0.1761    0.0709    6.6472 C   0  0  0  0  0  0  0  0  0  0  0  0
   -0.2082    0.8570    8.9045 O   0  0  0  0  0  0  0  0  0  0  0  0
    0.4523    2.1132    8.7706 C   0  0  0  0  0  0  0  0  0  0  0  0
   -2.1980   -3.8329    7.1348 C   0  0  0  0  0  0  0  0  0  0  0  0
   -1.9220   -5.0093    6.5645 C   0  0  0  0  0  0  0  0  0  0  0  0
   -2.5733   -6.2430    7.0380 C   0  0  0  0  0  0  0  0  0  0  0  0
   -2.5752   -6.7031    8.6559 S   0  0  0  0  0  0  0  0  0  0  0  0
   -3.0791   -8.2841    8.4225 C   0  0  0  0  0  0  0  0  0  0  0  0
   -3.2462   -8.4974    7.0574 C   0  0  0  0  0  0  0  0  0  0  0  0
   -2.9998   -7.3358    6.2639 C   0  0  0  0  0  0  0  0  0  0  0  0
   -3.2182   -7.3046    4.7898 C   0  0  0  0  0  0  0  0  0  0  0  0
   -3.5452   -8.7415    4.0885 S   0  0  0  0  0  4  0  0  0  0  0  0
   -4.0209   -8.8732    2.4215 O   0  0  0  0  0  0  0  0  0  0  0  0
   -3.0757   -9.7001    1.7935 C   0  0  0  0  0  0  0  0  0  0  0  0
   -3.7003  -10.1144    5.2256 C   0  0  0  0  0  0  0  0  0  0  0  0
   -3.5714   -9.8529    6.5344 C   0  0  0  0  0  0  0  0  0  0  0  0
   -3.9666  -11.3958    4.7183 O   0  0  0  0  0  0  0  0  0  0  0  0
   -3.9527  -12.5905    5.4949 C   0  0  0  0  0  0  0  0  0  0  0  0
   -3.3841   -6.0395    4.0443 C   0  0  0  0  0  0  0  0  0  0  0  0
   -3.0080   -5.8964    2.7683 C   0  0  0  0  0  0  0  0  0  0  0  0
   -3.0693   -4.5925    2.0696 C   0  0  0  0  0  0  0  0  0  0  0  0
   -3.8522   -3.2291    2.6785 S   0  0  0  0  0  0  0  0  0  0  0  0
   -3.1616   -2.1073    1.6497 C   0  0  0  0  0  0  0  0  0  0  0  0
   -2.2902   -2.7737    0.7945 C   0  0  0  0  0  0  0  0  0  0  0  0
   -2.2771   -4.1882    0.9803 C   0  0  0  0  0  0  0  0  0  0  0  0
   -1.4736   -5.0980    0.1221 C   0  0  0  0  0  0  0  0  0  0  0  0
   -0.3350   -4.3963   -0.8060 S   0  0  0  0  0  4  0  0  0  0  0  0
    0.4705   -5.2886   -2.0639 O   0  0  0  0  0  0  0  0  0  0  0  0
    1.8399   -5.0040   -1.9638 C   0  0  0  0  0  0  0  0  0  0  0  0
   -0.4064   -2.6053   -0.8186 C   0  0  0  0  0  0  0  0  0  0  0  0
   -1.3855   -2.0174   -0.1117 C   0  0  0  0  0  0  0  0  0  0  0  0
    0.5393   -1.8861   -1.5626 O   0  0  0  0  0  0  0  0  0  0  0  0
    0.6388   -0.4635   -1.5888 C   0  0  0  0  0  0  0  0  0  0  0  0
   -1.8961   -6.4816   -0.1775 C   0  0  0  0  0  0  0  0  0  0  0  0
   -2.8671   -6.7658   -1.0594 C   0  0  0  0  0  0  0  0  0  0  0  0
   -3.4588   -5.7288   -1.9164 C   0  0  0  0  0  0  0  0  0  0  0  0
   -2.7727   -5.1415   -2.9717 C   0  0  0  0  0  0  0  0  0  0  0  0
   -3.2723   -3.8814   -3.3261 C   0  0  0  0  0  0  0  0  0  0  0  0
   -2.6629   -2.9825   -4.2270 C   0  0  0  0  0  0  0  0  0  0  0  0
   -1.4057   -3.3239   -4.9358 C   0  0  0  0  0  0  0  0  0  0  0  0
   -1.3638   -4.3968   -5.8392 C   0  0  0  0  0  0  0  0  0  0  0  0
   -0.1652   -4.7301   -6.4805 C   0  0  0  0  0  0  0  0  0  0  0  0
    0.9959   -3.9846   -6.2402 C   0  0  0  0  0  0  0  0  0  0  0  0
    2.5221   -4.3939   -7.0960 S   0  0  0  0  0  0  0  0  0  0  0  0
    2.2807   -3.1860   -8.4457 C   0  0  0  0  0  0  0  0  0  0  0  0
    1.3492   -3.7424   -9.5133 C   0  0  0  0  0  0  0  0  0  0  0  0
    0.9656   -2.9272   -5.3212 C   0  0  0  0  0  0  0  0  0  0  0  0
    2.0878   -2.2111   -5.0534 F   0  0  0  0  0  0  0  0  0  0  0  0
   -0.2301   -2.5974   -4.6816 C   0  0  0  0  0  0  0  0  0  0  0  0
   -3.1940   -1.6819   -4.2668 C   0  0  0  0  0  0  0  0  0  0  0  0
   -4.2620   -1.2711   -3.4624 C   0  0  0  0  0  0  0  0  0  0  0  0
   -4.9215   -2.1894   -2.6184 C   0  0  0  0  0  0  0  0  0  0  0  0
   -6.1010   -1.7881   -1.8177 C   0  0  0  0  0  0  0  0  0  0  0  0
   -7.2218   -1.2308   -2.4567 C   0  0  0  0  0  0  0  0  0  0  0  0
   -8.3357   -0.8322   -1.7117 C   0  0  0  0  0  0  0  0  0  0  0  0
   -8.3450   -0.9973   -0.3210 C   0  0  0  0  0  0  0  0  0  0  0  0
   -9.7958   -0.5250    0.6245 S   0  0  0  0  0  0  0  0  0  0  0  0
  -10.5231   -2.2019    0.6462 C   0  0  0  0  0  0  0  0  0  0  0  0
  -11.2151   -2.5219   -0.6727 C   0  0  0  0  0  0  0  0  0  0  0  0
   -7.2262   -1.5375    0.3233 C   0  0  0  0  0  0  0  0  0  0  0  0
   -6.1108   -1.9267   -0.4215 C   0  0  0  0  0  0  0  0  0  0  0  0
   -7.2177   -1.6965    1.6703 F   0  0  0  0  0  0  0  0  0  0  0  0
   -4.3751   -3.4897   -2.5529 C   0  0  0  0  0  0  0  0  0  0  0  0
   -4.7141   -4.7105   -1.4399 S   0  0  0  0  0  0  0  0  0  0  0  0
   -4.4469    0.1245   -3.4613 C   0  0  0  0  0  0  0  0  0  0  0  0
   -3.5384    0.8030   -4.2743 C   0  0  0  0  0  0  0  0  0  0  0  0
   -2.5374   -0.3344   -5.0129 S   0  0  0  0  0  0  0  0  0  0  0  0
   -3.0737    2.1743   -4.0353 C   0  0  0  0  0  0  0  0  0  0  0  0
   -2.8720    2.6632   -2.7419 C   0  0  0  0  0  0  0  0  0  0  0  0
   -1.8040    3.5699   -2.6501 C   0  0  0  0  0  0  0  0  0  0  0  0
   -1.1905    3.9958   -1.4535 C   0  0  0  0  0  0  0  0  0  0  0  0
   -1.7565    3.6849   -0.1307 C   0  0  0  0  0  0  0  0  0  0  0  0
   -1.7036    2.3795    0.3751 C   0  0  0  0  0  0  0  0  0  0  0  0
   -2.3019    2.0773    1.6012 C   0  0  0  0  0  0  0  0  0  0  0  0
   -2.9630    3.0783    2.3253 C   0  0  0  0  0  0  0  0  0  0  0  0
   -3.8113    2.6573    3.8518 S   0  0  0  0  0  0  0  0  0  0  0  0
   -5.4636    2.5069    3.0797 C   0  0  0  0  0  0  0  0  0  0  0  0
   -5.6272    1.1654    2.3743 C   0  0  0  0  0  0  0  0  0  0  0  0
   -2.9738    4.3955    1.8439 C   0  0  0  0  0  0  0  0  0  0  0  0
   -3.5955    5.3791    2.5435 F   0  0  0  0  0  0  0  0  0  0  0  0
   -2.3711    4.6980    0.6199 C   0  0  0  0  0  0  0  0  0  0  0  0
    0.0628    4.6166   -1.5673 C   0  0  0  0  0  0  0  0  0  0  0  0
    0.6589    4.8750   -2.8061 C   0  0  0  0  0  0  0  0  0  0  0  0
    0.0039    4.5347   -4.0078 C   0  0  0  0  0  0  0  0  0  0  0  0
    0.6394    4.7151   -5.3318 C   0  0  0  0  0  0  0  0  0  0  0  0
    1.8367    4.0550   -5.6499 C   0  0  0  0  0  0  0  0  0  0  0  0
    2.4569    4.2782   -6.8801 C   0  0  0  0  0  0  0  0  0  0  0  0
    1.8804    5.1487   -7.8108 C   0  0  0  0  0  0  0  0  0  0  0  0
    2.7151    5.4627   -9.3697 S   0  0  0  0  0  0  0  0  0  0  0  0
    3.6278    6.9296   -8.7719 C   0  0  0  0  0  0  0  0  0  0  0  0
    4.8726    6.5261   -7.9901 C   0  0  0  0  0  0  0  0  0  0  0  0
    0.6569    5.7693   -7.5217 C   0  0  0  0  0  0  0  0  0  0  0  0
    0.0379    5.5512   -6.2859 C   0  0  0  0  0  0  0  0  0  0  0  0
    0.0746    6.6008   -8.4230 F   0  0  0  0  0  0  0  0  0  0  0  0
   -1.2191    3.8572   -3.8879 C   0  0  0  0  0  0  0  0  0  0  0  0
   -1.9857    2.9463   -5.0716 S   0  0  0  0  0  0  0  0  0  0  0  0
    1.9888    5.2987   -2.6938 C   0  0  0  0  0  0  0  0  0  0  0  0
    2.4699    5.2675   -1.3845 C   0  0  0  0  0  0  0  0  0  0  0  0
    1.2061    4.8405   -0.3491 S   0  0  0  0  0  0  0  0  0  0  0  0
    3.8910    5.0745   -1.0628 C   0  0  0  0  0  0  0  0  0  0  0  0
    4.7983    4.4924   -1.9433 C   0  0  0  0  0  0  0  0  0  0  0  0
    6.0180    4.1469   -1.3474 C   0  0  0  0  0  0  0  0  0  0  0  0
    7.0861    3.4655   -1.9738 C   0  0  0  0  0  0  0  0  0  0  0  0
    6.9752    2.9640   -3.3673 C   0  0  0  0  0  0  0  0  0  0  0  0
    6.6668    3.8379   -4.4262 C   0  0  0  0  0  0  0  0  0  0  0  0
    6.3671    3.3327   -5.6950 C   0  0  0  0  0  0  0  0  0  0  0  0
    6.4157    1.9563   -5.9343 C   0  0  0  0  0  0  0  0  0  0  0  0
    5.9304    1.3116   -7.5394 S   0  0  0  0  0  0  0  0  0  0  0  0
    4.2650    0.8050   -6.9831 C   0  0  0  0  0  0  0  0  0  0  0  0
    3.3610    0.5663   -8.1840 C   0  0  0  0  0  0  0  0  0  0  0  0
    6.8018    1.0864   -4.9071 C   0  0  0  0  0  0  0  0  0  0  0  0
    6.8651   -0.2521   -5.1285 F   0  0  0  0  0  0  0  0  0  0  0  0
    7.0663    1.5856   -3.6287 C   0  0  0  0  0  0  0  0  0  0  0  0
    8.1964    3.1644   -1.1658 C   0  0  0  0  0  0  0  0  0  0  0  0
    8.2470    3.4728    0.1984 C   0  0  0  0  0  0  0  0  0  0  0  0
    7.1583    4.1153    0.8310 C   0  0  0  0  0  0  0  0  0  0  0  0
    7.1275    4.3475    2.2921 C   0  0  0  0  0  0  0  0  0  0  0  0
    8.0856    5.1715    2.9044 C   0  0  0  0  0  0  0  0  0  0  0  0
    8.0703    5.3558    4.2913 C   0  0  0  0  0  0  0  0  0  0  0  0
    7.0840    4.7427    5.0727 C   0  0  0  0  0  0  0  0  0  0  0  0
    7.0753    4.9736    6.8532 S   0  0  0  0  0  0  0  0  0  0  0  0
    5.9638    6.4227    6.8329 C   0  0  0  0  0  0  0  0  0  0  0  0
    6.7649    7.7106    6.7046 C   0  0  0  0  0  0  0  0  0  0  0  0
    6.1224    3.9241    4.4650 C   0  0  0  0  0  0  0  0  0  0  0  0
    6.1462    3.7275    3.0817 C   0  0  0  0  0  0  0  0  0  0  0  0
    5.1658    3.3153    5.2106 F   0  0  0  0  0  0  0  0  0  0  0  0
    6.0611    4.4517    0.0178 C   0  0  0  0  0  0  0  0  0  0  0  0
    4.5870    5.1418    0.4748 S   0  0  0  0  0  0  0  0  0  0  0  0
    9.4281    3.0267    0.8154 C   0  0  0  0  0  0  0  0  0  0  0  0
   10.3040    2.3957   -0.0628 C   0  0  0  0  0  0  0  0  0  0  0  0
    9.6142    2.3732   -1.5997 S   0  0  0  0  0  0  0  0  0  0  0  0
   -1.4187   -3.6960    4.2175 H   0  0  0  0  0  0  0  0  0  0  0  0
    1.0911    0.1609    3.9890 H   0  0  0  0  0  0  0  0  0  0  0  0
   -3.8816   -1.4629    9.0067 H   0  0  0  0  0  0  0  0  0  0  0  0
   -3.6597   -1.3789   10.7865 H   0  0  0  0  0  0  0  0  0  0  0  0
   -2.9549   -0.0809    9.7622 H   0  0  0  0  0  0  0  0  0  0  0  0
    0.7623    0.9525    6.4210 H   0  0  0  0  0  0  0  0  0  0  0  0
   -0.0507    2.7278    7.9921 H   0  0  0  0  0  0  0  0  0  0  0  0
    0.3998    2.6521    9.7385 H   0  0  0  0  0  0  0  0  0  0  0  0
    1.5192    1.9592    8.5058 H   0  0  0  0  0  0  0  0  0  0  0  0
   -2.9551   -3.8135    7.9118 H   0  0  0  0  0  0  0  0  0  0  0  0
   -1.1322   -5.1108    5.8382 H   0  0  0  0  0  0  0  0  0  0  0  0
   -3.2070   -9.0222    9.2019 H   0  0  0  0  0  0  0  0  0  0  0  0
   -3.3622   -9.8230    0.7272 H   0  0  0  0  0  0  0  0  0  0  0  0
   -3.0549  -10.7125    2.2576 H   0  0  0  0  0  0  0  0  0  0  0  0
   -2.0632   -9.2386    1.8285 H   0  0  0  0  0  0  0  0  0  0  0  0
   -3.6829  -10.6532    7.2557 H   0  0  0  0  0  0  0  0  0  0  0  0
   -4.7531  -12.5588    6.2609 H   0  0  0  0  0  0  0  0  0  0  0  0
   -4.1333  -13.4584    4.8293 H   0  0  0  0  0  0  0  0  0  0  0  0
   -2.9627  -12.7155    5.9807 H   0  0  0  0  0  0  0  0  0  0  0  0
   -3.7732   -5.1895    4.5863 H   0  0  0  0  0  0  0  0  0  0  0  0
   -2.5303   -6.7272    2.2839 H   0  0  0  0  0  0  0  0  0  0  0  0
   -3.3344   -1.0433    1.6750 H   0  0  0  0  0  0  0  0  0  0  0  0
    2.2302   -5.2874   -0.9595 H   0  0  0  0  0  0  0  0  0  0  0  0
    2.0399   -3.9296   -2.1716 H   0  0  0  0  0  0  0  0  0  0  0  0
    2.3861   -5.6012   -2.7210 H   0  0  0  0  0  0  0  0  0  0  0  0
   -1.4902   -0.9415   -0.1302 H   0  0  0  0  0  0  0  0  0  0  0  0
   -0.2699   -0.0288   -2.0607 H   0  0  0  0  0  0  0  0  0  0  0  0
    0.7568   -0.0674   -0.5599 H   0  0  0  0  0  0  0  0  0  0  0  0
    1.5219   -0.1726   -2.1939 H   0  0  0  0  0  0  0  0  0  0  0  0
   -1.4020   -7.2950    0.3397 H   0  0  0  0  0  0  0  0  0  0  0  0
   -3.1540   -7.7953   -1.2185 H   0  0  0  0  0  0  0  0  0  0  0  0
   -1.8668   -5.5688   -3.3794 H   0  0  0  0  0  0  0  0  0  0  0  0
   -2.2575   -4.9722   -6.0470 H   0  0  0  0  0  0  0  0  0  0  0  0
   -0.1434   -5.5582   -7.1759 H   0  0  0  0  0  0  0  0  0  0  0  0
    1.8739   -2.2307   -8.0527 H   0  0  0  0  0  0  0  0  0  0  0  0
    3.2694   -2.9766   -8.9048 H   0  0  0  0  0  0  0  0  0  0  0  0
    1.7064   -4.7362   -9.8568 H   0  0  0  0  0  0  0  0  0  0  0  0
    0.3185   -3.8383   -9.1171 H   0  0  0  0  0  0  0  0  0  0  0  0
    1.3265   -3.0536  -10.3839 H   0  0  0  0  0  0  0  0  0  0  0  0
   -0.2409   -1.7713   -3.9848 H   0  0  0  0  0  0  0  0  0  0  0  0
   -7.2354   -1.1143   -3.5360 H   0  0  0  0  0  0  0  0  0  0  0  0
   -9.1950   -0.4108   -2.2199 H   0  0  0  0  0  0  0  0  0  0  0  0
   -9.7435   -2.9635    0.8594 H   0  0  0  0  0  0  0  0  0  0  0  0
  -11.2716   -2.2443    1.4650 H   0  0  0  0  0  0  0  0  0  0  0  0
  -11.9758   -1.7476   -0.9037 H   0  0  0  0  0  0  0  0  0  0  0  0
  -10.4776   -2.5703   -1.4985 H   0  0  0  0  0  0  0  0  0  0  0  0
  -11.7191   -3.5097   -0.6004 H   0  0  0  0  0  0  0  0  0  0  0  0
   -5.2571   -2.3417    0.0848 H   0  0  0  0  0  0  0  0  0  0  0  0
   -5.1177    0.6367   -2.7809 H   0  0  0  0  0  0  0  0  0  0  0  0
   -3.3507    2.2304   -1.8746 H   0  0  0  0  0  0  0  0  0  0  0  0
   -1.2121    1.5940   -0.1867 H   0  0  0  0  0  0  0  0  0  0  0  0
   -2.2662    1.0659    1.9805 H   0  0  0  0  0  0  0  0  0  0  0  0
   -5.6377    3.3342    2.3613 H   0  0  0  0  0  0  0  0  0  0  0  0
   -6.2278    2.5861    3.8816 H   0  0  0  0  0  0  0  0  0  0  0  0
   -6.6663    1.0756    1.9903 H   0  0  0  0  0  0  0  0  0  0  0  0
   -5.4351    0.3333    3.0815 H   0  0  0  0  0  0  0  0  0  0  0  0
   -4.9318    1.0890    1.5143 H   0  0  0  0  0  0  0  0  0  0  0  0
   -2.4024    5.7125    0.2441 H   0  0  0  0  0  0  0  0  0  0  0  0
    2.3020    3.3844   -4.9360 H   0  0  0  0  0  0  0  0  0  0  0  0
    3.3980    3.7955   -7.1046 H   0  0  0  0  0  0  0  0  0  0  0  0
    2.9739    7.5690   -8.1408 H   0  0  0  0  0  0  0  0  0  0  0  0
    3.9378    7.5243   -9.6572 H   0  0  0  0  0  0  0  0  0  0  0  0
    5.4760    5.7989   -8.5730 H   0  0  0  0  0  0  0  0  0  0  0  0
    4.5901    6.0762   -7.0171 H   0  0  0  0  0  0  0  0  0  0  0  0
    5.4937    7.4248   -7.7891 H   0  0  0  0  0  0  0  0  0  0  0  0
   -0.8992    6.0483   -6.0615 H   0  0  0  0  0  0  0  0  0  0  0  0
    2.6266    5.4921   -3.5429 H   0  0  0  0  0  0  0  0  0  0  0  0
    4.5367    4.2412   -2.9619 H   0  0  0  0  0  0  0  0  0  0  0  0
    6.6033    4.9045   -4.2526 H   0  0  0  0  0  0  0  0  0  0  0  0
    6.0841    4.0141   -6.4880 H   0  0  0  0  0  0  0  0  0  0  0  0
    3.8113    1.5871   -6.3383 H   0  0  0  0  0  0  0  0  0  0  0  0
    4.3469   -0.1324   -6.3929 H   0  0  0  0  0  0  0  0  0  0  0  0
    2.3697    0.2148   -7.8370 H   0  0  0  0  0  0  0  0  0  0  0  0
    3.2270    1.5064   -8.7563 H   0  0  0  0  0  0  0  0  0  0  0  0
    3.8015   -0.2078   -8.8491 H   0  0  0  0  0  0  0  0  0  0  0  0
    7.2907    0.8914   -2.8241 H   0  0  0  0  0  0  0  0  0  0  0  0
    8.8447    5.6634    2.3082 H   0  0  0  0  0  0  0  0  0  0  0  0
    8.8224    5.9806    4.7519 H   0  0  0  0  0  0  0  0  0  0  0  0
    5.4039    6.4440    7.7911 H   0  0  0  0  0  0  0  0  0  0  0  0
    5.2250    6.3488    6.0068 H   0  0  0  0  0  0  0  0  0  0  0  0
    7.5250    7.7681    7.5119 H   0  0  0  0  0  0  0  0  0  0  0  0
    6.0863    8.5843    6.7923 H   0  0  0  0  0  0  0  0  0  0  0  0
    7.2729    7.7541    5.7198 H   0  0  0  0  0  0  0  0  0  0  0  0
    5.4062    3.0800    2.6232 H   0  0  0  0  0  0  0  0  0  0  0  0
    9.6475    3.1406    1.8686 H   0  0  0  0  0  0  0  0  0  0  0  0
   11.2652    1.9751    0.2026 H   0  0  0  0  0  0  0  0  0  0  0  0
  1  2  1  0
  2  3  1  0
  3  4  2  0
  4  5  1  0
  5  6  1  0
  6  7  2  0
  7  8  1  0
  8  9  1  0
  7 10  1  0
 10 11  2  0
 10 12  1  0
 12 13  1  0
  6 14  1  0
 14 15  2  3
 15 16  1  0
 16 17  1  0
 17 18  1  0
 18 19  2  0
 19 20  1  0
 20 21  1  0
 21 22  2  0
 22 23  1  0
 23 24  1  0
 22 25  1  0
 25 26  2  0
 25 27  1  0
 27 28  1  0
 21 29  1  0
 29 30  2  3
 30 31  1  0
 31 32  1  0
 32 33  1  0
 33 34  2  0
 34 35  1  0
 35 36  1  0
 36 37  2  0
 37 38  1  0
 38 39  1  0
 37 40  1  0
 40 41  2  0
 40 42  1  0
 42 43  1  0
 36 44  1  0
 44 45  2  3
 45 46  1  0
 46 47  2  0
 47 48  1  0
 48 49  2  0
 49 50  1  0
 50 51  2  0
 51 52  1  0
 52 53  2  0
 53 54  1  0
 54 55  1  0
 55 56  1  0
 53 57  1  0
 57 58  1  0
 57 59  2  0
 49 60  1  0
 60 61  2  0
 61 62  1  0
 62 63  1  0
 63 64  2  0
 64 65  1  0
 65 66  2  0
 66 67  1  0
 67 68  1  0
 68 69  1  0
 66 70  1  0
 70 71  2  0
 70 72  1  0
 62 73  2  0
 73 74  1  0
 61 75  1  0
 75 76  2  0
 76 77  1  0
 76 78  1  0
 78 79  2  0
 79 80  1  0
 80 81  2  0
 81 82  1  0
 82 83  2  0
 83 84  1  0
 84 85  2  0
 85 86  1  0
 86 87  1  0
 87 88  1  0
 85 89  1  0
 89 90  1  0
 89 91  2  0
 81 92  1  0
 92 93  2  0
 93 94  1  0
 94 95  1  0
 95 96  2  0
 96 97  1  0
 97 98  2  0
 98 99  1  0
 99100  1  0
100101  1  0
 98102  1  0
102103  2  0
102104  1  0
 94105  2  0
105106  1  0
 93107  1  0
107108  2  0
108109  1  0
108110  1  0
110111  2  0
111112  1  0
112113  2  0
113114  1  0
114115  2  0
115116  1  0
116117  2  0
117118  1  0
118119  1  0
119120  1  0
117121  1  0
121122  1  0
121123  2  0
113124  1  0
124125  2  0
125126  1  0
126127  1  0
127128  2  0
128129  1  0
129130  2  0
130131  1  0
131132  1  0
132133  1  0
130134  1  0
134135  2  0
134136  1  0
126137  2  0
137138  1  0
125139  1  0
139140  2  0
140141  1  0
  5  1  2  0
 20 16  2  0
 35 31  2  0
 74 46  1  0
106 78  1  0
138110  1  0
 11  4  1  0
 26 19  1  0
 41 34  1  0
 73 48  1  0
105 80  1  0
137112  1  0
 59 50  1  0
 77 60  1  0
 91 82  1  0
109 92  1  0
123114  1  0
141124  1  0
 71 63  1  0
103 95  1  0
135127  1  0
  1142  1  0
  3143  1  0
  9144  1  0
  9145  1  0
  9146  1  0
 11147  1  0
 13148  1  0
 13149  1  0
 13150  1  0
 14151  1  0
 15152  1  0
 18153  1  0
 24154  1  0
 24155  1  0
 24156  1  0
 26157  1  0
 28158  1  0
 28159  1  0
 28160  1  0
 29161  1  0
 30162  1  0
 33163  1  0
 39164  1  0
 39165  1  0
 39166  1  0
 41167  1  0
 43168  1  0
 43169  1  0
 43170  1  0
 44171  1  0
 45172  1  0
 47173  1  0
 51174  1  0
 52175  1  0
 55176  1  0
 55177  1  0
 56178  1  0
 56179  1  0
 56180  1  0
 59181  1  0
 64182  1  0
 65183  1  0
 68184  1  0
 68185  1  0
 69186  1  0
 69187  1  0
 69188  1  0
 71189  1  0
 75190  1  0
 79191  1  0
 83192  1  0
 84193  1  0
 87194  1  0
 87195  1  0
 88196  1  0
 88197  1  0
 88198  1  0
 91199  1  0
 96200  1  0
 97201  1  0
100202  1  0
100203  1  0
101204  1  0
101205  1  0
101206  1  0
103207  1  0
107208  1  0
111209  1  0
115210  1  0
116211  1  0
119212  1  0
119213  1  0
120214  1  0
120215  1  0
120216  1  0
123217  1  0
128218  1  0
129219  1  0
132220  1  0
132221  1  0
133222  1  0
133223  1  0
133224  1  0
135225  1  0
139226  1  0
140227  1  0
M  END

