
     RDKit          3D

112123  0  0  0  0  0  0  0  0999 V2000
    4.2069    5.2304    1.6250 C   0  0  0  0  0  0  0  0  0  0  0  0
    2.6590    4.6254    1.8262 S   0  0  0  0  0  0  0  0  0  0  0  0
    3.0368    2.9824    1.9365 C   0  0  0  0  0  0  0  0  0  0  0  0
    4.4360    2.8944    1.7978 C   0  0  0  0  0  0  0  0  0  0  0  0
    5.0652    4.1435    1.6123 C   0  0  0  0  0  0  0  0  0  0  0  0
    6.4442    4.2387    1.4168 C   0  0  0  0  0  0  0  0  0  0  0  0
    7.2288    3.0703    1.4184 C   0  0  0  0  0  0  0  0  0  0  0  0
    8.6481    3.1492    1.1904 N   0  0  0  0  0  4  0  0  0  0  0  0
    9.2423    4.3553    0.8967 O   0  0  0  0  0  1  0  0  0  0  0  0
    9.3548    2.1198    1.2134 O   0  0  0  0  0  0  0  0  0  0  0  0
    6.6070    1.8243    1.6517 C   0  0  0  0  0  0  0  0  0  0  0  0
    5.2230    1.7337    1.8504 C   0  0  0  0  0  0  0  0  0  0  0  0
    2.0330    1.8795    1.9837 C   0  0  0  0  0  0  0  0  0  0  0  0
    2.2964    0.3179    1.4157 S   0  0  0  0  0  0  0  0  0  0  0  0
    0.7530   -0.3137    1.6044 C   0  0  0  0  0  0  0  0  0  0  0  0
   -0.0366    0.7352    2.1085 C   0  0  0  0  0  0  0  0  0  0  0  0
    0.6753    1.9384    2.3433 C   0  0  0  0  0  0  0  0  0  0  0  0
    0.0164    3.0374    2.9203 C   0  0  0  0  0  0  0  0  0  0  0  0
   -1.3655    2.9818    3.1767 C   0  0  0  0  0  0  0  0  0  0  0  0
   -2.0440    4.1183    3.7447 N   0  0  0  0  0  4  0  0  0  0  0  0
   -1.3480    5.2580    4.0733 O   0  0  0  0  0  1  0  0  0  0  0  0
   -3.2749    4.0859    3.9519 O   0  0  0  0  0  0  0  0  0  0  0  0
   -2.0753    1.8065    2.8657 C   0  0  0  0  0  0  0  0  0  0  0  0
   -1.4192    0.6892    2.3438 C   0  0  0  0  0  0  0  0  0  0  0  0
    0.3820   -1.7439    1.4025 C   0  0  0  0  0  0  0  0  0  0  0  0
   -0.8576   -2.5345    2.2417 S   0  0  0  0  0  0  0  0  0  0  0  0
   -0.6868   -4.0410    1.5305 C   0  0  0  0  0  0  0  0  0  0  0  0
    0.3803   -3.9781    0.6455 C   0  0  0  0  0  0  0  0  0  0  0  0
    0.9877   -2.7068    0.5658 C   0  0  0  0  0  0  0  0  0  0  0  0
    2.0734   -2.5178   -0.3062 C   0  0  0  0  0  0  0  0  0  0  0  0
    2.5580   -3.6002   -1.0735 C   0  0  0  0  0  0  0  0  0  0  0  0
    3.7026   -3.4363   -1.9276 N   0  0  0  0  0  4  0  0  0  0  0  0
    4.0053   -4.3827   -2.8799 O   0  0  0  0  0  1  0  0  0  0  0  0
    4.4836   -2.4790   -1.7639 O   0  0  0  0  0  0  0  0  0  0  0  0
    1.9193   -4.8524   -0.9905 C   0  0  0  0  0  0  0  0  0  0  0  0
    0.8315   -5.0439   -0.1373 C   0  0  0  0  0  0  0  0  0  0  0  0
   -1.5141   -5.2171    1.8137 C   0  0  0  0  0  0  0  0  0  0  0  0
   -0.9799   -6.4805    2.7801 S   0  0  0  0  0  0  0  0  0  0  0  0
   -2.3588   -7.4200    2.6570 C   0  0  0  0  0  0  0  0  0  0  0  0
   -3.2768   -6.7623    1.8443 C   0  0  0  0  0  0  0  0  0  0  0  0
   -2.8055   -5.5101    1.3408 C   0  0  0  0  0  0  0  0  0  0  0  0
   -3.6201   -4.6509    0.4255 C   0  0  0  0  0  0  0  0  0  0  0  0
   -5.1254   -5.1953    0.0911 S   0  0  0  0  0  4  0  0  0  0  0  0
   -6.1636   -4.4170   -1.0695 O   0  0  0  0  0  0  0  0  0  0  0  0
   -7.3249   -4.0213   -0.3888 C   0  0  0  0  0  0  0  0  0  0  0  0
   -5.5402   -6.7734    0.8134 C   0  0  0  0  0  0  0  0  0  0  0  0
   -4.6105   -7.3679    1.5764 C   0  0  0  0  0  0  0  0  0  0  0  0
   -6.7997   -7.3322    0.5498 O   0  0  0  0  0  0  0  0  0  0  0  0
   -7.2335   -8.6052    1.0166 C   0  0  0  0  0  0  0  0  0  0  0  0
   -3.0995   -3.4310   -0.2340 C   0  0  0  0  0  0  0  0  0  0  0  0
   -3.8659   -2.3542   -0.4348 C   0  0  0  0  0  0  0  0  0  0  0  0
   -3.3502   -1.1059   -1.0245 C   0  0  0  0  0  0  0  0  0  0  0  0
   -1.7774   -0.5184   -0.8604 S   0  0  0  0  0  0  0  0  0  0  0  0
   -2.0470    1.0148   -1.5073 C   0  0  0  0  0  0  0  0  0  0  0  0
   -3.3984    1.0840   -1.8625 C   0  0  0  0  0  0  0  0  0  0  0  0
   -4.1214   -0.0916   -1.5920 C   0  0  0  0  0  0  0  0  0  0  0  0
   -5.4934   -0.1630   -1.8710 C   0  0  0  0  0  0  0  0  0  0  0  0
   -6.1494    0.9510   -2.4333 C   0  0  0  0  0  0  0  0  0  0  0  0
   -7.5586    0.8982   -2.7241 N   0  0  0  0  0  4  0  0  0  0  0  0
   -8.1990    1.9812   -3.2819 O   0  0  0  0  0  1  0  0  0  0  0  0
   -8.2252   -0.1260   -2.4659 O   0  0  0  0  0  0  0  0  0  0  0  0
   -5.4101    2.1211   -2.7096 C   0  0  0  0  0  0  0  0  0  0  0  0
   -4.0403    2.1897   -2.4297 C   0  0  0  0  0  0  0  0  0  0  0  0
   -1.1392    2.1659   -1.3437 C   0  0  0  0  0  0  0  0  0  0  0  0
   -1.6178    3.5553   -0.5257 S   0  0  0  0  0  0  0  0  0  0  0  0
   -0.1598    4.3638   -0.6020 C   0  0  0  0  0  0  0  0  0  0  0  0
    0.7560    3.5568   -1.2654 C   0  0  0  0  0  0  0  0  0  0  0  0
    0.2206    2.2995   -1.6904 C   0  0  0  0  0  0  0  0  0  0  0  0
    1.0467    1.2839   -2.4084 C   0  0  0  0  0  0  0  0  0  0  0  0
    2.6400    1.6286   -2.5506 S   0  0  0  0  0  4  0  0  0  0  0  0
    3.7261    0.6312   -3.4734 O   0  0  0  0  0  0  0  0  0  0  0  0
    4.9012    0.4942   -2.7169 C   0  0  0  0  0  0  0  0  0  0  0  0
    3.0971    3.2796   -2.0483 C   0  0  0  0  0  0  0  0  0  0  0  0
    2.1465    4.0389   -1.4890 C   0  0  0  0  0  0  0  0  0  0  0  0
    4.4019    3.7320   -2.2955 O   0  0  0  0  0  0  0  0  0  0  0  0
    4.8384    5.0778   -2.1374 C   0  0  0  0  0  0  0  0  0  0  0  0
    0.4543    0.1383   -3.1305 C   0  0  0  0  0  0  0  0  0  0  0  0
    1.0782   -1.0270   -3.2878 C   0  0  0  0  0  0  0  0  0  0  0  0
    4.4778    6.2714    1.4997 H   0  0  0  0  0  0  0  0  0  0  0  0
    6.8970    5.2098    1.2585 H   0  0  0  0  0  0  0  0  0  0  0  0
    7.1944    0.9159    1.6816 H   0  0  0  0  0  0  0  0  0  0  0  0
    4.8041    0.7651    2.0627 H   0  0  0  0  0  0  0  0  0  0  0  0
    0.5589    3.9210    3.2028 H   0  0  0  0  0  0  0  0  0  0  0  0
   -3.1431    1.7486    3.0358 H   0  0  0  0  0  0  0  0  0  0  0  0
   -2.0148   -0.1749    2.0985 H   0  0  0  0  0  0  0  0  0  0  0  0
    2.5345   -1.5518   -0.4213 H   0  0  0  0  0  0  0  0  0  0  0  0
    2.2713   -5.6902   -1.5781 H   0  0  0  0  0  0  0  0  0  0  0  0
    0.3523   -6.0147   -0.0907 H   0  0  0  0  0  0  0  0  0  0  0  0
   -2.5066   -8.3793    3.1336 H   0  0  0  0  0  0  0  0  0  0  0  0
   -7.0882   -3.2692    0.3928 H   0  0  0  0  0  0  0  0  0  0  0  0
   -8.0179   -3.5530   -1.1157 H   0  0  0  0  0  0  0  0  0  0  0  0
   -7.8442   -4.8948    0.0600 H   0  0  0  0  0  0  0  0  0  0  0  0
   -4.8211   -8.3279    2.0286 H   0  0  0  0  0  0  0  0  0  0  0  0
   -8.2676   -8.7887    0.6576 H   0  0  0  0  0  0  0  0  0  0  0  0
   -7.2332   -8.6285    2.1266 H   0  0  0  0  0  0  0  0  0  0  0  0
   -6.5726   -9.4011    0.6138 H   0  0  0  0  0  0  0  0  0  0  0  0
   -2.0714   -3.4105   -0.5639 H   0  0  0  0  0  0  0  0  0  0  0  0
   -4.8963   -2.3630   -0.1126 H   0  0  0  0  0  0  0  0  0  0  0  0
   -6.0434   -1.0736   -1.6695 H   0  0  0  0  0  0  0  0  0  0  0  0
   -5.8924    2.9851   -3.1479 H   0  0  0  0  0  0  0  0  0  0  0  0
   -3.4929    3.0911   -2.6684 H   0  0  0  0  0  0  0  0  0  0  0  0
    0.0354    5.3493   -0.1964 H   0  0  0  0  0  0  0  0  0  0  0  0
    5.5438   -0.2751   -3.1917 H   0  0  0  0  0  0  0  0  0  0  0  0
    4.6823    0.1627   -1.6752 H   0  0  0  0  0  0  0  0  0  0  0  0
    5.4728    1.4466   -2.7025 H   0  0  0  0  0  0  0  0  0  0  0  0
    2.3808    5.0478   -1.1754 H   0  0  0  0  0  0  0  0  0  0  0  0
    4.7849    5.3767   -1.0742 H   0  0  0  0  0  0  0  0  0  0  0  0
    4.2128    5.7559   -2.7533 H   0  0  0  0  0  0  0  0  0  0  0  0
    5.8896    5.1594   -2.4752 H   0  0  0  0  0  0  0  0  0  0  0  0
   -0.5381    0.2414   -3.5463 H   0  0  0  0  0  0  0  0  0  0  0  0
    0.5917   -1.8339   -3.8182 H   0  0  0  0  0  0  0  0  0  0  0  0
    2.0585   -1.2047   -2.8756 H   0  0  0  0  0  0  0  0  0  0  0  0
  1  2  1  0
  2  3  1  0
  3  4  2  0
  4  5  1  0
  5  6  1  0
  6  7  2  0
  7  8  1  0
  8  9  1  0
  8 10  2  0
  7 11  1  0
 11 12  2  0
  3 13  1  0
 13 14  1  0
 14 15  1  0
 15 16  2  0
 16 17  1  0
 17 18  1  0
 18 19  2  0
 19 20  1  0
 20 21  1  0
 20 22  2  0
 19 23  1  0
 23 24  2  0
 15 25  1  0
 25 26  1  0
 26 27  1  0
 27 28  2  0
 28 29  1  0
 29 30  1  0
 30 31  2  0
 31 32  1  0
 32 33  1  0
 32 34  2  0
 31 35  1  0
 35 36  2  0
 27 37  1  0
 37 38  1  0
 38 39  1  0
 39 40  2  0
 40 41  1  0
 41 42  1  0
 42 43  2  0
 43 44  1  0
 44 45  1  0
 43 46  1  0
 46 47  2  0
 46 48  1  0
 48 49  1  0
 42 50  1  0
 50 51  2  3
 51 52  1  0
 52 53  1  0
 53 54  1  0
 54 55  2  0
 55 56  1  0
 56 57  1  0
 57 58  2  0
 58 59  1  0
 59 60  1  0
 59 61  2  0
 58 62  1  0
 62 63  2  0
 54 64  1  0
 64 65  1  0
 65 66  1  0
 66 67  2  0
 67 68  1  0
 68 69  1  0
 69 70  2  0
 70 71  1  0
 71 72  1  0
 70 73  1  0
 73 74  2  0
 73 75  1  0
 75 76  1  0
 69 77  1  0
 77 78  2  3
  5  1  2  0
 17 13  2  0
 29 25  2  0
 41 37  2  0
 56 52  2  0
 68 64  2  0
 12  4  1  0
 24 16  1  0
 36 28  1  0
 47 40  1  0
 63 55  1  0
 74 67  1  0
  1 79  1  0
  6 80  1  0
 11 81  1  0
 12 82  1  0
 18 83  1  0
 23 84  1  0
 24 85  1  0
 30 86  1  0
 35 87  1  0
 36 88  1  0
 39 89  1  0
 45 90  1  0
 45 91  1  0
 45 92  1  0
 47 93  1  0
 49 94  1  0
 49 95  1  0
 49 96  1  0
 50 97  1  0
 51 98  1  0
 57 99  1  0
 62100  1  0
 63101  1  0
 66102  1  0
 72103  1  0
 72104  1  0
 72105  1  0
 74106  1  0
 76107  1  0
 76108  1  0
 76109  1  0
 77110  1  0
 78111  1  0
 78112  1  0
M  CHG  8   8   1   9  -1  20   1  21  -1  32   1  33  -1  59   1  60  -1
M  END

