
     RDKit          3D

230253  0  0  0  0  0  0  0  0999 V2000
   -4.1966   -5.6593   15.4597 C   0  0  0  0  0  0  0  0  0  0  0  0
   -3.5347   -4.6719   14.7359 C   0  0  0  0  0  0  0  0  0  0  0  0
   -3.6969   -4.8018   13.3473 C   0  0  0  0  0  0  0  0  0  0  0  0
   -3.1616   -3.9514   12.3558 C   0  0  0  0  0  0  0  0  0  0  0  0
   -2.3049   -2.7952   12.6919 C   0  0  0  0  0  0  0  0  0  0  0  0
   -1.0740   -2.9894   13.3343 C   0  0  0  0  0  0  0  0  0  0  0  0
   -0.2472   -1.8971   13.6157 C   0  0  0  0  0  0  0  0  0  0  0  0
   -0.6481   -0.6051   13.2589 C   0  0  0  0  0  0  0  0  0  0  0  0
    0.4613    0.7759   13.5431 S   0  0  0  0  0  0  0  0  0  0  0  0
    1.2570    0.6767   11.8967 C   0  0  0  0  0  0  0  0  0  0  0  0
    2.7692    0.7233   12.0502 C   0  0  0  0  0  0  0  0  0  0  0  0
   -1.8872   -0.4034   12.6399 C   0  0  0  0  0  0  0  0  0  0  0  0
   -2.2879    0.8482   12.2983 F   0  0  0  0  0  0  0  0  0  0  0  0
   -2.7136   -1.4944   12.3570 C   0  0  0  0  0  0  0  0  0  0  0  0
   -3.4799   -4.2580   11.0189 C   0  0  0  0  0  0  0  0  0  0  0  0
   -4.2912   -5.3422   10.6669 C   0  0  0  0  0  0  0  0  0  0  0  0
   -4.8223   -6.1884   11.6589 C   0  0  0  0  0  0  0  0  0  0  0  0
   -5.6692   -7.3476   11.3227 C   0  0  0  0  0  0  0  0  0  0  0  0
   -5.1581   -8.6475   11.4335 C   0  0  0  0  0  0  0  0  0  0  0  0
   -5.9635   -9.7469   11.1220 C   0  0  0  0  0  0  0  0  0  0  0  0
   -7.2872   -9.5549   10.7062 C   0  0  0  0  0  0  0  0  0  0  0  0
   -8.3200  -10.9780   10.3439 S   0  0  0  0  0  0  0  0  0  0  0  0
   -7.9403  -10.9468    8.5588 C   0  0  0  0  0  0  0  0  0  0  0  0
   -8.6393  -12.1065    7.8615 C   0  0  0  0  0  0  0  0  0  0  0  0
   -7.8014   -8.2549   10.5984 C   0  0  0  0  0  0  0  0  0  0  0  0
   -6.9919   -7.1538   10.8981 C   0  0  0  0  0  0  0  0  0  0  0  0
   -9.0854   -8.0553   10.2031 F   0  0  0  0  0  0  0  0  0  0  0  0
   -4.4980   -5.8909   12.9921 C   0  0  0  0  0  0  0  0  0  0  0  0
   -4.9910   -6.6877   14.3876 S   0  0  0  0  0  0  0  0  0  0  0  0
   -4.4607   -5.4833    9.2830 C   0  0  0  0  0  0  0  0  0  0  0  0
   -3.7723   -4.5187    8.5482 C   0  0  0  0  0  0  0  0  0  0  0  0
   -2.9581   -3.4901    9.6147 S   0  0  0  0  0  0  0  0  0  0  0  0
   -3.7363   -4.4325    7.0784 C   0  0  0  0  0  0  0  0  0  0  0  0
   -2.9255   -3.5782    6.3281 C   0  0  0  0  0  0  0  0  0  0  0  0
   -3.0807   -3.7557    4.9441 C   0  0  0  0  0  0  0  0  0  0  0  0
   -2.3669   -3.0843    3.9272 C   0  0  0  0  0  0  0  0  0  0  0  0
   -1.3523   -2.0520    4.2216 C   0  0  0  0  0  0  0  0  0  0  0  0
   -1.7290   -0.8310    4.7982 C   0  0  0  0  0  0  0  0  0  0  0  0
   -0.7723    0.1646    5.0218 C   0  0  0  0  0  0  0  0  0  0  0  0
    0.5658   -0.0543    4.6719 C   0  0  0  0  0  0  0  0  0  0  0  0
    1.7841    1.2356    4.9529 S   0  0  0  0  0  0  0  0  0  0  0  0
    1.5003    2.0894    3.3600 C   0  0  0  0  0  0  0  0  0  0  0  0
    2.2662    1.4145    2.2270 C   0  0  0  0  0  0  0  0  0  0  0  0
    0.9512   -1.2854    4.1251 C   0  0  0  0  0  0  0  0  0  0  0  0
    2.2515   -1.5250    3.8178 F   0  0  0  0  0  0  0  0  0  0  0  0
   -0.0069   -2.2761    3.8912 C   0  0  0  0  0  0  0  0  0  0  0  0
   -2.6525   -3.4562    2.6023 C   0  0  0  0  0  0  0  0  0  0  0  0
   -3.5934   -4.4351    2.2815 C   0  0  0  0  0  0  0  0  0  0  0  0
   -4.3003   -5.1079    3.2935 C   0  0  0  0  0  0  0  0  0  0  0  0
   -5.2689   -6.1673    2.9698 C   0  0  0  0  0  0  0  0  0  0  0  0
   -6.6357   -5.8696    2.8873 C   0  0  0  0  0  0  0  0  0  0  0  0
   -7.5396   -6.8438    2.4538 C   0  0  0  0  0  0  0  0  0  0  0  0
   -7.0795   -8.1156    2.0856 C   0  0  0  0  0  0  0  0  0  0  0  0
   -8.2443   -9.3449    1.4845 S   0  0  0  0  0  0  0  0  0  0  0  0
   -8.2436   -8.7471   -0.2452 C   0  0  0  0  0  0  0  0  0  0  0  0
   -7.0076   -9.2230   -1.0018 C   0  0  0  0  0  0  0  0  0  0  0  0
   -5.7170   -8.4249    2.2007 C   0  0  0  0  0  0  0  0  0  0  0  0
   -4.8134   -7.4504    2.6332 C   0  0  0  0  0  0  0  0  0  0  0  0
   -5.2632   -9.6625    1.8747 F   0  0  0  0  0  0  0  0  0  0  0  0
   -4.0179   -4.7439    4.6188 C   0  0  0  0  0  0  0  0  0  0  0  0
   -4.6457   -5.4005    6.0324 S   0  0  0  0  0  0  0  0  0  0  0  0
   -3.7337   -4.6438    0.9001 C   0  0  0  0  0  0  0  0  0  0  0  0
   -2.8955   -3.8319    0.1374 C   0  0  0  0  0  0  0  0  0  0  0  0
   -1.9973   -2.8482    1.1789 S   0  0  0  0  0  0  0  0  0  0  0  0
   -2.7845   -3.7893   -1.3331 C   0  0  0  0  0  0  0  0  0  0  0  0
   -1.9700   -2.5792   -2.1800 S   0  0  0  0  0  0  0  0  0  0  0  0
   -2.2539   -3.1703   -3.7367 C   0  0  0  0  0  0  0  0  0  0  0  0
   -2.9416   -4.3676   -3.5890 C   0  0  0  0  0  0  0  0  0  0  0  0
   -3.2453   -4.7061   -2.2838 C   0  0  0  0  0  0  0  0  0  0  0  0
   -4.2524   -6.1598   -2.0567 S   0  0  0  0  0  0  0  0  0  0  0  0
   -4.9316   -5.9462   -3.7430 C   0  0  0  0  0  0  0  0  0  0  0  0
   -3.6053   -5.3970   -4.8815 S   0  0  0  0  0  0  0  0  0  0  0  0
   -1.6946   -2.6519   -5.0015 C   0  0  0  0  0  0  0  0  0  0  0  0
   -1.2761   -1.3965   -5.2006 C   0  0  0  0  0  0  0  0  0  0  0  0
   -1.5445   -0.2780   -4.2877 C   0  0  0  0  0  0  0  0  0  0  0  0
   -3.0726    0.2952   -3.8399 S   0  0  0  0  0  0  0  0  0  0  0  0
   -2.5122    1.5392   -2.8470 C   0  0  0  0  0  0  0  0  0  0  0  0
   -1.1184    1.5144   -2.8827 C   0  0  0  0  0  0  0  0  0  0  0  0
   -0.5917    0.5336   -3.6938 C   0  0  0  0  0  0  0  0  0  0  0  0
    1.1485    0.2022   -3.5422 S   0  0  0  0  0  0  0  0  0  0  0  0
    1.0873    0.8369   -1.8253 C   0  0  0  0  0  0  0  0  0  0  0  0
    0.0046    2.3142   -1.7545 S   0  0  0  0  0  0  0  0  0  0  0  0
   -3.3629    2.5168   -2.1388 C   0  0  0  0  0  0  0  0  0  0  0  0
   -3.2256    3.8454   -2.2724 C   0  0  0  0  0  0  0  0  0  0  0  0
   -2.3153    4.4617   -3.2547 C   0  0  0  0  0  0  0  0  0  0  0  0
   -2.1348    4.0157   -4.5617 C   0  0  0  0  0  0  0  0  0  0  0  0
   -0.9836    4.5360   -5.1672 C   0  0  0  0  0  0  0  0  0  0  0  0
   -0.4642    4.1358   -6.4124 C   0  0  0  0  0  0  0  0  0  0  0  0
   -1.1297    3.1024   -7.2400 C   0  0  0  0  0  0  0  0  0  0  0  0
   -2.4144    3.3258   -7.7606 C   0  0  0  0  0  0  0  0  0  0  0  0
   -3.0486    2.3340   -8.5137 C   0  0  0  0  0  0  0  0  0  0  0  0
   -2.4075    1.1130   -8.7547 C   0  0  0  0  0  0  0  0  0  0  0  0
   -3.2336   -0.1590   -9.7180 S   0  0  0  0  0  0  0  0  0  0  0  0
   -3.8543   -1.0875   -8.2677 C   0  0  0  0  0  0  0  0  0  0  0  0
   -5.0805   -0.4162   -7.6617 C   0  0  0  0  0  0  0  0  0  0  0  0
   -1.1156    0.8958   -8.2593 C   0  0  0  0  0  0  0  0  0  0  0  0
   -0.4693   -0.2709   -8.5109 F   0  0  0  0  0  0  0  0  0  0  0  0
   -0.4900    1.8762   -7.4866 C   0  0  0  0  0  0  0  0  0  0  0  0
    0.7964    4.6421   -6.7587 C   0  0  0  0  0  0  0  0  0  0  0  0
    1.5367    5.4844   -5.9212 C   0  0  0  0  0  0  0  0  0  0  0  0
    1.0020    5.9099   -4.6834 C   0  0  0  0  0  0  0  0  0  0  0  0
    1.7793    6.7580   -3.7487 C   0  0  0  0  0  0  0  0  0  0  0  0
    2.1907    8.0443   -4.1332 C   0  0  0  0  0  0  0  0  0  0  0  0
    2.8919    8.8578   -3.2389 C   0  0  0  0  0  0  0  0  0  0  0  0
    3.1840    8.3971   -1.9488 C   0  0  0  0  0  0  0  0  0  0  0  0
    4.0660    9.4619   -0.7984 S   0  0  0  0  0  0  0  0  0  0  0  0
    2.5823   10.3748   -0.2348 C   0  0  0  0  0  0  0  0  0  0  0  0
    1.8026    9.5791    0.8058 C   0  0  0  0  0  0  0  0  0  0  0  0
    2.8008    7.1047   -1.5692 C   0  0  0  0  0  0  0  0  0  0  0  0
    2.1067    6.2881   -2.4666 C   0  0  0  0  0  0  0  0  0  0  0  0
    3.1007    6.6351   -0.3305 F   0  0  0  0  0  0  0  0  0  0  0  0
   -0.2724    5.4128   -4.3394 C   0  0  0  0  0  0  0  0  0  0  0  0
   -1.0930    5.5603   -2.8710 S   0  0  0  0  0  0  0  0  0  0  0  0
    2.8485    5.7034   -6.3857 C   0  0  0  0  0  0  0  0  0  0  0  0
    3.1210    5.0357   -7.5833 C   0  0  0  0  0  0  0  0  0  0  0  0
    1.7404    4.2087   -8.0756 S   0  0  0  0  0  0  0  0  0  0  0  0
    4.4507    4.7853   -8.1606 C   0  0  0  0  0  0  0  0  0  0  0  0
    5.6698    5.2257   -7.6432 C   0  0  0  0  0  0  0  0  0  0  0  0
    6.7766    4.6122   -8.2569 C   0  0  0  0  0  0  0  0  0  0  0  0
    8.1321    4.8094   -7.9205 C   0  0  0  0  0  0  0  0  0  0  0  0
    8.5397    5.7994   -6.9010 C   0  0  0  0  0  0  0  0  0  0  0  0
    9.1895    5.3901   -5.7270 C   0  0  0  0  0  0  0  0  0  0  0  0
    9.5076    6.3258   -4.7365 C   0  0  0  0  0  0  0  0  0  0  0  0
    9.1827    7.6747   -4.9138 C   0  0  0  0  0  0  0  0  0  0  0  0
    9.5734    8.8660   -3.6267 S   0  0  0  0  0  0  0  0  0  0  0  0
    7.9921    8.6796   -2.7207 C   0  0  0  0  0  0  0  0  0  0  0  0
    8.2582    8.1524   -1.3196 C   0  0  0  0  0  0  0  0  0  0  0  0
    8.5506    8.0914   -6.0915 C   0  0  0  0  0  0  0  0  0  0  0  0
    8.2355    9.3984   -6.2768 F   0  0  0  0  0  0  0  0  0  0  0  0
    8.2306    7.1576   -7.0810 C   0  0  0  0  0  0  0  0  0  0  0  0
    9.0733    4.0107   -8.5957 C   0  0  0  0  0  0  0  0  0  0  0  0
    8.7107    3.0721   -9.5699 C   0  0  0  0  0  0  0  0  0  0  0  0
    7.3560    2.8875   -9.9171 C   0  0  0  0  0  0  0  0  0  0  0  0
    6.9253    1.8784  -10.9077 C   0  0  0  0  0  0  0  0  0  0  0  0
    6.0975    0.8131  -10.5172 C   0  0  0  0  0  0  0  0  0  0  0  0
    5.6632   -0.1237  -11.4569 C   0  0  0  0  0  0  0  0  0  0  0  0
    6.0640   -0.0179  -12.7917 C   0  0  0  0  0  0  0  0  0  0  0  0
    5.5104   -1.2345  -13.9929 S   0  0  0  0  0  0  0  0  0  0  0  0
    6.9208   -2.3697  -13.7349 C   0  0  0  0  0  0  0  0  0  0  0  0
    6.5999   -3.3914  -12.6523 C   0  0  0  0  0  0  0  0  0  0  0  0
    6.8893    1.0429  -13.1904 C   0  0  0  0  0  0  0  0  0  0  0  0
    7.3179    1.9865  -12.2505 C   0  0  0  0  0  0  0  0  0  0  0  0
    7.2737    1.1640  -14.4859 F   0  0  0  0  0  0  0  0  0  0  0  0
    6.4184    3.6838   -9.2384 C   0  0  0  0  0  0  0  0  0  0  0  0
    4.7459    3.6471   -9.3714 S   0  0  0  0  0  0  0  0  0  0  0  0
    9.8074    2.3657  -10.0885 C   0  0  0  0  0  0  0  0  0  0  0  0
   11.0242    2.7577   -9.5359 C   0  0  0  0  0  0  0  0  0  0  0  0
   10.7433    3.9741   -8.4009 S   0  0  0  0  0  0  0  0  0  0  0  0
   -4.2062   -5.7463   16.5374 H   0  0  0  0  0  0  0  0  0  0  0  0
   -2.9656   -3.8841   15.2109 H   0  0  0  0  0  0  0  0  0  0  0  0
   -0.7418   -3.9863   13.5965 H   0  0  0  0  0  0  0  0  0  0  0  0
    0.7100   -2.0593   14.0922 H   0  0  0  0  0  0  0  0  0  0  0  0
    0.9191    1.5394   11.2848 H   0  0  0  0  0  0  0  0  0  0  0  0
    0.9848   -0.2567   11.3577 H   0  0  0  0  0  0  0  0  0  0  0  0
    3.1143   -0.1410   12.6583 H   0  0  0  0  0  0  0  0  0  0  0  0
    3.2480    0.6700   11.0498 H   0  0  0  0  0  0  0  0  0  0  0  0
    3.0774    1.6689   12.5468 H   0  0  0  0  0  0  0  0  0  0  0  0
   -3.6668   -1.3301   11.8705 H   0  0  0  0  0  0  0  0  0  0  0  0
   -4.1367   -8.8087   11.7561 H   0  0  0  0  0  0  0  0  0  0  0  0
   -5.5593  -10.7470   11.2067 H   0  0  0  0  0  0  0  0  0  0  0  0
   -8.2940   -9.9897    8.1194 H   0  0  0  0  0  0  0  0  0  0  0  0
   -6.8434  -11.0350    8.4048 H   0  0  0  0  0  0  0  0  0  0  0  0
   -9.7371  -12.0498    8.0350 H   0  0  0  0  0  0  0  0  0  0  0  0
   -8.4466  -12.0589    6.7667 H   0  0  0  0  0  0  0  0  0  0  0  0
   -8.2567  -13.0750    8.2536 H   0  0  0  0  0  0  0  0  0  0  0  0
   -7.3965   -6.1520   10.8088 H   0  0  0  0  0  0  0  0  0  0  0  0
   -5.0490   -6.2715    8.8292 H   0  0  0  0  0  0  0  0  0  0  0  0
   -2.2345   -2.8725    6.7709 H   0  0  0  0  0  0  0  0  0  0  0  0
   -2.7640   -0.6433    5.0567 H   0  0  0  0  0  0  0  0  0  0  0  0
   -1.0745    1.1093    5.4560 H   0  0  0  0  0  0  0  0  0  0  0  0
    0.4162    2.1249    3.1183 H   0  0  0  0  0  0  0  0  0  0  0  0
    1.8631    3.1339    3.4622 H   0  0  0  0  0  0  0  0  0  0  0  0
    2.1896    2.0312    1.3063 H   0  0  0  0  0  0  0  0  0  0  0  0
    3.3389    1.3102    2.4986 H   0  0  0  0  0  0  0  0  0  0  0  0
    1.8389    0.4134    2.0118 H   0  0  0  0  0  0  0  0  0  0  0  0
    0.2981   -3.2190    3.4531 H   0  0  0  0  0  0  0  0  0  0  0  0
   -6.9959   -4.8767    3.1311 H   0  0  0  0  0  0  0  0  0  0  0  0
   -8.5920   -6.6018    2.3766 H   0  0  0  0  0  0  0  0  0  0  0  0
   -8.3076   -7.6380   -0.2791 H   0  0  0  0  0  0  0  0  0  0  0  0
   -9.1456   -9.1552   -0.7473 H   0  0  0  0  0  0  0  0  0  0  0  0
   -6.0926   -8.7369   -0.6036 H   0  0  0  0  0  0  0  0  0  0  0  0
   -7.1059   -8.9570   -2.0764 H   0  0  0  0  0  0  0  0  0  0  0  0
   -6.9041  -10.3260   -0.9152 H   0  0  0  0  0  0  0  0  0  0  0  0
   -3.7569   -7.6856    2.6881 H   0  0  0  0  0  0  0  0  0  0  0  0
   -4.4440   -5.3436    0.4873 H   0  0  0  0  0  0  0  0  0  0  0  0
   -5.7395   -5.1855   -3.7196 H   0  0  0  0  0  0  0  0  0  0  0  0
   -5.3488   -6.9097   -4.0946 H   0  0  0  0  0  0  0  0  0  0  0  0
   -1.5340   -3.3649   -5.7992 H   0  0  0  0  0  0  0  0  0  0  0  0
   -0.7265   -1.1777   -6.1062 H   0  0  0  0  0  0  0  0  0  0  0  0
    2.1064    1.1045   -1.4850 H   0  0  0  0  0  0  0  0  0  0  0  0
    0.6823    0.0532   -1.1526 H   0  0  0  0  0  0  0  0  0  0  0  0
   -4.1225    2.1322   -1.4686 H   0  0  0  0  0  0  0  0  0  0  0  0
   -3.8043    4.4970   -1.6296 H   0  0  0  0  0  0  0  0  0  0  0  0
   -2.7664    3.2628   -5.0163 H   0  0  0  0  0  0  0  0  0  0  0  0
   -2.9222    4.2664   -7.5817 H   0  0  0  0  0  0  0  0  0  0  0  0
   -4.0413    2.5123   -8.9068 H   0  0  0  0  0  0  0  0  0  0  0  0
   -3.0617   -1.1911   -7.4972 H   0  0  0  0  0  0  0  0  0  0  0  0
   -4.1376   -2.1066   -8.6054 H   0  0  0  0  0  0  0  0  0  0  0  0
   -5.5035   -1.0641   -6.8642 H   0  0  0  0  0  0  0  0  0  0  0  0
   -4.8098    0.5604   -7.2104 H   0  0  0  0  0  0  0  0  0  0  0  0
   -5.8571   -0.2589   -8.4409 H   0  0  0  0  0  0  0  0  0  0  0  0
    0.4954    1.6808   -7.0768 H   0  0  0  0  0  0  0  0  0  0  0  0
    1.9526    8.4228   -5.1204 H   0  0  0  0  0  0  0  0  0  0  0  0
    3.1931    9.8542   -3.5427 H   0  0  0  0  0  0  0  0  0  0  0  0
    2.9181   11.3274    0.2280 H   0  0  0  0  0  0  0  0  0  0  0  0
    1.9241   10.6257   -1.0940 H   0  0  0  0  0  0  0  0  0  0  0  0
    0.9633   10.1953    1.1922 H   0  0  0  0  0  0  0  0  0  0  0  0
    2.4645    9.3083    1.6563 H   0  0  0  0  0  0  0  0  0  0  0  0
    1.3802    8.6565    0.3548 H   0  0  0  0  0  0  0  0  0  0  0  0
    1.8204    5.2883   -2.1619 H   0  0  0  0  0  0  0  0  0  0  0  0
    3.5971    6.2495   -5.8287 H   0  0  0  0  0  0  0  0  0  0  0  0
    5.7485    5.9140   -6.8125 H   0  0  0  0  0  0  0  0  0  0  0  0
    9.4256    4.3445   -5.5683 H   0  0  0  0  0  0  0  0  0  0  0  0
    9.9956    5.9958   -3.8265 H   0  0  0  0  0  0  0  0  0  0  0  0
    7.2867    7.9970   -3.2439 H   0  0  0  0  0  0  0  0  0  0  0  0
    7.5118    9.6781   -2.6492 H   0  0  0  0  0  0  0  0  0  0  0  0
    8.7402    7.1556   -1.3752 H   0  0  0  0  0  0  0  0  0  0  0  0
    7.2996    8.0626   -0.7684 H   0  0  0  0  0  0  0  0  0  0  0  0
    8.9229    8.8529   -0.7698 H   0  0  0  0  0  0  0  0  0  0  0  0
    7.7298    7.4899   -7.9822 H   0  0  0  0  0  0  0  0  0  0  0  0
    5.7888    0.7100   -9.4836 H   0  0  0  0  0  0  0  0  0  0  0  0
    5.0185   -0.9367  -11.1440 H   0  0  0  0  0  0  0  0  0  0  0  0
    7.8438   -1.8105  -13.4650 H   0  0  0  0  0  0  0  0  0  0  0  0
    7.1132   -2.9059  -14.6884 H   0  0  0  0  0  0  0  0  0  0  0  0
    5.6808   -3.9563  -12.9175 H   0  0  0  0  0  0  0  0  0  0  0  0
    6.4547   -2.8912  -11.6739 H   0  0  0  0  0  0  0  0  0  0  0  0
    7.4423   -4.1076  -12.5607 H   0  0  0  0  0  0  0  0  0  0  0  0
    7.9452    2.8092  -12.5704 H   0  0  0  0  0  0  0  0  0  0  0  0
    9.7292    1.5853  -10.8337 H   0  0  0  0  0  0  0  0  0  0  0  0
   11.9887    2.3406   -9.7879 H   0  0  0  0  0  0  0  0  0  0  0  0
  1  2  2  0
  2  3  1  0
  3  4  2  0
  4  5  1  0
  5  6  2  0
  6  7  1  0
  7  8  2  0
  8  9  1  0
  9 10  1  0
 10 11  1  0
  8 12  1  0
 12 13  1  0
 12 14  2  0
  4 15  1  0
 15 16  2  0
 16 17  1  0
 17 18  1  0
 18 19  2  0
 19 20  1  0
 20 21  2  0
 21 22  1  0
 22 23  1  0
 23 24  1  0
 21 25  1  0
 25 26  2  0
 25 27  1  0
 17 28  2  0
 28 29  1  0
 16 30  1  0
 30 31  2  0
 31 32  1  0
 31 33  1  0
 33 34  2  0
 34 35  1  0
 35 36  2  0
 36 37  1  0
 37 38  2  0
 38 39  1  0
 39 40  2  0
 40 41  1  0
 41 42  1  0
 42 43  1  0
 40 44  1  0
 44 45  1  0
 44 46  2  0
 36 47  1  0
 47 48  2  0
 48 49  1  0
 49 50  1  0
 50 51  2  0
 51 52  1  0
 52 53  2  0
 53 54  1  0
 54 55  1  0
 55 56  1  0
 53 57  1  0
 57 58  2  0
 57 59  1  0
 49 60  2  0
 60 61  1  0
 48 62  1  0
 62 63  2  0
 63 64  1  0
 63 65  1  0
 65 66  1  0
 66 67  1  0
 67 68  2  0
 68 69  1  0
 69 70  1  0
 70 71  1  0
 71 72  1  0
 67 73  1  0
 73 74  2  3
 74 75  1  0
 75 76  1  0
 76 77  1  0
 77 78  2  0
 78 79  1  0
 79 80  1  0
 80 81  1  0
 81 82  1  0
 77 83  1  0
 83 84  2  3
 84 85  1  0
 85 86  2  0
 86 87  1  0
 87 88  2  0
 88 89  1  0
 89 90  2  0
 90 91  1  0
 91 92  2  0
 92 93  1  0
 93 94  1  0
 94 95  1  0
 92 96  1  0
 96 97  1  0
 96 98  2  0
 88 99  1  0
 99100  2  0
100101  1  0
101102  1  0
102103  2  0
103104  1  0
104105  2  0
105106  1  0
106107  1  0
107108  1  0
105109  1  0
109110  2  0
109111  1  0
101112  2  0
112113  1  0
100114  1  0
114115  2  0
115116  1  0
115117  1  0
117118  2  0
118119  1  0
119120  2  0
120121  1  0
121122  2  0
122123  1  0
123124  2  0
124125  1  0
125126  1  0
126127  1  0
124128  1  0
128129  1  0
128130  2  0
120131  1  0
131132  2  0
132133  1  0
133134  1  0
134135  2  0
135136  1  0
136137  2  0
137138  1  0
138139  1  0
139140  1  0
137141  1  0
141142  2  0
141143  1  0
133144  2  0
144145  1  0
132146  1  0
146147  2  0
147148  1  0
 29  1  1  0
 61 33  1  0
 69 65  2  0
 79 75  2  0
113 85  1  0
145117  1  0
 28  3  1  0
 60 35  1  0
 72 68  1  0
 82 78  1  0
112 87  1  0
144119  1  0
 14  5  1  0
 32 15  1  0
 46 37  1  0
 64 47  1  0
 98 89  1  0
116 99  1  0
130121  1  0
148131  1  0
 26 18  1  0
 58 50  1  0
110102  1  0
142134  1  0
  1149  1  0
  2150  1  0
  6151  1  0
  7152  1  0
 10153  1  0
 10154  1  0
 11155  1  0
 11156  1  0
 11157  1  0
 14158  1  0
 19159  1  0
 20160  1  0
 23161  1  0
 23162  1  0
 24163  1  0
 24164  1  0
 24165  1  0
 26166  1  0
 30167  1  0
 34168  1  0
 38169  1  0
 39170  1  0
 42171  1  0
 42172  1  0
 43173  1  0
 43174  1  0
 43175  1  0
 46176  1  0
 51177  1  0
 52178  1  0
 55179  1  0
 55180  1  0
 56181  1  0
 56182  1  0
 56183  1  0
 58184  1  0
 62185  1  0
 71186  1  0
 71187  1  0
 73188  1  0
 74189  1  0
 81190  1  0
 81191  1  0
 83192  1  0
 84193  1  0
 86194  1  0
 90195  1  0
 91196  1  0
 94197  1  0
 94198  1  0
 95199  1  0
 95200  1  0
 95201  1  0
 98202  1  0
103203  1  0
104204  1  0
107205  1  0
107206  1  0
108207  1  0
108208  1  0
108209  1  0
110210  1  0
114211  1  0
118212  1  0
122213  1  0
123214  1  0
126215  1  0
126216  1  0
127217  1  0
127218  1  0
127219  1  0
130220  1  0
135221  1  0
136222  1  0
139223  1  0
139224  1  0
140225  1  0
140226  1  0
140227  1  0
142228  1  0
146229  1  0
147230  1  0
M  END

