
     RDKit          3D

245270  0  0  0  0  0  0  0  0999 V2000
    2.7391   12.5835   -4.4423 C   0  0  0  0  0  0  0  0  0  0  0  0
    1.6497   12.7261   -3.5878 C   0  0  0  0  0  0  0  0  0  0  0  0
    1.2802   11.5248   -2.9610 C   0  0  0  0  0  0  0  0  0  0  0  0
    0.2125   11.3463   -2.0563 C   0  0  0  0  0  0  0  0  0  0  0  0
   -0.6985   12.4464   -1.6952 C   0  0  0  0  0  0  0  0  0  0  0  0
   -0.8622   13.0929   -0.1524 S   0  0  0  0  0  0  0  0  0  0  0  0
   -2.0357   14.2280   -0.5548 C   0  0  0  0  0  0  0  0  0  0  0  0
   -2.5937   15.2450    0.3932 C   0  0  0  0  0  0  0  0  0  0  0  0
   -1.7999   16.5431    0.3186 C   0  0  0  0  0  0  0  0  0  0  0  0
   -2.3036   14.1274   -1.9217 C   0  0  0  0  0  0  0  0  0  0  0  0
   -3.4712   15.1438   -2.7565 Cl  0  0  0  0  0  0  0  0  0  0  0  0
   -1.5626   13.1217   -2.5579 C   0  0  0  0  0  0  0  0  0  0  0  0
   -1.7398   12.7268   -4.2628 Cl  0  0  0  0  0  0  0  0  0  0  0  0
    0.0483   10.0619   -1.5118 C   0  0  0  0  0  0  0  0  0  0  0  0
    0.8611    8.9826   -1.8713 C   0  0  0  0  0  0  0  0  0  0  0  0
    1.9039    9.1499   -2.8065 C   0  0  0  0  0  0  0  0  0  0  0  0
    2.7566    8.0212   -3.2300 C   0  0  0  0  0  0  0  0  0  0  0  0
    4.4122    7.9025   -2.9490 S   0  0  0  0  0  0  0  0  0  0  0  0
    4.6021    6.3717   -3.6227 C   0  0  0  0  0  0  0  0  0  0  0  0
    5.9039    5.6350   -3.7179 C   0  0  0  0  0  0  0  0  0  0  0  0
    6.5667    5.8736   -5.0712 C   0  0  0  0  0  0  0  0  0  0  0  0
    3.3645    5.9364   -4.0996 C   0  0  0  0  0  0  0  0  0  0  0  0
    2.3301    6.8601   -3.8758 C   0  0  0  0  0  0  0  0  0  0  0  0
    0.6727    6.5957   -4.4062 Cl  0  0  0  0  0  0  0  0  0  0  0  0
    3.1190    4.3846   -4.8853 Cl  0  0  0  0  0  0  0  0  0  0  0  0
    2.0956   10.4448   -3.3171 C   0  0  0  0  0  0  0  0  0  0  0  0
    3.2506   10.9769   -4.4210 S   0  0  0  0  0  0  0  0  0  0  0  0
    0.5193    7.7929   -1.2166 C   0  0  0  0  0  0  0  0  0  0  0  0
   -0.5790    7.9341   -0.3698 C   0  0  0  0  0  0  0  0  0  0  0  0
   -1.1167    9.5340   -0.4149 S   0  0  0  0  0  0  0  0  0  0  0  0
   -1.2124    6.8351    0.3711 C   0  0  0  0  0  0  0  0  0  0  0  0
   -2.3078    6.9418    1.2291 C   0  0  0  0  0  0  0  0  0  0  0  0
   -2.7559    5.6949    1.6997 C   0  0  0  0  0  0  0  0  0  0  0  0
   -3.8557    5.4616    2.5576 C   0  0  0  0  0  0  0  0  0  0  0  0
   -4.6118    6.5704    3.1677 C   0  0  0  0  0  0  0  0  0  0  0  0
   -6.2474    6.8772    2.9158 S   0  0  0  0  0  0  0  0  0  0  0  0
   -6.3290    8.2436    3.8955 C   0  0  0  0  0  0  0  0  0  0  0  0
   -7.5761    9.0330    4.1553 C   0  0  0  0  0  0  0  0  0  0  0  0
   -8.3116    8.4966    5.3763 C   0  0  0  0  0  0  0  0  0  0  0  0
   -5.0721    8.4655    4.4560 C   0  0  0  0  0  0  0  0  0  0  0  0
   -4.7270    9.7704    5.5823 Cl  0  0  0  0  0  0  0  0  0  0  0  0
   -4.1079    7.5309    4.0444 C   0  0  0  0  0  0  0  0  0  0  0  0
   -2.4460    7.5366    4.6275 Cl  0  0  0  0  0  0  0  0  0  0  0  0
   -4.2028    4.1155    2.7873 C   0  0  0  0  0  0  0  0  0  0  0  0
   -3.4777    3.0551    2.2363 C   0  0  0  0  0  0  0  0  0  0  0  0
   -2.3326    3.2869    1.4540 C   0  0  0  0  0  0  0  0  0  0  0  0
   -1.5015    2.1786    0.9394 C   0  0  0  0  0  0  0  0  0  0  0  0
   -1.2548    1.8276   -0.6873 S   0  0  0  0  0  0  0  0  0  0  0  0
   -0.2675    0.4867   -0.4356 C   0  0  0  0  0  0  0  0  0  0  0  0
    0.3655   -0.3225   -1.5224 C   0  0  0  0  0  0  0  0  0  0  0  0
    1.7654    0.1934   -1.8427 C   0  0  0  0  0  0  0  0  0  0  0  0
   -0.1011    0.3069    0.9385 C   0  0  0  0  0  0  0  0  0  0  0  0
   -0.7973    1.2501    1.7071 C   0  0  0  0  0  0  0  0  0  0  0  0
   -0.7440    1.2831    3.4647 Cl  0  0  0  0  0  0  0  0  0  0  0  0
    0.8969   -0.9663    1.6355 Cl  0  0  0  0  0  0  0  0  0  0  0  0
   -2.0192    4.6223    1.1828 C   0  0  0  0  0  0  0  0  0  0  0  0
   -0.8000    5.2097    0.1921 S   0  0  0  0  0  0  0  0  0  0  0  0
   -4.0317    1.8052    2.5178 C   0  0  0  0  0  0  0  0  0  0  0  0
   -5.1705    1.8792    3.3117 C   0  0  0  0  0  0  0  0  0  0  0  0
   -5.4982    3.4953    3.6818 S   0  0  0  0  0  0  0  0  0  0  0  0
   -5.9362    0.7058    3.7311 C   0  0  0  0  0  0  0  0  0  0  0  0
   -5.9529    0.2192    5.0377 C   0  0  0  0  0  0  0  0  0  0  0  0
   -6.1855   -1.1693    5.1055 C   0  0  0  0  0  0  0  0  0  0  0  0
   -5.9868   -1.9786    6.2469 C   0  0  0  0  0  0  0  0  0  0  0  0
   -5.8508   -1.3844    7.5955 C   0  0  0  0  0  0  0  0  0  0  0  0
   -4.5826   -1.6475    8.6748 S   0  0  0  0  0  0  0  0  0  0  0  0
   -5.1810   -0.6649    9.9041 C   0  0  0  0  0  0  0  0  0  0  0  0
   -4.5627   -0.5321   11.2652 C   0  0  0  0  0  0  0  0  0  0  0  0
   -5.1699   -1.5442   12.2288 C   0  0  0  0  0  0  0  0  0  0  0  0
   -6.3961   -0.1251    9.4902 C   0  0  0  0  0  0  0  0  0  0  0  0
   -7.3861    0.9141   10.5049 Cl  0  0  0  0  0  0  0  0  0  0  0  0
   -6.7733   -0.5279    8.2017 C   0  0  0  0  0  0  0  0  0  0  0  0
   -8.3016   -0.0528    7.4649 Cl  0  0  0  0  0  0  0  0  0  0  0  0
   -5.8433   -3.3610    6.0195 C   0  0  0  0  0  0  0  0  0  0  0  0
   -6.0272   -3.9413    4.7585 C   0  0  0  0  0  0  0  0  0  0  0  0
   -6.3502   -3.1442    3.6414 C   0  0  0  0  0  0  0  0  0  0  0  0
   -6.4267   -3.6876    2.2692 C   0  0  0  0  0  0  0  0  0  0  0  0
   -5.1533   -4.4303    1.4560 S   0  0  0  0  0  0  0  0  0  0  0  0
   -5.9552   -4.6103   -0.0143 C   0  0  0  0  0  0  0  0  0  0  0  0
   -5.3439   -5.1973   -1.2503 C   0  0  0  0  0  0  0  0  0  0  0  0
   -4.8028   -4.1048   -2.1667 C   0  0  0  0  0  0  0  0  0  0  0  0
   -7.2249   -4.0461    0.1010 C   0  0  0  0  0  0  0  0  0  0  0  0
   -7.4901   -3.5320    1.3787 C   0  0  0  0  0  0  0  0  0  0  0  0
   -9.0171   -2.7752    1.8187 Cl  0  0  0  0  0  0  0  0  0  0  0  0
   -8.3771   -3.9707   -1.2261 Cl  0  0  0  0  0  0  0  0  0  0  0  0
   -6.3837   -1.7545    3.8500 C   0  0  0  0  0  0  0  0  0  0  0  0
   -6.2449   -0.5684    2.6750 S   0  0  0  0  0  0  0  0  0  0  0  0
   -5.6523   -5.2916    4.7098 C   0  0  0  0  0  0  0  0  0  0  0  0
   -5.0487   -5.7489    5.8847 C   0  0  0  0  0  0  0  0  0  0  0  0
   -5.1337   -4.5098    7.0283 S   0  0  0  0  0  0  0  0  0  0  0  0
   -3.9333   -6.7090    5.8189 C   0  0  0  0  0  0  0  0  0  0  0  0
   -3.8587   -7.6943    4.8315 C   0  0  0  0  0  0  0  0  0  0  0  0
   -2.5589   -7.9067    4.3428 C   0  0  0  0  0  0  0  0  0  0  0  0
   -2.2417   -8.5904    3.1530 C   0  0  0  0  0  0  0  0  0  0  0  0
   -3.2681   -9.3399    2.4000 C   0  0  0  0  0  0  0  0  0  0  0  0
   -3.8639   -8.9057    0.8850 S   0  0  0  0  0  0  0  0  0  0  0  0
   -4.9935  -10.1470    0.7742 C   0  0  0  0  0  0  0  0  0  0  0  0
   -5.8812  -10.3837   -0.4097 C   0  0  0  0  0  0  0  0  0  0  0  0
   -5.2872  -11.4397   -1.3351 C   0  0  0  0  0  0  0  0  0  0  0  0
   -4.9140  -10.9274    1.9269 C   0  0  0  0  0  0  0  0  0  0  0  0
   -5.9039  -12.3557    2.2006 Cl  0  0  0  0  0  0  0  0  0  0  0  0
   -3.9532  -10.4692    2.8409 C   0  0  0  0  0  0  0  0  0  0  0  0
   -3.6163  -11.2694    4.3711 Cl  0  0  0  0  0  0  0  0  0  0  0  0
   -0.9698   -8.3539    2.6096 C   0  0  0  0  0  0  0  0  0  0  0  0
   -0.0257   -7.5188    3.2190 C   0  0  0  0  0  0  0  0  0  0  0  0
   -0.2982   -6.9432    4.4783 C   0  0  0  0  0  0  0  0  0  0  0  0
    0.6788   -6.0978    5.1924 C   0  0  0  0  0  0  0  0  0  0  0  0
    1.3291   -4.6495    4.6262 S   0  0  0  0  0  0  0  0  0  0  0  0
    2.3484   -4.3877    5.9378 C   0  0  0  0  0  0  0  0  0  0  0  0
    3.2839   -3.2220    6.0686 C   0  0  0  0  0  0  0  0  0  0  0  0
    2.7260   -2.1728    7.0242 C   0  0  0  0  0  0  0  0  0  0  0  0
    2.1734   -5.4231    6.8573 C   0  0  0  0  0  0  0  0  0  0  0  0
    1.2360   -6.3792    6.4395 C   0  0  0  0  0  0  0  0  0  0  0  0
    0.8571   -7.8260    7.3657 Cl  0  0  0  0  0  0  0  0  0  0  0  0
    3.0653   -5.5453    8.3663 Cl  0  0  0  0  0  0  0  0  0  0  0  0
   -1.5913   -7.1388    4.9975 C   0  0  0  0  0  0  0  0  0  0  0  0
   -2.3559   -6.1944    6.1573 S   0  0  0  0  0  0  0  0  0  0  0  0
    1.0795   -7.2394    2.3923 C   0  0  0  0  0  0  0  0  0  0  0  0
    0.9942   -7.8559    1.1426 C   0  0  0  0  0  0  0  0  0  0  0  0
   -0.4217   -8.7624    1.0769 S   0  0  0  0  0  0  0  0  0  0  0  0
    1.6380   -7.3791   -0.0887 C   0  0  0  0  0  0  0  0  0  0  0  0
    2.1436   -8.3015   -1.0083 C   0  0  0  0  0  0  0  0  0  0  0  0
    2.3938   -7.9242   -2.3339 C   0  0  0  0  0  0  0  0  0  0  0  0
    2.9269   -8.9695   -3.2889 C   0  0  0  0  0  0  0  0  0  0  0  0
    1.8094   -9.8716   -3.8133 C   0  0  0  0  0  0  0  0  0  0  0  0
    2.0791   -6.6071   -2.7597 C   0  0  0  0  0  0  0  0  0  0  0  0
    1.6614   -5.6471   -1.8003 C   0  0  0  0  0  0  0  0  0  0  0  0
    1.4668   -6.0411   -0.4695 C   0  0  0  0  0  0  0  0  0  0  0  0
    1.2356   -4.2463   -2.1867 C   0  0  0  0  0  0  0  0  0  0  0  0
   -0.2618   -4.1910   -2.4662 C   0  0  0  0  0  0  0  0  0  0  0  0
    1.9085   -6.3478   -4.2079 C   0  0  0  0  0  0  0  0  0  0  0  0
    2.6954   -5.5703   -4.9700 C   0  0  0  0  0  0  0  0  0  0  0  0
    2.3426   -5.4217   -6.4334 C   0  0  0  0  0  0  0  0  0  0  0  0
    3.8881   -4.8673   -4.4080 C   0  0  0  0  0  0  0  0  0  0  0  0
    4.6261   -4.0233   -5.1464 C   0  0  0  0  0  0  0  0  0  0  0  0
    5.7876   -3.2802   -4.6336 C   0  0  0  0  0  0  0  0  0  0  0  0
    6.5951   -2.4879   -5.4439 C   0  0  0  0  0  0  0  0  0  0  0  0
    7.6381   -1.8637   -4.7435 C   0  0  0  0  0  0  0  0  0  0  0  0
    8.5859   -0.9772   -5.2933 C   0  0  0  0  0  0  0  0  0  0  0  0
    8.5934   -0.6379   -6.7289 C   0  0  0  0  0  0  0  0  0  0  0  0
    8.8114   -1.7454   -7.9776 S   0  0  0  0  0  0  0  0  0  0  0  0
    8.5854   -0.6527   -9.2340 C   0  0  0  0  0  0  0  0  0  0  0  0
    8.5368   -1.0271  -10.6816 C   0  0  0  0  0  0  0  0  0  0  0  0
    7.1316   -1.4720  -11.0723 C   0  0  0  0  0  0  0  0  0  0  0  0
    8.3192    0.6045   -8.6903 C   0  0  0  0  0  0  0  0  0  0  0  0
    7.9537    2.0261   -9.6571 Cl  0  0  0  0  0  0  0  0  0  0  0  0
    8.3196    0.6130   -7.2849 C   0  0  0  0  0  0  0  0  0  0  0  0
    7.9081    2.0322   -6.3277 Cl  0  0  0  0  0  0  0  0  0  0  0  0
    9.5172   -0.4175   -4.4082 C   0  0  0  0  0  0  0  0  0  0  0  0
    9.5317   -0.7119   -3.0394 C   0  0  0  0  0  0  0  0  0  0  0  0
    8.5850   -1.6038   -2.4874 C   0  0  0  0  0  0  0  0  0  0  0  0
    8.5344   -1.8803   -1.0367 C   0  0  0  0  0  0  0  0  0  0  0  0
    8.3635   -0.7001    0.1526 S   0  0  0  0  0  0  0  0  0  0  0  0
    8.4116   -1.7480    1.4662 C   0  0  0  0  0  0  0  0  0  0  0  0
    8.2919   -1.3192    2.8973 C   0  0  0  0  0  0  0  0  0  0  0  0
    6.8425   -1.0029    3.2525 C   0  0  0  0  0  0  0  0  0  0  0  0
    8.5307   -3.0558    0.9895 C   0  0  0  0  0  0  0  0  0  0  0  0
    8.6160   -3.1272   -0.4121 C   0  0  0  0  0  0  0  0  0  0  0  0
    8.9028   -4.6325   -1.2756 Cl  0  0  0  0  0  0  0  0  0  0  0  0
    8.5979   -4.4684    2.0292 Cl  0  0  0  0  0  0  0  0  0  0  0  0
    7.6462   -2.1654   -3.3782 C   0  0  0  0  0  0  0  0  0  0  0  0
    6.3505   -3.1925   -3.0375 S   0  0  0  0  0  0  0  0  0  0  0  0
   10.5674   -0.0536   -2.3514 C   0  0  0  0  0  0  0  0  0  0  0  0
   11.3544    0.7452   -3.1738 C   0  0  0  0  0  0  0  0  0  0  0  0
   10.7829    0.6372   -4.7570 S   0  0  0  0  0  0  0  0  0  0  0  0
    3.1883   13.3788   -5.0216 H   0  0  0  0  0  0  0  0  0  0  0  0
    1.1548   13.6724   -3.4263 H   0  0  0  0  0  0  0  0  0  0  0  0
   -3.6592   15.4440    0.1499 H   0  0  0  0  0  0  0  0  0  0  0  0
   -2.5538   14.8466    1.4285 H   0  0  0  0  0  0  0  0  0  0  0  0
   -2.2470   17.2943    1.0019 H   0  0  0  0  0  0  0  0  0  0  0  0
   -0.7452   16.3656    0.6247 H   0  0  0  0  0  0  0  0  0  0  0  0
   -1.8234   16.9524   -0.7140 H   0  0  0  0  0  0  0  0  0  0  0  0
    6.5863    5.9882   -2.9142 H   0  0  0  0  0  0  0  0  0  0  0  0
    5.7371    4.5481   -3.5695 H   0  0  0  0  0  0  0  0  0  0  0  0
    7.5224    5.3150   -5.1154 H   0  0  0  0  0  0  0  0  0  0  0  0
    5.9096    5.5173   -5.8933 H   0  0  0  0  0  0  0  0  0  0  0  0
    6.7781    6.9540   -5.2094 H   0  0  0  0  0  0  0  0  0  0  0  0
    1.0343    6.8537   -1.3587 H   0  0  0  0  0  0  0  0  0  0  0  0
   -2.7788    7.8847    1.4769 H   0  0  0  0  0  0  0  0  0  0  0  0
   -8.2402    8.9691    3.2672 H   0  0  0  0  0  0  0  0  0  0  0  0
   -7.3259   10.1040    4.3093 H   0  0  0  0  0  0  0  0  0  0  0  0
   -7.6742    8.5820    6.2811 H   0  0  0  0  0  0  0  0  0  0  0  0
   -9.2366    9.0880    5.5379 H   0  0  0  0  0  0  0  0  0  0  0  0
   -8.5927    7.4342    5.2185 H   0  0  0  0  0  0  0  0  0  0  0  0
   -0.2646   -0.2728   -2.4393 H   0  0  0  0  0  0  0  0  0  0  0  0
    0.4257   -1.3842   -1.2061 H   0  0  0  0  0  0  0  0  0  0  0  0
    1.7093    1.2304   -2.2382 H   0  0  0  0  0  0  0  0  0  0  0  0
    2.2319   -0.4598   -2.6100 H   0  0  0  0  0  0  0  0  0  0  0  0
    2.4052    0.1821   -0.9351 H   0  0  0  0  0  0  0  0  0  0  0  0
   -3.6225    0.8672    2.1612 H   0  0  0  0  0  0  0  0  0  0  0  0
   -5.6334    0.8133    5.8855 H   0  0  0  0  0  0  0  0  0  0  0  0
   -4.7227    0.4952   11.6502 H   0  0  0  0  0  0  0  0  0  0  0  0
   -3.4675   -0.7064   11.1916 H   0  0  0  0  0  0  0  0  0  0  0  0
   -6.2707   -1.3893   12.3075 H   0  0  0  0  0  0  0  0  0  0  0  0
   -4.7186   -1.4235   13.2365 H   0  0  0  0  0  0  0  0  0  0  0  0
   -4.9733   -2.5775   11.8728 H   0  0  0  0  0  0  0  0  0  0  0  0
   -4.5115   -5.8728   -0.9618 H   0  0  0  0  0  0  0  0  0  0  0  0
   -6.0974   -5.8032   -1.7966 H   0  0  0  0  0  0  0  0  0  0  0  0
   -5.6245   -3.4320   -2.4946 H   0  0  0  0  0  0  0  0  0  0  0  0
   -4.0278   -3.5073   -1.6368 H   0  0  0  0  0  0  0  0  0  0  0  0
   -4.3442   -4.5673   -3.0650 H   0  0  0  0  0  0  0  0  0  0  0  0
   -5.6356   -5.8615    3.7927 H   0  0  0  0  0  0  0  0  0  0  0  0
   -4.7414   -8.0798    4.3421 H   0  0  0  0  0  0  0  0  0  0  0  0
   -6.8896  -10.7076   -0.0695 H   0  0  0  0  0  0  0  0  0  0  0  0
   -5.9995   -9.4331   -0.9731 H   0  0  0  0  0  0  0  0  0  0  0  0
   -5.9460  -11.5730   -2.2158 H   0  0  0  0  0  0  0  0  0  0  0  0
   -4.2814  -11.1197   -1.6877 H   0  0  0  0  0  0  0  0  0  0  0  0
   -5.1951  -12.4099   -0.8046 H   0  0  0  0  0  0  0  0  0  0  0  0
    4.2692   -3.5766    6.4384 H   0  0  0  0  0  0  0  0  0  0  0  0
    3.4443   -2.7589    5.0718 H   0  0  0  0  0  0  0  0  0  0  0  0
    3.4201   -1.3097    7.0782 H   0  0  0  0  0  0  0  0  0  0  0  0
    1.7356   -1.8163    6.6650 H   0  0  0  0  0  0  0  0  0  0  0  0
    2.6113   -2.5979    8.0444 H   0  0  0  0  0  0  0  0  0  0  0  0
    1.8539   -6.5258    2.6306 H   0  0  0  0  0  0  0  0  0  0  0  0
    2.2745   -9.3333   -0.7065 H   0  0  0  0  0  0  0  0  0  0  0  0
    3.4518   -8.4920   -4.1420 H   0  0  0  0  0  0  0  0  0  0  0  0
    3.6807   -9.5937   -2.7640 H   0  0  0  0  0  0  0  0  0  0  0  0
    2.2357  -10.5739   -4.5602 H   0  0  0  0  0  0  0  0  0  0  0  0
    1.0149   -9.2742   -4.3052 H   0  0  0  0  0  0  0  0  0  0  0  0
    1.3738  -10.4669   -2.9864 H   0  0  0  0  0  0  0  0  0  0  0  0
    1.0468   -5.3350    0.2401 H   0  0  0  0  0  0  0  0  0  0  0  0
    1.4777   -3.5447   -1.3604 H   0  0  0  0  0  0  0  0  0  0  0  0
    1.7890   -3.8756   -3.0731 H   0  0  0  0  0  0  0  0  0  0  0  0
   -0.5329   -4.9200   -3.2573 H   0  0  0  0  0  0  0  0  0  0  0  0
   -0.8394   -4.4168   -1.5463 H   0  0  0  0  0  0  0  0  0  0  0  0
   -0.5371   -3.1736   -2.8172 H   0  0  0  0  0  0  0  0  0  0  0  0
    1.0780   -6.8681   -4.6713 H   0  0  0  0  0  0  0  0  0  0  0  0
    2.1146   -4.3563   -6.6539 H   0  0  0  0  0  0  0  0  0  0  0  0
    3.1896   -5.7660   -7.0619 H   0  0  0  0  0  0  0  0  0  0  0  0
    1.4513   -6.0191   -6.7189 H   0  0  0  0  0  0  0  0  0  0  0  0
    4.1529   -5.0252   -3.3690 H   0  0  0  0  0  0  0  0  0  0  0  0
    4.3773   -3.8491   -6.1836 H   0  0  0  0  0  0  0  0  0  0  0  0
    6.4091   -2.3604   -6.5020 H   0  0  0  0  0  0  0  0  0  0  0  0
    9.2522   -1.8568  -10.8713 H   0  0  0  0  0  0  0  0  0  0  0  0
    8.8365   -0.1666  -11.3123 H   0  0  0  0  0  0  0  0  0  0  0  0
    7.1074   -1.7212  -12.1529 H   0  0  0  0  0  0  0  0  0  0  0  0
    6.8341   -2.3686  -10.4918 H   0  0  0  0  0  0  0  0  0  0  0  0
    6.4016   -0.6575  -10.8791 H   0  0  0  0  0  0  0  0  0  0  0  0
    8.6698   -2.1105    3.5801 H   0  0  0  0  0  0  0  0  0  0  0  0
    8.9166   -0.4107    3.0559 H   0  0  0  0  0  0  0  0  0  0  0  0
    6.7800   -0.6727    4.3119 H   0  0  0  0  0  0  0  0  0  0  0  0
    6.4532   -0.1867    2.6051 H   0  0  0  0  0  0  0  0  0  0  0  0
    6.2082   -1.9062    3.1215 H   0  0  0  0  0  0  0  0  0  0  0  0
   10.7575   -0.1573   -1.2926 H   0  0  0  0  0  0  0  0  0  0  0  0
   12.2036    1.3320   -2.8485 H   0  0  0  0  0  0  0  0  0  0  0  0
  1  2  2  0
  2  3  1  0
  3  4  2  0
  4  5  1  0
  5  6  1  0
  6  7  1  0
  7  8  1  0
  8  9  1  0
  7 10  2  0
 10 11  1  0
 10 12  1  0
 12 13  1  0
  4 14  1  0
 14 15  2  0
 15 16  1  0
 16 17  1  0
 17 18  1  0
 18 19  1  0
 19 20  1  0
 20 21  1  0
 19 22  2  0
 22 23  1  0
 23 24  1  0
 22 25  1  0
 16 26  2  0
 26 27  1  0
 15 28  1  0
 28 29  2  0
 29 30  1  0
 29 31  1  0
 31 32  2  0
 32 33  1  0
 33 34  2  0
 34 35  1  0
 35 36  1  0
 36 37  1  0
 37 38  1  0
 38 39  1  0
 37 40  2  0
 40 41  1  0
 40 42  1  0
 42 43  1  0
 34 44  1  0
 44 45  2  0
 45 46  1  0
 46 47  1  0
 47 48  1  0
 48 49  1  0
 49 50  1  0
 50 51  1  0
 49 52  2  0
 52 53  1  0
 53 54  1  0
 52 55  1  0
 46 56  2  0
 56 57  1  0
 45 58  1  0
 58 59  2  0
 59 60  1  0
 59 61  1  0
 61 62  2  0
 62 63  1  0
 63 64  2  0
 64 65  1  0
 65 66  1  0
 66 67  1  0
 67 68  1  0
 68 69  1  0
 67 70  2  0
 70 71  1  0
 70 72  1  0
 72 73  1  0
 64 74  1  0
 74 75  2  0
 75 76  1  0
 76 77  1  0
 77 78  1  0
 78 79  1  0
 79 80  1  0
 80 81  1  0
 79 82  2  0
 82 83  1  0
 83 84  1  0
 82 85  1  0
 76 86  2  0
 86 87  1  0
 75 88  1  0
 88 89  2  0
 89 90  1  0
 89 91  1  0
 91 92  2  0
 92 93  1  0
 93 94  2  0
 94 95  1  0
 95 96  1  0
 96 97  1  0
 97 98  1  0
 98 99  1  0
 97100  2  0
100101  1  0
100102  1  0
102103  1  0
 94104  1  0
104105  2  0
105106  1  0
106107  1  0
107108  1  0
108109  1  0
109110  1  0
110111  1  0
109112  2  0
112113  1  0
113114  1  0
112115  1  0
106116  2  0
116117  1  0
105118  1  0
118119  2  0
119120  1  0
119121  1  0
121122  2  0
122123  1  0
123124  1  0
124125  1  0
123126  2  0
126127  1  0
127128  2  0
127129  1  0
129130  1  0
126131  1  0
131132  2  0
132133  1  0
132134  1  0
134135  2  3
135136  1  0
136137  2  0
137138  1  0
138139  2  0
139140  1  0
140141  1  0
141142  1  0
142143  1  0
143144  1  0
142145  2  0
145146  1  0
145147  1  0
147148  1  0
139149  1  0
149150  2  0
150151  1  0
151152  1  0
152153  1  0
153154  1  0
154155  1  0
155156  1  0
154157  2  0
157158  1  0
158159  1  0
157160  1  0
151161  2  0
161162  1  0
150163  1  0
163164  2  0
164165  1  0
 27  1  1  0
 57 31  1  0
 87 61  1  0
117 91  1  0
128121  1  0
162136  1  0
 26  3  1  0
 56 33  1  0
 86 63  1  0
116 93  1  0
161138  1  0
 12  5  2  0
 30 14  1  0
 42 35  2  0
 60 44  1  0
 72 65  2  0
 90 74  1  0
102 95  2  0
120104  1  0
147140  2  0
165149  1  0
 23 17  2  0
 53 47  2  0
 83 77  2  0
113107  2  0
158152  2  0
  1166  1  0
  2167  1  0
  8168  1  0
  8169  1  0
  9170  1  0
  9171  1  0
  9172  1  0
 20173  1  0
 20174  1  0
 21175  1  0
 21176  1  0
 21177  1  0
 28178  1  0
 32179  1  0
 38180  1  0
 38181  1  0
 39182  1  0
 39183  1  0
 39184  1  0
 50185  1  0
 50186  1  0
 51187  1  0
 51188  1  0
 51189  1  0
 58190  1  0
 62191  1  0
 68192  1  0
 68193  1  0
 69194  1  0
 69195  1  0
 69196  1  0
 80197  1  0
 80198  1  0
 81199  1  0
 81200  1  0
 81201  1  0
 88202  1  0
 92203  1  0
 98204  1  0
 98205  1  0
 99206  1  0
 99207  1  0
 99208  1  0
110209  1  0
110210  1  0
111211  1  0
111212  1  0
111213  1  0
118214  1  0
122215  1  0
124216  1  0
124217  1  0
125218  1  0
125219  1  0
125220  1  0
128221  1  0
129222  1  0
129223  1  0
130224  1  0
130225  1  0
130226  1  0
131227  1  0
133228  1  0
133229  1  0
133230  1  0
134231  1  0
135232  1  0
137233  1  0
143234  1  0
143235  1  0
144236  1  0
144237  1  0
144238  1  0
155239  1  0
155240  1  0
156241  1  0
156242  1  0
156243  1  0
163244  1  0
164245  1  0
M  END

