
     RDKit          3D

222248  0  0  0  0  0  0  0  0999 V2000
    2.3454   -9.8068    7.7712 C   0  0  0  0  0  0  0  0  0  0  0  0
    2.0679  -10.2209    6.4712 C   0  0  0  0  0  0  0  0  0  0  0  0
    0.7600   -9.9123    6.0584 C   0  0  0  0  0  0  0  0  0  0  0  0
    0.1853  -10.2050    4.8043 C   0  0  0  0  0  0  0  0  0  0  0  0
    0.9562  -10.8208    3.7080 C   0  0  0  0  0  0  0  0  0  0  0  0
    0.5314  -12.2482    2.9252 S   0  0  0  0  0  0  0  0  0  0  0  0
    1.7079  -12.1574    1.7281 C   0  0  0  0  0  0  0  0  0  0  0  0
    1.8184  -13.1035    0.5732 C   0  0  0  0  0  0  0  0  0  0  0  0
    0.9243  -12.6562   -0.5761 C   0  0  0  0  0  0  0  0  0  0  0  0
    2.4393  -10.9825    1.9099 C   0  0  0  0  0  0  0  0  0  0  0  0
    3.7120  -10.4522    0.8177 Cl  0  0  0  0  0  0  0  0  0  0  0  0
    2.0189  -10.2366    3.0230 C   0  0  0  0  0  0  0  0  0  0  0  0
    2.6851   -8.6577    3.4266 Cl  0  0  0  0  0  0  0  0  0  0  0  0
   -1.1452   -9.8051    4.6073 C   0  0  0  0  0  0  0  0  0  0  0  0
   -1.8821   -9.1245    5.5790 C   0  0  0  0  0  0  0  0  0  0  0  0
   -1.3187   -8.8588    6.8461 C   0  0  0  0  0  0  0  0  0  0  0  0
   -2.0803   -8.1785    7.9096 C   0  0  0  0  0  0  0  0  0  0  0  0
   -1.6524   -6.7083    8.6073 S   0  0  0  0  0  0  0  0  0  0  0  0
   -2.9653   -6.6179    9.6544 C   0  0  0  0  0  0  0  0  0  0  0  0
   -3.2502   -5.4533   10.5549 C   0  0  0  0  0  0  0  0  0  0  0  0
   -3.9544   -4.3448    9.7863 C   0  0  0  0  0  0  0  0  0  0  0  0
   -3.7732   -7.7395    9.4596 C   0  0  0  0  0  0  0  0  0  0  0  0
   -3.2703   -8.6196    8.4876 C   0  0  0  0  0  0  0  0  0  0  0  0
   -4.0422  -10.1502    8.0817 Cl  0  0  0  0  0  0  0  0  0  0  0  0
   -5.2711   -8.0245   10.3330 Cl  0  0  0  0  0  0  0  0  0  0  0  0
    0.0147   -9.2602    7.0460 C   0  0  0  0  0  0  0  0  0  0  0  0
    0.9728   -9.0652    8.4152 S   0  0  0  0  0  0  0  0  0  0  0  0
   -3.1361   -8.6883    5.1136 C   0  0  0  0  0  0  0  0  0  0  0  0
   -3.3803   -9.0484    3.7906 C   0  0  0  0  0  0  0  0  0  0  0  0
   -2.0467   -9.8859    3.1913 S   0  0  0  0  0  0  0  0  0  0  0  0
   -4.4872   -8.5749    2.9513 C   0  0  0  0  0  0  0  0  0  0  0  0
   -5.1866   -7.3825    3.1369 C   0  0  0  0  0  0  0  0  0  0  0  0
   -5.9681   -7.0290    2.0245 C   0  0  0  0  0  0  0  0  0  0  0  0
   -6.6985   -5.8344    1.8596 C   0  0  0  0  0  0  0  0  0  0  0  0
   -6.7985   -4.8271    2.9286 C   0  0  0  0  0  0  0  0  0  0  0  0
   -5.5169   -3.9181    3.5317 S   0  0  0  0  0  0  0  0  0  0  0  0
   -6.4101   -3.1171    4.7134 C   0  0  0  0  0  0  0  0  0  0  0  0
   -5.8362   -2.1438    5.6998 C   0  0  0  0  0  0  0  0  0  0  0  0
   -5.1081   -2.8738    6.8200 C   0  0  0  0  0  0  0  0  0  0  0  0
   -7.7301   -3.5694    4.6606 C   0  0  0  0  0  0  0  0  0  0  0  0
   -8.9924   -3.0346    5.7629 Cl  0  0  0  0  0  0  0  0  0  0  0  0
   -7.9478   -4.5203    3.6518 C   0  0  0  0  0  0  0  0  0  0  0  0
   -9.5017   -5.2911    3.3710 Cl  0  0  0  0  0  0  0  0  0  0  0  0
   -7.2950   -5.6205    0.6041 C   0  0  0  0  0  0  0  0  0  0  0  0
   -7.2356   -6.5598   -0.4246 C   0  0  0  0  0  0  0  0  0  0  0  0
   -6.5723   -7.7879   -0.2344 C   0  0  0  0  0  0  0  0  0  0  0  0
   -6.5253   -8.8152   -1.2903 C   0  0  0  0  0  0  0  0  0  0  0  0
   -5.1318   -9.3373   -2.0730 S   0  0  0  0  0  0  0  0  0  0  0  0
   -5.9012  -10.4065   -3.1169 C   0  0  0  0  0  0  0  0  0  0  0  0
   -5.2142  -11.1876   -4.1970 C   0  0  0  0  0  0  0  0  0  0  0  0
   -5.2579  -10.4287   -5.5163 C   0  0  0  0  0  0  0  0  0  0  0  0
   -7.2751  -10.3550   -2.8791 C   0  0  0  0  0  0  0  0  0  0  0  0
   -7.6239   -9.4650   -1.8513 C   0  0  0  0  0  0  0  0  0  0  0  0
   -9.2851   -9.1997   -1.3256 Cl  0  0  0  0  0  0  0  0  0  0  0  0
   -8.4552  -11.2913   -3.7868 Cl  0  0  0  0  0  0  0  0  0  0  0  0
   -5.9135   -7.9704    0.9930 C   0  0  0  0  0  0  0  0  0  0  0  0
   -4.8760   -9.2141    1.4381 S   0  0  0  0  0  0  0  0  0  0  0  0
   -7.7594   -6.0890   -1.6391 C   0  0  0  0  0  0  0  0  0  0  0  0
   -8.1940   -4.7633   -1.5883 C   0  0  0  0  0  0  0  0  0  0  0  0
   -7.9667   -4.2047   -0.0044 S   0  0  0  0  0  0  0  0  0  0  0  0
   -8.5157   -3.9553   -2.7948 C   0  0  0  0  0  0  0  0  0  0  0  0
   -8.5310   -2.6156   -2.8584 C   0  0  0  0  0  0  0  0  0  0  0  0
   -8.0428   -2.0771   -4.0892 C   0  0  0  0  0  0  0  0  0  0  0  0
   -7.8099   -3.1099   -5.0693 C   0  0  0  0  0  0  0  0  0  0  0  0
   -7.2770   -2.9383   -6.1977 O   0  0  0  0  0  0  0  0  0  0  0  0
   -8.3650   -4.6963   -4.4557 S   0  0  0  0  0  0  0  0  0  0  0  0
   -7.5323   -0.8589   -3.8915 C   0  0  0  0  0  0  0  0  0  0  0  0
   -7.7970   -0.4385   -2.5835 O   0  0  0  0  0  0  0  0  0  0  0  0
   -8.3798   -1.5120   -1.9205 C   0  0  0  0  0  0  0  0  0  0  0  0
   -8.7463   -1.4825   -0.7164 O   0  0  0  0  0  0  0  0  0  0  0  0
   -6.6072   -0.1347   -4.7735 C   0  0  0  0  0  0  0  0  0  0  0  0
   -5.4151   -0.6771   -5.2569 C   0  0  0  0  0  0  0  0  0  0  0  0
   -4.4853    0.2974   -5.6512 C   0  0  0  0  0  0  0  0  0  0  0  0
   -3.1530    0.0571   -6.0380 C   0  0  0  0  0  0  0  0  0  0  0  0
   -2.6111   -1.2991   -6.2043 C   0  0  0  0  0  0  0  0  0  0  0  0
   -2.2576   -2.3510   -4.9441 S   0  0  0  0  0  0  0  0  0  0  0  0
   -1.4893   -3.5134   -5.8887 C   0  0  0  0  0  0  0  0  0  0  0  0
   -0.7649   -4.7073   -5.3423 C   0  0  0  0  0  0  0  0  0  0  0  0
    0.7056   -4.3753   -5.1066 C   0  0  0  0  0  0  0  0  0  0  0  0
   -1.4672   -3.0682   -7.2078 C   0  0  0  0  0  0  0  0  0  0  0  0
   -0.6689   -3.9381   -8.5134 Cl  0  0  0  0  0  0  0  0  0  0  0  0
   -2.0962   -1.8301   -7.3866 C   0  0  0  0  0  0  0  0  0  0  0  0
   -2.1664   -0.9941   -8.9367 Cl  0  0  0  0  0  0  0  0  0  0  0  0
   -2.3139    1.1756   -6.1551 C   0  0  0  0  0  0  0  0  0  0  0  0
   -2.7755    2.4818   -5.9963 C   0  0  0  0  0  0  0  0  0  0  0  0
   -4.1401    2.7334   -5.7399 C   0  0  0  0  0  0  0  0  0  0  0  0
   -4.6668    4.1149   -5.6894 C   0  0  0  0  0  0  0  0  0  0  0  0
   -5.4450    4.8250   -4.3734 S   0  0  0  0  0  0  0  0  0  0  0  0
   -5.6224    6.3486   -5.0687 C   0  0  0  0  0  0  0  0  0  0  0  0
   -6.2049    7.5452   -4.3802 C   0  0  0  0  0  0  0  0  0  0  0  0
   -5.1031    8.3985   -3.7613 C   0  0  0  0  0  0  0  0  0  0  0  0
   -5.0507    6.3280   -6.3410 C   0  0  0  0  0  0  0  0  0  0  0  0
   -4.5212    5.0774   -6.6896 C   0  0  0  0  0  0  0  0  0  0  0  0
   -3.7778    4.7594   -8.2545 Cl  0  0  0  0  0  0  0  0  0  0  0  0
   -4.9719    7.7344   -7.3915 Cl  0  0  0  0  0  0  0  0  0  0  0  0
   -4.9586    1.6071   -5.5095 C   0  0  0  0  0  0  0  0  0  0  0  0
   -6.5101    1.5492   -4.8597 S   0  0  0  0  0  0  0  0  0  0  0  0
   -1.7374    3.4266   -5.9256 C   0  0  0  0  0  0  0  0  0  0  0  0
   -0.4679    2.8521   -6.0040 C   0  0  0  0  0  0  0  0  0  0  0  0
   -0.6341    1.1888   -6.2063 S   0  0  0  0  0  0  0  0  0  0  0  0
    0.7718    3.4993   -5.5487 C   0  0  0  0  0  0  0  0  0  0  0  0
    0.9096    4.8513   -5.2329 C   0  0  0  0  0  0  0  0  0  0  0  0
    2.0594    5.1246   -4.4705 C   0  0  0  0  0  0  0  0  0  0  0  0
    2.3962    6.3624   -3.8889 C   0  0  0  0  0  0  0  0  0  0  0  0
    1.5867    7.5708   -4.1180 C   0  0  0  0  0  0  0  0  0  0  0  0
    0.0472    7.8289   -3.4924 S   0  0  0  0  0  0  0  0  0  0  0  0
   -0.1804    9.3316   -4.2137 C   0  0  0  0  0  0  0  0  0  0  0  0
   -1.3990   10.1833   -4.0213 C   0  0  0  0  0  0  0  0  0  0  0  0
   -1.1555   11.2514   -2.9627 C   0  0  0  0  0  0  0  0  0  0  0  0
    0.9583    9.6554   -4.9514 C   0  0  0  0  0  0  0  0  0  0  0  0
    1.1357   11.1459   -5.8674 Cl  0  0  0  0  0  0  0  0  0  0  0  0
    1.9524    8.6662   -4.8940 C   0  0  0  0  0  0  0  0  0  0  0  0
    3.4923    8.7850   -5.7382 Cl  0  0  0  0  0  0  0  0  0  0  0  0
    3.5111    6.3825   -3.0349 C   0  0  0  0  0  0  0  0  0  0  0  0
    4.2811    5.2431   -2.7798 C   0  0  0  0  0  0  0  0  0  0  0  0
    3.9627    4.0103   -3.3801 C   0  0  0  0  0  0  0  0  0  0  0  0
    4.6731    2.7714   -3.0179 C   0  0  0  0  0  0  0  0  0  0  0  0
    4.6880    2.1024   -1.4755 S   0  0  0  0  0  0  0  0  0  0  0  0
    5.6767    0.7961   -1.8520 C   0  0  0  0  0  0  0  0  0  0  0  0
    6.0466   -0.2898   -0.8901 C   0  0  0  0  0  0  0  0  0  0  0  0
    5.0302   -1.4246   -0.9435 C   0  0  0  0  0  0  0  0  0  0  0  0
    5.9829    0.8478   -3.2134 C   0  0  0  0  0  0  0  0  0  0  0  0
    5.4294    1.9611   -3.8639 C   0  0  0  0  0  0  0  0  0  0  0  0
    5.6761    2.3074   -5.5725 Cl  0  0  0  0  0  0  0  0  0  0  0  0
    6.9618   -0.3586   -4.0384 Cl  0  0  0  0  0  0  0  0  0  0  0  0
    2.8435    3.9917   -4.2282 C   0  0  0  0  0  0  0  0  0  0  0  0
    2.0981    2.6554   -4.9265 S   0  0  0  0  0  0  0  0  0  0  0  0
    5.3126    5.4709   -1.8587 C   0  0  0  0  0  0  0  0  0  0  0  0
    5.3183    6.7695   -1.3564 C   0  0  0  0  0  0  0  0  0  0  0  0
    4.0689    7.6518   -2.0770 S   0  0  0  0  0  0  0  0  0  0  0  0
    6.2287    7.2701   -0.3154 C   0  0  0  0  0  0  0  0  0  0  0  0
    7.3913    6.6290    0.1061 C   0  0  0  0  0  0  0  0  0  0  0  0
    8.0348    7.2968    1.1575 C   0  0  0  0  0  0  0  0  0  0  0  0
    9.2172    6.8807    1.7991 C   0  0  0  0  0  0  0  0  0  0  0  0
    9.9411    5.6742    1.3663 C   0  0  0  0  0  0  0  0  0  0  0  0
    9.9135    4.1998    2.1763 S   0  0  0  0  0  0  0  0  0  0  0  0
   10.7545    3.3371    0.9992 C   0  0  0  0  0  0  0  0  0  0  0  0
   11.0798    1.8760    1.0851 C   0  0  0  0  0  0  0  0  0  0  0  0
   12.4187    1.6563    1.7775 C   0  0  0  0  0  0  0  0  0  0  0  0
   11.0817    4.2037   -0.0434 C   0  0  0  0  0  0  0  0  0  0  0  0
   11.9677    3.7094   -1.4792 Cl  0  0  0  0  0  0  0  0  0  0  0  0
   10.6093    5.5117    0.1560 C   0  0  0  0  0  0  0  0  0  0  0  0
   10.8298    6.8108   -1.0086 Cl  0  0  0  0  0  0  0  0  0  0  0  0
    9.6785    7.6739    2.8594 C   0  0  0  0  0  0  0  0  0  0  0  0
    9.0103    8.8283    3.2772 C   0  0  0  0  0  0  0  0  0  0  0  0
    7.8179    9.2391    2.6431 C   0  0  0  0  0  0  0  0  0  0  0  0
    7.0684   10.4253    3.0896 C   0  0  0  0  0  0  0  0  0  0  0  0
    6.8949   11.8451    2.2037 S   0  0  0  0  0  0  0  0  0  0  0  0
    6.0269   12.6814    3.3777 C   0  0  0  0  0  0  0  0  0  0  0  0
    5.5012   14.0746    3.2147 C   0  0  0  0  0  0  0  0  0  0  0  0
    4.0712   14.0578    2.6896 C   0  0  0  0  0  0  0  0  0  0  0  0
    5.8404   11.8455    4.4768 C   0  0  0  0  0  0  0  0  0  0  0  0
    6.4311   10.5803    4.3196 C   0  0  0  0  0  0  0  0  0  0  0  0
    6.3367    9.3106    5.5340 Cl  0  0  0  0  0  0  0  0  0  0  0  0
    4.9549   12.3180    5.9207 Cl  0  0  0  0  0  0  0  0  0  0  0  0
    7.3695    8.4577    1.5659 C   0  0  0  0  0  0  0  0  0  0  0  0
    5.9895    8.6626    0.6182 S   0  0  0  0  0  0  0  0  0  0  0  0
    9.6702    9.4928    4.3245 C   0  0  0  0  0  0  0  0  0  0  0  0
   10.8459    8.8625    4.7202 C   0  0  0  0  0  0  0  0  0  0  0  0
   11.0732    7.4819    3.7769 S   0  0  0  0  0  0  0  0  0  0  0  0
    3.2864   -9.9427    8.2856 H   0  0  0  0  0  0  0  0  0  0  0  0
    2.7952  -10.7290    5.8531 H   0  0  0  0  0  0  0  0  0  0  0  0
    2.8700  -13.1623    0.2247 H   0  0  0  0  0  0  0  0  0  0  0  0
    1.5122  -14.1165    0.9052 H   0  0  0  0  0  0  0  0  0  0  0  0
    1.2674  -11.6741   -0.9677 H   0  0  0  0  0  0  0  0  0  0  0  0
    0.9710  -13.3996   -1.3983 H   0  0  0  0  0  0  0  0  0  0  0  0
   -0.1323  -12.5585   -0.2381 H   0  0  0  0  0  0  0  0  0  0  0  0
   -3.8855   -5.7722   11.4063 H   0  0  0  0  0  0  0  0  0  0  0  0
   -2.2968   -5.0677   10.9691 H   0  0  0  0  0  0  0  0  0  0  0  0
   -4.1374   -3.4804   10.4600 H   0  0  0  0  0  0  0  0  0  0  0  0
   -4.9368   -4.7059    9.4098 H   0  0  0  0  0  0  0  0  0  0  0  0
   -3.3286   -4.0069    8.9311 H   0  0  0  0  0  0  0  0  0  0  0  0
   -3.8197   -8.0874    5.7009 H   0  0  0  0  0  0  0  0  0  0  0  0
   -5.0642   -6.7540    4.0123 H   0  0  0  0  0  0  0  0  0  0  0  0
   -6.6401   -1.5179    6.1401 H   0  0  0  0  0  0  0  0  0  0  0  0
   -5.1366   -1.4668    5.1727 H   0  0  0  0  0  0  0  0  0  0  0  0
   -5.8286   -3.4788    7.4069 H   0  0  0  0  0  0  0  0  0  0  0  0
   -4.3235   -3.5451    6.4097 H   0  0  0  0  0  0  0  0  0  0  0  0
   -4.6326   -2.1353    7.4945 H   0  0  0  0  0  0  0  0  0  0  0  0
   -5.7041  -12.1795   -4.3172 H   0  0  0  0  0  0  0  0  0  0  0  0
   -4.1561  -11.3587   -3.9094 H   0  0  0  0  0  0  0  0  0  0  0  0
   -4.7313  -11.0168   -6.2977 H   0  0  0  0  0  0  0  0  0  0  0  0
   -6.3092  -10.2742   -5.8400 H   0  0  0  0  0  0  0  0  0  0  0  0
   -4.7570   -9.4426   -5.4149 H   0  0  0  0  0  0  0  0  0  0  0  0
   -7.7293   -6.6663   -2.5523 H   0  0  0  0  0  0  0  0  0  0  0  0
   -5.1739   -1.7301   -5.1908 H   0  0  0  0  0  0  0  0  0  0  0  0
   -0.8449   -5.5564   -6.0588 H   0  0  0  0  0  0  0  0  0  0  0  0
   -1.2329   -5.0165   -4.3838 H   0  0  0  0  0  0  0  0  0  0  0  0
    1.1915   -4.1097   -6.0692 H   0  0  0  0  0  0  0  0  0  0  0  0
    0.7994   -3.5214   -4.4016 H   0  0  0  0  0  0  0  0  0  0  0  0
    1.2231   -5.2589   -4.6738 H   0  0  0  0  0  0  0  0  0  0  0  0
   -6.9076    7.2154   -3.5864 H   0  0  0  0  0  0  0  0  0  0  0  0
   -6.7777    8.1559   -5.1102 H   0  0  0  0  0  0  0  0  0  0  0  0
   -4.5524    7.8192   -2.9905 H   0  0  0  0  0  0  0  0  0  0  0  0
   -4.3920    8.7364   -4.5434 H   0  0  0  0  0  0  0  0  0  0  0  0
   -5.5499    9.2942   -3.2840 H   0  0  0  0  0  0  0  0  0  0  0  0
   -1.9053    4.4701   -5.6861 H   0  0  0  0  0  0  0  0  0  0  0  0
    0.1618    5.5985   -5.4728 H   0  0  0  0  0  0  0  0  0  0  0  0
   -2.2473    9.5433   -3.6975 H   0  0  0  0  0  0  0  0  0  0  0  0
   -1.6777   10.6663   -4.9816 H   0  0  0  0  0  0  0  0  0  0  0  0
   -0.8934   10.7776   -1.9902 H   0  0  0  0  0  0  0  0  0  0  0  0
   -0.3352   11.9282   -3.2749 H   0  0  0  0  0  0  0  0  0  0  0  0
   -2.0778   11.8540   -2.8230 H   0  0  0  0  0  0  0  0  0  0  0  0
    6.0791    0.1267    0.1392 H   0  0  0  0  0  0  0  0  0  0  0  0
    7.0585   -0.6822   -1.1291 H   0  0  0  0  0  0  0  0  0  0  0  0
    5.2971   -2.1948   -0.1885 H   0  0  0  0  0  0  0  0  0  0  0  0
    5.0306   -1.8985   -1.9485 H   0  0  0  0  0  0  0  0  0  0  0  0
    4.0133   -1.0444   -0.7201 H   0  0  0  0  0  0  0  0  0  0  0  0
    6.0039    4.7063   -1.5356 H   0  0  0  0  0  0  0  0  0  0  0  0
    7.7511    5.7051   -0.3250 H   0  0  0  0  0  0  0  0  0  0  0  0
   10.2804    1.3544    1.6511 H   0  0  0  0  0  0  0  0  0  0  0  0
   11.1169    1.4316    0.0678 H   0  0  0  0  0  0  0  0  0  0  0  0
   13.2423    2.0793    1.1609 H   0  0  0  0  0  0  0  0  0  0  0  0
   12.4211    2.1407    2.7792 H   0  0  0  0  0  0  0  0  0  0  0  0
   12.5927    0.5685    1.9032 H   0  0  0  0  0  0  0  0  0  0  0  0
    5.5315   14.6081    4.1868 H   0  0  0  0  0  0  0  0  0  0  0  0
    6.1491   14.6292    2.5035 H   0  0  0  0  0  0  0  0  0  0  0  0
    3.7315   15.1012    2.5188 H   0  0  0  0  0  0  0  0  0  0  0  0
    4.0151   13.5037    1.7252 H   0  0  0  0  0  0  0  0  0  0  0  0
    3.3938   13.5792    3.4287 H   0  0  0  0  0  0  0  0  0  0  0  0
    9.3194   10.4155    4.7710 H   0  0  0  0  0  0  0  0  0  0  0  0
   11.5100    9.2115    5.4979 H   0  0  0  0  0  0  0  0  0  0  0  0
  1  2  2  0
  2  3  1  0
  3  4  2  0
  4  5  1  0
  5  6  1  0
  6  7  1  0
  7  8  1  0
  8  9  1  0
  7 10  2  0
 10 11  1  0
 10 12  1  0
 12 13  1  0
  4 14  1  0
 14 15  2  0
 15 16  1  0
 16 17  1  0
 17 18  1  0
 18 19  1  0
 19 20  1  0
 20 21  1  0
 19 22  2  0
 22 23  1  0
 23 24  1  0
 22 25  1  0
 16 26  2  0
 26 27  1  0
 15 28  1  0
 28 29  2  0
 29 30  1  0
 29 31  1  0
 31 32  2  0
 32 33  1  0
 33 34  2  0
 34 35  1  0
 35 36  1  0
 36 37  1  0
 37 38  1  0
 38 39  1  0
 37 40  2  0
 40 41  1  0
 40 42  1  0
 42 43  1  0
 34 44  1  0
 44 45  2  0
 45 46  1  0
 46 47  1  0
 47 48  1  0
 48 49  1  0
 49 50  1  0
 50 51  1  0
 49 52  2  0
 52 53  1  0
 53 54  1  0
 52 55  1  0
 46 56  2  0
 56 57  1  0
 45 58  1  0
 58 59  2  0
 59 60  1  0
 59 61  1  0
 61 62  2  0
 62 63  1  0
 63 64  1  0
 64 65  2  0
 64 66  1  0
 63 67  2  0
 67 68  1  0
 68 69  1  0
 69 70  2  0
 67 71  1  0
 71 72  2  0
 72 73  1  0
 73 74  2  0
 74 75  1  0
 75 76  1  0
 76 77  1  0
 77 78  1  0
 78 79  1  0
 77 80  2  0
 80 81  1  0
 80 82  1  0
 82 83  1  0
 74 84  1  0
 84 85  2  0
 85 86  1  0
 86 87  1  0
 87 88  1  0
 88 89  1  0
 89 90  1  0
 90 91  1  0
 89 92  2  0
 92 93  1  0
 93 94  1  0
 92 95  1  0
 86 96  2  0
 96 97  1  0
 85 98  1  0
 98 99  2  0
 99100  1  0
 99101  1  0
101102  2  0
102103  1  0
103104  2  0
104105  1  0
105106  1  0
106107  1  0
107108  1  0
108109  1  0
107110  2  0
110111  1  0
110112  1  0
112113  1  0
104114  1  0
114115  2  0
115116  1  0
116117  1  0
117118  1  0
118119  1  0
119120  1  0
120121  1  0
119122  2  0
122123  1  0
123124  1  0
122125  1  0
116126  2  0
126127  1  0
115128  1  0
128129  2  0
129130  1  0
129131  1  0
131132  2  0
132133  1  0
133134  2  0
134135  1  0
135136  1  0
136137  1  0
137138  1  0
138139  1  0
137140  2  0
140141  1  0
140142  1  0
142143  1  0
134144  1  0
144145  2  0
145146  1  0
146147  1  0
147148  1  0
148149  1  0
149150  1  0
150151  1  0
149152  2  0
152153  1  0
153154  1  0
152155  1  0
146156  2  0
156157  1  0
145158  1  0
158159  2  0
159160  1  0
 27  1  1  0
 57 31  1  0
 66 61  1  0
 97 71  1  0
127101  1  0
157131  1  0
 26  3  1  0
 56 33  1  0
 69 62  1  0
 96 73  1  0
126103  1  0
156133  1  0
 12  5  2  0
 30 14  1  0
 42 35  2  0
 60 44  1  0
 82 75  2  0
100 84  1  0
112105  2  0
130114  1  0
142135  2  0
160144  1  0
 23 17  2  0
 53 47  2  0
 93 87  2  0
123117  2  0
153147  2  0
  1161  1  0
  2162  1  0
  8163  1  0
  8164  1  0
  9165  1  0
  9166  1  0
  9167  1  0
 20168  1  0
 20169  1  0
 21170  1  0
 21171  1  0
 21172  1  0
 28173  1  0
 32174  1  0
 38175  1  0
 38176  1  0
 39177  1  0
 39178  1  0
 39179  1  0
 50180  1  0
 50181  1  0
 51182  1  0
 51183  1  0
 51184  1  0
 58185  1  0
 72186  1  0
 78187  1  0
 78188  1  0
 79189  1  0
 79190  1  0
 79191  1  0
 90192  1  0
 90193  1  0
 91194  1  0
 91195  1  0
 91196  1  0
 98197  1  0
102198  1  0
108199  1  0
108200  1  0
109201  1  0
109202  1  0
109203  1  0
120204  1  0
120205  1  0
121206  1  0
121207  1  0
121208  1  0
128209  1  0
132210  1  0
138211  1  0
138212  1  0
139213  1  0
139214  1  0
139215  1  0
150216  1  0
150217  1  0
151218  1  0
151219  1  0
151220  1  0
158221  1  0
159222  1  0
M  END

