
     RDKit          3D

224245  0  0  0  0  0  0  0  0999 V2000
  -11.6149    6.1685    0.0810 C   0  0  0  0  0  0  0  0  0  0  0  0
  -10.9243    6.0269    1.2796 C   0  0  0  0  0  0  0  0  0  0  0  0
  -10.3019    4.7740    1.4175 C   0  0  0  0  0  0  0  0  0  0  0  0
   -9.4882    4.3597    2.4866 C   0  0  0  0  0  0  0  0  0  0  0  0
   -8.9865    5.3207    3.4862 C   0  0  0  0  0  0  0  0  0  0  0  0
   -7.6932    5.8449    3.3334 C   0  0  0  0  0  0  0  0  0  0  0  0
   -7.1835    6.7618    4.2579 C   0  0  0  0  0  0  0  0  0  0  0  0
   -7.9641    7.1583    5.3475 C   0  0  0  0  0  0  0  0  0  0  0  0
   -7.2596    8.2715    6.5680 S   0  0  0  0  0  0  0  0  0  0  0  0
   -7.5612    9.8004    5.6193 C   0  0  0  0  0  0  0  0  0  0  0  0
   -8.9320   10.3667    5.9410 C   0  0  0  0  0  0  0  0  0  0  0  0
   -9.2621    6.6503    5.5011 C   0  0  0  0  0  0  0  0  0  0  0  0
  -10.0264    7.0312    6.5576 F   0  0  0  0  0  0  0  0  0  0  0  0
   -9.7770    5.7395    4.5702 C   0  0  0  0  0  0  0  0  0  0  0  0
   -8.9763    3.0538    2.4232 C   0  0  0  0  0  0  0  0  0  0  0  0
   -9.1703    2.2102    1.3223 C   0  0  0  0  0  0  0  0  0  0  0  0
   -9.9144    2.6507    0.2103 C   0  0  0  0  0  0  0  0  0  0  0  0
   -9.9547    1.8854   -1.0551 C   0  0  0  0  0  0  0  0  0  0  0  0
   -9.4562    2.4690   -2.2336 C   0  0  0  0  0  0  0  0  0  0  0  0
   -9.3697    1.7210   -3.4120 C   0  0  0  0  0  0  0  0  0  0  0  0
   -9.7789    0.3823   -3.4266 C   0  0  0  0  0  0  0  0  0  0  0  0
   -9.5409   -0.6033   -4.9034 S   0  0  0  0  0  0  0  0  0  0  0  0
   -7.8837   -1.1857   -4.3923 C   0  0  0  0  0  0  0  0  0  0  0  0
   -7.1607   -1.8127   -5.5813 C   0  0  0  0  0  0  0  0  0  0  0  0
  -10.3157   -0.1959   -2.2622 C   0  0  0  0  0  0  0  0  0  0  0  0
  -10.4148    0.5582   -1.0870 C   0  0  0  0  0  0  0  0  0  0  0  0
  -10.7286   -1.4925   -2.2651 F   0  0  0  0  0  0  0  0  0  0  0  0
  -10.5001    3.9351    0.3137 C   0  0  0  0  0  0  0  0  0  0  0  0
  -11.4501    4.7490   -0.8147 S   0  0  0  0  0  0  0  0  0  0  0  0
   -8.4169    1.0263    1.4032 C   0  0  0  0  0  0  0  0  0  0  0  0
   -7.6695    0.9210    2.5735 C   0  0  0  0  0  0  0  0  0  0  0  0
   -7.8828    2.3340    3.4808 S   0  0  0  0  0  0  0  0  0  0  0  0
   -6.4542    0.1208    2.6614 C   0  0  0  0  0  0  0  0  0  0  0  0
   -5.2158    0.6236    2.3160 C   0  0  0  0  0  0  0  0  0  0  0  0
   -4.1954   -0.3195    2.4479 C   0  0  0  0  0  0  0  0  0  0  0  0
   -2.8364   -0.0803    2.2213 C   0  0  0  0  0  0  0  0  0  0  0  0
   -2.3209    1.2644    1.9046 C   0  0  0  0  0  0  0  0  0  0  0  0
   -2.2730    1.7186    0.5813 C   0  0  0  0  0  0  0  0  0  0  0  0
   -1.7001    2.9643    0.2869 C   0  0  0  0  0  0  0  0  0  0  0  0
   -1.1714    3.7532    1.3180 C   0  0  0  0  0  0  0  0  0  0  0  0
   -0.4027    5.3325    0.9291 S   0  0  0  0  0  0  0  0  0  0  0  0
    1.2923    4.6583    0.7579 C   0  0  0  0  0  0  0  0  0  0  0  0
    1.9714    4.4896    2.1163 C   0  0  0  0  0  0  0  0  0  0  0  0
   -1.2728    3.3218    2.6452 C   0  0  0  0  0  0  0  0  0  0  0  0
   -0.8056    4.0918    3.6572 F   0  0  0  0  0  0  0  0  0  0  0  0
   -1.8403    2.0795    2.9366 C   0  0  0  0  0  0  0  0  0  0  0  0
   -1.9609   -1.1387    2.4513 C   0  0  0  0  0  0  0  0  0  0  0  0
   -2.3635   -2.3847    2.9260 C   0  0  0  0  0  0  0  0  0  0  0  0
   -3.7377   -2.6264    3.1754 C   0  0  0  0  0  0  0  0  0  0  0  0
   -4.2090   -3.8665    3.8160 C   0  0  0  0  0  0  0  0  0  0  0  0
   -3.7551   -4.2153    5.1003 C   0  0  0  0  0  0  0  0  0  0  0  0
   -4.2725   -5.3408    5.7413 C   0  0  0  0  0  0  0  0  0  0  0  0
   -5.2554   -6.1202    5.1134 C   0  0  0  0  0  0  0  0  0  0  0  0
   -5.9362   -7.5466    5.9697 S   0  0  0  0  0  0  0  0  0  0  0  0
   -7.2510   -6.6141    6.8367 C   0  0  0  0  0  0  0  0  0  0  0  0
   -8.4197   -6.3068    5.9136 C   0  0  0  0  0  0  0  0  0  0  0  0
   -5.6858   -5.7927    3.8195 C   0  0  0  0  0  0  0  0  0  0  0  0
   -5.1697   -4.6604    3.1760 C   0  0  0  0  0  0  0  0  0  0  0  0
   -6.6169   -6.5533    3.1881 F   0  0  0  0  0  0  0  0  0  0  0  0
   -4.6392   -1.5702    2.8955 C   0  0  0  0  0  0  0  0  0  0  0  0
   -6.3120   -1.4965    3.1243 S   0  0  0  0  0  0  0  0  0  0  0  0
   -1.2704   -3.2684    3.1458 C   0  0  0  0  0  0  0  0  0  0  0  0
   -0.0379   -2.6731    2.8570 C   0  0  0  0  0  0  0  0  0  0  0  0
   -0.3086   -1.0960    2.3136 S   0  0  0  0  0  0  0  0  0  0  0  0
    1.3312   -3.1937    3.0118 C   0  0  0  0  0  0  0  0  0  0  0  0
    2.4203   -2.3463    2.9540 C   0  0  0  0  0  0  0  0  0  0  0  0
    3.6353   -2.9865    2.7958 C   0  0  0  0  0  0  0  0  0  0  0  0
    4.8030   -2.3365    2.3860 C   0  0  0  0  0  0  0  0  0  0  0  0
    4.6391   -1.2226    1.4219 C   0  0  0  0  0  0  0  0  0  0  0  0
    4.2228    0.0600    1.8258 C   0  0  0  0  0  0  0  0  0  0  0  0
    3.6759    0.9442    0.8831 C   0  0  0  0  0  0  0  0  0  0  0  0
    3.5618    0.5546   -0.4635 C   0  0  0  0  0  0  0  0  0  0  0  0
    2.7348    1.6067   -1.6516 S   0  0  0  0  0  0  0  0  0  0  0  0
    1.0909    0.8546   -1.4623 C   0  0  0  0  0  0  0  0  0  0  0  0
    0.3585    0.9251   -2.8049 C   0  0  0  0  0  0  0  0  0  0  0  0
    4.0832   -0.6731   -0.8861 C   0  0  0  0  0  0  0  0  0  0  0  0
    4.0124   -1.0459   -2.1941 F   0  0  0  0  0  0  0  0  0  0  0  0
    4.5954   -1.5629    0.0522 C   0  0  0  0  0  0  0  0  0  0  0  0
    5.9432   -3.1346    2.2676 C   0  0  0  0  0  0  0  0  0  0  0  0
    5.8695   -4.5288    2.1811 C   0  0  0  0  0  0  0  0  0  0  0  0
    4.6479   -5.1904    2.4678 C   0  0  0  0  0  0  0  0  0  0  0  0
    4.5238   -6.6555    2.3676 C   0  0  0  0  0  0  0  0  0  0  0  0
    4.5037   -7.4349    3.5328 C   0  0  0  0  0  0  0  0  0  0  0  0
    4.4797   -8.8257    3.4502 C   0  0  0  0  0  0  0  0  0  0  0  0
    4.4479   -9.4544    2.2023 C   0  0  0  0  0  0  0  0  0  0  0  0
    4.4616  -11.2545    2.0983 S   0  0  0  0  0  0  0  0  0  0  0  0
    2.6477  -11.4411    2.1424 C   0  0  0  0  0  0  0  0  0  0  0  0
    2.1626  -11.6115    3.5753 C   0  0  0  0  0  0  0  0  0  0  0  0
    4.4559   -8.6829    1.0308 C   0  0  0  0  0  0  0  0  0  0  0  0
    4.4919   -7.2873    1.1141 C   0  0  0  0  0  0  0  0  0  0  0  0
    4.4413   -9.2774   -0.1862 F   0  0  0  0  0  0  0  0  0  0  0  0
    3.5442   -4.3780    2.8023 C   0  0  0  0  0  0  0  0  0  0  0  0
    1.8955   -4.7932    2.9308 S   0  0  0  0  0  0  0  0  0  0  0  0
    7.0120   -5.0852    1.5504 C   0  0  0  0  0  0  0  0  0  0  0  0
    7.9532   -4.1157    1.1709 C   0  0  0  0  0  0  0  0  0  0  0  0
    7.4000   -2.6134    1.6545 S   0  0  0  0  0  0  0  0  0  0  0  0
    8.7267   -4.1509   -0.0662 C   0  0  0  0  0  0  0  0  0  0  0  0
    8.4374   -3.3398   -1.0419 O   0  0  0  0  0  0  0  0  0  0  0  0
    9.3087   -3.4480   -2.0117 C   0  0  0  0  0  0  0  0  0  0  0  0
   10.2751   -4.3939   -1.6383 C   0  0  0  0  0  0  0  0  0  0  0  0
    9.8481   -4.8755   -0.3971 C   0  0  0  0  0  0  0  0  0  0  0  0
   10.4853   -5.8730    0.4291 C   0  0  0  0  0  0  0  0  0  0  0  0
   10.9815   -6.6796    1.0910 N   0  0  0  0  0  0  0  0  0  0  0  0
   11.5641   -4.7541   -2.3260 C   0  0  0  0  0  0  0  0  0  0  0  0
   12.5571   -4.9692   -1.3867 F   0  0  0  0  0  0  0  0  0  0  0  0
   11.3970   -5.9153   -3.0560 F   0  0  0  0  0  0  0  0  0  0  0  0
   11.9811   -3.7352   -3.1517 F   0  0  0  0  0  0  0  0  0  0  0  0
    9.1091   -2.6201   -3.2193 C   0  0  0  0  0  0  0  0  0  0  0  0
    8.3378   -1.5496   -3.1609 O   0  0  0  0  0  0  0  0  0  0  0  0
    8.1195   -1.0991   -4.3688 C   0  0  0  0  0  0  0  0  0  0  0  0
    8.8491   -1.8529   -5.2854 C   0  0  0  0  0  0  0  0  0  0  0  0
    9.4523   -2.8628   -4.5470 C   0  0  0  0  0  0  0  0  0  0  0  0
    9.9687   -4.0866   -5.1054 C   0  0  0  0  0  0  0  0  0  0  0  0
   10.3820   -5.0619   -5.5651 N   0  0  0  0  0  0  0  0  0  0  0  0
    8.7967   -1.7496   -6.7911 C   0  0  0  0  0  0  0  0  0  0  0  0
    9.9534   -2.2676   -7.3429 F   0  0  0  0  0  0  0  0  0  0  0  0
    8.6931   -0.4265   -7.1778 F   0  0  0  0  0  0  0  0  0  0  0  0
    7.7055   -2.4509   -7.2592 F   0  0  0  0  0  0  0  0  0  0  0  0
    7.0853   -0.0889   -4.6705 C   0  0  0  0  0  0  0  0  0  0  0  0
    6.7919    1.0559   -3.9149 C   0  0  0  0  0  0  0  0  0  0  0  0
    5.6122    1.7126   -4.3343 C   0  0  0  0  0  0  0  0  0  0  0  0
    5.0544    2.9183   -3.8236 C   0  0  0  0  0  0  0  0  0  0  0  0
    5.7073    3.7302   -2.7461 C   0  0  0  0  0  0  0  0  0  0  0  0
    4.9386    4.2559   -1.6816 C   0  0  0  0  0  0  0  0  0  0  0  0
    5.5101    5.1229   -0.7515 C   0  0  0  0  0  0  0  0  0  0  0  0
    6.8668    5.4517   -0.8309 C   0  0  0  0  0  0  0  0  0  0  0  0
    7.5558    6.6441    0.3203 S   0  0  0  0  0  0  0  0  0  0  0  0
    7.6877    5.5112    1.7520 C   0  0  0  0  0  0  0  0  0  0  0  0
    6.6077    5.8324    2.7783 C   0  0  0  0  0  0  0  0  0  0  0  0
    7.6540    4.9011   -1.8528 C   0  0  0  0  0  0  0  0  0  0  0  0
    8.9755    5.2070   -1.9408 F   0  0  0  0  0  0  0  0  0  0  0  0
    7.0754    4.0621   -2.8150 C   0  0  0  0  0  0  0  0  0  0  0  0
    3.8299    3.3352   -4.4094 C   0  0  0  0  0  0  0  0  0  0  0  0
    3.1599    2.5932   -5.3868 C   0  0  0  0  0  0  0  0  0  0  0  0
    3.7123    1.4070   -5.8849 C   0  0  0  0  0  0  0  0  0  0  0  0
    2.9924    0.5634   -6.8673 C   0  0  0  0  0  0  0  0  0  0  0  0
    2.4843   -0.6909   -6.4806 C   0  0  0  0  0  0  0  0  0  0  0  0
    1.7350   -1.4543   -7.3810 C   0  0  0  0  0  0  0  0  0  0  0  0
    1.4746   -0.9651   -8.6738 C   0  0  0  0  0  0  0  0  0  0  0  0
    0.5053   -1.9399   -9.8269 S   0  0  0  0  0  0  0  0  0  0  0  0
   -1.1270   -1.3850   -9.2101 C   0  0  0  0  0  0  0  0  0  0  0  0
   -1.4758    0.0194   -9.6957 C   0  0  0  0  0  0  0  0  0  0  0  0
    2.0116    0.2675   -9.0736 C   0  0  0  0  0  0  0  0  0  0  0  0
    2.7699    1.0251   -8.1736 C   0  0  0  0  0  0  0  0  0  0  0  0
    1.8014    0.7405  -10.3297 F   0  0  0  0  0  0  0  0  0  0  0  0
    4.9515    1.0106   -5.3553 C   0  0  0  0  0  0  0  0  0  0  0  0
    5.8501   -0.3401   -5.7833 S   0  0  0  0  0  0  0  0  0  0  0  0
    1.9318    3.1586   -5.7763 C   0  0  0  0  0  0  0  0  0  0  0  0
    1.6480    4.3644   -5.1409 C   0  0  0  0  0  0  0  0  0  0  0  0
    2.9188    4.7176   -4.0952 S   0  0  0  0  0  0  0  0  0  0  0  0
  -12.1654    7.0473   -0.2257 H   0  0  0  0  0  0  0  0  0  0  0  0
  -10.8740    6.8078    2.0239 H   0  0  0  0  0  0  0  0  0  0  0  0
   -7.0751    5.5441    2.4924 H   0  0  0  0  0  0  0  0  0  0  0  0
   -6.1847    7.1545    4.1229 H   0  0  0  0  0  0  0  0  0  0  0  0
   -7.4672    9.6314    4.5217 H   0  0  0  0  0  0  0  0  0  0  0  0
   -6.7881   10.5465    5.9116 H   0  0  0  0  0  0  0  0  0  0  0  0
   -9.0734   11.3368    5.4191 H   0  0  0  0  0  0  0  0  0  0  0  0
   -9.7251    9.6635    5.6098 H   0  0  0  0  0  0  0  0  0  0  0  0
   -9.0265   10.5371    7.0386 H   0  0  0  0  0  0  0  0  0  0  0  0
  -10.7787    5.3441    4.6920 H   0  0  0  0  0  0  0  0  0  0  0  0
   -9.0943    3.4923   -2.2372 H   0  0  0  0  0  0  0  0  0  0  0  0
   -8.9565    2.1782   -4.3081 H   0  0  0  0  0  0  0  0  0  0  0  0
   -7.2776   -0.3326   -4.0189 H   0  0  0  0  0  0  0  0  0  0  0  0
   -7.9957   -1.9425   -3.5852 H   0  0  0  0  0  0  0  0  0  0  0  0
   -7.7424   -2.6642   -5.9863 H   0  0  0  0  0  0  0  0  0  0  0  0
   -7.0209   -1.0531   -6.3757 H   0  0  0  0  0  0  0  0  0  0  0  0
   -6.1529   -2.1675   -5.2614 H   0  0  0  0  0  0  0  0  0  0  0  0
  -10.8131    0.0961   -0.1873 H   0  0  0  0  0  0  0  0  0  0  0  0
   -8.3094    0.3147    0.5910 H   0  0  0  0  0  0  0  0  0  0  0  0
   -5.0576    1.6425    1.9811 H   0  0  0  0  0  0  0  0  0  0  0  0
   -2.6689    1.1122   -0.2236 H   0  0  0  0  0  0  0  0  0  0  0  0
   -1.6615    3.3023   -0.7353 H   0  0  0  0  0  0  0  0  0  0  0  0
    1.2859    3.6858    0.2157 H   0  0  0  0  0  0  0  0  0  0  0  0
    1.8820    5.3797    0.1594 H   0  0  0  0  0  0  0  0  0  0  0  0
    1.8568    5.4174    2.7201 H   0  0  0  0  0  0  0  0  0  0  0  0
    3.0525    4.2975    1.9685 H   0  0  0  0  0  0  0  0  0  0  0  0
    1.5405    3.6277    2.6743 H   0  0  0  0  0  0  0  0  0  0  0  0
   -1.8951    1.7455    3.9682 H   0  0  0  0  0  0  0  0  0  0  0  0
   -3.0288   -3.5981    5.6076 H   0  0  0  0  0  0  0  0  0  0  0  0
   -3.9251   -5.5991    6.7363 H   0  0  0  0  0  0  0  0  0  0  0  0
   -7.6075   -7.2422    7.6756 H   0  0  0  0  0  0  0  0  0  0  0  0
   -6.8401   -5.6745    7.2671 H   0  0  0  0  0  0  0  0  0  0  0  0
   -8.7319   -7.2210    5.3676 H   0  0  0  0  0  0  0  0  0  0  0  0
   -8.1288   -5.5249    5.1847 H   0  0  0  0  0  0  0  0  0  0  0  0
   -9.2762   -5.9116    6.5097 H   0  0  0  0  0  0  0  0  0  0  0  0
   -5.5350   -4.4003    2.1931 H   0  0  0  0  0  0  0  0  0  0  0  0
   -1.3707   -4.2776    3.5187 H   0  0  0  0  0  0  0  0  0  0  0  0
    2.3215   -1.2661    2.9490 H   0  0  0  0  0  0  0  0  0  0  0  0
    4.2350    0.3316    2.8753 H   0  0  0  0  0  0  0  0  0  0  0  0
    3.2825    1.8975    1.2060 H   0  0  0  0  0  0  0  0  0  0  0  0
    0.5033    1.4026   -0.6923 H   0  0  0  0  0  0  0  0  0  0  0  0
    1.1732   -0.2135   -1.1647 H   0  0  0  0  0  0  0  0  0  0  0  0
    0.2169    1.9844   -3.1197 H   0  0  0  0  0  0  0  0  0  0  0  0
   -0.6401    0.4467   -2.7051 H   0  0  0  0  0  0  0  0  0  0  0  0
    0.9315    0.3844   -3.5840 H   0  0  0  0  0  0  0  0  0  0  0  0
    4.8810   -2.5520   -0.2804 H   0  0  0  0  0  0  0  0  0  0  0  0
    4.5288   -6.9555    4.5014 H   0  0  0  0  0  0  0  0  0  0  0  0
    4.4843   -9.4082    4.3591 H   0  0  0  0  0  0  0  0  0  0  0  0
    2.3840  -12.3558    1.5673 H   0  0  0  0  0  0  0  0  0  0  0  0
    2.1370  -10.5780    1.6611 H   0  0  0  0  0  0  0  0  0  0  0  0
    2.6477  -12.5008    4.0290 H   0  0  0  0  0  0  0  0  0  0  0  0
    1.0623  -11.7628    3.5829 H   0  0  0  0  0  0  0  0  0  0  0  0
    2.4010  -10.7112    4.1768 H   0  0  0  0  0  0  0  0  0  0  0  0
    4.5082   -6.6953    0.2066 H   0  0  0  0  0  0  0  0  0  0  0  0
    7.0611   -6.1040    1.2017 H   0  0  0  0  0  0  0  0  0  0  0  0
    7.4008    1.3804   -3.0799 H   0  0  0  0  0  0  0  0  0  0  0  0
    3.8872    4.0484   -1.5881 H   0  0  0  0  0  0  0  0  0  0  0  0
    4.8872    5.5519    0.0237 H   0  0  0  0  0  0  0  0  0  0  0  0
    7.6097    4.4479    1.4297 H   0  0  0  0  0  0  0  0  0  0  0  0
    8.6835    5.6594    2.2226 H   0  0  0  0  0  0  0  0  0  0  0  0
    6.6848    6.8910    3.1067 H   0  0  0  0  0  0  0  0  0  0  0  0
    6.7339    5.1804    3.6613 H   0  0  0  0  0  0  0  0  0  0  0  0
    5.5992    5.6535    2.3410 H   0  0  0  0  0  0  0  0  0  0  0  0
    7.6895    3.7035   -3.6304 H   0  0  0  0  0  0  0  0  0  0  0  0
    2.6420   -1.0563   -5.4735 H   0  0  0  0  0  0  0  0  0  0  0  0
    1.3343   -2.4171   -7.0752 H   0  0  0  0  0  0  0  0  0  0  0  0
   -1.1671   -1.4265   -8.0982 H   0  0  0  0  0  0  0  0  0  0  0  0
   -1.8928   -2.0894   -9.5992 H   0  0  0  0  0  0  0  0  0  0  0  0
   -2.5291    0.2488   -9.4174 H   0  0  0  0  0  0  0  0  0  0  0  0
   -0.8127    0.7768   -9.2251 H   0  0  0  0  0  0  0  0  0  0  0  0
   -1.3801    0.0784  -10.8030 H   0  0  0  0  0  0  0  0  0  0  0  0
    3.1697    1.9784   -8.4890 H   0  0  0  0  0  0  0  0  0  0  0  0
    1.2636    2.7165   -6.5035 H   0  0  0  0  0  0  0  0  0  0  0  0
    0.7654    4.9593   -5.2916 H   0  0  0  0  0  0  0  0  0  0  0  0
  1  2  2  0
  2  3  1  0
  3  4  2  0
  4  5  1  0
  5  6  2  0
  6  7  1  0
  7  8  2  0
  8  9  1  0
  9 10  1  0
 10 11  1  0
  8 12  1  0
 12 13  1  0
 12 14  2  0
  4 15  1  0
 15 16  2  0
 16 17  1  0
 17 18  1  0
 18 19  2  0
 19 20  1  0
 20 21  2  0
 21 22  1  0
 22 23  1  0
 23 24  1  0
 21 25  1  0
 25 26  2  0
 25 27  1  0
 17 28  2  0
 28 29  1  0
 16 30  1  0
 30 31  2  0
 31 32  1  0
 31 33  1  0
 33 34  2  0
 34 35  1  0
 35 36  2  0
 36 37  1  0
 37 38  2  0
 38 39  1  0
 39 40  2  0
 40 41  1  0
 41 42  1  0
 42 43  1  0
 40 44  1  0
 44 45  1  0
 44 46  2  0
 36 47  1  0
 47 48  2  0
 48 49  1  0
 49 50  1  0
 50 51  2  0
 51 52  1  0
 52 53  2  0
 53 54  1  0
 54 55  1  0
 55 56  1  0
 53 57  1  0
 57 58  2  0
 57 59  1  0
 49 60  2  0
 60 61  1  0
 48 62  1  0
 62 63  2  0
 63 64  1  0
 63 65  1  0
 65 66  2  0
 66 67  1  0
 67 68  2  0
 68 69  1  0
 69 70  2  0
 70 71  1  0
 71 72  2  0
 72 73  1  0
 73 74  1  0
 74 75  1  0
 72 76  1  0
 76 77  1  0
 76 78  2  0
 68 79  1  0
 79 80  2  0
 80 81  1  0
 81 82  1  0
 82 83  2  0
 83 84  1  0
 84 85  2  0
 85 86  1  0
 86 87  1  0
 87 88  1  0
 85 89  1  0
 89 90  2  0
 89 91  1  0
 81 92  2  0
 92 93  1  0
 80 94  1  0
 94 95  2  0
 95 96  1  0
 95 97  1  0
 97 98  1  0
 98 99  1  0
 99100  2  0
100101  1  0
101102  1  0
102103  3  0
100104  1  0
104105  1  0
104106  1  0
104107  1  0
 99108  1  0
108109  1  0
109110  1  0
110111  2  0
111112  1  0
112113  1  0
113114  3  0
111115  1  0
115116  1  0
115117  1  0
115118  1  0
110119  1  0
119120  2  0
120121  1  0
121122  2  0
122123  1  0
123124  2  0
124125  1  0
125126  2  0
126127  1  0
127128  1  0
128129  1  0
126130  1  0
130131  1  0
130132  2  0
122133  1  0
133134  2  0
134135  1  0
135136  1  0
136137  2  0
137138  1  0
138139  2  0
139140  1  0
140141  1  0
141142  1  0
139143  1  0
143144  2  0
143145  1  0
135146  2  0
146147  1  0
134148  1  0
148149  2  0
149150  1  0
 29  1  1  0
 61 33  1  0
 93 65  1  0
101 97  2  0
112108  2  0
147119  1  0
 28  3  1  0
 60 35  1  0
 92 67  1  0
146121  1  0
 14  5  1  0
 32 15  1  0
 46 37  1  0
 64 47  1  0
 78 69  1  0
 96 79  1  0
132123  1  0
150133  1  0
 26 18  1  0
 58 50  1  0
 90 82  1  0
144136  1  0
  1151  1  0
  2152  1  0
  6153  1  0
  7154  1  0
 10155  1  0
 10156  1  0
 11157  1  0
 11158  1  0
 11159  1  0
 14160  1  0
 19161  1  0
 20162  1  0
 23163  1  0
 23164  1  0
 24165  1  0
 24166  1  0
 24167  1  0
 26168  1  0
 30169  1  0
 34170  1  0
 38171  1  0
 39172  1  0
 42173  1  0
 42174  1  0
 43175  1  0
 43176  1  0
 43177  1  0
 46178  1  0
 51179  1  0
 52180  1  0
 55181  1  0
 55182  1  0
 56183  1  0
 56184  1  0
 56185  1  0
 58186  1  0
 62187  1  0
 66188  1  0
 70189  1  0
 71190  1  0
 74191  1  0
 74192  1  0
 75193  1  0
 75194  1  0
 75195  1  0
 78196  1  0
 83197  1  0
 84198  1  0
 87199  1  0
 87200  1  0
 88201  1  0
 88202  1  0
 88203  1  0
 90204  1  0
 94205  1  0
120206  1  0
124207  1  0
125208  1  0
128209  1  0
128210  1  0
129211  1  0
129212  1  0
129213  1  0
132214  1  0
137215  1  0
138216  1  0
141217  1  0
141218  1  0
142219  1  0
142220  1  0
142221  1  0
144222  1  0
148223  1  0
149224  1  0
M  END

