
     RDKit          3D

238265  0  0  0  0  0  0  0  0999 V2000
    0.8504   -3.0030   10.4433 C   0  0  0  0  0  0  0  0  0  0  0  0
    0.2719   -1.9414    9.7524 C   0  0  0  0  0  0  0  0  0  0  0  0
   -0.8152   -2.3309    8.9514 C   0  0  0  0  0  0  0  0  0  0  0  0
   -1.6125   -1.4893    8.1489 C   0  0  0  0  0  0  0  0  0  0  0  0
   -1.3605   -0.0407    8.0518 C   0  0  0  0  0  0  0  0  0  0  0  0
    0.0248    0.6411    7.3949 S   0  0  0  0  0  0  0  0  0  0  0  0
   -0.4386    2.2456    7.6211 C   0  0  0  0  0  0  0  0  0  0  0  0
    0.3873    3.4340    7.2242 C   0  0  0  0  0  0  0  0  0  0  0  0
    0.5379    3.5060    5.7094 C   0  0  0  0  0  0  0  0  0  0  0  0
   -1.6981    2.2615    8.2207 C   0  0  0  0  0  0  0  0  0  0  0  0
   -2.5630    3.7342    8.6460 Cl  0  0  0  0  0  0  0  0  0  0  0  0
   -2.2150    0.9786    8.4625 C   0  0  0  0  0  0  0  0  0  0  0  0
   -3.7551    0.6950    9.2638 Cl  0  0  0  0  0  0  0  0  0  0  0  0
   -2.6556   -2.0974    7.4275 C   0  0  0  0  0  0  0  0  0  0  0  0
   -2.9146   -3.4702    7.4958 C   0  0  0  0  0  0  0  0  0  0  0  0
   -2.1363   -4.3032    8.3192 C   0  0  0  0  0  0  0  0  0  0  0  0
   -2.4336   -5.7353    8.4661 C   0  0  0  0  0  0  0  0  0  0  0  0
   -2.1233   -6.9027    7.3004 S   0  0  0  0  0  0  0  0  0  0  0  0
   -2.8389   -8.1761    8.1377 C   0  0  0  0  0  0  0  0  0  0  0  0
   -3.0041   -9.5584    7.5864 C   0  0  0  0  0  0  0  0  0  0  0  0
   -4.2424   -9.6363    6.7015 C   0  0  0  0  0  0  0  0  0  0  0  0
   -3.3632   -7.6871    9.3339 C   0  0  0  0  0  0  0  0  0  0  0  0
   -3.1264   -6.3173    9.5223 C   0  0  0  0  0  0  0  0  0  0  0  0
   -3.7013   -5.4140   10.9180 Cl  0  0  0  0  0  0  0  0  0  0  0  0
   -4.2692   -8.6711   10.4733 Cl  0  0  0  0  0  0  0  0  0  0  0  0
   -1.0879   -3.6996    9.0301 C   0  0  0  0  0  0  0  0  0  0  0  0
    0.0155   -4.4208   10.0746 S   0  0  0  0  0  0  0  0  0  0  0  0
   -3.9959   -3.8740    6.6975 C   0  0  0  0  0  0  0  0  0  0  0  0
   -4.5740   -2.8128    6.0061 C   0  0  0  0  0  0  0  0  0  0  0  0
   -3.7609   -1.3765    6.3768 S   0  0  0  0  0  0  0  0  0  0  0  0
   -5.7256   -2.9166    5.1572 N   0  0  0  0  0  0  0  0  0  0  0  0
   -6.5197   -1.7582    4.7504 C   0  0  1  0  0  0  0  0  0  0  0  0
   -7.4586   -2.2126    3.6010 C   0  0  2  0  0  0  0  0  0  0  0  0
   -8.8421   -2.3799    4.0668 N   0  0  0  0  0  0  0  0  0  0  0  0
   -9.3671   -1.1009    4.5815 C   0  0  2  0  0  0  0  0  0  0  0  0
   -8.3548   -0.3447    5.4742 C   0  0  1  0  0  0  0  0  0  0  0  0
   -9.0922    0.2446    6.6846 C   0  0  0  0  0  0  0  0  0  0  0  0
  -10.8808    0.1857    6.3756 S   0  0  0  0  0  0  0  0  0  0  0  0
  -10.6460   -1.3073    5.3829 C   0  0  0  0  0  0  0  0  0  0  0  0
   -7.2554   -1.2215    5.9090 N   0  0  0  0  0  0  0  0  0  0  0  0
   -6.9412   -3.4866    3.1014 N   0  0  0  0  0  0  0  0  0  0  0  0
   -6.1626   -4.4286    4.3686 S   0  0  0  0  0  0  0  0  0  0  0  0
   -6.4324   -3.5810    1.7666 C   0  0  0  0  0  0  0  0  0  0  0  0
   -7.1970   -3.2626    0.7168 C   0  0  0  0  0  0  0  0  0  0  0  0
   -6.6441   -3.1103   -0.6402 C   0  0  0  0  0  0  0  0  0  0  0  0
   -7.4039   -2.8495   -1.7836 C   0  0  0  0  0  0  0  0  0  0  0  0
   -6.6177   -2.4965   -2.8968 C   0  0  0  0  0  0  0  0  0  0  0  0
   -7.0918   -2.0715   -4.1569 C   0  0  0  0  0  0  0  0  0  0  0  0
   -8.5221   -2.1283   -4.5071 C   0  0  0  0  0  0  0  0  0  0  0  0
   -9.3838   -3.5550   -4.7183 S   0  0  0  0  0  0  0  0  0  0  0  0
  -10.8253   -2.8260   -5.1899 C   0  0  0  0  0  0  0  0  0  0  0  0
  -12.0548   -3.5771   -5.6055 C   0  0  0  0  0  0  0  0  0  0  0  0
  -11.9063   -4.1148   -7.0267 C   0  0  0  0  0  0  0  0  0  0  0  0
  -10.6430   -1.4438   -5.1988 C   0  0  0  0  0  0  0  0  0  0  0  0
  -11.8927   -0.2991   -5.6642 Cl  0  0  0  0  0  0  0  0  0  0  0  0
   -9.3541   -1.0519   -4.8076 C   0  0  0  0  0  0  0  0  0  0  0  0
   -8.8571    0.6295   -4.6728 Cl  0  0  0  0  0  0  0  0  0  0  0  0
   -6.1319   -1.6096   -5.0765 C   0  0  0  0  0  0  0  0  0  0  0  0
   -4.7647   -1.6104   -4.7873 C   0  0  0  0  0  0  0  0  0  0  0  0
   -4.2884   -2.0521   -3.5400 C   0  0  0  0  0  0  0  0  0  0  0  0
   -2.8679   -1.9100   -3.1713 C   0  0  0  0  0  0  0  0  0  0  0  0
   -2.2674   -0.7258   -2.1407 S   0  0  0  0  0  0  0  0  0  0  0  0
   -0.6386   -1.0584   -2.4071 C   0  0  0  0  0  0  0  0  0  0  0  0
    0.5021   -0.3315   -1.7600 C   0  0  0  0  0  0  0  0  0  0  0  0
    0.8277   -0.9396   -0.4030 C   0  0  0  0  0  0  0  0  0  0  0  0
   -0.5443   -2.1159   -3.3091 C   0  0  0  0  0  0  0  0  0  0  0  0
   -1.7946   -2.5806   -3.7540 C   0  0  0  0  0  0  0  0  0  0  0  0
   -1.9851   -3.8582   -4.9468 Cl  0  0  0  0  0  0  0  0  0  0  0  0
    0.9841   -2.7922   -3.8555 Cl  0  0  0  0  0  0  0  0  0  0  0  0
   -5.2478   -2.4832   -2.6130 C   0  0  0  0  0  0  0  0  0  0  0  0
   -5.0046   -2.9173   -1.0088 S   0  0  0  0  0  0  0  0  0  0  0  0
   -3.9908   -1.0084   -5.7838 C   0  0  0  0  0  0  0  0  0  0  0  0
   -4.7406   -0.5207   -6.8493 C   0  0  0  0  0  0  0  0  0  0  0  0
   -6.3729   -0.8323   -6.5599 S   0  0  0  0  0  0  0  0  0  0  0  0
   -4.1974    0.5061   -7.7372 C   0  0  0  0  0  0  0  0  0  0  0  0
   -4.1045    1.8201   -7.2659 C   0  0  0  0  0  0  0  0  0  0  0  0
   -2.8730    2.4369   -7.5438 C   0  0  0  0  0  0  0  0  0  0  0  0
   -2.3674    3.5921   -6.9086 C   0  0  0  0  0  0  0  0  0  0  0  0
   -3.1733    4.3919   -5.9647 C   0  0  0  0  0  0  0  0  0  0  0  0
   -3.7873    3.8356   -4.4974 S   0  0  0  0  0  0  0  0  0  0  0  0
   -4.4415    5.3064   -4.0090 C   0  0  0  0  0  0  0  0  0  0  0  0
   -5.1277    5.5405   -2.6956 C   0  0  0  0  0  0  0  0  0  0  0  0
   -4.1210    5.9657   -1.6323 C   0  0  0  0  0  0  0  0  0  0  0  0
   -4.1560    6.2684   -4.9766 C   0  0  0  0  0  0  0  0  0  0  0  0
   -4.6154    7.9585   -4.8337 Cl  0  0  0  0  0  0  0  0  0  0  0  0
   -3.4416    5.7563   -6.0708 C   0  0  0  0  0  0  0  0  0  0  0  0
   -2.9458    6.7355   -7.4455 Cl  0  0  0  0  0  0  0  0  0  0  0  0
   -0.9860    3.8312   -7.0374 C   0  0  0  0  0  0  0  0  0  0  0  0
   -0.1491    3.0176   -7.8082 C   0  0  0  0  0  0  0  0  0  0  0  0
   -0.6779    1.9279   -8.5245 C   0  0  0  0  0  0  0  0  0  0  0  0
    0.2059    0.9531   -9.1813 C   0  0  0  0  0  0  0  0  0  0  0  0
    0.7945    1.0870  -10.7482 S   0  0  0  0  0  0  0  0  0  0  0  0
    1.7403   -0.3072  -10.6953 C   0  0  0  0  0  0  0  0  0  0  0  0
    2.6318   -0.7705  -11.8073 C   0  0  0  0  0  0  0  0  0  0  0  0
    3.9794   -0.0586  -11.7423 C   0  0  0  0  0  0  0  0  0  0  0  0
    1.6311   -0.8759   -9.4268 C   0  0  0  0  0  0  0  0  0  0  0  0
    0.7643   -0.1716   -8.5787 C   0  0  0  0  0  0  0  0  0  0  0  0
    0.4495   -0.6325   -6.9106 Cl  0  0  0  0  0  0  0  0  0  0  0  0
    2.5149   -2.3096   -8.9208 Cl  0  0  0  0  0  0  0  0  0  0  0  0
   -2.0408    1.6473   -8.3420 C   0  0  0  0  0  0  0  0  0  0  0  0
   -2.8034    0.1804   -8.6253 S   0  0  0  0  0  0  0  0  0  0  0  0
    1.2169    3.2276   -7.5597 C   0  0  0  0  0  0  0  0  0  0  0  0
    1.4551    4.1423   -6.5338 C   0  0  0  0  0  0  0  0  0  0  0  0
   -0.0279    4.7637   -6.0136 S   0  0  0  0  0  0  0  0  0  0  0  0
    2.6751    4.1202   -5.7057 C   0  0  0  0  0  0  0  0  0  0  0  0
    2.7136    4.4661   -4.3520 C   0  0  0  0  0  0  0  0  0  0  0  0
    3.8160    3.9177   -3.6718 C   0  0  0  0  0  0  0  0  0  0  0  0
    4.0257    3.9362   -2.2782 C   0  0  0  0  0  0  0  0  0  0  0  0
    3.1129    4.6273   -1.3555 C   0  0  0  0  0  0  0  0  0  0  0  0
    1.5450    4.1250   -1.0044 S   0  0  0  0  0  0  0  0  0  0  0  0
    1.2607    5.2629    0.2010 C   0  0  0  0  0  0  0  0  0  0  0  0
    0.0307    5.3072    1.0537 C   0  0  0  0  0  0  0  0  0  0  0  0
    0.2632    4.5643    2.3630 C   0  0  0  0  0  0  0  0  0  0  0  0
    2.4085    6.0375    0.3649 C   0  0  0  0  0  0  0  0  0  0  0  0
    2.5663    7.3034    1.5762 Cl  0  0  0  0  0  0  0  0  0  0  0  0
    3.4466    5.6802   -0.5074 C   0  0  0  0  0  0  0  0  0  0  0  0
    5.0180    6.4719   -0.5175 Cl  0  0  0  0  0  0  0  0  0  0  0  0
    5.0838    3.1593   -1.7833 C   0  0  0  0  0  0  0  0  0  0  0  0
    5.9257    2.4145   -2.6144 C   0  0  0  0  0  0  0  0  0  0  0  0
    5.7439    2.4235   -4.0114 C   0  0  0  0  0  0  0  0  0  0  0  0
    6.5325    1.5534   -4.9037 C   0  0  0  0  0  0  0  0  0  0  0  0
    6.5149   -0.1279   -4.8626 S   0  0  0  0  0  0  0  0  0  0  0  0
    7.6087   -0.3510   -6.1197 C   0  0  0  0  0  0  0  0  0  0  0  0
    8.0226   -1.6872   -6.6573 C   0  0  0  0  0  0  0  0  0  0  0  0
    7.0971   -2.1272   -7.7852 C   0  0  0  0  0  0  0  0  0  0  0  0
    7.9864    0.8997   -6.6085 C   0  0  0  0  0  0  0  0  0  0  0  0
    7.3826    1.9689   -5.9249 C   0  0  0  0  0  0  0  0  0  0  0  0
    7.6936    3.6581   -6.3010 Cl  0  0  0  0  0  0  0  0  0  0  0  0
    9.1091    1.1189   -7.9435 Cl  0  0  0  0  0  0  0  0  0  0  0  0
    4.6704    3.1855   -4.5037 C   0  0  0  0  0  0  0  0  0  0  0  0
    4.0377    3.1808   -6.0601 S   0  0  0  0  0  0  0  0  0  0  0  0
    6.8469    1.6287   -1.9043 C   0  0  0  0  0  0  0  0  0  0  0  0
    6.6936    1.7223   -0.5212 C   0  0  0  0  0  0  0  0  0  0  0  0
    5.4451    2.8060   -0.1772 S   0  0  0  0  0  0  0  0  0  0  0  0
    7.3671    0.8671    0.4684 C   0  0  0  0  0  0  0  0  0  0  0  0
    8.3661   -0.0621    0.1860 C   0  0  0  0  0  0  0  0  0  0  0  0
    8.7121   -0.8500    1.2927 C   0  0  0  0  0  0  0  0  0  0  0  0
    9.6676   -1.8853    1.3107 C   0  0  0  0  0  0  0  0  0  0  0  0
   10.3934   -2.2920    0.0939 C   0  0  0  0  0  0  0  0  0  0  0  0
    9.6624   -2.8860   -1.3021 S   0  0  0  0  0  0  0  0  0  0  0  0
   11.0713   -2.9823   -2.2154 C   0  0  0  0  0  0  0  0  0  0  0  0
   11.1121   -3.3359   -3.6706 C   0  0  0  0  0  0  0  0  0  0  0  0
   10.9888   -2.0841   -4.5312 C   0  0  0  0  0  0  0  0  0  0  0  0
   12.1359   -2.5269   -1.4407 C   0  0  0  0  0  0  0  0  0  0  0  0
   13.7814   -2.3895   -2.0424 Cl  0  0  0  0  0  0  0  0  0  0  0  0
   11.7565   -2.1424   -0.1429 C   0  0  0  0  0  0  0  0  0  0  0  0
   12.8726   -1.4474    1.0242 Cl  0  0  0  0  0  0  0  0  0  0  0  0
    9.8572   -2.5508    2.5326 C   0  0  0  0  0  0  0  0  0  0  0  0
    9.1391   -2.2275    3.6886 C   0  0  0  0  0  0  0  0  0  0  0  0
    8.1837   -1.1896    3.6703 C   0  0  0  0  0  0  0  0  0  0  0  0
    7.3818   -0.8402    4.8574 C   0  0  0  0  0  0  0  0  0  0  0  0
    5.7047   -0.9437    4.9443 S   0  0  0  0  0  0  0  0  0  0  0  0
    5.5726   -0.4112    6.5333 C   0  0  0  0  0  0  0  0  0  0  0  0
    4.2771   -0.1989    7.2560 C   0  0  0  0  0  0  0  0  0  0  0  0
    3.8381    1.2583    7.1583 C   0  0  0  0  0  0  0  0  0  0  0  0
    6.8489   -0.1211    7.0143 C   0  0  0  0  0  0  0  0  0  0  0  0
    7.8638   -0.3637    6.0750 C   0  0  0  0  0  0  0  0  0  0  0  0
    9.5660   -0.0324    6.3821 Cl  0  0  0  0  0  0  0  0  0  0  0  0
    7.1598    0.4971    8.6277 Cl  0  0  0  0  0  0  0  0  0  0  0  0
    7.9935   -0.5238    2.4475 C   0  0  0  0  0  0  0  0  0  0  0  0
    6.9282    0.7305    2.0936 S   0  0  0  0  0  0  0  0  0  0  0  0
    9.4387   -3.0655    4.7753 C   0  0  0  0  0  0  0  0  0  0  0  0
   10.3987   -4.0300    4.4751 C   0  0  0  0  0  0  0  0  0  0  0  0
   10.8616   -3.8606    2.8617 S   0  0  0  0  0  0  0  0  0  0  0  0
    1.6950   -2.9296   11.1146 H   0  0  0  0  0  0  0  0  0  0  0  0
    0.6307   -0.9251    9.8409 H   0  0  0  0  0  0  0  0  0  0  0  0
   -0.0790    4.3730    7.5875 H   0  0  0  0  0  0  0  0  0  0  0  0
    1.3906    3.3537    7.6915 H   0  0  0  0  0  0  0  0  0  0  0  0
    1.0902    2.6197    5.3296 H   0  0  0  0  0  0  0  0  0  0  0  0
    1.1098    4.4177    5.4385 H   0  0  0  0  0  0  0  0  0  0  0  0
   -0.4607    3.5493    5.2277 H   0  0  0  0  0  0  0  0  0  0  0  0
   -2.1082   -9.8216    6.9861 H   0  0  0  0  0  0  0  0  0  0  0  0
   -3.0891  -10.2955    8.4132 H   0  0  0  0  0  0  0  0  0  0  0  0
   -5.1556   -9.4112    7.2961 H   0  0  0  0  0  0  0  0  0  0  0  0
   -4.3340  -10.6574    6.2762 H   0  0  0  0  0  0  0  0  0  0  0  0
   -4.1635   -8.9101    5.8643 H   0  0  0  0  0  0  0  0  0  0  0  0
   -4.3573   -4.8929    6.6381 H   0  0  0  0  0  0  0  0  0  0  0  0
   -5.8352   -0.9734    4.3590 H   0  0  0  0  0  0  0  0  0  0  0  0
   -7.4384   -1.4414    2.7941 H   0  0  0  0  0  0  0  0  0  0  0  0
   -8.8581   -3.1101    4.8174 H   0  0  0  0  0  0  0  0  0  0  0  0
   -9.6191   -0.4515    3.7134 H   0  0  0  0  0  0  0  0  0  0  0  0
   -7.9270    0.5015    4.8880 H   0  0  0  0  0  0  0  0  0  0  0  0
   -8.8824   -0.3325    7.6110 H   0  0  0  0  0  0  0  0  0  0  0  0
   -8.7858    1.3014    6.8503 H   0  0  0  0  0  0  0  0  0  0  0  0
  -11.5152   -1.4671    4.7109 H   0  0  0  0  0  0  0  0  0  0  0  0
  -10.5497   -2.1734    6.0732 H   0  0  0  0  0  0  0  0  0  0  0  0
   -7.6506   -2.0135    6.4708 H   0  0  0  0  0  0  0  0  0  0  0  0
   -5.3973   -3.8703    1.6228 H   0  0  0  0  0  0  0  0  0  0  0  0
   -8.2375   -3.0162    0.8767 H   0  0  0  0  0  0  0  0  0  0  0  0
   -8.4856   -2.8406   -1.7809 H   0  0  0  0  0  0  0  0  0  0  0  0
  -12.2122   -4.4281   -4.9071 H   0  0  0  0  0  0  0  0  0  0  0  0
  -12.9503   -2.9220   -5.5504 H   0  0  0  0  0  0  0  0  0  0  0  0
  -11.7418   -3.2803   -7.7401 H   0  0  0  0  0  0  0  0  0  0  0  0
  -12.8327   -4.6530   -7.3173 H   0  0  0  0  0  0  0  0  0  0  0  0
  -11.0528   -4.8252   -7.0839 H   0  0  0  0  0  0  0  0  0  0  0  0
    1.4007   -0.3762   -2.4105 H   0  0  0  0  0  0  0  0  0  0  0  0
    0.2330    0.7372   -1.6257 H   0  0  0  0  0  0  0  0  0  0  0  0
   -0.0219   -0.7896    0.2964 H   0  0  0  0  0  0  0  0  0  0  0  0
    1.0357   -2.0272   -0.5011 H   0  0  0  0  0  0  0  0  0  0  0  0
    1.7266   -0.4446    0.0211 H   0  0  0  0  0  0  0  0  0  0  0  0
   -2.9276   -0.8221   -5.6819 H   0  0  0  0  0  0  0  0  0  0  0  0
   -4.8176    2.2172   -6.5543 H   0  0  0  0  0  0  0  0  0  0  0  0
   -5.6352    4.6078   -2.3718 H   0  0  0  0  0  0  0  0  0  0  0  0
   -5.9046    6.3249   -2.8076 H   0  0  0  0  0  0  0  0  0  0  0  0
   -4.6492    6.1403   -0.6715 H   0  0  0  0  0  0  0  0  0  0  0  0
   -3.3617    5.1686   -1.4812 H   0  0  0  0  0  0  0  0  0  0  0  0
   -3.6112    6.9053   -1.9377 H   0  0  0  0  0  0  0  0  0  0  0  0
    2.7886   -1.8672  -11.7377 H   0  0  0  0  0  0  0  0  0  0  0  0
    2.1485   -0.5514  -12.7812 H   0  0  0  0  0  0  0  0  0  0  0  0
    4.4519   -0.2098  -10.7475 H   0  0  0  0  0  0  0  0  0  0  0  0
    4.6523   -0.4709  -12.5221 H   0  0  0  0  0  0  0  0  0  0  0  0
    3.8460    1.0265  -11.9264 H   0  0  0  0  0  0  0  0  0  0  0  0
    1.9946    2.6014   -7.9788 H   0  0  0  0  0  0  0  0  0  0  0  0
    1.9119    4.9945   -3.8531 H   0  0  0  0  0  0  0  0  0  0  0  0
   -0.8172    4.8382    0.5107 H   0  0  0  0  0  0  0  0  0  0  0  0
   -0.2380    6.3639    1.2667 H   0  0  0  0  0  0  0  0  0  0  0  0
    1.0877    5.0403    2.9351 H   0  0  0  0  0  0  0  0  0  0  0  0
    0.5242    3.5017    2.1624 H   0  0  0  0  0  0  0  0  0  0  0  0
   -0.6593    4.5944    2.9781 H   0  0  0  0  0  0  0  0  0  0  0  0
    9.0661   -1.6371   -7.0314 H   0  0  0  0  0  0  0  0  0  0  0  0
    7.9882   -2.4400   -5.8402 H   0  0  0  0  0  0  0  0  0  0  0  0
    7.4086   -3.1280   -8.1489 H   0  0  0  0  0  0  0  0  0  0  0  0
    7.1526   -1.4099   -8.6305 H   0  0  0  0  0  0  0  0  0  0  0  0
    6.0507   -2.1910   -7.4209 H   0  0  0  0  0  0  0  0  0  0  0  0
    7.5580    0.9653   -2.3802 H   0  0  0  0  0  0  0  0  0  0  0  0
    8.8122   -0.1718   -0.7918 H   0  0  0  0  0  0  0  0  0  0  0  0
   12.0623   -3.8600   -3.9092 H   0  0  0  0  0  0  0  0  0  0  0  0
   10.2735   -4.0261   -3.9056 H   0  0  0  0  0  0  0  0  0  0  0  0
   11.8454   -1.4011   -4.3446 H   0  0  0  0  0  0  0  0  0  0  0  0
   10.0415   -1.5473   -4.3037 H   0  0  0  0  0  0  0  0  0  0  0  0
   10.9935   -2.3711   -5.6031 H   0  0  0  0  0  0  0  0  0  0  0  0
    3.4891   -0.8464    6.8111 H   0  0  0  0  0  0  0  0  0  0  0  0
    4.3919   -0.4843    8.3240 H   0  0  0  0  0  0  0  0  0  0  0  0
    3.6559    1.5364    6.0989 H   0  0  0  0  0  0  0  0  0  0  0  0
    4.6105    1.9289    7.5888 H   0  0  0  0  0  0  0  0  0  0  0  0
    2.8986    1.3951    7.7301 H   0  0  0  0  0  0  0  0  0  0  0  0
    8.9681   -2.9951    5.7477 H   0  0  0  0  0  0  0  0  0  0  0  0
   10.7700   -4.7763    5.1617 H   0  0  0  0  0  0  0  0  0  0  0  0
  1  2  2  0
  2  3  1  0
  3  4  2  0
  4  5  1  0
  5  6  1  0
  6  7  1  0
  7  8  1  0
  8  9  1  0
  7 10  2  0
 10 11  1  0
 10 12  1  0
 12 13  1  0
  4 14  1  0
 14 15  2  0
 15 16  1  0
 16 17  1  0
 17 18  1  0
 18 19  1  0
 19 20  1  0
 20 21  1  0
 19 22  2  0
 22 23  1  0
 23 24  1  0
 22 25  1  0
 16 26  2  0
 26 27  1  0
 15 28  1  0
 28 29  2  0
 29 30  1  0
 29 31  1  0
 31 32  1  0
 32 33  1  0
 33 34  1  0
 34 35  1  0
 35 36  1  0
 36 37  1  0
 37 38  1  0
 38 39  1  0
 36 40  1  0
 33 41  1  0
 41 42  1  0
 41 43  1  0
 43 44  2  3
 44 45  1  0
 45 46  2  0
 46 47  1  0
 47 48  2  0
 48 49  1  0
 49 50  1  0
 50 51  1  0
 51 52  1  0
 52 53  1  0
 51 54  2  0
 54 55  1  0
 54 56  1  0
 56 57  1  0
 48 58  1  0
 58 59  2  0
 59 60  1  0
 60 61  1  0
 61 62  1  0
 62 63  1  0
 63 64  1  0
 64 65  1  0
 63 66  2  0
 66 67  1  0
 67 68  1  0
 66 69  1  0
 60 70  2  0
 70 71  1  0
 59 72  1  0
 72 73  2  0
 73 74  1  0
 73 75  1  0
 75 76  2  0
 76 77  1  0
 77 78  2  0
 78 79  1  0
 79 80  1  0
 80 81  1  0
 81 82  1  0
 82 83  1  0
 81 84  2  0
 84 85  1  0
 84 86  1  0
 86 87  1  0
 78 88  1  0
 88 89  2  0
 89 90  1  0
 90 91  1  0
 91 92  1  0
 92 93  1  0
 93 94  1  0
 94 95  1  0
 93 96  2  0
 96 97  1  0
 97 98  1  0
 96 99  1  0
 90100  2  0
100101  1  0
 89102  1  0
102103  2  0
103104  1  0
103105  1  0
105106  2  0
106107  1  0
107108  2  0
108109  1  0
109110  1  0
110111  1  0
111112  1  0
112113  1  0
111114  2  0
114115  1  0
114116  1  0
116117  1  0
108118  1  0
118119  2  0
119120  1  0
120121  1  0
121122  1  0
122123  1  0
123124  1  0
124125  1  0
123126  2  0
126127  1  0
127128  1  0
126129  1  0
120130  2  0
130131  1  0
119132  1  0
132133  2  0
133134  1  0
133135  1  0
135136  2  0
136137  1  0
137138  2  0
138139  1  0
139140  1  0
140141  1  0
141142  1  0
142143  1  0
141144  2  0
144145  1  0
144146  1  0
146147  1  0
138148  1  0
148149  2  0
149150  1  0
150151  1  0
151152  1  0
152153  1  0
153154  1  0
154155  1  0
153156  2  0
156157  1  0
157158  1  0
156159  1  0
150160  2  0
160161  1  0
149162  1  0
162163  2  0
163164  1  0
 27  1  1  0
 42 31  1  0
 71 45  1  0
101 75  1  0
131105  1  0
161135  1  0
 26  3  1  0
 40 32  1  0
 70 47  1  0
100 77  1  0
130107  1  0
160137  1  0
 12  5  2  0
 30 14  1  0
 39 35  1  0
 56 49  2  0
 74 58  1  0
 86 79  2  0
104 88  1  0
116109  2  0
134118  1  0
146139  2  0
164148  1  0
 23 17  2  0
 67 61  2  0
 97 91  2  0
127121  2  0
157151  2  0
  1165  1  0
  2166  1  0
  8167  1  0
  8168  1  0
  9169  1  0
  9170  1  0
  9171  1  0
 20172  1  0
 20173  1  0
 21174  1  0
 21175  1  0
 21176  1  0
 28177  1  0
 32178  1  6
 33179  1  6
 34180  1  0
 35181  1  6
 36182  1  6
 37183  1  0
 37184  1  0
 39185  1  0
 39186  1  0
 40187  1  0
 43188  1  0
 44189  1  0
 46190  1  0
 52191  1  0
 52192  1  0
 53193  1  0
 53194  1  0
 53195  1  0
 64196  1  0
 64197  1  0
 65198  1  0
 65199  1  0
 65200  1  0
 72201  1  0
 76202  1  0
 82203  1  0
 82204  1  0
 83205  1  0
 83206  1  0
 83207  1  0
 94208  1  0
 94209  1  0
 95210  1  0
 95211  1  0
 95212  1  0
102213  1  0
106214  1  0
112215  1  0
112216  1  0
113217  1  0
113218  1  0
113219  1  0
124220  1  0
124221  1  0
125222  1  0
125223  1  0
125224  1  0
132225  1  0
136226  1  0
142227  1  0
142228  1  0
143229  1  0
143230  1  0
143231  1  0
154232  1  0
154233  1  0
155234  1  0
155235  1  0
155236  1  0
162237  1  0
163238  1  0
M  END

