
     RDKit          3D

221241  0  0  0  0  0  0  0  0999 V2000
    0.9753   -6.0909    8.7192 C   0  0  0  0  0  0  0  0  0  0  0  0
   -0.0698   -6.8977    7.6641 S   0  0  0  0  0  0  0  0  0  0  0  0
    0.6130   -6.3521    6.2182 C   0  0  0  0  0  0  0  0  0  0  0  0
    1.6637   -5.5097    6.5592 C   0  0  0  0  0  0  0  0  0  0  0  0
    1.8513   -5.3565    7.9328 C   0  0  0  0  0  0  0  0  0  0  0  0
    2.7663   -4.4744    8.4052 N   0  0  0  0  0  0  0  0  0  0  0  0
    3.5198   -3.7387    7.5325 C   0  0  0  0  0  0  0  0  0  0  0  0
    4.4238   -2.7807    8.0048 O   0  0  0  0  0  0  0  0  0  0  0  0
    4.5397   -2.4402    9.3824 C   0  0  0  0  0  0  0  0  0  0  0  0
    5.4973   -1.2671    9.5375 C   0  0  0  0  0  0  0  0  0  0  0  0
    3.3605   -3.9245    6.1371 C   0  0  0  0  0  0  0  0  0  0  0  0
    4.1752   -3.1175    5.1637 C   0  0  0  0  0  0  0  0  0  0  0  0
    3.9841   -3.5848    3.7935 N   0  0  0  0  0  0  0  0  0  0  0  0
    2.4133   -4.7970    5.6837 N   0  0  0  0  0  0  0  0  0  0  0  0
    0.0721   -6.5719    4.8664 C   0  0  0  0  0  0  0  0  0  0  0  0
   -1.2791   -6.7096    4.5500 C   0  0  0  0  0  0  0  0  0  0  0  0
   -1.5280   -6.6463    3.1651 C   0  0  0  0  0  0  0  0  0  0  0  0
   -2.7940   -6.5864    2.5432 C   0  0  0  0  0  0  0  0  0  0  0  0
   -4.0387   -6.7662    3.3180 C   0  0  0  0  0  0  0  0  0  0  0  0
   -4.9559   -5.7153    3.4575 C   0  0  0  0  0  0  0  0  0  0  0  0
   -6.1005   -5.8808    4.2440 C   0  0  0  0  0  0  0  0  0  0  0  0
   -6.3364   -7.0975    4.8966 C   0  0  0  0  0  0  0  0  0  0  0  0
   -7.7987   -7.2931    5.9220 S   0  0  0  0  0  0  0  0  0  0  0  0
   -7.0366   -6.6184    7.4429 C   0  0  0  0  0  0  0  0  0  0  0  0
   -6.1600   -7.6570    8.1338 C   0  0  0  0  0  0  0  0  0  0  0  0
   -5.4364   -8.1587    4.7369 C   0  0  0  0  0  0  0  0  0  0  0  0
   -5.6634   -9.3544    5.3398 F   0  0  0  0  0  0  0  0  0  0  0  0
   -4.2879   -7.9883    3.9598 C   0  0  0  0  0  0  0  0  0  0  0  0
   -2.8112   -6.3149    1.1602 C   0  0  0  0  0  0  0  0  0  0  0  0
   -1.6429   -6.1754    0.4018 C   0  0  0  0  0  0  0  0  0  0  0  0
   -0.3768   -6.3010    1.0147 C   0  0  0  0  0  0  0  0  0  0  0  0
    0.8969   -6.1531    0.2795 C   0  0  0  0  0  0  0  0  0  0  0  0
    1.2296   -4.9392   -0.3396 C   0  0  0  0  0  0  0  0  0  0  0  0
    2.4904   -4.7677   -0.9168 C   0  0  0  0  0  0  0  0  0  0  0  0
    3.4336   -5.8028   -0.8744 C   0  0  0  0  0  0  0  0  0  0  0  0
    5.0749   -5.5386   -1.5511 S   0  0  0  0  0  0  0  0  0  0  0  0
    4.6773   -6.1560   -3.2249 C   0  0  0  0  0  0  0  0  0  0  0  0
    4.9224   -7.6548   -3.3237 C   0  0  0  0  0  0  0  0  0  0  0  0
    3.1072   -7.0143   -0.2481 C   0  0  0  0  0  0  0  0  0  0  0  0
    1.8414   -7.1901    0.3130 C   0  0  0  0  0  0  0  0  0  0  0  0
    4.0253   -8.0071   -0.1444 F   0  0  0  0  0  0  0  0  0  0  0  0
   -0.3641   -6.5055    2.4058 C   0  0  0  0  0  0  0  0  0  0  0  0
    0.9578   -6.4220    3.4393 S   0  0  0  0  0  0  0  0  0  0  0  0
   -1.8906   -5.8203   -0.9357 C   0  0  0  0  0  0  0  0  0  0  0  0
   -3.2478   -5.6346   -1.2135 C   0  0  0  0  0  0  0  0  0  0  0  0
   -4.1370   -5.9710    0.1850 S   0  0  0  0  0  0  0  0  0  0  0  0
   -3.7650   -4.8732   -2.3673 C   0  0  0  0  0  0  0  0  0  0  0  0
   -4.9270   -4.1025   -2.3308 C   0  0  0  0  0  0  0  0  0  0  0  0
   -4.9463   -3.0757   -3.2921 C   0  0  0  0  0  0  0  0  0  0  0  0
   -5.8202   -1.9627   -3.2994 C   0  0  0  0  0  0  0  0  0  0  0  0
   -6.9567   -1.8283   -2.3617 C   0  0  0  0  0  0  0  0  0  0  0  0
   -8.2585   -1.6840   -2.8708 C   0  0  0  0  0  0  0  0  0  0  0  0
   -9.3451   -1.5675   -2.0012 C   0  0  0  0  0  0  0  0  0  0  0  0
   -9.1465   -1.6138   -0.6166 C   0  0  0  0  0  0  0  0  0  0  0  0
  -10.5528   -1.5033    0.4950 S   0  0  0  0  0  0  0  0  0  0  0  0
  -10.9056   -3.2992    0.4967 C   0  0  0  0  0  0  0  0  0  0  0  0
  -11.9127   -3.6529   -0.5910 C   0  0  0  0  0  0  0  0  0  0  0  0
   -7.8438   -1.7254   -0.1016 C   0  0  0  0  0  0  0  0  0  0  0  0
   -7.6361   -1.7506    1.2383 F   0  0  0  0  0  0  0  0  0  0  0  0
   -6.7549   -1.8210   -0.9719 C   0  0  0  0  0  0  0  0  0  0  0  0
   -5.4833   -0.9001   -4.1548 C   0  0  0  0  0  0  0  0  0  0  0  0
   -4.4056   -0.9591   -5.0378 C   0  0  0  0  0  0  0  0  0  0  0  0
   -3.5560   -2.0840   -5.0644 C   0  0  0  0  0  0  0  0  0  0  0  0
   -2.2796   -2.0542   -5.8100 C   0  0  0  0  0  0  0  0  0  0  0  0
   -1.2954   -1.1088   -5.4754 C   0  0  0  0  0  0  0  0  0  0  0  0
   -0.1763   -0.9400   -6.2907 C   0  0  0  0  0  0  0  0  0  0  0  0
   -0.0033   -1.7421   -7.4225 C   0  0  0  0  0  0  0  0  0  0  0  0
    1.4546   -1.5252   -8.4534 S   0  0  0  0  0  0  0  0  0  0  0  0
    0.6986   -0.2895   -9.5693 C   0  0  0  0  0  0  0  0  0  0  0  0
    0.7834    1.1127   -8.9771 C   0  0  0  0  0  0  0  0  0  0  0  0
   -0.9468   -2.7371   -7.7208 C   0  0  0  0  0  0  0  0  0  0  0  0
   -2.0855   -2.8870   -6.9171 C   0  0  0  0  0  0  0  0  0  0  0  0
   -0.7723   -3.5492   -8.7949 F   0  0  0  0  0  0  0  0  0  0  0  0
   -3.8425   -3.1159   -4.1545 C   0  0  0  0  0  0  0  0  0  0  0  0
   -2.8160   -4.3541   -3.6667 S   0  0  0  0  0  0  0  0  0  0  0  0
   -4.1085    0.2805   -5.6272 C   0  0  0  0  0  0  0  0  0  0  0  0
   -4.8017    1.3480   -5.0615 C   0  0  0  0  0  0  0  0  0  0  0  0
   -5.9541    0.7092   -4.0008 S   0  0  0  0  0  0  0  0  0  0  0  0
   -4.1204    2.6376   -4.8323 C   0  0  0  0  0  0  0  0  0  0  0  0
   -2.4398    2.7786   -4.9306 S   0  0  0  0  0  0  0  0  0  0  0  0
   -2.2348    4.1239   -3.9469 C   0  0  0  0  0  0  0  0  0  0  0  0
   -3.5107    4.5035   -3.5360 C   0  0  0  0  0  0  0  0  0  0  0  0
   -4.5433    3.6789   -4.0077 C   0  0  0  0  0  0  0  0  0  0  0  0
   -5.8106    3.8550   -3.5643 N   0  0  0  0  0  0  0  0  0  0  0  0
   -6.0996    4.8550   -2.6811 C   0  0  0  0  0  0  0  0  0  0  0  0
   -7.4094    5.0339   -2.2166 O   0  0  0  0  0  0  0  0  0  0  0  0
   -8.4807    4.1413   -2.5237 C   0  0  0  0  0  0  0  0  0  0  0  0
   -8.3686    2.8604   -1.7023 C   0  0  0  0  0  0  0  0  0  0  0  0
   -5.0645    5.7026   -2.2218 C   0  0  0  0  0  0  0  0  0  0  0  0
   -5.3647    6.8076   -1.2409 C   0  0  0  0  0  0  0  0  0  0  0  0
   -4.1805    7.6223   -0.9762 N   0  0  0  0  0  0  0  0  0  0  0  0
   -3.7840    5.4892   -2.6458 N   0  0  0  0  0  0  0  0  0  0  0  0
   -0.9430    4.5136   -3.3559 C   0  0  0  0  0  0  0  0  0  0  0  0
    0.2115    3.7249   -3.3839 C   0  0  0  0  0  0  0  0  0  0  0  0
    1.2690    4.2463   -2.6183 C   0  0  0  0  0  0  0  0  0  0  0  0
    2.5471    3.6646   -2.4206 C   0  0  0  0  0  0  0  0  0  0  0  0
    2.9491    2.3718   -3.0497 C   0  0  0  0  0  0  0  0  0  0  0  0
    2.8060    2.1602   -4.4338 C   0  0  0  0  0  0  0  0  0  0  0  0
    3.2374    0.9629   -5.0186 C   0  0  0  0  0  0  0  0  0  0  0  0
    3.8684   -0.0159   -4.2397 C   0  0  0  0  0  0  0  0  0  0  0  0
    4.6127   -1.4440   -5.0518 S   0  0  0  0  0  0  0  0  0  0  0  0
    3.5798   -2.7430   -4.2785 C   0  0  0  0  0  0  0  0  0  0  0  0
    2.1202   -2.6539   -4.6833 C   0  0  0  0  0  0  0  0  0  0  0  0
    4.0174    0.1885   -2.8624 C   0  0  0  0  0  0  0  0  0  0  0  0
    4.6315   -0.7392   -2.0881 F   0  0  0  0  0  0  0  0  0  0  0  0
    3.5262    1.3550   -2.2686 C   0  0  0  0  0  0  0  0  0  0  0  0
    3.4243    4.3625   -1.5583 C   0  0  0  0  0  0  0  0  0  0  0  0
    3.0605    5.5446   -0.9046 C   0  0  0  0  0  0  0  0  0  0  0  0
    1.7845    6.1094   -1.0961 C   0  0  0  0  0  0  0  0  0  0  0  0
    1.3614    7.3282   -0.3788 C   0  0  0  0  0  0  0  0  0  0  0  0
    0.3993    7.2456    0.6414 C   0  0  0  0  0  0  0  0  0  0  0  0
    0.0269    8.3938    1.3475 C   0  0  0  0  0  0  0  0  0  0  0  0
    0.6120    9.6274    1.0423 C   0  0  0  0  0  0  0  0  0  0  0  0
    0.1185   11.0954    1.9503 S   0  0  0  0  0  0  0  0  0  0  0  0
    1.5174   11.0047    3.1163 C   0  0  0  0  0  0  0  0  0  0  0  0
    1.3998   12.1110    4.1529 C   0  0  0  0  0  0  0  0  0  0  0  0
    1.5624    9.7143    0.0137 C   0  0  0  0  0  0  0  0  0  0  0  0
    1.9423    8.5660   -0.6872 C   0  0  0  0  0  0  0  0  0  0  0  0
    2.1371   10.9050   -0.2894 F   0  0  0  0  0  0  0  0  0  0  0  0
    0.9162    5.4362   -1.9662 C   0  0  0  0  0  0  0  0  0  0  0  0
   -0.6701    5.8451   -2.3583 S   0  0  0  0  0  0  0  0  0  0  0  0
    4.0630    6.0489   -0.0574 C   0  0  0  0  0  0  0  0  0  0  0  0
    5.2233    5.2755   -0.0593 C   0  0  0  0  0  0  0  0  0  0  0  0
    5.0036    3.9720   -1.1102 S   0  0  0  0  0  0  0  0  0  0  0  0
    6.4181    5.5445    0.7650 C   0  0  0  0  0  0  0  0  0  0  0  0
    6.5884    6.8364    1.8438 S   0  0  0  0  0  0  0  0  0  0  0  0
    8.1312    6.4608    2.4161 C   0  0  0  0  0  0  0  0  0  0  0  0
    8.5273    5.3078    1.7595 C   0  0  0  0  0  0  0  0  0  0  0  0
    7.5910    4.7993    0.8521 C   0  0  0  0  0  0  0  0  0  0  0  0
    7.8628    3.6632    0.1653 N   0  0  0  0  0  0  0  0  0  0  0  0
    9.0538    3.0161    0.3484 C   0  0  0  0  0  0  0  0  0  0  0  0
    9.3315    1.8344   -0.3482 O   0  0  0  0  0  0  0  0  0  0  0  0
    8.3634    1.1305   -1.1234 C   0  0  0  0  0  0  0  0  0  0  0  0
    7.3719    0.4143   -0.2134 C   0  0  0  0  0  0  0  0  0  0  0  0
   10.0068    3.5450    1.2502 C   0  0  0  0  0  0  0  0  0  0  0  0
   11.3061    2.8211    1.4970 C   0  0  0  0  0  0  0  0  0  0  0  0
   12.2412    3.6461    2.2588 N   0  0  0  0  0  0  0  0  0  0  0  0
    9.7109    4.6800    1.9506 N   0  0  0  0  0  0  0  0  0  0  0  0
    0.9315   -6.1017    9.8008 H   0  0  0  0  0  0  0  0  0  0  0  0
    3.5448   -2.1481    9.7831 H   0  0  0  0  0  0  0  0  0  0  0  0
    4.9263   -3.3127    9.9519 H   0  0  0  0  0  0  0  0  0  0  0  0
    6.5080   -1.5454    9.1694 H   0  0  0  0  0  0  0  0  0  0  0  0
    5.5690   -0.9850   10.6067 H   0  0  0  0  0  0  0  0  0  0  0  0
    5.1258   -0.3914    8.9628 H   0  0  0  0  0  0  0  0  0  0  0  0
    3.8914   -2.0448    5.2433 H   0  0  0  0  0  0  0  0  0  0  0  0
    5.2506   -3.2129    5.4300 H   0  0  0  0  0  0  0  0  0  0  0  0
    4.6752   -3.0863    3.1857 H   0  0  0  0  0  0  0  0  0  0  0  0
    3.0353   -3.2766    3.4772 H   0  0  0  0  0  0  0  0  0  0  0  0
   -2.0604   -6.7476    5.2983 H   0  0  0  0  0  0  0  0  0  0  0  0
   -4.7774   -4.7621    2.9782 H   0  0  0  0  0  0  0  0  0  0  0  0
   -6.7968   -5.0585    4.3558 H   0  0  0  0  0  0  0  0  0  0  0  0
   -6.4398   -5.7095    7.2137 H   0  0  0  0  0  0  0  0  0  0  0  0
   -7.8530   -6.3271    8.1353 H   0  0  0  0  0  0  0  0  0  0  0  0
   -6.7328   -8.5937    8.3019 H   0  0  0  0  0  0  0  0  0  0  0  0
   -5.2599   -7.8762    7.5268 H   0  0  0  0  0  0  0  0  0  0  0  0
   -5.8267   -7.2653    9.1179 H   0  0  0  0  0  0  0  0  0  0  0  0
   -3.5891   -8.8088    3.8610 H   0  0  0  0  0  0  0  0  0  0  0  0
    0.5287   -4.1153   -0.3444 H   0  0  0  0  0  0  0  0  0  0  0  0
    2.7425   -3.8161   -1.3635 H   0  0  0  0  0  0  0  0  0  0  0  0
    5.3444   -5.6411   -3.9469 H   0  0  0  0  0  0  0  0  0  0  0  0
    3.6273   -5.9231   -3.4999 H   0  0  0  0  0  0  0  0  0  0  0  0
    5.9698   -7.8926   -3.0390 H   0  0  0  0  0  0  0  0  0  0  0  0
    4.2235   -8.2065   -2.6658 H   0  0  0  0  0  0  0  0  0  0  0  0
    4.7508   -7.9908   -4.3672 H   0  0  0  0  0  0  0  0  0  0  0  0
    1.6061   -8.1257    0.8044 H   0  0  0  0  0  0  0  0  0  0  0  0
   -1.1097   -5.6123   -1.6545 H   0  0  0  0  0  0  0  0  0  0  0  0
   -5.6579   -4.1938   -1.5407 H   0  0  0  0  0  0  0  0  0  0  0  0
   -8.4304   -1.6616   -3.9398 H   0  0  0  0  0  0  0  0  0  0  0  0
  -10.3424   -1.4533   -2.4054 H   0  0  0  0  0  0  0  0  0  0  0  0
  -11.3383   -3.5635    1.4851 H   0  0  0  0  0  0  0  0  0  0  0  0
   -9.9782   -3.8957    0.3586 H   0  0  0  0  0  0  0  0  0  0  0  0
  -12.1871   -4.7276   -0.5133 H   0  0  0  0  0  0  0  0  0  0  0  0
  -12.8307   -3.0401   -0.4745 H   0  0  0  0  0  0  0  0  0  0  0  0
  -11.4770   -3.4717   -1.5951 H   0  0  0  0  0  0  0  0  0  0  0  0
   -5.7532   -1.8957   -0.5667 H   0  0  0  0  0  0  0  0  0  0  0  0
   -1.4230   -0.4679   -4.6116 H   0  0  0  0  0  0  0  0  0  0  0  0
    0.5624   -0.1881   -6.0359 H   0  0  0  0  0  0  0  0  0  0  0  0
   -0.3587   -0.5462   -9.7906 H   0  0  0  0  0  0  0  0  0  0  0  0
    1.2625   -0.3036  -10.5262 H   0  0  0  0  0  0  0  0  0  0  0  0
    0.4226    1.8552   -9.7199 H   0  0  0  0  0  0  0  0  0  0  0  0
    0.1496    1.1930   -8.0708 H   0  0  0  0  0  0  0  0  0  0  0  0
    1.8328    1.3558   -8.7116 H   0  0  0  0  0  0  0  0  0  0  0  0
   -2.8308   -3.6288   -7.1794 H   0  0  0  0  0  0  0  0  0  0  0  0
   -3.2661    0.4320   -6.2855 H   0  0  0  0  0  0  0  0  0  0  0  0
   -9.4410    4.6409   -2.2719 H   0  0  0  0  0  0  0  0  0  0  0  0
   -8.4959    3.9052   -3.6097 H   0  0  0  0  0  0  0  0  0  0  0  0
   -9.2086    2.1786   -1.9527 H   0  0  0  0  0  0  0  0  0  0  0  0
   -7.4150    2.3390   -1.9230 H   0  0  0  0  0  0  0  0  0  0  0  0
   -8.4073    3.0957   -0.6179 H   0  0  0  0  0  0  0  0  0  0  0  0
   -6.1618    7.4575   -1.6682 H   0  0  0  0  0  0  0  0  0  0  0  0
   -5.7434    6.3697   -0.2893 H   0  0  0  0  0  0  0  0  0  0  0  0
   -3.5349    7.0701   -0.3653 H   0  0  0  0  0  0  0  0  0  0  0  0
   -4.4805    8.4518   -0.4125 H   0  0  0  0  0  0  0  0  0  0  0  0
    0.2553    2.7790   -3.9033 H   0  0  0  0  0  0  0  0  0  0  0  0
    2.3813    2.9301   -5.0673 H   0  0  0  0  0  0  0  0  0  0  0  0
    3.1334    0.8251   -6.0897 H   0  0  0  0  0  0  0  0  0  0  0  0
    3.6679   -2.7018   -3.1780 H   0  0  0  0  0  0  0  0  0  0  0  0
    3.9728   -3.7231   -4.6126 H   0  0  0  0  0  0  0  0  0  0  0  0
    1.5509   -3.4833   -4.2079 H   0  0  0  0  0  0  0  0  0  0  0  0
    1.6865   -1.6909   -4.3448 H   0  0  0  0  0  0  0  0  0  0  0  0
    2.0378   -2.7536   -5.7840 H   0  0  0  0  0  0  0  0  0  0  0  0
    3.6141    1.4731   -1.1955 H   0  0  0  0  0  0  0  0  0  0  0  0
   -0.0559    6.2958    0.8934 H   0  0  0  0  0  0  0  0  0  0  0  0
   -0.7134    8.3224    2.1346 H   0  0  0  0  0  0  0  0  0  0  0  0
    2.4687   11.1274    2.5555 H   0  0  0  0  0  0  0  0  0  0  0  0
    1.5292   10.0187    3.6298 H   0  0  0  0  0  0  0  0  0  0  0  0
    2.2749   12.0764    4.8383 H   0  0  0  0  0  0  0  0  0  0  0  0
    0.4734   11.9717    4.7487 H   0  0  0  0  0  0  0  0  0  0  0  0
    1.3721   13.1049    3.6556 H   0  0  0  0  0  0  0  0  0  0  0  0
    2.6884    8.6398   -1.4705 H   0  0  0  0  0  0  0  0  0  0  0  0
    3.9436    6.9375    0.5506 H   0  0  0  0  0  0  0  0  0  0  0  0
    8.6983    7.0094    3.1560 H   0  0  0  0  0  0  0  0  0  0  0  0
    8.8904    0.3729   -1.7425 H   0  0  0  0  0  0  0  0  0  0  0  0
    7.8286    1.8277   -1.8043 H   0  0  0  0  0  0  0  0  0  0  0  0
    7.9168   -0.2322    0.5057 H   0  0  0  0  0  0  0  0  0  0  0  0
    6.6998   -0.2209   -0.8231 H   0  0  0  0  0  0  0  0  0  0  0  0
    6.7590    1.1488    0.3474 H   0  0  0  0  0  0  0  0  0  0  0  0
   11.7689    2.5348    0.5264 H   0  0  0  0  0  0  0  0  0  0  0  0
   11.0889    1.8916    2.0677 H   0  0  0  0  0  0  0  0  0  0  0  0
   12.5728    4.4200    1.6365 H   0  0  0  0  0  0  0  0  0  0  0  0
   13.0777    3.0575    2.4783 H   0  0  0  0  0  0  0  0  0  0  0  0
  1  2  1  0
  2  3  1  0
  3  4  2  0
  4  5  1  0
  5  6  1  0
  6  7  2  0
  7  8  1  0
  8  9  1  0
  9 10  1  0
  7 11  1  0
 11 12  1  0
 12 13  1  0
 11 14  2  0
  3 15  1  0
 15 16  2  0
 16 17  1  0
 17 18  2  0
 18 19  1  0
 19 20  2  0
 20 21  1  0
 21 22  2  0
 22 23  1  0
 23 24  1  0
 24 25  1  0
 22 26  1  0
 26 27  1  0
 26 28  2  0
 18 29  1  0
 29 30  2  0
 30 31  1  0
 31 32  1  0
 32 33  2  0
 33 34  1  0
 34 35  2  0
 35 36  1  0
 36 37  1  0
 37 38  1  0
 35 39  1  0
 39 40  2  0
 39 41  1  0
 31 42  2  0
 42 43  1  0
 30 44  1  0
 44 45  2  0
 45 46  1  0
 45 47  1  0
 47 48  2  0
 48 49  1  0
 49 50  2  0
 50 51  1  0
 51 52  2  0
 52 53  1  0
 53 54  2  0
 54 55  1  0
 55 56  1  0
 56 57  1  0
 54 58  1  0
 58 59  1  0
 58 60  2  0
 50 61  1  0
 61 62  2  0
 62 63  1  0
 63 64  1  0
 64 65  2  0
 65 66  1  0
 66 67  2  0
 67 68  1  0
 68 69  1  0
 69 70  1  0
 67 71  1  0
 71 72  2  0
 71 73  1  0
 63 74  2  0
 74 75  1  0
 62 76  1  0
 76 77  2  0
 77 78  1  0
 77 79  1  0
 79 80  1  0
 80 81  1  0
 81 82  2  0
 82 83  1  0
 83 84  1  0
 84 85  2  0
 85 86  1  0
 86 87  1  0
 87 88  1  0
 85 89  1  0
 89 90  1  0
 90 91  1  0
 89 92  2  0
 81 93  1  0
 93 94  2  0
 94 95  1  0
 95 96  2  0
 96 97  1  0
 97 98  2  0
 98 99  1  0
 99100  2  0
100101  1  0
101102  1  0
102103  1  0
100104  1  0
104105  1  0
104106  2  0
 96107  1  0
107108  2  0
108109  1  0
109110  1  0
110111  2  0
111112  1  0
112113  2  0
113114  1  0
114115  1  0
115116  1  0
113117  1  0
117118  2  0
117119  1  0
109120  2  0
120121  1  0
108122  1  0
122123  2  0
123124  1  0
123125  1  0
125126  1  0
126127  1  0
127128  2  0
128129  1  0
129130  1  0
130131  2  0
131132  1  0
132133  1  0
133134  1  0
131135  1  0
135136  1  0
136137  1  0
135138  2  0
  5  1  2  0
 43 15  1  0
 75 47  1  0
 83 79  2  0
121 93  1  0
129125  2  0
 14  4  1  0
 42 17  1  0
 74 49  1  0
 92 82  1  0
120 95  1  0
138128  1  0
 28 19  1  0
 46 29  1  0
 60 51  1  0
 78 61  1  0
106 97  1  0
124107  1  0
 40 32  1  0
 72 64  1  0
118110  1  0
  1139  1  0
  9140  1  0
  9141  1  0
 10142  1  0
 10143  1  0
 10144  1  0
 12145  1  0
 12146  1  0
 13147  1  0
 13148  1  0
 16149  1  0
 20150  1  0
 21151  1  0
 24152  1  0
 24153  1  0
 25154  1  0
 25155  1  0
 25156  1  0
 28157  1  0
 33158  1  0
 34159  1  0
 37160  1  0
 37161  1  0
 38162  1  0
 38163  1  0
 38164  1  0
 40165  1  0
 44166  1  0
 48167  1  0
 52168  1  0
 53169  1  0
 56170  1  0
 56171  1  0
 57172  1  0
 57173  1  0
 57174  1  0
 60175  1  0
 65176  1  0
 66177  1  0
 69178  1  0
 69179  1  0
 70180  1  0
 70181  1  0
 70182  1  0
 72183  1  0
 76184  1  0
 87185  1  0
 87186  1  0
 88187  1  0
 88188  1  0
 88189  1  0
 90190  1  0
 90191  1  0
 91192  1  0
 91193  1  0
 94194  1  0
 98195  1  0
 99196  1  0
102197  1  0
102198  1  0
103199  1  0
103200  1  0
103201  1  0
106202  1  0
111203  1  0
112204  1  0
115205  1  0
115206  1  0
116207  1  0
116208  1  0
116209  1  0
118210  1  0
122211  1  0
127212  1  0
133213  1  0
133214  1  0
134215  1  0
134216  1  0
134217  1  0
136218  1  0
136219  1  0
137220  1  0
137221  1  0
M  END

