
     RDKit          3D

248271  0  0  0  0  0  0  0  0999 V2000
    2.9138    9.8924   -0.9366 C   0  0  0  0  0  0  0  0  0  0  0  0
    2.0364    8.8143   -1.1204 C   0  0  0  0  0  0  0  0  0  0  0  0
    1.4587    8.3512    0.0628 C   0  0  0  0  0  0  0  0  0  0  0  0
    0.5136    7.3024    0.2602 C   0  0  0  0  0  0  0  0  0  0  0  0
   -0.1005    6.6510   -0.9664 C   0  0  0  0  0  0  0  0  0  0  0  0
   -1.4884    6.6676   -1.1209 C   0  0  0  0  0  0  0  0  0  0  0  0
   -2.1558    6.0714   -2.1769 C   0  0  0  0  0  0  0  0  0  0  0  0
   -1.3110    5.5430   -3.2287 C   0  0  0  0  0  0  0  0  0  0  0  0
   -2.1544    4.5910   -4.5258 S   0  0  0  0  0  0  0  0  0  0  0  0
   -2.6067    6.0771   -5.5636 C   0  0  0  0  0  0  0  0  0  0  0  0
   -1.4118    6.9234   -6.0523 C   0  0  0  0  0  0  0  0  0  0  0  0
    0.0861    5.5505   -3.0779 C   0  0  0  0  0  0  0  0  0  0  0  0
    0.8980    5.0001   -4.0535 F   0  0  0  0  0  0  0  0  0  0  0  0
    0.7733    6.0916   -1.9726 C   0  0  0  0  0  0  0  0  0  0  0  0
    0.0094    7.1024    1.5418 C   0  0  0  0  0  0  0  0  0  0  0  0
    0.4044    7.8692    2.6605 C   0  0  0  0  0  0  0  0  0  0  0  0
    1.3953    8.9035    2.4775 C   0  0  0  0  0  0  0  0  0  0  0  0
    1.6313    9.8800    3.5498 C   0  0  0  0  0  0  0  0  0  0  0  0
    2.8052    9.7381    4.3180 C   0  0  0  0  0  0  0  0  0  0  0  0
    3.3073   10.8630    4.9858 C   0  0  0  0  0  0  0  0  0  0  0  0
    2.6577   12.1203    4.8503 C   0  0  0  0  0  0  0  0  0  0  0  0
    3.2317   13.5327    5.8540 S   0  0  0  0  0  0  0  0  0  0  0  0
    4.0619   14.4621    4.4693 C   0  0  0  0  0  0  0  0  0  0  0  0
    5.3902   13.8274    4.0145 C   0  0  0  0  0  0  0  0  0  0  0  0
    1.4026   12.1844    4.2140 C   0  0  0  0  0  0  0  0  0  0  0  0
    0.8976   11.0553    3.5320 C   0  0  0  0  0  0  0  0  0  0  0  0
    0.6609   13.3235    4.1561 F   0  0  0  0  0  0  0  0  0  0  0  0
    1.8734    9.1158    1.1618 C   0  0  0  0  0  0  0  0  0  0  0  0
    2.9662   10.3664    0.6610 S   0  0  0  0  0  0  0  0  0  0  0  0
   -0.2968    7.4913    3.8434 C   0  0  0  0  0  0  0  0  0  0  0  0
   -1.2150    6.3811    3.6173 C   0  0  0  0  0  0  0  0  0  0  0  0
   -1.1672    5.9108    1.9977 S   0  0  0  0  0  0  0  0  0  0  0  0
   -2.0795    5.6422    4.6056 C   0  0  0  0  0  0  0  0  0  0  0  0
   -3.4281    4.6463    4.2076 S   0  0  0  0  0  0  0  0  0  0  0  0
   -3.6849    3.9131    5.7405 C   0  0  0  0  0  0  0  0  0  0  0  0
   -2.6650    4.3675    6.5336 C   0  0  0  0  0  0  0  0  0  0  0  0
   -1.7883    5.3054    5.9399 C   0  0  0  0  0  0  0  0  0  0  0  0
   -0.6973    5.7345    6.5550 N   0  0  0  0  0  0  0  0  0  0  0  0
   -0.4069    5.2822    7.8573 C   0  0  0  0  0  0  0  0  0  0  0  0
    0.7786    5.7642    8.4410 O   0  0  0  0  0  0  0  0  0  0  0  0
    1.5649    6.6658    7.6871 C   0  0  0  0  0  0  0  0  0  0  0  0
    2.7815    7.1758    8.3838 C   0  0  0  0  0  0  0  0  0  0  0  0
   -1.2777    4.3032    8.4557 C   0  0  0  0  0  0  0  0  0  0  0  0
   -0.9538    3.7641    9.8714 C   0  0  0  0  0  0  0  0  0  0  0  0
   -2.0761    3.1530   10.5891 N   0  0  0  0  0  0  0  0  0  0  0  0
   -2.3294    3.8048    7.7774 N   0  0  0  0  0  0  0  0  0  0  0  0
   -4.2288    2.5589    5.8424 C   0  0  0  0  0  0  0  0  0  0  0  0
   -3.2339    1.2358    5.3322 S   0  0  0  0  0  0  0  0  0  0  0  0
   -4.4040    0.0163    5.3087 C   0  0  0  0  0  0  0  0  0  0  0  0
   -5.6210    0.6599    5.7166 C   0  0  0  0  0  0  0  0  0  0  0  0
   -5.5226    2.0949    6.0156 C   0  0  0  0  0  0  0  0  0  0  0  0
   -6.6822    2.8464    6.1876 N   0  0  0  0  0  0  0  0  0  0  0  0
   -7.8969    2.2436    6.1932 C   0  0  0  0  0  0  0  0  0  0  0  0
   -9.1273    2.9932    6.2386 O   0  0  0  0  0  0  0  0  0  0  0  0
   -9.9458    3.2914    7.3762 C   0  0  0  0  0  0  0  0  0  0  0  0
  -10.7473    1.9903    7.7430 C   0  0  0  0  0  0  0  0  0  0  0  0
   -7.9505    0.7588    5.9895 C   0  0  0  0  0  0  0  0  0  0  0  0
   -9.2321   -0.0191    5.7698 C   0  0  0  0  0  0  0  0  0  0  0  0
   -8.9204   -1.3921    5.2719 N   0  0  0  0  0  0  0  0  0  0  0  0
   -6.7843    0.0560    5.7543 N   0  0  0  0  0  0  0  0  0  0  0  0
   -4.2456   -1.2922    4.5333 C   0  0  0  0  0  0  0  0  0  0  0  0
   -3.0804   -1.4414    3.6863 C   0  0  0  0  0  0  0  0  0  0  0  0
   -3.0835   -2.5925    2.9052 C   0  0  0  0  0  0  0  0  0  0  0  0
   -2.1061   -2.9163    1.9530 C   0  0  0  0  0  0  0  0  0  0  0  0
   -1.1723   -1.8500    1.4748 C   0  0  0  0  0  0  0  0  0  0  0  0
   -1.6481   -0.9400    0.5533 C   0  0  0  0  0  0  0  0  0  0  0  0
   -0.7967   -0.2103   -0.3171 C   0  0  0  0  0  0  0  0  0  0  0  0
    0.6275   -0.5125   -0.2258 C   0  0  0  0  0  0  0  0  0  0  0  0
    1.8702    0.3842   -1.2548 S   0  0  0  0  0  0  0  0  0  0  0  0
    0.9367    0.4992   -2.8235 C   0  0  0  0  0  0  0  0  0  0  0  0
    0.0292    1.7394   -2.8268 C   0  0  0  0  0  0  0  0  0  0  0  0
    1.0525   -1.3697    0.7882 C   0  0  0  0  0  0  0  0  0  0  0  0
    2.3935   -1.5981    0.9853 F   0  0  0  0  0  0  0  0  0  0  0  0
    0.2179   -2.0712    1.6991 C   0  0  0  0  0  0  0  0  0  0  0  0
   -2.2691   -4.0573    1.2015 C   0  0  0  0  0  0  0  0  0  0  0  0
   -3.3819   -4.8907    1.3631 C   0  0  0  0  0  0  0  0  0  0  0  0
   -4.3928   -4.5708    2.3528 C   0  0  0  0  0  0  0  0  0  0  0  0
   -5.3815   -5.5719    2.7204 C   0  0  0  0  0  0  0  0  0  0  0  0
   -5.1217   -6.3554    3.8378 C   0  0  0  0  0  0  0  0  0  0  0  0
   -6.1776   -7.1484    4.3022 C   0  0  0  0  0  0  0  0  0  0  0  0
   -7.4740   -7.1567    3.7095 C   0  0  0  0  0  0  0  0  0  0  0  0
   -8.8589   -8.2412    4.3066 S   0  0  0  0  0  0  0  0  0  0  0  0
   -8.2237   -8.6365    6.0097 C   0  0  0  0  0  0  0  0  0  0  0  0
   -8.0475   -7.4388    6.9651 C   0  0  0  0  0  0  0  0  0  0  0  0
   -7.6803   -6.3834    2.5312 C   0  0  0  0  0  0  0  0  0  0  0  0
   -6.6184   -5.6047    2.0273 C   0  0  0  0  0  0  0  0  0  0  0  0
   -8.8737   -6.4059    1.8606 F   0  0  0  0  0  0  0  0  0  0  0  0
   -4.2145   -3.3885    3.1647 C   0  0  0  0  0  0  0  0  0  0  0  0
   -5.2795   -2.6497    4.3553 S   0  0  0  0  0  0  0  0  0  0  0  0
   -3.2985   -6.0295    0.4477 C   0  0  0  0  0  0  0  0  0  0  0  0
   -2.1040   -5.9937   -0.4013 C   0  0  0  0  0  0  0  0  0  0  0  0
   -1.2314   -4.5407   -0.0847 S   0  0  0  0  0  0  0  0  0  0  0  0
   -1.6885   -6.8409   -1.5836 C   0  0  0  0  0  0  0  0  0  0  0  0
   -1.6529   -6.2695   -2.8890 C   0  0  0  0  0  0  0  0  0  0  0  0
   -0.4439   -6.5630   -3.6162 C   0  0  0  0  0  0  0  0  0  0  0  0
    0.0282   -5.9491   -4.7981 C   0  0  0  0  0  0  0  0  0  0  0  0
   -0.7114   -4.8132   -5.3385 C   0  0  0  0  0  0  0  0  0  0  0  0
   -1.5285   -5.0551   -6.4594 C   0  0  0  0  0  0  0  0  0  0  0  0
   -2.5655   -4.1487   -6.7837 C   0  0  0  0  0  0  0  0  0  0  0  0
   -2.8493   -3.0292   -5.9410 C   0  0  0  0  0  0  0  0  0  0  0  0
   -4.2378   -1.9033   -6.4621 S   0  0  0  0  0  0  0  0  0  0  0  0
   -4.3349   -0.7928   -4.9741 C   0  0  0  0  0  0  0  0  0  0  0  0
   -5.6312    0.0156   -5.0447 C   0  0  0  0  0  0  0  0  0  0  0  0
   -1.9503   -2.7868   -4.8222 C   0  0  0  0  0  0  0  0  0  0  0  0
   -2.0006   -1.7603   -3.9111 F   0  0  0  0  0  0  0  0  0  0  0  0
   -0.9144   -3.6816   -4.5540 C   0  0  0  0  0  0  0  0  0  0  0  0
    1.3745   -6.2043   -5.1539 C   0  0  0  0  0  0  0  0  0  0  0  0
    2.1117   -7.2105   -4.5224 C   0  0  0  0  0  0  0  0  0  0  0  0
    1.5435   -7.9805   -3.4798 C   0  0  0  0  0  0  0  0  0  0  0  0
    2.0940   -9.2779   -3.1400 C   0  0  0  0  0  0  0  0  0  0  0  0
    1.3978  -10.3907   -3.5939 C   0  0  0  0  0  0  0  0  0  0  0  0
    1.7708  -11.6401   -3.1394 C   0  0  0  0  0  0  0  0  0  0  0  0
    2.8311  -11.8170   -2.2194 C   0  0  0  0  0  0  0  0  0  0  0  0
    3.3167  -13.4800   -1.5835 S   0  0  0  0  0  0  0  0  0  0  0  0
    1.9590  -14.5377   -2.2946 C   0  0  0  0  0  0  0  0  0  0  0  0
    0.5639  -14.2943   -1.6768 C   0  0  0  0  0  0  0  0  0  0  0  0
    3.5515  -10.6722   -1.7771 C   0  0  0  0  0  0  0  0  0  0  0  0
    3.2030   -9.3913   -2.2600 C   0  0  0  0  0  0  0  0  0  0  0  0
    4.6145  -10.7985   -0.9334 F   0  0  0  0  0  0  0  0  0  0  0  0
    0.3048   -7.5524   -2.9775 C   0  0  0  0  0  0  0  0  0  0  0  0
   -0.3905   -7.8794   -1.4623 S   0  0  0  0  0  0  0  0  0  0  0  0
    3.4388   -7.2662   -4.9911 C   0  0  0  0  0  0  0  0  0  0  0  0
    3.8015   -6.0628   -5.7248 C   0  0  0  0  0  0  0  0  0  0  0  0
    2.4100   -5.1676   -6.0768 S   0  0  0  0  0  0  0  0  0  0  0  0
    5.1983   -5.4645   -5.8140 C   0  0  0  0  0  0  0  0  0  0  0  0
    5.5640   -4.2144   -6.4124 C   0  0  0  0  0  0  0  0  0  0  0  0
    6.8281   -3.7055   -6.0133 C   0  0  0  0  0  0  0  0  0  0  0  0
    7.3781   -2.4209   -6.2817 C   0  0  0  0  0  0  0  0  0  0  0  0
    6.4815   -1.4330   -6.9263 C   0  0  0  0  0  0  0  0  0  0  0  0
    6.0112   -0.3826   -6.1699 C   0  0  0  0  0  0  0  0  0  0  0  0
    5.3578    0.6751   -6.7630 C   0  0  0  0  0  0  0  0  0  0  0  0
    5.0826    0.6547   -8.1622 C   0  0  0  0  0  0  0  0  0  0  0  0
    4.1751    2.0189   -8.9961 S   0  0  0  0  0  0  0  0  0  0  0  0
    3.6815    3.0200   -7.5090 C   0  0  0  0  0  0  0  0  0  0  0  0
    4.8427    3.8477   -6.9324 C   0  0  0  0  0  0  0  0  0  0  0  0
    5.5663   -0.4395   -8.9271 C   0  0  0  0  0  0  0  0  0  0  0  0
    5.3480   -0.4948  -10.2758 F   0  0  0  0  0  0  0  0  0  0  0  0
    6.2609   -1.5034   -8.3220 C   0  0  0  0  0  0  0  0  0  0  0  0
    8.5417   -2.0474   -5.6123 C   0  0  0  0  0  0  0  0  0  0  0  0
    9.1590   -2.8632   -4.6417 C   0  0  0  0  0  0  0  0  0  0  0  0
    8.6364   -4.1674   -4.3650 C   0  0  0  0  0  0  0  0  0  0  0  0
    8.8614   -4.6822   -2.9896 C   0  0  0  0  0  0  0  0  0  0  0  0
    7.7916   -4.7603   -2.1191 C   0  0  0  0  0  0  0  0  0  0  0  0
    7.8711   -5.3629   -0.9013 C   0  0  0  0  0  0  0  0  0  0  0  0
    9.1964   -5.5369   -0.3528 C   0  0  0  0  0  0  0  0  0  0  0  0
    9.3349   -6.0779    1.3917 S   0  0  0  0  0  0  0  0  0  0  0  0
    7.7999   -5.2644    2.0559 C   0  0  0  0  0  0  0  0  0  0  0  0
    7.7121   -3.7275    1.8667 C   0  0  0  0  0  0  0  0  0  0  0  0
   10.3053   -5.4388   -1.2033 C   0  0  0  0  0  0  0  0  0  0  0  0
   10.2170   -5.0148   -2.5511 C   0  0  0  0  0  0  0  0  0  0  0  0
   11.5531   -5.7596   -0.7356 F   0  0  0  0  0  0  0  0  0  0  0  0
    7.5006   -4.5899   -5.1185 C   0  0  0  0  0  0  0  0  0  0  0  0
    6.4748   -5.9646   -4.8392 S   0  0  0  0  0  0  0  0  0  0  0  0
   10.1980   -2.1805   -4.0164 C   0  0  0  0  0  0  0  0  0  0  0  0
   10.4304   -0.8877   -4.5291 C   0  0  0  0  0  0  0  0  0  0  0  0
    9.3063   -0.4973   -5.7067 S   0  0  0  0  0  0  0  0  0  0  0  0
    3.4704   10.3733   -1.6993 H   0  0  0  0  0  0  0  0  0  0  0  0
    1.8763    8.4063   -2.1199 H   0  0  0  0  0  0  0  0  0  0  0  0
   -2.0995    7.1287   -0.3501 H   0  0  0  0  0  0  0  0  0  0  0  0
   -3.2584    6.0397   -2.1740 H   0  0  0  0  0  0  0  0  0  0  0  0
   -3.3462    6.7606   -5.0531 H   0  0  0  0  0  0  0  0  0  0  0  0
   -3.1210    5.7455   -6.4824 H   0  0  0  0  0  0  0  0  0  0  0  0
   -0.5720    6.9418   -5.3301 H   0  0  0  0  0  0  0  0  0  0  0  0
   -1.7040    8.0045   -6.1801 H   0  0  0  0  0  0  0  0  0  0  0  0
   -1.0111    6.5531   -7.0146 H   0  0  0  0  0  0  0  0  0  0  0  0
    1.9263    6.0948   -1.8783 H   0  0  0  0  0  0  0  0  0  0  0  0
    3.4036    8.8046    4.2678 H   0  0  0  0  0  0  0  0  0  0  0  0
    4.2029   10.7514    5.5976 H   0  0  0  0  0  0  0  0  0  0  0  0
    4.2918   15.4763    4.8423 H   0  0  0  0  0  0  0  0  0  0  0  0
    3.3972   14.6216    3.5514 H   0  0  0  0  0  0  0  0  0  0  0  0
    5.7228   13.0342    4.7150 H   0  0  0  0  0  0  0  0  0  0  0  0
    6.2095   14.6272    3.9952 H   0  0  0  0  0  0  0  0  0  0  0  0
    5.3102   13.3940    2.9805 H   0  0  0  0  0  0  0  0  0  0  0  0
    0.0173   11.1674    2.8502 H   0  0  0  0  0  0  0  0  0  0  0  0
   -0.1619    7.9636    4.8206 H   0  0  0  0  0  0  0  0  0  0  0  0
    0.9387    7.5698    7.4535 H   0  0  0  0  0  0  0  0  0  0  0  0
    1.8501    6.0874    6.7725 H   0  0  0  0  0  0  0  0  0  0  0  0
    2.4959    7.9146    9.1707 H   0  0  0  0  0  0  0  0  0  0  0  0
    3.3439    7.7099    7.5691 H   0  0  0  0  0  0  0  0  0  0  0  0
    3.4034    6.3363    8.7360 H   0  0  0  0  0  0  0  0  0  0  0  0
   -0.5802    4.5990   10.4589 H   0  0  0  0  0  0  0  0  0  0  0  0
   -0.0475    3.0471    9.7189 H   0  0  0  0  0  0  0  0  0  0  0  0
   -1.9810    2.1140   10.4749 H   0  0  0  0  0  0  0  0  0  0  0  0
   -2.9786    3.4559   10.1495 H   0  0  0  0  0  0  0  0  0  0  0  0
  -10.6357    4.1297    7.0068 H   0  0  0  0  0  0  0  0  0  0  0  0
   -9.2780    3.5884    8.2412 H   0  0  0  0  0  0  0  0  0  0  0  0
  -11.2356    1.5507    6.8225 H   0  0  0  0  0  0  0  0  0  0  0  0
   -9.9691    1.2953    8.1886 H   0  0  0  0  0  0  0  0  0  0  0  0
  -11.4601    2.1624    8.5495 H   0  0  0  0  0  0  0  0  0  0  0  0
   -9.9508    0.5800    5.0765 H   0  0  0  0  0  0  0  0  0  0  0  0
   -9.7625   -0.1153    6.7522 H   0  0  0  0  0  0  0  0  0  0  0  0
   -8.3957   -1.3332    4.3640 H   0  0  0  0  0  0  0  0  0  0  0  0
   -9.8516   -1.7268    4.9535 H   0  0  0  0  0  0  0  0  0  0  0  0
   -2.3519   -0.6199    3.6652 H   0  0  0  0  0  0  0  0  0  0  0  0
   -2.7444   -0.8743    0.3703 H   0  0  0  0  0  0  0  0  0  0  0  0
   -1.2171    0.4664   -1.0490 H   0  0  0  0  0  0  0  0  0  0  0  0
    1.7098    0.6521   -3.5925 H   0  0  0  0  0  0  0  0  0  0  0  0
    0.3431   -0.4285   -3.1459 H   0  0  0  0  0  0  0  0  0  0  0  0
    0.3244    2.4385   -3.6622 H   0  0  0  0  0  0  0  0  0  0  0  0
    0.0965    2.3101   -1.8680 H   0  0  0  0  0  0  0  0  0  0  0  0
   -1.0267    1.4476   -2.9807 H   0  0  0  0  0  0  0  0  0  0  0  0
    0.5964   -2.8600    2.4064 H   0  0  0  0  0  0  0  0  0  0  0  0
   -4.1521   -6.2705    4.3910 H   0  0  0  0  0  0  0  0  0  0  0  0
   -5.8760   -7.6929    5.1624 H   0  0  0  0  0  0  0  0  0  0  0  0
   -7.2809   -9.2509    5.9669 H   0  0  0  0  0  0  0  0  0  0  0  0
   -8.9485   -9.3351    6.4498 H   0  0  0  0  0  0  0  0  0  0  0  0
   -7.1370   -7.5693    7.6019 H   0  0  0  0  0  0  0  0  0  0  0  0
   -7.9319   -6.4935    6.4074 H   0  0  0  0  0  0  0  0  0  0  0  0
   -8.9605   -7.3795    7.6232 H   0  0  0  0  0  0  0  0  0  0  0  0
   -6.7871   -4.9302    1.1511 H   0  0  0  0  0  0  0  0  0  0  0  0
   -4.0614   -6.8211    0.3701 H   0  0  0  0  0  0  0  0  0  0  0  0
   -2.2798   -5.4015   -3.1161 H   0  0  0  0  0  0  0  0  0  0  0  0
   -1.4020   -5.9630   -7.0492 H   0  0  0  0  0  0  0  0  0  0  0  0
   -3.1743   -4.3452   -7.6692 H   0  0  0  0  0  0  0  0  0  0  0  0
   -4.3684   -1.3386   -3.9627 H   0  0  0  0  0  0  0  0  0  0  0  0
   -3.4647   -0.0489   -4.9360 H   0  0  0  0  0  0  0  0  0  0  0  0
   -6.4946   -0.6951   -4.9544 H   0  0  0  0  0  0  0  0  0  0  0  0
   -5.6677    0.7745   -4.2043 H   0  0  0  0  0  0  0  0  0  0  0  0
   -5.6639    0.5287   -6.0121 H   0  0  0  0  0  0  0  0  0  0  0  0
   -0.3833   -3.5722   -3.5839 H   0  0  0  0  0  0  0  0  0  0  0  0
    0.5110  -10.2611   -4.2595 H   0  0  0  0  0  0  0  0  0  0  0  0
    1.1358  -12.3929   -3.5738 H   0  0  0  0  0  0  0  0  0  0  0  0
    2.2150  -15.6005   -2.1259 H   0  0  0  0  0  0  0  0  0  0  0  0
    1.8999  -14.4780   -3.4338 H   0  0  0  0  0  0  0  0  0  0  0  0
    0.5161  -13.3277   -1.1528 H   0  0  0  0  0  0  0  0  0  0  0  0
   -0.2384  -14.3047   -2.4558 H   0  0  0  0  0  0  0  0  0  0  0  0
    0.3172  -15.1068   -0.9306 H   0  0  0  0  0  0  0  0  0  0  0  0
    3.7443   -8.4756   -1.8768 H   0  0  0  0  0  0  0  0  0  0  0  0
    4.2227   -7.9356   -4.5912 H   0  0  0  0  0  0  0  0  0  0  0  0
    4.8664   -3.7605   -7.0533 H   0  0  0  0  0  0  0  0  0  0  0  0
    6.2545   -0.3510   -5.0926 H   0  0  0  0  0  0  0  0  0  0  0  0
    5.1014    1.4215   -6.0287 H   0  0  0  0  0  0  0  0  0  0  0  0
    3.1869    2.4011   -6.6874 H   0  0  0  0  0  0  0  0  0  0  0  0
    2.8700    3.6994   -7.8015 H   0  0  0  0  0  0  0  0  0  0  0  0
    4.8676    3.7831   -5.8059 H   0  0  0  0  0  0  0  0  0  0  0  0
    4.7313    4.9335   -7.2123 H   0  0  0  0  0  0  0  0  0  0  0  0
    5.8279    3.4908   -7.2989 H   0  0  0  0  0  0  0  0  0  0  0  0
    6.6838   -2.3388   -8.9382 H   0  0  0  0  0  0  0  0  0  0  0  0
    6.7968   -4.4534   -2.4085 H   0  0  0  0  0  0  0  0  0  0  0  0
    6.8905   -5.3973   -0.4332 H   0  0  0  0  0  0  0  0  0  0  0  0
    7.7415   -5.4873    3.1140 H   0  0  0  0  0  0  0  0  0  0  0  0
    6.8646   -5.7895    1.7018 H   0  0  0  0  0  0  0  0  0  0  0  0
    7.5348   -3.4760    0.7928 H   0  0  0  0  0  0  0  0  0  0  0  0
    8.6679   -3.3022    2.1901 H   0  0  0  0  0  0  0  0  0  0  0  0
    6.8545   -3.3286    2.4415 H   0  0  0  0  0  0  0  0  0  0  0  0
   11.1367   -4.9112   -3.2447 H   0  0  0  0  0  0  0  0  0  0  0  0
   10.8378   -2.5678   -3.2319 H   0  0  0  0  0  0  0  0  0  0  0  0
   11.2249   -0.2040   -4.2350 H   0  0  0  0  0  0  0  0  0  0  0  0
  1  2  2  0
  2  3  1  0
  3  4  2  0
  4  5  1  0
  5  6  2  0
  6  7  1  0
  7  8  2  0
  8  9  1  0
  9 10  1  0
 10 11  1  0
  8 12  1  0
 12 13  1  0
 12 14  2  0
  4 15  1  0
 15 16  2  0
 16 17  1  0
 17 18  1  0
 18 19  2  0
 19 20  1  0
 20 21  2  0
 21 22  1  0
 22 23  1  0
 23 24  1  0
 21 25  1  0
 25 26  2  0
 25 27  1  0
 17 28  2  0
 28 29  1  0
 16 30  1  0
 30 31  2  0
 31 32  1  0
 31 33  1  0
 33 34  1  0
 34 35  1  0
 35 36  2  0
 36 37  1  0
 37 38  1  0
 38 39  2  0
 39 40  1  0
 40 41  1  0
 41 42  1  0
 39 43  1  0
 43 44  1  0
 44 45  1  0
 43 46  2  0
 35 47  1  0
 47 48  1  0
 48 49  1  0
 49 50  2  0
 50 51  1  0
 51 52  1  0
 52 53  2  0
 53 54  1  0
 54 55  1  0
 55 56  1  0
 53 57  1  0
 57 58  1  0
 58 59  1  0
 57 60  2  0
 49 61  1  0
 61 62  2  0
 62 63  1  0
 63 64  2  0
 64 65  1  0
 65 66  2  0
 66 67  1  0
 67 68  2  0
 68 69  1  0
 69 70  1  0
 70 71  1  0
 68 72  1  0
 72 73  1  0
 72 74  2  0
 64 75  1  0
 75 76  2  0
 76 77  1  0
 77 78  1  0
 78 79  2  0
 79 80  1  0
 80 81  2  0
 81 82  1  0
 82 83  1  0
 83 84  1  0
 81 85  1  0
 85 86  2  0
 85 87  1  0
 77 88  2  0
 88 89  1  0
 76 90  1  0
 90 91  2  0
 91 92  1  0
 91 93  1  0
 93 94  2  0
 94 95  1  0
 95 96  2  0
 96 97  1  0
 97 98  2  0
 98 99  1  0
 99100  2  0
100101  1  0
101102  1  0
102103  1  0
100104  1  0
104105  1  0
104106  2  0
 96107  1  0
107108  2  0
108109  1  0
109110  1  0
110111  2  0
111112  1  0
112113  2  0
113114  1  0
114115  1  0
115116  1  0
113117  1  0
117118  2  0
117119  1  0
109120  2  0
120121  1  0
108122  1  0
122123  2  0
123124  1  0
123125  1  0
125126  2  0
126127  1  0
127128  2  0
128129  1  0
129130  2  0
130131  1  0
131132  2  0
132133  1  0
133134  1  0
134135  1  0
132136  1  0
136137  1  0
136138  2  0
128139  1  0
139140  2  0
140141  1  0
141142  1  0
142143  2  0
143144  1  0
144145  2  0
145146  1  0
146147  1  0
147148  1  0
145149  1  0
149150  2  0
149151  1  0
141152  2  0
152153  1  0
140154  1  0
154155  2  0
155156  1  0
 29  1  1  0
 37 33  2  0
 51 47  2  0
 89 61  1  0
121 93  1  0
153125  1  0
 28  3  1  0
 46 36  1  0
 60 50  1  0
 88 63  1  0
120 95  1  0
152127  1  0
 14  5  1  0
 32 15  1  0
 74 65  1  0
 92 75  1  0
106 97  1  0
124107  1  0
138129  1  0
156139  1  0
 26 18  1  0
 86 78  1  0
118110  1  0
150142  1  0
  1157  1  0
  2158  1  0
  6159  1  0
  7160  1  0
 10161  1  0
 10162  1  0
 11163  1  0
 11164  1  0
 11165  1  0
 14166  1  0
 19167  1  0
 20168  1  0
 23169  1  0
 23170  1  0
 24171  1  0
 24172  1  0
 24173  1  0
 26174  1  0
 30175  1  0
 41176  1  0
 41177  1  0
 42178  1  0
 42179  1  0
 42180  1  0
 44181  1  0
 44182  1  0
 45183  1  0
 45184  1  0
 55185  1  0
 55186  1  0
 56187  1  0
 56188  1  0
 56189  1  0
 58190  1  0
 58191  1  0
 59192  1  0
 59193  1  0
 62194  1  0
 66195  1  0
 67196  1  0
 70197  1  0
 70198  1  0
 71199  1  0
 71200  1  0
 71201  1  0
 74202  1  0
 79203  1  0
 80204  1  0
 83205  1  0
 83206  1  0
 84207  1  0
 84208  1  0
 84209  1  0
 86210  1  0
 90211  1  0
 94212  1  0
 98213  1  0
 99214  1  0
102215  1  0
102216  1  0
103217  1  0
103218  1  0
103219  1  0
106220  1  0
111221  1  0
112222  1  0
115223  1  0
115224  1  0
116225  1  0
116226  1  0
116227  1  0
118228  1  0
122229  1  0
126230  1  0
130231  1  0
131232  1  0
134233  1  0
134234  1  0
135235  1  0
135236  1  0
135237  1  0
138238  1  0
143239  1  0
144240  1  0
147241  1  0
147242  1  0
148243  1  0
148244  1  0
148245  1  0
150246  1  0
154247  1  0
155248  1  0
M  END

