
     RDKit          3D

194211  0  0  0  0  0  0  0  0999 V2000
   -6.0587   -7.3671    2.8179 C   0  0  0  0  0  0  0  0  0  0  0  0
   -4.4824   -7.4208    3.4008 S   0  0  0  0  0  0  0  0  0  0  0  0
   -4.2105   -5.7515    3.5029 C   0  0  0  0  0  0  0  0  0  0  0  0
   -5.3794   -5.1311    3.0629 C   0  0  0  0  0  0  0  0  0  0  0  0
   -6.3907   -6.0276    2.7050 C   0  0  0  0  0  0  0  0  0  0  0  0
   -7.6072   -5.5768    2.3263 N   0  0  0  0  0  0  0  0  0  0  0  0
   -7.8609   -4.2385    2.2837 C   0  0  0  0  0  0  0  0  0  0  0  0
   -9.1347   -3.7741    1.9323 O   0  0  0  0  0  0  0  0  0  0  0  0
  -10.1720   -4.6240    1.4501 C   0  0  0  0  0  0  0  0  0  0  0  0
   -9.9538   -4.9440   -0.0241 C   0  0  0  0  0  0  0  0  0  0  0  0
   -6.8320   -3.3221    2.6194 C   0  0  0  0  0  0  0  0  0  0  0  0
   -7.0717   -1.8370    2.5840 C   0  0  0  0  0  0  0  0  0  0  0  0
   -7.2783   -1.3844    1.2129 N   0  0  0  0  0  0  0  0  0  0  0  0
   -5.6075   -3.7940    3.0112 N   0  0  0  0  0  0  0  0  0  0  0  0
   -2.9585   -5.1261    3.9831 C   0  0  0  0  0  0  0  0  0  0  0  0
   -2.4139   -3.5576    3.6516 S   0  0  0  0  0  0  0  0  0  0  0  0
   -0.9090   -3.6919    4.4168 C   0  0  0  0  0  0  0  0  0  0  0  0
   -0.8183   -4.9766    4.9280 C   0  0  0  0  0  0  0  0  0  0  0  0
   -1.9497   -5.7596    4.7044 C   0  0  0  0  0  0  0  0  0  0  0  0
   -2.0067   -7.0221    5.1911 N   0  0  0  0  0  0  0  0  0  0  0  0
   -0.9601   -7.5394    5.8975 C   0  0  0  0  0  0  0  0  0  0  0  0
   -1.0463   -8.8269    6.4434 O   0  0  0  0  0  0  0  0  0  0  0  0
   -2.2165   -9.6403    6.3621 C   0  0  0  0  0  0  0  0  0  0  0  0
   -3.3017   -9.1349    7.3117 C   0  0  0  0  0  0  0  0  0  0  0  0
    0.2086   -6.7641    6.0804 C   0  0  0  0  0  0  0  0  0  0  0  0
    1.3705   -7.3126    6.8728 C   0  0  0  0  0  0  0  0  0  0  0  0
    2.6271   -6.6224    6.5742 N   0  0  0  0  0  0  0  0  0  0  0  0
    0.2445   -5.4832    5.5997 N   0  0  0  0  0  0  0  0  0  0  0  0
    0.1647   -2.6980    4.3537 C   0  0  0  0  0  0  0  0  0  0  0  0
    0.1331   -1.1791    5.0912 S   0  0  0  0  0  0  0  0  0  0  0  0
    1.4283   -0.5006    4.2425 C   0  0  0  0  0  0  0  0  0  0  0  0
    1.8547   -1.4564    3.3262 C   0  0  0  0  0  0  0  0  0  0  0  0
    1.1672   -2.6681    3.3962 C   0  0  0  0  0  0  0  0  0  0  0  0
    1.4216   -3.6498    2.4970 N   0  0  0  0  0  0  0  0  0  0  0  0
    2.3601   -3.4634    1.5215 C   0  0  0  0  0  0  0  0  0  0  0  0
    2.6397   -4.4915    0.6146 O   0  0  0  0  0  0  0  0  0  0  0  0
    1.9991   -5.7630    0.6647 C   0  0  0  0  0  0  0  0  0  0  0  0
    2.5507   -6.6560   -0.4362 C   0  0  0  0  0  0  0  0  0  0  0  0
    3.0356   -2.2203    1.4288 C   0  0  0  0  0  0  0  0  0  0  0  0
    4.0631   -1.9539    0.3624 C   0  0  0  0  0  0  0  0  0  0  0  0
    3.7584   -0.7045   -0.3344 N   0  0  0  0  0  0  0  0  0  0  0  0
    2.7672   -1.2456    2.3455 N   0  0  0  0  0  0  0  0  0  0  0  0
    1.6489    0.9438    4.1109 C   0  0  0  0  0  0  0  0  0  0  0  0
    1.3793    1.7908    2.6853 S   0  0  0  0  0  0  0  0  0  0  0  0
    1.4411    3.3453    3.3315 C   0  0  0  0  0  0  0  0  0  0  0  0
    1.6699    3.2174    4.6938 C   0  0  0  0  0  0  0  0  0  0  0  0
    1.7818    1.8902    5.1260 C   0  0  0  0  0  0  0  0  0  0  0  0
    2.0277    1.6189    6.4296 N   0  0  0  0  0  0  0  0  0  0  0  0
    2.1750    2.6411    7.3252 C   0  0  0  0  0  0  0  0  0  0  0  0
    2.4920    2.3691    8.6634 O   0  0  0  0  0  0  0  0  0  0  0  0
    2.7714    1.0592    9.1590 C   0  0  0  0  0  0  0  0  0  0  0  0
    4.1547    0.5954    8.7169 C   0  0  0  0  0  0  0  0  0  0  0  0
    2.0200    3.9826    6.8945 C   0  0  0  0  0  0  0  0  0  0  0  0
    2.2390    5.1262    7.8493 C   0  0  0  0  0  0  0  0  0  0  0  0
    1.6471    6.3579    7.3339 N   0  0  0  0  0  0  0  0  0  0  0  0
    1.7744    4.2403    5.5753 N   0  0  0  0  0  0  0  0  0  0  0  0
    0.9624    4.5156    2.5991 C   0  0  0  0  0  0  0  0  0  0  0  0
    1.7068    5.0438    1.5470 C   0  0  0  0  0  0  0  0  0  0  0  0
    0.9288    5.4042    0.4341 C   0  0  0  0  0  0  0  0  0  0  0  0
    1.4394    5.6856   -0.8519 C   0  0  0  0  0  0  0  0  0  0  0  0
    2.8660    6.0316   -1.0485 C   0  0  0  0  0  0  0  0  0  0  0  0
    3.7003    5.2588   -1.8734 C   0  0  0  0  0  0  0  0  0  0  0  0
    5.0341    5.6326   -2.0695 C   0  0  0  0  0  0  0  0  0  0  0  0
    5.5506    6.7643   -1.4312 C   0  0  0  0  0  0  0  0  0  0  0  0
    7.2575    7.2532   -1.7094 S   0  0  0  0  0  0  0  0  0  0  0  0
    6.8615    8.4807   -3.0060 C   0  0  0  0  0  0  0  0  0  0  0  0
    6.6083    7.8026   -4.3468 C   0  0  0  0  0  0  0  0  0  0  0  0
    4.7364    7.5069   -0.5643 C   0  0  0  0  0  0  0  0  0  0  0  0
    5.2340    8.5840    0.0914 F   0  0  0  0  0  0  0  0  0  0  0  0
    3.3994    7.1429   -0.3806 C   0  0  0  0  0  0  0  0  0  0  0  0
    0.5386    5.5554   -1.9279 C   0  0  0  0  0  0  0  0  0  0  0  0
   -0.8144    5.2539   -1.7406 C   0  0  0  0  0  0  0  0  0  0  0  0
   -1.3490    5.1184   -0.4429 C   0  0  0  0  0  0  0  0  0  0  0  0
   -2.7393    4.6671   -0.2339 C   0  0  0  0  0  0  0  0  0  0  0  0
   -3.0135    3.3286    0.0772 C   0  0  0  0  0  0  0  0  0  0  0  0
   -4.3335    2.8950    0.2156 C   0  0  0  0  0  0  0  0  0  0  0  0
   -5.3918    3.7889    0.0201 C   0  0  0  0  0  0  0  0  0  0  0  0
   -7.0843    3.1976    0.1199 S   0  0  0  0  0  0  0  0  0  0  0  0
   -7.1332    2.5734   -1.5985 C   0  0  0  0  0  0  0  0  0  0  0  0
   -7.5042    3.6811   -2.5756 C   0  0  0  0  0  0  0  0  0  0  0  0
   -5.1223    5.1339   -0.2682 C   0  0  0  0  0  0  0  0  0  0  0  0
   -3.7996    5.5736   -0.3939 C   0  0  0  0  0  0  0  0  0  0  0  0
   -6.1364    6.0190   -0.4326 F   0  0  0  0  0  0  0  0  0  0  0  0
   -0.4367    5.1745    0.6229 C   0  0  0  0  0  0  0  0  0  0  0  0
   -0.6650    4.5738    2.1681 S   0  0  0  0  0  0  0  0  0  0  0  0
   -1.4652    4.8656   -2.9200 C   0  0  0  0  0  0  0  0  0  0  0  0
   -0.6190    4.7901   -4.0250 C   0  0  0  0  0  0  0  0  0  0  0  0
    0.9110    5.3277   -3.5550 S   0  0  0  0  0  0  0  0  0  0  0  0
   -0.8242    3.8162   -5.1087 C   0  0  0  0  0  0  0  0  0  0  0  0
    0.0647    3.5541   -6.1533 C   0  0  0  0  0  0  0  0  0  0  0  0
   -0.1430    2.2957   -6.7590 C   0  0  0  0  0  0  0  0  0  0  0  0
    0.6798    1.6952   -7.7383 C   0  0  0  0  0  0  0  0  0  0  0  0
    1.8483    2.4015   -8.3120 C   0  0  0  0  0  0  0  0  0  0  0  0
    3.1423    1.8880   -8.1266 C   0  0  0  0  0  0  0  0  0  0  0  0
    4.2517    2.5925   -8.6021 C   0  0  0  0  0  0  0  0  0  0  0  0
    4.0829    3.8226   -9.2464 C   0  0  0  0  0  0  0  0  0  0  0  0
    5.5171    4.7531   -9.7952 S   0  0  0  0  0  0  0  0  0  0  0  0
    5.6606    5.7380   -8.2605 C   0  0  0  0  0  0  0  0  0  0  0  0
    6.4801    4.9949   -7.2150 C   0  0  0  0  0  0  0  0  0  0  0  0
    2.7924    4.3275   -9.4527 C   0  0  0  0  0  0  0  0  0  0  0  0
    2.6159    5.5182  -10.0761 F   0  0  0  0  0  0  0  0  0  0  0  0
    1.6793    3.6200   -8.9884 C   0  0  0  0  0  0  0  0  0  0  0  0
    0.3936    0.3580   -8.0692 C   0  0  0  0  0  0  0  0  0  0  0  0
   -0.6142   -0.3809   -7.4388 C   0  0  0  0  0  0  0  0  0  0  0  0
   -1.4164    0.2078   -6.4397 C   0  0  0  0  0  0  0  0  0  0  0  0
   -2.2706   -0.5928   -5.5267 C   0  0  0  0  0  0  0  0  0  0  0  0
   -1.6965   -1.6325   -4.7768 C   0  0  0  0  0  0  0  0  0  0  0  0
   -2.3898   -2.1987   -3.7056 C   0  0  0  0  0  0  0  0  0  0  0  0
   -3.6531   -1.7103   -3.3524 C   0  0  0  0  0  0  0  0  0  0  0  0
   -4.4245   -2.2587   -1.8278 S   0  0  0  0  0  0  0  0  0  0  0  0
   -3.3716   -1.1878   -0.7870 C   0  0  0  0  0  0  0  0  0  0  0  0
   -3.8674   -1.1855    0.6493 C   0  0  0  0  0  0  0  0  0  0  0  0
   -4.2662   -0.7263   -4.1385 C   0  0  0  0  0  0  0  0  0  0  0  0
   -3.5826   -0.1803   -5.2298 C   0  0  0  0  0  0  0  0  0  0  0  0
   -5.4956   -0.2563   -3.8161 F   0  0  0  0  0  0  0  0  0  0  0  0
   -1.1816    1.5686   -6.1668 C   0  0  0  0  0  0  0  0  0  0  0  0
   -1.8454    2.4889   -4.9311 S   0  0  0  0  0  0  0  0  0  0  0  0
   -0.6898   -1.7097   -7.8896 C   0  0  0  0  0  0  0  0  0  0  0  0
    0.2513   -2.0121   -8.8682 C   0  0  0  0  0  0  0  0  0  0  0  0
    1.1784   -0.6377   -9.1783 S   0  0  0  0  0  0  0  0  0  0  0  0
   -6.6935   -8.2125    2.6055 H   0  0  0  0  0  0  0  0  0  0  0  0
  -10.2212   -5.5589    2.0524 H   0  0  0  0  0  0  0  0  0  0  0  0
  -11.1449   -4.0972    1.5647 H   0  0  0  0  0  0  0  0  0  0  0  0
  -10.6498   -5.7477   -0.3403 H   0  0  0  0  0  0  0  0  0  0  0  0
   -8.9110   -5.2766   -0.2006 H   0  0  0  0  0  0  0  0  0  0  0  0
  -10.1584   -4.0392   -0.6319 H   0  0  0  0  0  0  0  0  0  0  0  0
   -7.9587   -1.5890    3.2111 H   0  0  0  0  0  0  0  0  0  0  0  0
   -6.1937   -1.3085    3.0166 H   0  0  0  0  0  0  0  0  0  0  0  0
   -8.2346   -1.6641    0.8999 H   0  0  0  0  0  0  0  0  0  0  0  0
   -7.2768   -0.3363    1.2228 H   0  0  0  0  0  0  0  0  0  0  0  0
   -1.9476  -10.6764    6.6562 H   0  0  0  0  0  0  0  0  0  0  0  0
   -2.6050   -9.6672    5.3193 H   0  0  0  0  0  0  0  0  0  0  0  0
   -4.1665   -9.8284    7.2944 H   0  0  0  0  0  0  0  0  0  0  0  0
   -2.9068   -9.0877    8.3513 H   0  0  0  0  0  0  0  0  0  0  0  0
   -3.6542   -8.1222    7.0126 H   0  0  0  0  0  0  0  0  0  0  0  0
    1.1485   -7.2146    7.9591 H   0  0  0  0  0  0  0  0  0  0  0  0
    1.5076   -8.3943    6.6489 H   0  0  0  0  0  0  0  0  0  0  0  0
    2.7992   -6.6531    5.5424 H   0  0  0  0  0  0  0  0  0  0  0  0
    2.5480   -5.6225    6.8706 H   0  0  0  0  0  0  0  0  0  0  0  0
    0.9053   -5.6366    0.5213 H   0  0  0  0  0  0  0  0  0  0  0  0
    2.1880   -6.2429    1.6530 H   0  0  0  0  0  0  0  0  0  0  0  0
    3.6402   -6.8238   -0.2785 H   0  0  0  0  0  0  0  0  0  0  0  0
    2.3961   -6.1819   -1.4286 H   0  0  0  0  0  0  0  0  0  0  0  0
    2.0312   -7.6364   -0.4197 H   0  0  0  0  0  0  0  0  0  0  0  0
    4.0918   -2.7783   -0.3818 H   0  0  0  0  0  0  0  0  0  0  0  0
    5.0682   -1.8889    0.8344 H   0  0  0  0  0  0  0  0  0  0  0  0
    4.0211    0.0925    0.2888 H   0  0  0  0  0  0  0  0  0  0  0  0
    4.3861   -0.6408   -1.1684 H   0  0  0  0  0  0  0  0  0  0  0  0
    2.7457    1.0916   10.2675 H   0  0  0  0  0  0  0  0  0  0  0  0
    1.9983    0.3387    8.8151 H   0  0  0  0  0  0  0  0  0  0  0  0
    4.3638   -0.4127    9.1319 H   0  0  0  0  0  0  0  0  0  0  0  0
    4.2064    0.5372    7.6089 H   0  0  0  0  0  0  0  0  0  0  0  0
    4.9291    1.3060    9.0780 H   0  0  0  0  0  0  0  0  0  0  0  0
    1.7975    4.8895    8.8423 H   0  0  0  0  0  0  0  0  0  0  0  0
    3.3326    5.2708    7.9747 H   0  0  0  0  0  0  0  0  0  0  0  0
    1.9712    7.1455    7.9401 H   0  0  0  0  0  0  0  0  0  0  0  0
    0.6091    6.2958    7.4488 H   0  0  0  0  0  0  0  0  0  0  0  0
    2.7858    4.9612    1.5106 H   0  0  0  0  0  0  0  0  0  0  0  0
    3.3245    4.3690   -2.3613 H   0  0  0  0  0  0  0  0  0  0  0  0
    5.6631    5.0391   -2.7189 H   0  0  0  0  0  0  0  0  0  0  0  0
    7.7292    9.1643   -3.1125 H   0  0  0  0  0  0  0  0  0  0  0  0
    5.9783    9.0899   -2.7152 H   0  0  0  0  0  0  0  0  0  0  0  0
    5.6903    7.1810   -4.3031 H   0  0  0  0  0  0  0  0  0  0  0  0
    6.4701    8.5724   -5.1351 H   0  0  0  0  0  0  0  0  0  0  0  0
    7.4744    7.1641   -4.6181 H   0  0  0  0  0  0  0  0  0  0  0  0
    2.7732    7.7377    0.2764 H   0  0  0  0  0  0  0  0  0  0  0  0
   -2.2043    2.6147    0.1962 H   0  0  0  0  0  0  0  0  0  0  0  0
   -4.5354    1.8597    0.4528 H   0  0  0  0  0  0  0  0  0  0  0  0
   -7.8997    1.7735   -1.6562 H   0  0  0  0  0  0  0  0  0  0  0  0
   -6.1592    2.1265   -1.8863 H   0  0  0  0  0  0  0  0  0  0  0  0
   -7.5422    3.2697   -3.6067 H   0  0  0  0  0  0  0  0  0  0  0  0
   -8.5007    4.0993   -2.3193 H   0  0  0  0  0  0  0  0  0  0  0  0
   -6.7468    4.4904   -2.5518 H   0  0  0  0  0  0  0  0  0  0  0  0
   -3.5983    6.6123   -0.6232 H   0  0  0  0  0  0  0  0  0  0  0  0
   -2.4743    4.4697   -2.9279 H   0  0  0  0  0  0  0  0  0  0  0  0
    0.8934    4.2057   -6.3890 H   0  0  0  0  0  0  0  0  0  0  0  0
    3.2910    0.9564   -7.5967 H   0  0  0  0  0  0  0  0  0  0  0  0
    5.2449    2.1882   -8.4451 H   0  0  0  0  0  0  0  0  0  0  0  0
    4.6583    5.9851   -7.8494 H   0  0  0  0  0  0  0  0  0  0  0  0
    6.1729    6.6912   -8.5058 H   0  0  0  0  0  0  0  0  0  0  0  0
    6.6167    5.6378   -6.3241 H   0  0  0  0  0  0  0  0  0  0  0  0
    5.9619    4.0673   -6.8980 H   0  0  0  0  0  0  0  0  0  0  0  0
    7.4778    4.7334   -7.6240 H   0  0  0  0  0  0  0  0  0  0  0  0
    0.6887    4.0287   -9.1390 H   0  0  0  0  0  0  0  0  0  0  0  0
   -0.6793   -1.9519   -4.9692 H   0  0  0  0  0  0  0  0  0  0  0  0
   -1.9152   -2.9638   -3.1049 H   0  0  0  0  0  0  0  0  0  0  0  0
   -3.3869   -0.1459   -1.1753 H   0  0  0  0  0  0  0  0  0  0  0  0
   -2.3298   -1.5708   -0.8122 H   0  0  0  0  0  0  0  0  0  0  0  0
   -3.1413   -0.6471    1.2934 H   0  0  0  0  0  0  0  0  0  0  0  0
   -4.8382   -0.6559    0.7029 H   0  0  0  0  0  0  0  0  0  0  0  0
   -3.9837   -2.2229    1.0224 H   0  0  0  0  0  0  0  0  0  0  0  0
   -4.0435    0.6185   -5.7978 H   0  0  0  0  0  0  0  0  0  0  0  0
   -1.4077   -2.4341   -7.5226 H   0  0  0  0  0  0  0  0  0  0  0  0
    0.3694   -2.9741   -9.3489 H   0  0  0  0  0  0  0  0  0  0  0  0
  1  2  1  0
  2  3  1  0
  3  4  2  0
  4  5  1  0
  5  6  1  0
  6  7  2  0
  7  8  1  0
  8  9  1  0
  9 10  1  0
  7 11  1  0
 11 12  1  0
 12 13  1  0
 11 14  2  0
  3 15  1  0
 15 16  1  0
 16 17  1  0
 17 18  2  0
 18 19  1  0
 19 20  1  0
 20 21  2  0
 21 22  1  0
 22 23  1  0
 23 24  1  0
 21 25  1  0
 25 26  1  0
 26 27  1  0
 25 28  2  0
 17 29  1  0
 29 30  1  0
 30 31  1  0
 31 32  2  0
 32 33  1  0
 33 34  1  0
 34 35  2  0
 35 36  1  0
 36 37  1  0
 37 38  1  0
 35 39  1  0
 39 40  1  0
 40 41  1  0
 39 42  2  0
 31 43  1  0
 43 44  1  0
 44 45  1  0
 45 46  2  0
 46 47  1  0
 47 48  1  0
 48 49  2  0
 49 50  1  0
 50 51  1  0
 51 52  1  0
 49 53  1  0
 53 54  1  0
 54 55  1  0
 53 56  2  0
 45 57  1  0
 57 58  2  0
 58 59  1  0
 59 60  2  0
 60 61  1  0
 61 62  2  0
 62 63  1  0
 63 64  2  0
 64 65  1  0
 65 66  1  0
 66 67  1  0
 64 68  1  0
 68 69  1  0
 68 70  2  0
 60 71  1  0
 71 72  2  0
 72 73  1  0
 73 74  1  0
 74 75  2  0
 75 76  1  0
 76 77  2  0
 77 78  1  0
 78 79  1  0
 79 80  1  0
 77 81  1  0
 81 82  2  0
 81 83  1  0
 73 84  2  0
 84 85  1  0
 72 86  1  0
 86 87  2  0
 87 88  1  0
 87 89  1  0
 89 90  2  0
 90 91  1  0
 91 92  2  0
 92 93  1  0
 93 94  2  0
 94 95  1  0
 95 96  2  0
 96 97  1  0
 97 98  1  0
 98 99  1  0
 96100  1  0
100101  1  0
100102  2  0
 92103  1  0
103104  2  0
104105  1  0
105106  1  0
106107  2  0
107108  1  0
108109  2  0
109110  1  0
110111  1  0
111112  1  0
109113  1  0
113114  2  0
113115  1  0
105116  2  0
116117  1  0
104118  1  0
118119  2  0
119120  1  0
  5  1  2  0
 19 15  2  0
 33 29  2  0
 47 43  2  0
 85 57  1  0
117 89  1  0
 14  4  1  0
 28 18  1  0
 42 32  1  0
 56 46  1  0
 84 59  1  0
116 91  1  0
 70 61  1  0
 88 71  1  0
102 93  1  0
120103  1  0
 82 74  1  0
114106  1  0
  1121  1  0
  9122  1  0
  9123  1  0
 10124  1  0
 10125  1  0
 10126  1  0
 12127  1  0
 12128  1  0
 13129  1  0
 13130  1  0
 23131  1  0
 23132  1  0
 24133  1  0
 24134  1  0
 24135  1  0
 26136  1  0
 26137  1  0
 27138  1  0
 27139  1  0
 37140  1  0
 37141  1  0
 38142  1  0
 38143  1  0
 38144  1  0
 40145  1  0
 40146  1  0
 41147  1  0
 41148  1  0
 51149  1  0
 51150  1  0
 52151  1  0
 52152  1  0
 52153  1  0
 54154  1  0
 54155  1  0
 55156  1  0
 55157  1  0
 58158  1  0
 62159  1  0
 63160  1  0
 66161  1  0
 66162  1  0
 67163  1  0
 67164  1  0
 67165  1  0
 70166  1  0
 75167  1  0
 76168  1  0
 79169  1  0
 79170  1  0
 80171  1  0
 80172  1  0
 80173  1  0
 82174  1  0
 86175  1  0
 90176  1  0
 94177  1  0
 95178  1  0
 98179  1  0
 98180  1  0
 99181  1  0
 99182  1  0
 99183  1  0
102184  1  0
107185  1  0
108186  1  0
111187  1  0
111188  1  0
112189  1  0
112190  1  0
112191  1  0
114192  1  0
118193  1  0
119194  1  0
M  END

