
     RDKit          3D

248271  0  0  0  0  0  0  0  0999 V2000
   -0.1090    0.3797   14.0648 C   0  0  0  0  0  0  0  0  0  0  0  0
    0.4259   -0.1616   12.8997 C   0  0  0  0  0  0  0  0  0  0  0  0
   -0.5337   -0.3523   11.8904 C   0  0  0  0  0  0  0  0  0  0  0  0
   -0.2969   -0.8711   10.6049 C   0  0  0  0  0  0  0  0  0  0  0  0
    1.0558   -1.2426   10.1448 C   0  0  0  0  0  0  0  0  0  0  0  0
    2.0263   -0.2497    9.9300 C   0  0  0  0  0  0  0  0  0  0  0  0
    3.2922   -0.5943    9.4400 C   0  0  0  0  0  0  0  0  0  0  0  0
    3.6004   -1.9327    9.1681 C   0  0  0  0  0  0  0  0  0  0  0  0
    5.2140   -2.3751    8.5174 S   0  0  0  0  0  0  0  0  0  0  0  0
    6.0560   -2.3602   10.1396 C   0  0  0  0  0  0  0  0  0  0  0  0
    7.1141   -3.4529   10.1788 C   0  0  0  0  0  0  0  0  0  0  0  0
    2.6308   -2.9250    9.3782 C   0  0  0  0  0  0  0  0  0  0  0  0
    2.9077   -4.2230    9.1020 F   0  0  0  0  0  0  0  0  0  0  0  0
    1.3610   -2.5761    9.8500 C   0  0  0  0  0  0  0  0  0  0  0  0
   -1.4065   -0.9735    9.7473 C   0  0  0  0  0  0  0  0  0  0  0  0
   -2.6958   -0.5785   10.1231 C   0  0  0  0  0  0  0  0  0  0  0  0
   -2.9340   -0.0686   11.4183 C   0  0  0  0  0  0  0  0  0  0  0  0
   -4.2799    0.3614   11.8627 C   0  0  0  0  0  0  0  0  0  0  0  0
   -4.9130   -0.2967   12.9298 C   0  0  0  0  0  0  0  0  0  0  0  0
   -6.2000    0.0784   13.3267 C   0  0  0  0  0  0  0  0  0  0  0  0
   -6.8623    1.1259   12.6730 C   0  0  0  0  0  0  0  0  0  0  0  0
   -8.5547    1.5366   13.1289 S   0  0  0  0  0  0  0  0  0  0  0  0
   -8.1129    2.8526   14.3151 C   0  0  0  0  0  0  0  0  0  0  0  0
   -7.7244    2.2653   15.6666 C   0  0  0  0  0  0  0  0  0  0  0  0
   -6.2281    1.7977   11.6181 C   0  0  0  0  0  0  0  0  0  0  0  0
   -4.9446    1.4153   11.2145 C   0  0  0  0  0  0  0  0  0  0  0  0
   -6.8634    2.8054   10.9701 F   0  0  0  0  0  0  0  0  0  0  0  0
   -1.8235    0.0245   12.2765 C   0  0  0  0  0  0  0  0  0  0  0  0
   -1.7664    0.6093   13.8508 S   0  0  0  0  0  0  0  0  0  0  0  0
   -3.6440   -0.7326    9.0911 C   0  0  0  0  0  0  0  0  0  0  0  0
   -3.0868   -1.2367    7.9137 C   0  0  0  0  0  0  0  0  0  0  0  0
   -1.4366   -1.4969    8.1505 S   0  0  0  0  0  0  0  0  0  0  0  0
   -3.7696   -1.3523    6.6161 C   0  0  0  0  0  0  0  0  0  0  0  0
   -3.1698   -1.8074    5.4442 C   0  0  0  0  0  0  0  0  0  0  0  0
   -3.9434   -1.5618    4.3005 C   0  0  0  0  0  0  0  0  0  0  0  0
   -3.5440   -1.7848    2.9680 C   0  0  0  0  0  0  0  0  0  0  0  0
   -2.1968   -2.2813    2.6299 C   0  0  0  0  0  0  0  0  0  0  0  0
   -1.0799   -1.4420    2.7865 C   0  0  0  0  0  0  0  0  0  0  0  0
    0.1912   -1.8825    2.4060 C   0  0  0  0  0  0  0  0  0  0  0  0
    0.3618   -3.1685    1.8798 C   0  0  0  0  0  0  0  0  0  0  0  0
    1.9945   -3.7094    1.3570 S   0  0  0  0  0  0  0  0  0  0  0  0
    2.4692   -4.4196    2.9715 C   0  0  0  0  0  0  0  0  0  0  0  0
    3.1183   -3.3669    3.8647 C   0  0  0  0  0  0  0  0  0  0  0  0
   -0.7519   -4.0069    1.7168 C   0  0  0  0  0  0  0  0  0  0  0  0
   -0.6029   -5.2488    1.1946 F   0  0  0  0  0  0  0  0  0  0  0  0
   -2.0258   -3.5647    2.0873 C   0  0  0  0  0  0  0  0  0  0  0  0
   -4.3983   -1.3015    1.9637 C   0  0  0  0  0  0  0  0  0  0  0  0
   -5.5740   -0.6005    2.2445 C   0  0  0  0  0  0  0  0  0  0  0  0
   -6.0077   -0.4477    3.5746 C   0  0  0  0  0  0  0  0  0  0  0  0
   -7.2522    0.2668    3.9080 C   0  0  0  0  0  0  0  0  0  0  0  0
   -7.2897    1.6687    3.9012 C   0  0  0  0  0  0  0  0  0  0  0  0
   -8.4686    2.3384    4.2458 C   0  0  0  0  0  0  0  0  0  0  0  0
   -9.6132    1.6098    4.5986 C   0  0  0  0  0  0  0  0  0  0  0  0
  -11.1150    2.4723    5.0805 S   0  0  0  0  0  0  0  0  0  0  0  0
  -10.8054    2.3379    6.8765 C   0  0  0  0  0  0  0  0  0  0  0  0
   -9.8708    3.4425    7.3462 C   0  0  0  0  0  0  0  0  0  0  0  0
   -9.5842    0.2101    4.5760 C   0  0  0  0  0  0  0  0  0  0  0  0
   -8.4028   -0.4588    4.2398 C   0  0  0  0  0  0  0  0  0  0  0  0
  -10.6910   -0.5066    4.8975 F   0  0  0  0  0  0  0  0  0  0  0  0
   -5.1611   -0.9364    4.5825 C   0  0  0  0  0  0  0  0  0  0  0  0
   -5.2730   -0.6792    6.2404 S   0  0  0  0  0  0  0  0  0  0  0  0
   -6.1175    0.0554    1.1215 C   0  0  0  0  0  0  0  0  0  0  0  0
   -5.3645   -0.1357   -0.0397 C   0  0  0  0  0  0  0  0  0  0  0  0
   -4.0505   -1.1213    0.3345 S   0  0  0  0  0  0  0  0  0  0  0  0
   -5.2276    0.8802   -1.0816 C   0  0  0  0  0  0  0  0  0  0  0  0
   -4.5831    2.0812   -0.7881 C   0  0  0  0  0  0  0  0  0  0  0  0
   -3.8049    2.5829   -1.8456 C   0  0  0  0  0  0  0  0  0  0  0  0
   -2.7890    3.5553   -1.7146 C   0  0  0  0  0  0  0  0  0  0  0  0
   -2.6513    4.3382   -0.4634 C   0  0  0  0  0  0  0  0  0  0  0  0
   -3.7251    5.1375   -0.0291 C   0  0  0  0  0  0  0  0  0  0  0  0
   -3.7036    5.7206    1.2411 C   0  0  0  0  0  0  0  0  0  0  0  0
   -2.6079    5.5217    2.0856 C   0  0  0  0  0  0  0  0  0  0  0  0
   -2.6627    6.1319    3.7744 S   0  0  0  0  0  0  0  0  0  0  0  0
   -1.9737    7.7875    3.4202 C   0  0  0  0  0  0  0  0  0  0  0  0
   -3.0341    8.8524    3.6706 C   0  0  0  0  0  0  0  0  0  0  0  0
   -1.5156    4.7647    1.6432 C   0  0  0  0  0  0  0  0  0  0  0  0
   -0.4606    4.5442    2.4639 F   0  0  0  0  0  0  0  0  0  0  0  0
   -1.5391    4.1697    0.3747 C   0  0  0  0  0  0  0  0  0  0  0  0
   -1.8602    3.6409   -2.7709 C   0  0  0  0  0  0  0  0  0  0  0  0
   -1.9921    2.8892   -3.9447 C   0  0  0  0  0  0  0  0  0  0  0  0
   -3.0546    1.9765   -4.1021 C   0  0  0  0  0  0  0  0  0  0  0  0
   -3.1587    1.0876   -5.2786 C   0  0  0  0  0  0  0  0  0  0  0  0
   -4.2496    1.2036   -6.1507 C   0  0  0  0  0  0  0  0  0  0  0  0
   -4.3364    0.3898   -7.2845 C   0  0  0  0  0  0  0  0  0  0  0  0
   -3.3343   -0.5523   -7.5505 C   0  0  0  0  0  0  0  0  0  0  0  0
   -3.4345   -1.5698   -9.0245 S   0  0  0  0  0  0  0  0  0  0  0  0
   -2.4869   -0.3946  -10.0459 C   0  0  0  0  0  0  0  0  0  0  0  0
   -2.3527   -0.9273  -11.4643 C   0  0  0  0  0  0  0  0  0  0  0  0
   -2.2600   -0.6963   -6.6640 C   0  0  0  0  0  0  0  0  0  0  0  0
   -2.1733    0.1155   -5.5292 C   0  0  0  0  0  0  0  0  0  0  0  0
   -1.2912   -1.6156   -6.9018 F   0  0  0  0  0  0  0  0  0  0  0  0
   -3.9167    1.8174   -3.0084 C   0  0  0  0  0  0  0  0  0  0  0  0
   -4.8985    0.4863   -2.6852 S   0  0  0  0  0  0  0  0  0  0  0  0
   -0.8952    3.0061   -4.8061 C   0  0  0  0  0  0  0  0  0  0  0  0
    0.1567    3.7449   -4.2689 C   0  0  0  0  0  0  0  0  0  0  0  0
   -0.3347    4.3634   -2.7702 S   0  0  0  0  0  0  0  0  0  0  0  0
    1.5462    3.5856   -4.7429 C   0  0  0  0  0  0  0  0  0  0  0  0
    1.9430    2.6816   -6.1169 S   0  0  0  0  0  0  0  0  0  0  0  0
    3.5643    2.4164   -5.7776 C   0  0  0  0  0  0  0  0  0  0  0  0
    3.8211    3.0192   -4.5581 C   0  0  0  0  0  0  0  0  0  0  0  0
    2.7234    3.6819   -3.9924 C   0  0  0  0  0  0  0  0  0  0  0  0
    2.8483    4.2796   -2.7808 N   0  0  0  0  0  0  0  0  0  0  0  0
    4.0462    4.2521   -2.1215 C   0  0  0  0  0  0  0  0  0  0  0  0
    4.2109    4.9263   -0.9029 O   0  0  0  0  0  0  0  0  0  0  0  0
    3.1837    5.6835   -0.2713 C   0  0  0  0  0  0  0  0  0  0  0  0
    2.2472    4.7676    0.5028 C   0  0  0  0  0  0  0  0  0  0  0  0
    5.1411    3.5542   -2.6850 C   0  0  0  0  0  0  0  0  0  0  0  0
    6.4751    3.5316   -1.9851 C   0  0  0  0  0  0  0  0  0  0  0  0
    7.4159    2.6502   -2.6686 N   0  0  0  0  0  0  0  0  0  0  0  0
    5.0009    2.9526   -3.9008 N   0  0  0  0  0  0  0  0  0  0  0  0
    4.3301    1.3330   -6.3890 C   0  0  0  0  0  0  0  0  0  0  0  0
    4.3374   -0.2522   -5.8042 S   0  0  0  0  0  0  0  0  0  0  0  0
    4.8610   -1.0052   -7.2212 C   0  0  0  0  0  0  0  0  0  0  0  0
    5.0182   -0.0068   -8.1762 C   0  0  0  0  0  0  0  0  0  0  0  0
    4.7108    1.2743   -7.7196 C   0  0  0  0  0  0  0  0  0  0  0  0
    4.7670    2.3326   -8.5603 N   0  0  0  0  0  0  0  0  0  0  0  0
    5.1450    2.1542   -9.8603 C   0  0  0  0  0  0  0  0  0  0  0  0
    5.2142    3.2447  -10.7345 O   0  0  0  0  0  0  0  0  0  0  0  0
    4.8782    4.5763  -10.3519 C   0  0  0  0  0  0  0  0  0  0  0  0
    3.3635    4.7528  -10.2809 C   0  0  0  0  0  0  0  0  0  0  0  0
    5.4707    0.8558  -10.3255 C   0  0  0  0  0  0  0  0  0  0  0  0
    5.8803    0.6398  -11.7623 C   0  0  0  0  0  0  0  0  0  0  0  0
    6.3112   -0.7363  -12.0270 N   0  0  0  0  0  0  0  0  0  0  0  0
    5.3860   -0.2021   -9.4663 N   0  0  0  0  0  0  0  0  0  0  0  0
    4.8956   -2.4617   -7.4455 C   0  0  0  0  0  0  0  0  0  0  0  0
    4.8838   -3.4396   -6.4501 C   0  0  0  0  0  0  0  0  0  0  0  0
    4.8096   -4.7468   -6.9658 C   0  0  0  0  0  0  0  0  0  0  0  0
    4.8123   -5.9418   -6.2190 C   0  0  0  0  0  0  0  0  0  0  0  0
    4.8638   -5.9458   -4.7412 C   0  0  0  0  0  0  0  0  0  0  0  0
    3.8413   -5.3386   -3.9937 C   0  0  0  0  0  0  0  0  0  0  0  0
    3.8872   -5.3461   -2.5967 C   0  0  0  0  0  0  0  0  0  0  0  0
    4.9496   -5.9705   -1.9315 C   0  0  0  0  0  0  0  0  0  0  0  0
    5.0018   -5.9727   -0.1337 S   0  0  0  0  0  0  0  0  0  0  0  0
    4.2353   -7.6223    0.0504 C   0  0  0  0  0  0  0  0  0  0  0  0
    2.7160   -7.5283   -0.0181 C   0  0  0  0  0  0  0  0  0  0  0  0
    5.9784   -6.5673   -2.6720 C   0  0  0  0  0  0  0  0  0  0  0  0
    7.0178   -7.1664   -2.0410 F   0  0  0  0  0  0  0  0  0  0  0  0
    5.9329   -6.5623   -4.0700 C   0  0  0  0  0  0  0  0  0  0  0  0
    4.7588   -7.1440   -6.9486 C   0  0  0  0  0  0  0  0  0  0  0  0
    4.6717   -7.1830   -8.3447 C   0  0  0  0  0  0  0  0  0  0  0  0
    4.6565   -5.9866   -9.0943 C   0  0  0  0  0  0  0  0  0  0  0  0
    4.5269   -5.9753  -10.5701 C   0  0  0  0  0  0  0  0  0  0  0  0
    3.4630   -5.2893  -11.1791 C   0  0  0  0  0  0  0  0  0  0  0  0
    3.3499   -5.2565  -12.5720 C   0  0  0  0  0  0  0  0  0  0  0  0
    4.2848   -5.9264  -13.3695 C   0  0  0  0  0  0  0  0  0  0  0  0
    4.1323   -5.8664  -15.1563 S   0  0  0  0  0  0  0  0  0  0  0  0
    3.2244   -7.4468  -15.3065 C   0  0  0  0  0  0  0  0  0  0  0  0
    1.7453   -7.2683  -14.9951 C   0  0  0  0  0  0  0  0  0  0  0  0
    5.3537   -6.6042  -12.7683 C   0  0  0  0  0  0  0  0  0  0  0  0
    5.4748   -6.6289  -11.3740 C   0  0  0  0  0  0  0  0  0  0  0  0
    6.2765   -7.2419  -13.5293 F   0  0  0  0  0  0  0  0  0  0  0  0
    4.7457   -4.7860   -8.3643 C   0  0  0  0  0  0  0  0  0  0  0  0
    4.8043   -3.2133   -8.9515 S   0  0  0  0  0  0  0  0  0  0  0  0
    4.5679   -8.4895   -8.8549 C   0  0  0  0  0  0  0  0  0  0  0  0
    4.5900   -9.4690   -7.8672 C   0  0  0  0  0  0  0  0  0  0  0  0
    4.7151   -8.7198   -6.3604 S   0  0  0  0  0  0  0  0  0  0  0  0
    0.4507    0.6090   14.9642 H   0  0  0  0  0  0  0  0  0  0  0  0
    1.4754   -0.3993   12.7902 H   0  0  0  0  0  0  0  0  0  0  0  0
    1.8004    0.7898   10.1364 H   0  0  0  0  0  0  0  0  0  0  0  0
    4.0308    0.1801    9.2737 H   0  0  0  0  0  0  0  0  0  0  0  0
    5.3427   -2.5230   10.9806 H   0  0  0  0  0  0  0  0  0  0  0  0
    6.5453   -1.3699   10.2781 H   0  0  0  0  0  0  0  0  0  0  0  0
    7.8444   -3.3158    9.3519 H   0  0  0  0  0  0  0  0  0  0  0  0
    7.6588   -3.4113   11.1458 H   0  0  0  0  0  0  0  0  0  0  0  0
    6.6291   -4.4497   10.0834 H   0  0  0  0  0  0  0  0  0  0  0  0
    0.6198   -3.3523   10.0053 H   0  0  0  0  0  0  0  0  0  0  0  0
   -4.4178   -1.1139   13.4415 H   0  0  0  0  0  0  0  0  0  0  0  0
   -6.6865   -0.4512   14.1367 H   0  0  0  0  0  0  0  0  0  0  0  0
   -9.0068    3.4923   14.4582 H   0  0  0  0  0  0  0  0  0  0  0  0
   -7.2929    3.4914   13.9178 H   0  0  0  0  0  0  0  0  0  0  0  0
   -6.7295    1.7777   15.6023 H   0  0  0  0  0  0  0  0  0  0  0  0
   -8.4836    1.5223   15.9969 H   0  0  0  0  0  0  0  0  0  0  0  0
   -7.6699    3.0812   16.4163 H   0  0  0  0  0  0  0  0  0  0  0  0
   -4.4636    1.9412   10.3984 H   0  0  0  0  0  0  0  0  0  0  0  0
   -4.6901   -0.4640    9.1824 H   0  0  0  0  0  0  0  0  0  0  0  0
   -2.1808   -2.2453    5.4125 H   0  0  0  0  0  0  0  0  0  0  0  0
   -1.1977   -0.4403    3.1880 H   0  0  0  0  0  0  0  0  0  0  0  0
    1.0420   -1.2203    2.5151 H   0  0  0  0  0  0  0  0  0  0  0  0
    3.2034   -5.2343    2.7937 H   0  0  0  0  0  0  0  0  0  0  0  0
    1.5890   -4.8643    3.4836 H   0  0  0  0  0  0  0  0  0  0  0  0
    4.0153   -2.9384    3.3658 H   0  0  0  0  0  0  0  0  0  0  0  0
    3.4329   -3.8394    4.8182 H   0  0  0  0  0  0  0  0  0  0  0  0
    2.4014   -2.5519    4.0932 H   0  0  0  0  0  0  0  0  0  0  0  0
   -2.8831   -4.2117    1.9452 H   0  0  0  0  0  0  0  0  0  0  0  0
   -6.4072    2.2376    3.6352 H   0  0  0  0  0  0  0  0  0  0  0  0
   -8.4907    3.4207    4.2393 H   0  0  0  0  0  0  0  0  0  0  0  0
  -11.7771    2.4421    7.4047 H   0  0  0  0  0  0  0  0  0  0  0  0
  -10.3821    1.3417    7.1342 H   0  0  0  0  0  0  0  0  0  0  0  0
  -10.3184    4.4366    7.1330 H   0  0  0  0  0  0  0  0  0  0  0  0
   -9.7069    3.3503    8.4394 H   0  0  0  0  0  0  0  0  0  0  0  0
   -8.8876    3.3651    6.8394 H   0  0  0  0  0  0  0  0  0  0  0  0
   -8.3860   -1.5413    4.2349 H   0  0  0  0  0  0  0  0  0  0  0  0
   -6.9299    0.7669    1.1814 H   0  0  0  0  0  0  0  0  0  0  0  0
   -4.5033    2.4533    0.2232 H   0  0  0  0  0  0  0  0  0  0  0  0
   -4.6012    5.2609   -0.6535 H   0  0  0  0  0  0  0  0  0  0  0  0
   -4.5608    6.2883    1.5819 H   0  0  0  0  0  0  0  0  0  0  0  0
   -1.1245    7.9637    4.1133 H   0  0  0  0  0  0  0  0  0  0  0  0
   -1.5968    7.8746    2.3791 H   0  0  0  0  0  0  0  0  0  0  0  0
   -3.8628    8.7508    2.9394 H   0  0  0  0  0  0  0  0  0  0  0  0
   -2.5762    9.8579    3.5603 H   0  0  0  0  0  0  0  0  0  0  0  0
   -3.4381    8.7612    4.7003 H   0  0  0  0  0  0  0  0  0  0  0  0
   -0.7203    3.5316    0.0692 H   0  0  0  0  0  0  0  0  0  0  0  0
   -5.0220    1.9398   -5.9641 H   0  0  0  0  0  0  0  0  0  0  0  0
   -5.1741    0.5008   -7.9607 H   0  0  0  0  0  0  0  0  0  0  0  0
   -3.0025    0.5905  -10.0674 H   0  0  0  0  0  0  0  0  0  0  0  0
   -1.4724   -0.2596   -9.6149 H   0  0  0  0  0  0  0  0  0  0  0  0
   -1.7754   -0.2078  -12.0827 H   0  0  0  0  0  0  0  0  0  0  0  0
   -1.8215   -1.9041  -11.4578 H   0  0  0  0  0  0  0  0  0  0  0  0
   -3.3574   -1.0587  -11.9203 H   0  0  0  0  0  0  0  0  0  0  0  0
   -1.3317    0.0080   -4.8573 H   0  0  0  0  0  0  0  0  0  0  0  0
   -0.8127    2.4474   -5.7282 H   0  0  0  0  0  0  0  0  0  0  0  0
    3.6575    6.3944    0.4412 H   0  0  0  0  0  0  0  0  0  0  0  0
    2.6141    6.2745   -1.0219 H   0  0  0  0  0  0  0  0  0  0  0  0
    1.7717    4.0334   -0.1818 H   0  0  0  0  0  0  0  0  0  0  0  0
    1.4561    5.3863    0.9818 H   0  0  0  0  0  0  0  0  0  0  0  0
    2.8130    4.2214    1.2867 H   0  0  0  0  0  0  0  0  0  0  0  0
    6.3418    3.1912   -0.9328 H   0  0  0  0  0  0  0  0  0  0  0  0
    6.8896    4.5620   -1.9755 H   0  0  0  0  0  0  0  0  0  0  0  0
    7.1265    1.6573   -2.4964 H   0  0  0  0  0  0  0  0  0  0  0  0
    8.3523    2.7681   -2.2174 H   0  0  0  0  0  0  0  0  0  0  0  0
    5.2821    5.2743  -11.1108 H   0  0  0  0  0  0  0  0  0  0  0  0
    5.3475    4.8311   -9.3768 H   0  0  0  0  0  0  0  0  0  0  0  0
    2.9083    4.5021  -11.2623 H   0  0  0  0  0  0  0  0  0  0  0  0
    3.1251    5.8049  -10.0286 H   0  0  0  0  0  0  0  0  0  0  0  0
    2.9341    4.0942   -9.5019 H   0  0  0  0  0  0  0  0  0  0  0  0
    6.7123    1.3294  -12.0143 H   0  0  0  0  0  0  0  0  0  0  0  0
    5.0168    0.8785  -12.4226 H   0  0  0  0  0  0  0  0  0  0  0  0
    5.5160   -1.3875  -11.8298 H   0  0  0  0  0  0  0  0  0  0  0  0
    7.0950   -0.9770  -11.3796 H   0  0  0  0  0  0  0  0  0  0  0  0
    4.9314   -3.2044   -5.3944 H   0  0  0  0  0  0  0  0  0  0  0  0
    3.0087   -4.8588   -4.4961 H   0  0  0  0  0  0  0  0  0  0  0  0
    3.0946   -4.8719   -2.0327 H   0  0  0  0  0  0  0  0  0  0  0  0
    4.5262   -8.0315    1.0412 H   0  0  0  0  0  0  0  0  0  0  0  0
    4.6092   -8.3217   -0.7290 H   0  0  0  0  0  0  0  0  0  0  0  0
    2.2746   -8.5332    0.1566 H   0  0  0  0  0  0  0  0  0  0  0  0
    2.3962   -7.1676   -1.0181 H   0  0  0  0  0  0  0  0  0  0  0  0
    2.3387   -6.8325    0.7615 H   0  0  0  0  0  0  0  0  0  0  0  0
    6.7328   -7.0292   -4.6332 H   0  0  0  0  0  0  0  0  0  0  0  0
    2.7201   -4.7805  -10.5783 H   0  0  0  0  0  0  0  0  0  0  0  0
    2.5329   -4.7154  -13.0295 H   0  0  0  0  0  0  0  0  0  0  0  0
    3.6689   -8.2195  -14.6416 H   0  0  0  0  0  0  0  0  0  0  0  0
    3.3264   -7.7986  -16.3555 H   0  0  0  0  0  0  0  0  0  0  0  0
    1.2117   -8.2223  -15.1904 H   0  0  0  0  0  0  0  0  0  0  0  0
    1.6013   -7.0007  -13.9275 H   0  0  0  0  0  0  0  0  0  0  0  0
    1.3051   -6.4752  -15.6381 H   0  0  0  0  0  0  0  0  0  0  0  0
    6.3066   -7.1511  -10.9197 H   0  0  0  0  0  0  0  0  0  0  0  0
    4.4686   -8.7271   -9.9063 H   0  0  0  0  0  0  0  0  0  0  0  0
    4.5220  -10.5358   -8.0420 H   0  0  0  0  0  0  0  0  0  0  0  0
  1  2  2  0
  2  3  1  0
  3  4  2  0
  4  5  1  0
  5  6  2  0
  6  7  1  0
  7  8  2  0
  8  9  1  0
  9 10  1  0
 10 11  1  0
  8 12  1  0
 12 13  1  0
 12 14  2  0
  4 15  1  0
 15 16  2  0
 16 17  1  0
 17 18  1  0
 18 19  2  0
 19 20  1  0
 20 21  2  0
 21 22  1  0
 22 23  1  0
 23 24  1  0
 21 25  1  0
 25 26  2  0
 25 27  1  0
 17 28  2  0
 28 29  1  0
 16 30  1  0
 30 31  2  0
 31 32  1  0
 31 33  1  0
 33 34  2  0
 34 35  1  0
 35 36  2  0
 36 37  1  0
 37 38  2  0
 38 39  1  0
 39 40  2  0
 40 41  1  0
 41 42  1  0
 42 43  1  0
 40 44  1  0
 44 45  1  0
 44 46  2  0
 36 47  1  0
 47 48  2  0
 48 49  1  0
 49 50  1  0
 50 51  2  0
 51 52  1  0
 52 53  2  0
 53 54  1  0
 54 55  1  0
 55 56  1  0
 53 57  1  0
 57 58  2  0
 57 59  1  0
 49 60  2  0
 60 61  1  0
 48 62  1  0
 62 63  2  0
 63 64  1  0
 63 65  1  0
 65 66  2  0
 66 67  1  0
 67 68  2  0
 68 69  1  0
 69 70  2  0
 70 71  1  0
 71 72  2  0
 72 73  1  0
 73 74  1  0
 74 75  1  0
 72 76  1  0
 76 77  1  0
 76 78  2  0
 68 79  1  0
 79 80  2  0
 80 81  1  0
 81 82  1  0
 82 83  2  0
 83 84  1  0
 84 85  2  0
 85 86  1  0
 86 87  1  0
 87 88  1  0
 85 89  1  0
 89 90  2  0
 89 91  1  0
 81 92  2  0
 92 93  1  0
 80 94  1  0
 94 95  2  0
 95 96  1  0
 95 97  1  0
 97 98  1  0
 98 99  1  0
 99100  2  0
100101  1  0
101102  1  0
102103  2  0
103104  1  0
104105  1  0
105106  1  0
103107  1  0
107108  1  0
108109  1  0
107110  2  0
 99111  1  0
111112  1  0
112113  1  0
113114  2  0
114115  1  0
115116  1  0
116117  2  0
117118  1  0
118119  1  0
119120  1  0
117121  1  0
121122  1  0
122123  1  0
121124  2  0
113125  1  0
125126  2  0
126127  1  0
127128  2  0
128129  1  0
129130  2  0
130131  1  0
131132  2  0
132133  1  0
133134  1  0
134135  1  0
132136  1  0
136137  1  0
136138  2  0
128139  1  0
139140  2  0
140141  1  0
141142  1  0
142143  2  0
143144  1  0
144145  2  0
145146  1  0
146147  1  0
147148  1  0
145149  1  0
149150  2  0
149151  1  0
141152  2  0
152153  1  0
140154  1  0
154155  2  0
155156  1  0
 29  1  1  0
 61 33  1  0
 93 65  1  0
101 97  2  0
115111  2  0
153125  1  0
 28  3  1  0
 60 35  1  0
 92 67  1  0
110100  1  0
124114  1  0
152127  1  0
 14  5  1  0
 32 15  1  0
 46 37  1  0
 64 47  1  0
 78 69  1  0
 96 79  1  0
138129  1  0
156139  1  0
 26 18  1  0
 58 50  1  0
 90 82  1  0
150142  1  0
  1157  1  0
  2158  1  0
  6159  1  0
  7160  1  0
 10161  1  0
 10162  1  0
 11163  1  0
 11164  1  0
 11165  1  0
 14166  1  0
 19167  1  0
 20168  1  0
 23169  1  0
 23170  1  0
 24171  1  0
 24172  1  0
 24173  1  0
 26174  1  0
 30175  1  0
 34176  1  0
 38177  1  0
 39178  1  0
 42179  1  0
 42180  1  0
 43181  1  0
 43182  1  0
 43183  1  0
 46184  1  0
 51185  1  0
 52186  1  0
 55187  1  0
 55188  1  0
 56189  1  0
 56190  1  0
 56191  1  0
 58192  1  0
 62193  1  0
 66194  1  0
 70195  1  0
 71196  1  0
 74197  1  0
 74198  1  0
 75199  1  0
 75200  1  0
 75201  1  0
 78202  1  0
 83203  1  0
 84204  1  0
 87205  1  0
 87206  1  0
 88207  1  0
 88208  1  0
 88209  1  0
 90210  1  0
 94211  1  0
105212  1  0
105213  1  0
106214  1  0
106215  1  0
106216  1  0
108217  1  0
108218  1  0
109219  1  0
109220  1  0
119221  1  0
119222  1  0
120223  1  0
120224  1  0
120225  1  0
122226  1  0
122227  1  0
123228  1  0
123229  1  0
126230  1  0
130231  1  0
131232  1  0
134233  1  0
134234  1  0
135235  1  0
135236  1  0
135237  1  0
138238  1  0
143239  1  0
144240  1  0
147241  1  0
147242  1  0
148243  1  0
148244  1  0
148245  1  0
150246  1  0
154247  1  0
155248  1  0
M  END

