
     RDKit          3D

221241  0  0  0  0  0  0  0  0999 V2000
    1.5619  -12.6333    1.5095 C   0  0  0  0  0  0  0  0  0  0  0  0
   -0.0106  -12.5881    0.8848 S   0  0  0  0  0  0  0  0  0  0  0  0
   -0.5140  -11.1783    1.6671 C   0  0  0  0  0  0  0  0  0  0  0  0
    0.5680  -10.7098    2.3979 C   0  0  0  0  0  0  0  0  0  0  0  0
    1.7071  -11.5093    2.3126 C   0  0  0  0  0  0  0  0  0  0  0  0
    2.8578  -11.1255    2.9161 N   0  0  0  0  0  0  0  0  0  0  0  0
    2.9080   -9.9478    3.6098 C   0  0  0  0  0  0  0  0  0  0  0  0
    4.0904   -9.5420    4.2477 O   0  0  0  0  0  0  0  0  0  0  0  0
    5.3348  -10.2283    4.1200 C   0  0  0  0  0  0  0  0  0  0  0  0
    5.9898   -9.8922    2.7852 C   0  0  0  0  0  0  0  0  0  0  0  0
    1.7553   -9.1258    3.6762 C   0  0  0  0  0  0  0  0  0  0  0  0
    1.7912   -7.8141    4.4185 C   0  0  0  0  0  0  0  0  0  0  0  0
    0.6065   -7.0095    4.1322 N   0  0  0  0  0  0  0  0  0  0  0  0
    0.6056   -9.5338    3.0674 N   0  0  0  0  0  0  0  0  0  0  0  0
   -1.7682  -10.4564    1.4374 C   0  0  0  0  0  0  0  0  0  0  0  0
   -2.2253   -9.7933   -0.0477 S   0  0  0  0  0  0  0  0  0  0  0  0
   -3.4385   -8.7682    0.5336 C   0  0  0  0  0  0  0  0  0  0  0  0
   -3.4844   -8.9445    1.9160 C   0  0  0  0  0  0  0  0  0  0  0  0
   -2.5556   -9.8582    2.4129 C   0  0  0  0  0  0  0  0  0  0  0  0
   -2.4398  -10.0583    3.7498 N   0  0  0  0  0  0  0  0  0  0  0  0
   -3.2454   -9.3757    4.6170 C   0  0  0  0  0  0  0  0  0  0  0  0
   -3.1541   -9.5978    5.9982 O   0  0  0  0  0  0  0  0  0  0  0  0
   -2.1552  -10.4187    6.5999 C   0  0  0  0  0  0  0  0  0  0  0  0
   -0.8372   -9.6629    6.6900 C   0  0  0  0  0  0  0  0  0  0  0  0
   -4.1833   -8.4441    4.1147 C   0  0  0  0  0  0  0  0  0  0  0  0
   -5.1109   -7.6929    5.0418 C   0  0  0  0  0  0  0  0  0  0  0  0
   -5.5533   -6.4204    4.4672 N   0  0  0  0  0  0  0  0  0  0  0  0
   -4.2867   -8.2603    2.7664 N   0  0  0  0  0  0  0  0  0  0  0  0
   -3.9693   -7.6106   -0.2122 C   0  0  0  0  0  0  0  0  0  0  0  0
   -4.1763   -6.3502    0.3439 C   0  0  0  0  0  0  0  0  0  0  0  0
   -4.3132   -5.3338   -0.6120 C   0  0  0  0  0  0  0  0  0  0  0  0
   -4.3691   -3.9480   -0.3449 C   0  0  0  0  0  0  0  0  0  0  0  0
   -4.2186   -3.4193    1.0340 C   0  0  0  0  0  0  0  0  0  0  0  0
   -3.1036   -3.7790    1.8108 C   0  0  0  0  0  0  0  0  0  0  0  0
   -3.0493   -3.4464    3.1659 C   0  0  0  0  0  0  0  0  0  0  0  0
   -4.0828   -2.7076    3.7497 C   0  0  0  0  0  0  0  0  0  0  0  0
   -4.1031   -2.4499    5.5301 S   0  0  0  0  0  0  0  0  0  0  0  0
   -3.1043   -0.9222    5.5150 C   0  0  0  0  0  0  0  0  0  0  0  0
   -1.6236   -1.2552    5.6499 C   0  0  0  0  0  0  0  0  0  0  0  0
   -5.1560   -2.2727    2.9607 C   0  0  0  0  0  0  0  0  0  0  0  0
   -6.1634   -1.5516    3.5141 F   0  0  0  0  0  0  0  0  0  0  0  0
   -5.2287   -2.6339    1.6090 C   0  0  0  0  0  0  0  0  0  0  0  0
   -4.4515   -3.0965   -1.4603 C   0  0  0  0  0  0  0  0  0  0  0  0
   -4.4319   -3.5689   -2.7810 C   0  0  0  0  0  0  0  0  0  0  0  0
   -4.3716   -4.9588   -3.0429 C   0  0  0  0  0  0  0  0  0  0  0  0
   -4.4074   -5.5147   -4.4152 C   0  0  0  0  0  0  0  0  0  0  0  0
   -3.4212   -5.1807   -5.3566 C   0  0  0  0  0  0  0  0  0  0  0  0
   -3.4749   -5.7064   -6.6518 C   0  0  0  0  0  0  0  0  0  0  0  0
   -4.4996   -6.5920   -7.0100 C   0  0  0  0  0  0  0  0  0  0  0  0
   -4.5529   -7.2792   -8.6696 S   0  0  0  0  0  0  0  0  0  0  0  0
   -5.5063   -5.8996   -9.3997 C   0  0  0  0  0  0  0  0  0  0  0  0
   -6.9913   -6.0051   -9.0686 C   0  0  0  0  0  0  0  0  0  0  0  0
   -5.4565   -6.9668   -6.0590 C   0  0  0  0  0  0  0  0  0  0  0  0
   -5.4176   -6.4222   -4.7737 C   0  0  0  0  0  0  0  0  0  0  0  0
   -6.4321   -7.8548   -6.3779 F   0  0  0  0  0  0  0  0  0  0  0  0
   -4.2981   -5.8094   -1.9248 C   0  0  0  0  0  0  0  0  0  0  0  0
   -4.0178   -7.4729   -1.8953 S   0  0  0  0  0  0  0  0  0  0  0  0
   -4.3781   -2.5292   -3.7319 C   0  0  0  0  0  0  0  0  0  0  0  0
   -4.3631   -1.2592   -3.1545 C   0  0  0  0  0  0  0  0  0  0  0  0
   -4.4023   -1.4180   -1.4761 S   0  0  0  0  0  0  0  0  0  0  0  0
   -3.8598   -0.0533   -3.8074 C   0  0  0  0  0  0  0  0  0  0  0  0
   -4.3821    1.2242   -3.6102 C   0  0  0  0  0  0  0  0  0  0  0  0
   -3.4499    2.2502   -3.8651 C   0  0  0  0  0  0  0  0  0  0  0  0
   -3.6388    3.6225   -3.5969 C   0  0  0  0  0  0  0  0  0  0  0  0
   -4.9913    4.1737   -3.3565 C   0  0  0  0  0  0  0  0  0  0  0  0
   -6.0045    3.9461   -4.3014 C   0  0  0  0  0  0  0  0  0  0  0  0
   -7.2815    4.4722   -4.1138 C   0  0  0  0  0  0  0  0  0  0  0  0
   -7.5581    5.2571   -2.9912 C   0  0  0  0  0  0  0  0  0  0  0  0
   -9.1806    6.0070   -2.8077 S   0  0  0  0  0  0  0  0  0  0  0  0
   -8.7435    7.5545   -3.6821 C   0  0  0  0  0  0  0  0  0  0  0  0
   -8.9339    7.4046   -5.1857 C   0  0  0  0  0  0  0  0  0  0  0  0
   -6.5638    5.4667   -2.0249 C   0  0  0  0  0  0  0  0  0  0  0  0
   -6.8288    6.2097   -0.9196 F   0  0  0  0  0  0  0  0  0  0  0  0
   -5.2872    4.9201   -2.2043 C   0  0  0  0  0  0  0  0  0  0  0  0
   -2.4849    4.4378   -3.6172 C   0  0  0  0  0  0  0  0  0  0  0  0
   -1.2220    3.9381   -3.9515 C   0  0  0  0  0  0  0  0  0  0  0  0
   -1.0486    2.5760   -4.2772 C   0  0  0  0  0  0  0  0  0  0  0  0
    0.2889    1.9612   -4.4000 C   0  0  0  0  0  0  0  0  0  0  0  0
    0.6495    1.2777   -5.5696 C   0  0  0  0  0  0  0  0  0  0  0  0
    1.8714    0.6028   -5.6397 C   0  0  0  0  0  0  0  0  0  0  0  0
    2.7344    0.5921   -4.5363 C   0  0  0  0  0  0  0  0  0  0  0  0
    4.2772   -0.3246   -4.6141 S   0  0  0  0  0  0  0  0  0  0  0  0
    3.5273   -1.9475   -4.2202 C   0  0  0  0  0  0  0  0  0  0  0  0
    3.2239   -2.0800   -2.7311 C   0  0  0  0  0  0  0  0  0  0  0  0
    2.3884    1.2936   -3.3755 C   0  0  0  0  0  0  0  0  0  0  0  0
    1.1635    1.9604   -3.3022 C   0  0  0  0  0  0  0  0  0  0  0  0
    3.2231    1.3118   -2.3063 F   0  0  0  0  0  0  0  0  0  0  0  0
   -2.1941    1.7657   -4.2335 C   0  0  0  0  0  0  0  0  0  0  0  0
   -2.2478    0.0856   -4.2752 S   0  0  0  0  0  0  0  0  0  0  0  0
   -0.1908    4.8728   -3.7704 C   0  0  0  0  0  0  0  0  0  0  0  0
   -0.6134    6.0777   -3.2124 C   0  0  0  0  0  0  0  0  0  0  0  0
   -2.2908    6.0019   -3.0179 S   0  0  0  0  0  0  0  0  0  0  0  0
    0.2612    6.7684   -2.2587 C   0  0  0  0  0  0  0  0  0  0  0  0
    0.4967    6.2091   -1.0070 C   0  0  0  0  0  0  0  0  0  0  0  0
    1.7659    6.4913   -0.4913 C   0  0  0  0  0  0  0  0  0  0  0  0
    2.3404    5.8811    0.6405 C   0  0  0  0  0  0  0  0  0  0  0  0
    1.6299    4.8294    1.3965 C   0  0  0  0  0  0  0  0  0  0  0  0
    1.2588    3.6416    0.7490 C   0  0  0  0  0  0  0  0  0  0  0  0
    0.4963    2.6843    1.4177 C   0  0  0  0  0  0  0  0  0  0  0  0
    0.1084    2.8989    2.7451 C   0  0  0  0  0  0  0  0  0  0  0  0
   -0.9478    1.7003    3.5639 S   0  0  0  0  0  0  0  0  0  0  0  0
   -2.5112    2.3814    2.8916 C   0  0  0  0  0  0  0  0  0  0  0  0
   -3.0050    3.5535    3.7300 C   0  0  0  0  0  0  0  0  0  0  0  0
    0.5333    4.0543    3.4161 C   0  0  0  0  0  0  0  0  0  0  0  0
    0.1949    4.2573    4.7163 F   0  0  0  0  0  0  0  0  0  0  0  0
    1.2885    5.0197    2.7402 C   0  0  0  0  0  0  0  0  0  0  0  0
    3.6747    6.1979    0.9217 C   0  0  0  0  0  0  0  0  0  0  0  0
    4.4225    7.0912    0.1446 C   0  0  0  0  0  0  0  0  0  0  0  0
    3.8411    7.7213   -0.9863 C   0  0  0  0  0  0  0  0  0  0  0  0
    4.5765    8.7276   -1.7868 C   0  0  0  0  0  0  0  0  0  0  0  0
    5.1309    9.8515   -1.1546 C   0  0  0  0  0  0  0  0  0  0  0  0
    5.7045   10.8770   -1.9109 C   0  0  0  0  0  0  0  0  0  0  0  0
    5.7048   10.8061   -3.3065 C   0  0  0  0  0  0  0  0  0  0  0  0
    6.3197   12.1922   -4.2751 S   0  0  0  0  0  0  0  0  0  0  0  0
    4.7353   13.1148   -4.2617 C   0  0  0  0  0  0  0  0  0  0  0  0
    4.7208   14.1374   -3.1305 C   0  0  0  0  0  0  0  0  0  0  0  0
    5.2098    9.6593   -3.9433 C   0  0  0  0  0  0  0  0  0  0  0  0
    4.6648    8.6170   -3.1872 C   0  0  0  0  0  0  0  0  0  0  0  0
    5.2330    9.5640   -5.2972 F   0  0  0  0  0  0  0  0  0  0  0  0
    2.5132    7.3583   -1.2939 C   0  0  0  0  0  0  0  0  0  0  0  0
    1.6165    7.6785   -2.6889 S   0  0  0  0  0  0  0  0  0  0  0  0
    5.7769    7.1454    0.5283 C   0  0  0  0  0  0  0  0  0  0  0  0
    6.0796    6.2668    1.5665 C   0  0  0  0  0  0  0  0  0  0  0  0
    4.6774    5.4550    2.0442 S   0  0  0  0  0  0  0  0  0  0  0  0
    7.4297    5.9299    2.0363 C   0  0  0  0  0  0  0  0  0  0  0  0
    8.7736    6.9560    2.0421 S   0  0  0  0  0  0  0  0  0  0  0  0
    9.9027    5.8352    2.6177 C   0  0  0  0  0  0  0  0  0  0  0  0
    9.2268    4.6368    2.7813 C   0  0  0  0  0  0  0  0  0  0  0  0
    7.8685    4.6860    2.4683 C   0  0  0  0  0  0  0  0  0  0  0  0
    7.1107    3.5649    2.5353 N   0  0  0  0  0  0  0  0  0  0  0  0
    7.6633    2.3795    2.9185 C   0  0  0  0  0  0  0  0  0  0  0  0
    6.8718    1.2263    2.9969 O   0  0  0  0  0  0  0  0  0  0  0  0
    5.4533    1.2229    2.8198 C   0  0  0  0  0  0  0  0  0  0  0  0
    4.7586    1.8170    4.0380 C   0  0  0  0  0  0  0  0  0  0  0  0
    9.0497    2.3244    3.2280 C   0  0  0  0  0  0  0  0  0  0  0  0
    9.7168    1.0472    3.6535 C   0  0  0  0  0  0  0  0  0  0  0  0
   10.8946    0.7964    2.8255 N   0  0  0  0  0  0  0  0  0  0  0  0
    9.7979    3.4665    3.1591 N   0  0  0  0  0  0  0  0  0  0  0  0
    2.3225  -13.3683    1.2829 H   0  0  0  0  0  0  0  0  0  0  0  0
    5.1903  -11.3258    4.2186 H   0  0  0  0  0  0  0  0  0  0  0  0
    6.0079   -9.8978    4.9395 H   0  0  0  0  0  0  0  0  0  0  0  0
    6.9791  -10.3905    2.7156 H   0  0  0  0  0  0  0  0  0  0  0  0
    6.1325   -8.7932    2.7048 H   0  0  0  0  0  0  0  0  0  0  0  0
    5.3505  -10.2391    1.9457 H   0  0  0  0  0  0  0  0  0  0  0  0
    2.7037   -7.2431    4.1336 H   0  0  0  0  0  0  0  0  0  0  0  0
    1.8357   -8.0229    5.5099 H   0  0  0  0  0  0  0  0  0  0  0  0
    0.6609   -6.1423    4.7146 H   0  0  0  0  0  0  0  0  0  0  0  0
    0.6559   -6.6980    3.1334 H   0  0  0  0  0  0  0  0  0  0  0  0
   -2.4804  -10.6903    7.6243 H   0  0  0  0  0  0  0  0  0  0  0  0
   -2.0187  -11.3560    6.0198 H   0  0  0  0  0  0  0  0  0  0  0  0
   -0.5094   -9.3425    5.6804 H   0  0  0  0  0  0  0  0  0  0  0  0
   -0.0565  -10.3201    7.1344 H   0  0  0  0  0  0  0  0  0  0  0  0
   -0.9563   -8.7628    7.3326 H   0  0  0  0  0  0  0  0  0  0  0  0
   -5.9994   -8.3255    5.2541 H   0  0  0  0  0  0  0  0  0  0  0  0
   -4.5989   -7.4796    6.0026 H   0  0  0  0  0  0  0  0  0  0  0  0
   -4.7156   -5.8652    4.1732 H   0  0  0  0  0  0  0  0  0  0  0  0
   -6.1282   -6.6162    3.6125 H   0  0  0  0  0  0  0  0  0  0  0  0
   -4.1387   -6.1624    1.4064 H   0  0  0  0  0  0  0  0  0  0  0  0
   -2.3034   -4.3695    1.3791 H   0  0  0  0  0  0  0  0  0  0  0  0
   -2.2254   -3.8008    3.7686 H   0  0  0  0  0  0  0  0  0  0  0  0
   -3.2841   -0.3263    4.5953 H   0  0  0  0  0  0  0  0  0  0  0  0
   -3.4137   -0.3034    6.3823 H   0  0  0  0  0  0  0  0  0  0  0  0
   -1.2512   -1.7426    4.7254 H   0  0  0  0  0  0  0  0  0  0  0  0
   -1.0434   -0.3230    5.8221 H   0  0  0  0  0  0  0  0  0  0  0  0
   -1.4624   -1.9315    6.5140 H   0  0  0  0  0  0  0  0  0  0  0  0
   -6.0946   -2.3404    1.0253 H   0  0  0  0  0  0  0  0  0  0  0  0
   -2.6117   -4.5105   -5.0898 H   0  0  0  0  0  0  0  0  0  0  0  0
   -2.7192   -5.4280   -7.3734 H   0  0  0  0  0  0  0  0  0  0  0  0
   -5.3834   -5.9423  -10.5019 H   0  0  0  0  0  0  0  0  0  0  0  0
   -5.1072   -4.9225   -9.0527 H   0  0  0  0  0  0  0  0  0  0  0  0
   -7.1632   -5.8236   -7.9886 H   0  0  0  0  0  0  0  0  0  0  0  0
   -7.3780   -7.0102   -9.3377 H   0  0  0  0  0  0  0  0  0  0  0  0
   -7.5545   -5.2396   -9.6452 H   0  0  0  0  0  0  0  0  0  0  0  0
   -6.1782   -6.7061   -4.0565 H   0  0  0  0  0  0  0  0  0  0  0  0
   -4.2746   -2.6851   -4.7970 H   0  0  0  0  0  0  0  0  0  0  0  0
   -5.3588    1.3976   -3.1748 H   0  0  0  0  0  0  0  0  0  0  0  0
   -5.8001    3.3675   -5.1913 H   0  0  0  0  0  0  0  0  0  0  0  0
   -8.0504    4.2866   -4.8531 H   0  0  0  0  0  0  0  0  0  0  0  0
   -7.6978    7.8558   -3.4591 H   0  0  0  0  0  0  0  0  0  0  0  0
   -9.4136    8.3596   -3.3179 H   0  0  0  0  0  0  0  0  0  0  0  0
   -9.9716    7.0792   -5.4064 H   0  0  0  0  0  0  0  0  0  0  0  0
   -8.2221    6.6628   -5.5975 H   0  0  0  0  0  0  0  0  0  0  0  0
   -8.7490    8.3792   -5.6846 H   0  0  0  0  0  0  0  0  0  0  0  0
   -4.5340    5.0797   -1.4434 H   0  0  0  0  0  0  0  0  0  0  0  0
   -0.0220    1.2499   -6.4185 H   0  0  0  0  0  0  0  0  0  0  0  0
    2.1357    0.0677   -6.5430 H   0  0  0  0  0  0  0  0  0  0  0  0
    4.2497   -2.7405   -4.5107 H   0  0  0  0  0  0  0  0  0  0  0  0
    2.6005   -2.0996   -4.8135 H   0  0  0  0  0  0  0  0  0  0  0  0
    4.1386   -1.8947   -2.1303 H   0  0  0  0  0  0  0  0  0  0  0  0
    2.4310   -1.3645   -2.4300 H   0  0  0  0  0  0  0  0  0  0  0  0
    2.8609   -3.1072   -2.5184 H   0  0  0  0  0  0  0  0  0  0  0  0
    0.8855    2.4608   -2.3847 H   0  0  0  0  0  0  0  0  0  0  0  0
    0.8594    4.6309   -3.8801 H   0  0  0  0  0  0  0  0  0  0  0  0
   -0.1879    5.5002   -0.5625 H   0  0  0  0  0  0  0  0  0  0  0  0
    1.5282    3.4789   -0.2861 H   0  0  0  0  0  0  0  0  0  0  0  0
    0.1836    1.7898    0.8937 H   0  0  0  0  0  0  0  0  0  0  0  0
   -2.3847    2.6975    1.8346 H   0  0  0  0  0  0  0  0  0  0  0  0
   -3.2733    1.5757    2.9140 H   0  0  0  0  0  0  0  0  0  0  0  0
   -3.9885    3.8963    3.3427 H   0  0  0  0  0  0  0  0  0  0  0  0
   -2.2931    4.4025    3.6711 H   0  0  0  0  0  0  0  0  0  0  0  0
   -3.1244    3.2402    4.7884 H   0  0  0  0  0  0  0  0  0  0  0  0
    1.5793    5.9259    3.2553 H   0  0  0  0  0  0  0  0  0  0  0  0
    5.0858    9.9531   -0.0780 H   0  0  0  0  0  0  0  0  0  0  0  0
    6.1241   11.7384   -1.4086 H   0  0  0  0  0  0  0  0  0  0  0  0
    4.6382   13.6524   -5.2283 H   0  0  0  0  0  0  0  0  0  0  0  0
    3.8636   12.4307   -4.1620 H   0  0  0  0  0  0  0  0  0  0  0  0
    3.7746   14.7228   -3.1558 H   0  0  0  0  0  0  0  0  0  0  0  0
    5.5758   14.8385   -3.2442 H   0  0  0  0  0  0  0  0  0  0  0  0
    4.7896   13.6331   -2.1453 H   0  0  0  0  0  0  0  0  0  0  0  0
    4.2865    7.7389   -3.6914 H   0  0  0  0  0  0  0  0  0  0  0  0
    6.5295    7.7251    0.0083 H   0  0  0  0  0  0  0  0  0  0  0  0
   10.9507    6.0141    2.8070 H   0  0  0  0  0  0  0  0  0  0  0  0
    5.1719    1.7842    1.9013 H   0  0  0  0  0  0  0  0  0  0  0  0
    5.1146    0.1722    2.6971 H   0  0  0  0  0  0  0  0  0  0  0  0
    5.0510    2.8790    4.1729 H   0  0  0  0  0  0  0  0  0  0  0  0
    3.6551    1.7661    3.9061 H   0  0  0  0  0  0  0  0  0  0  0  0
    5.0446    1.2474    4.9512 H   0  0  0  0  0  0  0  0  0  0  0  0
   10.0333    1.1539    4.7121 H   0  0  0  0  0  0  0  0  0  0  0  0
    9.0247    0.1790    3.5937 H   0  0  0  0  0  0  0  0  0  0  0  0
   11.3401   -0.0853    3.1672 H   0  0  0  0  0  0  0  0  0  0  0  0
   10.5742    0.6071    1.8461 H   0  0  0  0  0  0  0  0  0  0  0  0
  1  2  1  0
  2  3  1  0
  3  4  2  0
  4  5  1  0
  5  6  1  0
  6  7  2  0
  7  8  1  0
  8  9  1  0
  9 10  1  0
  7 11  1  0
 11 12  1  0
 12 13  1  0
 11 14  2  0
  3 15  1  0
 15 16  1  0
 16 17  1  0
 17 18  2  0
 18 19  1  0
 19 20  1  0
 20 21  2  0
 21 22  1  0
 22 23  1  0
 23 24  1  0
 21 25  1  0
 25 26  1  0
 26 27  1  0
 25 28  2  0
 17 29  1  0
 29 30  2  0
 30 31  1  0
 31 32  2  0
 32 33  1  0
 33 34  2  0
 34 35  1  0
 35 36  2  0
 36 37  1  0
 37 38  1  0
 38 39  1  0
 36 40  1  0
 40 41  1  0
 40 42  2  0
 32 43  1  0
 43 44  2  0
 44 45  1  0
 45 46  1  0
 46 47  2  0
 47 48  1  0
 48 49  2  0
 49 50  1  0
 50 51  1  0
 51 52  1  0
 49 53  1  0
 53 54  2  0
 53 55  1  0
 45 56  2  0
 56 57  1  0
 44 58  1  0
 58 59  2  0
 59 60  1  0
 59 61  1  0
 61 62  2  0
 62 63  1  0
 63 64  2  0
 64 65  1  0
 65 66  2  0
 66 67  1  0
 67 68  2  0
 68 69  1  0
 69 70  1  0
 70 71  1  0
 68 72  1  0
 72 73  1  0
 72 74  2  0
 64 75  1  0
 75 76  2  0
 76 77  1  0
 77 78  1  0
 78 79  2  0
 79 80  1  0
 80 81  2  0
 81 82  1  0
 82 83  1  0
 83 84  1  0
 81 85  1  0
 85 86  2  0
 85 87  1  0
 77 88  2  0
 88 89  1  0
 76 90  1  0
 90 91  2  0
 91 92  1  0
 91 93  1  0
 93 94  2  0
 94 95  1  0
 95 96  2  0
 96 97  1  0
 97 98  2  0
 98 99  1  0
 99100  2  0
100101  1  0
101102  1  0
102103  1  0
100104  1  0
104105  1  0
104106  2  0
 96107  1  0
107108  2  0
108109  1  0
109110  1  0
110111  2  0
111112  1  0
112113  2  0
113114  1  0
114115  1  0
115116  1  0
113117  1  0
117118  2  0
117119  1  0
109120  2  0
120121  1  0
108122  1  0
122123  2  0
123124  1  0
123125  1  0
125126  1  0
126127  1  0
127128  2  0
128129  1  0
129130  1  0
130131  2  0
131132  1  0
132133  1  0
133134  1  0
131135  1  0
135136  1  0
136137  1  0
135138  2  0
  5  1  2  0
 19 15  2  0
 57 29  1  0
 89 61  1  0
121 93  1  0
129125  2  0
 14  4  1  0
 28 18  1  0
 56 31  1  0
 88 63  1  0
120 95  1  0
138128  1  0
 42 33  1  0
 60 43  1  0
 74 65  1  0
 92 75  1  0
106 97  1  0
124107  1  0
 54 46  1  0
 86 78  1  0
118110  1  0
  1139  1  0
  9140  1  0
  9141  1  0
 10142  1  0
 10143  1  0
 10144  1  0
 12145  1  0
 12146  1  0
 13147  1  0
 13148  1  0
 23149  1  0
 23150  1  0
 24151  1  0
 24152  1  0
 24153  1  0
 26154  1  0
 26155  1  0
 27156  1  0
 27157  1  0
 30158  1  0
 34159  1  0
 35160  1  0
 38161  1  0
 38162  1  0
 39163  1  0
 39164  1  0
 39165  1  0
 42166  1  0
 47167  1  0
 48168  1  0
 51169  1  0
 51170  1  0
 52171  1  0
 52172  1  0
 52173  1  0
 54174  1  0
 58175  1  0
 62176  1  0
 66177  1  0
 67178  1  0
 70179  1  0
 70180  1  0
 71181  1  0
 71182  1  0
 71183  1  0
 74184  1  0
 79185  1  0
 80186  1  0
 83187  1  0
 83188  1  0
 84189  1  0
 84190  1  0
 84191  1  0
 86192  1  0
 90193  1  0
 94194  1  0
 98195  1  0
 99196  1  0
102197  1  0
102198  1  0
103199  1  0
103200  1  0
103201  1  0
106202  1  0
111203  1  0
112204  1  0
115205  1  0
115206  1  0
116207  1  0
116208  1  0
116209  1  0
118210  1  0
122211  1  0
127212  1  0
133213  1  0
133214  1  0
134215  1  0
134216  1  0
134217  1  0
136218  1  0
136219  1  0
137220  1  0
137221  1  0
M  END

