
     RDKit          3D

228254  0  0  0  0  0  0  0  0999 V2000
    4.8533    1.3030    5.2292 C   0  0  0  0  0  0  0  0  0  0  0  0
    3.7953    1.7499    6.0159 C   0  0  0  0  0  0  0  0  0  0  0  0
    2.8744    0.7378    6.3372 C   0  0  0  0  0  0  0  0  0  0  0  0
    1.7136    0.8787    7.1260 C   0  0  0  0  0  0  0  0  0  0  0  0
    1.2999    2.1815    7.6753 C   0  0  0  0  0  0  0  0  0  0  0  0
    0.8485    3.5033    6.7386 S   0  0  0  0  0  0  0  0  0  0  0  0
    0.4305    4.5023    8.0268 C   0  0  0  0  0  0  0  0  0  0  0  0
   -0.1889    5.8578    7.8800 C   0  0  0  0  0  0  0  0  0  0  0  0
   -1.7111    5.7568    7.8616 C   0  0  0  0  0  0  0  0  0  0  0  0
    0.6125    3.7951    9.2167 C   0  0  0  0  0  0  0  0  0  0  0  0
    0.2220    4.4436   10.8031 Cl  0  0  0  0  0  0  0  0  0  0  0  0
    1.1074    2.4966    9.0193 C   0  0  0  0  0  0  0  0  0  0  0  0
    1.4638    1.3887   10.3387 Cl  0  0  0  0  0  0  0  0  0  0  0  0
    0.9301   -0.2751    7.3126 C   0  0  0  0  0  0  0  0  0  0  0  0
    1.2720   -1.5153    6.7667 C   0  0  0  0  0  0  0  0  0  0  0  0
    2.4483   -1.6621    6.0028 C   0  0  0  0  0  0  0  0  0  0  0  0
    2.8560   -2.9612    5.4355 C   0  0  0  0  0  0  0  0  0  0  0  0
    2.9821   -3.2968    3.7908 S   0  0  0  0  0  0  0  0  0  0  0  0
    3.4379   -4.9070    3.9721 C   0  0  0  0  0  0  0  0  0  0  0  0
    3.6465   -5.8665    2.8391 C   0  0  0  0  0  0  0  0  0  0  0  0
    2.3468   -6.5864    2.4972 C   0  0  0  0  0  0  0  0  0  0  0  0
    3.4836   -5.2089    5.3322 C   0  0  0  0  0  0  0  0  0  0  0  0
    3.1634   -4.1152    6.1528 C   0  0  0  0  0  0  0  0  0  0  0  0
    3.1845   -4.1882    7.9104 Cl  0  0  0  0  0  0  0  0  0  0  0  0
    3.8809   -6.7998    5.9629 Cl  0  0  0  0  0  0  0  0  0  0  0  0
    3.2207   -0.5058    5.7970 C   0  0  0  0  0  0  0  0  0  0  0  0
    4.6576   -0.3466    4.9328 S   0  0  0  0  0  0  0  0  0  0  0  0
    0.3103   -2.5093    7.0047 C   0  0  0  0  0  0  0  0  0  0  0  0
   -0.7706   -2.0534    7.7554 C   0  0  0  0  0  0  0  0  0  0  0  0
   -0.5590   -0.4066    8.0848 S   0  0  0  0  0  0  0  0  0  0  0  0
   -1.9994   -2.8728    8.0603 C   0  0  0  0  0  0  0  0  0  0  0  0
   -2.7682   -2.4304    9.6262 S   0  0  0  0  0  0  0  0  0  0  0  0
   -4.2529   -3.3060    9.0409 C   0  0  0  0  0  0  0  0  0  0  0  0
   -4.3748   -3.2110    7.5686 N   0  0  0  0  0  0  0  0  0  0  0  0
   -3.0970   -2.7379    7.0055 C   0  0  1  0  0  0  0  0  0  0  0  0
   -3.2461   -1.3370    6.5709 N   0  0  0  0  0  0  0  0  0  0  0  0
   -4.5852   -0.9332    6.9684 C   0  0  0  0  0  0  0  0  0  0  0  0
   -5.3708   -2.2198    7.1426 C   0  0  0  0  0  0  0  0  0  0  0  0
   -6.0024   -2.6452    5.8346 C   0  0  0  0  0  0  0  0  0  0  0  0
   -6.8456   -1.8481    5.0570 C   0  0  0  0  0  0  0  0  0  0  0  0
   -7.1095   -2.3936    3.7897 C   0  0  0  0  0  0  0  0  0  0  0  0
   -7.8008   -1.7580    2.7384 C   0  0  0  0  0  0  0  0  0  0  0  0
   -8.3511   -0.3982    2.8736 C   0  0  0  0  0  0  0  0  0  0  0  0
   -7.4298    0.9880    3.1262 S   0  0  0  0  0  0  0  0  0  0  0  0
   -8.7179    2.0684    3.0672 C   0  0  0  0  0  0  0  0  0  0  0  0
   -8.5948    3.5486    3.2564 C   0  0  0  0  0  0  0  0  0  0  0  0
   -8.6137    3.9087    4.7374 C   0  0  0  0  0  0  0  0  0  0  0  0
   -9.8958    1.3497    2.8592 C   0  0  0  0  0  0  0  0  0  0  0  0
  -11.4850    2.0929    2.7502 Cl  0  0  0  0  0  0  0  0  0  0  0  0
   -9.6874   -0.0319    2.7368 C   0  0  0  0  0  0  0  0  0  0  0  0
  -10.9827   -1.1884    2.4628 Cl  0  0  0  0  0  0  0  0  0  0  0  0
   -7.8078   -2.4157    1.4979 C   0  0  0  0  0  0  0  0  0  0  0  0
   -7.2109   -3.6626    1.3023 C   0  0  0  0  0  0  0  0  0  0  0  0
   -6.6035   -4.3437    2.3767 C   0  0  0  0  0  0  0  0  0  0  0  0
   -6.0242   -5.6910    2.2092 C   0  0  0  0  0  0  0  0  0  0  0  0
   -4.3977   -6.0881    2.3923 S   0  0  0  0  0  0  0  0  0  0  0  0
   -4.5603   -7.7114    1.9664 C   0  0  0  0  0  0  0  0  0  0  0  0
   -3.4251   -8.6820    1.8352 C   0  0  0  0  0  0  0  0  0  0  0  0
   -2.8792   -8.6841    0.4102 C   0  0  0  0  0  0  0  0  0  0  0  0
   -5.8950   -7.9572    1.6514 C   0  0  0  0  0  0  0  0  0  0  0  0
   -6.7150   -6.8261    1.7873 C   0  0  0  0  0  0  0  0  0  0  0  0
   -8.4473   -6.8517    1.4831 Cl  0  0  0  0  0  0  0  0  0  0  0  0
   -6.4916   -9.5145    1.0954 Cl  0  0  0  0  0  0  0  0  0  0  0  0
   -6.5307   -3.6556    3.6003 C   0  0  0  0  0  0  0  0  0  0  0  0
   -5.6654   -4.0688    4.9804 S   0  0  0  0  0  0  0  0  0  0  0  0
   -7.1140   -4.0236   -0.0528 C   0  0  0  0  0  0  0  0  0  0  0  0
   -7.5956   -3.0397   -0.9211 C   0  0  0  0  0  0  0  0  0  0  0  0
   -8.1978   -1.7585    0.0011 S   0  0  0  0  0  0  0  0  0  0  0  0
   -7.1845   -2.8873   -2.3286 C   0  0  0  0  0  0  0  0  0  0  0  0
   -6.1024   -3.5570   -2.9046 C   0  0  0  0  0  0  0  0  0  0  0  0
   -5.5746   -2.8992   -4.0269 C   0  0  0  0  0  0  0  0  0  0  0  0
   -4.3773   -3.2353   -4.6895 C   0  0  0  0  0  0  0  0  0  0  0  0
   -3.5717   -4.3988   -4.2729 C   0  0  0  0  0  0  0  0  0  0  0  0
   -3.9892   -6.0029   -4.5573 S   0  0  0  0  0  0  0  0  0  0  0  0
   -2.6681   -6.6768   -3.7620 C   0  0  0  0  0  0  0  0  0  0  0  0
   -2.3591   -8.1416   -3.7258 C   0  0  0  0  0  0  0  0  0  0  0  0
   -1.5455   -8.5505   -4.9501 C   0  0  0  0  0  0  0  0  0  0  0  0
   -1.8699   -5.6447   -3.2702 C   0  0  0  0  0  0  0  0  0  0  0  0
   -0.3637   -5.9122   -2.4011 Cl  0  0  0  0  0  0  0  0  0  0  0  0
   -2.3868   -4.3672   -3.5384 C   0  0  0  0  0  0  0  0  0  0  0  0
   -1.6337   -2.8825   -2.9652 Cl  0  0  0  0  0  0  0  0  0  0  0  0
   -3.8945   -2.3114   -5.6359 C   0  0  0  0  0  0  0  0  0  0  0  0
   -4.5532   -1.1100   -5.9211 C   0  0  0  0  0  0  0  0  0  0  0  0
   -5.7933   -0.8133   -5.3183 C   0  0  0  0  0  0  0  0  0  0  0  0
   -6.5326    0.4231   -5.6426 C   0  0  0  0  0  0  0  0  0  0  0  0
   -6.9555    1.6307   -4.5466 S   0  0  0  0  0  0  0  0  0  0  0  0
   -7.7415    2.6208   -5.6590 C   0  0  0  0  0  0  0  0  0  0  0  0
   -8.3763    3.9398   -5.3294 C   0  0  0  0  0  0  0  0  0  0  0  0
   -7.5071    5.1019   -5.7986 C   0  0  0  0  0  0  0  0  0  0  0  0
   -7.6789    2.0158   -6.9133 C   0  0  0  0  0  0  0  0  0  0  0  0
   -6.9956    0.7885   -6.9054 C   0  0  0  0  0  0  0  0  0  0  0  0
   -6.7807   -0.2040   -8.3438 Cl  0  0  0  0  0  0  0  0  0  0  0  0
   -8.3817    2.7110   -8.3676 Cl  0  0  0  0  0  0  0  0  0  0  0  0
   -6.2617   -1.7234   -4.3517 C   0  0  0  0  0  0  0  0  0  0  0  0
   -7.5183   -1.5134   -3.2547 S   0  0  0  0  0  0  0  0  0  0  0  0
   -3.7712   -0.2163   -6.6719 C   0  0  0  0  0  0  0  0  0  0  0  0
   -2.5097   -0.7237   -6.9886 C   0  0  0  0  0  0  0  0  0  0  0  0
   -2.3816   -2.2855   -6.3633 S   0  0  0  0  0  0  0  0  0  0  0  0
   -1.3293    0.1087   -7.2410 C   0  0  0  0  0  0  0  0  0  0  0  0
   -1.0664    1.2807   -6.5324 C   0  0  0  0  0  0  0  0  0  0  0  0
    0.2936    1.6287   -6.5162 C   0  0  0  0  0  0  0  0  0  0  0  0
    0.8862    2.6223   -5.7056 C   0  0  0  0  0  0  0  0  0  0  0  0
    0.0764    3.5172   -4.8587 C   0  0  0  0  0  0  0  0  0  0  0  0
    0.1106    3.5429   -3.1765 S   0  0  0  0  0  0  0  0  0  0  0  0
   -1.0251    4.7709   -2.9917 C   0  0  0  0  0  0  0  0  0  0  0  0
   -1.4178    5.3695   -1.6759 C   0  0  0  0  0  0  0  0  0  0  0  0
   -0.4621    6.4942   -1.2929 C   0  0  0  0  0  0  0  0  0  0  0  0
   -1.4338    5.1938   -4.2576 C   0  0  0  0  0  0  0  0  0  0  0  0
   -2.5713    6.5074   -4.5206 Cl  0  0  0  0  0  0  0  0  0  0  0  0
   -0.8268    4.4789   -5.3034 C   0  0  0  0  0  0  0  0  0  0  0  0
   -1.1313    4.8106   -7.0031 Cl  0  0  0  0  0  0  0  0  0  0  0  0
    2.2891    2.6416   -5.6476 C   0  0  0  0  0  0  0  0  0  0  0  0
    3.0831    1.7510   -6.3758 C   0  0  0  0  0  0  0  0  0  0  0  0
    2.4930    0.7842   -7.2134 C   0  0  0  0  0  0  0  0  0  0  0  0
    3.2981   -0.1883   -7.9698 C   0  0  0  0  0  0  0  0  0  0  0  0
    3.4722   -0.1689   -9.6412 S   0  0  0  0  0  0  0  0  0  0  0  0
    4.6083   -1.4062   -9.7202 C   0  0  0  0  0  0  0  0  0  0  0  0
    5.3144   -1.8250  -10.9756 C   0  0  0  0  0  0  0  0  0  0  0  0
    6.4806   -0.8895  -11.2700 C   0  0  0  0  0  0  0  0  0  0  0  0
    4.8823   -1.8437   -8.4252 C   0  0  0  0  0  0  0  0  0  0  0  0
    4.1374   -1.1697   -7.4416 C   0  0  0  0  0  0  0  0  0  0  0  0
    4.2542   -1.5310   -5.7228 Cl  0  0  0  0  0  0  0  0  0  0  0  0
    6.0695   -3.0841   -8.0426 Cl  0  0  0  0  0  0  0  0  0  0  0  0
    1.0909    0.7414   -7.2470 C   0  0  0  0  0  0  0  0  0  0  0  0
    0.1218   -0.4828   -7.8706 S   0  0  0  0  0  0  0  0  0  0  0  0
    4.4489    1.8679   -6.0847 C   0  0  0  0  0  0  0  0  0  0  0  0
    4.7208    2.8117   -5.0985 C   0  0  0  0  0  0  0  0  0  0  0  0
    3.2768    3.5517   -4.6340 S   0  0  0  0  0  0  0  0  0  0  0  0
    5.9528    2.8410   -4.2996 C   0  0  0  0  0  0  0  0  0  0  0  0
    6.7701    1.7292   -4.1006 C   0  0  0  0  0  0  0  0  0  0  0  0
    7.6552    1.8776   -3.0255 C   0  0  0  0  0  0  0  0  0  0  0  0
    8.4801    0.8691   -2.4900 C   0  0  0  0  0  0  0  0  0  0  0  0
    8.4505   -0.5125   -3.0046 C   0  0  0  0  0  0  0  0  0  0  0  0
    9.7597   -1.3237   -3.6840 S   0  0  0  0  0  0  0  0  0  0  0  0
    8.9358   -2.7578   -3.9995 C   0  0  0  0  0  0  0  0  0  0  0  0
    9.5647   -3.9991   -4.5575 C   0  0  0  0  0  0  0  0  0  0  0  0
   10.1026   -4.8798   -3.4353 C   0  0  0  0  0  0  0  0  0  0  0  0
    7.6240   -2.6280   -3.5491 C   0  0  0  0  0  0  0  0  0  0  0  0
    6.4286   -3.9161   -3.6447 Cl  0  0  0  0  0  0  0  0  0  0  0  0
    7.3509   -1.3700   -2.9928 C   0  0  0  0  0  0  0  0  0  0  0  0
    5.7958   -0.9474   -2.2841 Cl  0  0  0  0  0  0  0  0  0  0  0  0
    9.2412    1.2092   -1.3608 C   0  0  0  0  0  0  0  0  0  0  0  0
    9.1791    2.4719   -0.7622 C   0  0  0  0  0  0  0  0  0  0  0  0
    8.3338    3.4706   -1.2851 C   0  0  0  0  0  0  0  0  0  0  0  0
    8.2105    4.7968   -0.6581 C   0  0  0  0  0  0  0  0  0  0  0  0
    8.7861    6.2264   -1.3261 S   0  0  0  0  0  0  0  0  0  0  0  0
    8.3518    7.2171   -0.0380 C   0  0  0  0  0  0  0  0  0  0  0  0
    8.6920    8.6720    0.0662 C   0  0  0  0  0  0  0  0  0  0  0  0
   10.0166    8.8642    0.7978 C   0  0  0  0  0  0  0  0  0  0  0  0
    7.7585    6.4292    0.9487 C   0  0  0  0  0  0  0  0  0  0  0  0
    7.6731    5.0726    0.5987 C   0  0  0  0  0  0  0  0  0  0  0  0
    6.9535    3.8464    1.6372 Cl  0  0  0  0  0  0  0  0  0  0  0  0
    7.1968    7.0616    2.4907 Cl  0  0  0  0  0  0  0  0  0  0  0  0
    7.5804    3.1377   -2.4220 C   0  0  0  0  0  0  0  0  0  0  0  0
    6.3604    4.0298   -3.1681 S   0  0  0  0  0  0  0  0  0  0  0  0
    9.9848    2.5775    0.3822 C   0  0  0  0  0  0  0  0  0  0  0  0
   10.6566    1.3974    0.6902 C   0  0  0  0  0  0  0  0  0  0  0  0
   10.2625    0.2262   -0.4570 S   0  0  0  0  0  0  0  0  0  0  0  0
    5.6684    1.9122    4.8664 H   0  0  0  0  0  0  0  0  0  0  0  0
    3.7097    2.7780    6.3469 H   0  0  0  0  0  0  0  0  0  0  0  0
    0.1311    6.5160    8.7162 H   0  0  0  0  0  0  0  0  0  0  0  0
    0.1561    6.3179    6.9302 H   0  0  0  0  0  0  0  0  0  0  0  0
   -2.1527    6.7644    7.7194 H   0  0  0  0  0  0  0  0  0  0  0  0
   -2.0445    5.0997    7.0297 H   0  0  0  0  0  0  0  0  0  0  0  0
   -2.0795    5.3398    8.8232 H   0  0  0  0  0  0  0  0  0  0  0  0
    4.0048   -5.3127    1.9456 H   0  0  0  0  0  0  0  0  0  0  0  0
    4.4213   -6.6135    3.1101 H   0  0  0  0  0  0  0  0  0  0  0  0
    1.5839   -5.8623    2.1361 H   0  0  0  0  0  0  0  0  0  0  0  0
    2.5362   -7.3313    1.6947 H   0  0  0  0  0  0  0  0  0  0  0  0
    1.9493   -7.1183    3.3890 H   0  0  0  0  0  0  0  0  0  0  0  0
    0.3759   -3.5187    6.6215 H   0  0  0  0  0  0  0  0  0  0  0  0
   -1.7014   -3.9429    8.1298 H   0  0  0  0  0  0  0  0  0  0  0  0
   -5.1431   -2.9281    9.5843 H   0  0  0  0  0  0  0  0  0  0  0  0
   -4.1432   -4.3757    9.3127 H   0  0  0  0  0  0  0  0  0  0  0  0
   -2.8283   -3.3772    6.1336 H   0  0  0  0  0  0  0  0  0  0  0  0
   -3.2004   -1.3114    5.5246 H   0  0  0  0  0  0  0  0  0  0  0  0
   -4.5200   -0.4105    7.9473 H   0  0  0  0  0  0  0  0  0  0  0  0
   -5.0297   -0.2266    6.2333 H   0  0  0  0  0  0  0  0  0  0  0  0
   -6.1942   -2.0829    7.8785 H   0  0  0  0  0  0  0  0  0  0  0  0
   -7.1953   -0.8743    5.3792 H   0  0  0  0  0  0  0  0  0  0  0  0
   -7.6459    3.8981    2.8008 H   0  0  0  0  0  0  0  0  0  0  0  0
   -9.4273    4.0732    2.7409 H   0  0  0  0  0  0  0  0  0  0  0  0
   -8.5089    5.0071    4.8539 H   0  0  0  0  0  0  0  0  0  0  0  0
   -9.5755    3.5919    5.1964 H   0  0  0  0  0  0  0  0  0  0  0  0
   -7.7749    3.4091    5.2688 H   0  0  0  0  0  0  0  0  0  0  0  0
   -2.6134   -8.4051    2.5418 H   0  0  0  0  0  0  0  0  0  0  0  0
   -3.7722   -9.7030    2.1013 H   0  0  0  0  0  0  0  0  0  0  0  0
   -2.4361   -7.6934    0.1670 H   0  0  0  0  0  0  0  0  0  0  0  0
   -3.6887   -8.9112   -0.3168 H   0  0  0  0  0  0  0  0  0  0  0  0
   -2.0882   -9.4558    0.3150 H   0  0  0  0  0  0  0  0  0  0  0  0
   -6.5842   -4.9025   -0.3932 H   0  0  0  0  0  0  0  0  0  0  0  0
   -5.6276   -4.4174   -2.4535 H   0  0  0  0  0  0  0  0  0  0  0  0
   -3.3097   -8.7156   -3.7156 H   0  0  0  0  0  0  0  0  0  0  0  0
   -1.7998   -8.3947   -2.7994 H   0  0  0  0  0  0  0  0  0  0  0  0
   -1.2971   -9.6294   -4.8908 H   0  0  0  0  0  0  0  0  0  0  0  0
   -0.5993   -7.9689   -4.9978 H   0  0  0  0  0  0  0  0  0  0  0  0
   -2.1328   -8.3721   -5.8787 H   0  0  0  0  0  0  0  0  0  0  0  0
   -8.5145    4.0173   -4.2320 H   0  0  0  0  0  0  0  0  0  0  0  0
   -9.3768    4.0043   -5.8059 H   0  0  0  0  0  0  0  0  0  0  0  0
   -7.3820    5.0771   -6.9021 H   0  0  0  0  0  0  0  0  0  0  0  0
   -6.5063    5.0584   -5.3173 H   0  0  0  0  0  0  0  0  0  0  0  0
   -7.9945    6.0624   -5.5248 H   0  0  0  0  0  0  0  0  0  0  0  0
   -4.0520    0.8137   -6.8571 H   0  0  0  0  0  0  0  0  0  0  0  0
   -1.8128    1.7767   -5.9218 H   0  0  0  0  0  0  0  0  0  0  0  0
   -2.4540    5.7643   -1.7279 H   0  0  0  0  0  0  0  0  0  0  0  0
   -1.3900    4.5828   -0.8895 H   0  0  0  0  0  0  0  0  0  0  0  0
   -0.4707    7.2914   -2.0660 H   0  0  0  0  0  0  0  0  0  0  0  0
   -0.7725    6.9341   -0.3209 H   0  0  0  0  0  0  0  0  0  0  0  0
    0.5726    6.1015   -1.1889 H   0  0  0  0  0  0  0  0  0  0  0  0
    5.6878   -2.8653  -10.8755 H   0  0  0  0  0  0  0  0  0  0  0  0
    4.5981   -1.7987  -11.8227 H   0  0  0  0  0  0  0  0  0  0  0  0
    6.1100    0.1414  -11.4480 H   0  0  0  0  0  0  0  0  0  0  0  0
    7.0096   -1.2322  -12.1834 H   0  0  0  0  0  0  0  0  0  0  0  0
    7.1994   -0.8834  -10.4231 H   0  0  0  0  0  0  0  0  0  0  0  0
    5.2101    1.2270   -6.5129 H   0  0  0  0  0  0  0  0  0  0  0  0
    6.6565    0.8058   -4.6564 H   0  0  0  0  0  0  0  0  0  0  0  0
   10.3967   -3.7171   -5.2366 H   0  0  0  0  0  0  0  0  0  0  0  0
    8.8202   -4.5701   -5.1493 H   0  0  0  0  0  0  0  0  0  0  0  0
   10.8824   -4.3361   -2.8583 H   0  0  0  0  0  0  0  0  0  0  0  0
   10.5537   -5.7994   -3.8653 H   0  0  0  0  0  0  0  0  0  0  0  0
    9.2829   -5.1763   -2.7480 H   0  0  0  0  0  0  0  0  0  0  0  0
    7.8866    9.2134    0.6050 H   0  0  0  0  0  0  0  0  0  0  0  0
    8.7721    9.1057   -0.9546 H   0  0  0  0  0  0  0  0  0  0  0  0
   10.8320    8.3198    0.2733 H   0  0  0  0  0  0  0  0  0  0  0  0
    9.9404    8.4875    1.8394 H   0  0  0  0  0  0  0  0  0  0  0  0
   10.2751    9.9430    0.8251 H   0  0  0  0  0  0  0  0  0  0  0  0
   10.0717    3.4731    0.9827 H   0  0  0  0  0  0  0  0  0  0  0  0
   11.3121    1.2540    1.5385 H   0  0  0  0  0  0  0  0  0  0  0  0
  1  2  2  0
  2  3  1  0
  3  4  2  0
  4  5  1  0
  5  6  1  0
  6  7  1  0
  7  8  1  0
  8  9  1  0
  7 10  2  0
 10 11  1  0
 10 12  1  0
 12 13  1  0
  4 14  1  0
 14 15  2  0
 15 16  1  0
 16 17  1  0
 17 18  1  0
 18 19  1  0
 19 20  1  0
 20 21  1  0
 19 22  2  0
 22 23  1  0
 23 24  1  0
 22 25  1  0
 16 26  2  0
 26 27  1  0
 15 28  1  0
 28 29  2  0
 29 30  1  0
 29 31  1  0
 31 32  1  0
 32 33  1  0
 33 34  1  0
 34 35  1  0
 35 36  1  0
 36 37  1  0
 37 38  1  0
 38 39  1  0
 39 40  2  0
 40 41  1  0
 41 42  2  0
 42 43  1  0
 43 44  1  0
 44 45  1  0
 45 46  1  0
 46 47  1  0
 45 48  2  0
 48 49  1  0
 48 50  1  0
 50 51  1  0
 42 52  1  0
 52 53  2  0
 53 54  1  0
 54 55  1  0
 55 56  1  0
 56 57  1  0
 57 58  1  0
 58 59  1  0
 57 60  2  0
 60 61  1  0
 61 62  1  0
 60 63  1  0
 54 64  2  0
 64 65  1  0
 53 66  1  0
 66 67  2  0
 67 68  1  0
 67 69  1  0
 69 70  2  0
 70 71  1  0
 71 72  2  0
 72 73  1  0
 73 74  1  0
 74 75  1  0
 75 76  1  0
 76 77  1  0
 75 78  2  0
 78 79  1  0
 78 80  1  0
 80 81  1  0
 72 82  1  0
 82 83  2  0
 83 84  1  0
 84 85  1  0
 85 86  1  0
 86 87  1  0
 87 88  1  0
 88 89  1  0
 87 90  2  0
 90 91  1  0
 91 92  1  0
 90 93  1  0
 84 94  2  0
 94 95  1  0
 83 96  1  0
 96 97  2  0
 97 98  1  0
 97 99  1  0
 99100  2  0
100101  1  0
101102  2  0
102103  1  0
103104  1  0
104105  1  0
105106  1  0
106107  1  0
105108  2  0
108109  1  0
108110  1  0
110111  1  0
102112  1  0
112113  2  0
113114  1  0
114115  1  0
115116  1  0
116117  1  0
117118  1  0
118119  1  0
117120  2  0
120121  1  0
121122  1  0
120123  1  0
114124  2  0
124125  1  0
113126  1  0
126127  2  0
127128  1  0
127129  1  0
129130  2  0
130131  1  0
131132  2  0
132133  1  0
133134  1  0
134135  1  0
135136  1  0
136137  1  0
135138  2  0
138139  1  0
138140  1  0
140141  1  0
132142  1  0
142143  2  0
143144  1  0
144145  1  0
145146  1  0
146147  1  0
147148  1  0
148149  1  0
147150  2  0
150151  1  0
151152  1  0
150153  1  0
144154  2  0
154155  1  0
143156  1  0
156157  2  0
157158  1  0
 27  1  1  0
 35 31  1  0
 65 39  1  0
 95 69  1  0
125 99  1  0
155129  1  0
 26  3  1  0
 38 34  1  0
 64 41  1  0
 94 71  1  0
124101  1  0
154131  1  0
 12  5  2  0
 30 14  1  0
 50 43  2  0
 68 52  1  0
 80 73  2  0
 98 82  1  0
110103  2  0
128112  1  0
140133  2  0
158142  1  0
 23 17  2  0
 61 55  2  0
 91 85  2  0
121115  2  0
151145  2  0
  1159  1  0
  2160  1  0
  8161  1  0
  8162  1  0
  9163  1  0
  9164  1  0
  9165  1  0
 20166  1  0
 20167  1  0
 21168  1  0
 21169  1  0
 21170  1  0
 28171  1  0
 31172  1  0
 33173  1  0
 33174  1  0
 35175  1  6
 36176  1  0
 37177  1  0
 37178  1  0
 38179  1  0
 40180  1  0
 46181  1  0
 46182  1  0
 47183  1  0
 47184  1  0
 47185  1  0
 58186  1  0
 58187  1  0
 59188  1  0
 59189  1  0
 59190  1  0
 66191  1  0
 70192  1  0
 76193  1  0
 76194  1  0
 77195  1  0
 77196  1  0
 77197  1  0
 88198  1  0
 88199  1  0
 89200  1  0
 89201  1  0
 89202  1  0
 96203  1  0
100204  1  0
106205  1  0
106206  1  0
107207  1  0
107208  1  0
107209  1  0
118210  1  0
118211  1  0
119212  1  0
119213  1  0
119214  1  0
126215  1  0
130216  1  0
136217  1  0
136218  1  0
137219  1  0
137220  1  0
137221  1  0
148222  1  0
148223  1  0
149224  1  0
149225  1  0
149226  1  0
156227  1  0
157228  1  0
M  END

