
     RDKit          3D

232253  0  0  0  0  0  0  0  0999 V2000
    0.9876   -5.1463   10.1949 C   0  0  0  0  0  0  0  0  0  0  0  0
    1.8597   -6.1223   10.3482 O   0  0  0  0  0  0  0  0  0  0  0  0
    1.9473   -6.4299   11.6236 C   0  0  0  0  0  0  0  0  0  0  0  0
    1.0960   -5.6210   12.3490 C   0  0  0  0  0  0  0  0  0  0  0  0
    0.8806   -5.6864   13.7653 N   0  0  0  0  0  4  0  0  0  0  0  0
    1.6980   -6.4787   14.5392 O   0  0  0  0  0  1  0  0  0  0  0  0
   -0.1308   -5.1746   14.2842 O   0  0  0  0  0  0  0  0  0  0  0  0
    0.4699   -4.7993   11.4312 C   0  0  0  0  0  0  0  0  0  0  0  0
   -0.4300   -3.7188   11.7095 N   0  0  0  0  0  0  0  0  0  0  0  0
   -1.2025   -3.0875   10.6797 C   0  0  0  0  0  0  0  0  0  0  0  0
   -1.8977   -1.9770   10.9356 C   0  0  0  0  0  0  0  0  0  0  0  0
   -2.7052   -1.2688    9.9244 C   0  0  0  0  0  0  0  0  0  0  0  0
   -3.6882   -0.4557   10.2510 O   0  0  0  0  0  0  0  0  0  0  0  0
   -4.2123    0.0612    9.1611 C   0  0  0  0  0  0  0  0  0  0  0  0
   -3.5443   -0.4296    8.0571 C   0  0  0  0  0  0  0  0  0  0  0  0
   -3.7282    0.0258    6.7090 N   0  0  0  0  0  4  0  0  0  0  0  0
   -4.8282    0.7861    6.3882 O   0  0  0  0  0  1  0  0  0  0  0  0
   -2.8452   -0.1567    5.8471 O   0  0  0  0  0  0  0  0  0  0  0  0
   -2.5810   -1.2973    8.5412 C   0  0  0  0  0  0  0  0  0  0  0  0
   -1.5499   -1.9552    7.7895 N   0  0  0  0  0  0  0  0  0  0  0  0
   -1.7886   -2.7850    6.6421 C   0  0  0  0  0  0  0  0  0  0  0  0
   -3.0023   -3.2755    6.3441 C   0  0  0  0  0  0  0  0  0  0  0  0
   -3.2883   -3.9903    5.0886 C   0  0  0  0  0  0  0  0  0  0  0  0
   -2.3606   -4.4299    4.1402 C   0  0  0  0  0  0  0  0  0  0  0  0
   -2.9554   -4.8462    2.9376 C   0  0  0  0  0  0  0  0  0  0  0  0
   -2.2777   -5.1876    1.7470 C   0  0  0  0  0  0  0  0  0  0  0  0
   -0.8027   -5.1067    1.6261 C   0  0  0  0  0  0  0  0  0  0  0  0
   -0.1321   -3.8973    1.8767 C   0  0  0  0  0  0  0  0  0  0  0  0
    1.2522   -3.8087    1.7064 C   0  0  0  0  0  0  0  0  0  0  0  0
    1.9761   -4.9175    1.2562 C   0  0  0  0  0  0  0  0  0  0  0  0
    3.7455   -4.7785    0.9993 S   0  0  0  0  0  0  0  0  0  0  0  0
    4.1585   -5.2363    2.7147 C   0  0  0  0  0  0  0  0  0  0  0  0
    5.6629   -5.3894    2.8637 C   0  0  0  0  0  0  0  0  0  0  0  0
    1.3121   -6.1221    0.9861 C   0  0  0  0  0  0  0  0  0  0  0  0
    2.0023   -7.1984    0.5315 F   0  0  0  0  0  0  0  0  0  0  0  0
   -0.0700   -6.2165    1.1760 C   0  0  0  0  0  0  0  0  0  0  0  0
   -3.0733   -5.4373    0.6166 C   0  0  0  0  0  0  0  0  0  0  0  0
   -4.4680   -5.3405    0.6371 C   0  0  0  0  0  0  0  0  0  0  0  0
   -5.1494   -5.0312    1.8351 C   0  0  0  0  0  0  0  0  0  0  0  0
   -6.6104   -4.8114    1.8740 C   0  0  0  0  0  0  0  0  0  0  0  0
   -7.1895   -3.7598    1.1449 C   0  0  0  0  0  0  0  0  0  0  0  0
   -8.5709   -3.5565    1.1777 C   0  0  0  0  0  0  0  0  0  0  0  0
   -9.3870   -4.3966    1.9430 C   0  0  0  0  0  0  0  0  0  0  0  0
  -11.1614   -4.1150    1.9972 S   0  0  0  0  0  0  0  0  0  0  0  0
  -11.5615   -5.2809    0.6474 C   0  0  0  0  0  0  0  0  0  0  0  0
  -11.4307   -4.6059   -0.7117 C   0  0  0  0  0  0  0  0  0  0  0  0
   -8.8110   -5.4324    2.6937 C   0  0  0  0  0  0  0  0  0  0  0  0
   -7.4277   -5.6389    2.6571 C   0  0  0  0  0  0  0  0  0  0  0  0
   -9.5884   -6.2434    3.4527 F   0  0  0  0  0  0  0  0  0  0  0  0
   -4.3533   -4.7875    2.9693 C   0  0  0  0  0  0  0  0  0  0  0  0
   -4.8399   -4.1774    4.4617 S   0  0  0  0  0  0  0  0  0  0  0  0
   -5.0429   -5.4008   -0.6460 C   0  0  0  0  0  0  0  0  0  0  0  0
   -4.1017   -5.4595   -1.6771 C   0  0  0  0  0  0  0  0  0  0  0  0
   -2.5654   -5.5389   -0.9783 S   0  0  0  0  0  0  0  0  0  0  0  0
   -4.3151   -4.8909   -3.0214 C   0  0  0  0  0  0  0  0  0  0  0  0
   -5.2462   -3.8770   -3.2607 C   0  0  0  0  0  0  0  0  0  0  0  0
   -4.8446   -2.9657   -4.2517 C   0  0  0  0  0  0  0  0  0  0  0  0
   -5.4138   -1.6904   -4.4524 C   0  0  0  0  0  0  0  0  0  0  0  0
   -6.6851   -1.3141   -3.7932 C   0  0  0  0  0  0  0  0  0  0  0  0
   -7.8654   -1.9932   -4.1319 C   0  0  0  0  0  0  0  0  0  0  0  0
   -9.0651   -1.6888   -3.4842 C   0  0  0  0  0  0  0  0  0  0  0  0
   -9.1006   -0.6990   -2.4992 C   0  0  0  0  0  0  0  0  0  0  0  0
  -10.6492   -0.3236   -1.6700 S   0  0  0  0  0  0  0  0  0  0  0  0
  -11.0933    1.0705   -2.7682 C   0  0  0  0  0  0  0  0  0  0  0  0
  -11.6894    0.5766   -4.0817 C   0  0  0  0  0  0  0  0  0  0  0  0
   -7.9204   -0.0319   -2.1392 C   0  0  0  0  0  0  0  0  0  0  0  0
   -7.9381    0.9138   -1.1664 F   0  0  0  0  0  0  0  0  0  0  0  0
   -6.7167   -0.3409   -2.7814 C   0  0  0  0  0  0  0  0  0  0  0  0
   -4.6447   -0.7615   -5.1813 C   0  0  0  0  0  0  0  0  0  0  0  0
   -3.4215   -1.1023   -5.7702 C   0  0  0  0  0  0  0  0  0  0  0  0
   -2.9045   -2.4084   -5.6519 C   0  0  0  0  0  0  0  0  0  0  0  0
   -1.5346   -2.7203   -6.1045 C   0  0  0  0  0  0  0  0  0  0  0  0
   -1.2504   -2.8125   -7.4738 C   0  0  0  0  0  0  0  0  0  0  0  0
    0.0648   -3.0137   -7.9059 C   0  0  0  0  0  0  0  0  0  0  0  0
    1.1032   -3.1294   -6.9723 C   0  0  0  0  0  0  0  0  0  0  0  0
    2.7921   -3.3622   -7.5380 S   0  0  0  0  0  0  0  0  0  0  0  0
    2.7846   -5.1817   -7.3416 C   0  0  0  0  0  0  0  0  0  0  0  0
    2.0841   -5.8578   -8.5140 C   0  0  0  0  0  0  0  0  0  0  0  0
    0.8229   -3.0188   -5.6029 C   0  0  0  0  0  0  0  0  0  0  0  0
   -0.4902   -2.8161   -5.1708 C   0  0  0  0  0  0  0  0  0  0  0  0
    1.8215   -3.0977   -4.6881 F   0  0  0  0  0  0  0  0  0  0  0  0
   -3.6320   -3.3085   -4.8531 C   0  0  0  0  0  0  0  0  0  0  0  0
   -3.0577   -4.7154   -4.1356 S   0  0  0  0  0  0  0  0  0  0  0  0
   -2.6857    0.0117   -6.2072 C   0  0  0  0  0  0  0  0  0  0  0  0
   -3.2752    1.2315   -5.8862 C   0  0  0  0  0  0  0  0  0  0  0  0
   -4.7705    0.9168   -5.1573 S   0  0  0  0  0  0  0  0  0  0  0  0
   -2.4304    2.3758   -5.5100 C   0  0  0  0  0  0  0  0  0  0  0  0
   -2.2028    2.6826   -4.1691 C   0  0  0  0  0  0  0  0  0  0  0  0
   -0.9507    3.2648   -3.9335 C   0  0  0  0  0  0  0  0  0  0  0  0
   -0.3722    3.4793   -2.6676 C   0  0  0  0  0  0  0  0  0  0  0  0
   -1.0814    3.1559   -1.4106 C   0  0  0  0  0  0  0  0  0  0  0  0
   -1.3467    1.8193   -1.0702 C   0  0  0  0  0  0  0  0  0  0  0  0
   -1.9839    1.5139    0.1365 C   0  0  0  0  0  0  0  0  0  0  0  0
   -2.3668    2.5400    1.0089 C   0  0  0  0  0  0  0  0  0  0  0  0
   -3.2020    2.1464    2.5477 S   0  0  0  0  0  0  0  0  0  0  0  0
   -4.8427    1.9901    1.7660 C   0  0  0  0  0  0  0  0  0  0  0  0
   -5.9350    2.0380    2.8258 C   0  0  0  0  0  0  0  0  0  0  0  0
   -2.0917    3.8751    0.6770 C   0  0  0  0  0  0  0  0  0  0  0  0
   -2.4350    4.8757    1.5230 F   0  0  0  0  0  0  0  0  0  0  0  0
   -1.4419    4.1797   -0.5230 C   0  0  0  0  0  0  0  0  0  0  0  0
    0.9689    3.8890   -2.6455 C   0  0  0  0  0  0  0  0  0  0  0  0
    1.7171    4.1022   -3.8079 C   0  0  0  0  0  0  0  0  0  0  0  0
    1.1190    3.9411   -5.0803 C   0  0  0  0  0  0  0  0  0  0  0  0
    1.8466    4.2201   -6.3374 C   0  0  0  0  0  0  0  0  0  0  0  0
    1.3715    5.2130   -7.2074 C   0  0  0  0  0  0  0  0  0  0  0  0
    2.0675    5.5203   -8.3776 C   0  0  0  0  0  0  0  0  0  0  0  0
    3.2555    4.8465   -8.6883 C   0  0  0  0  0  0  0  0  0  0  0  0
    4.1335    5.2455  -10.2055 S   0  0  0  0  0  0  0  0  0  0  0  0
    4.9578    6.7466   -9.5638 C   0  0  0  0  0  0  0  0  0  0  0  0
    6.1601    6.3924   -8.6967 C   0  0  0  0  0  0  0  0  0  0  0  0
    3.7248    3.8408   -7.8316 C   0  0  0  0  0  0  0  0  0  0  0  0
    3.0214    3.5244   -6.6648 C   0  0  0  0  0  0  0  0  0  0  0  0
    4.8577    3.1575   -8.1343 F   0  0  0  0  0  0  0  0  0  0  0  0
   -0.2156    3.4908   -5.1004 C   0  0  0  0  0  0  0  0  0  0  0  0
   -1.0898    2.8910   -6.4077 S   0  0  0  0  0  0  0  0  0  0  0  0
    3.0715    4.3795   -3.5415 C   0  0  0  0  0  0  0  0  0  0  0  0
    3.3750    4.3447   -2.1795 C   0  0  0  0  0  0  0  0  0  0  0  0
    1.9702    4.0176   -1.3066 S   0  0  0  0  0  0  0  0  0  0  0  0
    4.7239    4.3184   -1.5972 C   0  0  0  0  0  0  0  0  0  0  0  0
    4.9940    4.2737   -0.2306 C   0  0  0  0  0  0  0  0  0  0  0  0
    6.3392    3.9996    0.0573 C   0  0  0  0  0  0  0  0  0  0  0  0
    6.8929    3.8157    1.3402 C   0  0  0  0  0  0  0  0  0  0  0  0
    6.0761    3.8967    2.5690 C   0  0  0  0  0  0  0  0  0  0  0  0
    5.0283    2.9869    2.7808 C   0  0  0  0  0  0  0  0  0  0  0  0
    4.2800    3.0393    3.9594 C   0  0  0  0  0  0  0  0  0  0  0  0
    4.5856    3.9835    4.9460 C   0  0  0  0  0  0  0  0  0  0  0  0
    3.6496    4.0057    6.4778 S   0  0  0  0  0  0  0  0  0  0  0  0
    4.6618    2.7247    7.3046 C   0  0  0  0  0  0  0  0  0  0  0  0
    5.9262    3.3252    7.9048 C   0  0  0  0  0  0  0  0  0  0  0  0
    5.6135    4.9111    4.7266 C   0  0  0  0  0  0  0  0  0  0  0  0
    5.8946    5.8583    5.6546 F   0  0  0  0  0  0  0  0  0  0  0  0
    6.3591    4.8611    3.5457 C   0  0  0  0  0  0  0  0  0  0  0  0
    8.2583    3.4915    1.3988 C   0  0  0  0  0  0  0  0  0  0  0  0
    9.0462    3.3275    0.2570 C   0  0  0  0  0  0  0  0  0  0  0  0
    8.4910    3.5014   -1.0294 C   0  0  0  0  0  0  0  0  0  0  0  0
    9.2758    3.2595   -2.2602 C   0  0  0  0  0  0  0  0  0  0  0  0
    9.4791    4.2906   -3.1897 C   0  0  0  0  0  0  0  0  0  0  0  0
   10.2397    4.0639   -4.3416 C   0  0  0  0  0  0  0  0  0  0  0  0
   10.8027    2.8043   -4.5749 C   0  0  0  0  0  0  0  0  0  0  0  0
   11.8274    2.5316   -6.0245 S   0  0  0  0  0  0  0  0  0  0  0  0
   10.4769    1.8915   -7.0758 C   0  0  0  0  0  0  0  0  0  0  0  0
    9.7320    3.0327   -7.7565 C   0  0  0  0  0  0  0  0  0  0  0  0
   10.5999    1.7692   -3.6514 C   0  0  0  0  0  0  0  0  0  0  0  0
    9.8346    1.9929   -2.5031 C   0  0  0  0  0  0  0  0  0  0  0  0
   11.1416    0.5429   -3.8635 F   0  0  0  0  0  0  0  0  0  0  0  0
    7.1299    3.8536   -1.0888 C   0  0  0  0  0  0  0  0  0  0  0  0
    6.1557    4.0400   -2.4511 S   0  0  0  0  0  0  0  0  0  0  0  0
   10.3727    2.9688    0.5559 C   0  0  0  0  0  0  0  0  0  0  0  0
   10.6118    2.8328    1.9194 C   0  0  0  0  0  0  0  0  0  0  0  0
    9.1921    3.1669    2.7598 S   0  0  0  0  0  0  0  0  0  0  0  0
    0.7477   -4.6954    9.2421 H   0  0  0  0  0  0  0  0  0  0  0  0
    2.5888   -7.2031   12.0222 H   0  0  0  0  0  0  0  0  0  0  0  0
   -0.5038   -3.3566   12.6869 H   0  0  0  0  0  0  0  0  0  0  0  0
   -1.2448   -3.5409    9.7000 H   0  0  0  0  0  0  0  0  0  0  0  0
   -1.9091   -1.5813   11.9447 H   0  0  0  0  0  0  0  0  0  0  0  0
   -5.0220    0.7782    9.1574 H   0  0  0  0  0  0  0  0  0  0  0  0
   -0.5624   -1.8408    8.1082 H   0  0  0  0  0  0  0  0  0  0  0  0
   -0.9438   -3.0005    6.0053 H   0  0  0  0  0  0  0  0  0  0  0  0
   -3.8394   -3.0671    6.9959 H   0  0  0  0  0  0  0  0  0  0  0  0
   -1.2916   -4.4009    4.2925 H   0  0  0  0  0  0  0  0  0  0  0  0
   -0.6830   -3.0183    2.1867 H   0  0  0  0  0  0  0  0  0  0  0  0
    1.7570   -2.8741    1.9091 H   0  0  0  0  0  0  0  0  0  0  0  0
    3.8003   -4.4402    3.4035 H   0  0  0  0  0  0  0  0  0  0  0  0
    3.6639   -6.1946    2.9803 H   0  0  0  0  0  0  0  0  0  0  0  0
    6.0147   -6.2639    2.2775 H   0  0  0  0  0  0  0  0  0  0  0  0
    5.9167   -5.5545    3.9315 H   0  0  0  0  0  0  0  0  0  0  0  0
    6.1863   -4.4799    2.5062 H   0  0  0  0  0  0  0  0  0  0  0  0
   -0.5719   -7.1503    0.9561 H   0  0  0  0  0  0  0  0  0  0  0  0
   -6.5690   -3.0986    0.5506 H   0  0  0  0  0  0  0  0  0  0  0  0
   -9.0042   -2.7443    0.6067 H   0  0  0  0  0  0  0  0  0  0  0  0
  -10.9152   -6.1829    0.6926 H   0  0  0  0  0  0  0  0  0  0  0  0
  -12.6150   -5.6113    0.7792 H   0  0  0  0  0  0  0  0  0  0  0  0
  -10.3729   -4.3337   -0.9066 H   0  0  0  0  0  0  0  0  0  0  0  0
  -11.7654   -5.3035   -1.5064 H   0  0  0  0  0  0  0  0  0  0  0  0
  -12.0568   -3.6899   -0.7486 H   0  0  0  0  0  0  0  0  0  0  0  0
   -6.9918   -6.4475    3.2338 H   0  0  0  0  0  0  0  0  0  0  0  0
   -6.0976   -5.2584   -0.8317 H   0  0  0  0  0  0  0  0  0  0  0  0
   -6.0778   -3.6832   -2.5967 H   0  0  0  0  0  0  0  0  0  0  0  0
   -7.8529   -2.7644   -4.8933 H   0  0  0  0  0  0  0  0  0  0  0  0
   -9.9660   -2.2236   -3.7556 H   0  0  0  0  0  0  0  0  0  0  0  0
  -10.2106    1.7146   -2.9664 H   0  0  0  0  0  0  0  0  0  0  0  0
  -11.8532    1.6877   -2.2428 H   0  0  0  0  0  0  0  0  0  0  0  0
  -12.5402   -0.1103   -3.8826 H   0  0  0  0  0  0  0  0  0  0  0  0
  -12.0577    1.4409   -4.6734 H   0  0  0  0  0  0  0  0  0  0  0  0
  -10.9208    0.0476   -4.6809 H   0  0  0  0  0  0  0  0  0  0  0  0
   -5.8068    0.1644   -2.4768 H   0  0  0  0  0  0  0  0  0  0  0  0
   -2.0460   -2.7118   -8.2019 H   0  0  0  0  0  0  0  0  0  0  0  0
    0.2727   -3.0774   -8.9651 H   0  0  0  0  0  0  0  0  0  0  0  0
    2.3016   -5.4765   -6.3843 H   0  0  0  0  0  0  0  0  0  0  0  0
    3.8401   -5.5287   -7.3114 H   0  0  0  0  0  0  0  0  0  0  0  0
    2.1728   -6.9602   -8.4119 H   0  0  0  0  0  0  0  0  0  0  0  0
    1.0066   -5.5927   -8.5249 H   0  0  0  0  0  0  0  0  0  0  0  0
    2.5509   -5.5455   -9.4716 H   0  0  0  0  0  0  0  0  0  0  0  0
   -0.6918   -2.7157   -4.1111 H   0  0  0  0  0  0  0  0  0  0  0  0
   -1.6559   -0.0589   -6.5320 H   0  0  0  0  0  0  0  0  0  0  0  0
   -2.8569    2.3428   -3.3786 H   0  0  0  0  0  0  0  0  0  0  0  0
   -1.0564    1.0169   -1.7392 H   0  0  0  0  0  0  0  0  0  0  0  0
   -2.1832    0.4802    0.3892 H   0  0  0  0  0  0  0  0  0  0  0  0
   -4.8993    1.0217    1.2214 H   0  0  0  0  0  0  0  0  0  0  0  0
   -5.0153    2.8166    1.0393 H   0  0  0  0  0  0  0  0  0  0  0  0
   -5.9472    3.0348    3.3133 H   0  0  0  0  0  0  0  0  0  0  0  0
   -5.7600    1.2574    3.5984 H   0  0  0  0  0  0  0  0  0  0  0  0
   -6.9200    1.8543    2.3525 H   0  0  0  0  0  0  0  0  0  0  0  0
   -1.2266    5.2137   -0.7661 H   0  0  0  0  0  0  0  0  0  0  0  0
    0.4683    5.7653   -6.9644 H   0  0  0  0  0  0  0  0  0  0  0  0
    1.6926    6.2934   -9.0369 H   0  0  0  0  0  0  0  0  0  0  0  0
    5.3049    7.3434  -10.4302 H   0  0  0  0  0  0  0  0  0  0  0  0
    4.2420    7.3706   -8.9874 H   0  0  0  0  0  0  0  0  0  0  0  0
    6.7041    7.3219   -8.4158 H   0  0  0  0  0  0  0  0  0  0  0  0
    6.8577    5.7292   -9.2570 H   0  0  0  0  0  0  0  0  0  0  0  0
    5.8334    5.8809   -7.7661 H   0  0  0  0  0  0  0  0  0  0  0  0
    3.3878    2.7388   -6.0147 H   0  0  0  0  0  0  0  0  0  0  0  0
    3.8224    4.5303   -4.3027 H   0  0  0  0  0  0  0  0  0  0  0  0
    4.2299    4.3874    0.5277 H   0  0  0  0  0  0  0  0  0  0  0  0
    4.7993    2.2329    2.0386 H   0  0  0  0  0  0  0  0  0  0  0  0
    3.4739    2.3314    4.1121 H   0  0  0  0  0  0  0  0  0  0  0  0
    4.9227    1.9114    6.5959 H   0  0  0  0  0  0  0  0  0  0  0  0
    4.0554    2.2835    8.1221 H   0  0  0  0  0  0  0  0  0  0  0  0
    6.5918    3.7126    7.1074 H   0  0  0  0  0  0  0  0  0  0  0  0
    5.6638    4.1469    8.6016 H   0  0  0  0  0  0  0  0  0  0  0  0
    6.4796    2.5418    8.4652 H   0  0  0  0  0  0  0  0  0  0  0  0
    7.1585    5.5759    3.3871 H   0  0  0  0  0  0  0  0  0  0  0  0
    9.0588    5.2727   -3.0122 H   0  0  0  0  0  0  0  0  0  0  0  0
   10.4035    4.8728   -5.0413 H   0  0  0  0  0  0  0  0  0  0  0  0
   10.9256    1.2437   -7.8592 H   0  0  0  0  0  0  0  0  0  0  0  0
    9.7715    1.2710   -6.4845 H   0  0  0  0  0  0  0  0  0  0  0  0
    9.2125    3.6611   -7.0032 H   0  0  0  0  0  0  0  0  0  0  0  0
   10.4419    3.6621   -8.3336 H   0  0  0  0  0  0  0  0  0  0  0  0
    8.9739    2.6203   -8.4557 H   0  0  0  0  0  0  0  0  0  0  0  0
    9.6807    1.1824   -1.8000 H   0  0  0  0  0  0  0  0  0  0  0  0
   11.1417    2.8105   -0.1889 H   0  0  0  0  0  0  0  0  0  0  0  0
   11.5554    2.5470    2.3651 H   0  0  0  0  0  0  0  0  0  0  0  0
  1  2  1  0
  2  3  1  0
  3  4  2  0
  4  5  1  0
  5  6  1  0
  5  7  2  0
  4  8  1  0
  8  9  1  0
  9 10  1  0
 10 11  2  3
 11 12  1  0
 12 13  1  0
 13 14  1  0
 14 15  2  0
 15 16  1  0
 16 17  1  0
 16 18  2  0
 15 19  1  0
 19 20  1  0
 20 21  1  0
 21 22  2  3
 22 23  1  0
 23 24  2  0
 24 25  1  0
 25 26  2  0
 26 27  1  0
 27 28  2  0
 28 29  1  0
 29 30  2  0
 30 31  1  0
 31 32  1  0
 32 33  1  0
 30 34  1  0
 34 35  1  0
 34 36  2  0
 26 37  1  0
 37 38  2  0
 38 39  1  0
 39 40  1  0
 40 41  2  0
 41 42  1  0
 42 43  2  0
 43 44  1  0
 44 45  1  0
 45 46  1  0
 43 47  1  0
 47 48  2  0
 47 49  1  0
 39 50  2  0
 50 51  1  0
 38 52  1  0
 52 53  2  0
 53 54  1  0
 53 55  1  0
 55 56  2  0
 56 57  1  0
 57 58  2  0
 58 59  1  0
 59 60  2  0
 60 61  1  0
 61 62  2  0
 62 63  1  0
 63 64  1  0
 64 65  1  0
 62 66  1  0
 66 67  1  0
 66 68  2  0
 58 69  1  0
 69 70  2  0
 70 71  1  0
 71 72  1  0
 72 73  2  0
 73 74  1  0
 74 75  2  0
 75 76  1  0
 76 77  1  0
 77 78  1  0
 75 79  1  0
 79 80  2  0
 79 81  1  0
 71 82  2  0
 82 83  1  0
 70 84  1  0
 84 85  2  0
 85 86  1  0
 85 87  1  0
 87 88  2  0
 88 89  1  0
 89 90  2  0
 90 91  1  0
 91 92  2  0
 92 93  1  0
 93 94  2  0
 94 95  1  0
 95 96  1  0
 96 97  1  0
 94 98  1  0
 98 99  1  0
 98100  2  0
 90101  1  0
101102  2  0
102103  1  0
103104  1  0
104105  2  0
105106  1  0
106107  2  0
107108  1  0
108109  1  0
109110  1  0
107111  1  0
111112  2  0
111113  1  0
103114  2  0
114115  1  0
102116  1  0
116117  2  0
117118  1  0
117119  1  0
119120  2  0
120121  1  0
121122  2  0
122123  1  0
123124  2  0
124125  1  0
125126  2  0
126127  1  0
127128  1  0
128129  1  0
126130  1  0
130131  1  0
130132  2  0
122133  1  0
133134  2  0
134135  1  0
135136  1  0
136137  2  0
137138  1  0
138139  2  0
139140  1  0
140141  1  0
141142  1  0
139143  1  0
143144  2  0
143145  1  0
135146  2  0
146147  1  0
134148  1  0
148149  2  0
149150  1  0
  8  1  2  0
 19 12  2  0
 51 23  1  0
 83 55  1  0
115 87  1  0
147119  1  0
 50 25  1  0
 82 57  1  0
114 89  1  0
146121  1  0
 36 27  1  0
 54 37  1  0
 68 59  1  0
 86 69  1  0
100 91  1  0
118101  1  0
132123  1  0
150133  1  0
 48 40  1  0
 80 72  1  0
112104  1  0
144136  1  0
  1151  1  0
  3152  1  0
  9153  1  0
 10154  1  0
 11155  1  0
 14156  1  0
 20157  1  0
 21158  1  0
 22159  1  0
 24160  1  0
 28161  1  0
 29162  1  0
 32163  1  0
 32164  1  0
 33165  1  0
 33166  1  0
 33167  1  0
 36168  1  0
 41169  1  0
 42170  1  0
 45171  1  0
 45172  1  0
 46173  1  0
 46174  1  0
 46175  1  0
 48176  1  0
 52177  1  0
 56178  1  0
 60179  1  0
 61180  1  0
 64181  1  0
 64182  1  0
 65183  1  0
 65184  1  0
 65185  1  0
 68186  1  0
 73187  1  0
 74188  1  0
 77189  1  0
 77190  1  0
 78191  1  0
 78192  1  0
 78193  1  0
 80194  1  0
 84195  1  0
 88196  1  0
 92197  1  0
 93198  1  0
 96199  1  0
 96200  1  0
 97201  1  0
 97202  1  0
 97203  1  0
100204  1  0
105205  1  0
106206  1  0
109207  1  0
109208  1  0
110209  1  0
110210  1  0
110211  1  0
112212  1  0
116213  1  0
120214  1  0
124215  1  0
125216  1  0
128217  1  0
128218  1  0
129219  1  0
129220  1  0
129221  1  0
132222  1  0
137223  1  0
138224  1  0
141225  1  0
141226  1  0
142227  1  0
142228  1  0
142229  1  0
144230  1  0
148231  1  0
149232  1  0
M  CHG  4   5   1   6  -1  16   1  17  -1
M  END

