
     RDKit          3D

274302  0  0  0  0  0  0  0  0999 V2000
    6.7171   11.6807   12.9996 C   0  0  0  0  0  0  0  0  0  0  0  0
    5.8991   10.6781   13.5173 C   0  0  0  0  0  0  0  0  0  0  0  0
    5.8745    9.5150   12.7277 C   0  0  0  0  0  0  0  0  0  0  0  0
    5.1128    8.3498   12.9711 C   0  0  0  0  0  0  0  0  0  0  0  0
    4.3206    8.1819   14.2009 C   0  0  0  0  0  0  0  0  0  0  0  0
    2.6484    7.9732   14.2695 S   0  0  0  0  0  0  0  0  0  0  0  0
    2.5550    7.8464   15.9505 C   0  0  0  0  0  0  0  0  0  0  0  0
    1.2829    7.7294   16.7291 C   0  0  0  0  0  0  0  0  0  0  0  0
    0.7739    9.1122   17.1302 C   0  0  0  0  0  0  0  0  0  0  0  0
    3.8385    7.9778   16.4781 C   0  0  0  0  0  0  0  0  0  0  0  0
    4.1956    7.9121   18.1972 Cl  0  0  0  0  0  0  0  0  0  0  0  0
    4.8291    8.1532   15.5021 C   0  0  0  0  0  0  0  0  0  0  0  0
    6.5444    8.2442   15.8763 Cl  0  0  0  0  0  0  0  0  0  0  0  0
    5.1812    7.3337   11.9995 C   0  0  0  0  0  0  0  0  0  0  0  0
    6.0000    7.4376   10.8693 C   0  0  0  0  0  0  0  0  0  0  0  0
    6.7669    8.5965   10.6315 C   0  0  0  0  0  0  0  0  0  0  0  0
    7.5932    8.7545    9.4108 C   0  0  0  0  0  0  0  0  0  0  0  0
    6.9889    8.7658    7.8403 S   0  0  0  0  0  0  0  0  0  0  0  0
    8.4787    8.8879    7.0731 C   0  0  0  0  0  0  0  0  0  0  0  0
    8.6730    8.9198    5.5790 C   0  0  0  0  0  0  0  0  0  0  0  0
    8.5982   10.3478    5.0621 C   0  0  0  0  0  0  0  0  0  0  0  0
    9.4748    8.9501    8.0452 C   0  0  0  0  0  0  0  0  0  0  0  0
    8.9807    8.8655    9.3540 C   0  0  0  0  0  0  0  0  0  0  0  0
   10.0187    8.8523   10.7716 Cl  0  0  0  0  0  0  0  0  0  0  0  0
   11.1887    9.1232    7.6748 Cl  0  0  0  0  0  0  0  0  0  0  0  0
    6.6721    9.6169   11.5856 C   0  0  0  0  0  0  0  0  0  0  0  0
    7.3931   11.1419   11.5508 S   0  0  0  0  0  0  0  0  0  0  0  0
    5.9453    6.3108   10.0419 C   0  0  0  0  0  0  0  0  0  0  0  0
    5.0585    5.3352   10.4937 C   0  0  0  0  0  0  0  0  0  0  0  0
    4.3541    5.8613   11.9383 S   0  0  0  0  0  0  0  0  0  0  0  0
    4.6298    4.1933    9.6676 C   0  0  0  0  0  0  0  0  0  0  0  0
    3.3262    3.6956    9.6136 C   0  0  0  0  0  0  0  0  0  0  0  0
    3.0480    3.0359    8.3955 C   0  0  0  0  0  0  0  0  0  0  0  0
    1.7832    2.6099    7.9310 C   0  0  0  0  0  0  0  0  0  0  0  0
    0.6079    2.4849    8.8140 C   0  0  0  0  0  0  0  0  0  0  0  0
   -0.1271    3.7312    9.6772 S   0  0  0  0  0  0  0  0  0  0  0  0
   -1.3183    2.7746   10.3889 C   0  0  0  0  0  0  0  0  0  0  0  0
   -2.2952    3.2495   11.4237 C   0  0  0  0  0  0  0  0  0  0  0  0
   -1.7270    3.0519   12.8266 C   0  0  0  0  0  0  0  0  0  0  0  0
   -1.1466    1.4629    9.9633 C   0  0  0  0  0  0  0  0  0  0  0  0
   -2.1449    0.1221   10.5138 Cl  0  0  0  0  0  0  0  0  0  0  0  0
   -0.0750    1.2976    9.0787 C   0  0  0  0  0  0  0  0  0  0  0  0
    0.3914   -0.2642    8.4328 Cl  0  0  0  0  0  0  0  0  0  0  0  0
    1.6874    2.2874    6.5645 C   0  0  0  0  0  0  0  0  0  0  0  0
    2.7985    2.2867    5.7156 C   0  0  0  0  0  0  0  0  0  0  0  0
    4.0851    2.5315    6.2196 C   0  0  0  0  0  0  0  0  0  0  0  0
    5.2970    2.4535    5.3815 C   0  0  0  0  0  0  0  0  0  0  0  0
    5.6936    3.5051    4.1313 S   0  0  0  0  0  0  0  0  0  0  0  0
    7.1818    2.7960    3.7772 C   0  0  0  0  0  0  0  0  0  0  0  0
    8.0896    3.2279    2.6611 C   0  0  0  0  0  0  0  0  0  0  0  0
    7.9355    2.3104    1.4526 C   0  0  0  0  0  0  0  0  0  0  0  0
    7.3803    1.7196    4.6401 C   0  0  0  0  0  0  0  0  0  0  0  0
    6.3270    1.5360    5.5418 C   0  0  0  0  0  0  0  0  0  0  0  0
    6.3001    0.2384    6.7282 Cl  0  0  0  0  0  0  0  0  0  0  0  0
    8.7954    0.6791    4.5891 Cl  0  0  0  0  0  0  0  0  0  0  0  0
    4.1654    2.9544    7.5505 C   0  0  0  0  0  0  0  0  0  0  0  0
    5.4578    3.7268    8.2776 S   0  0  0  0  0  0  0  0  0  0  0  0
    2.4676    2.1445    4.3640 C   0  0  0  0  0  0  0  0  0  0  0  0
    1.0950    2.0671    4.1468 C   0  0  0  0  0  0  0  0  0  0  0  0
    0.2927    2.1237    5.6327 S   0  0  0  0  0  0  0  0  0  0  0  0
    0.4592    2.3008    2.8501 C   0  0  0  0  0  0  0  0  0  0  0  0
   -0.6722    1.6642    2.3532 C   0  0  0  0  0  0  0  0  0  0  0  0
   -1.0325    2.1235    1.0694 C   0  0  0  0  0  0  0  0  0  0  0  0
   -2.0469    1.5925    0.2420 C   0  0  0  0  0  0  0  0  0  0  0  0
   -2.8812    0.4535    0.6783 C   0  0  0  0  0  0  0  0  0  0  0  0
   -3.9141    0.4623    2.0116 S   0  0  0  0  0  0  0  0  0  0  0  0
   -4.2976   -1.1762    1.9632 C   0  0  0  0  0  0  0  0  0  0  0  0
   -5.1499   -1.8879    2.9732 C   0  0  0  0  0  0  0  0  0  0  0  0
   -4.2895   -2.6223    4.0017 C   0  0  0  0  0  0  0  0  0  0  0  0
   -3.5865   -1.7633    0.9193 C   0  0  0  0  0  0  0  0  0  0  0  0
   -3.5724   -3.4935    0.6008 Cl  0  0  0  0  0  0  0  0  0  0  0  0
   -2.8031   -0.8549    0.1979 C   0  0  0  0  0  0  0  0  0  0  0  0
   -1.7693   -1.3406   -1.1396 Cl  0  0  0  0  0  0  0  0  0  0  0  0
   -2.1319    2.1150   -1.0667 C   0  0  0  0  0  0  0  0  0  0  0  0
   -1.2728    3.1127   -1.5403 C   0  0  0  0  0  0  0  0  0  0  0  0
   -0.3056    3.6799   -0.6907 C   0  0  0  0  0  0  0  0  0  0  0  0
    0.5695    4.7847   -1.1188 C   0  0  0  0  0  0  0  0  0  0  0  0
    1.7565    4.6819   -2.3081 S   0  0  0  0  0  0  0  0  0  0  0  0
    2.3036    6.2682   -2.1443 C   0  0  0  0  0  0  0  0  0  0  0  0
    3.3502    6.9083   -3.0099 C   0  0  0  0  0  0  0  0  0  0  0  0
    2.7084    7.6928   -4.1507 C   0  0  0  0  0  0  0  0  0  0  0  0
    1.5490    6.9011   -1.1579 C   0  0  0  0  0  0  0  0  0  0  0  0
    0.5816    6.0651   -0.5788 C   0  0  0  0  0  0  0  0  0  0  0  0
   -0.5223    6.6126    0.6740 Cl  0  0  0  0  0  0  0  0  0  0  0  0
    1.7566    8.5869   -0.7021 Cl  0  0  0  0  0  0  0  0  0  0  0  0
   -0.1941    3.1432    0.5961 C   0  0  0  0  0  0  0  0  0  0  0  0
    1.0033    3.4463    1.7341 S   0  0  0  0  0  0  0  0  0  0  0  0
   -1.4404    3.3882   -2.9081 C   0  0  0  0  0  0  0  0  0  0  0  0
   -2.4046    2.5907   -3.5201 C   0  0  0  0  0  0  0  0  0  0  0  0
   -3.0880    1.5838   -2.3528 S   0  0  0  0  0  0  0  0  0  0  0  0
   -2.4131    2.2729   -4.9523 C   0  0  0  0  0  0  0  0  0  0  0  0
   -3.5180    1.7924   -5.6541 C   0  0  0  0  0  0  0  0  0  0  0  0
   -3.1690    1.0238   -6.7763 C   0  0  0  0  0  0  0  0  0  0  0  0
   -4.0594    0.2671   -7.5601 C   0  0  0  0  0  0  0  0  0  0  0  0
   -5.5076    0.5892   -7.6272 C   0  0  0  0  0  0  0  0  0  0  0  0
   -6.7903   -0.5068   -7.5253 S   0  0  0  0  0  0  0  0  0  0  0  0
   -8.0033    0.5842   -7.9398 C   0  0  0  0  0  0  0  0  0  0  0  0
   -9.4516    0.2323   -8.1329 C   0  0  0  0  0  0  0  0  0  0  0  0
  -10.2942    0.6932   -6.9452 C   0  0  0  0  0  0  0  0  0  0  0  0
   -7.4250    1.8303   -8.1511 C   0  0  0  0  0  0  0  0  0  0  0  0
   -8.3395    3.2452   -8.6693 Cl  0  0  0  0  0  0  0  0  0  0  0  0
   -6.0334    1.8372   -7.9723 C   0  0  0  0  0  0  0  0  0  0  0  0
   -5.0413    3.2480   -8.3098 Cl  0  0  0  0  0  0  0  0  0  0  0  0
   -3.4899   -0.7932   -8.2916 C   0  0  0  0  0  0  0  0  0  0  0  0
   -2.1098   -1.0011   -8.3770 C   0  0  0  0  0  0  0  0  0  0  0  0
   -1.2205   -0.0690   -7.7894 C   0  0  0  0  0  0  0  0  0  0  0  0
    0.2367   -0.1198   -8.0034 C   0  0  0  0  0  0  0  0  0  0  0  0
    1.2727   -1.3591   -7.5313 S   0  0  0  0  0  0  0  0  0  0  0  0
    2.6767   -0.6546   -8.1424 C   0  0  0  0  0  0  0  0  0  0  0  0
    4.0435   -1.2656   -8.0513 C   0  0  0  0  0  0  0  0  0  0  0  0
    4.6380   -1.0589   -6.6644 C   0  0  0  0  0  0  0  0  0  0  0  0
    2.3504    0.5733   -8.7077 C   0  0  0  0  0  0  0  0  0  0  0  0
    0.9874    0.8804   -8.6190 C   0  0  0  0  0  0  0  0  0  0  0  0
    0.2904    2.3690   -9.2467 Cl  0  0  0  0  0  0  0  0  0  0  0  0
    3.5333    1.6373   -9.4596 Cl  0  0  0  0  0  0  0  0  0  0  0  0
   -1.7891    0.8963   -6.9444 C   0  0  0  0  0  0  0  0  0  0  0  0
   -1.0053    1.7735   -5.7426 S   0  0  0  0  0  0  0  0  0  0  0  0
   -1.7683   -2.2550   -8.9253 C   0  0  0  0  0  0  0  0  0  0  0  0
   -2.8708   -3.0924   -9.1636 C   0  0  0  0  0  0  0  0  0  0  0  0
   -4.2556   -2.1590   -8.8692 S   0  0  0  0  0  0  0  0  0  0  0  0
   -2.9126   -4.5605   -8.8831 C   0  0  0  0  0  0  0  0  0  0  0  0
   -2.0375   -5.0829   -7.9091 C   0  0  0  0  0  0  0  0  0  0  0  0
   -0.7040   -4.8440   -7.9556 N   0  0  0  0  0  0  0  0  0  0  0  0
    0.1462   -5.2309   -6.9655 C   0  0  0  0  0  0  0  0  0  0  0  0
    1.6078   -5.1647   -7.2580 C   0  0  0  0  0  0  0  0  0  0  0  0
    2.0428   -5.5387   -8.5389 C   0  0  0  0  0  0  0  0  0  0  0  0
    3.3858   -5.4521   -8.8929 C   0  0  0  0  0  0  0  0  0  0  0  0
    4.3395   -5.0006   -7.9674 C   0  0  0  0  0  0  0  0  0  0  0  0
    5.6968   -4.8295   -8.2923 O   0  0  0  0  0  0  0  0  0  0  0  0
    6.2526   -4.8777   -9.6078 C   0  0  0  0  0  0  0  0  0  0  0  0
    6.6373   -6.3047   -9.9744 C   0  0  0  0  0  0  0  0  0  0  0  0
    3.9295   -4.6585   -6.6697 C   0  0  0  0  0  0  0  0  0  0  0  0
    2.5583   -4.7067   -6.3279 C   0  0  0  0  0  0  0  0  0  0  0  0
    4.9201   -4.2413   -5.7671 O   0  0  0  0  0  0  0  0  0  0  0  0
    4.7538   -4.1155   -4.3580 C   0  0  0  0  0  0  0  0  0  0  0  0
    4.6244   -5.4858   -3.7113 C   0  0  0  0  0  0  0  0  0  0  0  0
   -0.4153   -5.8132   -5.7954 C   0  0  0  0  0  0  0  0  0  0  0  0
    0.3487   -6.0673   -4.5672 C   0  0  0  0  0  0  0  0  0  0  0  0
    0.8392   -7.3430   -4.2762 C   0  0  0  0  0  0  0  0  0  0  0  0
    1.5116   -7.5812   -3.0728 C   0  0  0  0  0  0  0  0  0  0  0  0
    1.7061   -6.5337   -2.1514 C   0  0  0  0  0  0  0  0  0  0  0  0
    2.4691   -6.6978   -0.9893 O   0  0  0  0  0  0  0  0  0  0  0  0
    3.5401   -7.6325   -0.8748 C   0  0  0  0  0  0  0  0  0  0  0  0
    4.5522   -7.0997    0.1518 C   0  0  0  0  0  0  0  0  0  0  0  0
    1.1778   -5.2628   -2.4205 C   0  0  0  0  0  0  0  0  0  0  0  0
    1.3935   -4.2335   -1.4899 O   0  0  0  0  0  0  0  0  0  0  0  0
    1.4851   -2.8546   -1.8332 C   0  0  0  0  0  0  0  0  0  0  0  0
    1.8042   -2.0341   -0.5948 C   0  0  0  0  0  0  0  0  0  0  0  0
    0.4770   -5.0395   -3.6200 C   0  0  0  0  0  0  0  0  0  0  0  0
   -1.7423   -6.1095   -5.7861 N   0  0  0  0  0  0  0  0  0  0  0  0
   -2.5526   -5.8286   -6.8373 C   0  0  0  0  0  0  0  0  0  0  0  0
   -3.9067   -6.2013   -6.8306 C   0  0  0  0  0  0  0  0  0  0  0  0
   -4.6731   -5.9839   -7.9853 C   0  0  0  0  0  0  0  0  0  0  0  0
   -4.1646   -5.1931   -9.0248 C   0  0  0  0  0  0  0  0  0  0  0  0
   -4.9964   -4.8362  -10.0373 F   0  0  0  0  0  0  0  0  0  0  0  0
   -5.9699   -6.3870   -8.0299 F   0  0  0  0  0  0  0  0  0  0  0  0
   -4.6060   -6.4958   -5.5696 C   0  0  0  0  0  0  0  0  0  0  0  0
   -4.7430   -7.7289   -4.9297 C   0  0  0  0  0  0  0  0  0  0  0  0
   -5.6564   -7.6782   -3.8557 C   0  0  0  0  0  0  0  0  0  0  0  0
   -6.0317   -8.7421   -3.0069 C   0  0  0  0  0  0  0  0  0  0  0  0
   -5.3999  -10.0679   -3.0793 C   0  0  0  0  0  0  0  0  0  0  0  0
   -4.5031  -10.7458   -1.8288 S   0  0  0  0  0  0  0  0  0  0  0  0
   -4.2522  -12.2338   -2.5709 C   0  0  0  0  0  0  0  0  0  0  0  0
   -3.4471  -13.3476   -1.9753 C   0  0  0  0  0  0  0  0  0  0  0  0
   -1.9695  -13.1903   -2.3301 C   0  0  0  0  0  0  0  0  0  0  0  0
   -4.8543  -12.2098   -3.8314 C   0  0  0  0  0  0  0  0  0  0  0  0
   -4.8419  -13.5782   -4.9330 Cl  0  0  0  0  0  0  0  0  0  0  0  0
   -5.5022  -10.9958   -4.1110 C   0  0  0  0  0  0  0  0  0  0  0  0
   -6.4128  -10.7113   -5.5902 Cl  0  0  0  0  0  0  0  0  0  0  0  0
   -7.0071   -8.4590   -2.0301 C   0  0  0  0  0  0  0  0  0  0  0  0
   -7.5770   -7.1962   -1.8702 C   0  0  0  0  0  0  0  0  0  0  0  0
   -7.1584   -6.1186   -2.6695 C   0  0  0  0  0  0  0  0  0  0  0  0
   -7.6691   -4.7438   -2.4708 C   0  0  0  0  0  0  0  0  0  0  0  0
   -8.3825   -3.8052   -3.6704 S   0  0  0  0  0  0  0  0  0  0  0  0
   -8.5463   -2.4155   -2.7365 C   0  0  0  0  0  0  0  0  0  0  0  0
   -9.1549   -1.1413   -3.2334 C   0  0  0  0  0  0  0  0  0  0  0  0
  -10.6734   -1.1627   -3.0706 C   0  0  0  0  0  0  0  0  0  0  0  0
   -8.0645   -2.6757   -1.4553 C   0  0  0  0  0  0  0  0  0  0  0  0
   -7.5666   -3.9821   -1.3071 C   0  0  0  0  0  0  0  0  0  0  0  0
   -6.8252   -4.5616    0.1794 Cl  0  0  0  0  0  0  0  0  0  0  0  0
   -8.0315   -1.4826   -0.1650 Cl  0  0  0  0  0  0  0  0  0  0  0  0
   -6.2108   -6.4050   -3.6688 C   0  0  0  0  0  0  0  0  0  0  0  0
   -5.5794   -5.3544   -4.8104 S   0  0  0  0  0  0  0  0  0  0  0  0
   -8.5831   -7.1721   -0.8877 C   0  0  0  0  0  0  0  0  0  0  0  0
   -8.7798   -8.4034   -0.2685 C   0  0  0  0  0  0  0  0  0  0  0  0
   -7.7261   -9.5309   -0.9511 S   0  0  0  0  0  0  0  0  0  0  0  0
    6.8649   12.6571   13.4325 H   0  0  0  0  0  0  0  0  0  0  0  0
    5.3116   10.8076   14.4180 H   0  0  0  0  0  0  0  0  0  0  0  0
    1.4653    7.1212   17.6485 H   0  0  0  0  0  0  0  0  0  0  0  0
    0.5171    7.2031   16.1184 H   0  0  0  0  0  0  0  0  0  0  0  0
   -0.1095    8.9997   17.7893 H   0  0  0  0  0  0  0  0  0  0  0  0
    1.5588    9.6754   17.6774 H   0  0  0  0  0  0  0  0  0  0  0  0
    0.4651    9.6800   16.2237 H   0  0  0  0  0  0  0  0  0  0  0  0
    7.8756    8.3107    5.1030 H   0  0  0  0  0  0  0  0  0  0  0  0
    9.6539    8.4803    5.3098 H   0  0  0  0  0  0  0  0  0  0  0  0
    7.6049   10.7964    5.2843 H   0  0  0  0  0  0  0  0  0  0  0  0
    8.7367   10.3437    3.9575 H   0  0  0  0  0  0  0  0  0  0  0  0
    9.4026   10.9601    5.5173 H   0  0  0  0  0  0  0  0  0  0  0  0
    6.4792    6.2268    9.1072 H   0  0  0  0  0  0  0  0  0  0  0  0
    2.5766    3.9444   10.3529 H   0  0  0  0  0  0  0  0  0  0  0  0
   -3.2510    2.6891   11.3197 H   0  0  0  0  0  0  0  0  0  0  0  0
   -2.5119    4.3278   11.2631 H   0  0  0  0  0  0  0  0  0  0  0  0
   -0.8482    3.7122   12.9777 H   0  0  0  0  0  0  0  0  0  0  0  0
   -2.4973    3.3187   13.5778 H   0  0  0  0  0  0  0  0  0  0  0  0
   -1.4320    1.9914   12.9790 H   0  0  0  0  0  0  0  0  0  0  0  0
    9.1486    3.2418    3.0096 H   0  0  0  0  0  0  0  0  0  0  0  0
    7.8183    4.2636    2.3616 H   0  0  0  0  0  0  0  0  0  0  0  0
    6.8630    2.2323    1.1667 H   0  0  0  0  0  0  0  0  0  0  0  0
    8.4925    2.7383    0.5925 H   0  0  0  0  0  0  0  0  0  0  0  0
    8.3302    1.2980    1.6710 H   0  0  0  0  0  0  0  0  0  0  0  0
    3.1844    2.1851    3.5521 H   0  0  0  0  0  0  0  0  0  0  0  0
   -1.1707    0.8734    2.8847 H   0  0  0  0  0  0  0  0  0  0  0  0
   -5.8075   -1.1613    3.4984 H   0  0  0  0  0  0  0  0  0  0  0  0
   -5.8044   -2.6166    2.4520 H   0  0  0  0  0  0  0  0  0  0  0  0
   -3.5857   -3.3167    3.4908 H   0  0  0  0  0  0  0  0  0  0  0  0
   -3.7031   -1.9077    4.6203 H   0  0  0  0  0  0  0  0  0  0  0  0
   -4.9475   -3.2243    4.6681 H   0  0  0  0  0  0  0  0  0  0  0  0
    3.9818    7.5826   -2.3936 H   0  0  0  0  0  0  0  0  0  0  0  0
    4.0054    6.1188   -3.4410 H   0  0  0  0  0  0  0  0  0  0  0  0
    2.1087    8.5369   -3.7521 H   0  0  0  0  0  0  0  0  0  0  0  0
    3.5083    8.0988   -4.8091 H   0  0  0  0  0  0  0  0  0  0  0  0
    2.0548    7.0275   -4.7531 H   0  0  0  0  0  0  0  0  0  0  0  0
   -0.8079    4.0632   -3.4667 H   0  0  0  0  0  0  0  0  0  0  0  0
   -4.5245    1.8819   -5.2740 H   0  0  0  0  0  0  0  0  0  0  0  0
   -9.5560   -0.8671   -8.2499 H   0  0  0  0  0  0  0  0  0  0  0  0
   -9.8277    0.7132   -9.0623 H   0  0  0  0  0  0  0  0  0  0  0  0
   -9.9945    0.1503   -6.0252 H   0  0  0  0  0  0  0  0  0  0  0  0
  -10.1764    1.7858   -6.7868 H   0  0  0  0  0  0  0  0  0  0  0  0
  -11.3656    0.4831   -7.1447 H   0  0  0  0  0  0  0  0  0  0  0  0
    3.9591   -2.3447   -8.2744 H   0  0  0  0  0  0  0  0  0  0  0  0
    4.7198   -0.8223   -8.8098 H   0  0  0  0  0  0  0  0  0  0  0  0
    4.7588    0.0238   -6.4616 H   0  0  0  0  0  0  0  0  0  0  0  0
    3.9729   -1.5036   -5.8958 H   0  0  0  0  0  0  0  0  0  0  0  0
    5.6308   -1.5536   -6.6058 H   0  0  0  0  0  0  0  0  0  0  0  0
   -0.7435   -2.5962   -8.9887 H   0  0  0  0  0  0  0  0  0  0  0  0
    1.3377   -5.8906   -9.2795 H   0  0  0  0  0  0  0  0  0  0  0  0
    3.6731   -5.7218   -9.9041 H   0  0  0  0  0  0  0  0  0  0  0  0
    7.1701   -4.2554   -9.6196 H   0  0  0  0  0  0  0  0  0  0  0  0
    5.5481   -4.4474  -10.3524 H   0  0  0  0  0  0  0  0  0  0  0  0
    7.3700   -6.7006   -9.2367 H   0  0  0  0  0  0  0  0  0  0  0  0
    7.1056   -6.3188  -10.9831 H   0  0  0  0  0  0  0  0  0  0  0  0
    5.7469   -6.9667   -9.9885 H   0  0  0  0  0  0  0  0  0  0  0  0
    2.2376   -4.3352   -5.3762 H   0  0  0  0  0  0  0  0  0  0  0  0
    3.8809   -3.4852   -4.1219 H   0  0  0  0  0  0  0  0  0  0  0  0
    5.6529   -3.6147   -3.9374 H   0  0  0  0  0  0  0  0  0  0  0  0
    4.4405   -5.3598   -2.6219 H   0  0  0  0  0  0  0  0  0  0  0  0
    3.7744   -6.0499   -4.1594 H   0  0  0  0  0  0  0  0  0  0  0  0
    5.5536   -6.0765   -3.8608 H   0  0  0  0  0  0  0  0  0  0  0  0
    0.6956   -8.1520   -4.9805 H   0  0  0  0  0  0  0  0  0  0  0  0
    1.8852   -8.5736   -2.8696 H   0  0  0  0  0  0  0  0  0  0  0  0
    3.1453   -8.6190   -0.5503 H   0  0  0  0  0  0  0  0  0  0  0  0
    4.0474   -7.7521   -1.8558 H   0  0  0  0  0  0  0  0  0  0  0  0
    5.5824   -7.3876   -0.1490 H   0  0  0  0  0  0  0  0  0  0  0  0
    4.5086   -5.9921    0.2222 H   0  0  0  0  0  0  0  0  0  0  0  0
    4.3454   -7.5333    1.1530 H   0  0  0  0  0  0  0  0  0  0  0  0
    2.2898   -2.7095   -2.5814 H   0  0  0  0  0  0  0  0  0  0  0  0
    0.5270   -2.4987   -2.2643 H   0  0  0  0  0  0  0  0  0  0  0  0
    1.8857   -0.9591   -0.8640 H   0  0  0  0  0  0  0  0  0  0  0  0
    1.0033   -2.1544    0.1644 H   0  0  0  0  0  0  0  0  0  0  0  0
    2.7701   -2.3628   -0.1514 H   0  0  0  0  0  0  0  0  0  0  0  0
    0.0527   -4.0712   -3.8444 H   0  0  0  0  0  0  0  0  0  0  0  0
   -4.2274   -8.6241   -5.2548 H   0  0  0  0  0  0  0  0  0  0  0  0
   -3.8135  -14.3277   -2.3406 H   0  0  0  0  0  0  0  0  0  0  0  0
   -3.5623  -13.3294   -0.8694 H   0  0  0  0  0  0  0  0  0  0  0  0
   -1.3942  -14.0381   -1.8884 H   0  0  0  0  0  0  0  0  0  0  0  0
   -1.5696  -12.2360   -1.9323 H   0  0  0  0  0  0  0  0  0  0  0  0
   -1.8433  -13.2196   -3.4310 H   0  0  0  0  0  0  0  0  0  0  0  0
   -8.9035   -1.0249   -4.3074 H   0  0  0  0  0  0  0  0  0  0  0  0
   -8.7311   -0.2697   -2.6860 H   0  0  0  0  0  0  0  0  0  0  0  0
  -11.1036   -0.2416   -3.5140 H   0  0  0  0  0  0  0  0  0  0  0  0
  -11.1035   -2.0431   -3.5915 H   0  0  0  0  0  0  0  0  0  0  0  0
  -10.9381   -1.2058   -1.9900 H   0  0  0  0  0  0  0  0  0  0  0  0
   -9.1609   -6.2961   -0.6370 H   0  0  0  0  0  0  0  0  0  0  0  0
   -9.5030   -8.6060    0.5065 H   0  0  0  0  0  0  0  0  0  0  0  0
  1  2  2  0
  2  3  1  0
  3  4  2  0
  4  5  1  0
  5  6  1  0
  6  7  1  0
  7  8  1  0
  8  9  1  0
  7 10  2  0
 10 11  1  0
 10 12  1  0
 12 13  1  0
  4 14  1  0
 14 15  2  0
 15 16  1  0
 16 17  1  0
 17 18  1  0
 18 19  1  0
 19 20  1  0
 20 21  1  0
 19 22  2  0
 22 23  1  0
 23 24  1  0
 22 25  1  0
 16 26  2  0
 26 27  1  0
 15 28  1  0
 28 29  2  0
 29 30  1  0
 29 31  1  0
 31 32  2  0
 32 33  1  0
 33 34  2  0
 34 35  1  0
 35 36  1  0
 36 37  1  0
 37 38  1  0
 38 39  1  0
 37 40  2  0
 40 41  1  0
 40 42  1  0
 42 43  1  0
 34 44  1  0
 44 45  2  0
 45 46  1  0
 46 47  1  0
 47 48  1  0
 48 49  1  0
 49 50  1  0
 50 51  1  0
 49 52  2  0
 52 53  1  0
 53 54  1  0
 52 55  1  0
 46 56  2  0
 56 57  1  0
 45 58  1  0
 58 59  2  0
 59 60  1  0
 59 61  1  0
 61 62  2  0
 62 63  1  0
 63 64  2  0
 64 65  1  0
 65 66  1  0
 66 67  1  0
 67 68  1  0
 68 69  1  0
 67 70  2  0
 70 71  1  0
 70 72  1  0
 72 73  1  0
 64 74  1  0
 74 75  2  0
 75 76  1  0
 76 77  1  0
 77 78  1  0
 78 79  1  0
 79 80  1  0
 80 81  1  0
 79 82  2  0
 82 83  1  0
 83 84  1  0
 82 85  1  0
 76 86  2  0
 86 87  1  0
 75 88  1  0
 88 89  2  0
 89 90  1  0
 89 91  1  0
 91 92  2  0
 92 93  1  0
 93 94  2  0
 94 95  1  0
 95 96  1  0
 96 97  1  0
 97 98  1  0
 98 99  1  0
 97100  2  0
100101  1  0
100102  1  0
102103  1  0
 94104  1  0
104105  2  0
105106  1  0
106107  1  0
107108  1  0
108109  1  0
109110  1  0
110111  1  0
109112  2  0
112113  1  0
113114  1  0
112115  1  0
106116  2  0
116117  1  0
105118  1  0
118119  2  0
119120  1  0
119121  1  0
121122  1  0
122123  2  0
123124  1  0
124125  1  0
125126  2  0
126127  1  0
127128  2  0
128129  1  0
129130  1  0
130131  1  0
128132  1  0
132133  2  0
132134  1  0
134135  1  0
135136  1  0
124137  2  0
137138  1  0
138139  2  0
139140  1  0
140141  2  0
141142  1  0
142143  1  0
143144  1  0
141145  1  0
145146  1  0
146147  1  0
147148  1  0
145149  2  0
137150  1  0
150151  2  0
151152  1  0
152153  2  0
153154  1  0
154155  1  0
153156  1  0
152157  1  0
157158  2  0
158159  1  0
159160  2  0
160161  1  0
161162  1  0
162163  1  0
163164  1  0
164165  1  0
163166  2  0
166167  1  0
166168  1  0
168169  1  0
160170  1  0
170171  2  0
171172  1  0
172173  1  0
173174  1  0
174175  1  0
175176  1  0
176177  1  0
175178  2  0
178179  1  0
179180  1  0
178181  1  0
172182  2  0
182183  1  0
171184  1  0
184185  2  0
185186  1  0
 27  1  1  0
 57 31  1  0
 87 61  1  0
117 91  1  0
154121  2  0
183157  1  0
 26  3  1  0
 56 33  1  0
 86 63  1  0
116 93  1  0
151122  1  0
182159  1  0
 12  5  2  0
 30 14  1  0
 42 35  2  0
 60 44  1  0
 72 65  2  0
 90 74  1  0
102 95  2  0
120104  1  0
133125  1  0
149138  1  0
168161  2  0
186170  1  0
 23 17  2  0
 53 47  2  0
 83 77  2  0
113107  2  0
179173  2  0
  1187  1  0
  2188  1  0
  8189  1  0
  8190  1  0
  9191  1  0
  9192  1  0
  9193  1  0
 20194  1  0
 20195  1  0
 21196  1  0
 21197  1  0
 21198  1  0
 28199  1  0
 32200  1  0
 38201  1  0
 38202  1  0
 39203  1  0
 39204  1  0
 39205  1  0
 50206  1  0
 50207  1  0
 51208  1  0
 51209  1  0
 51210  1  0
 58211  1  0
 62212  1  0
 68213  1  0
 68214  1  0
 69215  1  0
 69216  1  0
 69217  1  0
 80218  1  0
 80219  1  0
 81220  1  0
 81221  1  0
 81222  1  0
 88223  1  0
 92224  1  0
 98225  1  0
 98226  1  0
 99227  1  0
 99228  1  0
 99229  1  0
110230  1  0
110231  1  0
111232  1  0
111233  1  0
111234  1  0
118235  1  0
126236  1  0
127237  1  0
130238  1  0
130239  1  0
131240  1  0
131241  1  0
131242  1  0
133243  1  0
135244  1  0
135245  1  0
136246  1  0
136247  1  0
136248  1  0
139249  1  0
140250  1  0
143251  1  0
143252  1  0
144253  1  0
144254  1  0
144255  1  0
147256  1  0
147257  1  0
148258  1  0
148259  1  0
148260  1  0
149261  1  0
158262  1  0
164263  1  0
164264  1  0
165265  1  0
165266  1  0
165267  1  0
176268  1  0
176269  1  0
177270  1  0
177271  1  0
177272  1  0
184273  1  0
185274  1  0
M  END

