
     RDKit          3D

226252  0  0  0  0  0  0  0  0999 V2000
   -2.6727    0.1833    5.4595 C   0  0  0  0  0  0  0  0  0  0  0  0
   -2.3132   -0.7490    4.4922 C   0  0  0  0  0  0  0  0  0  0  0  0
   -2.7938   -2.0403    4.7643 C   0  0  0  0  0  0  0  0  0  0  0  0
   -2.5722   -3.1922    3.9835 C   0  0  0  0  0  0  0  0  0  0  0  0
   -1.7194   -3.1681    2.7882 C   0  0  0  0  0  0  0  0  0  0  0  0
   -2.1254   -3.4626    1.4939 C   0  0  0  0  0  0  0  0  0  0  0  0
   -1.0856   -3.3745    0.5606 C   0  0  0  0  0  0  0  0  0  0  0  0
    0.1354   -3.0358    1.1327 C   0  0  0  0  0  0  0  0  0  0  0  0
    1.4212   -2.8251    0.3945 C   0  0  0  0  0  0  0  0  0  0  0  0
    1.7211   -1.3385    0.2489 C   0  0  0  0  0  0  0  0  0  0  0  0
   -0.0749   -2.8145    2.7859 S   0  0  0  0  0  0  0  0  0  0  0  0
   -3.1681   -4.3837    4.4233 C   0  0  0  0  0  0  0  0  0  0  0  0
   -3.9337   -4.4538    5.5924 C   0  0  0  0  0  0  0  0  0  0  0  0
   -4.1092   -3.3149    6.4106 C   0  0  0  0  0  0  0  0  0  0  0  0
   -4.7781   -3.3977    7.7239 C   0  0  0  0  0  0  0  0  0  0  0  0
   -4.4862   -4.3189    8.7273 C   0  0  0  0  0  0  0  0  0  0  0  0
   -5.2983   -4.1851    9.8593 C   0  0  0  0  0  0  0  0  0  0  0  0
   -6.2242   -3.1538    9.7505 C   0  0  0  0  0  0  0  0  0  0  0  0
   -7.2702   -2.8049   10.7633 C   0  0  0  0  0  0  0  0  0  0  0  0
   -7.0889   -1.3782   11.2681 C   0  0  0  0  0  0  0  0  0  0  0  0
   -6.0255   -2.4052    8.2566 S   0  0  0  0  0  0  0  0  0  0  0  0
   -3.5449   -2.1125    5.9425 C   0  0  0  0  0  0  0  0  0  0  0  0
   -3.5872   -0.5877    6.6496 S   0  0  0  0  0  0  0  0  0  0  0  0
   -4.4547   -5.7349    5.8243 C   0  0  0  0  0  0  0  0  0  0  0  0
   -4.0863   -6.6668    4.8565 C   0  0  0  0  0  0  0  0  0  0  0  0
   -3.0640   -5.9172    3.7374 S   0  0  0  0  0  0  0  0  0  0  0  0
   -4.3157   -8.1120    4.9977 C   0  0  0  0  0  0  0  0  0  0  0  0
   -4.0858   -8.8828    6.4770 S   0  0  0  0  0  0  0  0  0  0  0  0
   -4.4030  -10.4445    5.9720 C   0  0  0  0  0  0  0  0  0  0  0  0
   -4.7074  -10.3919    4.6181 C   0  0  0  0  0  0  0  0  0  0  0  0
   -4.6846   -9.0914    4.0494 C   0  0  0  0  0  0  0  0  0  0  0  0
   -5.0278   -8.9334    2.6801 C   0  0  0  0  0  0  0  0  0  0  0  0
   -5.3245  -10.0868    1.9247 C   0  0  0  0  0  0  0  0  0  0  0  0
   -5.3092  -11.3597    2.4989 C   0  0  0  0  0  0  0  0  0  0  0  0
   -5.0061  -11.5212    3.8518 C   0  0  0  0  0  0  0  0  0  0  0  0
   -4.9950  -12.7909    4.4248 O   0  0  0  0  0  0  0  0  0  0  0  0
   -5.0677   -7.6436    1.9629 C   0  0  0  0  0  0  0  0  0  0  0  0
   -5.8860   -6.5467    2.2435 C   0  0  0  0  0  0  0  0  0  0  0  0
   -5.8071   -5.5390    1.2588 C   0  0  0  0  0  0  0  0  0  0  0  0
   -6.5101   -4.3101    1.2371 C   0  0  0  0  0  0  0  0  0  0  0  0
   -7.4120   -3.8955    2.3272 C   0  0  0  0  0  0  0  0  0  0  0  0
   -8.7219   -3.4593    2.1631 C   0  0  0  0  0  0  0  0  0  0  0  0
   -9.3156   -3.0282    3.3505 C   0  0  0  0  0  0  0  0  0  0  0  0
   -8.4731   -3.1369    4.4500 C   0  0  0  0  0  0  0  0  0  0  0  0
   -8.7926   -2.6709    5.8327 C   0  0  0  0  0  0  0  0  0  0  0  0
   -8.4133   -1.2019    6.0043 C   0  0  0  0  0  0  0  0  0  0  0  0
   -6.9830   -3.7353    3.9463 S   0  0  0  0  0  0  0  0  0  0  0  0
   -6.3151   -3.4803    0.1129 C   0  0  0  0  0  0  0  0  0  0  0  0
   -5.4894   -3.8475   -0.9557 C   0  0  0  0  0  0  0  0  0  0  0  0
   -4.7876   -5.0690   -0.9390 C   0  0  0  0  0  0  0  0  0  0  0  0
   -3.9020   -5.4777   -2.0480 C   0  0  0  0  0  0  0  0  0  0  0  0
   -4.2576   -5.5582   -3.3891 C   0  0  0  0  0  0  0  0  0  0  0  0
   -3.2088   -5.9608   -4.2216 C   0  0  0  0  0  0  0  0  0  0  0  0
   -2.0225   -6.1832   -3.5328 C   0  0  0  0  0  0  0  0  0  0  0  0
   -0.7327   -6.6449   -4.1394 C   0  0  0  0  0  0  0  0  0  0  0  0
   -0.4619   -8.1042   -3.7882 C   0  0  0  0  0  0  0  0  0  0  0  0
   -2.2824   -5.9059   -1.8951 S   0  0  0  0  0  0  0  0  0  0  0  0
   -4.9608   -5.8798    0.1954 C   0  0  0  0  0  0  0  0  0  0  0  0
   -4.3056   -7.3955    0.4792 S   0  0  0  0  0  0  0  0  0  0  0  0
   -5.3857   -2.8523   -1.9381 C   0  0  0  0  0  0  0  0  0  0  0  0
   -6.1015   -1.6970   -1.6338 C   0  0  0  0  0  0  0  0  0  0  0  0
   -6.8675   -1.9047   -0.1435 S   0  0  0  0  0  0  0  0  0  0  0  0
   -5.9824   -0.4393   -2.3861 C   0  0  0  0  0  0  0  0  0  0  0  0
   -5.9198    0.8332   -1.8152 C   0  0  0  0  0  0  0  0  0  0  0  0
   -5.3291    1.7895   -2.6644 C   0  0  0  0  0  0  0  0  0  0  0  0
   -4.8649    3.0623   -2.2679 C   0  0  0  0  0  0  0  0  0  0  0  0
   -5.3019    3.6845   -1.0005 C   0  0  0  0  0  0  0  0  0  0  0  0
   -4.4913    4.2087   -0.0009 C   0  0  0  0  0  0  0  0  0  0  0  0
   -5.2115    4.7558    1.0703 C   0  0  0  0  0  0  0  0  0  0  0  0
   -6.5907    4.6826    0.9065 C   0  0  0  0  0  0  0  0  0  0  0  0
   -7.6116    5.0728    1.9356 C   0  0  0  0  0  0  0  0  0  0  0  0
   -8.8662    5.6764    1.3034 C   0  0  0  0  0  0  0  0  0  0  0  0
   -6.9094    3.8881   -0.5449 S   0  0  0  0  0  0  0  0  0  0  0  0
   -3.9339    3.6861   -3.1250 C   0  0  0  0  0  0  0  0  0  0  0  0
   -3.5893    3.1592   -4.3749 C   0  0  0  0  0  0  0  0  0  0  0  0
   -4.1466    1.9436   -4.8215 C   0  0  0  0  0  0  0  0  0  0  0  0
   -3.7215    1.2874   -6.0771 C   0  0  0  0  0  0  0  0  0  0  0  0
   -4.5704    0.8845   -7.1005 C   0  0  0  0  0  0  0  0  0  0  0  0
   -3.9089    0.2462   -8.1540 C   0  0  0  0  0  0  0  0  0  0  0  0
   -2.5377    0.1408   -7.9540 C   0  0  0  0  0  0  0  0  0  0  0  0
   -1.5579   -0.4791   -8.9041 C   0  0  0  0  0  0  0  0  0  0  0  0
   -1.1529   -1.8721   -8.4350 C   0  0  0  0  0  0  0  0  0  0  0  0
   -2.1483    0.8215   -6.4654 S   0  0  0  0  0  0  0  0  0  0  0  0
   -4.9830    1.2685   -3.9184 C   0  0  0  0  0  0  0  0  0  0  0  0
   -5.3755   -0.3620   -3.9584 S   0  0  0  0  0  0  0  0  0  0  0  0
   -2.5235    3.8335   -4.9853 C   0  0  0  0  0  0  0  0  0  0  0  0
   -1.9123    4.7791   -4.1642 C   0  0  0  0  0  0  0  0  0  0  0  0
   -2.8382    4.9110   -2.7574 S   0  0  0  0  0  0  0  0  0  0  0  0
   -0.4450    4.8256   -4.1053 C   0  0  0  0  0  0  0  0  0  0  0  0
    0.3214    3.6661   -4.1426 C   0  0  0  0  0  0  0  0  0  0  0  0
    1.6613    3.8695   -3.8108 C   0  0  0  0  0  0  0  0  0  0  0  0
    2.6298    2.8593   -3.6809 C   0  0  0  0  0  0  0  0  0  0  0  0
    2.2683    1.4269   -3.7552 C   0  0  0  0  0  0  0  0  0  0  0  0
    2.8031    0.4834   -4.6251 C   0  0  0  0  0  0  0  0  0  0  0  0
    2.2138   -0.7837   -4.5015 C   0  0  0  0  0  0  0  0  0  0  0  0
    1.2255   -0.8364   -3.5246 C   0  0  0  0  0  0  0  0  0  0  0  0
    0.3610   -2.0145   -3.1915 C   0  0  0  0  0  0  0  0  0  0  0  0
   -0.8403   -2.1042   -4.1242 C   0  0  0  0  0  0  0  0  0  0  0  0
    1.0691    0.6851   -2.8318 S   0  0  0  0  0  0  0  0  0  0  0  0
    3.9311    3.2761   -3.3718 C   0  0  0  0  0  0  0  0  0  0  0  0
    4.2720    4.6204   -3.1591 C   0  0  0  0  0  0  0  0  0  0  0  0
    3.2834    5.6334   -3.2577 C   0  0  0  0  0  0  0  0  0  0  0  0
    3.5969    7.0690   -3.1035 C   0  0  0  0  0  0  0  0  0  0  0  0
    3.2963    8.0555   -4.0380 C   0  0  0  0  0  0  0  0  0  0  0  0
    3.7424    9.3279   -3.6675 C   0  0  0  0  0  0  0  0  0  0  0  0
    4.3856    9.3477   -2.4383 C   0  0  0  0  0  0  0  0  0  0  0  0
    5.0792   10.5360   -1.8387 C   0  0  0  0  0  0  0  0  0  0  0  0
    4.4627   10.9142   -0.4961 C   0  0  0  0  0  0  0  0  0  0  0  0
    4.4196    7.7810   -1.8162 S   0  0  0  0  0  0  0  0  0  0  0  0
    1.9757    5.2124   -3.5794 C   0  0  0  0  0  0  0  0  0  0  0  0
    0.5487    6.1256   -3.6788 S   0  0  0  0  0  0  0  0  0  0  0  0
    5.6397    4.7930   -2.8636 C   0  0  0  0  0  0  0  0  0  0  0  0
    6.3422    3.5860   -2.8291 C   0  0  0  0  0  0  0  0  0  0  0  0
    5.2906    2.3149   -3.1692 S   0  0  0  0  0  0  0  0  0  0  0  0
    7.7645    3.4163   -2.5006 C   0  0  0  0  0  0  0  0  0  0  0  0
    8.4983    2.2473   -2.6953 C   0  0  0  0  0  0  0  0  0  0  0  0
    9.8204    2.3432   -2.2349 C   0  0  0  0  0  0  0  0  0  0  0  0
   10.7979    1.3257   -2.2827 C   0  0  0  0  0  0  0  0  0  0  0  0
   10.5259    0.0062   -2.8880 C   0  0  0  0  0  0  0  0  0  0  0  0
   10.0590   -0.2188   -4.1799 C   0  0  0  0  0  0  0  0  0  0  0  0
    9.8647   -1.5746   -4.4694 C   0  0  0  0  0  0  0  0  0  0  0  0
   10.1908   -2.4122   -3.4099 C   0  0  0  0  0  0  0  0  0  0  0  0
   10.0107   -3.8969   -3.3827 C   0  0  0  0  0  0  0  0  0  0  0  0
    8.5877   -4.2580   -2.9748 C   0  0  0  0  0  0  0  0  0  0  0  0
   10.6989   -1.4758   -2.1075 S   0  0  0  0  0  0  0  0  0  0  0  0
   12.0439    1.6210   -1.7020 C   0  0  0  0  0  0  0  0  0  0  0  0
   12.3296    2.8551   -1.1052 C   0  0  0  0  0  0  0  0  0  0  0  0
   11.3523    3.8751   -1.0628 C   0  0  0  0  0  0  0  0  0  0  0  0
   11.5976    5.1738   -0.4064 C   0  0  0  0  0  0  0  0  0  0  0  0
   10.8214    5.7269    0.6068 C   0  0  0  0  0  0  0  0  0  0  0  0
   11.2773    6.9778    1.0355 C   0  0  0  0  0  0  0  0  0  0  0  0
   12.4037    7.4150    0.3475 C   0  0  0  0  0  0  0  0  0  0  0  0
   13.1758    8.6618    0.6451 C   0  0  0  0  0  0  0  0  0  0  0  0
   14.2595    8.3881    1.6806 C   0  0  0  0  0  0  0  0  0  0  0  0
   12.8535    6.2399   -0.7685 S   0  0  0  0  0  0  0  0  0  0  0  0
   10.1058    3.5818   -1.6461 C   0  0  0  0  0  0  0  0  0  0  0  0
    8.7417    4.5677   -1.7443 S   0  0  0  0  0  0  0  0  0  0  0  0
   13.6241    2.9111   -0.5607 C   0  0  0  0  0  0  0  0  0  0  0  0
   14.3505    1.7402   -0.7520 C   0  0  0  0  0  0  0  0  0  0  0  0
   13.3961    0.6284   -1.5816 S   0  0  0  0  0  0  0  0  0  0  0  0
   -2.4003    1.2321    5.4475 H   0  0  0  0  0  0  0  0  0  0  0  0
   -1.7261   -0.4879    3.6216 H   0  0  0  0  0  0  0  0  0  0  0  0
   -3.1408   -3.7250    1.2294 H   0  0  0  0  0  0  0  0  0  0  0  0
   -1.2243   -3.5464   -0.4974 H   0  0  0  0  0  0  0  0  0  0  0  0
    1.3523   -3.2914   -0.6112 H   0  0  0  0  0  0  0  0  0  0  0  0
    2.2498   -3.3198    0.9444 H   0  0  0  0  0  0  0  0  0  0  0  0
    0.8453   -0.8005   -0.1698 H   0  0  0  0  0  0  0  0  0  0  0  0
    2.5864   -1.1970   -0.4340 H   0  0  0  0  0  0  0  0  0  0  0  0
    1.9712   -0.8994    1.2376 H   0  0  0  0  0  0  0  0  0  0  0  0
   -3.7089   -5.0656    8.6460 H   0  0  0  0  0  0  0  0  0  0  0  0
   -5.2165   -4.8292   10.7267 H   0  0  0  0  0  0  0  0  0  0  0  0
   -8.2742   -2.9093   10.2971 H   0  0  0  0  0  0  0  0  0  0  0  0
   -7.2074   -3.5045   11.6273 H   0  0  0  0  0  0  0  0  0  0  0  0
   -7.2252   -0.6561   10.4349 H   0  0  0  0  0  0  0  0  0  0  0  0
   -6.0772   -1.2507   11.7085 H   0  0  0  0  0  0  0  0  0  0  0  0
   -7.8500   -1.1639   12.0472 H   0  0  0  0  0  0  0  0  0  0  0  0
   -5.0778   -5.9911    6.6703 H   0  0  0  0  0  0  0  0  0  0  0  0
   -4.3681  -11.3321    6.5911 H   0  0  0  0  0  0  0  0  0  0  0  0
   -5.5848   -9.9992    0.8764 H   0  0  0  0  0  0  0  0  0  0  0  0
   -5.5396  -12.2219    1.8857 H   0  0  0  0  0  0  0  0  0  0  0  0
   -5.1998  -13.6200    3.8791 H   0  0  0  0  0  0  0  0  0  0  0  0
   -6.5358   -6.4998    3.1068 H   0  0  0  0  0  0  0  0  0  0  0  0
   -9.2317   -3.4341    1.2097 H   0  0  0  0  0  0  0  0  0  0  0  0
  -10.3224   -2.6399    3.4065 H   0  0  0  0  0  0  0  0  0  0  0  0
   -8.2372   -3.2918    6.5676 H   0  0  0  0  0  0  0  0  0  0  0  0
   -9.8795   -2.7949    6.0273 H   0  0  0  0  0  0  0  0  0  0  0  0
   -8.6110   -0.8878    7.0506 H   0  0  0  0  0  0  0  0  0  0  0  0
   -7.3343   -1.0536    5.7819 H   0  0  0  0  0  0  0  0  0  0  0  0
   -9.0175   -0.5659    5.3209 H   0  0  0  0  0  0  0  0  0  0  0  0
   -5.2520   -5.3422   -3.7577 H   0  0  0  0  0  0  0  0  0  0  0  0
   -3.3107   -6.0849   -5.2914 H   0  0  0  0  0  0  0  0  0  0  0  0
   -0.7777   -6.5396   -5.2447 H   0  0  0  0  0  0  0  0  0  0  0  0
    0.0988   -6.0099   -3.7614 H   0  0  0  0  0  0  0  0  0  0  0  0
   -1.3023   -8.7492   -4.1260 H   0  0  0  0  0  0  0  0  0  0  0  0
   -0.3321   -8.2178   -2.6897 H   0  0  0  0  0  0  0  0  0  0  0  0
    0.4712   -8.4407   -4.2903 H   0  0  0  0  0  0  0  0  0  0  0  0
   -4.7402   -2.9315   -2.8001 H   0  0  0  0  0  0  0  0  0  0  0  0
   -6.1241    1.0119   -0.7685 H   0  0  0  0  0  0  0  0  0  0  0  0
   -3.4097    4.1799   -0.0217 H   0  0  0  0  0  0  0  0  0  0  0  0
   -4.7389    5.1765    1.9481 H   0  0  0  0  0  0  0  0  0  0  0  0
   -7.1692    5.8197    2.6323 H   0  0  0  0  0  0  0  0  0  0  0  0
   -7.8922    4.1725    2.5235 H   0  0  0  0  0  0  0  0  0  0  0  0
   -8.6018    6.5486    0.6671 H   0  0  0  0  0  0  0  0  0  0  0  0
   -9.5568    6.0195    2.1037 H   0  0  0  0  0  0  0  0  0  0  0  0
   -9.3951    4.9170    0.6879 H   0  0  0  0  0  0  0  0  0  0  0  0
   -5.6398    1.0487   -7.0887 H   0  0  0  0  0  0  0  0  0  0  0  0
   -4.4138   -0.1241   -9.0361 H   0  0  0  0  0  0  0  0  0  0  0  0
   -0.6559    0.1677   -8.9798 H   0  0  0  0  0  0  0  0  0  0  0  0
   -2.0125   -0.5564   -9.9150 H   0  0  0  0  0  0  0  0  0  0  0  0
   -0.4653   -2.3275   -9.1785 H   0  0  0  0  0  0  0  0  0  0  0  0
   -0.6253   -1.8096   -7.4604 H   0  0  0  0  0  0  0  0  0  0  0  0
   -2.0480   -2.5237   -8.3332 H   0  0  0  0  0  0  0  0  0  0  0  0
   -2.0634    3.5066   -5.9078 H   0  0  0  0  0  0  0  0  0  0  0  0
   -0.1055    2.6956   -4.3581 H   0  0  0  0  0  0  0  0  0  0  0  0
    3.5751    0.7090   -5.3492 H   0  0  0  0  0  0  0  0  0  0  0  0
    2.4922   -1.6311   -5.1140 H   0  0  0  0  0  0  0  0  0  0  0  0
    0.9580   -2.9482   -3.2564 H   0  0  0  0  0  0  0  0  0  0  0  0
   -0.0096   -1.9118   -2.1516 H   0  0  0  0  0  0  0  0  0  0  0  0
   -1.4004   -1.1441   -4.1353 H   0  0  0  0  0  0  0  0  0  0  0  0
   -0.5037   -2.3485   -5.1522 H   0  0  0  0  0  0  0  0  0  0  0  0
   -1.5206   -2.9094   -3.7724 H   0  0  0  0  0  0  0  0  0  0  0  0
    2.7940    7.8594   -4.9752 H   0  0  0  0  0  0  0  0  0  0  0  0
    3.6160   10.2018   -4.2931 H   0  0  0  0  0  0  0  0  0  0  0  0
    4.9966   11.4057   -2.5279 H   0  0  0  0  0  0  0  0  0  0  0  0
    6.1575   10.3014   -1.7020 H   0  0  0  0  0  0  0  0  0  0  0  0
    3.3900   11.1751   -0.6224 H   0  0  0  0  0  0  0  0  0  0  0  0
    4.5580   10.0744    0.2271 H   0  0  0  0  0  0  0  0  0  0  0  0
    4.9944   11.7979   -0.0803 H   0  0  0  0  0  0  0  0  0  0  0  0
    6.1141    5.7489   -2.6923 H   0  0  0  0  0  0  0  0  0  0  0  0
    8.0771    1.3587   -3.1408 H   0  0  0  0  0  0  0  0  0  0  0  0
    9.8597    0.5707   -4.8903 H   0  0  0  0  0  0  0  0  0  0  0  0
    9.4855   -1.9302   -5.4190 H   0  0  0  0  0  0  0  0  0  0  0  0
   10.2245   -4.3141   -4.3911 H   0  0  0  0  0  0  0  0  0  0  0  0
   10.7268   -4.3462   -2.6617 H   0  0  0  0  0  0  0  0  0  0  0  0
    7.8596   -3.8414   -3.7013 H   0  0  0  0  0  0  0  0  0  0  0  0
    8.4804   -5.3617   -2.9499 H   0  0  0  0  0  0  0  0  0  0  0  0
    8.3643   -3.8543   -1.9641 H   0  0  0  0  0  0  0  0  0  0  0  0
    9.9561    5.2397    1.0386 H   0  0  0  0  0  0  0  0  0  0  0  0
   10.8097    7.5387    1.8348 H   0  0  0  0  0  0  0  0  0  0  0  0
   13.6443    9.0402   -0.2911 H   0  0  0  0  0  0  0  0  0  0  0  0
   12.4868    9.4441    1.0310 H   0  0  0  0  0  0  0  0  0  0  0  0
   13.8100    7.9718    2.6091 H   0  0  0  0  0  0  0  0  0  0  0  0
   14.7820    9.3347    1.9328 H   0  0  0  0  0  0  0  0  0  0  0  0
   15.0035    7.6658    1.2805 H   0  0  0  0  0  0  0  0  0  0  0  0
   14.0308    3.7634   -0.0363 H   0  0  0  0  0  0  0  0  0  0  0  0
   15.3607    1.5727   -0.4090 H   0  0  0  0  0  0  0  0  0  0  0  0
  1  2  2  0
  2  3  1  0
  3  4  2  0
  4  5  1  0
  5  6  2  0
  6  7  1  0
  7  8  2  0
  8  9  1  0
  9 10  1  0
  8 11  1  0
  4 12  1  0
 12 13  2  0
 13 14  1  0
 14 15  1  0
 15 16  2  0
 16 17  1  0
 17 18  2  0
 18 19  1  0
 19 20  1  0
 18 21  1  0
 14 22  2  0
 22 23  1  0
 13 24  1  0
 24 25  2  0
 25 26  1  0
 25 27  1  0
 27 28  1  0
 28 29  1  0
 29 30  2  0
 30 31  1  0
 31 32  1  0
 32 33  2  0
 33 34  1  0
 34 35  2  0
 35 36  1  0
 32 37  1  0
 37 38  2  0
 38 39  1  0
 39 40  2  0
 40 41  1  0
 41 42  2  0
 42 43  1  0
 43 44  2  0
 44 45  1  0
 45 46  1  0
 44 47  1  0
 40 48  1  0
 48 49  2  0
 49 50  1  0
 50 51  1  0
 51 52  2  0
 52 53  1  0
 53 54  2  0
 54 55  1  0
 55 56  1  0
 54 57  1  0
 50 58  2  0
 58 59  1  0
 49 60  1  0
 60 61  2  0
 61 62  1  0
 61 63  1  0
 63 64  2  0
 64 65  1  0
 65 66  2  0
 66 67  1  0
 67 68  2  0
 68 69  1  0
 69 70  2  0
 70 71  1  0
 71 72  1  0
 70 73  1  0
 66 74  1  0
 74 75  2  0
 75 76  1  0
 76 77  1  0
 77 78  2  0
 78 79  1  0
 79 80  2  0
 80 81  1  0
 81 82  1  0
 80 83  1  0
 76 84  2  0
 84 85  1  0
 75 86  1  0
 86 87  2  0
 87 88  1  0
 87 89  1  0
 89 90  2  0
 90 91  1  0
 91 92  2  0
 92 93  1  0
 93 94  2  0
 94 95  1  0
 95 96  2  0
 96 97  1  0
 97 98  1  0
 96 99  1  0
 92100  1  0
100101  2  0
101102  1  0
102103  1  0
103104  2  0
104105  1  0
105106  2  0
106107  1  0
107108  1  0
106109  1  0
102110  2  0
110111  1  0
101112  1  0
112113  2  0
113114  1  0
113115  1  0
115116  2  0
116117  1  0
117118  2  0
118119  1  0
119120  2  0
120121  1  0
121122  2  0
122123  1  0
123124  1  0
122125  1  0
118126  1  0
126127  2  0
127128  1  0
128129  1  0
129130  2  0
130131  1  0
131132  2  0
132133  1  0
133134  1  0
132135  1  0
128136  2  0
136137  1  0
127138  1  0
138139  2  0
139140  1  0
 23  1  1  0
 31 27  2  0
 59 37  1  0
 85 63  1  0
111 89  1  0
137115  1  0
 22  3  1  0
 35 30  1  0
 58 39  1  0
 84 65  1  0
110 91  1  0
136117  1  0
 11  5  1  0
 26 12  1  0
 47 41  1  0
 62 48  1  0
 73 67  1  0
 88 74  1  0
 99 93  1  0
114100  1  0
125119  1  0
140126  1  0
 21 15  1  0
 57 51  1  0
 83 77  1  0
109103  1  0
135129  1  0
  1141  1  0
  2142  1  0
  6143  1  0
  7144  1  0
  9145  1  0
  9146  1  0
 10147  1  0
 10148  1  0
 10149  1  0
 16150  1  0
 17151  1  0
 19152  1  0
 19153  1  0
 20154  1  0
 20155  1  0
 20156  1  0
 24157  1  0
 29158  1  0
 33159  1  0
 34160  1  0
 36161  1  0
 38162  1  0
 42163  1  0
 43164  1  0
 45165  1  0
 45166  1  0
 46167  1  0
 46168  1  0
 46169  1  0
 52170  1  0
 53171  1  0
 55172  1  0
 55173  1  0
 56174  1  0
 56175  1  0
 56176  1  0
 60177  1  0
 64178  1  0
 68179  1  0
 69180  1  0
 71181  1  0
 71182  1  0
 72183  1  0
 72184  1  0
 72185  1  0
 78186  1  0
 79187  1  0
 81188  1  0
 81189  1  0
 82190  1  0
 82191  1  0
 82192  1  0
 86193  1  0
 90194  1  0
 94195  1  0
 95196  1  0
 97197  1  0
 97198  1  0
 98199  1  0
 98200  1  0
 98201  1  0
104202  1  0
105203  1  0
107204  1  0
107205  1  0
108206  1  0
108207  1  0
108208  1  0
112209  1  0
116210  1  0
120211  1  0
121212  1  0
123213  1  0
123214  1  0
124215  1  0
124216  1  0
124217  1  0
130218  1  0
131219  1  0
133220  1  0
133221  1  0
134222  1  0
134223  1  0
134224  1  0
138225  1  0
139226  1  0
M  END

