
     RDKit          3D

185205  0  0  0  0  0  0  0  0999 V2000
    7.8637   -0.9312   10.8810 C   0  0  0  0  0  0  0  0  0  0  0  0
    8.2837   -0.0483    9.8716 C   0  0  0  0  0  0  0  0  0  0  0  0
    8.4100    1.2539   10.1049 C   0  0  0  0  0  0  0  0  0  0  0  0
    9.1535    2.1936    7.9086 S   0  0  0  0  0  4  0  0  0  0  0  0
   10.2395    2.4295    8.1724 F   0  0  0  0  0  0  0  0  0  0  0  0
    8.9510    0.3242    7.6473 C   0  0  0  0  0  0  0  0  0  0  0  0
    8.5675   -0.5332    8.5907 C   0  0  0  0  0  0  0  0  0  0  0  0
    8.4444   -1.9054    8.3186 C   0  0  0  0  0  0  0  0  0  0  0  0
    8.0189   -2.7807    9.3195 C   0  0  0  0  0  0  0  0  0  0  0  0
    7.7011   -2.2956   10.5994 C   0  0  0  0  0  0  0  0  0  0  0  0
    7.2039   -3.2109   11.6486 C   0  0  0  0  0  0  0  0  0  0  0  0
    6.1372   -4.0124   11.5042 C   0  0  0  0  0  0  0  0  0  0  0  0
    5.1916   -3.9494   10.3719 C   0  0  0  0  0  0  0  0  0  0  0  0
    4.4447   -5.0243    9.8910 C   0  0  0  0  0  0  0  0  0  0  0  0
    3.5940   -4.6717    8.8250 C   0  0  0  0  0  0  0  0  0  0  0  0
    2.7385   -5.5350    8.1016 C   0  0  0  0  0  0  0  0  0  0  0  0
    2.5430   -6.9426    8.4956 C   0  0  0  0  0  0  0  0  0  0  0  0
    2.6884   -8.2817    7.4807 S   0  0  0  0  0  0  0  0  0  0  0  0
    2.2616   -9.4297    8.6373 C   0  0  0  0  0  0  0  0  0  0  0  0
    2.1080  -10.8989    8.3829 C   0  0  0  0  0  0  0  0  0  0  0  0
    0.6950  -11.2185    7.9095 C   0  0  0  0  0  0  0  0  0  0  0  0
    1.9775   -8.7729    9.8282 C   0  0  0  0  0  0  0  0  0  0  0  0
    1.5581   -9.4069   10.9507 F   0  0  0  0  0  0  0  0  0  0  0  0
    2.1385   -7.3866    9.7509 C   0  0  0  0  0  0  0  0  0  0  0  0
    1.8733   -6.5553   10.7896 F   0  0  0  0  0  0  0  0  0  0  0  0
    2.0356   -4.9678    7.0176 C   0  0  0  0  0  0  0  0  0  0  0  0
    2.1176   -3.6058    6.7058 C   0  0  0  0  0  0  0  0  0  0  0  0
    2.9511   -2.7446    7.4410 C   0  0  0  0  0  0  0  0  0  0  0  0
    3.0925   -1.3166    7.1001 C   0  0  0  0  0  0  0  0  0  0  0  0
    4.5210   -0.5774    6.5948 S   0  0  0  0  0  0  0  0  0  0  0  0
    3.8518    0.9487    6.3482 C   0  0  0  0  0  0  0  0  0  0  0  0
    4.5786    2.1232    5.7735 C   0  0  0  0  0  0  0  0  0  0  0  0
    4.3984    2.1767    4.2609 C   0  0  0  0  0  0  0  0  0  0  0  0
    2.4934    0.8906    6.6407 C   0  0  0  0  0  0  0  0  0  0  0  0
    2.0711   -0.3736    7.0625 C   0  0  0  0  0  0  0  0  0  0  0  0
    0.7857   -0.6501    7.3970 F   0  0  0  0  0  0  0  0  0  0  0  0
    1.6545    1.9468    6.5068 F   0  0  0  0  0  0  0  0  0  0  0  0
    3.6845   -3.3172    8.4862 C   0  0  0  0  0  0  0  0  0  0  0  0
    4.7637   -2.5564    9.5169 S   0  0  0  0  0  0  0  0  0  0  0  0
    1.3380   -3.2429    5.6049 C   0  0  0  0  0  0  0  0  0  0  0  0
    0.6490   -4.3104    5.0495 C   0  0  0  0  0  0  0  0  0  0  0  0
    0.9965   -5.7182    5.9149 S   0  0  0  0  0  0  0  0  0  0  0  0
   -0.1867   -4.1892    3.8552 C   0  0  0  0  0  0  0  0  0  0  0  0
    0.0159   -4.8769    2.6615 C   0  0  0  0  0  0  0  0  0  0  0  0
   -0.6194   -4.2594    1.5637 C   0  0  0  0  0  0  0  0  0  0  0  0
   -0.4720   -4.5983    0.1967 C   0  0  0  0  0  0  0  0  0  0  0  0
    0.3802   -5.7178   -0.2428 C   0  0  0  0  0  0  0  0  0  0  0  0
   -0.1324   -7.0221   -1.1798 S   0  0  0  0  0  0  0  0  0  0  0  0
    1.3612   -7.7983   -1.2326 C   0  0  0  0  0  0  0  0  0  0  0  0
    1.6213   -9.1323   -1.8616 C   0  0  0  0  0  0  0  0  0  0  0  0
    1.4247  -10.2507   -0.8452 C   0  0  0  0  0  0  0  0  0  0  0  0
    2.2787   -7.0475   -0.5048 C   0  0  0  0  0  0  0  0  0  0  0  0
    3.5722   -7.4135   -0.3257 F   0  0  0  0  0  0  0  0  0  0  0  0
    1.7326   -5.8806    0.0375 C   0  0  0  0  0  0  0  0  0  0  0  0
    2.4630   -4.9891    0.7538 F   0  0  0  0  0  0  0  0  0  0  0  0
   -1.1014   -3.7544   -0.7413 C   0  0  0  0  0  0  0  0  0  0  0  0
   -1.8399   -2.6275   -0.3580 C   0  0  0  0  0  0  0  0  0  0  0  0
   -1.9865   -2.2921    0.9988 C   0  0  0  0  0  0  0  0  0  0  0  0
   -2.6459   -1.0476    1.4322 C   0  0  0  0  0  0  0  0  0  0  0  0
   -3.9687   -0.9610    2.4688 S   0  0  0  0  0  0  0  0  0  0  0  0
   -4.0106    0.7220    2.5588 C   0  0  0  0  0  0  0  0  0  0  0  0
   -4.9339    1.5125    3.4348 C   0  0  0  0  0  0  0  0  0  0  0  0
   -4.4609    1.4772    4.8812 C   0  0  0  0  0  0  0  0  0  0  0  0
   -2.9645    1.2314    1.7980 C   0  0  0  0  0  0  0  0  0  0  0  0
   -2.2075    0.2438    1.1597 C   0  0  0  0  0  0  0  0  0  0  0  0
   -1.1123    0.5198    0.4092 F   0  0  0  0  0  0  0  0  0  0  0  0
   -2.6817    2.5542    1.7055 F   0  0  0  0  0  0  0  0  0  0  0  0
   -1.3613   -3.1311    1.9309 C   0  0  0  0  0  0  0  0  0  0  0  0
   -1.1730   -2.8559    3.5716 S   0  0  0  0  0  0  0  0  0  0  0  0
   -2.2892   -1.8598   -1.4407 C   0  0  0  0  0  0  0  0  0  0  0  0
   -1.8839   -2.3653   -2.6682 C   0  0  0  0  0  0  0  0  0  0  0  0
   -0.9660   -3.7606   -2.4245 S   0  0  0  0  0  0  0  0  0  0  0  0
   -1.9441   -1.5873   -3.9033 C   0  0  0  0  0  0  0  0  0  0  0  0
   -3.0195   -1.5706   -4.7900 C   0  0  0  0  0  0  0  0  0  0  0  0
   -2.9809   -0.4751   -5.6718 C   0  0  0  0  0  0  0  0  0  0  0  0
   -3.9561   -0.1367   -6.6322 C   0  0  0  0  0  0  0  0  0  0  0  0
   -5.1313   -0.9851   -6.8853 C   0  0  0  0  0  0  0  0  0  0  0  0
   -5.0765   -2.5414   -7.5256 S   0  0  0  0  0  0  0  0  0  0  0  0
   -6.7416   -2.7182   -7.7131 C   0  0  0  0  0  0  0  0  0  0  0  0
   -7.4171   -3.8828   -8.3614 C   0  0  0  0  0  0  0  0  0  0  0  0
   -7.3501   -3.7667   -9.8835 C   0  0  0  0  0  0  0  0  0  0  0  0
   -7.3584   -1.5457   -7.2928 C   0  0  0  0  0  0  0  0  0  0  0  0
   -8.6970   -1.3313   -7.3783 F   0  0  0  0  0  0  0  0  0  0  0  0
   -6.4624   -0.5783   -6.8322 C   0  0  0  0  0  0  0  0  0  0  0  0
   -6.8506    0.6389   -6.3821 F   0  0  0  0  0  0  0  0  0  0  0  0
   -3.7582    1.0586   -7.3470 C   0  0  0  0  0  0  0  0  0  0  0  0
   -2.6537    1.8899   -7.1395 C   0  0  0  0  0  0  0  0  0  0  0  0
   -1.6974    1.5719   -6.1569 C   0  0  0  0  0  0  0  0  0  0  0  0
   -0.5994    2.4932   -5.8140 C   0  0  0  0  0  0  0  0  0  0  0  0
    0.6805    2.9076   -6.8259 S   0  0  0  0  0  0  0  0  0  0  0  0
    1.4349    3.9464   -5.7353 C   0  0  0  0  0  0  0  0  0  0  0  0
    2.7531    4.6201   -5.9533 C   0  0  0  0  0  0  0  0  0  0  0  0
    3.8920    3.7204   -5.4883 C   0  0  0  0  0  0  0  0  0  0  0  0
    0.6992    3.9593   -4.5546 C   0  0  0  0  0  0  0  0  0  0  0  0
   -0.4419    3.1550   -4.6015 C   0  0  0  0  0  0  0  0  0  0  0  0
   -1.3051    3.0362   -3.5619 F   0  0  0  0  0  0  0  0  0  0  0  0
    1.0584    4.6727   -3.4591 F   0  0  0  0  0  0  0  0  0  0  0  0
   -1.8896    0.3735   -5.4470 C   0  0  0  0  0  0  0  0  0  0  0  0
   -0.9760   -0.2356   -4.1742 S   0  0  0  0  0  0  0  0  0  0  0  0
   -2.6746    3.0472   -7.9358 C   0  0  0  0  0  0  0  0  0  0  0  0
   -3.7977    3.1201   -8.7536 C   0  0  0  0  0  0  0  0  0  0  0  0
   -4.7554    1.7538   -8.5115 S   0  0  0  0  0  0  0  0  0  0  0  0
   -4.1452    4.2587   -9.6343 C   0  0  0  0  0  0  0  0  0  0  0  0
   -4.2762    4.0924  -11.0402 C   0  0  0  0  0  0  0  0  0  0  0  0
   -4.0625    2.9319  -11.6622 C   0  0  0  0  0  0  0  0  0  0  0  0
   -4.5015    3.9158  -13.3324 S   0  0  0  0  0  4  0  0  0  0  0  0
   -7.8731    4.1094  -11.7625 F   0  0  0  0  0  0  0  0  0  0  0  0
   -4.7137    4.9919  -13.1578 C   0  0  0  0  0  0  0  0  0  0  0  0
   -4.6100    5.1825  -11.8476 C   0  0  0  0  0  0  0  0  0  0  0  0
   -4.8122    6.4474  -11.2807 C   0  0  0  0  0  0  0  0  0  0  0  0
   -4.6757    6.6247   -9.9070 C   0  0  0  0  0  0  0  0  0  0  0  0
   -4.3442    5.5460   -9.0757 C   0  0  0  0  0  0  0  0  0  0  0  0
   -4.2481    5.8014   -7.6259 C   0  0  0  0  0  0  0  0  0  0  0  0
   -3.1444    6.3488   -7.1079 C   0  0  0  0  0  0  0  0  0  0  0  0
   -3.0890    6.8899   -5.7235 C   0  0  0  0  0  0  0  0  0  0  0  0
   -2.6621    8.2317   -5.5106 C   0  0  0  0  0  0  0  0  0  0  0  0
   -2.3534    9.0708   -6.5015 C   0  0  0  0  0  0  0  0  0  0  0  0
   -1.6970   11.2320   -5.2546 S   0  0  0  0  0  4  0  0  0  0  0  0
   -1.5369   11.5341   -6.0695 F   0  0  0  0  0  0  0  0  0  0  0  0
   -2.1785   10.0054   -4.0563 C   0  0  0  0  0  0  0  0  0  0  0  0
   -2.5812    8.7477   -4.2166 C   0  0  0  0  0  0  0  0  0  0  0  0
   -2.9257    7.9557   -3.1180 C   0  0  0  0  0  0  0  0  0  0  0  0
   -3.3542    6.6460   -3.3092 C   0  0  0  0  0  0  0  0  0  0  0  0
   -3.4481    6.0951   -4.5999 C   0  0  0  0  0  0  0  0  0  0  0  0
   -3.8250    4.6687   -4.7550 C   0  0  0  0  0  0  0  0  0  0  0  0
   -4.6946    4.0493   -3.9580 C   0  0  0  0  0  0  0  0  0  0  0  0
    7.6294   -0.5586   11.8721 H   0  0  0  0  0  0  0  0  0  0  0  0
    8.2014    1.6877   11.0749 H   0  0  0  0  0  0  0  0  0  0  0  0
    7.5747    2.1818    7.5664 H   0  0  0  0  0  0  0  0  0  0  0  0
    9.1829    0.0048    6.6389 H   0  0  0  0  0  0  0  0  0  0  0  0
    8.6690   -2.2981    7.3342 H   0  0  0  0  0  0  0  0  0  0  0  0
    7.9228   -3.8340    9.0954 H   0  0  0  0  0  0  0  0  0  0  0  0
    7.7537   -3.2522   12.5800 H   0  0  0  0  0  0  0  0  0  0  0  0
    5.9293   -4.7328   12.2857 H   0  0  0  0  0  0  0  0  0  0  0  0
    4.5381   -6.0264   10.2865 H   0  0  0  0  0  0  0  0  0  0  0  0
    2.8382  -11.2164    7.6072 H   0  0  0  0  0  0  0  0  0  0  0  0
    2.3225  -11.4661    9.3112 H   0  0  0  0  0  0  0  0  0  0  0  0
   -0.0451  -10.9154    8.6827 H   0  0  0  0  0  0  0  0  0  0  0  0
    0.5963  -12.3118    7.7406 H   0  0  0  0  0  0  0  0  0  0  0  0
    0.4727  -10.6863    6.9595 H   0  0  0  0  0  0  0  0  0  0  0  0
    5.6593    2.0399    6.0094 H   0  0  0  0  0  0  0  0  0  0  0  0
    4.1954    3.0620    6.2270 H   0  0  0  0  0  0  0  0  0  0  0  0
    3.3250    2.3061    4.0033 H   0  0  0  0  0  0  0  0  0  0  0  0
    4.7758    1.2412    3.7954 H   0  0  0  0  0  0  0  0  0  0  0  0
    4.9697    3.0364    3.8477 H   0  0  0  0  0  0  0  0  0  0  0  0
    1.2988   -2.2424    5.1943 H   0  0  0  0  0  0  0  0  0  0  0  0
    0.6804   -5.7264    2.5785 H   0  0  0  0  0  0  0  0  0  0  0  0
    2.6602   -9.1666   -2.2511 H   0  0  0  0  0  0  0  0  0  0  0  0
    0.9279   -9.2836   -2.7142 H   0  0  0  0  0  0  0  0  0  0  0  0
    0.3808  -10.2485   -0.4637 H   0  0  0  0  0  0  0  0  0  0  0  0
    2.1286  -10.1286    0.0078 H   0  0  0  0  0  0  0  0  0  0  0  0
    1.6237  -11.2317   -1.3309 H   0  0  0  0  0  0  0  0  0  0  0  0
   -5.9559    1.0826    3.3696 H   0  0  0  0  0  0  0  0  0  0  0  0
   -4.9823    2.5657    3.0851 H   0  0  0  0  0  0  0  0  0  0  0  0
   -4.4256    0.4307    5.2510 H   0  0  0  0  0  0  0  0  0  0  0  0
   -5.1596    2.0605    5.5207 H   0  0  0  0  0  0  0  0  0  0  0  0
   -3.4469    1.9269    4.9631 H   0  0  0  0  0  0  0  0  0  0  0  0
   -2.8237   -0.9230   -1.3402 H   0  0  0  0  0  0  0  0  0  0  0  0
   -3.8324   -2.2806   -4.7449 H   0  0  0  0  0  0  0  0  0  0  0  0
   -6.9161   -4.8237   -8.0452 H   0  0  0  0  0  0  0  0  0  0  0  0
   -8.4819   -3.9353   -8.0423 H   0  0  0  0  0  0  0  0  0  0  0  0
   -6.2927   -3.7653  -10.2242 H   0  0  0  0  0  0  0  0  0  0  0  0
   -7.8452   -2.8305  -10.2229 H   0  0  0  0  0  0  0  0  0  0  0  0
   -7.8734   -4.6273  -10.3502 H   0  0  0  0  0  0  0  0  0  0  0  0
    2.8804    4.8511   -7.0316 H   0  0  0  0  0  0  0  0  0  0  0  0
    2.7816    5.5783   -5.3901 H   0  0  0  0  0  0  0  0  0  0  0  0
    3.9130    2.7849   -6.0880 H   0  0  0  0  0  0  0  0  0  0  0  0
    3.7678    3.4639   -4.4156 H   0  0  0  0  0  0  0  0  0  0  0  0
    4.8616    4.2461   -5.6156 H   0  0  0  0  0  0  0  0  0  0  0  0
   -1.9189    3.8203   -7.9019 H   0  0  0  0  0  0  0  0  0  0  0  0
   -3.7680    2.0238  -11.1558 H   0  0  0  0  0  0  0  0  0  0  0  0
   -5.8357    2.6138  -13.5241 H   0  0  0  0  0  0  0  0  0  0  0  0
   -4.9633    5.7957  -13.8394 H   0  0  0  0  0  0  0  0  0  0  0  0
   -5.0717    7.3006  -11.8969 H   0  0  0  0  0  0  0  0  0  0  0  0
   -4.8348    7.6087   -9.4833 H   0  0  0  0  0  0  0  0  0  0  0  0
   -5.1352    5.6643   -7.0192 H   0  0  0  0  0  0  0  0  0  0  0  0
   -2.3006    6.5308   -7.7659 H   0  0  0  0  0  0  0  0  0  0  0  0
   -2.4187    8.8190   -7.5508 H   0  0  0  0  0  0  0  0  0  0  0  0
    0.0778    9.8868   -5.6945 H   0  0  0  0  0  0  0  0  0  0  0  0
   -2.0949   10.4649   -3.0777 H   0  0  0  0  0  0  0  0  0  0  0  0
   -2.8582    8.3477   -2.1092 H   0  0  0  0  0  0  0  0  0  0  0  0
   -3.5791    6.0539   -2.4328 H   0  0  0  0  0  0  0  0  0  0  0  0
   -3.3962    4.1038   -5.5654 H   0  0  0  0  0  0  0  0  0  0  0  0
   -4.9357    3.0076   -4.1270 H   0  0  0  0  0  0  0  0  0  0  0  0
   -5.1974    4.5695   -3.1517 H   0  0  0  0  0  0  0  0  0  0  0  0
  1  2  1  0
  2  3  2  0
  3  4  1  0
  4  5  1  0
  4  6  1  0
  6  7  2  0
  7  8  1  0
  8  9  2  0
  9 10  1  0
 10 11  1  0
 11 12  2  3
 12 13  1  0
 13 14  2  0
 14 15  1  0
 15 16  2  0
 16 17  1  0
 17 18  1  0
 18 19  1  0
 19 20  1  0
 20 21  1  0
 19 22  2  0
 22 23  1  0
 22 24  1  0
 24 25  1  0
 16 26  1  0
 26 27  2  0
 27 28  1  0
 28 29  1  0
 29 30  1  0
 30 31  1  0
 31 32  1  0
 32 33  1  0
 31 34  2  0
 34 35  1  0
 35 36  1  0
 34 37  1  0
 28 38  2  0
 38 39  1  0
 27 40  1  0
 40 41  2  0
 41 42  1  0
 41 43  1  0
 43 44  2  0
 44 45  1  0
 45 46  2  0
 46 47  1  0
 47 48  1  0
 48 49  1  0
 49 50  1  0
 50 51  1  0
 49 52  2  0
 52 53  1  0
 52 54  1  0
 54 55  1  0
 46 56  1  0
 56 57  2  0
 57 58  1  0
 58 59  1  0
 59 60  1  0
 60 61  1  0
 61 62  1  0
 62 63  1  0
 61 64  2  0
 64 65  1  0
 65 66  1  0
 64 67  1  0
 58 68  2  0
 68 69  1  0
 57 70  1  0
 70 71  2  0
 71 72  1  0
 71 73  1  0
 73 74  2  0
 74 75  1  0
 75 76  2  0
 76 77  1  0
 77 78  1  0
 78 79  1  0
 79 80  1  0
 80 81  1  0
 79 82  2  0
 82 83  1  0
 82 84  1  0
 84 85  1  0
 76 86  1  0
 86 87  2  0
 87 88  1  0
 88 89  1  0
 89 90  1  0
 90 91  1  0
 91 92  1  0
 92 93  1  0
 91 94  2  0
 94 95  1  0
 95 96  1  0
 94 97  1  0
 88 98  2  0
 98 99  1  0
 87100  1  0
100101  2  0
101102  1  0
101103  1  0
103104  1  0
104105  2  0
105106  1  0
106107  1  0
106108  1  0
108109  2  0
109110  1  0
110111  2  0
111112  1  0
112113  1  0
113114  2  3
114115  1  0
115116  1  0
116117  2  0
117118  1  0
118119  1  0
118120  1  0
120121  2  0
121122  1  0
122123  2  0
123124  1  0
124125  1  0
125126  2  3
 10  1  2  0
 39 13  1  0
 69 43  1  0
 99 73  1  0
112103  2  0
124115  2  0
  7  2  1  0
 38 15  1  0
 68 45  1  0
 98 75  1  0
109104  1  0
121116  1  0
 24 17  2  0
 42 26  1  0
 54 47  2  0
 72 56  1  0
 84 77  2  0
102 86  1  0
 35 29  2  0
 65 59  2  0
 95 89  2  0
  1127  1  0
  3128  1  0
  4129  1  0
  6130  1  0
  8131  1  0
  9132  1  0
 11133  1  0
 12134  1  0
 14135  1  0
 20136  1  0
 20137  1  0
 21138  1  0
 21139  1  0
 21140  1  0
 32141  1  0
 32142  1  0
 33143  1  0
 33144  1  0
 33145  1  0
 40146  1  0
 44147  1  0
 50148  1  0
 50149  1  0
 51150  1  0
 51151  1  0
 51152  1  0
 62153  1  0
 62154  1  0
 63155  1  0
 63156  1  0
 63157  1  0
 70158  1  0
 74159  1  0
 80160  1  0
 80161  1  0
 81162  1  0
 81163  1  0
 81164  1  0
 92165  1  0
 92166  1  0
 93167  1  0
 93168  1  0
 93169  1  0
100170  1  0
105171  1  0
106172  1  0
108173  1  0
110174  1  0
111175  1  0
113176  1  0
114177  1  0
117178  1  0
118179  1  0
120180  1  0
122181  1  0
123182  1  0
125183  1  0
126184  1  0
126185  1  0
M  END

