
     RDKit          3D

224249  0  0  0  0  0  0  0  0999 V2000
    0.3417   -3.0384   -9.3292 C   0  0  0  0  0  0  0  0  0  0  0  0
    1.6331   -2.5399   -9.4789 C   0  0  0  0  0  0  0  0  0  0  0  0
    1.7604   -1.1861   -9.1047 C   0  0  0  0  0  0  0  0  0  0  0  0
    2.9236   -0.3908   -9.2001 C   0  0  0  0  0  0  0  0  0  0  0  0
    4.2214   -0.9307   -9.6839 C   0  0  0  0  0  0  0  0  0  0  0  0
    5.1208   -0.2654  -10.9437 S   0  0  0  0  0  0  0  0  0  0  0  0
    6.3979   -1.3516  -10.8632 C   0  0  0  0  0  0  0  0  0  0  0  0
    7.6495   -1.2696  -11.6870 C   0  0  0  0  0  0  0  0  0  0  0  0
    8.7622   -0.5657  -10.9166 C   0  0  0  0  0  0  0  0  0  0  0  0
    6.1495   -2.2526   -9.8321 C   0  0  0  0  0  0  0  0  0  0  0  0
    7.2652   -3.5280   -9.3689 Cl  0  0  0  0  0  0  0  0  0  0  0  0
    4.9297   -2.0231   -9.1766 C   0  0  0  0  0  0  0  0  0  0  0  0
    4.4087   -3.0009   -7.8116 Cl  0  0  0  0  0  0  0  0  0  0  0  0
    2.7770    0.9785   -8.8816 C   0  0  0  0  0  0  0  0  0  0  0  0
    1.5614    1.5374   -8.4739 C   0  0  0  0  0  0  0  0  0  0  0  0
    0.4048    0.7411   -8.3817 C   0  0  0  0  0  0  0  0  0  0  0  0
   -0.9207    1.3264   -8.1022 C   0  0  0  0  0  0  0  0  0  0  0  0
   -1.6878    2.4650   -9.0754 S   0  0  0  0  0  0  0  0  0  0  0  0
   -3.0677    2.6186   -8.1285 C   0  0  0  0  0  0  0  0  0  0  0  0
   -4.2505    3.4800   -8.4627 C   0  0  0  0  0  0  0  0  0  0  0  0
   -5.3340    2.6589   -9.1478 C   0  0  0  0  0  0  0  0  0  0  0  0
   -2.9517    1.7596   -7.0363 C   0  0  0  0  0  0  0  0  0  0  0  0
   -1.7481    1.0404   -7.0211 C   0  0  0  0  0  0  0  0  0  0  0  0
   -1.3310   -0.0932   -5.7490 Cl  0  0  0  0  0  0  0  0  0  0  0  0
   -4.1819    1.6123   -5.7871 Cl  0  0  0  0  0  0  0  0  0  0  0  0
    0.5462   -0.6232   -8.6937 C   0  0  0  0  0  0  0  0  0  0  0  0
   -0.6576   -1.7965   -8.7762 S   0  0  0  0  0  0  0  0  0  0  0  0
    1.6334    2.9222   -8.2302 C   0  0  0  0  0  0  0  0  0  0  0  0
    2.8964    3.4452   -8.4844 C   0  0  0  0  0  0  0  0  0  0  0  0
    3.9256    2.2072   -8.9874 S   0  0  0  0  0  0  0  0  0  0  0  0
    3.2284    4.8736   -8.5064 C   0  0  0  0  0  0  0  0  0  0  0  0
    2.9821    5.8096   -7.4855 C   0  0  0  0  0  0  0  0  0  0  0  0
    3.4441    7.1185   -7.8267 C   0  0  0  0  0  0  0  0  0  0  0  0
    3.9578    7.1430   -9.1296 C   0  0  0  0  0  0  0  0  0  0  0  0
    3.9419    5.6311   -9.8315 S   0  0  0  0  0  0  0  0  0  0  0  0
    4.4748    8.2534   -9.7051 N   0  0  0  0  0  0  0  0  0  0  0  0
    4.4930    9.4082   -8.9981 C   0  0  0  0  0  0  0  0  0  0  0  0
    4.0080    9.4786   -7.7042 C   0  0  0  0  0  0  0  0  0  0  0  0
    3.5089    8.3201   -7.0535 C   0  0  0  0  0  0  0  0  0  0  0  0
    3.2052    8.3658   -5.5661 C   0  0  0  0  0  0  0  0  0  0  0  0
    4.3476    7.7633   -4.7497 C   0  0  0  0  0  0  0  0  0  0  0  0
    4.0981   10.8532   -7.1220 C   0  0  0  0  0  0  0  0  0  0  0  0
    4.3505   11.8146   -8.2927 C   0  0  0  0  0  0  0  0  0  0  0  0
    5.1745   10.9140   -9.6494 S   0  0  0  0  0  0  0  0  0  0  0  0
    2.4329    5.3670   -6.1994 C   0  0  0  0  0  0  0  0  0  0  0  0
    1.1895    5.6581   -5.7971 C   0  0  0  0  0  0  0  0  0  0  0  0
    0.6795    5.0723   -4.5489 C   0  0  0  0  0  0  0  0  0  0  0  0
    0.7851    3.7261   -4.2254 C   0  0  0  0  0  0  0  0  0  0  0  0
    0.5833    3.4693   -2.8587 C   0  0  0  0  0  0  0  0  0  0  0  0
    0.7389    2.2242   -2.2239 C   0  0  0  0  0  0  0  0  0  0  0  0
    1.1072    0.9994   -2.9567 C   0  0  0  0  0  0  0  0  0  0  0  0
    2.5179    0.8067   -3.8511 S   0  0  0  0  0  0  0  0  0  0  0  0
    2.2741   -0.8168   -4.2130 C   0  0  0  0  0  0  0  0  0  0  0  0
    3.2260   -1.6547   -4.9963 C   0  0  0  0  0  0  0  0  0  0  0  0
    4.1961   -2.3824   -4.0713 C   0  0  0  0  0  0  0  0  0  0  0  0
    1.0931   -1.2399   -3.6051 C   0  0  0  0  0  0  0  0  0  0  0  0
    0.4911   -2.8905   -3.7007 Cl  0  0  0  0  0  0  0  0  0  0  0  0
    0.4357   -0.2216   -2.9034 C   0  0  0  0  0  0  0  0  0  0  0  0
   -1.1014   -0.4573   -2.0795 Cl  0  0  0  0  0  0  0  0  0  0  0  0
    0.6660    2.2157   -0.8292 C   0  0  0  0  0  0  0  0  0  0  0  0
    0.3932    3.3534   -0.0638 C   0  0  0  0  0  0  0  0  0  0  0  0
    0.1483    4.5878   -0.7079 C   0  0  0  0  0  0  0  0  0  0  0  0
   -0.1957    5.8056    0.0542 C   0  0  0  0  0  0  0  0  0  0  0  0
    0.7199    7.2171    0.0956 S   0  0  0  0  0  0  0  0  0  0  0  0
   -0.3088    8.0697    1.1237 C   0  0  0  0  0  0  0  0  0  0  0  0
   -0.1143    9.5016    1.5246 C   0  0  0  0  0  0  0  0  0  0  0  0
   -0.7668   10.4431    0.5185 C   0  0  0  0  0  0  0  0  0  0  0  0
   -1.4024    7.2603    1.4296 C   0  0  0  0  0  0  0  0  0  0  0  0
   -1.3326    5.9851    0.8386 C   0  0  0  0  0  0  0  0  0  0  0  0
   -2.5993    4.7756    1.0097 Cl  0  0  0  0  0  0  0  0  0  0  0  0
   -2.7442    7.7879    2.4293 Cl  0  0  0  0  0  0  0  0  0  0  0  0
    0.2854    4.6148   -2.1148 C   0  0  0  0  0  0  0  0  0  0  0  0
    0.2895    5.9414   -3.1565 S   0  0  0  0  0  0  0  0  0  0  0  0
    0.5535    3.1373    1.3269 C   0  0  0  0  0  0  0  0  0  0  0  0
    0.9821    1.8378    1.6130 C   0  0  0  0  0  0  0  0  0  0  0  0
    1.1216    0.9708    0.1828 S   0  0  0  0  0  0  0  0  0  0  0  0
    1.4543    1.2927    2.8913 C   0  0  0  0  0  0  0  0  0  0  0  0
    0.7066    1.1830    4.0670 C   0  0  0  0  0  0  0  0  0  0  0  0
    1.1738    0.1470    4.9103 C   0  0  0  0  0  0  0  0  0  0  0  0
    0.5398   -0.3288    6.0832 C   0  0  0  0  0  0  0  0  0  0  0  0
   -0.3323    0.5742    6.8583 C   0  0  0  0  0  0  0  0  0  0  0  0
    0.1039    2.1531    7.2615 S   0  0  0  0  0  0  0  0  0  0  0  0
   -1.3237    2.5615    8.0412 C   0  0  0  0  0  0  0  0  0  0  0  0
   -1.6221    3.9216    8.6108 C   0  0  0  0  0  0  0  0  0  0  0  0
   -0.7904    4.1842    9.8588 C   0  0  0  0  0  0  0  0  0  0  0  0
   -2.1700    1.4504    8.0102 C   0  0  0  0  0  0  0  0  0  0  0  0
   -3.7674    1.4298    8.7474 Cl  0  0  0  0  0  0  0  0  0  0  0  0
   -1.6275    0.3556    7.3181 C   0  0  0  0  0  0  0  0  0  0  0  0
   -2.5656   -1.0532    6.8913 Cl  0  0  0  0  0  0  0  0  0  0  0  0
    0.9494   -1.6054    6.5470 C   0  0  0  0  0  0  0  0  0  0  0  0
    2.0315   -2.2827    5.9709 C   0  0  0  0  0  0  0  0  0  0  0  0
    2.7670   -1.7162    4.9217 C   0  0  0  0  0  0  0  0  0  0  0  0
    3.9210   -2.4055    4.3275 C   0  0  0  0  0  0  0  0  0  0  0  0
    5.4470   -2.4563    5.0217 S   0  0  0  0  0  0  0  0  0  0  0  0
    6.1434   -3.4380    3.8471 C   0  0  0  0  0  0  0  0  0  0  0  0
    7.5968   -3.7922    3.8106 C   0  0  0  0  0  0  0  0  0  0  0  0
    8.4053   -2.6494    3.2091 C   0  0  0  0  0  0  0  0  0  0  0  0
    5.1798   -3.7242    2.8741 C   0  0  0  0  0  0  0  0  0  0  0  0
    3.9233   -3.1673    3.1622 C   0  0  0  0  0  0  0  0  0  0  0  0
    2.5032   -3.4046    2.1492 Cl  0  0  0  0  0  0  0  0  0  0  0  0
    5.5038   -4.7058    1.4522 Cl  0  0  0  0  0  0  0  0  0  0  0  0
    2.2838   -0.5218    4.3888 C   0  0  0  0  0  0  0  0  0  0  0  0
    2.7087    0.1666    2.9254 S   0  0  0  0  0  0  0  0  0  0  0  0
    2.1968   -3.5928    6.4171 C   0  0  0  0  0  0  0  0  0  0  0  0
    1.2022   -4.0215    7.2896 C   0  0  0  0  0  0  0  0  0  0  0  0
    0.1888   -2.6900    7.6019 S   0  0  0  0  0  0  0  0  0  0  0  0
    0.9186   -5.4674    7.4928 C   0  0  0  0  0  0  0  0  0  0  0  0
   -0.0065   -6.1033    8.3497 C   0  0  0  0  0  0  0  0  0  0  0  0
   -0.0327   -7.5244    8.1826 C   0  0  0  0  0  0  0  0  0  0  0  0
    0.8554   -7.9320    7.1881 C   0  0  0  0  0  0  0  0  0  0  0  0
    1.6617   -6.6398    6.5349 S   0  0  0  0  0  0  0  0  0  0  0  0
    1.0181   -9.2228    6.8128 N   0  0  0  0  0  0  0  0  0  0  0  0
    0.2873  -10.1801    7.4296 C   0  0  0  0  0  0  0  0  0  0  0  0
   -0.5918   -9.8725    8.4548 C   0  0  0  0  0  0  0  0  0  0  0  0
   -0.7953   -8.5265    8.8592 C   0  0  0  0  0  0  0  0  0  0  0  0
   -1.7243   -8.2324   10.0155 C   0  0  0  0  0  0  0  0  0  0  0  0
   -0.9527   -8.1901   11.3317 C   0  0  0  0  0  0  0  0  0  0  0  0
   -1.2493  -11.0784    9.0313 C   0  0  0  0  0  0  0  0  0  0  0  0
   -0.4406  -12.2987    8.5701 C   0  0  0  0  0  0  0  0  0  0  0  0
    0.4286  -11.8974    7.0082 S   0  0  0  0  0  0  0  0  0  0  0  0
   -0.8012   -5.3502    9.3269 C   0  0  0  0  0  0  0  0  0  0  0  0
   -1.9968   -4.7968    9.0750 C   0  0  0  0  0  0  0  0  0  0  0  0
   -2.7257   -4.8260    7.7892 C   0  0  0  0  0  0  0  0  0  0  0  0
   -3.7519   -3.9363    7.4835 C   0  0  0  0  0  0  0  0  0  0  0  0
   -4.2684   -4.0980    6.1867 C   0  0  0  0  0  0  0  0  0  0  0  0
   -5.2470   -3.2918    5.5625 C   0  0  0  0  0  0  0  0  0  0  0  0
   -5.8067   -2.0791    6.2007 C   0  0  0  0  0  0  0  0  0  0  0  0
   -6.5736   -2.0461    7.6947 S   0  0  0  0  0  0  0  0  0  0  0  0
   -6.8059   -0.3777    7.7502 C   0  0  0  0  0  0  0  0  0  0  0  0
   -7.4134    0.3582    8.9130 C   0  0  0  0  0  0  0  0  0  0  0  0
   -8.8623   -0.0633    9.1309 C   0  0  0  0  0  0  0  0  0  0  0  0
   -6.2833    0.1831    6.5816 C   0  0  0  0  0  0  0  0  0  0  0  0
   -6.2685    1.9099    6.2464 Cl  0  0  0  0  0  0  0  0  0  0  0  0
   -5.7093   -0.7714    5.7235 C   0  0  0  0  0  0  0  0  0  0  0  0
   -4.8785   -0.3203    4.2380 Cl  0  0  0  0  0  0  0  0  0  0  0  0
   -5.6222   -3.6507    4.2527 C   0  0  0  0  0  0  0  0  0  0  0  0
   -5.0284   -4.7097    3.5638 C   0  0  0  0  0  0  0  0  0  0  0  0
   -4.0314   -5.4961    4.1761 C   0  0  0  0  0  0  0  0  0  0  0  0
   -3.3864   -6.6181    3.4695 C   0  0  0  0  0  0  0  0  0  0  0  0
   -1.7898   -6.6257    2.9404 S   0  0  0  0  0  0  0  0  0  0  0  0
   -1.8808   -8.0941    2.1135 C   0  0  0  0  0  0  0  0  0  0  0  0
   -0.7710   -8.6706    1.2917 C   0  0  0  0  0  0  0  0  0  0  0  0
   -0.9195   -8.2704   -0.1730 C   0  0  0  0  0  0  0  0  0  0  0  0
   -3.1783   -8.5874    2.2224 C   0  0  0  0  0  0  0  0  0  0  0  0
   -4.0177   -7.7621    2.9867 C   0  0  0  0  0  0  0  0  0  0  0  0
   -5.7083   -8.1469    3.3065 Cl  0  0  0  0  0  0  0  0  0  0  0  0
   -3.7164  -10.0748    1.4587 Cl  0  0  0  0  0  0  0  0  0  0  0  0
   -3.6707   -5.1533    5.4909 C   0  0  0  0  0  0  0  0  0  0  0  0
   -2.4936   -5.8582    6.4684 S   0  0  0  0  0  0  0  0  0  0  0  0
   -5.5217   -4.8560    2.2528 C   0  0  0  0  0  0  0  0  0  0  0  0
   -6.5128   -3.9383    1.9346 C   0  0  0  0  0  0  0  0  0  0  0  0
   -6.7770   -2.9324    3.2617 S   0  0  0  0  0  0  0  0  0  0  0  0
    0.0285   -4.0397   -9.5655 H   0  0  0  0  0  0  0  0  0  0  0  0
    2.4397   -3.1365   -9.8758 H   0  0  0  0  0  0  0  0  0  0  0  0
    7.9834   -2.2915  -11.9620 H   0  0  0  0  0  0  0  0  0  0  0  0
    7.4388   -0.7119  -12.6228 H   0  0  0  0  0  0  0  0  0  0  0  0
    9.6617   -0.4749  -11.5604 H   0  0  0  0  0  0  0  0  0  0  0  0
    9.0386   -1.1476  -10.0111 H   0  0  0  0  0  0  0  0  0  0  0  0
    8.4398    0.4533  -10.6136 H   0  0  0  0  0  0  0  0  0  0  0  0
   -3.9342    4.3036   -9.1326 H   0  0  0  0  0  0  0  0  0  0  0  0
   -4.6549    3.9295   -7.5299 H   0  0  0  0  0  0  0  0  0  0  0  0
   -6.2396    3.2832   -9.2937 H   0  0  0  0  0  0  0  0  0  0  0  0
   -4.9767    2.3065  -10.1424 H   0  0  0  0  0  0  0  0  0  0  0  0
   -5.6115    1.7782   -8.5297 H   0  0  0  0  0  0  0  0  0  0  0  0
    0.7930    3.5299   -7.9243 H   0  0  0  0  0  0  0  0  0  0  0  0
    2.2519    7.8684   -5.3317 H   0  0  0  0  0  0  0  0  0  0  0  0
    3.0582    9.4042   -5.2130 H   0  0  0  0  0  0  0  0  0  0  0  0
    5.2732    8.3586   -4.9015 H   0  0  0  0  0  0  0  0  0  0  0  0
    4.0870    7.7925   -3.6656 H   0  0  0  0  0  0  0  0  0  0  0  0
    4.5376    6.7104   -5.0416 H   0  0  0  0  0  0  0  0  0  0  0  0
    3.1488   11.1348   -6.6235 H   0  0  0  0  0  0  0  0  0  0  0  0
    4.9411   10.8845   -6.4006 H   0  0  0  0  0  0  0  0  0  0  0  0
    4.9829   12.6689   -7.9694 H   0  0  0  0  0  0  0  0  0  0  0  0
    3.3817   12.2012   -8.6728 H   0  0  0  0  0  0  0  0  0  0  0  0
    3.0201    4.6501   -5.6408 H   0  0  0  0  0  0  0  0  0  0  0  0
    0.5793    6.3558   -6.3506 H   0  0  0  0  0  0  0  0  0  0  0  0
    1.0690    2.9683   -4.9495 H   0  0  0  0  0  0  0  0  0  0  0  0
    2.6588   -2.3905   -5.6036 H   0  0  0  0  0  0  0  0  0  0  0  0
    3.7945   -1.0038   -5.6908 H   0  0  0  0  0  0  0  0  0  0  0  0
    4.9335   -2.9455   -4.6797 H   0  0  0  0  0  0  0  0  0  0  0  0
    4.7429   -1.6525   -3.4350 H   0  0  0  0  0  0  0  0  0  0  0  0
    3.6489   -3.1002   -3.4235 H   0  0  0  0  0  0  0  0  0  0  0  0
   -0.5543    9.6793    2.5325 H   0  0  0  0  0  0  0  0  0  0  0  0
    0.9743    9.7235    1.5843 H   0  0  0  0  0  0  0  0  0  0  0  0
   -0.5805   11.4979    0.8095 H   0  0  0  0  0  0  0  0  0  0  0  0
   -0.3509   10.2737   -0.4977 H   0  0  0  0  0  0  0  0  0  0  0  0
   -1.8652   10.2755    0.4875 H   0  0  0  0  0  0  0  0  0  0  0  0
    0.4579    3.9090    2.0784 H   0  0  0  0  0  0  0  0  0  0  0  0
   -0.2165    1.7261    4.2326 H   0  0  0  0  0  0  0  0  0  0  0  0
   -1.3835    4.6887    7.8414 H   0  0  0  0  0  0  0  0  0  0  0  0
   -2.6979    4.0143    8.8608 H   0  0  0  0  0  0  0  0  0  0  0  0
   -1.0186    5.2000   10.2512 H   0  0  0  0  0  0  0  0  0  0  0  0
    0.2944    4.1414    9.6177 H   0  0  0  0  0  0  0  0  0  0  0  0
   -1.0248    3.4337   10.6420 H   0  0  0  0  0  0  0  0  0  0  0  0
    7.7600   -4.7230    3.2272 H   0  0  0  0  0  0  0  0  0  0  0  0
    7.9507   -3.9743    4.8498 H   0  0  0  0  0  0  0  0  0  0  0  0
    9.4889   -2.8987    3.2549 H   0  0  0  0  0  0  0  0  0  0  0  0
    8.2422   -1.7148    3.7862 H   0  0  0  0  0  0  0  0  0  0  0  0
    8.1171   -2.4842    2.1485 H   0  0  0  0  0  0  0  0  0  0  0  0
    2.9447   -4.2578    6.0033 H   0  0  0  0  0  0  0  0  0  0  0  0
   -2.2971   -7.3047    9.8721 H   0  0  0  0  0  0  0  0  0  0  0  0
   -2.5087   -9.0152   10.0985 H   0  0  0  0  0  0  0  0  0  0  0  0
   -1.6404   -7.9104   12.1612 H   0  0  0  0  0  0  0  0  0  0  0  0
   -0.5086   -9.1836   11.5588 H   0  0  0  0  0  0  0  0  0  0  0  0
   -0.1297   -7.4428   11.2864 H   0  0  0  0  0  0  0  0  0  0  0  0
   -2.2894  -11.1454    8.6469 H   0  0  0  0  0  0  0  0  0  0  0  0
   -1.2718  -11.0445   10.1423 H   0  0  0  0  0  0  0  0  0  0  0  0
    0.3241  -12.5536    9.3348 H   0  0  0  0  0  0  0  0  0  0  0  0
   -1.0979  -13.1799    8.4153 H   0  0  0  0  0  0  0  0  0  0  0  0
   -0.3717   -5.2171   10.3133 H   0  0  0  0  0  0  0  0  0  0  0  0
   -2.4545   -4.2263    9.8804 H   0  0  0  0  0  0  0  0  0  0  0  0
   -4.0773   -3.1720    8.1765 H   0  0  0  0  0  0  0  0  0  0  0  0
   -7.3744    1.4554    8.7427 H   0  0  0  0  0  0  0  0  0  0  0  0
   -6.8136    0.1320    9.8217 H   0  0  0  0  0  0  0  0  0  0  0  0
   -9.4502    0.0828    8.2019 H   0  0  0  0  0  0  0  0  0  0  0  0
   -9.3109    0.5467    9.9349 H   0  0  0  0  0  0  0  0  0  0  0  0
   -8.9112   -1.1323    9.4251 H   0  0  0  0  0  0  0  0  0  0  0  0
    0.2036   -8.3040    1.6785 H   0  0  0  0  0  0  0  0  0  0  0  0
   -0.7759   -9.7756    1.3730 H   0  0  0  0  0  0  0  0  0  0  0  0
   -0.0579   -8.6635   -0.7577 H   0  0  0  0  0  0  0  0  0  0  0  0
   -0.9457   -7.1648   -0.2676 H   0  0  0  0  0  0  0  0  0  0  0  0
   -1.8558   -8.6920   -0.5947 H   0  0  0  0  0  0  0  0  0  0  0  0
   -5.1598   -5.5952    1.5536 H   0  0  0  0  0  0  0  0  0  0  0  0
   -7.0157   -3.8750    0.9847 H   0  0  0  0  0  0  0  0  0  0  0  0
  1  2  2  0
  2  3  1  0
  3  4  2  0
  4  5  1  0
  5  6  1  0
  6  7  1  0
  7  8  1  0
  8  9  1  0
  7 10  2  0
 10 11  1  0
 10 12  1  0
 12 13  1  0
  4 14  1  0
 14 15  2  0
 15 16  1  0
 16 17  1  0
 17 18  1  0
 18 19  1  0
 19 20  1  0
 20 21  1  0
 19 22  2  0
 22 23  1  0
 23 24  1  0
 22 25  1  0
 16 26  2  0
 26 27  1  0
 15 28  1  0
 28 29  2  0
 29 30  1  0
 29 31  1  0
 31 32  2  0
 32 33  1  0
 33 34  2  0
 34 35  1  0
 34 36  1  0
 36 37  2  0
 37 38  1  0
 38 39  2  0
 39 40  1  0
 40 41  1  0
 38 42  1  0
 42 43  1  0
 43 44  1  0
 32 45  1  0
 45 46  2  3
 46 47  1  0
 47 48  2  0
 48 49  1  0
 49 50  2  0
 50 51  1  0
 51 52  1  0
 52 53  1  0
 53 54  1  0
 54 55  1  0
 53 56  2  0
 56 57  1  0
 56 58  1  0
 58 59  1  0
 50 60  1  0
 60 61  2  0
 61 62  1  0
 62 63  1  0
 63 64  1  0
 64 65  1  0
 65 66  1  0
 66 67  1  0
 65 68  2  0
 68 69  1  0
 69 70  1  0
 68 71  1  0
 62 72  2  0
 72 73  1  0
 61 74  1  0
 74 75  2  0
 75 76  1  0
 75 77  1  0
 77 78  2  0
 78 79  1  0
 79 80  2  0
 80 81  1  0
 81 82  1  0
 82 83  1  0
 83 84  1  0
 84 85  1  0
 83 86  2  0
 86 87  1  0
 86 88  1  0
 88 89  1  0
 80 90  1  0
 90 91  2  0
 91 92  1  0
 92 93  1  0
 93 94  1  0
 94 95  1  0
 95 96  1  0
 96 97  1  0
 95 98  2  0
 98 99  1  0
 99100  1  0
 98101  1  0
 92102  2  0
102103  1  0
 91104  1  0
104105  2  0
105106  1  0
105107  1  0
107108  2  0
108109  1  0
109110  2  0
110111  1  0
110112  1  0
112113  2  0
113114  1  0
114115  2  0
115116  1  0
116117  1  0
114118  1  0
118119  1  0
119120  1  0
108121  1  0
121122  2  3
122123  1  0
123124  2  0
124125  1  0
125126  2  0
126127  1  0
127128  1  0
128129  1  0
129130  1  0
130131  1  0
129132  2  0
132133  1  0
132134  1  0
134135  1  0
126136  1  0
136137  2  0
137138  1  0
138139  1  0
139140  1  0
140141  1  0
141142  1  0
142143  1  0
141144  2  0
144145  1  0
145146  1  0
144147  1  0
138148  2  0
148149  1  0
137150  1  0
150151  2  0
151152  1  0
 27  1  1  0
 35 31  1  0
 44 37  1  0
 73 47  1  0
103 77  1  0
111107  1  0
120113  1  0
149123  1  0
 26  3  1  0
 39 33  1  0
 72 49  1  0
102 79  1  0
115109  1  0
148125  1  0
 12  5  2  0
 30 14  1  0
 58 51  2  0
 76 60  1  0
 88 81  2  0
106 90  1  0
134127  2  0
152136  1  0
 23 17  2  0
 69 63  2  0
 99 93  2  0
145139  2  0
  1153  1  0
  2154  1  0
  8155  1  0
  8156  1  0
  9157  1  0
  9158  1  0
  9159  1  0
 20160  1  0
 20161  1  0
 21162  1  0
 21163  1  0
 21164  1  0
 28165  1  0
 40166  1  0
 40167  1  0
 41168  1  0
 41169  1  0
 41170  1  0
 42171  1  0
 42172  1  0
 43173  1  0
 43174  1  0
 45175  1  0
 46176  1  0
 48177  1  0
 54178  1  0
 54179  1  0
 55180  1  0
 55181  1  0
 55182  1  0
 66183  1  0
 66184  1  0
 67185  1  0
 67186  1  0
 67187  1  0
 74188  1  0
 78189  1  0
 84190  1  0
 84191  1  0
 85192  1  0
 85193  1  0
 85194  1  0
 96195  1  0
 96196  1  0
 97197  1  0
 97198  1  0
 97199  1  0
104200  1  0
116201  1  0
116202  1  0
117203  1  0
117204  1  0
117205  1  0
118206  1  0
118207  1  0
119208  1  0
119209  1  0
121210  1  0
122211  1  0
124212  1  0
130213  1  0
130214  1  0
131215  1  0
131216  1  0
131217  1  0
142218  1  0
142219  1  0
143220  1  0
143221  1  0
143222  1  0
150223  1  0
151224  1  0
M  END

