
     RDKit          3D

239266  0  0  0  0  0  0  0  0999 V2000
    6.0596   -0.6082    6.4425 C   0  0  0  0  0  0  0  0  0  0  0  0
    5.8408    0.6530    5.8999 C   0  0  0  0  0  0  0  0  0  0  0  0
    4.4874    1.0265    5.8718 C   0  0  0  0  0  0  0  0  0  0  0  0
    3.9656    2.2617    5.4274 C   0  0  0  0  0  0  0  0  0  0  0  0
    4.8228    3.3064    4.8247 C   0  0  0  0  0  0  0  0  0  0  0  0
    4.9156    4.9018    5.3661 S   0  0  0  0  0  0  0  0  0  0  0  0
    6.0722    5.4091    4.2535 C   0  0  0  0  0  0  0  0  0  0  0  0
    6.5584    6.8195    4.1091 C   0  0  0  0  0  0  0  0  0  0  0  0
    5.7763    7.5467    3.0167 C   0  0  0  0  0  0  0  0  0  0  0  0
    6.3980    4.3368    3.4312 C   0  0  0  0  0  0  0  0  0  0  0  0
    7.5495    4.4457    2.1064 Cl  0  0  0  0  0  0  0  0  0  0  0  0
    5.7006    3.1620    3.7491 C   0  0  0  0  0  0  0  0  0  0  0  0
    5.8847    1.6885    2.8148 Cl  0  0  0  0  0  0  0  0  0  0  0  0
    2.5882    2.4714    5.6435 C   0  0  0  0  0  0  0  0  0  0  0  0
    1.7570    1.5139    6.2407 C   0  0  0  0  0  0  0  0  0  0  0  0
    2.2773    0.2695    6.6428 C   0  0  0  0  0  0  0  0  0  0  0  0
    1.4589   -0.7355    7.3499 C   0  0  0  0  0  0  0  0  0  0  0  0
    1.2019   -2.3167    6.8215 S   0  0  0  0  0  0  0  0  0  0  0  0
    0.3065   -2.8050    8.1595 C   0  0  0  0  0  0  0  0  0  0  0  0
   -0.2139   -4.1995    8.3781 C   0  0  0  0  0  0  0  0  0  0  0  0
    0.6730   -4.9785    9.3468 C   0  0  0  0  0  0  0  0  0  0  0  0
    0.2117   -1.7341    9.0509 C   0  0  0  0  0  0  0  0  0  0  0  0
    0.8650   -0.5804    8.6000 C   0  0  0  0  0  0  0  0  0  0  0  0
    0.9971    0.8861    9.5580 Cl  0  0  0  0  0  0  0  0  0  0  0  0
   -0.6081   -1.8313   10.6003 Cl  0  0  0  0  0  0  0  0  0  0  0  0
    3.6507    0.0589    6.4394 C   0  0  0  0  0  0  0  0  0  0  0  0
    4.5825   -1.2534    6.9270 S   0  0  0  0  0  0  0  0  0  0  0  0
    0.4284    1.9446    6.4021 C   0  0  0  0  0  0  0  0  0  0  0  0
    0.2088    3.2535    5.9532 C   0  0  0  0  0  0  0  0  0  0  0  0
    1.6664    3.8452    5.3260 S   0  0  0  0  0  0  0  0  0  0  0  0
   -1.0246    4.0713    6.0926 C   0  0  0  0  0  0  0  0  0  0  0  0
   -2.3180    3.6603    6.4777 C   0  0  0  0  0  0  0  0  0  0  0  0
   -3.2631    4.7225    6.5204 C   0  0  0  0  0  0  0  0  0  0  0  0
   -2.6812    5.9242    6.1188 C   0  0  0  0  0  0  0  0  0  0  0  0
   -1.0583    5.7273    5.7819 S   0  0  0  0  0  0  0  0  0  0  0  0
   -3.3736    7.0797    5.9868 N   0  0  0  0  0  0  0  0  0  0  0  0
   -4.7033    7.0763    6.2506 C   0  0  0  0  0  0  0  0  0  0  0  0
   -5.3697    5.9179    6.6283 C   0  0  0  0  0  0  0  0  0  0  0  0
   -4.6575    4.7044    6.8304 C   0  0  0  0  0  0  0  0  0  0  0  0
   -5.3518    3.5189    7.4773 C   0  0  0  0  0  0  0  0  0  0  0  0
   -4.9926    3.4277    8.9572 C   0  0  0  0  0  0  0  0  0  0  0  0
   -6.8387    6.1139    6.7676 C   0  0  0  0  0  0  0  0  0  0  0  0
   -7.1708    7.4310    6.0571 C   0  0  0  0  0  0  0  0  0  0  0  0
   -5.7121    8.5281    6.1287 S   0  0  0  0  0  0  0  0  0  0  0  0
   -2.6563    2.2574    6.7119 C   0  0  0  0  0  0  0  0  0  0  0  0
   -3.0142    1.3884    5.7534 C   0  0  0  0  0  0  0  0  0  0  0  0
   -3.2235    1.6665    4.3125 C   0  0  0  0  0  0  0  0  0  0  0  0
   -3.4301    2.8883    3.6479 C   0  0  0  0  0  0  0  0  0  0  0  0
   -3.6302    2.7376    2.2666 C   0  0  0  0  0  0  0  0  0  0  0  0
   -3.8400    3.7677    1.3223 C   0  0  0  0  0  0  0  0  0  0  0  0
   -3.9635    5.1861    1.6974 C   0  0  0  0  0  0  0  0  0  0  0  0
   -5.3225    6.1208    1.3715 S   0  0  0  0  0  0  0  0  0  0  0  0
   -4.6220    7.6017    1.7317 C   0  0  0  0  0  0  0  0  0  0  0  0
   -5.2701    8.9302    1.4598 C   0  0  0  0  0  0  0  0  0  0  0  0
   -5.7755    9.5808    2.7425 C   0  0  0  0  0  0  0  0  0  0  0  0
   -3.2988    7.3836    2.1182 C   0  0  0  0  0  0  0  0  0  0  0  0
   -2.1827    8.6749    2.5233 Cl  0  0  0  0  0  0  0  0  0  0  0  0
   -2.9242    6.0285    2.0811 C   0  0  0  0  0  0  0  0  0  0  0  0
   -1.2758    5.4743    2.3103 Cl  0  0  0  0  0  0  0  0  0  0  0  0
   -3.9482    3.3809   -0.0271 C   0  0  0  0  0  0  0  0  0  0  0  0
   -3.9390    2.0436   -0.4263 C   0  0  0  0  0  0  0  0  0  0  0  0
   -3.7825    1.0185    0.5221 C   0  0  0  0  0  0  0  0  0  0  0  0
   -3.7947   -0.4015    0.1454 C   0  0  0  0  0  0  0  0  0  0  0  0
   -2.5159   -1.2258   -0.5703 S   0  0  0  0  0  0  0  0  0  0  0  0
   -3.3119   -2.7064   -0.6766 C   0  0  0  0  0  0  0  0  0  0  0  0
   -2.7655   -3.9213   -1.3664 C   0  0  0  0  0  0  0  0  0  0  0  0
   -3.2112   -3.9478   -2.8253 C   0  0  0  0  0  0  0  0  0  0  0  0
   -4.5946   -2.5660   -0.1597 C   0  0  0  0  0  0  0  0  0  0  0  0
   -4.8600   -1.2743    0.3117 C   0  0  0  0  0  0  0  0  0  0  0  0
   -6.4058   -0.7886    0.9936 Cl  0  0  0  0  0  0  0  0  0  0  0  0
   -5.7852   -3.8559   -0.1501 Cl  0  0  0  0  0  0  0  0  0  0  0  0
   -3.6112    1.4038    1.8600 C   0  0  0  0  0  0  0  0  0  0  0  0
   -3.3295    0.4185    3.1833 S   0  0  0  0  0  0  0  0  0  0  0  0
   -4.0196    1.8790   -1.8130 C   0  0  0  0  0  0  0  0  0  0  0  0
   -4.0297    3.0848   -2.5093 C   0  0  0  0  0  0  0  0  0  0  0  0
   -3.9677    4.3590   -1.4071 S   0  0  0  0  0  0  0  0  0  0  0  0
   -3.7243    3.1829   -3.9378 C   0  0  0  0  0  0  0  0  0  0  0  0
   -4.1655    2.2390   -4.8644 C   0  0  0  0  0  0  0  0  0  0  0  0
   -3.2840    2.0645   -5.9369 C   0  0  0  0  0  0  0  0  0  0  0  0
   -3.3567    1.0184   -6.8753 C   0  0  0  0  0  0  0  0  0  0  0  0
   -4.6252    0.3072   -7.1231 C   0  0  0  0  0  0  0  0  0  0  0  0
   -6.0196    1.0826   -7.6553 S   0  0  0  0  0  0  0  0  0  0  0  0
   -6.9763   -0.2976   -7.7501 C   0  0  0  0  0  0  0  0  0  0  0  0
   -8.4387   -0.2781   -8.0844 C   0  0  0  0  0  0  0  0  0  0  0  0
   -9.2892   -0.3076   -6.8192 C   0  0  0  0  0  0  0  0  0  0  0  0
   -6.2205   -1.3959   -7.3374 C   0  0  0  0  0  0  0  0  0  0  0  0
   -6.8579   -3.0325   -7.2565 Cl  0  0  0  0  0  0  0  0  0  0  0  0
   -4.9011   -1.0549   -6.9791 C   0  0  0  0  0  0  0  0  0  0  0  0
   -3.7861   -2.1864   -6.2391 Cl  0  0  0  0  0  0  0  0  0  0  0  0
   -2.1888    0.7577   -7.6181 C   0  0  0  0  0  0  0  0  0  0  0  0
   -1.0596    1.5761   -7.5368 C   0  0  0  0  0  0  0  0  0  0  0  0
   -1.0462    2.7074   -6.6939 C   0  0  0  0  0  0  0  0  0  0  0  0
    0.1201    3.6054   -6.6147 C   0  0  0  0  0  0  0  0  0  0  0  0
    1.5492    3.2863   -5.7779 S   0  0  0  0  0  0  0  0  0  0  0  0
    2.3437    4.6924   -6.2489 C   0  0  0  0  0  0  0  0  0  0  0  0
    3.7376    5.0757   -5.8542 C   0  0  0  0  0  0  0  0  0  0  0  0
    4.7671    4.4521   -6.7934 C   0  0  0  0  0  0  0  0  0  0  0  0
    1.4925    5.4260   -7.0804 C   0  0  0  0  0  0  0  0  0  0  0  0
    0.2415    4.8189   -7.2772 C   0  0  0  0  0  0  0  0  0  0  0  0
   -1.0284    5.4989   -8.2844 Cl  0  0  0  0  0  0  0  0  0  0  0  0
    1.9415    6.9590   -7.8110 Cl  0  0  0  0  0  0  0  0  0  0  0  0
   -2.1631    2.8974   -5.8752 C   0  0  0  0  0  0  0  0  0  0  0  0
   -2.2686    3.8481   -4.4987 S   0  0  0  0  0  0  0  0  0  0  0  0
    0.0624    1.0343   -8.1802 C   0  0  0  0  0  0  0  0  0  0  0  0
   -0.1309   -0.2792   -8.6301 C   0  0  0  0  0  0  0  0  0  0  0  0
   -1.7656   -0.6618   -8.4091 S   0  0  0  0  0  0  0  0  0  0  0  0
    0.9546   -1.2883   -8.5478 C   0  0  0  0  0  0  0  0  0  0  0  0
    0.7358   -2.6642   -8.3645 C   0  0  0  0  0  0  0  0  0  0  0  0
    1.7377   -3.2909   -7.5923 C   0  0  0  0  0  0  0  0  0  0  0  0
    1.6743   -4.5903   -7.0518 C   0  0  0  0  0  0  0  0  0  0  0  0
    0.6028   -5.5375   -7.3959 C   0  0  0  0  0  0  0  0  0  0  0  0
    0.8199   -6.9517   -8.2838 S   0  0  0  0  0  0  0  0  0  0  0  0
   -0.6931   -7.6083   -7.9380 C   0  0  0  0  0  0  0  0  0  0  0  0
   -1.1612   -8.9563   -8.3996 C   0  0  0  0  0  0  0  0  0  0  0  0
   -1.7031   -8.8775   -9.8226 C   0  0  0  0  0  0  0  0  0  0  0  0
   -1.3781   -6.7355   -7.1016 C   0  0  0  0  0  0  0  0  0  0  0  0
   -2.9756   -7.0620   -6.4370 Cl  0  0  0  0  0  0  0  0  0  0  0  0
   -0.6465   -5.5792   -6.7920 C   0  0  0  0  0  0  0  0  0  0  0  0
   -1.1745   -4.3820   -5.6397 Cl  0  0  0  0  0  0  0  0  0  0  0  0
    2.5517   -4.8827   -5.9915 C   0  0  0  0  0  0  0  0  0  0  0  0
    3.4856   -3.9644   -5.5096 C   0  0  0  0  0  0  0  0  0  0  0  0
    3.6433   -2.7154   -6.1423 C   0  0  0  0  0  0  0  0  0  0  0  0
    4.5150   -1.6575   -5.5944 C   0  0  0  0  0  0  0  0  0  0  0  0
    5.7326   -0.8941   -6.4684 S   0  0  0  0  0  0  0  0  0  0  0  0
    6.0480    0.3059   -5.3403 C   0  0  0  0  0  0  0  0  0  0  0  0
    7.0827    1.3810   -5.5093 C   0  0  0  0  0  0  0  0  0  0  0  0
    8.4196    0.9294   -4.9294 C   0  0  0  0  0  0  0  0  0  0  0  0
    5.1894    0.1359   -4.2533 C   0  0  0  0  0  0  0  0  0  0  0  0
    4.3134   -0.9534   -4.4087 C   0  0  0  0  0  0  0  0  0  0  0  0
    3.0159   -1.3125   -3.2785 Cl  0  0  0  0  0  0  0  0  0  0  0  0
    5.1483    1.2182   -2.8708 Cl  0  0  0  0  0  0  0  0  0  0  0  0
    2.7541   -2.4199   -7.1933 C   0  0  0  0  0  0  0  0  0  0  0  0
    2.4255   -0.9067   -7.8143 S   0  0  0  0  0  0  0  0  0  0  0  0
    4.0984   -4.3720   -4.3129 C   0  0  0  0  0  0  0  0  0  0  0  0
    3.6071   -5.5894   -3.8401 C   0  0  0  0  0  0  0  0  0  0  0  0
    2.4688   -6.1905   -4.9244 S   0  0  0  0  0  0  0  0  0  0  0  0
    3.8244   -6.1364   -2.4965 C   0  0  0  0  0  0  0  0  0  0  0  0
    4.0494   -5.3792   -1.3456 C   0  0  0  0  0  0  0  0  0  0  0  0
    4.0652   -6.1596   -0.1760 C   0  0  0  0  0  0  0  0  0  0  0  0
    4.1429   -5.6805    1.1439 C   0  0  0  0  0  0  0  0  0  0  0  0
    3.6198   -4.3425    1.4900 C   0  0  0  0  0  0  0  0  0  0  0  0
    4.3045   -2.8575    1.1023 S   0  0  0  0  0  0  0  0  0  0  0  0
    3.0377   -1.9148    1.7029 C   0  0  0  0  0  0  0  0  0  0  0  0
    2.9523   -0.4198    1.6176 C   0  0  0  0  0  0  0  0  0  0  0  0
    2.4757    0.0144    0.2342 C   0  0  0  0  0  0  0  0  0  0  0  0
    2.0412   -2.7614    2.1754 C   0  0  0  0  0  0  0  0  0  0  0  0
    0.5333   -2.2002    2.8929 Cl  0  0  0  0  0  0  0  0  0  0  0  0
    2.3671   -4.1182    2.0664 C   0  0  0  0  0  0  0  0  0  0  0  0
    1.2750   -5.4035    2.5683 Cl  0  0  0  0  0  0  0  0  0  0  0  0
    4.2643   -6.6572    2.1541 C   0  0  0  0  0  0  0  0  0  0  0  0
    4.0816   -8.0225    1.9117 C   0  0  0  0  0  0  0  0  0  0  0  0
    3.7823   -8.4697    0.6121 C   0  0  0  0  0  0  0  0  0  0  0  0
    3.1256   -9.7648    0.3814 C   0  0  0  0  0  0  0  0  0  0  0  0
    3.8165  -11.2845    0.6026 S   0  0  0  0  0  0  0  0  0  0  0  0
    2.4209  -12.1572    0.2417 C   0  0  0  0  0  0  0  0  0  0  0  0
    2.2890  -13.6478    0.3673 C   0  0  0  0  0  0  0  0  0  0  0  0
    1.6456  -14.0289    1.6990 C   0  0  0  0  0  0  0  0  0  0  0  0
    1.3861  -11.2667   -0.0345 C   0  0  0  0  0  0  0  0  0  0  0  0
    1.7819   -9.9255    0.0586 C   0  0  0  0  0  0  0  0  0  0  0  0
    0.6580   -8.5832   -0.1137 Cl  0  0  0  0  0  0  0  0  0  0  0  0
   -0.2545  -11.7645   -0.4102 Cl  0  0  0  0  0  0  0  0  0  0  0  0
    3.8629   -7.5198   -0.4207 C   0  0  0  0  0  0  0  0  0  0  0  0
    3.6163   -7.7535   -2.0687 S   0  0  0  0  0  0  0  0  0  0  0  0
    4.1192   -8.7998    3.0834 C   0  0  0  0  0  0  0  0  0  0  0  0
    4.3693   -8.0561    4.2281 C   0  0  0  0  0  0  0  0  0  0  0  0
    4.4864   -6.4260    3.8018 S   0  0  0  0  0  0  0  0  0  0  0  0
    7.0233   -1.0787    6.5668 H   0  0  0  0  0  0  0  0  0  0  0  0
    6.6588    1.2771    5.5643 H   0  0  0  0  0  0  0  0  0  0  0  0
    6.4342    7.3546    5.0753 H   0  0  0  0  0  0  0  0  0  0  0  0
    7.6415    6.8159    3.8518 H   0  0  0  0  0  0  0  0  0  0  0  0
    6.2098    8.5581    2.8650 H   0  0  0  0  0  0  0  0  0  0  0  0
    4.7159    7.6635    3.3289 H   0  0  0  0  0  0  0  0  0  0  0  0
    5.8200    6.9874    2.0628 H   0  0  0  0  0  0  0  0  0  0  0  0
   -1.2514   -4.1496    8.7764 H   0  0  0  0  0  0  0  0  0  0  0  0
   -0.2531   -4.7366    7.4030 H   0  0  0  0  0  0  0  0  0  0  0  0
    0.2973   -6.0152    9.4320 H   0  0  0  0  0  0  0  0  0  0  0  0
    0.6427   -4.5105   10.3519 H   0  0  0  0  0  0  0  0  0  0  0  0
    1.7198   -4.9999    8.9787 H   0  0  0  0  0  0  0  0  0  0  0  0
   -0.3145    1.3287    6.8702 H   0  0  0  0  0  0  0  0  0  0  0  0
   -5.1293    2.5789    6.9522 H   0  0  0  0  0  0  0  0  0  0  0  0
   -6.4543    3.6072    7.4069 H   0  0  0  0  0  0  0  0  0  0  0  0
   -5.3241    4.3404    9.4879 H   0  0  0  0  0  0  0  0  0  0  0  0
   -3.8991    3.3093    9.0967 H   0  0  0  0  0  0  0  0  0  0  0  0
   -5.5055    2.5497    9.4139 H   0  0  0  0  0  0  0  0  0  0  0  0
   -7.0993    6.1825    7.8429 H   0  0  0  0  0  0  0  0  0  0  0  0
   -7.4099    5.2938    6.2892 H   0  0  0  0  0  0  0  0  0  0  0  0
   -8.0510    7.9224    6.5247 H   0  0  0  0  0  0  0  0  0  0  0  0
   -7.4051    7.2283    4.9901 H   0  0  0  0  0  0  0  0  0  0  0  0
   -2.5382    1.8805    7.7185 H   0  0  0  0  0  0  0  0  0  0  0  0
   -3.1532    0.3576    6.0614 H   0  0  0  0  0  0  0  0  0  0  0  0
   -3.4505    3.8519    4.1186 H   0  0  0  0  0  0  0  0  0  0  0  0
   -6.1249    8.7854    0.7665 H   0  0  0  0  0  0  0  0  0  0  0  0
   -4.5452    9.6026    0.9597 H   0  0  0  0  0  0  0  0  0  0  0  0
   -6.2298   10.5631    2.4957 H   0  0  0  0  0  0  0  0  0  0  0  0
   -6.5479    8.9391    3.2162 H   0  0  0  0  0  0  0  0  0  0  0  0
   -4.9325    9.7411    3.4461 H   0  0  0  0  0  0  0  0  0  0  0  0
   -3.1277   -4.8360   -0.8534 H   0  0  0  0  0  0  0  0  0  0  0  0
   -1.6556   -3.9126   -1.3172 H   0  0  0  0  0  0  0  0  0  0  0  0
   -2.7072   -3.1235   -3.3759 H   0  0  0  0  0  0  0  0  0  0  0  0
   -2.9305   -4.9203   -3.2814 H   0  0  0  0  0  0  0  0  0  0  0  0
   -4.3068   -3.8142   -2.9189 H   0  0  0  0  0  0  0  0  0  0  0  0
   -3.9578    0.9209   -2.3088 H   0  0  0  0  0  0  0  0  0  0  0  0
   -5.0012    1.5745   -4.6597 H   0  0  0  0  0  0  0  0  0  0  0  0
   -8.6710    0.6399   -8.6586 H   0  0  0  0  0  0  0  0  0  0  0  0
   -8.6946   -1.1469   -8.7300 H   0  0  0  0  0  0  0  0  0  0  0  0
   -9.2041   -1.2968   -6.3231 H   0  0  0  0  0  0  0  0  0  0  0  0
   -8.9613    0.4834   -6.1117 H   0  0  0  0  0  0  0  0  0  0  0  0
  -10.3610   -0.1304   -7.0717 H   0  0  0  0  0  0  0  0  0  0  0  0
    3.8475    6.1785   -5.8613 H   0  0  0  0  0  0  0  0  0  0  0  0
    3.9270    4.7281   -4.8144 H   0  0  0  0  0  0  0  0  0  0  0  0
    4.8287    3.3517   -6.6115 H   0  0  0  0  0  0  0  0  0  0  0  0
    5.7622    4.8894   -6.5882 H   0  0  0  0  0  0  0  0  0  0  0  0
    4.5086    4.6357   -7.8563 H   0  0  0  0  0  0  0  0  0  0  0  0
    1.0381    1.4973   -8.1365 H   0  0  0  0  0  0  0  0  0  0  0  0
   -0.1998   -3.1475   -8.6184 H   0  0  0  0  0  0  0  0  0  0  0  0
   -0.3109   -9.6791   -8.3661 H   0  0  0  0  0  0  0  0  0  0  0  0
   -1.9613   -9.3400   -7.7260 H   0  0  0  0  0  0  0  0  0  0  0  0
   -0.9118   -8.5246  -10.5139 H   0  0  0  0  0  0  0  0  0  0  0  0
   -2.0473   -9.8809  -10.1471 H   0  0  0  0  0  0  0  0  0  0  0  0
   -2.5659   -8.1793   -9.8650 H   0  0  0  0  0  0  0  0  0  0  0  0
    6.7532    2.3170   -5.0067 H   0  0  0  0  0  0  0  0  0  0  0  0
    7.2100    1.5995   -6.5938 H   0  0  0  0  0  0  0  0  0  0  0  0
    9.1754    1.7333   -5.0736 H   0  0  0  0  0  0  0  0  0  0  0  0
    8.7720    0.0131   -5.4467 H   0  0  0  0  0  0  0  0  0  0  0  0
    8.3209    0.7228   -3.8434 H   0  0  0  0  0  0  0  0  0  0  0  0
    4.8135   -3.7718   -3.7743 H   0  0  0  0  0  0  0  0  0  0  0  0
    4.1533   -4.3029   -1.3530 H   0  0  0  0  0  0  0  0  0  0  0  0
    3.9554    0.0087    1.8177 H   0  0  0  0  0  0  0  0  0  0  0  0
    2.2592   -0.0237    2.3878 H   0  0  0  0  0  0  0  0  0  0  0  0
    3.1695   -0.3455   -0.5474 H   0  0  0  0  0  0  0  0  0  0  0  0
    1.4661   -0.4045    0.0338 H   0  0  0  0  0  0  0  0  0  0  0  0
    2.4099    1.1203    0.1912 H   0  0  0  0  0  0  0  0  0  0  0  0
    3.2956  -14.1118    0.3118 H   0  0  0  0  0  0  0  0  0  0  0  0
    1.6747  -14.0464   -0.4676 H   0  0  0  0  0  0  0  0  0  0  0  0
    0.6285  -13.5917    1.7841 H   0  0  0  0  0  0  0  0  0  0  0  0
    2.2679  -13.6670    2.5481 H   0  0  0  0  0  0  0  0  0  0  0  0
    1.5568  -15.1326    1.7689 H   0  0  0  0  0  0  0  0  0  0  0  0
    3.9756   -9.8713    3.1084 H   0  0  0  0  0  0  0  0  0  0  0  0
    4.4640   -8.4568    5.2235 H   0  0  0  0  0  0  0  0  0  0  0  0
  1  2  2  0
  2  3  1  0
  3  4  2  0
  4  5  1  0
  5  6  1  0
  6  7  1  0
  7  8  1  0
  8  9  1  0
  7 10  2  0
 10 11  1  0
 10 12  1  0
 12 13  1  0
  4 14  1  0
 14 15  2  0
 15 16  1  0
 16 17  1  0
 17 18  1  0
 18 19  1  0
 19 20  1  0
 20 21  1  0
 19 22  2  0
 22 23  1  0
 23 24  1  0
 22 25  1  0
 16 26  2  0
 26 27  1  0
 15 28  1  0
 28 29  2  0
 29 30  1  0
 29 31  1  0
 31 32  2  0
 32 33  1  0
 33 34  2  0
 34 35  1  0
 34 36  1  0
 36 37  2  0
 37 38  1  0
 38 39  2  0
 39 40  1  0
 40 41  1  0
 38 42  1  0
 42 43  1  0
 43 44  1  0
 32 45  1  0
 45 46  2  3
 46 47  1  0
 47 48  2  0
 48 49  1  0
 49 50  2  0
 50 51  1  0
 51 52  1  0
 52 53  1  0
 53 54  1  0
 54 55  1  0
 53 56  2  0
 56 57  1  0
 56 58  1  0
 58 59  1  0
 50 60  1  0
 60 61  2  0
 61 62  1  0
 62 63  1  0
 63 64  1  0
 64 65  1  0
 65 66  1  0
 66 67  1  0
 65 68  2  0
 68 69  1  0
 69 70  1  0
 68 71  1  0
 62 72  2  0
 72 73  1  0
 61 74  1  0
 74 75  2  0
 75 76  1  0
 75 77  1  0
 77 78  2  0
 78 79  1  0
 79 80  2  0
 80 81  1  0
 81 82  1  0
 82 83  1  0
 83 84  1  0
 84 85  1  0
 83 86  2  0
 86 87  1  0
 86 88  1  0
 88 89  1  0
 80 90  1  0
 90 91  2  0
 91 92  1  0
 92 93  1  0
 93 94  1  0
 94 95  1  0
 95 96  1  0
 96 97  1  0
 95 98  2  0
 98 99  1  0
 99100  1  0
 98101  1  0
 92102  2  0
102103  1  0
 91104  1  0
104105  2  0
105106  1  0
105107  1  0
107108  2  0
108109  1  0
109110  2  0
110111  1  0
111112  1  0
112113  1  0
113114  1  0
114115  1  0
113116  2  0
116117  1  0
116118  1  0
118119  1  0
110120  1  0
120121  2  0
121122  1  0
122123  1  0
123124  1  0
124125  1  0
125126  1  0
126127  1  0
125128  2  0
128129  1  0
129130  1  0
128131  1  0
122132  2  0
132133  1  0
121134  1  0
134135  2  0
135136  1  0
135137  1  0
137138  2  0
138139  1  0
139140  2  0
140141  1  0
141142  1  0
142143  1  0
143144  1  0
144145  1  0
143146  2  0
146147  1  0
146148  1  0
148149  1  0
140150  1  0
150151  2  0
151152  1  0
152153  1  0
153154  1  0
154155  1  0
155156  1  0
156157  1  0
155158  2  0
158159  1  0
159160  1  0
158161  1  0
152162  2  0
162163  1  0
151164  1  0
164165  2  0
165166  1  0
 27  1  1  0
 35 31  1  0
 44 37  1  0
 73 47  1  0
103 77  1  0
133107  1  0
163137  1  0
 26  3  1  0
 39 33  1  0
 72 49  1  0
102 79  1  0
132109  1  0
162139  1  0
 12  5  2  0
 30 14  1  0
 58 51  2  0
 76 60  1  0
 88 81  2  0
106 90  1  0
118111  2  0
136120  1  0
148141  2  0
166150  1  0
 23 17  2  0
 69 63  2  0
 99 93  2  0
129123  2  0
159153  2  0
  1167  1  0
  2168  1  0
  8169  1  0
  8170  1  0
  9171  1  0
  9172  1  0
  9173  1  0
 20174  1  0
 20175  1  0
 21176  1  0
 21177  1  0
 21178  1  0
 28179  1  0
 40180  1  0
 40181  1  0
 41182  1  0
 41183  1  0
 41184  1  0
 42185  1  0
 42186  1  0
 43187  1  0
 43188  1  0
 45189  1  0
 46190  1  0
 48191  1  0
 54192  1  0
 54193  1  0
 55194  1  0
 55195  1  0
 55196  1  0
 66197  1  0
 66198  1  0
 67199  1  0
 67200  1  0
 67201  1  0
 74202  1  0
 78203  1  0
 84204  1  0
 84205  1  0
 85206  1  0
 85207  1  0
 85208  1  0
 96209  1  0
 96210  1  0
 97211  1  0
 97212  1  0
 97213  1  0
104214  1  0
108215  1  0
114216  1  0
114217  1  0
115218  1  0
115219  1  0
115220  1  0
126221  1  0
126222  1  0
127223  1  0
127224  1  0
127225  1  0
134226  1  0
138227  1  0
144228  1  0
144229  1  0
145230  1  0
145231  1  0
145232  1  0
156233  1  0
156234  1  0
157235  1  0
157236  1  0
157237  1  0
164238  1  0
165239  1  0
M  END

