
     RDKit          3D

232253  0  0  0  0  0  0  0  0999 V2000
   -2.9748   -0.9431    9.5098 C   0  0  0  0  0  0  0  0  0  0  0  0
   -1.8928   -0.7894    8.6496 C   0  0  0  0  0  0  0  0  0  0  0  0
   -1.9376   -1.6546    7.5383 C   0  0  0  0  0  0  0  0  0  0  0  0
   -0.9878   -1.7370    6.4949 C   0  0  0  0  0  0  0  0  0  0  0  0
    0.1268   -0.7682    6.3779 C   0  0  0  0  0  0  0  0  0  0  0  0
   -0.1438    0.6076    6.3304 C   0  0  0  0  0  0  0  0  0  0  0  0
    0.9011    1.5315    6.2832 C   0  0  0  0  0  0  0  0  0  0  0  0
    2.2305    1.0931    6.2552 C   0  0  0  0  0  0  0  0  0  0  0  0
    3.5741    2.2832    6.3189 S   0  0  0  0  0  0  0  0  0  0  0  0
    3.5680    2.6846    4.5360 C   0  0  0  0  0  0  0  0  0  0  0  0
    4.0931    1.5282    3.6944 C   0  0  0  0  0  0  0  0  0  0  0  0
    2.5052   -0.2849    6.2631 C   0  0  0  0  0  0  0  0  0  0  0  0
    3.7834   -0.7279    6.2448 F   0  0  0  0  0  0  0  0  0  0  0  0
    1.4574   -1.2103    6.3242 C   0  0  0  0  0  0  0  0  0  0  0  0
   -1.2114   -2.7240    5.5150 C   0  0  0  0  0  0  0  0  0  0  0  0
   -2.3550   -3.5313    5.5072 C   0  0  0  0  0  0  0  0  0  0  0  0
   -3.3088   -3.4293    6.5381 C   0  0  0  0  0  0  0  0  0  0  0  0
   -4.5493   -4.2255    6.5455 C   0  0  0  0  0  0  0  0  0  0  0  0
   -5.6472   -3.8225    5.7719 C   0  0  0  0  0  0  0  0  0  0  0  0
   -6.8577   -4.5156    5.8588 C   0  0  0  0  0  0  0  0  0  0  0  0
   -6.9733   -5.6248    6.7044 C   0  0  0  0  0  0  0  0  0  0  0  0
   -8.5506   -6.4766    6.8548 S   0  0  0  0  0  0  0  0  0  0  0  0
   -8.1991   -7.7179    5.5650 C   0  0  0  0  0  0  0  0  0  0  0  0
   -8.5487   -7.1886    4.1850 C   0  0  0  0  0  0  0  0  0  0  0  0
   -5.8762   -6.0332    7.4746 C   0  0  0  0  0  0  0  0  0  0  0  0
   -4.6686   -5.3329    7.3957 C   0  0  0  0  0  0  0  0  0  0  0  0
   -5.9815   -7.0949    8.3131 F   0  0  0  0  0  0  0  0  0  0  0  0
   -3.0553   -2.4927    7.5472 C   0  0  0  0  0  0  0  0  0  0  0  0
   -3.9869   -2.1502    8.9045 S   0  0  0  0  0  0  0  0  0  0  0  0
   -2.4334   -4.3777    4.3894 C   0  0  0  0  0  0  0  0  0  0  0  0
   -1.3422   -4.2384    3.5326 C   0  0  0  0  0  0  0  0  0  0  0  0
   -0.2936   -3.0637    4.1485 S   0  0  0  0  0  0  0  0  0  0  0  0
   -1.1489   -4.9367    2.2551 C   0  0  0  0  0  0  0  0  0  0  0  0
    0.3507   -5.2891    1.5767 S   0  0  0  0  0  0  0  0  0  0  0  0
   -0.2455   -5.9483    0.1477 C   0  0  0  0  0  0  0  0  0  0  0  0
    0.5690   -6.5285   -0.9290 C   0  0  0  0  0  0  0  0  0  0  0  0
    1.8299   -6.5235   -0.8370 O   0  0  0  0  0  0  0  0  0  0  0  0
   -0.0504   -7.1086   -2.0318 O   0  0  0  0  0  0  0  0  0  0  0  0
   -1.6355   -5.8775    0.1695 C   0  0  0  0  0  0  0  0  0  0  0  0
   -2.1387   -5.3074    1.3468 C   0  0  0  0  0  0  0  0  0  0  0  0
   -3.5013   -5.1014    1.5766 O   0  0  0  0  0  0  0  0  0  0  0  0
   -4.3022   -4.4833    0.6167 C   0  0  0  0  0  0  0  0  0  0  0  0
   -5.0694   -5.1636   -0.2314 C   0  0  0  0  0  0  0  0  0  0  0  0
   -5.1700   -6.6287   -0.2696 C   0  0  0  0  0  0  0  0  0  0  0  0
   -5.0576   -7.6801    1.0398 S   0  0  0  0  0  0  0  0  0  0  0  0
   -5.3185   -9.0834    0.1502 C   0  0  0  0  0  0  0  0  0  0  0  0
   -5.3447  -10.4411    0.7135 C   0  0  0  0  0  0  0  0  0  0  0  0
   -5.5545  -11.4332   -0.0355 O   0  0  0  0  0  0  0  0  0  0  0  0
   -5.1302  -10.6318    2.0762 O   0  0  0  0  0  0  0  0  0  0  0  0
   -5.4957   -8.7463   -1.1921 C   0  0  0  0  0  0  0  0  0  0  0  0
   -5.4074   -7.3650   -1.4224 C   0  0  0  0  0  0  0  0  0  0  0  0
   -5.4969   -6.7369   -2.6704 O   0  0  0  0  0  0  0  0  0  0  0  0
   -5.5730   -7.3855   -3.9097 C   0  0  0  0  0  0  0  0  0  0  0  0
   -5.3866   -6.7045   -5.0417 C   0  0  0  0  0  0  0  0  0  0  0  0
   -5.1202   -5.2556   -5.0520 C   0  0  0  0  0  0  0  0  0  0  0  0
   -5.8096   -4.2881   -4.3230 C   0  0  0  0  0  0  0  0  0  0  0  0
   -5.2643   -3.0023   -4.4740 C   0  0  0  0  0  0  0  0  0  0  0  0
   -5.6841   -1.8487   -3.7907 C   0  0  0  0  0  0  0  0  0  0  0  0
   -6.7915   -1.8829   -2.8247 C   0  0  0  0  0  0  0  0  0  0  0  0
   -8.1155   -1.7413   -3.2597 C   0  0  0  0  0  0  0  0  0  0  0  0
   -9.1554   -1.7037   -2.3276 C   0  0  0  0  0  0  0  0  0  0  0  0
   -8.8790   -1.8120   -0.9610 C   0  0  0  0  0  0  0  0  0  0  0  0
  -10.2033   -1.6470    0.2362 S   0  0  0  0  0  0  0  0  0  0  0  0
   -9.9476    0.1451    0.4905 C   0  0  0  0  0  0  0  0  0  0  0  0
  -10.6742    0.9650   -0.5706 C   0  0  0  0  0  0  0  0  0  0  0  0
   -7.5600   -2.0115   -0.5275 C   0  0  0  0  0  0  0  0  0  0  0  0
   -7.2811   -2.1535    0.7932 F   0  0  0  0  0  0  0  0  0  0  0  0
   -6.5186   -2.0274   -1.4599 C   0  0  0  0  0  0  0  0  0  0  0  0
   -4.9241   -0.6846   -3.9741 C   0  0  0  0  0  0  0  0  0  0  0  0
   -3.8191   -0.6357   -4.8310 C   0  0  0  0  0  0  0  0  0  0  0  0
   -3.3809   -1.7978   -5.5121 C   0  0  0  0  0  0  0  0  0  0  0  0
   -2.0883   -1.8299   -6.2477 C   0  0  0  0  0  0  0  0  0  0  0  0
   -0.9118   -1.3898   -5.6219 C   0  0  0  0  0  0  0  0  0  0  0  0
    0.2843   -1.3016   -6.3383 C   0  0  0  0  0  0  0  0  0  0  0  0
    0.3290   -1.7043   -7.6773 C   0  0  0  0  0  0  0  0  0  0  0  0
    1.8502   -1.5049   -8.6157 S   0  0  0  0  0  0  0  0  0  0  0  0
    2.6386   -3.0507   -8.0369 C   0  0  0  0  0  0  0  0  0  0  0  0
    3.9283   -2.7338   -7.2971 C   0  0  0  0  0  0  0  0  0  0  0  0
   -0.8160   -2.2299   -8.2825 C   0  0  0  0  0  0  0  0  0  0  0  0
   -2.0266   -2.2790   -7.5754 C   0  0  0  0  0  0  0  0  0  0  0  0
   -0.7816   -2.6475   -9.5722 F   0  0  0  0  0  0  0  0  0  0  0  0
   -4.1469   -2.9648   -5.3202 C   0  0  0  0  0  0  0  0  0  0  0  0
   -3.8536   -4.5243   -5.8911 S   0  0  0  0  0  0  0  0  0  0  0  0
   -3.1552    0.6005   -4.7828 C   0  0  0  0  0  0  0  0  0  0  0  0
   -3.6424    1.4643   -3.8054 C   0  0  0  0  0  0  0  0  0  0  0  0
   -4.9834    0.7325   -3.0732 S   0  0  0  0  0  0  0  0  0  0  0  0
   -2.7164    2.3365   -3.0733 C   0  0  0  0  0  0  0  0  0  0  0  0
   -2.1150    1.8894   -1.8996 C   0  0  0  0  0  0  0  0  0  0  0  0
   -0.8403    2.4240   -1.6889 C   0  0  0  0  0  0  0  0  0  0  0  0
    0.0769    2.0034   -0.7085 C   0  0  0  0  0  0  0  0  0  0  0  0
   -0.3275    1.0786    0.3665 C   0  0  0  0  0  0  0  0  0  0  0  0
   -0.5168    1.5854    1.6588 C   0  0  0  0  0  0  0  0  0  0  0  0
   -1.2782    0.8669    2.5839 C   0  0  0  0  0  0  0  0  0  0  0  0
   -1.8597   -0.3505    2.2135 C   0  0  0  0  0  0  0  0  0  0  0  0
   -3.1546   -1.0607    3.2294 S   0  0  0  0  0  0  0  0  0  0  0  0
   -4.4763    0.0886    2.6812 C   0  0  0  0  0  0  0  0  0  0  0  0
   -4.7580   -0.0215    1.1861 C   0  0  0  0  0  0  0  0  0  0  0  0
   -1.5248   -0.9353    0.9837 C   0  0  0  0  0  0  0  0  0  0  0  0
   -2.0508   -2.1286    0.6228 F   0  0  0  0  0  0  0  0  0  0  0  0
   -0.7555   -0.2216    0.0622 C   0  0  0  0  0  0  0  0  0  0  0  0
    1.3688    2.5441   -0.7799 C   0  0  0  0  0  0  0  0  0  0  0  0
    1.7341    3.5253   -1.7119 C   0  0  0  0  0  0  0  0  0  0  0  0
    0.7837    4.0064   -2.6440 C   0  0  0  0  0  0  0  0  0  0  0  0
    1.0106    5.2050   -3.4852 C   0  0  0  0  0  0  0  0  0  0  0  0
    0.1392    6.3003   -3.3469 C   0  0  0  0  0  0  0  0  0  0  0  0
    0.2948    7.4320   -4.1492 C   0  0  0  0  0  0  0  0  0  0  0  0
    1.3323    7.4953   -5.0830 C   0  0  0  0  0  0  0  0  0  0  0  0
    1.5012    8.9594   -6.1073 S   0  0  0  0  0  0  0  0  0  0  0  0
    2.5549    9.8365   -4.9057 C   0  0  0  0  0  0  0  0  0  0  0  0
    2.6823   11.2987   -5.3009 C   0  0  0  0  0  0  0  0  0  0  0  0
    2.2103    6.4097   -5.2250 C   0  0  0  0  0  0  0  0  0  0  0  0
    2.0434    5.2633   -4.4349 C   0  0  0  0  0  0  0  0  0  0  0  0
    3.2244    6.4619   -6.1221 F   0  0  0  0  0  0  0  0  0  0  0  0
   -0.4761    3.3768   -2.6380 C   0  0  0  0  0  0  0  0  0  0  0  0
   -1.6899    3.4642   -3.8048 S   0  0  0  0  0  0  0  0  0  0  0  0
    3.0979    3.8789   -1.6233 C   0  0  0  0  0  0  0  0  0  0  0  0
    3.7926    3.1261   -0.6705 C   0  0  0  0  0  0  0  0  0  0  0  0
    2.7149    2.0871    0.1094 S   0  0  0  0  0  0  0  0  0  0  0  0
    5.2523    3.0623   -0.4977 C   0  0  0  0  0  0  0  0  0  0  0  0
    6.1930    3.9937   -0.9422 C   0  0  0  0  0  0  0  0  0  0  0  0
    7.5207    3.5870   -0.7058 C   0  0  0  0  0  0  0  0  0  0  0  0
    8.6985    4.2984   -1.0324 C   0  0  0  0  0  0  0  0  0  0  0  0
    8.6628    5.6431   -1.6477 C   0  0  0  0  0  0  0  0  0  0  0  0
    9.2690    5.8701   -2.8934 C   0  0  0  0  0  0  0  0  0  0  0  0
    9.2725    7.1507   -3.4492 C   0  0  0  0  0  0  0  0  0  0  0  0
    8.6722    8.2163   -2.7715 C   0  0  0  0  0  0  0  0  0  0  0  0
    8.6994    9.8646   -3.4865 S   0  0  0  0  0  0  0  0  0  0  0  0
    7.0374    9.7485   -4.2397 C   0  0  0  0  0  0  0  0  0  0  0  0
    7.0720    8.9619   -5.5419 C   0  0  0  0  0  0  0  0  0  0  0  0
    8.0746    7.9983   -1.5248 C   0  0  0  0  0  0  0  0  0  0  0  0
    7.5093    9.0288   -0.8422 F   0  0  0  0  0  0  0  0  0  0  0  0
    8.0668    6.7172   -0.9667 C   0  0  0  0  0  0  0  0  0  0  0  0
    9.9234    3.6692   -0.7287 C   0  0  0  0  0  0  0  0  0  0  0  0
    9.9993    2.4038   -0.1376 C   0  0  0  0  0  0  0  0  0  0  0  0
    8.8263    1.6968    0.1821 C   0  0  0  0  0  0  0  0  0  0  0  0
    8.8695    0.3305    0.7342 C   0  0  0  0  0  0  0  0  0  0  0  0
    9.0888    0.1270    2.1033 C   0  0  0  0  0  0  0  0  0  0  0  0
    9.1066   -1.1706    2.6245 C   0  0  0  0  0  0  0  0  0  0  0  0
    8.8994   -2.2683    1.7809 C   0  0  0  0  0  0  0  0  0  0  0  0
    8.9086   -3.9305    2.4620 S   0  0  0  0  0  0  0  0  0  0  0  0
    7.1454   -3.9232    2.9570 C   0  0  0  0  0  0  0  0  0  0  0  0
    6.2313   -4.1573    1.7641 C   0  0  0  0  0  0  0  0  0  0  0  0
    8.7050   -2.0684    0.4066 C   0  0  0  0  0  0  0  0  0  0  0  0
    8.6758   -0.7704   -0.1094 C   0  0  0  0  0  0  0  0  0  0  0  0
    8.5316   -3.1231   -0.4273 F   0  0  0  0  0  0  0  0  0  0  0  0
    7.6046    2.3275   -0.1008 C   0  0  0  0  0  0  0  0  0  0  0  0
    6.0573    1.7372    0.1607 S   0  0  0  0  0  0  0  0  0  0  0  0
   11.3168    1.9656    0.0714 C   0  0  0  0  0  0  0  0  0  0  0  0
   12.2721    2.8919   -0.3402 C   0  0  0  0  0  0  0  0  0  0  0  0
   11.4841    4.2470   -0.9647 S   0  0  0  0  0  0  0  0  0  0  0  0
   -3.1352   -0.3769   10.4196 H   0  0  0  0  0  0  0  0  0  0  0  0
   -1.0999   -0.0759    8.8348 H   0  0  0  0  0  0  0  0  0  0  0  0
   -1.1678    0.9697    6.3409 H   0  0  0  0  0  0  0  0  0  0  0  0
    0.6787    2.5907    6.2802 H   0  0  0  0  0  0  0  0  0  0  0  0
    4.2339    3.5627    4.3917 H   0  0  0  0  0  0  0  0  0  0  0  0
    2.5441    2.9726    4.2070 H   0  0  0  0  0  0  0  0  0  0  0  0
    4.3256    1.8928    2.6733 H   0  0  0  0  0  0  0  0  0  0  0  0
    3.3292    0.7250    3.6261 H   0  0  0  0  0  0  0  0  0  0  0  0
    5.0205    1.1149    4.1478 H   0  0  0  0  0  0  0  0  0  0  0  0
    1.6833   -2.2674    6.3546 H   0  0  0  0  0  0  0  0  0  0  0  0
   -5.5729   -2.9558    5.1281 H   0  0  0  0  0  0  0  0  0  0  0  0
   -7.7093   -4.1798    5.2812 H   0  0  0  0  0  0  0  0  0  0  0  0
   -8.8204   -8.6132    5.7781 H   0  0  0  0  0  0  0  0  0  0  0  0
   -7.1348   -8.0342    5.6051 H   0  0  0  0  0  0  0  0  0  0  0  0
   -8.4191   -7.9956    3.4302 H   0  0  0  0  0  0  0  0  0  0  0  0
   -9.6071   -6.8421    4.1663 H   0  0  0  0  0  0  0  0  0  0  0  0
   -7.8811   -6.3408    3.9111 H   0  0  0  0  0  0  0  0  0  0  0  0
   -3.8289   -5.6460    8.0037 H   0  0  0  0  0  0  0  0  0  0  0  0
   -3.2482   -5.0679    4.2121 H   0  0  0  0  0  0  0  0  0  0  0  0
    0.5019   -7.5209   -2.7796 H   0  0  0  0  0  0  0  0  0  0  0  0
   -2.2560   -6.2279   -0.6452 H   0  0  0  0  0  0  0  0  0  0  0  0
   -4.2775   -3.4074    0.5493 H   0  0  0  0  0  0  0  0  0  0  0  0
   -5.5914   -4.6097   -1.0033 H   0  0  0  0  0  0  0  0  0  0  0  0
   -5.1493  -11.5609    2.4809 H   0  0  0  0  0  0  0  0  0  0  0  0
   -5.6807   -9.4825   -1.9596 H   0  0  0  0  0  0  0  0  0  0  0  0
   -5.7432   -8.4555   -3.9661 H   0  0  0  0  0  0  0  0  0  0  0  0
   -5.3271   -7.2503   -5.9772 H   0  0  0  0  0  0  0  0  0  0  0  0
   -6.6594   -4.5138   -3.6907 H   0  0  0  0  0  0  0  0  0  0  0  0
   -8.3350   -1.6414   -4.3158 H   0  0  0  0  0  0  0  0  0  0  0  0
  -10.1722   -1.5611   -2.6663 H   0  0  0  0  0  0  0  0  0  0  0  0
   -8.8641    0.3974    0.4826 H   0  0  0  0  0  0  0  0  0  0  0  0
  -10.3490    0.4158    1.4872 H   0  0  0  0  0  0  0  0  0  0  0  0
  -11.7614    0.7382   -0.5466 H   0  0  0  0  0  0  0  0  0  0  0  0
  -10.2775    0.7404   -1.5824 H   0  0  0  0  0  0  0  0  0  0  0  0
  -10.5244    2.0422   -0.3643 H   0  0  0  0  0  0  0  0  0  0  0  0
   -5.4988   -2.1457   -1.1260 H   0  0  0  0  0  0  0  0  0  0  0  0
   -0.9191   -1.0881   -4.5784 H   0  0  0  0  0  0  0  0  0  0  0  0
    1.1746   -0.9149   -5.8550 H   0  0  0  0  0  0  0  0  0  0  0  0
    1.9689   -3.6450   -7.3720 H   0  0  0  0  0  0  0  0  0  0  0  0
    2.8792   -3.6750   -8.9235 H   0  0  0  0  0  0  0  0  0  0  0  0
    4.4238   -3.6757   -6.9898 H   0  0  0  0  0  0  0  0  0  0  0  0
    3.7167   -2.1210   -6.3923 H   0  0  0  0  0  0  0  0  0  0  0  0
    4.6196   -2.1684   -7.9605 H   0  0  0  0  0  0  0  0  0  0  0  0
   -2.9164   -2.6425   -8.0725 H   0  0  0  0  0  0  0  0  0  0  0  0
   -2.2472    0.8183   -5.3215 H   0  0  0  0  0  0  0  0  0  0  0  0
   -2.5316    1.0749   -1.3239 H   0  0  0  0  0  0  0  0  0  0  0  0
   -0.1878    2.5881    1.9110 H   0  0  0  0  0  0  0  0  0  0  0  0
   -1.5096    1.3116    3.5452 H   0  0  0  0  0  0  0  0  0  0  0  0
   -5.3996   -0.1685    3.2431 H   0  0  0  0  0  0  0  0  0  0  0  0
   -4.1969    1.1318    2.9414 H   0  0  0  0  0  0  0  0  0  0  0  0
   -3.9469    0.4571    0.5992 H   0  0  0  0  0  0  0  0  0  0  0  0
   -4.8352   -1.0885    0.8999 H   0  0  0  0  0  0  0  0  0  0  0  0
   -5.7118    0.4872    0.9386 H   0  0  0  0  0  0  0  0  0  0  0  0
   -0.6104   -0.6233   -0.9313 H   0  0  0  0  0  0  0  0  0  0  0  0
   -0.6664    6.2728   -2.6212 H   0  0  0  0  0  0  0  0  0  0  0  0
   -0.3873    8.2660   -4.0359 H   0  0  0  0  0  0  0  0  0  0  0  0
    2.1068    9.7742   -3.8910 H   0  0  0  0  0  0  0  0  0  0  0  0
    3.5584    9.3606   -4.8917 H   0  0  0  0  0  0  0  0  0  0  0  0
    3.0546   11.3867   -6.3426 H   0  0  0  0  0  0  0  0  0  0  0  0
    3.3932   11.8060   -4.6142 H   0  0  0  0  0  0  0  0  0  0  0  0
    1.6925   11.7985   -5.2178 H   0  0  0  0  0  0  0  0  0  0  0  0
    2.7217    4.4286   -4.5571 H   0  0  0  0  0  0  0  0  0  0  0  0
    3.5846    4.5876   -2.2738 H   0  0  0  0  0  0  0  0  0  0  0  0
    5.9246    4.9190   -1.4346 H   0  0  0  0  0  0  0  0  0  0  0  0
    9.7347    5.0537   -3.4332 H   0  0  0  0  0  0  0  0  0  0  0  0
    9.7501    7.3139   -4.4064 H   0  0  0  0  0  0  0  0  0  0  0  0
    6.3202    9.2853   -3.5301 H   0  0  0  0  0  0  0  0  0  0  0  0
    6.6839   10.7797   -4.4558 H   0  0  0  0  0  0  0  0  0  0  0  0
    6.0701    9.0037   -6.0259 H   0  0  0  0  0  0  0  0  0  0  0  0
    7.8216    9.3990   -6.2361 H   0  0  0  0  0  0  0  0  0  0  0  0
    7.3270    7.9000   -5.3415 H   0  0  0  0  0  0  0  0  0  0  0  0
    7.6109    6.5637    0.0051 H   0  0  0  0  0  0  0  0  0  0  0  0
    9.2385    0.9711    2.7641 H   0  0  0  0  0  0  0  0  0  0  0  0
    9.2700   -1.3208    3.6858 H   0  0  0  0  0  0  0  0  0  0  0  0
    6.9879   -4.7426    3.6889 H   0  0  0  0  0  0  0  0  0  0  0  0
    6.8835   -2.9628    3.4561 H   0  0  0  0  0  0  0  0  0  0  0  0
    5.1846   -4.2859    2.1122 H   0  0  0  0  0  0  0  0  0  0  0  0
    6.2625   -3.2880    1.0715 H   0  0  0  0  0  0  0  0  0  0  0  0
    6.5399   -5.0752    1.2146 H   0  0  0  0  0  0  0  0  0  0  0  0
    8.5113   -0.6219   -1.1689 H   0  0  0  0  0  0  0  0  0  0  0  0
   11.5780    1.0080    0.5072 H   0  0  0  0  0  0  0  0  0  0  0  0
   13.3457    2.7570   -0.2698 H   0  0  0  0  0  0  0  0  0  0  0  0
  1  2  2  0
  2  3  1  0
  3  4  2  0
  4  5  1  0
  5  6  2  0
  6  7  1  0
  7  8  2  0
  8  9  1  0
  9 10  1  0
 10 11  1  0
  8 12  1  0
 12 13  1  0
 12 14  2  0
  4 15  1  0
 15 16  2  0
 16 17  1  0
 17 18  1  0
 18 19  2  0
 19 20  1  0
 20 21  2  0
 21 22  1  0
 22 23  1  0
 23 24  1  0
 21 25  1  0
 25 26  2  0
 25 27  1  0
 17 28  2  0
 28 29  1  0
 16 30  1  0
 30 31  2  0
 31 32  1  0
 31 33  1  0
 33 34  1  0
 34 35  1  0
 35 36  1  0
 36 37  2  0
 36 38  1  0
 35 39  2  0
 39 40  1  0
 40 41  1  0
 41 42  1  0
 42 43  2  3
 43 44  1  0
 44 45  1  0
 45 46  1  0
 46 47  1  0
 47 48  2  0
 47 49  1  0
 46 50  2  0
 50 51  1  0
 51 52  1  0
 52 53  1  0
 53 54  2  3
 54 55  1  0
 55 56  2  0
 56 57  1  0
 57 58  2  0
 58 59  1  0
 59 60  2  0
 60 61  1  0
 61 62  2  0
 62 63  1  0
 63 64  1  0
 64 65  1  0
 62 66  1  0
 66 67  1  0
 66 68  2  0
 58 69  1  0
 69 70  2  0
 70 71  1  0
 71 72  1  0
 72 73  2  0
 73 74  1  0
 74 75  2  0
 75 76  1  0
 76 77  1  0
 77 78  1  0
 75 79  1  0
 79 80  2  0
 79 81  1  0
 71 82  2  0
 82 83  1  0
 70 84  1  0
 84 85  2  0
 85 86  1  0
 85 87  1  0
 87 88  2  0
 88 89  1  0
 89 90  2  0
 90 91  1  0
 91 92  2  0
 92 93  1  0
 93 94  2  0
 94 95  1  0
 95 96  1  0
 96 97  1  0
 94 98  1  0
 98 99  1  0
 98100  2  0
 90101  1  0
101102  2  0
102103  1  0
103104  1  0
104105  2  0
105106  1  0
106107  2  0
107108  1  0
108109  1  0
109110  1  0
107111  1  0
111112  2  0
111113  1  0
103114  2  0
114115  1  0
102116  1  0
116117  2  0
117118  1  0
117119  1  0
119120  2  0
120121  1  0
121122  2  0
122123  1  0
123124  2  0
124125  1  0
125126  2  0
126127  1  0
127128  1  0
128129  1  0
126130  1  0
130131  1  0
130132  2  0
122133  1  0
133134  2  0
134135  1  0
135136  1  0
136137  2  0
137138  1  0
138139  2  0
139140  1  0
140141  1  0
141142  1  0
139143  1  0
143144  2  0
143145  1  0
135146  2  0
146147  1  0
134148  1  0
148149  2  0
149150  1  0
 29  1  1  0
 40 33  2  0
 51 44  2  0
 83 55  1  0
115 87  1  0
147119  1  0
 28  3  1  0
 82 57  1  0
114 89  1  0
146121  1  0
 14  5  1  0
 32 15  1  0
 68 59  1  0
 86 69  1  0
100 91  1  0
118101  1  0
132123  1  0
150133  1  0
 26 18  1  0
 80 72  1  0
112104  1  0
144136  1  0
  1151  1  0
  2152  1  0
  6153  1  0
  7154  1  0
 10155  1  0
 10156  1  0
 11157  1  0
 11158  1  0
 11159  1  0
 14160  1  0
 19161  1  0
 20162  1  0
 23163  1  0
 23164  1  0
 24165  1  0
 24166  1  0
 24167  1  0
 26168  1  0
 30169  1  0
 38170  1  0
 39171  1  0
 42172  1  0
 43173  1  0
 49174  1  0
 50175  1  0
 53176  1  0
 54177  1  0
 56178  1  0
 60179  1  0
 61180  1  0
 64181  1  0
 64182  1  0
 65183  1  0
 65184  1  0
 65185  1  0
 68186  1  0
 73187  1  0
 74188  1  0
 77189  1  0
 77190  1  0
 78191  1  0
 78192  1  0
 78193  1  0
 80194  1  0
 84195  1  0
 88196  1  0
 92197  1  0
 93198  1  0
 96199  1  0
 96200  1  0
 97201  1  0
 97202  1  0
 97203  1  0
100204  1  0
105205  1  0
106206  1  0
109207  1  0
109208  1  0
110209  1  0
110210  1  0
110211  1  0
112212  1  0
116213  1  0
120214  1  0
124215  1  0
125216  1  0
128217  1  0
128218  1  0
129219  1  0
129220  1  0
129221  1  0
132222  1  0
137223  1  0
138224  1  0
141225  1  0
141226  1  0
142227  1  0
142228  1  0
142229  1  0
144230  1  0
148231  1  0
149232  1  0
M  END

