
     RDKit          3D

233259  0  0  0  0  0  0  0  0999 V2000
    1.1523   -7.1299    7.8170 C   0  0  0  0  0  0  0  0  0  0  0  0
    0.8451   -5.8541    7.3554 C   0  0  0  0  0  0  0  0  0  0  0  0
    0.0832   -5.8620    6.1778 C   0  0  0  0  0  0  0  0  0  0  0  0
   -0.3487   -4.7321    5.4604 C   0  0  0  0  0  0  0  0  0  0  0  0
   -0.1743   -3.3563    5.9694 C   0  0  0  0  0  0  0  0  0  0  0  0
    0.5537   -2.0987    5.1159 S   0  0  0  0  0  0  0  0  0  0  0  0
    0.1003   -0.8715    6.1737 C   0  0  0  0  0  0  0  0  0  0  0  0
    0.3806    0.5868    5.9685 C   0  0  0  0  0  0  0  0  0  0  0  0
    1.5700    1.0349    6.8110 C   0  0  0  0  0  0  0  0  0  0  0  0
   -0.6202   -1.4338    7.2254 C   0  0  0  0  0  0  0  0  0  0  0  0
   -1.3301   -0.4873    8.5267 Cl  0  0  0  0  0  0  0  0  0  0  0  0
   -0.7862   -2.8216    7.1034 C   0  0  0  0  0  0  0  0  0  0  0  0
   -1.7729   -3.7689    8.2084 Cl  0  0  0  0  0  0  0  0  0  0  0  0
   -1.0292   -4.9705    4.2575 C   0  0  0  0  0  0  0  0  0  0  0  0
   -1.2815   -6.2552    3.7606 C   0  0  0  0  0  0  0  0  0  0  0  0
   -0.8844   -7.3910    4.4996 C   0  0  0  0  0  0  0  0  0  0  0  0
   -1.1556   -8.7659    4.0380 C   0  0  0  0  0  0  0  0  0  0  0  0
   -0.5476   -9.4443    2.6235 S   0  0  0  0  0  0  0  0  0  0  0  0
   -1.2092  -10.9743    2.8634 C   0  0  0  0  0  0  0  0  0  0  0  0
   -1.0890  -12.1163    1.9010 C   0  0  0  0  0  0  0  0  0  0  0  0
   -2.3427  -12.2349    1.0403 C   0  0  0  0  0  0  0  0  0  0  0  0
   -1.9365  -10.9684    4.0541 C   0  0  0  0  0  0  0  0  0  0  0  0
   -1.9063   -9.7295    4.7121 C   0  0  0  0  0  0  0  0  0  0  0  0
   -2.7892   -9.4196    6.2016 Cl  0  0  0  0  0  0  0  0  0  0  0  0
   -2.8093  -12.3694    4.6634 Cl  0  0  0  0  0  0  0  0  0  0  0  0
   -0.2018   -7.1497    5.7099 C   0  0  0  0  0  0  0  0  0  0  0  0
    0.4913   -8.2664    6.7607 S   0  0  0  0  0  0  0  0  0  0  0  0
   -1.9842   -6.2427    2.5354 C   0  0  0  0  0  0  0  0  0  0  0  0
   -2.2968   -4.9501    2.1100 C   0  0  0  0  0  0  0  0  0  0  0  0
   -1.7088   -3.8348    3.2276 S   0  0  0  0  0  0  0  0  0  0  0  0
   -2.9956   -4.5577    0.8830 C   0  0  0  0  0  0  0  0  0  0  0  0
   -3.7330   -3.3885    0.7617 C   0  0  0  0  0  0  0  0  0  0  0  0
   -4.0550   -3.0690   -0.5626 C   0  0  0  0  0  0  0  0  0  0  0  0
   -4.7304   -1.9083   -0.9925 C   0  0  0  0  0  0  0  0  0  0  0  0
   -5.0720   -0.8240   -0.0442 C   0  0  0  0  0  0  0  0  0  0  0  0
   -3.9611   -0.0643    0.9660 S   0  0  0  0  0  0  0  0  0  0  0  0
   -5.0498    0.9654    1.7170 C   0  0  0  0  0  0  0  0  0  0  0  0
   -4.6779    1.9334    2.8051 C   0  0  0  0  0  0  0  0  0  0  0  0
   -3.8383    3.0833    2.2580 C   0  0  0  0  0  0  0  0  0  0  0  0
   -6.3148    0.7439    1.1704 C   0  0  0  0  0  0  0  0  0  0  0  0
   -7.7505    1.6341    1.6518 Cl  0  0  0  0  0  0  0  0  0  0  0  0
   -6.3284   -0.2604    0.1849 C   0  0  0  0  0  0  0  0  0  0  0  0
   -7.7983   -0.8020   -0.6175 Cl  0  0  0  0  0  0  0  0  0  0  0  0
   -4.8930   -1.7523   -2.3800 C   0  0  0  0  0  0  0  0  0  0  0  0
   -4.3749   -2.6642   -3.3100 C   0  0  0  0  0  0  0  0  0  0  0  0
   -3.7031   -3.8263   -2.8725 C   0  0  0  0  0  0  0  0  0  0  0  0
   -3.1298   -4.7908   -3.8235 C   0  0  0  0  0  0  0  0  0  0  0  0
   -4.0364   -5.7748   -4.8434 S   0  0  0  0  0  0  0  0  0  0  0  0
   -2.7249   -6.5722   -5.5275 C   0  0  0  0  0  0  0  0  0  0  0  0
   -2.8376   -7.7077   -6.4958 C   0  0  0  0  0  0  0  0  0  0  0  0
   -2.8240   -9.0451   -5.7640 C   0  0  0  0  0  0  0  0  0  0  0  0
   -1.5532   -6.0939   -4.9438 C   0  0  0  0  0  0  0  0  0  0  0  0
   -1.7767   -5.0834   -3.9983 C   0  0  0  0  0  0  0  0  0  0  0  0
   -0.4790   -4.2370   -3.1639 Cl  0  0  0  0  0  0  0  0  0  0  0  0
    0.0485   -6.6884   -5.3597 Cl  0  0  0  0  0  0  0  0  0  0  0  0
   -3.5726   -4.0052   -1.4818 C   0  0  0  0  0  0  0  0  0  0  0  0
   -2.7565   -5.2283   -0.6465 S   0  0  0  0  0  0  0  0  0  0  0  0
   -4.4748   -2.2131   -4.6420 C   0  0  0  0  0  0  0  0  0  0  0  0
   -5.0886   -0.9627   -4.7525 C   0  0  0  0  0  0  0  0  0  0  0  0
   -5.4715   -0.4088   -3.2031 S   0  0  0  0  0  0  0  0  0  0  0  0
   -4.9942   -0.0609   -5.9083 C   0  0  0  0  0  0  0  0  0  0  0  0
   -3.7872    0.1661   -6.5681 C   0  0  0  0  0  0  0  0  0  0  0  0
   -3.6864    1.4584   -7.1095 C   0  0  0  0  0  0  0  0  0  0  0  0
   -2.4821    2.0682   -7.5189 C   0  0  0  0  0  0  0  0  0  0  0  0
   -1.2563    1.2720   -7.7453 C   0  0  0  0  0  0  0  0  0  0  0  0
    0.2017    1.4449   -6.9212 S   0  0  0  0  0  0  0  0  0  0  0  0
    1.0200    0.2216   -7.7382 C   0  0  0  0  0  0  0  0  0  0  0  0
    2.4406   -0.1749   -7.4764 C   0  0  0  0  0  0  0  0  0  0  0  0
    2.5049   -1.3939   -6.5662 C   0  0  0  0  0  0  0  0  0  0  0  0
    0.1509   -0.3586   -8.6576 C   0  0  0  0  0  0  0  0  0  0  0  0
    0.5957   -1.6951   -9.7127 Cl  0  0  0  0  0  0  0  0  0  0  0  0
   -1.1243    0.2311   -8.6621 C   0  0  0  0  0  0  0  0  0  0  0  0
   -2.4138   -0.2744   -9.7480 Cl  0  0  0  0  0  0  0  0  0  0  0  0
   -2.4699    3.4787   -7.5361 C   0  0  0  0  0  0  0  0  0  0  0  0
   -3.6211    4.2428   -7.3175 C   0  0  0  0  0  0  0  0  0  0  0  0
   -4.8662    3.6142   -7.1269 C   0  0  0  0  0  0  0  0  0  0  0  0
   -6.1014    4.4033   -6.9698 C   0  0  0  0  0  0  0  0  0  0  0  0
   -6.9271    5.1306   -8.2425 S   0  0  0  0  0  0  0  0  0  0  0  0
   -8.0758    5.9077   -7.2891 C   0  0  0  0  0  0  0  0  0  0  0  0
   -9.2001    6.7411   -7.8269 C   0  0  0  0  0  0  0  0  0  0  0  0
  -10.3262    5.8519   -8.3432 C   0  0  0  0  0  0  0  0  0  0  0  0
   -7.8275    5.6017   -5.9511 C   0  0  0  0  0  0  0  0  0  0  0  0
   -6.7090    4.7752   -5.7735 C   0  0  0  0  0  0  0  0  0  0  0  0
   -6.0750    4.3442   -4.1999 Cl  0  0  0  0  0  0  0  0  0  0  0  0
   -8.7931    6.2093   -4.6142 Cl  0  0  0  0  0  0  0  0  0  0  0  0
   -4.8462    2.2210   -6.9370 C   0  0  0  0  0  0  0  0  0  0  0  0
   -5.9719    1.3049   -6.0897 S   0  0  0  0  0  0  0  0  0  0  0  0
   -3.3530    5.5859   -7.0037 C   0  0  0  0  0  0  0  0  0  0  0  0
   -1.9888    5.8662   -6.8731 C   0  0  0  0  0  0  0  0  0  0  0  0
   -1.1400    4.4800   -7.3376 S   0  0  0  0  0  0  0  0  0  0  0  0
   -1.4761    6.6888   -5.7620 C   0  0  0  0  0  0  0  0  0  0  0  0
   -2.1140    6.6801   -4.5159 C   0  0  0  0  0  0  0  0  0  0  0  0
   -1.2333    6.7795   -3.4304 C   0  0  0  0  0  0  0  0  0  0  0  0
   -1.5578    6.4619   -2.0974 C   0  0  0  0  0  0  0  0  0  0  0  0
   -2.9098    6.0293   -1.7058 C   0  0  0  0  0  0  0  0  0  0  0  0
   -3.9348    6.8889   -0.6913 S   0  0  0  0  0  0  0  0  0  0  0  0
   -5.0529    5.6490   -0.4754 C   0  0  0  0  0  0  0  0  0  0  0  0
   -6.3148    5.7715    0.3234 C   0  0  0  0  0  0  0  0  0  0  0  0
   -7.4814    6.1717   -0.5762 C   0  0  0  0  0  0  0  0  0  0  0  0
   -4.6251    4.5330   -1.1945 C   0  0  0  0  0  0  0  0  0  0  0  0
   -5.4707    2.9932   -1.1928 Cl  0  0  0  0  0  0  0  0  0  0  0  0
   -3.4232    4.7460   -1.8811 C   0  0  0  0  0  0  0  0  0  0  0  0
   -2.6213    3.5073   -2.8395 Cl  0  0  0  0  0  0  0  0  0  0  0  0
   -0.4904    6.2468   -1.2159 C   0  0  0  0  0  0  0  0  0  0  0  0
    0.8488    6.3480   -1.6124 C   0  0  0  0  0  0  0  0  0  0  0  0
    1.1703    6.8009   -2.9120 C   0  0  0  0  0  0  0  0  0  0  0  0
    2.5579    7.0239   -3.3610 C   0  0  0  0  0  0  0  0  0  0  0  0
    3.7559    5.8485   -3.4849 S   0  0  0  0  0  0  0  0  0  0  0  0
    4.9425    6.8742   -4.0996 C   0  0  0  0  0  0  0  0  0  0  0  0
    6.3670    6.4767   -4.3459 C   0  0  0  0  0  0  0  0  0  0  0  0
    7.2090    6.7328   -3.1001 C   0  0  0  0  0  0  0  0  0  0  0  0
    4.4123    8.1575   -4.2173 C   0  0  0  0  0  0  0  0  0  0  0  0
    3.0689    8.2365   -3.8208 C   0  0  0  0  0  0  0  0  0  0  0  0
    2.1516    9.7382   -3.8318 Cl  0  0  0  0  0  0  0  0  0  0  0  0
    5.3383    9.5476   -4.7716 Cl  0  0  0  0  0  0  0  0  0  0  0  0
    0.0972    6.9615   -3.8101 C   0  0  0  0  0  0  0  0  0  0  0  0
    0.1759    6.9323   -5.4928 S   0  0  0  0  0  0  0  0  0  0  0  0
    1.7331    5.7545   -0.6884 C   0  0  0  0  0  0  0  0  0  0  0  0
    1.0808    5.1510    0.3857 C   0  0  0  0  0  0  0  0  0  0  0  0
   -0.5708    5.4461    0.2554 S   0  0  0  0  0  0  0  0  0  0  0  0
    1.6219    3.9930    1.1142 C   0  0  0  0  0  0  0  0  0  0  0  0
    2.9655    4.0156    2.1341 S   0  0  0  0  0  0  0  0  0  0  0  0
    3.0049    2.3581    2.4554 C   0  0  0  0  0  0  0  0  0  0  0  0
    1.9885    1.7493    1.7020 C   0  0  0  0  0  0  0  0  0  0  0  0
    1.2137    2.6597    0.9622 C   0  0  0  0  0  0  0  0  0  0  0  0
    0.2077    2.1935    0.0976 C   0  0  0  0  0  0  0  0  0  0  0  0
   -0.0399    0.8146   -0.0205 C   0  0  0  0  0  0  0  0  0  0  0  0
   -1.1065    0.3654   -0.9499 C   0  0  0  0  0  0  0  0  0  0  0  0
   -1.2131   -0.8750   -1.4274 C   0  0  0  0  0  0  0  0  0  0  0  0
    0.7376   -0.0896    0.7325 C   0  0  0  0  0  0  0  0  0  0  0  0
    1.7660    0.3696    1.5598 C   0  0  0  0  0  0  0  0  0  0  0  0
    4.0394    1.6896    3.2677 C   0  0  0  0  0  0  0  0  0  0  0  0
    3.7343    0.6325    4.0242 C   0  0  0  0  0  0  0  0  0  0  0  0
    4.7282   -0.3538    4.4458 C   0  0  0  0  0  0  0  0  0  0  0  0
    6.0438   -0.1285    4.8496 C   0  0  0  0  0  0  0  0  0  0  0  0
    6.7585   -1.3262    5.0266 C   0  0  0  0  0  0  0  0  0  0  0  0
    8.1088   -1.4486    5.4095 C   0  0  0  0  0  0  0  0  0  0  0  0
    8.9386   -0.2773    5.7198 C   0  0  0  0  0  0  0  0  0  0  0  0
    9.5421    0.8015    4.5788 S   0  0  0  0  0  0  0  0  0  0  0  0
   10.4073    1.7456    5.6711 C   0  0  0  0  0  0  0  0  0  0  0  0
   11.2037    2.9594    5.3053 C   0  0  0  0  0  0  0  0  0  0  0  0
   10.3452    4.2185    5.3760 C   0  0  0  0  0  0  0  0  0  0  0  0
   10.2146    1.2342    6.9584 C   0  0  0  0  0  0  0  0  0  0  0  0
   10.9056    1.9456    8.4062 Cl  0  0  0  0  0  0  0  0  0  0  0  0
    9.3960    0.0954    6.9808 C   0  0  0  0  0  0  0  0  0  0  0  0
    8.9525   -0.7577    8.4502 Cl  0  0  0  0  0  0  0  0  0  0  0  0
    8.6420   -2.7486    5.4587 C   0  0  0  0  0  0  0  0  0  0  0  0
    7.8955   -3.8821    5.1264 C   0  0  0  0  0  0  0  0  0  0  0  0
    6.5453   -3.7636    4.7425 C   0  0  0  0  0  0  0  0  0  0  0  0
    5.7691   -4.9136    4.2440 C   0  0  0  0  0  0  0  0  0  0  0  0
    4.3335   -5.4801    4.9115 S   0  0  0  0  0  0  0  0  0  0  0  0
    4.0482   -6.6524    3.7360 C   0  0  0  0  0  0  0  0  0  0  0  0
    2.8650   -7.5686    3.7159 C   0  0  0  0  0  0  0  0  0  0  0  0
    3.1897   -8.8943    4.3946 C   0  0  0  0  0  0  0  0  0  0  0  0
    5.0811   -6.6170    2.8033 C   0  0  0  0  0  0  0  0  0  0  0  0
    6.0395   -5.6336    3.0792 C   0  0  0  0  0  0  0  0  0  0  0  0
    7.3923   -5.2835    2.0147 Cl  0  0  0  0  0  0  0  0  0  0  0  0
    5.1575   -7.6663    1.3915 Cl  0  0  0  0  0  0  0  0  0  0  0  0
    6.0010   -2.4696    4.7399 C   0  0  0  0  0  0  0  0  0  0  0  0
    4.4524   -2.0069    4.2969 S   0  0  0  0  0  0  0  0  0  0  0  0
    8.6374   -5.0720    5.2094 C   0  0  0  0  0  0  0  0  0  0  0  0
    9.9567   -4.8696    5.5951 C   0  0  0  0  0  0  0  0  0  0  0  0
   10.2123   -3.2201    5.8353 S   0  0  0  0  0  0  0  0  0  0  0  0
    1.7293   -7.3558    8.7058 H   0  0  0  0  0  0  0  0  0  0  0  0
    1.1823   -4.9574    7.8559 H   0  0  0  0  0  0  0  0  0  0  0  0
    0.5890    0.7737    4.8944 H   0  0  0  0  0  0  0  0  0  0  0  0
   -0.5167    1.1861    6.2353 H   0  0  0  0  0  0  0  0  0  0  0  0
    1.8561    2.0679    6.5276 H   0  0  0  0  0  0  0  0  0  0  0  0
    1.3008    1.0189    7.8878 H   0  0  0  0  0  0  0  0  0  0  0  0
    2.4401    0.3652    6.6486 H   0  0  0  0  0  0  0  0  0  0  0  0
   -0.2074  -11.9624    1.2437 H   0  0  0  0  0  0  0  0  0  0  0  0
   -0.9332  -13.0631    2.4588 H   0  0  0  0  0  0  0  0  0  0  0  0
   -3.2287  -12.4465    1.6758 H   0  0  0  0  0  0  0  0  0  0  0  0
   -2.5128  -11.2931    0.4762 H   0  0  0  0  0  0  0  0  0  0  0  0
   -2.2219  -13.0695    0.3165 H   0  0  0  0  0  0  0  0  0  0  0  0
   -2.2791   -7.1315    1.9937 H   0  0  0  0  0  0  0  0  0  0  0  0
   -3.9949   -2.7794    1.6147 H   0  0  0  0  0  0  0  0  0  0  0  0
   -4.0946    1.3918    3.5779 H   0  0  0  0  0  0  0  0  0  0  0  0
   -5.5846    2.3453    3.2951 H   0  0  0  0  0  0  0  0  0  0  0  0
   -2.9874    2.7091    1.6499 H   0  0  0  0  0  0  0  0  0  0  0  0
   -3.4257    3.6770    3.1024 H   0  0  0  0  0  0  0  0  0  0  0  0
   -4.4711    3.7495    1.6391 H   0  0  0  0  0  0  0  0  0  0  0  0
   -2.0007   -7.6702   -7.2223 H   0  0  0  0  0  0  0  0  0  0  0  0
   -3.7849   -7.6145   -7.0666 H   0  0  0  0  0  0  0  0  0  0  0  0
   -1.8619   -9.1834   -5.2242 H   0  0  0  0  0  0  0  0  0  0  0  0
   -3.6620   -9.0968   -5.0351 H   0  0  0  0  0  0  0  0  0  0  0  0
   -2.9428   -9.8712   -6.4959 H   0  0  0  0  0  0  0  0  0  0  0  0
   -4.0321   -2.7294   -5.4864 H   0  0  0  0  0  0  0  0  0  0  0  0
   -2.9346   -0.4979   -6.4684 H   0  0  0  0  0  0  0  0  0  0  0  0
    2.9534   -0.3970   -8.4350 H   0  0  0  0  0  0  0  0  0  0  0  0
    2.9782    0.6664   -6.9940 H   0  0  0  0  0  0  0  0  0  0  0  0
    1.9640   -1.1975   -5.6161 H   0  0  0  0  0  0  0  0  0  0  0  0
    2.0539   -2.2780   -7.0635 H   0  0  0  0  0  0  0  0  0  0  0  0
    3.5656   -1.6275   -6.3302 H   0  0  0  0  0  0  0  0  0  0  0  0
   -9.5940    7.4204   -7.0419 H   0  0  0  0  0  0  0  0  0  0  0  0
   -8.8191    7.3742   -8.6580 H   0  0  0  0  0  0  0  0  0  0  0  0
  -11.1510    6.4855   -8.7354 H   0  0  0  0  0  0  0  0  0  0  0  0
  -10.7245    5.2141   -7.5226 H   0  0  0  0  0  0  0  0  0  0  0  0
   -9.9543    5.2040   -9.1683 H   0  0  0  0  0  0  0  0  0  0  0  0
   -4.1169    6.2588   -6.6343 H   0  0  0  0  0  0  0  0  0  0  0  0
   -3.1514    6.3992   -4.3944 H   0  0  0  0  0  0  0  0  0  0  0  0
   -6.1811    6.5400    1.1161 H   0  0  0  0  0  0  0  0  0  0  0  0
   -6.5480    4.8070    0.8230 H   0  0  0  0  0  0  0  0  0  0  0  0
   -7.2700    7.1408   -1.0748 H   0  0  0  0  0  0  0  0  0  0  0  0
   -8.4010    6.2774    0.0340 H   0  0  0  0  0  0  0  0  0  0  0  0
   -7.6541    5.3949   -1.3514 H   0  0  0  0  0  0  0  0  0  0  0  0
    6.7820    7.0582   -5.1966 H   0  0  0  0  0  0  0  0  0  0  0  0
    6.4146    5.3973   -4.6054 H   0  0  0  0  0  0  0  0  0  0  0  0
    8.2657    6.4526   -3.2984 H   0  0  0  0  0  0  0  0  0  0  0  0
    6.8336    6.1281   -2.2481 H   0  0  0  0  0  0  0  0  0  0  0  0
    7.1781    7.8080   -2.8214 H   0  0  0  0  0  0  0  0  0  0  0  0
    2.7878    5.6119   -0.8734 H   0  0  0  0  0  0  0  0  0  0  0  0
   -0.3582    2.8780   -0.5143 H   0  0  0  0  0  0  0  0  0  0  0  0
   -1.8280    1.0953   -1.2957 H   0  0  0  0  0  0  0  0  0  0  0  0
   -2.0078   -1.1159   -2.1192 H   0  0  0  0  0  0  0  0  0  0  0  0
   -0.5124   -1.6554   -1.1710 H   0  0  0  0  0  0  0  0  0  0  0  0
    0.5633   -1.1526    0.6813 H   0  0  0  0  0  0  0  0  0  0  0  0
    2.3859   -0.3664    2.0479 H   0  0  0  0  0  0  0  0  0  0  0  0
    5.0691    2.0058    3.1566 H   0  0  0  0  0  0  0  0  0  0  0  0
    2.6993    0.3440    4.1397 H   0  0  0  0  0  0  0  0  0  0  0  0
    6.4610    0.8586    4.9947 H   0  0  0  0  0  0  0  0  0  0  0  0
   12.0731    3.0642    5.9900 H   0  0  0  0  0  0  0  0  0  0  0  0
   11.5961    2.8417    4.2724 H   0  0  0  0  0  0  0  0  0  0  0  0
   10.9706    5.1040    5.1379 H   0  0  0  0  0  0  0  0  0  0  0  0
    9.5125    4.1610    4.6438 H   0  0  0  0  0  0  0  0  0  0  0  0
    9.9329    4.3483    6.3982 H   0  0  0  0  0  0  0  0  0  0  0  0
    2.0261   -7.0789    4.2444 H   0  0  0  0  0  0  0  0  0  0  0  0
    2.5367   -7.7551    2.6707 H   0  0  0  0  0  0  0  0  0  0  0  0
    3.9822   -9.4321    3.8331 H   0  0  0  0  0  0  0  0  0  0  0  0
    2.2806   -9.5315    4.4133 H   0  0  0  0  0  0  0  0  0  0  0  0
    3.5272   -8.7272    5.4408 H   0  0  0  0  0  0  0  0  0  0  0  0
    8.2357   -6.0519    4.9947 H   0  0  0  0  0  0  0  0  0  0  0  0
   10.6996   -5.6439    5.7138 H   0  0  0  0  0  0  0  0  0  0  0  0
  1  2  2  0
  2  3  1  0
  3  4  2  0
  4  5  1  0
  5  6  1  0
  6  7  1  0
  7  8  1  0
  8  9  1  0
  7 10  2  0
 10 11  1  0
 10 12  1  0
 12 13  1  0
  4 14  1  0
 14 15  2  0
 15 16  1  0
 16 17  1  0
 17 18  1  0
 18 19  1  0
 19 20  1  0
 20 21  1  0
 19 22  2  0
 22 23  1  0
 23 24  1  0
 22 25  1  0
 16 26  2  0
 26 27  1  0
 15 28  1  0
 28 29  2  0
 29 30  1  0
 29 31  1  0
 31 32  2  0
 32 33  1  0
 33 34  2  0
 34 35  1  0
 35 36  1  0
 36 37  1  0
 37 38  1  0
 38 39  1  0
 37 40  2  0
 40 41  1  0
 40 42  1  0
 42 43  1  0
 34 44  1  0
 44 45  2  0
 45 46  1  0
 46 47  1  0
 47 48  1  0
 48 49  1  0
 49 50  1  0
 50 51  1  0
 49 52  2  0
 52 53  1  0
 53 54  1  0
 52 55  1  0
 46 56  2  0
 56 57  1  0
 45 58  1  0
 58 59  2  0
 59 60  1  0
 59 61  1  0
 61 62  2  0
 62 63  1  0
 63 64  2  0
 64 65  1  0
 65 66  1  0
 66 67  1  0
 67 68  1  0
 68 69  1  0
 67 70  2  0
 70 71  1  0
 70 72  1  0
 72 73  1  0
 64 74  1  0
 74 75  2  0
 75 76  1  0
 76 77  1  0
 77 78  1  0
 78 79  1  0
 79 80  1  0
 80 81  1  0
 79 82  2  0
 82 83  1  0
 83 84  1  0
 82 85  1  0
 76 86  2  0
 86 87  1  0
 75 88  1  0
 88 89  2  0
 89 90  1  0
 89 91  1  0
 91 92  2  0
 92 93  1  0
 93 94  2  0
 94 95  1  0
 95 96  1  0
 96 97  1  0
 97 98  1  0
 98 99  1  0
 97100  2  0
100101  1  0
100102  1  0
102103  1  0
 94104  1  0
104105  2  0
105106  1  0
106107  1  0
107108  1  0
108109  1  0
109110  1  0
110111  1  0
109112  2  0
112113  1  0
113114  1  0
112115  1  0
106116  2  0
116117  1  0
105118  1  0
118119  2  0
119120  1  0
119121  1  0
121122  1  0
122123  1  0
123124  2  0
124125  1  0
125126  1  0
126127  2  0
127128  1  0
128129  2  3
127130  1  0
130131  2  0
123132  1  0
132133  2  3
133134  1  0
134135  2  0
135136  1  0
136137  2  0
137138  1  0
138139  1  0
139140  1  0
140141  1  0
141142  1  0
140143  2  0
143144  1  0
143145  1  0
145146  1  0
137147  1  0
147148  2  0
148149  1  0
149150  1  0
150151  1  0
151152  1  0
152153  1  0
153154  1  0
152155  2  0
155156  1  0
156157  1  0
155158  1  0
149159  2  0
159160  1  0
148161  1  0
161162  2  0
162163  1  0
 27  1  1  0
 57 31  1  0
 87 61  1  0
117 91  1  0
125121  2  0
160134  1  0
 26  3  1  0
 56 33  1  0
 86 63  1  0
116 93  1  0
131124  1  0
159136  1  0
 12  5  2  0
 30 14  1  0
 42 35  2  0
 60 44  1  0
 72 65  2  0
 90 74  1  0
102 95  2  0
120104  1  0
145138  2  0
163147  1  0
 23 17  2  0
 53 47  2  0
 83 77  2  0
113107  2  0
156150  2  0
  1164  1  0
  2165  1  0
  8166  1  0
  8167  1  0
  9168  1  0
  9169  1  0
  9170  1  0
 20171  1  0
 20172  1  0
 21173  1  0
 21174  1  0
 21175  1  0
 28176  1  0
 32177  1  0
 38178  1  0
 38179  1  0
 39180  1  0
 39181  1  0
 39182  1  0
 50183  1  0
 50184  1  0
 51185  1  0
 51186  1  0
 51187  1  0
 58188  1  0
 62189  1  0
 68190  1  0
 68191  1  0
 69192  1  0
 69193  1  0
 69194  1  0
 80195  1  0
 80196  1  0
 81197  1  0
 81198  1  0
 81199  1  0
 88200  1  0
 92201  1  0
 98202  1  0
 98203  1  0
 99204  1  0
 99205  1  0
 99206  1  0
110207  1  0
110208  1  0
111209  1  0
111210  1  0
111211  1  0
118212  1  0
126213  1  0
128214  1  0
129215  1  0
129216  1  0
130217  1  0
131218  1  0
132219  1  0
133220  1  0
135221  1  0
141222  1  0
141223  1  0
142224  1  0
142225  1  0
142226  1  0
153227  1  0
153228  1  0
154229  1  0
154230  1  0
154231  1  0
161232  1  0
162233  1  0
M  END

