
     RDKit          3D

203229  0  0  0  0  0  0  0  0999 V2000
   14.8595   -2.9885   10.9263 C   0  0  0  0  0  0  0  0  0  0  0  0
   13.8243   -2.1963   11.4444 C   0  0  0  0  0  0  0  0  0  0  0  0
   12.5803   -2.7881   11.6669 C   0  0  0  0  0  0  0  0  0  0  0  0
   12.3677   -4.1250   11.3856 C   0  0  0  0  0  0  0  0  0  0  0  0
   13.3798   -4.9320   10.8639 C   0  0  0  0  0  0  0  0  0  0  0  0
   14.6388   -4.3523   10.6358 C   0  0  0  0  0  0  0  0  0  0  0  0
   10.9642   -4.4140   11.5950 C   0  0  0  0  0  0  0  0  0  0  0  0
   10.3436   -3.2479   12.0005 C   0  0  0  0  0  0  0  0  0  0  0  0
   11.3186   -2.1161   12.1203 C   0  0  0  0  0  0  0  0  0  0  0  0
    8.9567   -3.1761   12.1062 C   0  0  0  0  0  0  0  0  0  0  0  0
    8.1793   -4.3129   11.7774 C   0  0  0  0  0  0  0  0  0  0  0  0
    8.8406   -5.5201   11.4298 C   0  0  0  0  0  0  0  0  0  0  0  0
   10.2400   -5.5711   11.3221 C   0  0  0  0  0  0  0  0  0  0  0  0
    6.7017   -4.1801   11.6520 C   0  0  0  0  0  0  0  0  0  0  0  0
    5.8508   -5.0732   10.9885 C   0  0  0  0  0  0  0  0  0  0  0  0
    4.5781   -4.5379   10.7120 C   0  0  0  0  0  0  0  0  0  0  0  0
    3.6003   -5.1309    9.8901 C   0  0  0  0  0  0  0  0  0  0  0  0
    3.7620   -6.5102    9.3763 C   0  0  0  0  0  0  0  0  0  0  0  0
    3.8471   -7.5794   10.2820 C   0  0  0  0  0  0  0  0  0  0  0  0
    4.1279   -8.8716    9.8297 C   0  0  0  0  0  0  0  0  0  0  0  0
    4.3286   -9.1111    8.4617 C   0  0  0  0  0  0  0  0  0  0  0  0
    4.6734  -10.3907    8.0011 C   0  0  0  0  0  0  0  0  0  0  0  0
    4.8913  -10.6100    6.6369 C   0  0  0  0  0  0  0  0  0  0  0  0
    4.7613   -9.5604    5.7259 C   0  0  0  0  0  0  0  0  0  0  0  0
    4.4193   -8.2804    6.1692 C   0  0  0  0  0  0  0  0  0  0  0  0
    4.2109   -8.0412    7.5360 C   0  0  0  0  0  0  0  0  0  0  0  0
    3.9255   -6.7501    8.0017 C   0  0  0  0  0  0  0  0  0  0  0  0
    2.5251   -4.3101    9.4979 C   0  0  0  0  0  0  0  0  0  0  0  0
    2.3912   -2.9831    9.9193 C   0  0  0  0  0  0  0  0  0  0  0  0
    3.3219   -2.4224   10.8211 C   0  0  0  0  0  0  0  0  0  0  0  0
    3.2316   -1.0246   11.3017 C   0  0  0  0  0  0  0  0  0  0  0  0
    3.2696   -0.6397   12.6373 C   0  0  0  0  0  0  0  0  0  0  0  0
    3.1917    0.7477   12.8197 C   0  0  0  0  0  0  0  0  0  0  0  0
    3.1080    1.4486   11.6257 C   0  0  0  0  0  0  0  0  0  0  0  0
    3.0006    3.2327   11.4702 S   0  0  0  0  0  0  0  0  0  0  0  0
    1.1910    3.3053   11.7181 C   0  0  0  0  0  0  0  0  0  0  0  0
    0.4479    3.0424   10.4167 C   0  0  0  0  0  0  0  0  0  0  0  0
    3.1376    0.3605   10.3422 S   0  0  0  0  0  0  0  0  0  0  0  0
    4.4126   -3.2318   11.1816 C   0  0  0  0  0  0  0  0  0  0  0  0
    5.8421   -2.7475   11.9239 S   0  0  0  0  0  0  0  0  0  0  0  0
    1.3639   -2.2974    9.2486 C   0  0  0  0  0  0  0  0  0  0  0  0
    0.7430   -3.0525    8.2486 C   0  0  0  0  0  0  0  0  0  0  0  0
    1.3913   -4.6144    8.2980 S   0  0  0  0  0  0  0  0  0  0  0  0
    0.1828   -2.4378    7.0209 C   0  0  0  0  0  0  0  0  0  0  0  0
    0.5689   -2.9622    5.7678 C   0  0  0  0  0  0  0  0  0  0  0  0
    0.4485   -2.1684    4.6345 C   0  0  0  0  0  0  0  0  0  0  0  0
   -0.0890   -0.8978    4.7075 C   0  0  0  0  0  0  0  0  0  0  0  0
   -0.5865   -0.3876    5.9085 C   0  0  0  0  0  0  0  0  0  0  0  0
   -0.4562   -1.1700    7.0694 C   0  0  0  0  0  0  0  0  0  0  0  0
    0.2409   -0.2064    3.4754 C   0  0  0  0  0  0  0  0  0  0  0  0
    0.9871   -1.0633    2.6933 C   0  0  0  0  0  0  0  0  0  0  0  0
    1.1313   -2.4100    3.3257 C   0  0  0  0  0  0  0  0  0  0  0  0
    1.6175   -0.6179    1.5331 C   0  0  0  0  0  0  0  0  0  0  0  0
    1.4495    0.7261    1.1277 C   0  0  0  0  0  0  0  0  0  0  0  0
    0.6560    1.5903    1.9294 C   0  0  0  0  0  0  0  0  0  0  0  0
    0.0662    1.1315    3.1219 C   0  0  0  0  0  0  0  0  0  0  0  0
    2.0626    1.2022   -0.1437 C   0  0  0  0  0  0  0  0  0  0  0  0
    2.1994    0.3142   -1.2338 C   0  0  0  0  0  0  0  0  0  0  0  0
    2.6855    0.7897   -2.4462 C   0  0  0  0  0  0  0  0  0  0  0  0
    3.0075    2.1221   -2.6135 C   0  0  0  0  0  0  0  0  0  0  0  0
    2.9059    3.0283   -1.5597 C   0  0  0  0  0  0  0  0  0  0  0  0
    2.4542    2.5577   -0.3121 C   0  0  0  0  0  0  0  0  0  0  0  0
    3.1585    2.3711   -4.0373 C   0  0  0  0  0  0  0  0  0  0  0  0
    2.9353    1.1784   -4.6996 C   0  0  0  0  0  0  0  0  0  0  0  0
    2.6967    0.0494   -3.7448 C   0  0  0  0  0  0  0  0  0  0  0  0
    2.6362    1.1612   -6.0546 C   0  0  0  0  0  0  0  0  0  0  0  0
    2.5096    2.3870   -6.7558 C   0  0  0  0  0  0  0  0  0  0  0  0
    2.8649    3.5894   -6.0909 C   0  0  0  0  0  0  0  0  0  0  0  0
    3.1727    3.5880   -4.7192 C   0  0  0  0  0  0  0  0  0  0  0  0
    1.7042    2.4375   -8.0090 C   0  0  0  0  0  0  0  0  0  0  0  0
    1.0893    1.3231   -8.5887 C   0  0  0  0  0  0  0  0  0  0  0  0
   -0.1385    1.6086   -9.2072 C   0  0  0  0  0  0  0  0  0  0  0  0
   -1.1086    0.6469   -9.5587 C   0  0  0  0  0  0  0  0  0  0  0  0
   -0.8912   -0.8009   -9.3457 C   0  0  0  0  0  0  0  0  0  0  0  0
   -0.7969   -1.3103   -8.0401 C   0  0  0  0  0  0  0  0  0  0  0  0
   -0.6593   -2.6840   -7.8239 C   0  0  0  0  0  0  0  0  0  0  0  0
   -0.6255   -3.5682   -8.9114 C   0  0  0  0  0  0  0  0  0  0  0  0
   -0.5159   -4.9506   -8.7063 C   0  0  0  0  0  0  0  0  0  0  0  0
   -0.5031   -5.8216   -9.7998 C   0  0  0  0  0  0  0  0  0  0  0  0
   -0.5876   -5.3222  -11.1022 C   0  0  0  0  0  0  0  0  0  0  0  0
   -0.6947   -3.9458  -11.3219 C   0  0  0  0  0  0  0  0  0  0  0  0
   -0.7219   -3.0587  -10.2323 C   0  0  0  0  0  0  0  0  0  0  0  0
   -0.8557   -1.6767  -10.4399 C   0  0  0  0  0  0  0  0  0  0  0  0
   -2.4006    1.1262   -9.8272 C   0  0  0  0  0  0  0  0  0  0  0  0
   -2.7123    2.4891   -9.8270 C   0  0  0  0  0  0  0  0  0  0  0  0
   -1.7066    3.4623   -9.6309 C   0  0  0  0  0  0  0  0  0  0  0  0
   -2.0075    4.9085   -9.7970 C   0  0  0  0  0  0  0  0  0  0  0  0
   -2.8143    5.4388  -10.8067 C   0  0  0  0  0  0  0  0  0  0  0  0
   -2.9240    6.8327  -10.7741 C   0  0  0  0  0  0  0  0  0  0  0  0
   -2.2056    7.4060   -9.7382 C   0  0  0  0  0  0  0  0  0  0  0  0
   -2.0906    9.1606   -9.4146 S   0  0  0  0  0  0  0  0  0  0  0  0
   -3.6243    9.2529   -8.4248 C   0  0  0  0  0  0  0  0  0  0  0  0
   -3.3030    9.2970   -6.9381 C   0  0  0  0  0  0  0  0  0  0  0  0
   -1.4190    6.2002   -8.8714 S   0  0  0  0  0  0  0  0  0  0  0  0
   -0.4387    2.9756   -9.2499 C   0  0  0  0  0  0  0  0  0  0  0  0
    0.7946    3.7970   -8.4512 S   0  0  0  0  0  0  0  0  0  0  0  0
   -4.0979    2.7293   -9.7844 C   0  0  0  0  0  0  0  0  0  0  0  0
   -4.8581    1.5622   -9.7290 C   0  0  0  0  0  0  0  0  0  0  0  0
   -3.8245    0.2332   -9.7828 S   0  0  0  0  0  0  0  0  0  0  0  0
   -6.2305    1.4895   -9.2115 C   0  0  0  0  0  0  0  0  0  0  0  0
   -6.7974    2.4186   -8.3395 C   0  0  0  0  0  0  0  0  0  0  0  0
   -7.9996    1.9750   -7.7706 C   0  0  0  0  0  0  0  0  0  0  0  0
   -8.7633    2.6605   -6.8104 C   0  0  0  0  0  0  0  0  0  0  0  0
   -8.3134    3.9244   -6.1983 C   0  0  0  0  0  0  0  0  0  0  0  0
   -7.2323    3.9181   -5.3031 C   0  0  0  0  0  0  0  0  0  0  0  0
   -6.8783    5.0823   -4.6145 C   0  0  0  0  0  0  0  0  0  0  0  0
   -7.6073    6.2658   -4.8079 C   0  0  0  0  0  0  0  0  0  0  0  0
   -7.2964    7.4272   -4.0850 C   0  0  0  0  0  0  0  0  0  0  0  0
   -8.0407    8.5963   -4.2779 C   0  0  0  0  0  0  0  0  0  0  0  0
   -9.0903    8.6175   -5.2002 C   0  0  0  0  0  0  0  0  0  0  0  0
   -9.4113    7.4684   -5.9274 C   0  0  0  0  0  0  0  0  0  0  0  0
   -8.6831    6.2831   -5.7311 C   0  0  0  0  0  0  0  0  0  0  0  0
   -9.0286    5.1097   -6.4206 C   0  0  0  0  0  0  0  0  0  0  0  0
   -9.9278    2.0210   -6.3542 C   0  0  0  0  0  0  0  0  0  0  0  0
  -10.3235    0.7565   -6.8031 C   0  0  0  0  0  0  0  0  0  0  0  0
   -9.5495    0.0576   -7.7509 C   0  0  0  0  0  0  0  0  0  0  0  0
   -9.9074   -1.3025   -8.2022 C   0  0  0  0  0  0  0  0  0  0  0  0
  -11.1373   -1.6901   -8.7327 C   0  0  0  0  0  0  0  0  0  0  0  0
  -11.1944   -3.0543   -9.0463 C   0  0  0  0  0  0  0  0  0  0  0  0
  -10.0217   -3.7317   -8.7439 C   0  0  0  0  0  0  0  0  0  0  0  0
   -9.7289   -5.4775   -8.9942 S   0  0  0  0  0  0  0  0  0  0  0  0
  -10.3589   -5.9819   -7.3525 C   0  0  0  0  0  0  0  0  0  0  0  0
  -11.8694   -6.1634   -7.3906 C   0  0  0  0  0  0  0  0  0  0  0  0
   -8.8955   -2.6540   -8.1179 S   0  0  0  0  0  0  0  0  0  0  0  0
   -8.3847    0.7018   -8.2111 C   0  0  0  0  0  0  0  0  0  0  0  0
   -7.2210    0.1217   -9.2858 S   0  0  0  0  0  0  0  0  0  0  0  0
  -11.4721    0.2821   -6.1448 C   0  0  0  0  0  0  0  0  0  0  0  0
  -11.9755    1.1746   -5.2025 C   0  0  0  0  0  0  0  0  0  0  0  0
  -10.9922    2.5419   -5.1593 S   0  0  0  0  0  0  0  0  0  0  0  0
   15.8272   -2.5455   10.7220 H   0  0  0  0  0  0  0  0  0  0  0  0
   13.9806   -1.1430   11.6424 H   0  0  0  0  0  0  0  0  0  0  0  0
   13.1974   -5.9709   10.6171 H   0  0  0  0  0  0  0  0  0  0  0  0
   15.4401   -4.9466   10.2191 H   0  0  0  0  0  0  0  0  0  0  0  0
   11.0418   -1.2868   11.4362 H   0  0  0  0  0  0  0  0  0  0  0  0
   11.3986   -1.7782   13.1748 H   0  0  0  0  0  0  0  0  0  0  0  0
    8.5014   -2.2284   12.3644 H   0  0  0  0  0  0  0  0  0  0  0  0
    8.2832   -6.4120   11.1883 H   0  0  0  0  0  0  0  0  0  0  0  0
   10.7334   -6.4742   10.9908 H   0  0  0  0  0  0  0  0  0  0  0  0
    6.1756   -6.0293   10.6027 H   0  0  0  0  0  0  0  0  0  0  0  0
    3.7290   -7.4048   11.3458 H   0  0  0  0  0  0  0  0  0  0  0  0
    4.2106   -9.6779   10.5536 H   0  0  0  0  0  0  0  0  0  0  0  0
    4.7779  -11.2171    8.6936 H   0  0  0  0  0  0  0  0  0  0  0  0
    5.1617  -11.5961    6.2863 H   0  0  0  0  0  0  0  0  0  0  0  0
    4.9280   -9.7365    4.6708 H   0  0  0  0  0  0  0  0  0  0  0  0
    4.3257   -7.4752    5.4452 H   0  0  0  0  0  0  0  0  0  0  0  0
    3.8784   -5.9205    7.3032 H   0  0  0  0  0  0  0  0  0  0  0  0
    3.3311   -1.3402   13.4577 H   0  0  0  0  0  0  0  0  0  0  0  0
    3.2000    1.2207   13.7918 H   0  0  0  0  0  0  0  0  0  0  0  0
    0.8672    2.5824   12.4978 H   0  0  0  0  0  0  0  0  0  0  0  0
    0.9293    4.3246   12.0734 H   0  0  0  0  0  0  0  0  0  0  0  0
    0.6814    2.0278   10.0348 H   0  0  0  0  0  0  0  0  0  0  0  0
   -0.6475    3.1062   10.5971 H   0  0  0  0  0  0  0  0  0  0  0  0
    0.7336    3.7952    9.6507 H   0  0  0  0  0  0  0  0  0  0  0  0
    1.1769   -1.2421    9.3676 H   0  0  0  0  0  0  0  0  0  0  0  0
    1.1041   -3.9014    5.6863 H   0  0  0  0  0  0  0  0  0  0  0  0
   -0.9731    0.6212    5.9656 H   0  0  0  0  0  0  0  0  0  0  0  0
   -0.7548   -0.7469    8.0199 H   0  0  0  0  0  0  0  0  0  0  0  0
    2.2027   -2.6676    3.4736 H   0  0  0  0  0  0  0  0  0  0  0  0
    0.5949   -3.1834    2.7379 H   0  0  0  0  0  0  0  0  0  0  0  0
    2.2532   -1.3052    0.9854 H   0  0  0  0  0  0  0  0  0  0  0  0
    0.4879    2.6168    1.6381 H   0  0  0  0  0  0  0  0  0  0  0  0
   -0.5022    1.8066    3.7531 H   0  0  0  0  0  0  0  0  0  0  0  0
    1.8569   -0.7139   -1.1788 H   0  0  0  0  0  0  0  0  0  0  0  0
    3.1271    4.0794   -1.7032 H   0  0  0  0  0  0  0  0  0  0  0  0
    2.3818    3.2620    0.5037 H   0  0  0  0  0  0  0  0  0  0  0  0
    1.7146   -0.4385   -3.9353 H   0  0  0  0  0  0  0  0  0  0  0  0
    3.5317   -0.6815   -3.7756 H   0  0  0  0  0  0  0  0  0  0  0  0
    2.3514    0.2178   -6.4890 H   0  0  0  0  0  0  0  0  0  0  0  0
    2.7877    4.5418   -6.5991 H   0  0  0  0  0  0  0  0  0  0  0  0
    3.3147    4.5200   -4.1882 H   0  0  0  0  0  0  0  0  0  0  0  0
    1.4336    0.3122   -8.4422 H   0  0  0  0  0  0  0  0  0  0  0  0
   -0.8397   -0.6385   -7.1885 H   0  0  0  0  0  0  0  0  0  0  0  0
   -0.5936   -3.0536   -6.8061 H   0  0  0  0  0  0  0  0  0  0  0  0
   -0.4514   -5.3550   -7.7023 H   0  0  0  0  0  0  0  0  0  0  0  0
   -0.4245   -6.8890   -9.6349 H   0  0  0  0  0  0  0  0  0  0  0  0
   -0.5717   -6.0008  -11.9436 H   0  0  0  0  0  0  0  0  0  0  0  0
   -0.7648   -3.5730  -12.3380 H   0  0  0  0  0  0  0  0  0  0  0  0
   -0.9408   -1.2806  -11.4473 H   0  0  0  0  0  0  0  0  0  0  0  0
   -3.2970    4.8346  -11.5638 H   0  0  0  0  0  0  0  0  0  0  0  0
   -3.4965    7.4003  -11.4925 H   0  0  0  0  0  0  0  0  0  0  0  0
   -4.1517   10.1892   -8.7000 H   0  0  0  0  0  0  0  0  0  0  0  0
   -4.3156    8.4059   -8.6316 H   0  0  0  0  0  0  0  0  0  0  0  0
   -2.8635    8.3297   -6.6179 H   0  0  0  0  0  0  0  0  0  0  0  0
   -4.2312    9.4811   -6.3591 H   0  0  0  0  0  0  0  0  0  0  0  0
   -2.5774   10.1181   -6.7363 H   0  0  0  0  0  0  0  0  0  0  0  0
   -4.5339    3.7057   -9.6361 H   0  0  0  0  0  0  0  0  0  0  0  0
   -6.3204    3.3517   -8.0658 H   0  0  0  0  0  0  0  0  0  0  0  0
   -6.6822    3.0017   -5.1136 H   0  0  0  0  0  0  0  0  0  0  0  0
   -6.0522    5.0516   -3.9110 H   0  0  0  0  0  0  0  0  0  0  0  0
   -6.4876    7.4287   -3.3626 H   0  0  0  0  0  0  0  0  0  0  0  0
   -7.8051    9.4858   -3.7090 H   0  0  0  0  0  0  0  0  0  0  0  0
   -9.6639    9.5220   -5.3458 H   0  0  0  0  0  0  0  0  0  0  0  0
  -10.2352    7.4987   -6.6340 H   0  0  0  0  0  0  0  0  0  0  0  0
   -9.8662    5.1089   -7.1116 H   0  0  0  0  0  0  0  0  0  0  0  0
  -11.9605   -1.0103   -8.8945 H   0  0  0  0  0  0  0  0  0  0  0  0
  -12.0677   -3.5317   -9.4696 H   0  0  0  0  0  0  0  0  0  0  0  0
   -9.8867   -6.9509   -7.0843 H   0  0  0  0  0  0  0  0  0  0  0  0
  -10.0839   -5.2415   -6.5710 H   0  0  0  0  0  0  0  0  0  0  0  0
  -12.2049   -6.6468   -6.4507 H   0  0  0  0  0  0  0  0  0  0  0  0
  -12.3751   -5.1759   -7.4723 H   0  0  0  0  0  0  0  0  0  0  0  0
  -12.1642   -6.8078   -8.2452 H   0  0  0  0  0  0  0  0  0  0  0  0
  -11.9176   -0.6869   -6.3169 H   0  0  0  0  0  0  0  0  0  0  0  0
  -12.8427    1.0021   -4.5779 H   0  0  0  0  0  0  0  0  0  0  0  0
  1  2  2  0
  2  3  1  0
  3  4  2  0
  4  5  1  0
  5  6  2  0
  4  7  1  0
  7  8  2  0
  8  9  1  0
  8 10  1  0
 10 11  2  0
 11 12  1  0
 12 13  2  0
 11 14  1  0
 14 15  2  0
 15 16  1  0
 16 17  2  0
 17 18  1  0
 18 19  2  0
 19 20  1  0
 20 21  2  0
 21 22  1  0
 22 23  2  0
 23 24  1  0
 24 25  2  0
 25 26  1  0
 26 27  2  0
 17 28  1  0
 28 29  2  0
 29 30  1  0
 30 31  1  0
 31 32  2  0
 32 33  1  0
 33 34  2  0
 34 35  1  0
 35 36  1  0
 36 37  1  0
 34 38  1  0
 30 39  2  0
 39 40  1  0
 29 41  1  0
 41 42  2  0
 42 43  1  0
 42 44  1  0
 44 45  2  0
 45 46  1  0
 46 47  2  0
 47 48  1  0
 48 49  2  0
 47 50  1  0
 50 51  2  0
 51 52  1  0
 51 53  1  0
 53 54  2  0
 54 55  1  0
 55 56  2  0
 54 57  1  0
 57 58  2  0
 58 59  1  0
 59 60  2  0
 60 61  1  0
 61 62  2  0
 60 63  1  0
 63 64  2  0
 64 65  1  0
 64 66  1  0
 66 67  2  0
 67 68  1  0
 68 69  2  0
 67 70  1  0
 70 71  2  0
 71 72  1  0
 72 73  2  0
 73 74  1  0
 74 75  2  0
 75 76  1  0
 76 77  2  0
 77 78  1  0
 78 79  2  0
 79 80  1  0
 80 81  2  0
 81 82  1  0
 82 83  2  0
 73 84  1  0
 84 85  2  0
 85 86  1  0
 86 87  1  0
 87 88  2  0
 88 89  1  0
 89 90  2  0
 90 91  1  0
 91 92  1  0
 92 93  1  0
 90 94  1  0
 86 95  2  0
 95 96  1  0
 85 97  1  0
 97 98  2  0
 98 99  1  0
 98100  1  0
100101  2  0
101102  1  0
102103  2  0
103104  1  0
104105  2  0
105106  1  0
106107  2  0
107108  1  0
108109  2  0
109110  1  0
110111  2  0
111112  1  0
112113  2  0
103114  1  0
114115  2  0
115116  1  0
116117  1  0
117118  2  0
118119  1  0
119120  2  0
120121  1  0
121122  1  0
122123  1  0
120124  1  0
116125  2  0
125126  1  0
115127  1  0
127128  2  0
128129  1  0
  6  1  1  0
 13  7  1  0
 40 14  1  0
 49 44  1  0
 56 50  1  0
 62 57  1  0
 69 63  1  0
 96 70  1  0
126100  1  0
  9  3  1  0
 39 16  1  0
 52 46  1  0
 65 59  1  0
 95 72  1  0
125102  1  0
 27 18  1  0
 43 28  1  0
 83 74  1  0
 99 84  1  0
113104  1  0
129114  1  0
 26 21  1  0
 38 31  1  0
 82 77  1  0
 94 87  1  0
112107  1  0
124117  1  0
  1130  1  0
  2131  1  0
  5132  1  0
  6133  1  0
  9134  1  0
  9135  1  0
 10136  1  0
 12137  1  0
 13138  1  0
 15139  1  0
 19140  1  0
 20141  1  0
 22142  1  0
 23143  1  0
 24144  1  0
 25145  1  0
 27146  1  0
 32147  1  0
 33148  1  0
 36149  1  0
 36150  1  0
 37151  1  0
 37152  1  0
 37153  1  0
 41154  1  0
 45155  1  0
 48156  1  0
 49157  1  0
 52158  1  0
 52159  1  0
 53160  1  0
 55161  1  0
 56162  1  0
 58163  1  0
 61164  1  0
 62165  1  0
 65166  1  0
 65167  1  0
 66168  1  0
 68169  1  0
 69170  1  0
 71171  1  0
 75172  1  0
 76173  1  0
 78174  1  0
 79175  1  0
 80176  1  0
 81177  1  0
 83178  1  0
 88179  1  0
 89180  1  0
 92181  1  0
 92182  1  0
 93183  1  0
 93184  1  0
 93185  1  0
 97186  1  0
101187  1  0
105188  1  0
106189  1  0
108190  1  0
109191  1  0
110192  1  0
111193  1  0
113194  1  0
118195  1  0
119196  1  0
122197  1  0
122198  1  0
123199  1  0
123200  1  0
123201  1  0
127202  1  0
128203  1  0
M  END

