
     RDKit          3D

136151  0  0  0  0  0  0  0  0999 V2000
   14.9514    5.0085    1.7346 C   0  0  0  0  0  0  0  0  0  0  0  0
   13.9071    5.4470    2.5416 C   0  0  0  0  0  0  0  0  0  0  0  0
   12.8907    4.4890    2.7063 C   0  0  0  0  0  0  0  0  0  0  0  0
   11.7151    4.6354    3.4756 C   0  0  0  0  0  0  0  0  0  0  0  0
   11.3787    5.9217    4.1949 C   0  0  0  0  0  0  0  0  0  0  0  0
   10.7102    6.9126    3.2459 C   0  0  0  0  0  0  0  0  0  0  0  0
   10.8345    3.5361    3.4953 C   0  0  0  0  0  0  0  0  0  0  0  0
   11.0888    2.3464    2.8030 C   0  0  0  0  0  0  0  0  0  0  0  0
   12.2564    2.2084    2.0194 C   0  0  0  0  0  0  0  0  0  0  0  0
   12.5696    0.9449    1.2501 C   0  0  0  0  0  0  0  0  0  0  0  0
   13.3241   -0.0511    2.1271 C   0  0  0  0  0  0  0  0  0  0  0  0
   13.1437    3.3010    2.0116 C   0  0  0  0  0  0  0  0  0  0  0  0
   14.6192    3.4403    1.2151 S   0  0  0  0  0  0  0  0  0  0  0  0
   10.0820    1.3789    2.9800 C   0  0  0  0  0  0  0  0  0  0  0  0
    9.0395    1.8178    3.7956 C   0  0  0  0  0  0  0  0  0  0  0  0
    9.3650    3.3940    4.3042 S   0  0  0  0  0  0  0  0  0  0  0  0
    7.8370    1.0494    4.1548 C   0  0  0  0  0  0  0  0  0  0  0  0
    7.5019   -0.2225    3.6895 C   0  0  0  0  0  0  0  0  0  0  0  0
    6.2779   -0.6924    4.1990 C   0  0  0  0  0  0  0  0  0  0  0  0
    5.6698   -1.9346    3.9105 C   0  0  0  0  0  0  0  0  0  0  0  0
    6.3070   -2.9529    2.9918 C   0  0  0  0  0  0  0  0  0  0  0  0
    7.2907   -3.8278    3.7621 C   0  0  0  0  0  0  0  0  0  0  0  0
    4.4562   -2.2094    4.5727 C   0  0  0  0  0  0  0  0  0  0  0  0
    3.8516   -1.3094    5.4587 C   0  0  0  0  0  0  0  0  0  0  0  0
    4.4415   -0.0511    5.7147 C   0  0  0  0  0  0  0  0  0  0  0  0
    3.8391    0.9432    6.6820 C   0  0  0  0  0  0  0  0  0  0  0  0
    4.3287    0.6774    8.1020 C   0  0  0  0  0  0  0  0  0  0  0  0
    5.6641    0.2143    5.0713 C   0  0  0  0  0  0  0  0  0  0  0  0
    6.6265    1.5875    5.1988 S   0  0  0  0  0  0  0  0  0  0  0  0
    2.6546   -1.8006    6.0110 C   0  0  0  0  0  0  0  0  0  0  0  0
    2.3166   -3.0732    5.5474 C   0  0  0  0  0  0  0  0  0  0  0  0
    3.5057   -3.5953    4.4701 S   0  0  0  0  0  0  0  0  0  0  0  0
    1.1009   -3.8361    5.8883 C   0  0  0  0  0  0  0  0  0  0  0  0
    0.1156   -3.4007    6.6854 C   0  0  0  0  0  0  0  0  0  0  0  0
   -0.9418   -4.3874    6.5866 C   0  0  0  0  0  0  0  0  0  0  0  0
   -2.2379   -4.2176    6.4035 C   0  0  0  0  0  0  0  0  0  0  0  0
   -2.6271   -5.2388    5.4024 C   0  0  0  0  0  0  0  0  0  0  0  0
   -1.6056   -5.9156    4.9630 N   0  0  0  0  0  0  0  0  0  0  0  0
   -0.5096   -5.4034    5.7035 C   0  0  0  0  0  0  0  0  0  0  0  0
    0.6904   -5.0964    5.2311 C   0  0  0  0  0  0  0  0  0  0  0  0
   -3.9652   -5.3581    4.7980 C   0  0  0  0  0  0  0  0  0  0  0  0
   -4.9876   -4.5299    5.0402 C   0  0  0  0  0  0  0  0  0  0  0  0
   -6.0075   -4.8549    4.0617 C   0  0  0  0  0  0  0  0  0  0  0  0
   -6.6944   -4.0468    3.2735 C   0  0  0  0  0  0  0  0  0  0  0  0
   -6.6806   -4.6951    1.9428 C   0  0  0  0  0  0  0  0  0  0  0  0
   -5.9672   -5.7815    1.9248 N   0  0  0  0  0  0  0  0  0  0  0  0
   -5.5185   -5.9202    3.2637 C   0  0  0  0  0  0  0  0  0  0  0  0
   -4.2892   -6.2281    3.6461 C   0  0  0  0  0  0  0  0  0  0  0  0
   -7.2190   -4.0822    0.7194 C   0  0  0  0  0  0  0  0  0  0  0  0
   -7.0133   -4.5532   -0.5750 C   0  0  0  0  0  0  0  0  0  0  0  0
   -7.5066   -3.6806   -1.5619 C   0  0  0  0  0  0  0  0  0  0  0  0
   -7.3757   -3.8377   -2.9596 C   0  0  0  0  0  0  0  0  0  0  0  0
   -6.7353   -5.0659   -3.5697 C   0  0  0  0  0  0  0  0  0  0  0  0
   -7.7112   -6.2363   -3.5901 C   0  0  0  0  0  0  0  0  0  0  0  0
   -7.8591   -2.7830   -3.7605 C   0  0  0  0  0  0  0  0  0  0  0  0
   -8.4481   -1.6308   -3.2232 C   0  0  0  0  0  0  0  0  0  0  0  0
   -8.6225   -1.4979   -1.8277 C   0  0  0  0  0  0  0  0  0  0  0  0
   -9.2388   -0.2659   -1.2057 C   0  0  0  0  0  0  0  0  0  0  0  0
   -8.1846    0.8124   -0.9720 C   0  0  0  0  0  0  0  0  0  0  0  0
   -8.1136   -2.5376   -1.0271 C   0  0  0  0  0  0  0  0  0  0  0  0
   -8.0266   -2.6034    0.6530 S   0  0  0  0  0  0  0  0  0  0  0  0
   -8.7549   -0.6626   -4.1978 C   0  0  0  0  0  0  0  0  0  0  0  0
   -8.4021   -1.0544   -5.4893 C   0  0  0  0  0  0  0  0  0  0  0  0
   -7.7304   -2.6016   -5.4287 S   0  0  0  0  0  0  0  0  0  0  0  0
   -8.4309   -0.1964   -6.6858 C   0  0  0  0  0  0  0  0  0  0  0  0
   -7.9545   -0.5529   -7.9467 C   0  0  0  0  0  0  0  0  0  0  0  0
   -7.9519    0.5169   -8.8602 C   0  0  0  0  0  0  0  0  0  0  0  0
   -7.4908    0.4761  -10.1951 C   0  0  0  0  0  0  0  0  0  0  0  0
   -6.9480   -0.7872  -10.8246 C   0  0  0  0  0  0  0  0  0  0  0  0
   -5.4636   -0.9485  -10.5181 C   0  0  0  0  0  0  0  0  0  0  0  0
   -7.4934    1.6956  -10.8987 C   0  0  0  0  0  0  0  0  0  0  0  0
   -7.9499    2.8943  -10.3412 C   0  0  0  0  0  0  0  0  0  0  0  0
   -8.4387    2.9314   -9.0163 C   0  0  0  0  0  0  0  0  0  0  0  0
   -8.9613    4.2050   -8.3916 C   0  0  0  0  0  0  0  0  0  0  0  0
  -10.3892    4.4921   -8.8498 C   0  0  0  0  0  0  0  0  0  0  0  0
   -8.4280    1.7133   -8.3065 C   0  0  0  0  0  0  0  0  0  0  0  0
   -8.8562    1.4372   -6.7010 S   0  0  0  0  0  0  0  0  0  0  0  0
   -7.8411    3.9863  -11.2233 C   0  0  0  0  0  0  0  0  0  0  0  0
   -7.3001    3.6450  -12.4581 C   0  0  0  0  0  0  0  0  0  0  0  0
   -6.9563    1.9952  -12.4655 S   0  0  0  0  0  0  0  0  0  0  0  0
   15.8340    5.5799    1.4858 H   0  0  0  0  0  0  0  0  0  0  0  0
   13.9001    6.4323    2.9881 H   0  0  0  0  0  0  0  0  0  0  0  0
   12.2941    6.3796    4.6257 H   0  0  0  0  0  0  0  0  0  0  0  0
   10.7007    5.7284    5.0541 H   0  0  0  0  0  0  0  0  0  0  0  0
   10.4515    7.8415    3.7990 H   0  0  0  0  0  0  0  0  0  0  0  0
   11.3967    7.1788    2.4154 H   0  0  0  0  0  0  0  0  0  0  0  0
    9.7789    6.4753    2.8276 H   0  0  0  0  0  0  0  0  0  0  0  0
   11.6387    0.4771    0.8638 H   0  0  0  0  0  0  0  0  0  0  0  0
   13.1842    1.1772    0.3541 H   0  0  0  0  0  0  0  0  0  0  0  0
   14.2980    0.3830    2.4437 H   0  0  0  0  0  0  0  0  0  0  0  0
   13.5198   -0.9808    1.5533 H   0  0  0  0  0  0  0  0  0  0  0  0
   12.7246   -0.3067    3.0273 H   0  0  0  0  0  0  0  0  0  0  0  0
   10.1084    0.3920    2.5386 H   0  0  0  0  0  0  0  0  0  0  0  0
    8.1265   -0.7832    3.0081 H   0  0  0  0  0  0  0  0  0  0  0  0
    6.8308   -2.4506    2.1539 H   0  0  0  0  0  0  0  0  0  0  0  0
    5.5332   -3.5989    2.5274 H   0  0  0  0  0  0  0  0  0  0  0  0
    7.7297   -4.5843    3.0784 H   0  0  0  0  0  0  0  0  0  0  0  0
    8.1114   -3.2076    4.1821 H   0  0  0  0  0  0  0  0  0  0  0  0
    6.7719   -4.3559    4.5906 H   0  0  0  0  0  0  0  0  0  0  0  0
    2.7311    0.9000    6.6514 H   0  0  0  0  0  0  0  0  0  0  0  0
    4.1113    1.9794    6.3908 H   0  0  0  0  0  0  0  0  0  0  0  0
    3.8625    1.4058    8.7981 H   0  0  0  0  0  0  0  0  0  0  0  0
    4.0536   -0.3498    8.4217 H   0  0  0  0  0  0  0  0  0  0  0  0
    5.4318    0.7918    8.1535 H   0  0  0  0  0  0  0  0  0  0  0  0
    2.0476   -1.2541    6.7172 H   0  0  0  0  0  0  0  0  0  0  0  0
    0.0650   -2.4482    7.1956 H   0  0  0  0  0  0  0  0  0  0  0  0
   -2.7930   -3.3271    6.6630 H   0  0  0  0  0  0  0  0  0  0  0  0
    1.1280   -5.5135    4.3330 H   0  0  0  0  0  0  0  0  0  0  0  0
   -4.9908   -3.6909    5.7225 H   0  0  0  0  0  0  0  0  0  0  0  0
   -6.9022   -3.0039    3.4738 H   0  0  0  0  0  0  0  0  0  0  0  0
   -3.5729   -6.7714    3.0428 H   0  0  0  0  0  0  0  0  0  0  0  0
   -6.4853   -5.4723   -0.7857 H   0  0  0  0  0  0  0  0  0  0  0  0
   -5.8249   -5.3462   -2.9993 H   0  0  0  0  0  0  0  0  0  0  0  0
   -6.3974   -4.8659   -4.6082 H   0  0  0  0  0  0  0  0  0  0  0  0
   -8.6132   -5.9770   -4.1847 H   0  0  0  0  0  0  0  0  0  0  0  0
   -7.2213   -7.1219   -4.0499 H   0  0  0  0  0  0  0  0  0  0  0  0
   -8.0221   -6.5053   -2.5582 H   0  0  0  0  0  0  0  0  0  0  0  0
  -10.0469    0.1343   -1.8546 H   0  0  0  0  0  0  0  0  0  0  0  0
   -9.7200   -0.5214   -0.2367 H   0  0  0  0  0  0  0  0  0  0  0  0
   -7.7213    1.1142   -1.9352 H   0  0  0  0  0  0  0  0  0  0  0  0
   -7.3927    0.4349   -0.2901 H   0  0  0  0  0  0  0  0  0  0  0  0
   -8.6598    1.7027   -0.5105 H   0  0  0  0  0  0  0  0  0  0  0  0
   -9.1648    0.3131   -3.9733 H   0  0  0  0  0  0  0  0  0  0  0  0
   -7.5826   -1.5430   -8.1723 H   0  0  0  0  0  0  0  0  0  0  0  0
   -7.0939   -0.7686  -11.9253 H   0  0  0  0  0  0  0  0  0  0  0  0
   -7.5044   -1.6749  -10.4590 H   0  0  0  0  0  0  0  0  0  0  0  0
   -5.0874   -1.8852  -10.9813 H   0  0  0  0  0  0  0  0  0  0  0  0
   -4.8879   -0.0916  -10.9314 H   0  0  0  0  0  0  0  0  0  0  0  0
   -5.2974   -1.0056   -9.4198 H   0  0  0  0  0  0  0  0  0  0  0  0
   -8.3038    5.0605   -8.6596 H   0  0  0  0  0  0  0  0  0  0  0  0
   -8.9477    4.1391   -7.2837 H   0  0  0  0  0  0  0  0  0  0  0  0
  -10.4247    4.6204   -9.9521 H   0  0  0  0  0  0  0  0  0  0  0  0
  -11.0612    3.6563   -8.5588 H   0  0  0  0  0  0  0  0  0  0  0  0
  -10.7501    5.4276   -8.3759 H   0  0  0  0  0  0  0  0  0  0  0  0
   -8.1346    4.9992  -10.9814 H   0  0  0  0  0  0  0  0  0  0  0  0
   -7.1219    4.3301  -13.2765 H   0  0  0  0  0  0  0  0  0  0  0  0
  1  2  2  0
  2  3  1  0
  3  4  2  0
  4  5  1  0
  5  6  1  0
  4  7  1  0
  7  8  2  0
  8  9  1  0
  9 10  1  0
 10 11  1  0
  9 12  2  0
 12 13  1  0
  8 14  1  0
 14 15  2  0
 15 16  1  0
 15 17  1  0
 17 18  2  0
 18 19  1  0
 19 20  2  0
 20 21  1  0
 21 22  1  0
 20 23  1  0
 23 24  2  0
 24 25  1  0
 25 26  1  0
 26 27  1  0
 25 28  2  0
 28 29  1  0
 24 30  1  0
 30 31  2  0
 31 32  1  0
 31 33  1  0
 33 34  2  0
 34 35  1  0
 35 36  2  0
 36 37  1  0
 37 38  2  0
 38 39  1  0
 39 40  2  0
 37 41  1  0
 41 42  2  0
 42 43  1  0
 43 44  2  0
 44 45  1  0
 45 46  2  0
 46 47  1  0
 47 48  2  0
 45 49  1  0
 49 50  2  0
 50 51  1  0
 51 52  2  0
 52 53  1  0
 53 54  1  0
 52 55  1  0
 55 56  2  0
 56 57  1  0
 57 58  1  0
 58 59  1  0
 57 60  2  0
 60 61  1  0
 56 62  1  0
 62 63  2  0
 63 64  1  0
 63 65  1  0
 65 66  2  0
 66 67  1  0
 67 68  2  0
 68 69  1  0
 69 70  1  0
 68 71  1  0
 71 72  2  0
 72 73  1  0
 73 74  1  0
 74 75  1  0
 73 76  2  0
 76 77  1  0
 72 78  1  0
 78 79  2  0
 79 80  1  0
 13  1  1  0
 29 17  1  0
 40 33  1  0
 48 41  1  0
 61 49  1  0
 77 65  1  0
 12  3  1  0
 28 19  1  0
 39 35  1  0
 47 43  1  0
 60 51  1  0
 76 67  1  0
 16  7  1  0
 32 23  1  0
 64 55  1  0
 80 71  1  0
  1 81  1  0
  2 82  1  0
  5 83  1  0
  5 84  1  0
  6 85  1  0
  6 86  1  0
  6 87  1  0
 10 88  1  0
 10 89  1  0
 11 90  1  0
 11 91  1  0
 11 92  1  0
 14 93  1  0
 18 94  1  0
 21 95  1  0
 21 96  1  0
 22 97  1  0
 22 98  1  0
 22 99  1  0
 26100  1  0
 26101  1  0
 27102  1  0
 27103  1  0
 27104  1  0
 30105  1  0
 34106  1  0
 36107  1  0
 40108  1  0
 42109  1  0
 44110  1  0
 48111  1  0
 50112  1  0
 53113  1  0
 53114  1  0
 54115  1  0
 54116  1  0
 54117  1  0
 58118  1  0
 58119  1  0
 59120  1  0
 59121  1  0
 59122  1  0
 62123  1  0
 66124  1  0
 69125  1  0
 69126  1  0
 70127  1  0
 70128  1  0
 70129  1  0
 74130  1  0
 74131  1  0
 75132  1  0
 75133  1  0
 75134  1  0
 78135  1  0
 79136  1  0
M  END

