
     RDKit          3D

277303  0  0  0  0  0  0  0  0999 V2000
    2.4618   -3.4222    8.6825 C   0  0  0  0  0  0  0  0  0  0  0  0
    1.6019   -2.7430    7.8215 C   0  0  0  0  0  0  0  0  0  0  0  0
    0.8128   -3.6023    7.0361 C   0  0  0  0  0  0  0  0  0  0  0  0
   -0.1656   -3.2194    6.0971 C   0  0  0  0  0  0  0  0  0  0  0  0
   -0.4462   -1.8011    5.7912 C   0  0  0  0  0  0  0  0  0  0  0  0
    0.5505   -0.9848    5.2352 C   0  0  0  0  0  0  0  0  0  0  0  0
    0.2857    0.3604    4.9577 C   0  0  0  0  0  0  0  0  0  0  0  0
   -0.9736    0.9013    5.2358 C   0  0  0  0  0  0  0  0  0  0  0  0
   -1.2897    2.6350    4.9075 S   0  0  0  0  0  0  0  0  0  0  0  0
   -0.7885    3.1588    6.5827 C   0  0  0  0  0  0  0  0  0  0  0  0
   -0.8719    4.6699    6.7072 C   0  0  0  0  0  0  0  0  0  0  0  0
   -1.9775    0.0877    5.7762 C   0  0  0  0  0  0  0  0  0  0  0  0
   -3.2051    0.5979    6.0456 F   0  0  0  0  0  0  0  0  0  0  0  0
   -1.7147   -1.2568    6.0532 C   0  0  0  0  0  0  0  0  0  0  0  0
   -0.8568   -4.2539    5.4458 C   0  0  0  0  0  0  0  0  0  0  0  0
   -0.6149   -5.6090    5.6948 C   0  0  0  0  0  0  0  0  0  0  0  0
    0.3523   -5.9906    6.6484 C   0  0  0  0  0  0  0  0  0  0  0  0
    0.5957   -7.3993    7.0044 C   0  0  0  0  0  0  0  0  0  0  0  0
    1.8313   -7.9986    6.7200 C   0  0  0  0  0  0  0  0  0  0  0  0
    2.0869   -9.3083    7.1341 C   0  0  0  0  0  0  0  0  0  0  0  0
    1.1146  -10.0211    7.8442 C   0  0  0  0  0  0  0  0  0  0  0  0
    1.4720  -11.6868    8.4116 S   0  0  0  0  0  0  0  0  0  0  0  0
    0.7275  -12.4754    6.9470 C   0  0  0  0  0  0  0  0  0  0  0  0
    0.9165  -13.9807    7.0177 C   0  0  0  0  0  0  0  0  0  0  0  0
   -0.1227   -9.4260    8.1268 C   0  0  0  0  0  0  0  0  0  0  0  0
   -0.3845   -8.1227    7.6990 C   0  0  0  0  0  0  0  0  0  0  0  0
   -1.0652  -10.1003    8.8288 F   0  0  0  0  0  0  0  0  0  0  0  0
    1.0516   -4.9543    7.2963 C   0  0  0  0  0  0  0  0  0  0  0  0
    2.2346   -5.0828    8.4833 S   0  0  0  0  0  0  0  0  0  0  0  0
   -1.3726   -6.4706    4.8735 C   0  0  0  0  0  0  0  0  0  0  0  0
   -2.2122   -5.7849    3.9844 C   0  0  0  0  0  0  0  0  0  0  0  0
   -1.9909   -4.1273    4.2202 S   0  0  0  0  0  0  0  0  0  0  0  0
   -3.0625   -6.3261    2.8972 C   0  0  0  0  0  0  0  0  0  0  0  0
   -3.4515   -5.4014    1.5502 S   0  0  0  0  0  0  0  0  0  0  0  0
   -4.5475   -6.4583    0.8645 C   0  0  0  0  0  0  0  0  0  0  0  0
   -4.6683   -7.5636    1.6999 C   0  0  0  0  0  0  0  0  0  0  0  0
   -3.8004   -7.5242    2.8191 C   0  0  0  0  0  0  0  0  0  0  0  0
   -3.8217   -8.6085    3.8688 C   0  0  0  0  0  0  0  0  0  0  0  0
   -4.4581   -9.9171    3.3476 C   0  0  2  0  0  0  0  0  0  0  0  0
   -3.5622  -10.5502    2.4431 O   0  0  0  0  0  0  0  0  0  0  0  0
   -2.9013  -11.6281    3.0645 C   0  0  0  0  0  0  0  0  0  0  0  0
   -5.7897   -9.6337    2.6203 C   0  0  1  0  0  0  0  0  0  0  0  0
   -6.6933   -8.9828    3.5051 O   0  0  0  0  0  0  0  0  0  0  0  0
   -7.6834   -9.8788    3.9552 C   0  0  0  0  0  0  0  0  0  0  0  0
   -5.5602   -8.7345    1.3919 C   0  0  0  0  0  0  0  0  0  0  0  0
   -5.3705   -6.1010   -0.2937 C   0  0  0  0  0  0  0  0  0  0  0  0
   -6.6494   -5.5615   -0.1661 C   0  0  0  0  0  0  0  0  0  0  0  0
   -6.9949   -4.6969   -1.2210 C   0  0  0  0  0  0  0  0  0  0  0  0
   -8.0850   -3.8021   -1.2198 C   0  0  0  0  0  0  0  0  0  0  0  0
   -9.1598   -3.8838   -0.2036 C   0  0  0  0  0  0  0  0  0  0  0  0
   -9.3803   -2.8304    0.6978 C   0  0  0  0  0  0  0  0  0  0  0  0
  -10.4614   -2.8760    1.5805 C   0  0  0  0  0  0  0  0  0  0  0  0
  -11.3217   -3.9788    1.5811 C   0  0  0  0  0  0  0  0  0  0  0  0
  -12.7580   -3.9893    2.6594 S   0  0  0  0  0  0  0  0  0  0  0  0
  -13.8358   -3.0564    1.5134 C   0  0  0  0  0  0  0  0  0  0  0  0
  -14.3711   -3.9515    0.4028 C   0  0  0  0  0  0  0  0  0  0  0  0
  -11.0635   -5.0634    0.7332 C   0  0  0  0  0  0  0  0  0  0  0  0
  -11.8679   -6.1556    0.7508 F   0  0  0  0  0  0  0  0  0  0  0  0
   -9.9866   -5.0145   -0.1567 C   0  0  0  0  0  0  0  0  0  0  0  0
   -8.0416   -2.7545   -2.1626 C   0  0  0  0  0  0  0  0  0  0  0  0
   -7.0240   -2.6335   -3.1148 C   0  0  0  0  0  0  0  0  0  0  0  0
   -5.9950   -3.5986   -3.1856 C   0  0  0  0  0  0  0  0  0  0  0  0
   -4.8712   -3.5122   -4.1470 C   0  0  0  0  0  0  0  0  0  0  0  0
   -4.6530   -4.5685   -5.0437 C   0  0  0  0  0  0  0  0  0  0  0  0
   -3.5348   -4.5648   -5.8817 C   0  0  0  0  0  0  0  0  0  0  0  0
   -2.6298   -3.4993   -5.8448 C   0  0  0  0  0  0  0  0  0  0  0  0
   -1.1557   -3.5540   -6.8691 S   0  0  0  0  0  0  0  0  0  0  0  0
   -1.9280   -2.8304   -8.3582 C   0  0  0  0  0  0  0  0  0  0  0  0
   -1.2561   -1.5094   -8.6984 C   0  0  0  0  0  0  0  0  0  0  0  0
   -2.8470   -2.4341   -4.9590 C   0  0  0  0  0  0  0  0  0  0  0  0
   -3.9582   -2.4451   -4.1063 C   0  0  0  0  0  0  0  0  0  0  0  0
   -1.9651   -1.4057   -4.8960 F   0  0  0  0  0  0  0  0  0  0  0  0
   -5.9967   -4.5955   -2.1944 C   0  0  0  0  0  0  0  0  0  0  0  0
   -4.6887   -5.5426   -1.7282 S   0  0  0  0  0  0  0  0  0  0  0  0
   -7.0428   -1.3970   -3.7831 C   0  0  0  0  0  0  0  0  0  0  0  0
   -7.9943   -0.5008   -3.2826 C   0  0  0  0  0  0  0  0  0  0  0  0
   -8.9207   -1.3237   -2.1356 S   0  0  0  0  0  0  0  0  0  0  0  0
   -7.6716    0.9324   -3.1324 C   0  0  0  0  0  0  0  0  0  0  0  0
   -6.7824    1.5976   -3.9811 C   0  0  0  0  0  0  0  0  0  0  0  0
   -5.9668    2.5306   -3.3147 C   0  0  0  0  0  0  0  0  0  0  0  0
   -4.8247    3.1442   -3.8571 C   0  0  0  0  0  0  0  0  0  0  0  0
   -4.5327    3.0828   -5.2993 C   0  0  0  0  0  0  0  0  0  0  0  0
   -3.8040    2.0114   -5.8373 C   0  0  0  0  0  0  0  0  0  0  0  0
   -3.5946    1.9344   -7.2184 C   0  0  0  0  0  0  0  0  0  0  0  0
   -4.1114    2.9220   -8.0606 C   0  0  0  0  0  0  0  0  0  0  0  0
   -3.8272    2.8332   -9.8302 S   0  0  0  0  0  0  0  0  0  0  0  0
   -2.1213    3.4834   -9.7526 C   0  0  0  0  0  0  0  0  0  0  0  0
   -1.8778    4.4392  -10.9108 C   0  0  0  0  0  0  0  0  0  0  0  0
   -4.8333    3.9966   -7.5229 C   0  0  0  0  0  0  0  0  0  0  0  0
   -5.3484    4.9572   -8.3306 F   0  0  0  0  0  0  0  0  0  0  0  0
   -5.0511    4.0666   -6.1451 C   0  0  0  0  0  0  0  0  0  0  0  0
   -3.9296    3.7334   -2.9538 C   0  0  0  0  0  0  0  0  0  0  0  0
   -4.1784    3.8011   -1.5767 C   0  0  0  0  0  0  0  0  0  0  0  0
   -5.3962    3.3180   -1.0546 C   0  0  0  0  0  0  0  0  0  0  0  0
   -5.7381    3.4401    0.3772 C   0  0  0  0  0  0  0  0  0  0  0  0
   -6.0634    4.6995    0.9045 C   0  0  0  0  0  0  0  0  0  0  0  0
   -6.5417    4.8138    2.2121 C   0  0  0  0  0  0  0  0  0  0  0  0
   -6.6740    3.6734    3.0150 C   0  0  0  0  0  0  0  0  0  0  0  0
   -7.4291    3.8079    4.6448 S   0  0  0  0  0  0  0  0  0  0  0  0
   -5.8602    4.0186    5.5554 C   0  0  0  0  0  0  0  0  0  0  0  0
   -5.4347    5.4795    5.5717 C   0  0  0  0  0  0  0  0  0  0  0  0
   -6.3057    2.4198    2.5084 C   0  0  0  0  0  0  0  0  0  0  0  0
   -5.8383    2.3031    1.1956 C   0  0  0  0  0  0  0  0  0  0  0  0
   -6.4390    1.3055    3.2716 F   0  0  0  0  0  0  0  0  0  0  0  0
   -6.2527    2.6509   -1.9547 C   0  0  0  0  0  0  0  0  0  0  0  0
   -7.5152    1.6091   -1.5879 S   0  0  0  0  0  0  0  0  0  0  0  0
   -3.0439    4.1627   -0.8277 C   0  0  0  0  0  0  0  0  0  0  0  0
   -1.9105    4.3527   -1.6208 C   0  0  0  0  0  0  0  0  0  0  0  0
   -2.3254    4.1165   -3.2392 S   0  0  0  0  0  0  0  0  0  0  0  0
   -0.5409    4.1233   -1.1495 C   0  0  0  0  0  0  0  0  0  0  0  0
    0.1859    2.9814   -1.4735 C   0  0  0  0  0  0  0  0  0  0  0  0
    1.5313    3.0666   -1.1094 C   0  0  0  0  0  0  0  0  0  0  0  0
    2.5185    2.1079   -1.3952 C   0  0  0  0  0  0  0  0  0  0  0  0
    2.1918    0.8255   -2.0470 C   0  0  0  0  0  0  0  0  0  0  0  0
    1.8594    0.7838   -3.4088 C   0  0  0  0  0  0  0  0  0  0  0  0
    1.4865   -0.4249   -4.0043 C   0  0  0  0  0  0  0  0  0  0  0  0
    1.4493   -1.6007   -3.2437 C   0  0  0  0  0  0  0  0  0  0  0  0
    0.9259   -3.1439   -3.9974 S   0  0  0  0  0  0  0  0  0  0  0  0
    2.6121   -3.7158   -4.4060 C   0  0  0  0  0  0  0  0  0  0  0  0
    3.1158   -3.0666   -5.6895 C   0  0  0  0  0  0  0  0  0  0  0  0
    1.7765   -1.5600   -1.8820 C   0  0  0  0  0  0  0  0  0  0  0  0
    1.7212   -2.6869   -1.1296 F   0  0  0  0  0  0  0  0  0  0  0  0
    2.1517   -0.3524   -1.2866 C   0  0  0  0  0  0  0  0  0  0  0  0
    3.8424    2.4481   -1.0835 C   0  0  0  0  0  0  0  0  0  0  0  0
    4.1811    3.6625   -0.4765 C   0  0  0  0  0  0  0  0  0  0  0  0
    3.1832    4.6017   -0.1329 C   0  0  0  0  0  0  0  0  0  0  0  0
    3.5101    5.8925    0.5052 C   0  0  0  0  0  0  0  0  0  0  0  0
    3.0486    6.1709    1.8007 C   0  0  0  0  0  0  0  0  0  0  0  0
    3.3888    7.3722    2.4254 C   0  0  0  0  0  0  0  0  0  0  0  0
    4.2045    8.3001    1.7697 C   0  0  0  0  0  0  0  0  0  0  0  0
    4.6326    9.8398    2.5924 S   0  0  0  0  0  0  0  0  0  0  0  0
    6.0052    9.1346    3.5745 C   0  0  0  0  0  0  0  0  0  0  0  0
    7.2688    9.0183    2.7398 C   0  0  0  0  0  0  0  0  0  0  0  0
    4.6546    8.0358    0.4691 C   0  0  0  0  0  0  0  0  0  0  0  0
    4.3044    6.8375   -0.1616 C   0  0  0  0  0  0  0  0  0  0  0  0
    5.4317    8.9345   -0.1869 F   0  0  0  0  0  0  0  0  0  0  0  0
    1.8587    4.2725   -0.4792 C   0  0  0  0  0  0  0  0  0  0  0  0
    0.4727    5.2411   -0.3874 S   0  0  0  0  0  0  0  0  0  0  0  0
    5.5665    3.8474   -0.3624 C   0  0  0  0  0  0  0  0  0  0  0  0
    6.3096    2.8138   -0.9370 C   0  0  0  0  0  0  0  0  0  0  0  0
    5.2492    1.6337   -1.5182 S   0  0  0  0  0  0  0  0  0  0  0  0
    7.7414    2.8955   -1.2758 C   0  0  0  0  0  0  0  0  0  0  0  0
    8.5184    4.0465   -1.1573 C   0  0  0  0  0  0  0  0  0  0  0  0
    9.7626    3.9486   -1.7979 C   0  0  0  0  0  0  0  0  0  0  0  0
   10.7139    4.9843   -1.9298 C   0  0  0  0  0  0  0  0  0  0  0  0
   10.4436    6.3606   -1.4469 C   0  0  0  0  0  0  0  0  0  0  0  0
    9.2855    7.0381   -1.8600 C   0  0  0  0  0  0  0  0  0  0  0  0
    8.9688    8.2895   -1.3292 C   0  0  0  0  0  0  0  0  0  0  0  0
    9.8343    8.9005   -0.4163 C   0  0  0  0  0  0  0  0  0  0  0  0
    9.3870   10.4766    0.3181 S   0  0  0  0  0  0  0  0  0  0  0  0
    9.9200   11.5189   -1.0829 C   0  0  0  0  0  0  0  0  0  0  0  0
    8.6978   12.1372   -1.7487 C   0  0  0  0  0  0  0  0  0  0  0  0
   11.0161    8.2515   -0.0317 C   0  0  0  0  0  0  0  0  0  0  0  0
   11.8594    8.8345    0.8578 F   0  0  0  0  0  0  0  0  0  0  0  0
   11.3146    6.9834   -0.5382 C   0  0  0  0  0  0  0  0  0  0  0  0
   11.9022    4.6602   -2.6099 C   0  0  0  0  0  0  0  0  0  0  0  0
   12.1376    3.3968   -3.1619 C   0  0  0  0  0  0  0  0  0  0  0  0
   11.1671    2.3796   -3.0618 C   0  0  0  0  0  0  0  0  0  0  0  0
   11.3524    1.0676   -3.7044 C   0  0  0  0  0  0  0  0  0  0  0  0
   10.7687    0.8102   -4.9522 C   0  0  0  0  0  0  0  0  0  0  0  0
   10.9823   -0.4171   -5.5863 C   0  0  0  0  0  0  0  0  0  0  0  0
   11.7626   -1.4012   -4.9702 C   0  0  0  0  0  0  0  0  0  0  0  0
   12.0446   -2.9700   -5.7988 S   0  0  0  0  0  0  0  0  0  0  0  0
   10.6110   -3.8170   -5.0488 C   0  0  0  0  0  0  0  0  0  0  0  0
    9.3640   -3.6235   -5.9008 C   0  0  0  0  0  0  0  0  0  0  0  0
   12.3486   -1.1444   -3.7231 C   0  0  0  0  0  0  0  0  0  0  0  0
   12.1450    0.0865   -3.0941 C   0  0  0  0  0  0  0  0  0  0  0  0
   13.1205   -2.0844   -3.1193 F   0  0  0  0  0  0  0  0  0  0  0  0
    9.9863    2.6915   -2.3684 C   0  0  0  0  0  0  0  0  0  0  0  0
    8.6190    1.7329   -2.1376 S   0  0  0  0  0  0  0  0  0  0  0  0
   13.3671    3.3060   -3.8363 C   0  0  0  0  0  0  0  0  0  0  0  0
   14.0898    4.4962   -3.8170 C   0  0  0  0  0  0  0  0  0  0  0  0
   13.2071    5.6596   -2.9729 S   0  0  0  0  0  0  0  0  0  0  0  0
    3.1522   -2.9562    9.3743 H   0  0  0  0  0  0  0  0  0  0  0  0
    1.5505   -1.6630    7.7791 H   0  0  0  0  0  0  0  0  0  0  0  0
    1.5314   -1.3913    5.0163 H   0  0  0  0  0  0  0  0  0  0  0  0
    1.0639    0.9793    4.5312 H   0  0  0  0  0  0  0  0  0  0  0  0
    0.2560    2.8355    6.7820 H   0  0  0  0  0  0  0  0  0  0  0  0
   -1.4581    2.6924    7.3354 H   0  0  0  0  0  0  0  0  0  0  0  0
   -0.1946    5.1496    5.9701 H   0  0  0  0  0  0  0  0  0  0  0  0
   -1.9146    5.0093    6.5232 H   0  0  0  0  0  0  0  0  0  0  0  0
   -0.5709    4.9790    7.7322 H   0  0  0  0  0  0  0  0  0  0  0  0
   -2.4937   -1.8752    6.4842 H   0  0  0  0  0  0  0  0  0  0  0  0
    2.5967   -7.4469    6.1875 H   0  0  0  0  0  0  0  0  0  0  0  0
    3.0448   -9.7595    6.9179 H   0  0  0  0  0  0  0  0  0  0  0  0
   -0.3578  -12.2423    6.9159 H   0  0  0  0  0  0  0  0  0  0  0  0
    1.2138  -12.0892    6.0275 H   0  0  0  0  0  0  0  0  0  0  0  0
    2.0003  -14.2320    7.0318 H   0  0  0  0  0  0  0  0  0  0  0  0
    0.4489  -14.4578    6.1309 H   0  0  0  0  0  0  0  0  0  0  0  0
    0.4368  -14.3857    7.9375 H   0  0  0  0  0  0  0  0  0  0  0  0
   -1.3358   -7.6641    7.9356 H   0  0  0  0  0  0  0  0  0  0  0  0
   -1.2434   -7.5384    4.8879 H   0  0  0  0  0  0  0  0  0  0  0  0
   -2.7936   -8.8442    4.1950 H   0  0  0  0  0  0  0  0  0  0  0  0
   -4.3912   -8.2397    4.7487 H   0  0  0  0  0  0  0  0  0  0  0  0
   -4.7050  -10.5518    4.2369 H   0  0  0  0  0  0  0  0  0  0  0  0
   -2.1522  -12.0366    2.3564 H   0  0  0  0  0  0  0  0  0  0  0  0
   -3.6205  -12.4397    3.3012 H   0  0  0  0  0  0  0  0  0  0  0  0
   -2.3642  -11.3044    3.9819 H   0  0  0  0  0  0  0  0  0  0  0  0
   -6.1881  -10.6030    2.2270 H   0  0  0  0  0  0  0  0  0  0  0  0
   -8.3788  -10.1357    3.1262 H   0  0  0  0  0  0  0  0  0  0  0  0
   -8.2750   -9.3848    4.7545 H   0  0  0  0  0  0  0  0  0  0  0  0
   -7.2371  -10.8030    4.3905 H   0  0  0  0  0  0  0  0  0  0  0  0
   -6.5444   -8.3822    1.0096 H   0  0  0  0  0  0  0  0  0  0  0  0
   -5.0796   -9.3267    0.5809 H   0  0  0  0  0  0  0  0  0  0  0  0
   -7.2277   -5.6451    0.7456 H   0  0  0  0  0  0  0  0  0  0  0  0
   -8.7275   -1.9656    0.7060 H   0  0  0  0  0  0  0  0  0  0  0  0
  -10.6420   -2.0424    2.2481 H   0  0  0  0  0  0  0  0  0  0  0  0
  -13.2915   -2.1910    1.0770 H   0  0  0  0  0  0  0  0  0  0  0  0
  -14.6958   -2.6617    2.0938 H   0  0  0  0  0  0  0  0  0  0  0  0
  -13.5513   -4.2619   -0.2761 H   0  0  0  0  0  0  0  0  0  0  0  0
  -14.8548   -4.8540    0.8338 H   0  0  0  0  0  0  0  0  0  0  0  0
  -15.1224   -3.3936   -0.1948 H   0  0  0  0  0  0  0  0  0  0  0  0
   -9.8156   -5.8439   -0.8323 H   0  0  0  0  0  0  0  0  0  0  0  0
   -5.3353   -5.4086   -5.0776 H   0  0  0  0  0  0  0  0  0  0  0  0
   -3.3650   -5.3983   -6.5522 H   0  0  0  0  0  0  0  0  0  0  0  0
   -1.7789   -3.5377   -9.2014 H   0  0  0  0  0  0  0  0  0  0  0  0
   -3.0203   -2.6707   -8.2350 H   0  0  0  0  0  0  0  0  0  0  0  0
   -1.7036   -1.0898   -9.6238 H   0  0  0  0  0  0  0  0  0  0  0  0
   -0.1709   -1.6675   -8.8664 H   0  0  0  0  0  0  0  0  0  0  0  0
   -1.3997   -0.7881   -7.8686 H   0  0  0  0  0  0  0  0  0  0  0  0
   -4.0908   -1.6381   -3.3966 H   0  0  0  0  0  0  0  0  0  0  0  0
   -6.2568   -1.0874   -4.4576 H   0  0  0  0  0  0  0  0  0  0  0  0
   -6.5990    1.2754   -4.9990 H   0  0  0  0  0  0  0  0  0  0  0  0
   -3.4157    1.2316   -5.1897 H   0  0  0  0  0  0  0  0  0  0  0  0
   -3.0387    1.1020   -7.6293 H   0  0  0  0  0  0  0  0  0  0  0  0
   -1.9297    4.0263   -8.8018 H   0  0  0  0  0  0  0  0  0  0  0  0
   -1.4161    2.6281   -9.8307 H   0  0  0  0  0  0  0  0  0  0  0  0
   -2.5334    5.3297  -10.8088 H   0  0  0  0  0  0  0  0  0  0  0  0
   -0.8188    4.7711  -10.9028 H   0  0  0  0  0  0  0  0  0  0  0  0
   -2.0841    3.9346  -11.8774 H   0  0  0  0  0  0  0  0  0  0  0  0
   -5.6293    4.8909   -5.7383 H   0  0  0  0  0  0  0  0  0  0  0  0
   -5.9913    5.5864    0.2867 H   0  0  0  0  0  0  0  0  0  0  0  0
   -6.8359    5.7830    2.5935 H   0  0  0  0  0  0  0  0  0  0  0  0
   -6.0271    3.6856    6.6011 H   0  0  0  0  0  0  0  0  0  0  0  0
   -5.0559    3.3829    5.1209 H   0  0  0  0  0  0  0  0  0  0  0  0
   -5.1998    5.8283    4.5442 H   0  0  0  0  0  0  0  0  0  0  0  0
   -4.5259    5.5952    6.1984 H   0  0  0  0  0  0  0  0  0  0  0  0
   -6.2447    6.1079    6.0004 H   0  0  0  0  0  0  0  0  0  0  0  0
   -5.5839    1.3288    0.8034 H   0  0  0  0  0  0  0  0  0  0  0  0
   -3.0076    4.1185    0.2518 H   0  0  0  0  0  0  0  0  0  0  0  0
   -0.2415    2.1418   -2.0043 H   0  0  0  0  0  0  0  0  0  0  0  0
    1.8792    1.6888   -4.0064 H   0  0  0  0  0  0  0  0  0  0  0  0
    1.2212   -0.4460   -5.0524 H   0  0  0  0  0  0  0  0  0  0  0  0
    2.5752   -4.8165   -4.5534 H   0  0  0  0  0  0  0  0  0  0  0  0
    3.3135   -3.5061   -3.5690 H   0  0  0  0  0  0  0  0  0  0  0  0
    3.2619   -1.9774   -5.5418 H   0  0  0  0  0  0  0  0  0  0  0  0
    2.3897   -3.2312   -6.5146 H   0  0  0  0  0  0  0  0  0  0  0  0
    4.0924   -3.5149   -5.9742 H   0  0  0  0  0  0  0  0  0  0  0  0
    2.3943   -0.3283   -0.2319 H   0  0  0  0  0  0  0  0  0  0  0  0
    2.4401    5.4471    2.3318 H   0  0  0  0  0  0  0  0  0  0  0  0
    3.0364    7.5726    3.4284 H   0  0  0  0  0  0  0  0  0  0  0  0
    6.2067    9.8204    4.4249 H   0  0  0  0  0  0  0  0  0  0  0  0
    5.7284    8.1388    3.9904 H   0  0  0  0  0  0  0  0  0  0  0  0
    8.1175    8.6953    3.3798 H   0  0  0  0  0  0  0  0  0  0  0  0
    7.5057   10.0072    2.2984 H   0  0  0  0  0  0  0  0  0  0  0  0
    7.1367    8.2707    1.9288 H   0  0  0  0  0  0  0  0  0  0  0  0
    4.6600    6.6430   -1.1665 H   0  0  0  0  0  0  0  0  0  0  0  0
    6.0107    4.7375    0.0513 H   0  0  0  0  0  0  0  0  0  0  0  0
    8.1735    4.9406   -0.6619 H   0  0  0  0  0  0  0  0  0  0  0  0
    8.6092    6.5794   -2.5710 H   0  0  0  0  0  0  0  0  0  0  0  0
    8.0509    8.7808   -1.6276 H   0  0  0  0  0  0  0  0  0  0  0  0
   10.4942   10.9393   -1.8376 H   0  0  0  0  0  0  0  0  0  0  0  0
   10.5698   12.3293   -0.6878 H   0  0  0  0  0  0  0  0  0  0  0  0
    9.0019   12.7856   -2.5989 H   0  0  0  0  0  0  0  0  0  0  0  0
    8.0241   11.3412   -2.1304 H   0  0  0  0  0  0  0  0  0  0  0  0
    8.1368   12.7538   -1.0132 H   0  0  0  0  0  0  0  0  0  0  0  0
   12.2105    6.4779   -0.2041 H   0  0  0  0  0  0  0  0  0  0  0  0
   10.1634    1.5647   -5.4411 H   0  0  0  0  0  0  0  0  0  0  0  0
   10.5438   -0.5985   -6.5603 H   0  0  0  0  0  0  0  0  0  0  0  0
   10.8401   -4.9020   -4.9965 H   0  0  0  0  0  0  0  0  0  0  0  0
   10.4282   -3.4580   -4.0123 H   0  0  0  0  0  0  0  0  0  0  0  0
    9.0885   -2.5506   -5.9504 H   0  0  0  0  0  0  0  0  0  0  0  0
    9.5412   -4.0052   -6.9288 H   0  0  0  0  0  0  0  0  0  0  0  0
    8.5165   -4.1834   -5.4532 H   0  0  0  0  0  0  0  0  0  0  0  0
   12.6071    0.2815   -2.1322 H   0  0  0  0  0  0  0  0  0  0  0  0
   13.7163    2.4112   -4.3358 H   0  0  0  0  0  0  0  0  0  0  0  0
   15.0548    4.6499   -4.2794 H   0  0  0  0  0  0  0  0  0  0  0  0
  1  2  2  0
  2  3  1  0
  3  4  2  0
  4  5  1  0
  5  6  2  0
  6  7  1  0
  7  8  2  0
  8  9  1  0
  9 10  1  0
 10 11  1  0
  8 12  1  0
 12 13  1  0
 12 14  2  0
  4 15  1  0
 15 16  2  0
 16 17  1  0
 17 18  1  0
 18 19  2  0
 19 20  1  0
 20 21  2  0
 21 22  1  0
 22 23  1  0
 23 24  1  0
 21 25  1  0
 25 26  2  0
 25 27  1  0
 17 28  2  0
 28 29  1  0
 16 30  1  0
 30 31  2  0
 31 32  1  0
 31 33  1  0
 33 34  1  0
 34 35  1  0
 35 36  2  0
 36 37  1  0
 37 38  1  0
 38 39  1  0
 39 40  1  0
 40 41  1  0
 39 42  1  0
 42 43  1  0
 43 44  1  0
 42 45  1  0
 35 46  1  0
 46 47  2  0
 47 48  1  0
 48 49  2  0
 49 50  1  0
 50 51  2  0
 51 52  1  0
 52 53  2  0
 53 54  1  0
 54 55  1  0
 55 56  1  0
 53 57  1  0
 57 58  1  0
 57 59  2  0
 49 60  1  0
 60 61  2  0
 61 62  1  0
 62 63  1  0
 63 64  2  0
 64 65  1  0
 65 66  2  0
 66 67  1  0
 67 68  1  0
 68 69  1  0
 66 70  1  0
 70 71  2  0
 70 72  1  0
 62 73  2  0
 73 74  1  0
 61 75  1  0
 75 76  2  0
 76 77  1  0
 76 78  1  0
 78 79  2  0
 79 80  1  0
 80 81  2  0
 81 82  1  0
 82 83  2  0
 83 84  1  0
 84 85  2  0
 85 86  1  0
 86 87  1  0
 87 88  1  0
 85 89  1  0
 89 90  1  0
 89 91  2  0
 81 92  1  0
 92 93  2  0
 93 94  1  0
 94 95  1  0
 95 96  2  0
 96 97  1  0
 97 98  2  0
 98 99  1  0
 99100  1  0
100101  1  0
 98102  1  0
102103  2  0
102104  1  0
 94105  2  0
105106  1  0
 93107  1  0
107108  2  0
108109  1  0
108110  1  0
110111  2  0
111112  1  0
112113  2  0
113114  1  0
114115  2  0
115116  1  0
116117  2  0
117118  1  0
118119  1  0
119120  1  0
117121  1  0
121122  1  0
121123  2  0
113124  1  0
124125  2  0
125126  1  0
126127  1  0
127128  2  0
128129  1  0
129130  2  0
130131  1  0
131132  1  0
132133  1  0
130134  1  0
134135  2  0
134136  1  0
126137  2  0
137138  1  0
125139  1  0
139140  2  0
140141  1  0
140142  1  0
142143  2  0
143144  1  0
144145  2  0
145146  1  0
146147  2  0
147148  1  0
148149  2  0
149150  1  0
150151  1  0
151152  1  0
149153  1  0
153154  1  0
153155  2  0
145156  1  0
156157  2  0
157158  1  0
158159  1  0
159160  2  0
160161  1  0
161162  2  0
162163  1  0
163164  1  0
164165  1  0
162166  1  0
166167  2  0
166168  1  0
158169  2  0
169170  1  0
157171  1  0
171172  2  0
172173  1  0
 29  1  1  0
 37 33  2  0
 74 46  1  0
106 78  1  0
138110  1  0
170142  1  0
 28  3  1  0
 45 36  1  0
 73 48  1  0
105 80  1  0
137112  1  0
169144  1  0
 14  5  1  0
 32 15  1  0
 59 50  1  0
 77 60  1  0
 91 82  1  0
109 92  1  0
123114  1  0
141124  1  0
155146  1  0
173156  1  0
 26 18  1  0
 71 63  1  0
103 95  1  0
135127  1  0
167159  1  0
  1174  1  0
  2175  1  0
  6176  1  0
  7177  1  0
 10178  1  0
 10179  1  0
 11180  1  0
 11181  1  0
 11182  1  0
 14183  1  0
 19184  1  0
 20185  1  0
 23186  1  0
 23187  1  0
 24188  1  0
 24189  1  0
 24190  1  0
 26191  1  0
 30192  1  0
 38193  1  0
 38194  1  0
 39195  1  1
 41196  1  0
 41197  1  0
 41198  1  0
 42199  1  6
 44200  1  0
 44201  1  0
 44202  1  0
 45203  1  0
 45204  1  0
 47205  1  0
 51206  1  0
 52207  1  0
 55208  1  0
 55209  1  0
 56210  1  0
 56211  1  0
 56212  1  0
 59213  1  0
 64214  1  0
 65215  1  0
 68216  1  0
 68217  1  0
 69218  1  0
 69219  1  0
 69220  1  0
 71221  1  0
 75222  1  0
 79223  1  0
 83224  1  0
 84225  1  0
 87226  1  0
 87227  1  0
 88228  1  0
 88229  1  0
 88230  1  0
 91231  1  0
 96232  1  0
 97233  1  0
100234  1  0
100235  1  0
101236  1  0
101237  1  0
101238  1  0
103239  1  0
107240  1  0
111241  1  0
115242  1  0
116243  1  0
119244  1  0
119245  1  0
120246  1  0
120247  1  0
120248  1  0
123249  1  0
128250  1  0
129251  1  0
132252  1  0
132253  1  0
133254  1  0
133255  1  0
133256  1  0
135257  1  0
139258  1  0
143259  1  0
147260  1  0
148261  1  0
151262  1  0
151263  1  0
152264  1  0
152265  1  0
152266  1  0
155267  1  0
160268  1  0
161269  1  0
164270  1  0
164271  1  0
165272  1  0
165273  1  0
165274  1  0
167275  1  0
171276  1  0
172277  1  0
M  END

