
     RDKit          3D

231256  0  0  0  0  0  0  0  0999 V2000
    4.5035  -10.5307    6.5932 C   0  0  0  0  0  0  0  0  0  0  0  0
    3.9142  -10.2454    5.3648 C   0  0  0  0  0  0  0  0  0  0  0  0
    2.6592   -9.6286    5.4850 C   0  0  0  0  0  0  0  0  0  0  0  0
    1.8192   -9.2278    4.4279 C   0  0  0  0  0  0  0  0  0  0  0  0
    2.2073   -9.3788    3.0135 C   0  0  0  0  0  0  0  0  0  0  0  0
    2.3882  -10.8467    2.2115 S   0  0  0  0  0  0  0  0  0  0  0  0
    2.7209  -10.1804    0.7016 C   0  0  0  0  0  0  0  0  0  0  0  0
    3.0412  -10.9731   -0.5292 C   0  0  0  0  0  0  0  0  0  0  0  0
    4.5287  -11.2998   -0.5891 C   0  0  0  0  0  0  0  0  0  0  0  0
    2.7167   -8.7905    0.8130 C   0  0  0  0  0  0  0  0  0  0  0  0
    3.0577   -7.7032   -0.5260 Cl  0  0  0  0  0  0  0  0  0  0  0  0
    2.4195   -8.3405    2.1061 C   0  0  0  0  0  0  0  0  0  0  0  0
    2.3895   -6.6423    2.5571 Cl  0  0  0  0  0  0  0  0  0  0  0  0
    0.5921   -8.6415    4.7813 C   0  0  0  0  0  0  0  0  0  0  0  0
    0.2152   -8.4156    6.1095 C   0  0  0  0  0  0  0  0  0  0  0  0
    1.0588   -8.8091    7.1664 C   0  0  0  0  0  0  0  0  0  0  0  0
    0.6764   -8.6211    8.5770 C   0  0  0  0  0  0  0  0  0  0  0  0
    1.3809   -7.5139    9.6264 S   0  0  0  0  0  0  0  0  0  0  0  0
    0.3939   -7.8658   10.9445 C   0  0  0  0  0  0  0  0  0  0  0  0
    0.4333   -7.1466   12.2603 C   0  0  0  0  0  0  0  0  0  0  0  0
   -0.5916   -6.0191   12.2883 C   0  0  0  0  0  0  0  0  0  0  0  0
   -0.5164   -8.8518   10.5687 C   0  0  0  0  0  0  0  0  0  0  0  0
   -0.3569   -9.2768    9.2416 C   0  0  0  0  0  0  0  0  0  0  0  0
   -1.3573  -10.5118    8.4920 Cl  0  0  0  0  0  0  0  0  0  0  0  0
   -1.7501   -9.4936   11.6423 Cl  0  0  0  0  0  0  0  0  0  0  0  0
    2.2770   -9.4141    6.8142 C   0  0  0  0  0  0  0  0  0  0  0  0
    3.4798  -10.0060    7.8288 S   0  0  0  0  0  0  0  0  0  0  0  0
   -1.0288   -7.7741    6.2303 C   0  0  0  0  0  0  0  0  0  0  0  0
   -1.6324   -7.5493    4.9971 C   0  0  0  0  0  0  0  0  0  0  0  0
   -0.6343   -8.1074    3.7596 S   0  0  0  0  0  0  0  0  0  0  0  0
   -2.8979   -6.8570    4.7736 C   0  0  0  0  0  0  0  0  0  0  0  0
   -3.0606   -5.4764    4.8358 C   0  0  0  0  0  0  0  0  0  0  0  0
   -4.2753   -5.0512    4.2752 C   0  0  0  0  0  0  0  0  0  0  0  0
   -4.6674   -3.7150    4.0565 C   0  0  0  0  0  0  0  0  0  0  0  0
   -3.8701   -2.5866    4.5702 C   0  0  0  0  0  0  0  0  0  0  0  0
   -3.6550   -2.2495    6.2027 S   0  0  0  0  0  0  0  0  0  0  0  0
   -2.6402   -0.9274    5.9824 C   0  0  0  0  0  0  0  0  0  0  0  0
   -2.0549   -0.1063    7.0926 C   0  0  0  0  0  0  0  0  0  0  0  0
   -2.8186    1.1986    7.2721 C   0  0  0  0  0  0  0  0  0  0  0  0
   -2.4624   -0.7259    4.6116 C   0  0  0  0  0  0  0  0  0  0  0  0
   -1.4468    0.5405    3.9385 Cl  0  0  0  0  0  0  0  0  0  0  0  0
   -3.1510   -1.6579    3.8206 C   0  0  0  0  0  0  0  0  0  0  0  0
   -3.0422   -1.7030    2.0656 Cl  0  0  0  0  0  0  0  0  0  0  0  0
   -5.8476   -3.5101    3.3174 C   0  0  0  0  0  0  0  0  0  0  0  0
   -6.6400   -4.5688    2.8582 C   0  0  0  0  0  0  0  0  0  0  0  0
   -6.2748   -5.9040    3.1240 C   0  0  0  0  0  0  0  0  0  0  0  0
   -7.0983   -7.0435    2.6887 C   0  0  0  0  0  0  0  0  0  0  0  0
   -7.4404   -7.4354    1.0891 S   0  0  0  0  0  0  0  0  0  0  0  0
   -8.4278   -8.7530    1.4354 C   0  0  0  0  0  0  0  0  0  0  0  0
   -9.1811   -9.5416    0.4077 C   0  0  0  0  0  0  0  0  0  0  0  0
  -10.4823   -8.8434    0.0365 C   0  0  0  0  0  0  0  0  0  0  0  0
   -8.5118   -8.8972    2.8220 C   0  0  0  0  0  0  0  0  0  0  0  0
   -7.7592   -7.9456    3.5241 C   0  0  0  0  0  0  0  0  0  0  0  0
   -7.7234   -7.8428    5.2771 Cl  0  0  0  0  0  0  0  0  0  0  0  0
   -9.4956  -10.1170    3.6141 Cl  0  0  0  0  0  0  0  0  0  0  0  0
   -5.0648   -6.1066    3.8087 C   0  0  0  0  0  0  0  0  0  0  0  0
   -4.2440   -7.5568    4.0400 S   0  0  0  0  0  0  0  0  0  0  0  0
   -7.7475   -4.1432    2.1094 C   0  0  0  0  0  0  0  0  0  0  0  0
   -7.7978   -2.7602    1.9402 C   0  0  0  0  0  0  0  0  0  0  0  0
   -6.5059   -2.0602    2.7752 S   0  0  0  0  0  0  0  0  0  0  0  0
   -8.7511   -2.0579    1.0539 C   0  0  0  0  0  0  0  0  0  0  0  0
   -9.9259   -2.5985    0.6621 N   0  0  0  0  0  0  0  0  0  0  0  0
  -10.4649   -1.7748   -0.2546 C   0  0  0  0  0  0  0  0  0  0  0  0
   -9.6334   -0.6932   -0.4568 C   0  0  0  0  0  0  0  0  0  0  0  0
   -8.5396   -0.8570    0.3814 C   0  0  0  0  0  0  0  0  0  0  0  0
   -7.3096    0.0043    0.4104 C   0  0  0  0  0  0  0  0  0  0  0  0
   -9.8305    0.3903   -1.4361 C   0  0  0  0  0  0  0  0  0  0  0  0
   -9.8232    0.1951   -2.7598 C   0  0  0  0  0  0  0  0  0  0  0  0
   -9.6474   -1.1334   -3.3750 C   0  0  0  0  0  0  0  0  0  0  0  0
   -8.6517   -1.4650   -4.2149 C   0  0  0  0  0  0  0  0  0  0  0  0
   -7.5461   -0.5819   -4.6468 C   0  0  0  0  0  0  0  0  0  0  0  0
   -6.3105   -1.0506   -5.1022 C   0  0  0  0  0  0  0  0  0  0  0  0
   -5.4120   -0.0187   -5.4399 C   0  0  0  0  0  0  0  0  0  0  0  0
   -4.0768   -0.1729   -5.8682 C   0  0  0  0  0  0  0  0  0  0  0  0
   -3.4495   -1.4986   -6.0174 C   0  0  0  0  0  0  0  0  0  0  0  0
   -2.1170   -2.0364   -5.1399 S   0  0  0  0  0  0  0  0  0  0  0  0
   -1.9582   -3.5118   -5.9302 C   0  0  0  0  0  0  0  0  0  0  0  0
   -0.8317   -4.4776   -5.7084 C   0  0  0  0  0  0  0  0  0  0  0  0
    0.3864   -4.0785   -6.5351 C   0  0  0  0  0  0  0  0  0  0  0  0
   -2.9444   -3.5940   -6.9170 C   0  0  0  0  0  0  0  0  0  0  0  0
   -3.0857   -4.9416   -8.0328 Cl  0  0  0  0  0  0  0  0  0  0  0  0
   -3.7849   -2.4699   -6.9578 C   0  0  0  0  0  0  0  0  0  0  0  0
   -5.0646   -2.2622   -8.1465 Cl  0  0  0  0  0  0  0  0  0  0  0  0
   -3.3306    1.0052   -6.0555 C   0  0  0  0  0  0  0  0  0  0  0  0
   -3.8649    2.2807   -5.8443 C   0  0  0  0  0  0  0  0  0  0  0  0
   -5.2136    2.4345   -5.4663 C   0  0  0  0  0  0  0  0  0  0  0  0
   -5.8244    3.7629   -5.2785 C   0  0  0  0  0  0  0  0  0  0  0  0
   -6.4688    4.3314   -3.8319 S   0  0  0  0  0  0  0  0  0  0  0  0
   -6.9775    5.8173   -4.4352 C   0  0  0  0  0  0  0  0  0  0  0  0
   -7.6423    6.8807   -3.6189 C   0  0  0  0  0  0  0  0  0  0  0  0
   -6.6359    7.9445   -3.1887 C   0  0  0  0  0  0  0  0  0  0  0  0
   -6.6357    5.8922   -5.7862 C   0  0  0  0  0  0  0  0  0  0  0  0
   -5.9899    4.7390   -6.2583 C   0  0  0  0  0  0  0  0  0  0  0  0
   -5.4958    4.5275   -7.9330 Cl  0  0  0  0  0  0  0  0  0  0  0  0
   -6.9987    7.2795   -6.8032 Cl  0  0  0  0  0  0  0  0  0  0  0  0
   -5.9501    1.2571   -5.2503 C   0  0  0  0  0  0  0  0  0  0  0  0
   -7.5264    1.1081   -4.6923 S   0  0  0  0  0  0  0  0  0  0  0  0
   -2.9064    3.3063   -5.9400 C   0  0  0  0  0  0  0  0  0  0  0  0
   -1.6311    2.8302   -6.2453 C   0  0  0  0  0  0  0  0  0  0  0  0
   -1.6931    1.1521   -6.4021 S   0  0  0  0  0  0  0  0  0  0  0  0
   -0.3820    3.5869   -6.0963 C   0  0  0  0  0  0  0  0  0  0  0  0
   -0.2048    4.6565   -5.2183 C   0  0  0  0  0  0  0  0  0  0  0  0
    1.1467    4.9479   -4.9751 C   0  0  0  0  0  0  0  0  0  0  0  0
    1.6408    5.8744   -4.0344 C   0  0  0  0  0  0  0  0  0  0  0  0
    0.7474    6.6769   -3.1823 C   0  0  0  0  0  0  0  0  0  0  0  0
    0.6775    8.3562   -3.1834 S   0  0  0  0  0  0  0  0  0  0  0  0
   -0.4731    8.4855   -1.9631 C   0  0  0  0  0  0  0  0  0  0  0  0
   -0.9360    9.7823   -1.3736 C   0  0  0  0  0  0  0  0  0  0  0  0
   -0.0387   10.1931   -0.2112 C   0  0  0  0  0  0  0  0  0  0  0  0
   -0.7971    7.2057   -1.5121 C   0  0  0  0  0  0  0  0  0  0  0  0
   -1.9119    6.8932   -0.1921 Cl  0  0  0  0  0  0  0  0  0  0  0  0
   -0.1137    6.1905   -2.1995 C   0  0  0  0  0  0  0  0  0  0  0  0
   -0.2719    4.4828   -1.8039 Cl  0  0  0  0  0  0  0  0  0  0  0  0
    3.0340    5.9167   -3.8554 C   0  0  0  0  0  0  0  0  0  0  0  0
    3.9104    5.0992   -4.5783 C   0  0  0  0  0  0  0  0  0  0  0  0
    3.4211    4.2169   -5.5615 C   0  0  0  0  0  0  0  0  0  0  0  0
    4.3269    3.3890   -6.3799 C   0  0  0  0  0  0  0  0  0  0  0  0
    4.3109    1.7089   -6.4512 S   0  0  0  0  0  0  0  0  0  0  0  0
    5.5587    1.5634   -7.5703 C   0  0  0  0  0  0  0  0  0  0  0  0
    6.0010    0.2679   -8.1811 C   0  0  0  0  0  0  0  0  0  0  0  0
    5.2104   -0.0216   -9.4521 C   0  0  0  0  0  0  0  0  0  0  0  0
    5.9935    2.8408   -7.9243 C   0  0  0  0  0  0  0  0  0  0  0  0
    5.3079    3.8635   -7.2518 C   0  0  0  0  0  0  0  0  0  0  0  0
    5.6064    5.5735   -7.5378 Cl  0  0  0  0  0  0  0  0  0  0  0  0
    7.2479    3.1440   -9.1159 Cl  0  0  0  0  0  0  0  0  0  0  0  0
    2.0245    4.1408   -5.7059 C   0  0  0  0  0  0  0  0  0  0  0  0
    1.1304    3.0428   -6.6124 S   0  0  0  0  0  0  0  0  0  0  0  0
    5.2340    5.1692   -4.1210 C   0  0  0  0  0  0  0  0  0  0  0  0
    5.3920    6.0360   -3.0416 C   0  0  0  0  0  0  0  0  0  0  0  0
    3.9009    6.7323   -2.6646 S   0  0  0  0  0  0  0  0  0  0  0  0
    6.5981    6.1361   -2.2088 C   0  0  0  0  0  0  0  0  0  0  0  0
    7.5805    5.1536   -2.1095 C   0  0  0  0  0  0  0  0  0  0  0  0
    8.5446    5.4385   -1.1317 C   0  0  0  0  0  0  0  0  0  0  0  0
    9.6030    4.5958   -0.7420 C   0  0  0  0  0  0  0  0  0  0  0  0
    9.8103    3.2723   -1.3540 C   0  0  0  0  0  0  0  0  0  0  0  0
    9.6304    1.8116   -0.5427 S   0  0  0  0  0  0  0  0  0  0  0  0
    9.9427    0.8285   -1.8698 C   0  0  0  0  0  0  0  0  0  0  0  0
   10.0158   -0.6667   -1.8181 C   0  0  0  0  0  0  0  0  0  0  0  0
   11.4143   -1.1189   -1.4134 C   0  0  0  0  0  0  0  0  0  0  0  0
   10.2201    1.6391   -2.9705 C   0  0  0  0  0  0  0  0  0  0  0  0
   10.6416    1.0120   -4.5565 Cl  0  0  0  0  0  0  0  0  0  0  0  0
   10.1338    3.0097   -2.6835 C   0  0  0  0  0  0  0  0  0  0  0  0
   10.4398    4.2685   -3.8718 Cl  0  0  0  0  0  0  0  0  0  0  0  0
   10.4167    5.0458    0.3105 C   0  0  0  0  0  0  0  0  0  0  0  0
   10.2046    6.2686    0.9572 C   0  0  0  0  0  0  0  0  0  0  0  0
    9.1312    7.1021    0.5805 C   0  0  0  0  0  0  0  0  0  0  0  0
    8.8550    8.3782    1.2640 C   0  0  0  0  0  0  0  0  0  0  0  0
    8.8960    9.8868    0.5260 S   0  0  0  0  0  0  0  0  0  0  0  0
    8.4452   10.7669    1.8887 C   0  0  0  0  0  0  0  0  0  0  0  0
    8.1833   12.2429    1.8976 C   0  0  0  0  0  0  0  0  0  0  0  0
    6.7312   12.5325    1.5330 C   0  0  0  0  0  0  0  0  0  0  0  0
    8.2281    9.8775    2.9412 C   0  0  0  0  0  0  0  0  0  0  0  0
    8.4619    8.5387    2.5942 C   0  0  0  0  0  0  0  0  0  0  0  0
    8.2086    7.1957    3.6990 Cl  0  0  0  0  0  0  0  0  0  0  0  0
    7.6740   10.3776    4.5323 Cl  0  0  0  0  0  0  0  0  0  0  0  0
    8.3196    6.6538   -0.4752 C   0  0  0  0  0  0  0  0  0  0  0  0
    6.9156    7.3581   -1.0849 S   0  0  0  0  0  0  0  0  0  0  0  0
   11.1569    6.5348    1.9534 C   0  0  0  0  0  0  0  0  0  0  0  0
   12.1011    5.5205    2.0917 C   0  0  0  0  0  0  0  0  0  0  0  0
   11.7655    4.2980    0.9784 S   0  0  0  0  0  0  0  0  0  0  0  0
    5.4611  -11.0158    6.7313 H   0  0  0  0  0  0  0  0  0  0  0  0
    4.3850  -10.4847    4.4218 H   0  0  0  0  0  0  0  0  0  0  0  0
    2.7469  -10.4058   -1.4376 H   0  0  0  0  0  0  0  0  0  0  0  0
    2.4571  -11.9185   -0.5185 H   0  0  0  0  0  0  0  0  0  0  0  0
    4.7514  -11.8425   -1.5321 H   0  0  0  0  0  0  0  0  0  0  0  0
    4.8130  -11.9492    0.2644 H   0  0  0  0  0  0  0  0  0  0  0  0
    5.1346  -10.3685   -0.5624 H   0  0  0  0  0  0  0  0  0  0  0  0
    1.4478   -6.7251   12.4254 H   0  0  0  0  0  0  0  0  0  0  0  0
    0.2213   -7.8597   13.0860 H   0  0  0  0  0  0  0  0  0  0  0  0
   -0.3824   -5.2842   11.4825 H   0  0  0  0  0  0  0  0  0  0  0  0
   -0.5450   -5.4921   13.2647 H   0  0  0  0  0  0  0  0  0  0  0  0
   -1.6165   -6.4236   12.1544 H   0  0  0  0  0  0  0  0  0  0  0  0
   -1.4784   -7.4818    7.1694 H   0  0  0  0  0  0  0  0  0  0  0  0
   -2.2867   -4.8066    5.1817 H   0  0  0  0  0  0  0  0  0  0  0  0
   -0.9880    0.1073    6.8780 H   0  0  0  0  0  0  0  0  0  0  0  0
   -2.1047   -0.6833    8.0401 H   0  0  0  0  0  0  0  0  0  0  0  0
   -2.3750    1.7741    8.1119 H   0  0  0  0  0  0  0  0  0  0  0  0
   -3.8852    0.9934    7.5082 H   0  0  0  0  0  0  0  0  0  0  0  0
   -2.7591    1.8186    6.3532 H   0  0  0  0  0  0  0  0  0  0  0  0
   -8.5516   -9.6473   -0.5015 H   0  0  0  0  0  0  0  0  0  0  0  0
   -9.4028  -10.5602    0.7901 H   0  0  0  0  0  0  0  0  0  0  0  0
  -11.1399   -8.7491    0.9267 H   0  0  0  0  0  0  0  0  0  0  0  0
  -10.2770   -7.8272   -0.3651 H   0  0  0  0  0  0  0  0  0  0  0  0
  -11.0138   -9.4334   -0.7377 H   0  0  0  0  0  0  0  0  0  0  0  0
   -8.4599   -4.8168    1.6564 H   0  0  0  0  0  0  0  0  0  0  0  0
  -10.3420   -3.4987    0.9836 H   0  0  0  0  0  0  0  0  0  0  0  0
  -11.4082   -1.9547   -0.7581 H   0  0  0  0  0  0  0  0  0  0  0  0
   -7.1837    0.4419    1.4234 H   0  0  0  0  0  0  0  0  0  0  0  0
   -6.4156   -0.6017    0.1508 H   0  0  0  0  0  0  0  0  0  0  0  0
   -7.3887    0.8369   -0.3166 H   0  0  0  0  0  0  0  0  0  0  0  0
   -9.8850    1.4061   -1.0611 H   0  0  0  0  0  0  0  0  0  0  0  0
   -9.9253    1.0551   -3.4018 H   0  0  0  0  0  0  0  0  0  0  0  0
  -10.3282   -1.9174   -3.0683 H   0  0  0  0  0  0  0  0  0  0  0  0
   -8.5997   -2.5002   -4.5284 H   0  0  0  0  0  0  0  0  0  0  0  0
   -6.0648   -2.1046   -5.1563 H   0  0  0  0  0  0  0  0  0  0  0  0
   -1.1489   -5.5022   -5.9893 H   0  0  0  0  0  0  0  0  0  0  0  0
   -0.5577   -4.4865   -4.6319 H   0  0  0  0  0  0  0  0  0  0  0  0
    1.1901   -4.8311   -6.4003 H   0  0  0  0  0  0  0  0  0  0  0  0
    0.1231   -4.0283   -7.6131 H   0  0  0  0  0  0  0  0  0  0  0  0
    0.7679   -3.0878   -6.2045 H   0  0  0  0  0  0  0  0  0  0  0  0
   -8.0929    6.4232   -2.7101 H   0  0  0  0  0  0  0  0  0  0  0  0
   -8.4624    7.3531   -4.2023 H   0  0  0  0  0  0  0  0  0  0  0  0
   -5.7900    7.4774   -2.6362 H   0  0  0  0  0  0  0  0  0  0  0  0
   -7.1332    8.6780   -2.5243 H   0  0  0  0  0  0  0  0  0  0  0  0
   -6.2377    8.4821   -4.0759 H   0  0  0  0  0  0  0  0  0  0  0  0
   -3.1139    4.3455   -5.7235 H   0  0  0  0  0  0  0  0  0  0  0  0
   -1.0229    5.1360   -4.6993 H   0  0  0  0  0  0  0  0  0  0  0  0
   -0.9100   10.5736   -2.1529 H   0  0  0  0  0  0  0  0  0  0  0  0
   -1.9841    9.6874   -1.0186 H   0  0  0  0  0  0  0  0  0  0  0  0
   -0.0652    9.4222    0.5886 H   0  0  0  0  0  0  0  0  0  0  0  0
   -0.3931   11.1556    0.2094 H   0  0  0  0  0  0  0  0  0  0  0  0
    1.0078   10.3191   -0.5616 H   0  0  0  0  0  0  0  0  0  0  0  0
    5.8376   -0.5576   -7.4536 H   0  0  0  0  0  0  0  0  0  0  0  0
    7.0849    0.3064   -8.4144 H   0  0  0  0  0  0  0  0  0  0  0  0
    5.3865    0.7725  -10.2101 H   0  0  0  0  0  0  0  0  0  0  0  0
    5.5320   -0.9963   -9.8748 H   0  0  0  0  0  0  0  0  0  0  0  0
    4.1254   -0.0756   -9.2232 H   0  0  0  0  0  0  0  0  0  0  0  0
    6.0348    4.5602   -4.5171 H   0  0  0  0  0  0  0  0  0  0  0  0
    7.5608    4.2358   -2.6830 H   0  0  0  0  0  0  0  0  0  0  0  0
    9.2802   -1.0455   -1.0752 H   0  0  0  0  0  0  0  0  0  0  0  0
    9.7545   -1.1007   -2.8054 H   0  0  0  0  0  0  0  0  0  0  0  0
   11.6690   -0.7229   -0.4066 H   0  0  0  0  0  0  0  0  0  0  0  0
   11.4525   -2.2280   -1.3759 H   0  0  0  0  0  0  0  0  0  0  0  0
   12.1626   -0.7596   -2.1499 H   0  0  0  0  0  0  0  0  0  0  0  0
    8.4053   12.6639    2.9005 H   0  0  0  0  0  0  0  0  0  0  0  0
    8.8510   12.7415    1.1628 H   0  0  0  0  0  0  0  0  0  0  0  0
    6.0468   12.0491    2.2627 H   0  0  0  0  0  0  0  0  0  0  0  0
    6.5541   13.6273    1.5513 H   0  0  0  0  0  0  0  0  0  0  0  0
    6.5061   12.1518    0.5133 H   0  0  0  0  0  0  0  0  0  0  0  0
   11.1719    7.4333    2.5540 H   0  0  0  0  0  0  0  0  0  0  0  0
   12.9203    5.5198    2.7962 H   0  0  0  0  0  0  0  0  0  0  0  0
  1  2  2  0
  2  3  1  0
  3  4  2  0
  4  5  1  0
  5  6  1  0
  6  7  1  0
  7  8  1  0
  8  9  1  0
  7 10  2  0
 10 11  1  0
 10 12  1  0
 12 13  1  0
  4 14  1  0
 14 15  2  0
 15 16  1  0
 16 17  1  0
 17 18  1  0
 18 19  1  0
 19 20  1  0
 20 21  1  0
 19 22  2  0
 22 23  1  0
 23 24  1  0
 22 25  1  0
 16 26  2  0
 26 27  1  0
 15 28  1  0
 28 29  2  0
 29 30  1  0
 29 31  1  0
 31 32  2  0
 32 33  1  0
 33 34  2  0
 34 35  1  0
 35 36  1  0
 36 37  1  0
 37 38  1  0
 38 39  1  0
 37 40  2  0
 40 41  1  0
 40 42  1  0
 42 43  1  0
 34 44  1  0
 44 45  2  0
 45 46  1  0
 46 47  1  0
 47 48  1  0
 48 49  1  0
 49 50  1  0
 50 51  1  0
 49 52  2  0
 52 53  1  0
 53 54  1  0
 52 55  1  0
 46 56  2  0
 56 57  1  0
 45 58  1  0
 58 59  2  0
 59 60  1  0
 59 61  1  0
 61 62  1  0
 62 63  1  0
 63 64  2  0
 64 65  1  0
 65 66  1  0
 64 67  1  0
 67 68  2  3
 68 69  1  0
 69 70  2  3
 70 71  1  0
 71 72  2  0
 72 73  1  0
 73 74  2  0
 74 75  1  0
 75 76  1  0
 76 77  1  0
 77 78  1  0
 78 79  1  0
 77 80  2  0
 80 81  1  0
 80 82  1  0
 82 83  1  0
 74 84  1  0
 84 85  2  0
 85 86  1  0
 86 87  1  0
 87 88  1  0
 88 89  1  0
 89 90  1  0
 90 91  1  0
 89 92  2  0
 92 93  1  0
 93 94  1  0
 92 95  1  0
 86 96  2  0
 96 97  1  0
 85 98  1  0
 98 99  2  0
 99100  1  0
 99101  1  0
101102  2  0
102103  1  0
103104  2  0
104105  1  0
105106  1  0
106107  1  0
107108  1  0
108109  1  0
107110  2  0
110111  1  0
110112  1  0
112113  1  0
104114  1  0
114115  2  0
115116  1  0
116117  1  0
117118  1  0
118119  1  0
119120  1  0
120121  1  0
119122  2  0
122123  1  0
123124  1  0
122125  1  0
116126  2  0
126127  1  0
115128  1  0
128129  2  0
129130  1  0
129131  1  0
131132  2  0
132133  1  0
133134  2  0
134135  1  0
135136  1  0
136137  1  0
137138  1  0
138139  1  0
137140  2  0
140141  1  0
140142  1  0
142143  1  0
134144  1  0
144145  2  0
145146  1  0
146147  1  0
147148  1  0
148149  1  0
149150  1  0
150151  1  0
149152  2  0
152153  1  0
153154  1  0
152155  1  0
146156  2  0
156157  1  0
145158  1  0
158159  2  0
159160  1  0
 27  1  1  0
 57 31  1  0
 65 61  2  0
 97 71  1  0
127101  1  0
157131  1  0
 26  3  1  0
 56 33  1  0
 96 73  1  0
126103  1  0
156133  1  0
 12  5  2  0
 30 14  1  0
 42 35  2  0
 60 44  1  0
 82 75  2  0
100 84  1  0
112105  2  0
130114  1  0
142135  2  0
160144  1  0
 23 17  2  0
 53 47  2  0
 93 87  2  0
123117  2  0
153147  2  0
  1161  1  0
  2162  1  0
  8163  1  0
  8164  1  0
  9165  1  0
  9166  1  0
  9167  1  0
 20168  1  0
 20169  1  0
 21170  1  0
 21171  1  0
 21172  1  0
 28173  1  0
 32174  1  0
 38175  1  0
 38176  1  0
 39177  1  0
 39178  1  0
 39179  1  0
 50180  1  0
 50181  1  0
 51182  1  0
 51183  1  0
 51184  1  0
 58185  1  0
 62186  1  0
 63187  1  0
 66188  1  0
 66189  1  0
 66190  1  0
 67191  1  0
 68192  1  0
 69193  1  0
 70194  1  0
 72195  1  0
 78196  1  0
 78197  1  0
 79198  1  0
 79199  1  0
 79200  1  0
 90201  1  0
 90202  1  0
 91203  1  0
 91204  1  0
 91205  1  0
 98206  1  0
102207  1  0
108208  1  0
108209  1  0
109210  1  0
109211  1  0
109212  1  0
120213  1  0
120214  1  0
121215  1  0
121216  1  0
121217  1  0
128218  1  0
132219  1  0
138220  1  0
138221  1  0
139222  1  0
139223  1  0
139224  1  0
150225  1  0
150226  1  0
151227  1  0
151228  1  0
151229  1  0
158230  1  0
159231  1  0
M  END

