
     RDKit          3D

222247  0  0  0  0  0  0  0  0999 V2000
    6.5164   -3.2869   12.9795 C   0  0  0  0  0  0  0  0  0  0  0  0
    5.6722   -2.4824   12.2178 C   0  0  0  0  0  0  0  0  0  0  0  0
    5.0102   -3.1866   11.2004 C   0  0  0  0  0  0  0  0  0  0  0  0
    4.1028   -2.6517   10.2647 C   0  0  0  0  0  0  0  0  0  0  0  0
    3.7407   -1.2249   10.2561 C   0  0  0  0  0  0  0  0  0  0  0  0
    4.7532    0.0190    9.7521 S   0  0  0  0  0  0  0  0  0  0  0  0
    3.6323    1.2578    9.9617 C   0  0  0  0  0  0  0  0  0  0  0  0
    3.8820    2.6980    9.6223 C   0  0  0  0  0  0  0  0  0  0  0  0
    3.4066    3.0142    8.2076 C   0  0  0  0  0  0  0  0  0  0  0  0
    2.4350    0.7039   10.4164 C   0  0  0  0  0  0  0  0  0  0  0  0
    0.9914    1.6488   10.7530 Cl  0  0  0  0  0  0  0  0  0  0  0  0
    2.4972   -0.6890   10.5808 C   0  0  0  0  0  0  0  0  0  0  0  0
    1.1521   -1.6561   11.1647 Cl  0  0  0  0  0  0  0  0  0  0  0  0
    3.5657   -3.5421    9.3204 C   0  0  0  0  0  0  0  0  0  0  0  0
    3.9007   -4.8981    9.2808 C   0  0  0  0  0  0  0  0  0  0  0  0
    4.7994   -5.4346   10.2236 C   0  0  0  0  0  0  0  0  0  0  0  0
    5.1905   -6.8494   10.2035 C   0  0  0  0  0  0  0  0  0  0  0  0
    6.1904   -7.5471    9.0478 S   0  0  0  0  0  0  0  0  0  0  0  0
    6.1424   -9.1008    9.6928 C   0  0  0  0  0  0  0  0  0  0  0  0
    6.7961  -10.2944    9.0627 C   0  0  0  0  0  0  0  0  0  0  0  0
    5.9629  -10.8075    7.8930 C   0  0  0  0  0  0  0  0  0  0  0  0
    5.3218   -9.0936   10.8206 C   0  0  0  0  0  0  0  0  0  0  0  0
    4.7982   -7.8250   11.1154 C   0  0  0  0  0  0  0  0  0  0  0  0
    3.7039   -7.5133   12.4556 Cl  0  0  0  0  0  0  0  0  0  0  0  0
    4.9440  -10.5283   11.7602 Cl  0  0  0  0  0  0  0  0  0  0  0  0
    5.3334   -4.5470   11.1743 C   0  0  0  0  0  0  0  0  0  0  0  0
    6.4428   -4.8682   12.3978 S   0  0  0  0  0  0  0  0  0  0  0  0
    3.2618   -5.5957    8.2379 C   0  0  0  0  0  0  0  0  0  0  0  0
    2.4256   -4.7819    7.4672 C   0  0  0  0  0  0  0  0  0  0  0  0
    2.4977   -3.2057    8.0720 S   0  0  0  0  0  0  0  0  0  0  0  0
    1.6548   -5.1879    6.2673 C   0  0  0  0  0  0  0  0  0  0  0  0
    0.4782   -4.5031    5.9047 C   0  0  0  0  0  0  0  0  0  0  0  0
   -0.0360   -3.5274    6.6944 F   0  0  0  0  0  0  0  0  0  0  0  0
   -0.1891   -4.8179    4.7203 C   0  0  0  0  0  0  0  0  0  0  0  0
    0.2977   -5.8216    3.8650 C   0  0  0  0  0  0  0  0  0  0  0  0
    1.4488   -6.5372    4.2417 C   0  0  0  0  0  0  0  0  0  0  0  0
    2.1166   -6.2263    5.4359 C   0  0  0  0  0  0  0  0  0  0  0  0
   -0.3700   -6.0674    2.5643 C   0  0  0  0  0  0  0  0  0  0  0  0
    0.2252   -6.5881    1.4096 C   0  0  0  0  0  0  0  0  0  0  0  0
   -0.6126   -6.5153    0.2792 C   0  0  0  0  0  0  0  0  0  0  0  0
   -0.2613   -6.8410   -1.0481 C   0  0  0  0  0  0  0  0  0  0  0  0
    1.0606   -7.3847   -1.3924 C   0  0  0  0  0  0  0  0  0  0  0  0
    1.5537   -8.9567   -1.0614 S   0  0  0  0  0  0  0  0  0  0  0  0
    3.0398   -8.8454   -1.8417 C   0  0  0  0  0  0  0  0  0  0  0  0
    3.9921   -9.9907   -2.0051 C   0  0  0  0  0  0  0  0  0  0  0  0
    3.5985  -10.8429   -3.2075 C   0  0  0  0  0  0  0  0  0  0  0  0
    3.1605   -7.5712   -2.3969 C   0  0  0  0  0  0  0  0  0  0  0  0
    4.5452   -7.0521   -3.3484 Cl  0  0  0  0  0  0  0  0  0  0  0  0
    2.0532   -6.7485   -2.1369 C   0  0  0  0  0  0  0  0  0  0  0  0
    1.9493   -5.0749   -2.6709 Cl  0  0  0  0  0  0  0  0  0  0  0  0
   -1.2144   -6.5713   -2.0457 C   0  0  0  0  0  0  0  0  0  0  0  0
   -2.4656   -6.0209   -1.7586 C   0  0  0  0  0  0  0  0  0  0  0  0
   -2.8204   -5.7030   -0.4342 C   0  0  0  0  0  0  0  0  0  0  0  0
   -4.0701   -4.9902   -0.1250 C   0  0  0  0  0  0  0  0  0  0  0  0
   -4.1544   -3.3673    0.3056 S   0  0  0  0  0  0  0  0  0  0  0  0
   -5.8356   -3.2685    0.3119 C   0  0  0  0  0  0  0  0  0  0  0  0
   -6.6088   -2.0026    0.5319 C   0  0  0  0  0  0  0  0  0  0  0  0
   -6.8678   -1.2929   -0.7940 C   0  0  0  0  0  0  0  0  0  0  0  0
   -6.3541   -4.5120   -0.0499 C   0  0  0  0  0  0  0  0  0  0  0  0
   -5.3647   -5.4757   -0.2970 C   0  0  0  0  0  0  0  0  0  0  0  0
   -5.7173   -7.1276   -0.7865 Cl  0  0  0  0  0  0  0  0  0  0  0  0
   -8.0748   -4.8358   -0.2119 Cl  0  0  0  0  0  0  0  0  0  0  0  0
   -1.8640   -5.9580    0.5582 C   0  0  0  0  0  0  0  0  0  0  0  0
   -1.9327   -5.5480    2.1803 S   0  0  0  0  0  0  0  0  0  0  0  0
   -3.2028   -5.6856   -2.9049 C   0  0  0  0  0  0  0  0  0  0  0  0
   -2.5210   -5.9386   -4.0950 C   0  0  0  0  0  0  0  0  0  0  0  0
   -1.0210   -6.6215   -3.7195 S   0  0  0  0  0  0  0  0  0  0  0  0
   -2.8357   -5.2502   -5.3575 C   0  0  0  0  0  0  0  0  0  0  0  0
   -1.8696   -4.6158   -6.1365 C   0  0  0  0  0  0  0  0  0  0  0  0
   -2.3731   -3.5217   -6.8625 C   0  0  0  0  0  0  0  0  0  0  0  0
   -1.5978   -2.5530   -7.5331 C   0  0  0  0  0  0  0  0  0  0  0  0
   -0.1259   -2.6382   -7.5897 C   0  0  0  0  0  0  0  0  0  0  0  0
    0.8930   -2.5832   -6.2534 S   0  0  0  0  0  0  0  0  0  0  0  0
    2.3258   -2.7317   -7.1217 C   0  0  0  0  0  0  0  0  0  0  0  0
    3.6787   -2.8726   -6.4974 C   0  0  0  0  0  0  0  0  0  0  0  0
    4.0140   -4.3409   -6.2627 C   0  0  0  0  0  0  0  0  0  0  0  0
    2.0188   -2.8319   -8.4779 C   0  0  0  0  0  0  0  0  0  0  0  0
    3.2293   -3.0618   -9.7314 Cl  0  0  0  0  0  0  0  0  0  0  0  0
    0.6424   -2.7624   -8.7427 C   0  0  0  0  0  0  0  0  0  0  0  0
   -0.0444   -2.8921  -10.3544 Cl  0  0  0  0  0  0  0  0  0  0  0  0
   -2.2631   -1.3863   -7.9511 C   0  0  0  0  0  0  0  0  0  0  0  0
   -3.6339   -1.1923   -7.7584 C   0  0  0  0  0  0  0  0  0  0  0  0
   -4.4283   -2.2030   -7.1770 C   0  0  0  0  0  0  0  0  0  0  0  0
   -5.8693   -2.0044   -6.9167 C   0  0  0  0  0  0  0  0  0  0  0  0
   -6.6052   -2.0699   -5.4016 S   0  0  0  0  0  0  0  0  0  0  0  0
   -8.1722   -1.7965   -5.9468 C   0  0  0  0  0  0  0  0  0  0  0  0
   -9.3948   -1.8615   -5.0783 C   0  0  0  0  0  0  0  0  0  0  0  0
   -9.9051   -3.2975   -4.9789 C   0  0  0  0  0  0  0  0  0  0  0  0
   -8.1433   -1.6620   -7.3340 C   0  0  0  0  0  0  0  0  0  0  0  0
   -6.8529   -1.7634   -7.8748 C   0  0  0  0  0  0  0  0  0  0  0  0
   -6.5256   -1.6683   -9.6002 Cl  0  0  0  0  0  0  0  0  0  0  0  0
   -9.5840   -1.4175   -8.3145 Cl  0  0  0  0  0  0  0  0  0  0  0  0
   -3.7526   -3.3468   -6.7135 C   0  0  0  0  0  0  0  0  0  0  0  0
   -4.3274   -4.5208   -5.6596 S   0  0  0  0  0  0  0  0  0  0  0  0
   -4.0347    0.1420   -7.9459 C   0  0  0  0  0  0  0  0  0  0  0  0
   -2.9722    1.0079   -8.2294 C   0  0  0  0  0  0  0  0  0  0  0  0
   -1.5558    0.0907   -8.3312 S   0  0  0  0  0  0  0  0  0  0  0  0
   -2.9714    2.4312   -7.8485 C   0  0  0  0  0  0  0  0  0  0  0  0
   -1.8358    3.2503   -7.8536 C   0  0  0  0  0  0  0  0  0  0  0  0
   -1.9164    4.3165   -6.9347 C   0  0  0  0  0  0  0  0  0  0  0  0
   -0.8470    5.1478   -6.5434 C   0  0  0  0  0  0  0  0  0  0  0  0
    0.4627    5.0868   -7.2118 C   0  0  0  0  0  0  0  0  0  0  0  0
    0.7910    5.7334   -8.7286 S   0  0  0  0  0  0  0  0  0  0  0  0
    2.4278    5.3317   -8.7400 C   0  0  0  0  0  0  0  0  0  0  0  0
    3.3858    5.7072   -9.8285 C   0  0  0  0  0  0  0  0  0  0  0  0
    3.8600    7.1463   -9.6527 C   0  0  0  0  0  0  0  0  0  0  0  0
    2.7404    4.6942   -7.5398 C   0  0  0  0  0  0  0  0  0  0  0  0
    4.3575    4.1514   -7.1194 Cl  0  0  0  0  0  0  0  0  0  0  0  0
    1.6337    4.5431   -6.6901 C   0  0  0  0  0  0  0  0  0  0  0  0
    1.7126    3.7049   -5.1473 Cl  0  0  0  0  0  0  0  0  0  0  0  0
   -1.0365    5.9282   -5.3870 C   0  0  0  0  0  0  0  0  0  0  0  0
   -2.2247    5.8969   -4.6519 C   0  0  0  0  0  0  0  0  0  0  0  0
   -3.3122    5.1134   -5.0764 C   0  0  0  0  0  0  0  0  0  0  0  0
   -4.4759    4.8971   -4.2034 C   0  0  0  0  0  0  0  0  0  0  0  0
   -5.9382    5.7091   -4.3343 S   0  0  0  0  0  0  0  0  0  0  0  0
   -6.6424    5.0378   -2.9521 C   0  0  0  0  0  0  0  0  0  0  0  0
   -7.9556    5.4508   -2.3473 C   0  0  0  0  0  0  0  0  0  0  0  0
   -8.9774    5.8720   -3.4002 C   0  0  0  0  0  0  0  0  0  0  0  0
   -5.7070    4.1919   -2.3508 C   0  0  0  0  0  0  0  0  0  0  0  0
   -4.4989    4.1045   -3.0577 C   0  0  0  0  0  0  0  0  0  0  0  0
   -3.1229    3.1533   -2.5118 Cl  0  0  0  0  0  0  0  0  0  0  0  0
   -5.9703    3.3870   -0.8119 Cl  0  0  0  0  0  0  0  0  0  0  0  0
   -3.1242    4.3383   -6.2282 C   0  0  0  0  0  0  0  0  0  0  0  0
   -4.0796    3.0620   -6.7427 S   0  0  0  0  0  0  0  0  0  0  0  0
   -2.1241    6.5333   -3.4072 C   0  0  0  0  0  0  0  0  0  0  0  0
   -0.8534    7.0340   -3.1423 C   0  0  0  0  0  0  0  0  0  0  0  0
    0.1318    6.7402   -4.4813 S   0  0  0  0  0  0  0  0  0  0  0  0
   -0.3309    7.1283   -1.7776 C   0  0  0  0  0  0  0  0  0  0  0  0
   -0.4670    6.1096   -0.8392 C   0  0  0  0  0  0  0  0  0  0  0  0
    0.2307    6.3599    0.3450 C   0  0  0  0  0  0  0  0  0  0  0  0
    0.3025    5.5044    1.4587 C   0  0  0  0  0  0  0  0  0  0  0  0
   -0.3748    4.1937    1.4705 C   0  0  0  0  0  0  0  0  0  0  0  0
    0.0708    2.8657    0.5375 S   0  0  0  0  0  0  0  0  0  0  0  0
   -1.1877    1.8648    1.0356 C   0  0  0  0  0  0  0  0  0  0  0  0
   -1.3846    0.4459    0.5890 C   0  0  0  0  0  0  0  0  0  0  0  0
   -0.7748   -0.5255    1.5936 C   0  0  0  0  0  0  0  0  0  0  0  0
   -1.9716    2.5612    1.9520 C   0  0  0  0  0  0  0  0  0  0  0  0
   -3.4058    1.8841    2.7113 Cl  0  0  0  0  0  0  0  0  0  0  0  0
   -1.5173    3.8659    2.1960 C   0  0  0  0  0  0  0  0  0  0  0  0
   -2.3400    4.9941    3.2666 Cl  0  0  0  0  0  0  0  0  0  0  0  0
    1.0449    5.9611    2.5587 C   0  0  0  0  0  0  0  0  0  0  0  0
    1.6929    7.1999    2.5690 C   0  0  0  0  0  0  0  0  0  0  0  0
    1.6246    8.0526    1.4473 C   0  0  0  0  0  0  0  0  0  0  0  0
    2.2315    9.3940    1.4546 C   0  0  0  0  0  0  0  0  0  0  0  0
    1.3551   10.8262    1.4960 S   0  0  0  0  0  0  0  0  0  0  0  0
    2.6905   11.8464    1.5799 C   0  0  0  0  0  0  0  0  0  0  0  0
    2.6119   13.3426    1.5827 C   0  0  0  0  0  0  0  0  0  0  0  0
    2.6287   13.8842    0.1585 C   0  0  0  0  0  0  0  0  0  0  0  0
    3.8493   11.0717    1.5510 C   0  0  0  0  0  0  0  0  0  0  0  0
    3.5903    9.6939    1.4916 C   0  0  0  0  0  0  0  0  0  0  0  0
    4.8527    8.4723    1.4266 Cl  0  0  0  0  0  0  0  0  0  0  0  0
    5.4713   11.7501    1.5822 Cl  0  0  0  0  0  0  0  0  0  0  0  0
    0.8902    7.5940    0.3414 C   0  0  0  0  0  0  0  0  0  0  0  0
    0.6578    8.3460   -1.1523 S   0  0  0  0  0  0  0  0  0  0  0  0
    2.3552    7.4643    3.7808 C   0  0  0  0  0  0  0  0  0  0  0  0
    2.2393    6.4288    4.7060 C   0  0  0  0  0  0  0  0  0  0  0  0
    1.3098    5.1909    4.0320 S   0  0  0  0  0  0  0  0  0  0  0  0
    7.1290   -2.9488   13.8060 H   0  0  0  0  0  0  0  0  0  0  0  0
    5.5510   -1.4231   12.4010 H   0  0  0  0  0  0  0  0  0  0  0  0
    3.3580    3.3569   10.3464 H   0  0  0  0  0  0  0  0  0  0  0  0
    4.9695    2.9145    9.6960 H   0  0  0  0  0  0  0  0  0  0  0  0
    3.9110    2.3486    7.4733 H   0  0  0  0  0  0  0  0  0  0  0  0
    3.6529    4.0681    7.9549 H   0  0  0  0  0  0  0  0  0  0  0  0
    2.3058    2.8767    8.1290 H   0  0  0  0  0  0  0  0  0  0  0  0
    7.8043  -10.0092    8.6930 H   0  0  0  0  0  0  0  0  0  0  0  0
    6.9229  -11.1058    9.8078 H   0  0  0  0  0  0  0  0  0  0  0  0
    4.9702  -11.1505    8.2563 H   0  0  0  0  0  0  0  0  0  0  0  0
    5.8253  -10.0072    7.1331 H   0  0  0  0  0  0  0  0  0  0  0  0
    6.4852  -11.6637    7.4124 H   0  0  0  0  0  0  0  0  0  0  0  0
    3.3909   -6.6552    8.0589 H   0  0  0  0  0  0  0  0  0  0  0  0
   -1.0687   -4.2444    4.4549 H   0  0  0  0  0  0  0  0  0  0  0  0
    1.8425   -7.3276    3.6146 H   0  0  0  0  0  0  0  0  0  0  0  0
    3.0215   -6.7703    5.6840 H   0  0  0  0  0  0  0  0  0  0  0  0
    1.2500   -6.9301    1.3659 H   0  0  0  0  0  0  0  0  0  0  0  0
    3.9699  -10.6193   -1.0889 H   0  0  0  0  0  0  0  0  0  0  0  0
    5.0284   -9.6147   -2.1383 H   0  0  0  0  0  0  0  0  0  0  0  0
    4.3236  -11.6739   -3.3260 H   0  0  0  0  0  0  0  0  0  0  0  0
    3.5981  -10.2269   -4.1321 H   0  0  0  0  0  0  0  0  0  0  0  0
    2.5850  -11.2738   -3.0559 H   0  0  0  0  0  0  0  0  0  0  0  0
   -6.0263   -1.3312    1.1965 H   0  0  0  0  0  0  0  0  0  0  0  0
   -7.5742   -2.2286    1.0326 H   0  0  0  0  0  0  0  0  0  0  0  0
   -5.9099   -1.0844   -1.3131 H   0  0  0  0  0  0  0  0  0  0  0  0
   -7.3888   -0.3330   -0.6026 H   0  0  0  0  0  0  0  0  0  0  0  0
   -7.5061   -1.9233   -1.4479 H   0  0  0  0  0  0  0  0  0  0  0  0
   -4.1382   -5.1444   -2.8699 H   0  0  0  0  0  0  0  0  0  0  0  0
   -0.8162   -4.8382   -6.0452 H   0  0  0  0  0  0  0  0  0  0  0  0
    3.6949   -2.3357   -5.5241 H   0  0  0  0  0  0  0  0  0  0  0  0
    4.4504   -2.4108   -7.1492 H   0  0  0  0  0  0  0  0  0  0  0  0
    3.2387   -4.8214   -5.6248 H   0  0  0  0  0  0  0  0  0  0  0  0
    4.0709   -4.8812   -7.2330 H   0  0  0  0  0  0  0  0  0  0  0  0
    4.9967   -4.4244   -5.7525 H   0  0  0  0  0  0  0  0  0  0  0  0
  -10.1908   -1.2099   -5.4946 H   0  0  0  0  0  0  0  0  0  0  0  0
   -9.1431   -1.4884   -4.0632 H   0  0  0  0  0  0  0  0  0  0  0  0
  -10.1574   -3.6942   -5.9850 H   0  0  0  0  0  0  0  0  0  0  0  0
  -10.8175   -3.3194   -4.3464 H   0  0  0  0  0  0  0  0  0  0  0  0
   -9.1377   -3.9481   -4.5121 H   0  0  0  0  0  0  0  0  0  0  0  0
   -5.0281    0.4989   -7.7058 H   0  0  0  0  0  0  0  0  0  0  0  0
   -0.9296    2.9957   -8.3885 H   0  0  0  0  0  0  0  0  0  0  0  0
    4.2665    5.0284   -9.8235 H   0  0  0  0  0  0  0  0  0  0  0  0
    2.8811    5.6034  -10.8155 H   0  0  0  0  0  0  0  0  0  0  0  0
    4.3418    7.2796   -8.6582 H   0  0  0  0  0  0  0  0  0  0  0  0
    4.5985    7.3963  -10.4407 H   0  0  0  0  0  0  0  0  0  0  0  0
    3.0015    7.8511   -9.7382 H   0  0  0  0  0  0  0  0  0  0  0  0
   -7.7754    6.2981   -1.6506 H   0  0  0  0  0  0  0  0  0  0  0  0
   -8.3807    4.6070   -1.7636 H   0  0  0  0  0  0  0  0  0  0  0  0
   -9.1393    5.0485   -4.1276 H   0  0  0  0  0  0  0  0  0  0  0  0
   -9.9422    6.1071   -2.9025 H   0  0  0  0  0  0  0  0  0  0  0  0
   -8.6332    6.7811   -3.9375 H   0  0  0  0  0  0  0  0  0  0  0  0
   -2.9009    6.4997   -2.6551 H   0  0  0  0  0  0  0  0  0  0  0  0
   -1.0325    5.2065   -1.0276 H   0  0  0  0  0  0  0  0  0  0  0  0
   -2.4697    0.2339    0.4847 H   0  0  0  0  0  0  0  0  0  0  0  0
   -0.9097    0.2962   -0.4031 H   0  0  0  0  0  0  0  0  0  0  0  0
   -1.2176   -0.3739    2.6033 H   0  0  0  0  0  0  0  0  0  0  0  0
    0.3262   -0.3812    1.6494 H   0  0  0  0  0  0  0  0  0  0  0  0
   -0.9782   -1.5703    1.2688 H   0  0  0  0  0  0  0  0  0  0  0  0
    1.6728   13.6599    2.0833 H   0  0  0  0  0  0  0  0  0  0  0  0
    3.4619   13.7696    2.1557 H   0  0  0  0  0  0  0  0  0  0  0  0
    3.5835   13.6193   -0.3450 H   0  0  0  0  0  0  0  0  0  0  0  0
    2.5344   14.9910    0.1833 H   0  0  0  0  0  0  0  0  0  0  0  0
    1.7786   13.4695   -0.4252 H   0  0  0  0  0  0  0  0  0  0  0  0
    2.9022    8.3747    3.9894 H   0  0  0  0  0  0  0  0  0  0  0  0
    2.6748    6.4225    5.6943 H   0  0  0  0  0  0  0  0  0  0  0  0
  1  2  2  0
  2  3  1  0
  3  4  2  0
  4  5  1  0
  5  6  1  0
  6  7  1  0
  7  8  1  0
  8  9  1  0
  7 10  2  0
 10 11  1  0
 10 12  1  0
 12 13  1  0
  4 14  1  0
 14 15  2  0
 15 16  1  0
 16 17  1  0
 17 18  1  0
 18 19  1  0
 19 20  1  0
 20 21  1  0
 19 22  2  0
 22 23  1  0
 23 24  1  0
 22 25  1  0
 16 26  2  0
 26 27  1  0
 15 28  1  0
 28 29  2  0
 29 30  1  0
 29 31  1  0
 31 32  2  0
 32 33  1  0
 32 34  1  0
 34 35  2  0
 35 36  1  0
 36 37  2  0
 35 38  1  0
 38 39  2  0
 39 40  1  0
 40 41  2  0
 41 42  1  0
 42 43  1  0
 43 44  1  0
 44 45  1  0
 45 46  1  0
 44 47  2  0
 47 48  1  0
 47 49  1  0
 49 50  1  0
 41 51  1  0
 51 52  2  0
 52 53  1  0
 53 54  1  0
 54 55  1  0
 55 56  1  0
 56 57  1  0
 57 58  1  0
 56 59  2  0
 59 60  1  0
 60 61  1  0
 59 62  1  0
 53 63  2  0
 63 64  1  0
 52 65  1  0
 65 66  2  0
 66 67  1  0
 66 68  1  0
 68 69  2  0
 69 70  1  0
 70 71  2  0
 71 72  1  0
 72 73  1  0
 73 74  1  0
 74 75  1  0
 75 76  1  0
 74 77  2  0
 77 78  1  0
 77 79  1  0
 79 80  1  0
 71 81  1  0
 81 82  2  0
 82 83  1  0
 83 84  1  0
 84 85  1  0
 85 86  1  0
 86 87  1  0
 87 88  1  0
 86 89  2  0
 89 90  1  0
 90 91  1  0
 89 92  1  0
 83 93  2  0
 93 94  1  0
 82 95  1  0
 95 96  2  0
 96 97  1  0
 96 98  1  0
 98 99  2  0
 99100  1  0
100101  2  0
101102  1  0
102103  1  0
103104  1  0
104105  1  0
105106  1  0
104107  2  0
107108  1  0
107109  1  0
109110  1  0
101111  1  0
111112  2  0
112113  1  0
113114  1  0
114115  1  0
115116  1  0
116117  1  0
117118  1  0
116119  2  0
119120  1  0
120121  1  0
119122  1  0
113123  2  0
123124  1  0
112125  1  0
125126  2  0
126127  1  0
126128  1  0
128129  2  0
129130  1  0
130131  2  0
131132  1  0
132133  1  0
133134  1  0
134135  1  0
135136  1  0
134137  2  0
137138  1  0
137139  1  0
139140  1  0
131141  1  0
141142  2  0
142143  1  0
143144  1  0
144145  1  0
145146  1  0
146147  1  0
147148  1  0
146149  2  0
149150  1  0
150151  1  0
149152  1  0
143153  2  0
153154  1  0
142155  1  0
155156  2  0
156157  1  0
 27  1  1  0
 37 31  1  0
 64 38  1  0
 94 68  1  0
124 98  1  0
154128  1  0
 26  3  1  0
 63 40  1  0
 93 70  1  0
123100  1  0
153130  1  0
 12  5  2  0
 30 14  1  0
 49 42  2  0
 67 51  1  0
 79 72  2  0
 97 81  1  0
109102  2  0
127111  1  0
139132  2  0
157141  1  0
 23 17  2  0
 60 54  2  0
 90 84  2  0
120114  2  0
150144  2  0
  1158  1  0
  2159  1  0
  8160  1  0
  8161  1  0
  9162  1  0
  9163  1  0
  9164  1  0
 20165  1  0
 20166  1  0
 21167  1  0
 21168  1  0
 21169  1  0
 28170  1  0
 34171  1  0
 36172  1  0
 37173  1  0
 39174  1  0
 45175  1  0
 45176  1  0
 46177  1  0
 46178  1  0
 46179  1  0
 57180  1  0
 57181  1  0
 58182  1  0
 58183  1  0
 58184  1  0
 65185  1  0
 69186  1  0
 75187  1  0
 75188  1  0
 76189  1  0
 76190  1  0
 76191  1  0
 87192  1  0
 87193  1  0
 88194  1  0
 88195  1  0
 88196  1  0
 95197  1  0
 99198  1  0
105199  1  0
105200  1  0
106201  1  0
106202  1  0
106203  1  0
117204  1  0
117205  1  0
118206  1  0
118207  1  0
118208  1  0
125209  1  0
129210  1  0
135211  1  0
135212  1  0
136213  1  0
136214  1  0
136215  1  0
147216  1  0
147217  1  0
148218  1  0
148219  1  0
148220  1  0
155221  1  0
156222  1  0
M  END

