
     RDKit          3D

222247  0  0  0  0  0  0  0  0999 V2000
   -3.4599    0.9976   12.0027 C   0  0  0  0  0  0  0  0  0  0  0  0
   -2.9100    1.7902   10.9986 C   0  0  0  0  0  0  0  0  0  0  0  0
   -3.4500    1.5261    9.7301 C   0  0  0  0  0  0  0  0  0  0  0  0
   -3.0601    2.1262    8.5172 C   0  0  0  0  0  0  0  0  0  0  0  0
   -1.9745    3.1226    8.4409 C   0  0  0  0  0  0  0  0  0  0  0  0
   -2.1667    4.7131    7.9284 S   0  0  0  0  0  0  0  0  0  0  0  0
   -0.5345    5.1195    7.9821 C   0  0  0  0  0  0  0  0  0  0  0  0
    0.0209    6.4697    7.6412 C   0  0  0  0  0  0  0  0  0  0  0  0
    0.3020    7.2743    8.9032 C   0  0  0  0  0  0  0  0  0  0  0  0
    0.1876    4.0047    8.4040 C   0  0  0  0  0  0  0  0  0  0  0  0
    1.9380    3.9889    8.5701 Cl  0  0  0  0  0  0  0  0  0  0  0  0
   -0.6203    2.8820    8.6523 C   0  0  0  0  0  0  0  0  0  0  0  0
    0.0248    1.3125    9.1151 Cl  0  0  0  0  0  0  0  0  0  0  0  0
   -3.7061    1.6813    7.3547 C   0  0  0  0  0  0  0  0  0  0  0  0
   -4.6884    0.6871    7.3647 C   0  0  0  0  0  0  0  0  0  0  0  0
   -5.0919    0.0917    8.5803 C   0  0  0  0  0  0  0  0  0  0  0  0
   -6.0931   -0.9938    8.6200 C   0  0  0  0  0  0  0  0  0  0  0  0
   -5.9462   -2.4606    7.8071 S   0  0  0  0  0  0  0  0  0  0  0  0
   -7.4211   -3.0969    8.2999 C   0  0  0  0  0  0  0  0  0  0  0  0
   -7.9219   -4.4605    7.9310 C   0  0  0  0  0  0  0  0  0  0  0  0
   -7.2983   -5.5233    8.8285 C   0  0  0  0  0  0  0  0  0  0  0  0
   -8.0457   -2.1721    9.1348 C   0  0  0  0  0  0  0  0  0  0  0  0
   -7.3076   -0.9868    9.3027 C   0  0  0  0  0  0  0  0  0  0  0  0
   -7.9009    0.3854   10.2302 Cl  0  0  0  0  0  0  0  0  0  0  0  0
   -9.5989   -2.4550    9.9093 Cl  0  0  0  0  0  0  0  0  0  0  0  0
   -4.4424    0.5379    9.7467 C   0  0  0  0  0  0  0  0  0  0  0  0
   -4.6166   -0.0231   11.3233 S   0  0  0  0  0  0  0  0  0  0  0  0
   -5.1543    0.3614    6.0778 C   0  0  0  0  0  0  0  0  0  0  0  0
   -4.5067    1.0762    5.0690 C   0  0  0  0  0  0  0  0  0  0  0  0
   -3.3913    2.1260    5.7688 S   0  0  0  0  0  0  0  0  0  0  0  0
   -4.6396    0.8504    3.6226 C   0  0  0  0  0  0  0  0  0  0  0  0
   -5.3093   -0.2106    3.0130 C   0  0  0  0  0  0  0  0  0  0  0  0
   -5.0865   -0.2745    1.6262 C   0  0  0  0  0  0  0  0  0  0  0  0
   -5.5240   -1.2916    0.7486 C   0  0  0  0  0  0  0  0  0  0  0  0
   -6.2866   -2.4585    1.2250 C   0  0  0  0  0  0  0  0  0  0  0  0
   -7.8399   -2.8560    0.7197 S   0  0  0  0  0  0  0  0  0  0  0  0
   -8.0003   -4.2218    1.6880 C   0  0  0  0  0  0  0  0  0  0  0  0
   -9.2467   -5.0475    1.7910 C   0  0  0  0  0  0  0  0  0  0  0  0
  -10.2034   -4.4395    2.8076 C   0  0  0  0  0  0  0  0  0  0  0  0
   -6.8368   -4.3759    2.4396 C   0  0  0  0  0  0  0  0  0  0  0  0
   -6.6053   -5.6558    3.6238 Cl  0  0  0  0  0  0  0  0  0  0  0  0
   -5.8687   -3.3981    2.1676 C   0  0  0  0  0  0  0  0  0  0  0  0
   -4.2740   -3.3943    2.9133 Cl  0  0  0  0  0  0  0  0  0  0  0  0
   -5.1409   -1.1749   -0.6015 C   0  0  0  0  0  0  0  0  0  0  0  0
   -4.3402   -0.1273   -1.0650 C   0  0  0  0  0  0  0  0  0  0  0  0
   -3.8795    0.8680   -0.1851 C   0  0  0  0  0  0  0  0  0  0  0  0
   -2.9122    1.8916   -0.6104 C   0  0  0  0  0  0  0  0  0  0  0  0
   -1.3214    1.5764   -1.0638 S   0  0  0  0  0  0  0  0  0  0  0  0
   -0.9139    3.1710   -1.3988 C   0  0  0  0  0  0  0  0  0  0  0  0
    0.4191    3.6097   -1.9293 C   0  0  0  0  0  0  0  0  0  0  0  0
    0.5175    3.3364   -3.4239 C   0  0  0  0  0  0  0  0  0  0  0  0
   -2.0293    3.9768   -1.1743 C   0  0  0  0  0  0  0  0  0  0  0  0
   -3.1454    3.2576   -0.7206 C   0  0  0  0  0  0  0  0  0  0  0  0
   -4.6953    4.0048   -0.3540 Cl  0  0  0  0  0  0  0  0  0  0  0  0
   -2.0495    5.7163   -1.4345 Cl  0  0  0  0  0  0  0  0  0  0  0  0
   -4.2821    0.7677    1.1537 C   0  0  0  0  0  0  0  0  0  0  0  0
   -3.8022    1.7215    2.4486 S   0  0  0  0  0  0  0  0  0  0  0  0
   -3.9904   -0.2519   -2.4163 C   0  0  0  0  0  0  0  0  0  0  0  0
   -4.4676   -1.4210   -3.0046 C   0  0  0  0  0  0  0  0  0  0  0  0
   -5.3586   -2.2844   -1.8531 S   0  0  0  0  0  0  0  0  0  0  0  0
   -3.9535   -1.9693   -4.2726 C   0  0  0  0  0  0  0  0  0  0  0  0
   -4.0698   -3.2992   -4.6803 C   0  0  0  0  0  0  0  0  0  0  0  0
   -3.1031   -3.6730   -5.6337 C   0  0  0  0  0  0  0  0  0  0  0  0
   -2.8439   -4.9887   -6.0748 C   0  0  0  0  0  0  0  0  0  0  0  0
   -3.7424   -6.1065   -5.7274 C   0  0  0  0  0  0  0  0  0  0  0  0
   -3.3330   -7.4238   -4.7587 S   0  0  0  0  0  0  0  0  0  0  0  0
   -4.8436   -8.1652   -4.8166 C   0  0  0  0  0  0  0  0  0  0  0  0
   -5.2113   -9.4114   -4.0697 C   0  0  0  0  0  0  0  0  0  0  0  0
   -5.8577   -9.0662   -2.7321 C   0  0  0  0  0  0  0  0  0  0  0  0
   -5.6985   -7.3746   -5.5829 C   0  0  0  0  0  0  0  0  0  0  0  0
   -7.3907   -7.7696   -5.8726 Cl  0  0  0  0  0  0  0  0  0  0  0  0
   -5.0816   -6.2226   -6.0933 C   0  0  0  0  0  0  0  0  0  0  0  0
   -5.9138   -5.0516   -7.1088 Cl  0  0  0  0  0  0  0  0  0  0  0  0
   -1.6310   -5.1996   -6.7558 C   0  0  0  0  0  0  0  0  0  0  0  0
   -0.7461   -4.1596   -7.0554 C   0  0  0  0  0  0  0  0  0  0  0  0
   -1.0603   -2.8240   -6.7187 C   0  0  0  0  0  0  0  0  0  0  0  0
   -0.1144   -1.7128   -6.9813 C   0  0  0  0  0  0  0  0  0  0  0  0
    0.5427   -0.6987   -5.8058 S   0  0  0  0  0  0  0  0  0  0  0  0
    1.5196    0.1893   -6.8448 C   0  0  0  0  0  0  0  0  0  0  0  0
    2.3559    1.3619   -6.4319 C   0  0  0  0  0  0  0  0  0  0  0  0
    1.6363    2.6719   -6.7375 C   0  0  0  0  0  0  0  0  0  0  0  0
    1.3333   -0.2872   -8.1420 C   0  0  0  0  0  0  0  0  0  0  0  0
    0.4230   -1.3550   -8.2183 C   0  0  0  0  0  0  0  0  0  0  0  0
   -0.0277   -2.1258   -9.7354 Cl  0  0  0  0  0  0  0  0  0  0  0  0
    2.1526    0.3838   -9.5455 Cl  0  0  0  0  0  0  0  0  0  0  0  0
   -2.2391   -2.6271   -5.9793 C   0  0  0  0  0  0  0  0  0  0  0  0
   -2.6990   -1.2504   -5.1388 S   0  0  0  0  0  0  0  0  0  0  0  0
    0.5121   -4.6134   -7.4839 C   0  0  0  0  0  0  0  0  0  0  0  0
    0.6468   -6.0095   -7.5020 C   0  0  0  0  0  0  0  0  0  0  0  0
   -0.8476   -6.6627   -7.0407 S   0  0  0  0  0  0  0  0  0  0  0  0
    1.9553   -6.6763   -7.2591 C   0  0  0  0  0  0  0  0  0  0  0  0
    3.1507   -6.0174   -7.6088 C   0  0  0  0  0  0  0  0  0  0  0  0
    3.1833   -5.1510   -8.6523 F   0  0  0  0  0  0  0  0  0  0  0  0
    4.2504   -6.0745   -6.7447 C   0  0  0  0  0  0  0  0  0  0  0  0
    4.1536   -6.8034   -5.5459 C   0  0  0  0  0  0  0  0  0  0  0  0
    3.1310   -7.7595   -5.4357 C   0  0  0  0  0  0  0  0  0  0  0  0
    2.0247   -7.6912   -6.2881 C   0  0  0  0  0  0  0  0  0  0  0  0
    4.6458   -6.1739   -4.2995 C   0  0  0  0  0  0  0  0  0  0  0  0
    5.6619   -5.2112   -4.2392 C   0  0  0  0  0  0  0  0  0  0  0  0
    5.4323   -4.2140   -3.2711 C   0  0  0  0  0  0  0  0  0  0  0  0
    6.1838   -3.0366   -3.0946 C   0  0  0  0  0  0  0  0  0  0  0  0
    7.4187   -2.7812   -3.8480 C   0  0  0  0  0  0  0  0  0  0  0  0
    8.9625   -2.7804   -3.1811 S   0  0  0  0  0  0  0  0  0  0  0  0
    9.7548   -2.2642   -4.5708 C   0  0  0  0  0  0  0  0  0  0  0  0
   11.2199   -1.9554   -4.6479 C   0  0  0  0  0  0  0  0  0  0  0  0
   11.4919   -0.5262   -4.1924 C   0  0  0  0  0  0  0  0  0  0  0  0
    8.8065   -2.0470   -5.5719 C   0  0  0  0  0  0  0  0  0  0  0  0
    9.2035   -1.4249   -7.1672 Cl  0  0  0  0  0  0  0  0  0  0  0  0
    7.4946   -2.3425   -5.1657 C   0  0  0  0  0  0  0  0  0  0  0  0
    6.0841   -2.1259   -6.1957 Cl  0  0  0  0  0  0  0  0  0  0  0  0
    5.6489   -2.0547   -2.2445 C   0  0  0  0  0  0  0  0  0  0  0  0
    4.4099   -2.2010   -1.6110 C   0  0  0  0  0  0  0  0  0  0  0  0
    3.6624   -3.3864   -1.7677 C   0  0  0  0  0  0  0  0  0  0  0  0
    2.2575   -3.4807   -1.3152 C   0  0  0  0  0  0  0  0  0  0  0  0
    1.7375   -3.3105    0.2794 S   0  0  0  0  0  0  0  0  0  0  0  0
    0.0879   -3.3888   -0.0482 C   0  0  0  0  0  0  0  0  0  0  0  0
   -0.9903   -3.1230    0.9554 C   0  0  0  0  0  0  0  0  0  0  0  0
   -1.4628   -1.6739    0.8679 C   0  0  0  0  0  0  0  0  0  0  0  0
   -0.0814   -3.5358   -1.4223 C   0  0  0  0  0  0  0  0  0  0  0  0
    1.1279   -3.5728   -2.1331 C   0  0  0  0  0  0  0  0  0  0  0  0
    1.1840   -3.5998   -3.8943 Cl  0  0  0  0  0  0  0  0  0  0  0  0
   -1.6573   -3.6279   -2.1980 Cl  0  0  0  0  0  0  0  0  0  0  0  0
    4.2399   -4.3935   -2.5653 C   0  0  0  0  0  0  0  0  0  0  0  0
    3.5296   -5.8145   -3.0823 S   0  0  0  0  0  0  0  0  0  0  0  0
    3.9834   -1.0294   -0.9643 C   0  0  0  0  0  0  0  0  0  0  0  0
    4.8829    0.0234   -1.0933 C   0  0  0  0  0  0  0  0  0  0  0  0
    6.2113   -0.4874   -2.0027 S   0  0  0  0  0  0  0  0  0  0  0  0
    4.6518    1.3991   -0.6259 C   0  0  0  0  0  0  0  0  0  0  0  0
    5.4050    2.5105   -0.9949 C   0  0  0  0  0  0  0  0  0  0  0  0
    4.9003    3.7124   -0.4696 C   0  0  0  0  0  0  0  0  0  0  0  0
    5.4057    5.0026   -0.7191 C   0  0  0  0  0  0  0  0  0  0  0  0
    6.6183    5.2193   -1.5261 C   0  0  0  0  0  0  0  0  0  0  0  0
    6.6586    6.0260   -3.0019 S   0  0  0  0  0  0  0  0  0  0  0  0
    8.2967    5.7811   -3.2971 C   0  0  0  0  0  0  0  0  0  0  0  0
    9.0362    6.3017   -4.4930 C   0  0  0  0  0  0  0  0  0  0  0  0
    9.6982    7.6382   -4.1848 C   0  0  0  0  0  0  0  0  0  0  0  0
    8.8421    5.0759   -2.2250 C   0  0  0  0  0  0  0  0  0  0  0  0
   10.5355    4.6135   -2.1254 Cl  0  0  0  0  0  0  0  0  0  0  0  0
    7.8997    4.7572   -1.2342 C   0  0  0  0  0  0  0  0  0  0  0  0
    8.3074    3.8922    0.2419 Cl  0  0  0  0  0  0  0  0  0  0  0  0
    4.6886    6.0811   -0.1735 C   0  0  0  0  0  0  0  0  0  0  0  0
    3.5462    5.9090    0.6137 C   0  0  0  0  0  0  0  0  0  0  0  0
    3.0542    4.6142    0.8878 C   0  0  0  0  0  0  0  0  0  0  0  0
    1.8609    4.3929    1.7242 C   0  0  0  0  0  0  0  0  0  0  0  0
    0.3311    5.0178    1.4043 S   0  0  0  0  0  0  0  0  0  0  0  0
   -0.4091    4.4015    2.7809 C   0  0  0  0  0  0  0  0  0  0  0  0
   -1.8237    4.6873    3.1780 C   0  0  0  0  0  0  0  0  0  0  0  0
   -1.9053    5.9582    4.0134 C   0  0  0  0  0  0  0  0  0  0  0  0
    0.5467    3.7220    3.5321 C   0  0  0  0  0  0  0  0  0  0  0  0
    1.8183    3.7151    2.9380 C   0  0  0  0  0  0  0  0  0  0  0  0
    3.2344    3.0088    3.7064 Cl  0  0  0  0  0  0  0  0  0  0  0  0
    0.2072    2.9739    5.0851 Cl  0  0  0  0  0  0  0  0  0  0  0  0
    3.7548    3.5365    0.3140 C   0  0  0  0  0  0  0  0  0  0  0  0
    3.3635    1.8980    0.3478 S   0  0  0  0  0  0  0  0  0  0  0  0
    3.0169    7.1237    1.0827 C   0  0  0  0  0  0  0  0  0  0  0  0
    3.7332    8.2384    0.6549 C   0  0  0  0  0  0  0  0  0  0  0  0
    5.0305    7.7239   -0.2899 S   0  0  0  0  0  0  0  0  0  0  0  0
   -3.1810    1.0266   13.0465 H   0  0  0  0  0  0  0  0  0  0  0  0
   -2.1306    2.5163   11.1871 H   0  0  0  0  0  0  0  0  0  0  0  0
    0.9574    6.3550    7.0536 H   0  0  0  0  0  0  0  0  0  0  0  0
   -0.7092    7.0238    7.0142 H   0  0  0  0  0  0  0  0  0  0  0  0
    1.0683    6.7654    9.5264 H   0  0  0  0  0  0  0  0  0  0  0  0
   -0.6285    7.4032    9.4956 H   0  0  0  0  0  0  0  0  0  0  0  0
    0.6844    8.2793    8.6238 H   0  0  0  0  0  0  0  0  0  0  0  0
   -7.6570   -4.6722    6.8734 H   0  0  0  0  0  0  0  0  0  0  0  0
   -9.0278   -4.5049    8.0164 H   0  0  0  0  0  0  0  0  0  0  0  0
   -6.1927   -5.5246    8.7070 H   0  0  0  0  0  0  0  0  0  0  0  0
   -7.6868   -6.5248    8.5476 H   0  0  0  0  0  0  0  0  0  0  0  0
   -7.5516   -5.3241    9.8921 H   0  0  0  0  0  0  0  0  0  0  0  0
   -5.9149   -0.3789    5.8777 H   0  0  0  0  0  0  0  0  0  0  0  0
   -5.8903   -0.9396    3.5620 H   0  0  0  0  0  0  0  0  0  0  0  0
   -8.9955   -6.0855    2.0914 H   0  0  0  0  0  0  0  0  0  0  0  0
   -9.7438   -5.0901    0.7989 H   0  0  0  0  0  0  0  0  0  0  0  0
  -11.1261   -5.0563    2.8661 H   0  0  0  0  0  0  0  0  0  0  0  0
  -10.4838   -3.4075    2.5046 H   0  0  0  0  0  0  0  0  0  0  0  0
   -9.7295   -4.4103    3.8132 H   0  0  0  0  0  0  0  0  0  0  0  0
    1.2218    3.0582   -1.3972 H   0  0  0  0  0  0  0  0  0  0  0  0
    0.5707    4.6922   -1.7450 H   0  0  0  0  0  0  0  0  0  0  0  0
    1.5039    3.6782   -3.7987 H   0  0  0  0  0  0  0  0  0  0  0  0
   -0.2807    3.8815   -3.9727 H   0  0  0  0  0  0  0  0  0  0  0  0
    0.4162    2.2478   -3.6260 H   0  0  0  0  0  0  0  0  0  0  0  0
   -3.3380    0.4457   -2.9270 H   0  0  0  0  0  0  0  0  0  0  0  0
   -4.7358   -4.0063   -4.2008 H   0  0  0  0  0  0  0  0  0  0  0  0
   -4.3005  -10.0187   -3.8884 H   0  0  0  0  0  0  0  0  0  0  0  0
   -5.9116  -10.0228   -4.6767 H   0  0  0  0  0  0  0  0  0  0  0  0
   -6.7636   -8.4434   -2.8865 H   0  0  0  0  0  0  0  0  0  0  0  0
   -6.1572   -9.9989   -2.2113 H   0  0  0  0  0  0  0  0  0  0  0  0
   -5.1392   -8.5128   -2.0916 H   0  0  0  0  0  0  0  0  0  0  0  0
    3.3291    1.3392   -6.9668 H   0  0  0  0  0  0  0  0  0  0  0  0
    2.5654    1.3054   -5.3419 H   0  0  0  0  0  0  0  0  0  0  0  0
    1.4925    2.7885   -7.8325 H   0  0  0  0  0  0  0  0  0  0  0  0
    2.2413    3.5269   -6.3656 H   0  0  0  0  0  0  0  0  0  0  0  0
    0.6426    2.6908   -6.2419 H   0  0  0  0  0  0  0  0  0  0  0  0
    1.3546   -3.9421   -7.5818 H   0  0  0  0  0  0  0  0  0  0  0  0
    5.0623   -5.3752   -6.9068 H   0  0  0  0  0  0  0  0  0  0  0  0
    3.0589   -8.3790   -4.5489 H   0  0  0  0  0  0  0  0  0  0  0  0
    1.1518   -8.2780   -6.0299 H   0  0  0  0  0  0  0  0  0  0  0  0
    6.4566   -5.1487   -4.9730 H   0  0  0  0  0  0  0  0  0  0  0  0
   11.5862   -2.0919   -5.6872 H   0  0  0  0  0  0  0  0  0  0  0  0
   11.7795   -2.6612   -3.9987 H   0  0  0  0  0  0  0  0  0  0  0  0
   12.5813   -0.3212   -4.2386 H   0  0  0  0  0  0  0  0  0  0  0  0
   10.9649    0.1953   -4.8516 H   0  0  0  0  0  0  0  0  0  0  0  0
   11.1460   -0.3794   -3.1455 H   0  0  0  0  0  0  0  0  0  0  0  0
   -0.6022   -3.3215    1.9760 H   0  0  0  0  0  0  0  0  0  0  0  0
   -1.8478   -3.8066    0.7732 H   0  0  0  0  0  0  0  0  0  0  0  0
   -1.9072   -1.4736   -0.1292 H   0  0  0  0  0  0  0  0  0  0  0  0
   -0.6099   -0.9796    1.0268 H   0  0  0  0  0  0  0  0  0  0  0  0
   -2.2285   -1.4767    1.6439 H   0  0  0  0  0  0  0  0  0  0  0  0
    3.0272   -0.9221   -0.4685 H   0  0  0  0  0  0  0  0  0  0  0  0
    6.2614    2.4529   -1.6530 H   0  0  0  0  0  0  0  0  0  0  0  0
    9.8080    5.5660   -4.8065 H   0  0  0  0  0  0  0  0  0  0  0  0
    8.3260    6.4292   -5.3379 H   0  0  0  0  0  0  0  0  0  0  0  0
   10.4212    7.5280   -3.3476 H   0  0  0  0  0  0  0  0  0  0  0  0
    8.9298    8.3955   -3.9124 H   0  0  0  0  0  0  0  0  0  0  0  0
   10.2498    7.9953   -5.0816 H   0  0  0  0  0  0  0  0  0  0  0  0
   -2.4477    4.8012    2.2670 H   0  0  0  0  0  0  0  0  0  0  0  0
   -2.2279    3.8399    3.7632 H   0  0  0  0  0  0  0  0  0  0  0  0
   -2.9654    6.1626    4.2773 H   0  0  0  0  0  0  0  0  0  0  0  0
   -1.3262    5.8347    4.9514 H   0  0  0  0  0  0  0  0  0  0  0  0
   -1.5060    6.8246    3.4442 H   0  0  0  0  0  0  0  0  0  0  0  0
    2.1501    7.2078    1.7237 H   0  0  0  0  0  0  0  0  0  0  0  0
    3.4971    9.2651    0.8977 H   0  0  0  0  0  0  0  0  0  0  0  0
  1  2  2  0
  2  3  1  0
  3  4  2  0
  4  5  1  0
  5  6  1  0
  6  7  1  0
  7  8  1  0
  8  9  1  0
  7 10  2  0
 10 11  1  0
 10 12  1  0
 12 13  1  0
  4 14  1  0
 14 15  2  0
 15 16  1  0
 16 17  1  0
 17 18  1  0
 18 19  1  0
 19 20  1  0
 20 21  1  0
 19 22  2  0
 22 23  1  0
 23 24  1  0
 22 25  1  0
 16 26  2  0
 26 27  1  0
 15 28  1  0
 28 29  2  0
 29 30  1  0
 29 31  1  0
 31 32  2  0
 32 33  1  0
 33 34  2  0
 34 35  1  0
 35 36  1  0
 36 37  1  0
 37 38  1  0
 38 39  1  0
 37 40  2  0
 40 41  1  0
 40 42  1  0
 42 43  1  0
 34 44  1  0
 44 45  2  0
 45 46  1  0
 46 47  1  0
 47 48  1  0
 48 49  1  0
 49 50  1  0
 50 51  1  0
 49 52  2  0
 52 53  1  0
 53 54  1  0
 52 55  1  0
 46 56  2  0
 56 57  1  0
 45 58  1  0
 58 59  2  0
 59 60  1  0
 59 61  1  0
 61 62  2  0
 62 63  1  0
 63 64  2  0
 64 65  1  0
 65 66  1  0
 66 67  1  0
 67 68  1  0
 68 69  1  0
 67 70  2  0
 70 71  1  0
 70 72  1  0
 72 73  1  0
 64 74  1  0
 74 75  2  0
 75 76  1  0
 76 77  1  0
 77 78  1  0
 78 79  1  0
 79 80  1  0
 80 81  1  0
 79 82  2  0
 82 83  1  0
 83 84  1  0
 82 85  1  0
 76 86  2  0
 86 87  1  0
 75 88  1  0
 88 89  2  0
 89 90  1  0
 89 91  1  0
 91 92  2  0
 92 93  1  0
 92 94  1  0
 94 95  2  0
 95 96  1  0
 96 97  2  0
 95 98  1  0
 98 99  2  0
 99100  1  0
100101  2  0
101102  1  0
102103  1  0
103104  1  0
104105  1  0
105106  1  0
104107  2  0
107108  1  0
107109  1  0
109110  1  0
101111  1  0
111112  2  0
112113  1  0
113114  1  0
114115  1  0
115116  1  0
116117  1  0
117118  1  0
116119  2  0
119120  1  0
120121  1  0
119122  1  0
113123  2  0
123124  1  0
112125  1  0
125126  2  0
126127  1  0
126128  1  0
128129  2  0
129130  1  0
130131  2  0
131132  1  0
132133  1  0
133134  1  0
134135  1  0
135136  1  0
134137  2  0
137138  1  0
137139  1  0
139140  1  0
131141  1  0
141142  2  0
142143  1  0
143144  1  0
144145  1  0
145146  1  0
146147  1  0
147148  1  0
146149  2  0
149150  1  0
150151  1  0
149152  1  0
143153  2  0
153154  1  0
142155  1  0
155156  2  0
156157  1  0
 27  1  1  0
 57 31  1  0
 87 61  1  0
 97 91  1  0
124 98  1  0
154128  1  0
 26  3  1  0
 56 33  1  0
 86 63  1  0
123100  1  0
153130  1  0
 12  5  2  0
 30 14  1  0
 42 35  2  0
 60 44  1  0
 72 65  2  0
 90 74  1  0
109102  2  0
127111  1  0
139132  2  0
157141  1  0
 23 17  2  0
 53 47  2  0
 83 77  2  0
120114  2  0
150144  2  0
  1158  1  0
  2159  1  0
  8160  1  0
  8161  1  0
  9162  1  0
  9163  1  0
  9164  1  0
 20165  1  0
 20166  1  0
 21167  1  0
 21168  1  0
 21169  1  0
 28170  1  0
 32171  1  0
 38172  1  0
 38173  1  0
 39174  1  0
 39175  1  0
 39176  1  0
 50177  1  0
 50178  1  0
 51179  1  0
 51180  1  0
 51181  1  0
 58182  1  0
 62183  1  0
 68184  1  0
 68185  1  0
 69186  1  0
 69187  1  0
 69188  1  0
 80189  1  0
 80190  1  0
 81191  1  0
 81192  1  0
 81193  1  0
 88194  1  0
 94195  1  0
 96196  1  0
 97197  1  0
 99198  1  0
105199  1  0
105200  1  0
106201  1  0
106202  1  0
106203  1  0
117204  1  0
117205  1  0
118206  1  0
118207  1  0
118208  1  0
125209  1  0
129210  1  0
135211  1  0
135212  1  0
136213  1  0
136214  1  0
136215  1  0
147216  1  0
147217  1  0
148218  1  0
148219  1  0
148220  1  0
155221  1  0
156222  1  0
M  END

