
     RDKit          3D

220241  0  0  0  0  0  0  0  0999 V2000
   -0.5988   -0.5610  -10.8921 C   0  0  0  0  0  0  0  0  0  0  0  0
    0.5104   -0.1626  -10.1503 C   0  0  0  0  0  0  0  0  0  0  0  0
    0.1933    0.1894   -8.8275 C   0  0  0  0  0  0  0  0  0  0  0  0
    1.0907    0.6611   -7.8460 C   0  0  0  0  0  0  0  0  0  0  0  0
    2.5350    0.8324   -8.1089 C   0  0  0  0  0  0  0  0  0  0  0  0
    3.3419   -0.2787   -8.3913 C   0  0  0  0  0  0  0  0  0  0  0  0
    4.7175   -0.1160   -8.5861 C   0  0  0  0  0  0  0  0  0  0  0  0
    5.2947    1.1561   -8.4999 C   0  0  0  0  0  0  0  0  0  0  0  0
    7.0663    1.3538   -8.7472 S   0  0  0  0  0  0  0  0  0  0  0  0
    7.4794    1.4096   -6.9666 C   0  0  0  0  0  0  0  0  0  0  0  0
    7.4994    0.0123   -6.3585 C   0  0  0  0  0  0  0  0  0  0  0  0
    4.4880    2.2727   -8.2412 C   0  0  0  0  0  0  0  0  0  0  0  0
    5.0348    3.5123   -8.1653 F   0  0  0  0  0  0  0  0  0  0  0  0
    3.1150    2.1092   -8.0355 C   0  0  0  0  0  0  0  0  0  0  0  0
    0.5444    0.9868   -6.5930 C   0  0  0  0  0  0  0  0  0  0  0  0
   -0.8200    0.8767   -6.3088 C   0  0  0  0  0  0  0  0  0  0  0  0
   -1.7192    0.4141   -7.2929 C   0  0  0  0  0  0  0  0  0  0  0  0
   -3.1671    0.3046   -7.0296 C   0  0  0  0  0  0  0  0  0  0  0  0
   -3.9149    1.4560   -6.7379 C   0  0  0  0  0  0  0  0  0  0  0  0
   -5.2755    1.3525   -6.4406 C   0  0  0  0  0  0  0  0  0  0  0  0
   -5.9002    0.1001   -6.4358 C   0  0  0  0  0  0  0  0  0  0  0  0
   -7.6330   -0.0247   -5.9887 S   0  0  0  0  0  0  0  0  0  0  0  0
   -7.2693   -0.1841   -4.2097 C   0  0  0  0  0  0  0  0  0  0  0  0
   -8.5626   -0.1624   -3.4090 C   0  0  0  0  0  0  0  0  0  0  0  0
   -5.1626   -1.0513   -6.7470 C   0  0  0  0  0  0  0  0  0  0  0  0
   -3.7998   -0.9481   -7.0443 C   0  0  0  0  0  0  0  0  0  0  0  0
   -5.7586   -2.2709   -6.7439 F   0  0  0  0  0  0  0  0  0  0  0  0
   -1.1708    0.0693   -8.5417 C   0  0  0  0  0  0  0  0  0  0  0  0
   -1.9727   -0.4700   -9.9190 S   0  0  0  0  0  0  0  0  0  0  0  0
   -1.1376    1.2272   -4.9842 C   0  0  0  0  0  0  0  0  0  0  0  0
   -0.0198    1.6023   -4.2404 C   0  0  0  0  0  0  0  0  0  0  0  0
    1.3553    1.4946   -5.2109 S   0  0  0  0  0  0  0  0  0  0  0  0
   -0.0062    1.9402   -2.8111 C   0  0  0  0  0  0  0  0  0  0  0  0
   -1.1188    2.2080   -2.0144 C   0  0  0  0  0  0  0  0  0  0  0  0
   -0.7939    2.3772   -0.6531 C   0  0  0  0  0  0  0  0  0  0  0  0
   -1.6915    2.6188    0.4146 C   0  0  0  0  0  0  0  0  0  0  0  0
   -3.1488    2.7731    0.1949 C   0  0  0  0  0  0  0  0  0  0  0  0
   -3.8119    3.9263    0.6450 C   0  0  0  0  0  0  0  0  0  0  0  0
   -5.1701    4.1119    0.3696 C   0  0  0  0  0  0  0  0  0  0  0  0
   -5.8756    3.1540   -0.3677 C   0  0  0  0  0  0  0  0  0  0  0  0
   -7.6122    3.4180   -0.7523 S   0  0  0  0  0  0  0  0  0  0  0  0
   -7.3023    4.4828   -2.2075 C   0  0  0  0  0  0  0  0  0  0  0  0
   -6.9198    3.6590   -3.4310 C   0  0  0  0  0  0  0  0  0  0  0  0
   -5.2271    1.9860   -0.7879 C   0  0  0  0  0  0  0  0  0  0  0  0
   -5.9045    1.0391   -1.4801 F   0  0  0  0  0  0  0  0  0  0  0  0
   -3.8751    1.7927   -0.4997 C   0  0  0  0  0  0  0  0  0  0  0  0
   -1.1308    2.6958    1.7073 C   0  0  0  0  0  0  0  0  0  0  0  0
    0.2457    2.5811    1.9421 C   0  0  0  0  0  0  0  0  0  0  0  0
    1.1400    2.3862    0.8694 C   0  0  0  0  0  0  0  0  0  0  0  0
    2.6020    2.2657    1.0531 C   0  0  0  0  0  0  0  0  0  0  0  0
    3.2543    1.0633    0.7355 C   0  0  0  0  0  0  0  0  0  0  0  0
    4.6474    0.9825    0.7937 C   0  0  0  0  0  0  0  0  0  0  0  0
    5.4044    2.1075    1.1383 C   0  0  0  0  0  0  0  0  0  0  0  0
    7.1949    1.9881    1.2176 S   0  0  0  0  0  0  0  0  0  0  0  0
    7.4810    2.5528   -0.4978 C   0  0  0  0  0  0  0  0  0  0  0  0
    7.3150    1.4074   -1.4891 C   0  0  0  0  0  0  0  0  0  0  0  0
    4.7557    3.3095    1.4616 C   0  0  0  0  0  0  0  0  0  0  0  0
    3.3593    3.3840    1.4278 C   0  0  0  0  0  0  0  0  0  0  0  0
    5.4777    4.4049    1.8068 F   0  0  0  0  0  0  0  0  0  0  0  0
    0.5788    2.2694   -0.4113 C   0  0  0  0  0  0  0  0  0  0  0  0
    1.3785    1.9572   -1.8546 S   0  0  0  0  0  0  0  0  0  0  0  0
    0.5720    2.5330    3.3074 C   0  0  0  0  0  0  0  0  0  0  0  0
   -0.5480    2.5247    4.1360 C   0  0  0  0  0  0  0  0  0  0  0  0
   -1.9375    2.6942    3.1898 S   0  0  0  0  0  0  0  0  0  0  0  0
   -0.5555    2.0439    5.5252 C   0  0  0  0  0  0  0  0  0  0  0  0
    0.2953    1.1647    6.0100 O   0  0  0  0  0  0  0  0  0  0  0  0
   -0.1020    0.9523    7.2439 C   0  0  0  0  0  0  0  0  0  0  0  0
   -1.1785    1.7041    7.5392 N   0  0  0  0  0  0  0  0  0  0  0  0
   -1.4754    2.3890    6.4441 N   0  0  0  0  0  0  0  0  0  0  0  0
    0.5393    0.0308    8.2017 C   0  0  0  0  0  0  0  0  0  0  0  0
    1.3935   -0.9221    7.8104 C   0  0  0  0  0  0  0  0  0  0  0  0
    2.2256   -1.6770    8.7697 C   0  0  0  0  0  0  0  0  0  0  0  0
    3.2730   -2.3885    8.4229 O   0  0  0  0  0  0  0  0  0  0  0  0
    3.8386   -2.7563    9.5489 C   0  0  0  0  0  0  0  0  0  0  0  0
    3.1231   -2.3167   10.6033 N   0  0  0  0  0  0  0  0  0  0  0  0
    2.1028   -1.6292   10.1099 N   0  0  0  0  0  0  0  0  0  0  0  0
    5.1135   -3.5057    9.6851 C   0  0  0  0  0  0  0  0  0  0  0  0
    5.9809   -3.7888    8.6932 C   0  0  0  0  0  0  0  0  0  0  0  0
    5.7783   -3.4051    7.2898 C   0  0  0  0  0  0  0  0  0  0  0  0
    5.5263   -2.1095    6.8507 C   0  0  0  0  0  0  0  0  0  0  0  0
    4.8205   -2.0787    5.6377 C   0  0  0  0  0  0  0  0  0  0  0  0
    4.1281   -0.9706    5.0985 C   0  0  0  0  0  0  0  0  0  0  0  0
    4.2709    0.4327    5.5868 C   0  0  0  0  0  0  0  0  0  0  0  0
    4.5033    1.4578    4.6565 C   0  0  0  0  0  0  0  0  0  0  0  0
    4.5468    2.7952    5.0615 C   0  0  0  0  0  0  0  0  0  0  0  0
    4.3728    3.1271    6.4078 C   0  0  0  0  0  0  0  0  0  0  0  0
    4.3978    4.8512    6.9114 S   0  0  0  0  0  0  0  0  0  0  0  0
    6.2171    4.9607    7.0497 C   0  0  0  0  0  0  0  0  0  0  0  0
    6.7097    4.3431    8.3529 C   0  0  0  0  0  0  0  0  0  0  0  0
    4.1427    2.1151    7.3460 C   0  0  0  0  0  0  0  0  0  0  0  0
    3.9448    2.4207    8.6528 F   0  0  0  0  0  0  0  0  0  0  0  0
    4.0981    0.7794    6.9381 C   0  0  0  0  0  0  0  0  0  0  0  0
    3.2206   -1.2641    4.0635 C   0  0  0  0  0  0  0  0  0  0  0  0
    3.0992   -2.5239    3.4658 C   0  0  0  0  0  0  0  0  0  0  0  0
    3.8896   -3.5972    3.9239 C   0  0  0  0  0  0  0  0  0  0  0  0
    3.8654   -4.9315    3.2863 C   0  0  0  0  0  0  0  0  0  0  0  0
    2.6888   -5.6960    3.2423 C   0  0  0  0  0  0  0  0  0  0  0  0
    2.6721   -6.9202    2.5640 C   0  0  0  0  0  0  0  0  0  0  0  0
    3.8322   -7.3953    1.9401 C   0  0  0  0  0  0  0  0  0  0  0  0
    3.7914   -8.9447    1.0312 S   0  0  0  0  0  0  0  0  0  0  0  0
    3.4029   -8.1387   -0.5599 C   0  0  0  0  0  0  0  0  0  0  0  0
    3.4003   -9.1715   -1.6773 C   0  0  0  0  0  0  0  0  0  0  0  0
    5.0214   -6.6578    2.0255 C   0  0  0  0  0  0  0  0  0  0  0  0
    5.0366   -5.4326    2.6962 C   0  0  0  0  0  0  0  0  0  0  0  0
    6.1565   -7.1150    1.4392 F   0  0  0  0  0  0  0  0  0  0  0  0
    4.6806   -3.3512    5.0603 C   0  0  0  0  0  0  0  0  0  0  0  0
    5.3142   -4.5063    6.1048 S   0  0  0  0  0  0  0  0  0  0  0  0
    2.0392   -2.5991    2.5356 C   0  0  0  0  0  0  0  0  0  0  0  0
    1.2768   -1.4334    2.4988 C   0  0  0  0  0  0  0  0  0  0  0  0
    1.9515   -0.3151    3.5487 S   0  0  0  0  0  0  0  0  0  0  0  0
   -0.0901   -1.3241    1.9857 C   0  0  0  0  0  0  0  0  0  0  0  0
   -0.5705   -1.8064    0.7701 C   0  0  0  0  0  0  0  0  0  0  0  0
   -1.9627   -1.6347    0.6325 C   0  0  0  0  0  0  0  0  0  0  0  0
   -2.7557   -2.0253   -0.4697 C   0  0  0  0  0  0  0  0  0  0  0  0
   -2.1593   -2.5683   -1.7106 C   0  0  0  0  0  0  0  0  0  0  0  0
   -1.2025   -1.8225   -2.4192 C   0  0  0  0  0  0  0  0  0  0  0  0
   -0.6234   -2.3421   -3.5803 C   0  0  0  0  0  0  0  0  0  0  0  0
   -0.9967   -3.6089   -4.0466 C   0  0  0  0  0  0  0  0  0  0  0  0
   -0.2199   -4.2853   -5.5204 S   0  0  0  0  0  0  0  0  0  0  0  0
    1.2047   -5.0186   -4.6362 C   0  0  0  0  0  0  0  0  0  0  0  0
    0.8388   -6.3525   -3.9965 C   0  0  0  0  0  0  0  0  0  0  0  0
   -1.9819   -4.3388   -3.3653 C   0  0  0  0  0  0  0  0  0  0  0  0
   -2.3838   -5.5488   -3.8291 F   0  0  0  0  0  0  0  0  0  0  0  0
   -2.5485   -3.8265   -2.1957 C   0  0  0  0  0  0  0  0  0  0  0  0
   -4.1493   -1.8594   -0.3353 C   0  0  0  0  0  0  0  0  0  0  0  0
   -4.7389   -1.2986    0.8030 C   0  0  0  0  0  0  0  0  0  0  0  0
   -3.9445   -0.8615    1.8810 C   0  0  0  0  0  0  0  0  0  0  0  0
   -4.5361   -0.2468    3.0889 C   0  0  0  0  0  0  0  0  0  0  0  0
   -5.2006    0.9852    2.9996 C   0  0  0  0  0  0  0  0  0  0  0  0
   -5.7869    1.5537    4.1314 C   0  0  0  0  0  0  0  0  0  0  0  0
   -5.7215    0.8952    5.3650 C   0  0  0  0  0  0  0  0  0  0  0  0
   -6.5593    1.6026    6.7906 S   0  0  0  0  0  0  0  0  0  0  0  0
   -5.1436    2.6120    7.3548 C   0  0  0  0  0  0  0  0  0  0  0  0
   -4.3957    1.8944    8.4695 C   0  0  0  0  0  0  0  0  0  0  0  0
   -5.0578   -0.3368    5.4616 C   0  0  0  0  0  0  0  0  0  0  0  0
   -4.4617   -0.9011    4.3282 C   0  0  0  0  0  0  0  0  0  0  0  0
   -5.0141   -1.0040    6.6425 F   0  0  0  0  0  0  0  0  0  0  0  0
   -2.5587   -1.0611    1.7638 C   0  0  0  0  0  0  0  0  0  0  0  0
   -1.3730   -0.7299    2.9006 S   0  0  0  0  0  0  0  0  0  0  0  0
   -6.1417   -1.2585    0.7335 C   0  0  0  0  0  0  0  0  0  0  0  0
   -6.6481   -1.7734   -0.4564 C   0  0  0  0  0  0  0  0  0  0  0  0
   -5.3636   -2.2704   -1.4264 S   0  0  0  0  0  0  0  0  0  0  0  0
   -0.5820   -0.8684  -11.9300 H   0  0  0  0  0  0  0  0  0  0  0  0
    1.5066   -0.1202  -10.5689 H   0  0  0  0  0  0  0  0  0  0  0  0
    2.9097   -1.2700   -8.4449 H   0  0  0  0  0  0  0  0  0  0  0  0
    5.3338   -0.9813   -8.7958 H   0  0  0  0  0  0  0  0  0  0  0  0
    6.7598    2.0520   -6.4153 H   0  0  0  0  0  0  0  0  0  0  0  0
    8.4888    1.8602   -6.8595 H   0  0  0  0  0  0  0  0  0  0  0  0
    6.4852   -0.4370   -6.3816 H   0  0  0  0  0  0  0  0  0  0  0  0
    7.8304    0.0756   -5.3010 H   0  0  0  0  0  0  0  0  0  0  0  0
    8.2035   -0.6397   -6.9160 H   0  0  0  0  0  0  0  0  0  0  0  0
    2.5030    2.9765   -7.8174 H   0  0  0  0  0  0  0  0  0  0  0  0
   -3.4416    2.4298   -6.7309 H   0  0  0  0  0  0  0  0  0  0  0  0
   -5.8407    2.2432   -6.1982 H   0  0  0  0  0  0  0  0  0  0  0  0
   -6.6306    0.6641   -3.8869 H   0  0  0  0  0  0  0  0  0  0  0  0
   -6.7248   -1.1325   -4.0222 H   0  0  0  0  0  0  0  0  0  0  0  0
   -8.3321   -0.1519   -2.3245 H   0  0  0  0  0  0  0  0  0  0  0  0
   -9.1546    0.7432   -3.6535 H   0  0  0  0  0  0  0  0  0  0  0  0
   -9.1685   -1.0660   -3.6373 H   0  0  0  0  0  0  0  0  0  0  0  0
   -3.2305   -1.8435   -7.2665 H   0  0  0  0  0  0  0  0  0  0  0  0
   -2.1377    1.1728   -4.5702 H   0  0  0  0  0  0  0  0  0  0  0  0
   -2.1195    2.2700   -2.4145 H   0  0  0  0  0  0  0  0  0  0  0  0
   -3.2727    4.6956    1.1849 H   0  0  0  0  0  0  0  0  0  0  0  0
   -5.6669    5.0125    0.7065 H   0  0  0  0  0  0  0  0  0  0  0  0
   -8.2376    5.0381   -2.4322 H   0  0  0  0  0  0  0  0  0  0  0  0
   -6.5079    5.2267   -1.9870 H   0  0  0  0  0  0  0  0  0  0  0  0
   -7.7058    2.9055   -3.6438 H   0  0  0  0  0  0  0  0  0  0  0  0
   -6.8207    4.3254   -4.3126 H   0  0  0  0  0  0  0  0  0  0  0  0
   -5.9468    3.1503   -3.2695 H   0  0  0  0  0  0  0  0  0  0  0  0
   -3.3859    0.8865   -0.8338 H   0  0  0  0  0  0  0  0  0  0  0  0
    2.6838    0.1929    0.4335 H   0  0  0  0  0  0  0  0  0  0  0  0
    5.1378    0.0440    0.5632 H   0  0  0  0  0  0  0  0  0  0  0  0
    8.5219    2.9327   -0.5642 H   0  0  0  0  0  0  0  0  0  0  0  0
    6.7955    3.3872   -0.7587 H   0  0  0  0  0  0  0  0  0  0  0  0
    6.2618    1.0618   -1.5128 H   0  0  0  0  0  0  0  0  0  0  0  0
    7.5935    1.7523   -2.5070 H   0  0  0  0  0  0  0  0  0  0  0  0
    7.9748    0.5594   -1.2093 H   0  0  0  0  0  0  0  0  0  0  0  0
    2.8695    4.3224    1.6584 H   0  0  0  0  0  0  0  0  0  0  0  0
    1.5790    2.4157    3.6812 H   0  0  0  0  0  0  0  0  0  0  0  0
    0.3271    0.1696    9.2536 H   0  0  0  0  0  0  0  0  0  0  0  0
    1.5874   -1.0646    6.7546 H   0  0  0  0  0  0  0  0  0  0  0  0
    5.3695   -3.8478   10.6803 H   0  0  0  0  0  0  0  0  0  0  0  0
    6.8404   -4.4074    8.9220 H   0  0  0  0  0  0  0  0  0  0  0  0
    5.7198   -1.2480    7.4730 H   0  0  0  0  0  0  0  0  0  0  0  0
    4.6343    1.2197    3.6133 H   0  0  0  0  0  0  0  0  0  0  0  0
    4.7114    3.5754    4.3304 H   0  0  0  0  0  0  0  0  0  0  0  0
    6.4981    6.0347    7.0341 H   0  0  0  0  0  0  0  0  0  0  0  0
    6.7063    4.4665    6.1831 H   0  0  0  0  0  0  0  0  0  0  0  0
    6.1784    4.7958    9.2166 H   0  0  0  0  0  0  0  0  0  0  0  0
    7.7987    4.5299    8.4612 H   0  0  0  0  0  0  0  0  0  0  0  0
    6.5422    3.2476    8.3511 H   0  0  0  0  0  0  0  0  0  0  0  0
    3.9040    0.0284    7.6822 H   0  0  0  0  0  0  0  0  0  0  0  0
    1.7830   -5.3391    3.7160 H   0  0  0  0  0  0  0  0  0  0  0  0
    1.7550   -7.4917    2.5152 H   0  0  0  0  0  0  0  0  0  0  0  0
    4.1676   -7.3618   -0.7846 H   0  0  0  0  0  0  0  0  0  0  0  0
    2.4037   -7.6550   -0.5017 H   0  0  0  0  0  0  0  0  0  0  0  0
    3.1811   -8.6745   -2.6467 H   0  0  0  0  0  0  0  0  0  0  0  0
    2.6247   -9.9427   -1.4845 H   0  0  0  0  0  0  0  0  0  0  0  0
    4.3967   -9.6602   -1.7472 H   0  0  0  0  0  0  0  0  0  0  0  0
    5.9555   -4.8604    2.7377 H   0  0  0  0  0  0  0  0  0  0  0  0
    1.7492   -3.4979    2.0105 H   0  0  0  0  0  0  0  0  0  0  0  0
    0.0621   -2.2793    0.0308 H   0  0  0  0  0  0  0  0  0  0  0  0
   -0.9013   -0.8431   -2.0682 H   0  0  0  0  0  0  0  0  0  0  0  0
    0.1244   -1.7648   -4.1096 H   0  0  0  0  0  0  0  0  0  0  0  0
    1.5902   -4.3205   -3.8628 H   0  0  0  0  0  0  0  0  0  0  0  0
    2.0148   -5.1913   -5.3749 H   0  0  0  0  0  0  0  0  0  0  0  0
    0.4114   -7.0404   -4.7561 H   0  0  0  0  0  0  0  0  0  0  0  0
    1.7485   -6.8184   -3.5657 H   0  0  0  0  0  0  0  0  0  0  0  0
    0.1084   -6.2053   -3.1756 H   0  0  0  0  0  0  0  0  0  0  0  0
   -3.2843   -4.4149   -1.6628 H   0  0  0  0  0  0  0  0  0  0  0  0
   -5.2677    1.5040    2.0537 H   0  0  0  0  0  0  0  0  0  0  0  0
   -6.3064    2.4993    4.0482 H   0  0  0  0  0  0  0  0  0  0  0  0
   -5.5386    3.5719    7.7502 H   0  0  0  0  0  0  0  0  0  0  0  0
   -4.4479    2.8476    6.5214 H   0  0  0  0  0  0  0  0  0  0  0  0
   -3.5769    2.5421    8.8459 H   0  0  0  0  0  0  0  0  0  0  0  0
   -3.9596    0.9460    8.0937 H   0  0  0  0  0  0  0  0  0  0  0  0
   -5.0843    1.6739    9.3115 H   0  0  0  0  0  0  0  0  0  0  0  0
   -3.9624   -1.8589    4.4107 H   0  0  0  0  0  0  0  0  0  0  0  0
   -6.7764   -0.8789    1.5225 H   0  0  0  0  0  0  0  0  0  0  0  0
   -7.6959   -1.8487   -0.7097 H   0  0  0  0  0  0  0  0  0  0  0  0
  1  2  2  0
  2  3  1  0
  3  4  2  0
  4  5  1  0
  5  6  2  0
  6  7  1  0
  7  8  2  0
  8  9  1  0
  9 10  1  0
 10 11  1  0
  8 12  1  0
 12 13  1  0
 12 14  2  0
  4 15  1  0
 15 16  2  0
 16 17  1  0
 17 18  1  0
 18 19  2  0
 19 20  1  0
 20 21  2  0
 21 22  1  0
 22 23  1  0
 23 24  1  0
 21 25  1  0
 25 26  2  0
 25 27  1  0
 17 28  2  0
 28 29  1  0
 16 30  1  0
 30 31  2  0
 31 32  1  0
 31 33  1  0
 33 34  2  0
 34 35  1  0
 35 36  2  0
 36 37  1  0
 37 38  2  0
 38 39  1  0
 39 40  2  0
 40 41  1  0
 41 42  1  0
 42 43  1  0
 40 44  1  0
 44 45  1  0
 44 46  2  0
 36 47  1  0
 47 48  2  0
 48 49  1  0
 49 50  1  0
 50 51  2  0
 51 52  1  0
 52 53  2  0
 53 54  1  0
 54 55  1  0
 55 56  1  0
 53 57  1  0
 57 58  2  0
 57 59  1  0
 49 60  2  0
 60 61  1  0
 48 62  1  0
 62 63  2  0
 63 64  1  0
 63 65  1  0
 65 66  1  0
 66 67  1  0
 67 68  2  0
 68 69  1  0
 67 70  1  0
 70 71  2  3
 71 72  1  0
 72 73  1  0
 73 74  1  0
 74 75  2  0
 75 76  1  0
 74 77  1  0
 77 78  2  3
 78 79  1  0
 79 80  2  0
 80 81  1  0
 81 82  2  0
 82 83  1  0
 83 84  2  0
 84 85  1  0
 85 86  2  0
 86 87  1  0
 87 88  1  0
 88 89  1  0
 86 90  1  0
 90 91  1  0
 90 92  2  0
 82 93  1  0
 93 94  2  0
 94 95  1  0
 95 96  1  0
 96 97  2  0
 97 98  1  0
 98 99  2  0
 99100  1  0
100101  1  0
101102  1  0
 99103  1  0
103104  2  0
103105  1  0
 95106  2  0
106107  1  0
 94108  1  0
108109  2  0
109110  1  0
109111  1  0
111112  2  0
112113  1  0
113114  2  0
114115  1  0
115116  2  0
116117  1  0
117118  2  0
118119  1  0
119120  1  0
120121  1  0
118122  1  0
122123  1  0
122124  2  0
114125  1  0
125126  2  0
126127  1  0
127128  1  0
128129  2  0
129130  1  0
130131  2  0
131132  1  0
132133  1  0
133134  1  0
131135  1  0
135136  2  0
135137  1  0
127138  2  0
138139  1  0
126140  1  0
140141  2  0
141142  1  0
 29  1  1  0
 61 33  1  0
 69 65  2  0
 76 72  2  0
107 79  1  0
139111  1  0
 28  3  1  0
 60 35  1  0
106 81  1  0
138113  1  0
 14  5  1  0
 32 15  1  0
 46 37  1  0
 64 47  1  0
 92 83  1  0
110 93  1  0
124115  1  0
142125  1  0
 26 18  1  0
 58 50  1  0
104 96  1  0
136128  1  0
  1143  1  0
  2144  1  0
  6145  1  0
  7146  1  0
 10147  1  0
 10148  1  0
 11149  1  0
 11150  1  0
 11151  1  0
 14152  1  0
 19153  1  0
 20154  1  0
 23155  1  0
 23156  1  0
 24157  1  0
 24158  1  0
 24159  1  0
 26160  1  0
 30161  1  0
 34162  1  0
 38163  1  0
 39164  1  0
 42165  1  0
 42166  1  0
 43167  1  0
 43168  1  0
 43169  1  0
 46170  1  0
 51171  1  0
 52172  1  0
 55173  1  0
 55174  1  0
 56175  1  0
 56176  1  0
 56177  1  0
 58178  1  0
 62179  1  0
 70180  1  0
 71181  1  0
 77182  1  0
 78183  1  0
 80184  1  0
 84185  1  0
 85186  1  0
 88187  1  0
 88188  1  0
 89189  1  0
 89190  1  0
 89191  1  0
 92192  1  0
 97193  1  0
 98194  1  0
101195  1  0
101196  1  0
102197  1  0
102198  1  0
102199  1  0
104200  1  0
108201  1  0
112202  1  0
116203  1  0
117204  1  0
120205  1  0
120206  1  0
121207  1  0
121208  1  0
121209  1  0
124210  1  0
129211  1  0
130212  1  0
133213  1  0
133214  1  0
134215  1  0
134216  1  0
134217  1  0
136218  1  0
140219  1  0
141220  1  0
M  END

