
     RDKit          3D

222245  0  0  0  0  0  0  0  0999 V2000
   11.5764    0.7660    5.2359 C   0  0  0  0  0  0  0  0  0  0  0  0
   11.1480    2.0383    5.6005 C   0  0  0  0  0  0  0  0  0  0  0  0
    9.7756    2.1015    5.8907 C   0  0  0  0  0  0  0  0  0  0  0  0
    9.0477    3.2516    6.2746 C   0  0  0  0  0  0  0  0  0  0  0  0
    9.6720    4.5983    6.3297 C   0  0  0  0  0  0  0  0  0  0  0  0
   10.3007    5.1312    5.1907 C   0  0  0  0  0  0  0  0  0  0  0  0
   10.9338    6.3749    5.2529 C   0  0  0  0  0  0  0  0  0  0  0  0
   10.9182    7.1148    6.4411 C   0  0  0  0  0  0  0  0  0  0  0  0
   11.8342    8.6600    6.5508 S   0  0  0  0  0  0  0  0  0  0  0  0
   10.5277    9.6974    5.8008 C   0  0  0  0  0  0  0  0  0  0  0  0
    9.3892    9.9542    6.7821 C   0  0  0  0  0  0  0  0  0  0  0  0
   10.2659    6.6022    7.5707 C   0  0  0  0  0  0  0  0  0  0  0  0
   10.2840    7.2882    8.7424 F   0  0  0  0  0  0  0  0  0  0  0  0
    9.6430    5.3501    7.5132 C   0  0  0  0  0  0  0  0  0  0  0  0
    7.6819    3.0642    6.5654 C   0  0  0  0  0  0  0  0  0  0  0  0
    7.0462    1.8202    6.4411 C   0  0  0  0  0  0  0  0  0  0  0  0
    7.7666    0.6797    6.0330 C   0  0  0  0  0  0  0  0  0  0  0  0
    7.1250   -0.6452    5.8674 C   0  0  0  0  0  0  0  0  0  0  0  0
    6.0747   -0.8137    4.9455 C   0  0  0  0  0  0  0  0  0  0  0  0
    5.4732   -2.0646    4.7833 C   0  0  0  0  0  0  0  0  0  0  0  0
    5.9306   -3.1669    5.5175 C   0  0  0  0  0  0  0  0  0  0  0  0
    5.1463   -4.7716    5.2981 S   0  0  0  0  0  0  0  0  0  0  0  0
    6.1089   -5.2280    3.8112 C   0  0  0  0  0  0  0  0  0  0  0  0
    7.4972   -5.7355    4.1794 C   0  0  0  0  0  0  0  0  0  0  0  0
    6.9723   -3.0036    6.4409 C   0  0  0  0  0  0  0  0  0  0  0  0
    7.5677   -1.7482    6.6143 C   0  0  0  0  0  0  0  0  0  0  0  0
    7.4039   -4.0536    7.1841 F   0  0  0  0  0  0  0  0  0  0  0  0
    9.1375    0.8598    5.7776 C   0  0  0  0  0  0  0  0  0  0  0  0
   10.2633   -0.2916    5.2797 S   0  0  0  0  0  0  0  0  0  0  0  0
    5.6811    1.8707    6.7500 C   0  0  0  0  0  0  0  0  0  0  0  0
    5.2475    3.1460    7.1047 C   0  0  0  0  0  0  0  0  0  0  0  0
    6.5467    4.2186    7.0369 S   0  0  0  0  0  0  0  0  0  0  0  0
    3.8463    3.5019    7.3526 C   0  0  0  0  0  0  0  0  0  0  0  0
    2.8495    2.6882    7.0368 O   0  0  0  0  0  0  0  0  0  0  0  0
    1.7539    3.3334    7.3190 C   0  0  0  0  0  0  0  0  0  0  0  0
    0.4251    3.0323    7.1052 C   0  0  0  0  0  0  0  0  0  0  0  0
   -0.3782    4.1242    7.4635 C   0  0  0  0  0  0  0  0  0  0  0  0
    0.5868    5.4174    8.0553 S   0  0  0  0  0  0  0  0  0  0  0  0
    2.0065    4.5436    7.8316 C   0  0  0  0  0  0  0  0  0  0  0  0
    3.3706    4.7185    7.8731 C   0  0  0  0  0  0  0  0  0  0  0  0
   -1.7925    4.2041    7.0918 C   0  0  0  0  0  0  0  0  0  0  0  0
   -2.3126    3.3608    6.2070 O   0  0  0  0  0  0  0  0  0  0  0  0
   -3.5463    3.7299    6.0270 C   0  0  0  0  0  0  0  0  0  0  0  0
   -4.5243    3.2603    5.1820 C   0  0  0  0  0  0  0  0  0  0  0  0
   -5.6744    4.0514    5.2985 C   0  0  0  0  0  0  0  0  0  0  0  0
   -5.4287    5.3128    6.4451 S   0  0  0  0  0  0  0  0  0  0  0  0
   -3.8605    4.7889    6.7807 C   0  0  0  0  0  0  0  0  0  0  0  0
   -2.7450    5.1531    7.5037 C   0  0  0  0  0  0  0  0  0  0  0  0
   -6.7926    3.9102    4.3682 C   0  0  0  0  0  0  0  0  0  0  0  0
   -7.3974    2.6695    4.1675 C   0  0  0  0  0  0  0  0  0  0  0  0
   -7.7432    2.4140    2.8299 C   0  0  0  0  0  0  0  0  0  0  0  0
   -8.1280    1.1592    2.3063 C   0  0  0  0  0  0  0  0  0  0  0  0
   -8.3025   -0.0254    3.1697 C   0  0  0  0  0  0  0  0  0  0  0  0
   -7.1976   -0.5868    3.8323 C   0  0  0  0  0  0  0  0  0  0  0  0
   -7.3782   -1.6499    4.7198 C   0  0  0  0  0  0  0  0  0  0  0  0
   -8.6582   -2.1721    4.9436 C   0  0  0  0  0  0  0  0  0  0  0  0
   -8.8951   -3.4375    6.1992 S   0  0  0  0  0  0  0  0  0  0  0  0
   -8.5868   -4.8560    5.0876 C   0  0  0  0  0  0  0  0  0  0  0  0
   -7.6918   -5.8723    5.7900 C   0  0  0  0  0  0  0  0  0  0  0  0
   -9.7561   -1.6498    4.2412 C   0  0  0  0  0  0  0  0  0  0  0  0
  -11.0016   -2.1485    4.4470 F   0  0  0  0  0  0  0  0  0  0  0  0
   -9.5745   -0.5834    3.3539 C   0  0  0  0  0  0  0  0  0  0  0  0
   -8.1491    1.0430    0.9079 C   0  0  0  0  0  0  0  0  0  0  0  0
   -7.8231    2.1045    0.0542 C   0  0  0  0  0  0  0  0  0  0  0  0
   -7.4979    3.3750    0.5797 C   0  0  0  0  0  0  0  0  0  0  0  0
   -7.0276    4.4819   -0.2811 C   0  0  0  0  0  0  0  0  0  0  0  0
   -5.8412    4.3519   -1.0219 C   0  0  0  0  0  0  0  0  0  0  0  0
   -5.4258    5.3833   -1.8664 C   0  0  0  0  0  0  0  0  0  0  0  0
   -6.1678    6.5700   -1.9507 C   0  0  0  0  0  0  0  0  0  0  0  0
   -5.6593    7.8806   -3.0739 S   0  0  0  0  0  0  0  0  0  0  0  0
   -4.3696    8.5728   -1.9773 C   0  0  0  0  0  0  0  0  0  0  0  0
   -2.9894    8.3252   -2.5787 C   0  0  0  0  0  0  0  0  0  0  0  0
   -7.3306    6.7171   -1.1831 C   0  0  0  0  0  0  0  0  0  0  0  0
   -7.7563    5.6791   -0.3501 C   0  0  0  0  0  0  0  0  0  0  0  0
   -8.0724    7.8506   -1.2670 F   0  0  0  0  0  0  0  0  0  0  0  0
   -7.4684    3.4880    1.9814 C   0  0  0  0  0  0  0  0  0  0  0  0
   -6.7557    4.7130    2.8842 S   0  0  0  0  0  0  0  0  0  0  0  0
   -7.6898    1.7091   -1.2879 C   0  0  0  0  0  0  0  0  0  0  0  0
   -7.8367    0.3317   -1.4756 C   0  0  0  0  0  0  0  0  0  0  0  0
   -8.2241   -0.3757    0.0111 S   0  0  0  0  0  0  0  0  0  0  0  0
   -7.2587   -0.4243   -2.6013 C   0  0  0  0  0  0  0  0  0  0  0  0
   -6.3365    0.1033   -3.5102 C   0  0  0  0  0  0  0  0  0  0  0  0
   -5.5473   -0.8803   -4.1345 C   0  0  0  0  0  0  0  0  0  0  0  0
   -4.4190   -0.6505   -4.9539 C   0  0  0  0  0  0  0  0  0  0  0  0
   -3.9440    0.7053   -5.3317 C   0  0  0  0  0  0  0  0  0  0  0  0
   -3.6659    0.9951   -6.6757 C   0  0  0  0  0  0  0  0  0  0  0  0
   -3.0533    2.1987   -7.0298 C   0  0  0  0  0  0  0  0  0  0  0  0
   -2.7481    3.1439   -6.0451 C   0  0  0  0  0  0  0  0  0  0  0  0
   -1.9304    4.6814   -6.4986 S   0  0  0  0  0  0  0  0  0  0  0  0
   -3.4503    5.5066   -7.1010 C   0  0  0  0  0  0  0  0  0  0  0  0
   -4.3997    5.8410   -5.9548 C   0  0  0  0  0  0  0  0  0  0  0  0
   -3.0386    2.8740   -4.7033 C   0  0  0  0  0  0  0  0  0  0  0  0
   -2.7107    3.7672   -3.7369 F   0  0  0  0  0  0  0  0  0  0  0  0
   -3.6178    1.6519   -4.3427 C   0  0  0  0  0  0  0  0  0  0  0  0
   -3.6687   -1.7807   -5.3176 C   0  0  0  0  0  0  0  0  0  0  0  0
   -4.0172   -3.0824   -4.9448 C   0  0  0  0  0  0  0  0  0  0  0  0
   -5.1804   -3.3203   -4.1793 C   0  0  0  0  0  0  0  0  0  0  0  0
   -5.5776   -4.6879   -3.7799 C   0  0  0  0  0  0  0  0  0  0  0  0
   -5.9305   -5.6217   -4.7641 C   0  0  0  0  0  0  0  0  0  0  0  0
   -6.2991   -6.9206   -4.4017 C   0  0  0  0  0  0  0  0  0  0  0  0
   -6.3149   -7.2978   -3.0535 C   0  0  0  0  0  0  0  0  0  0  0  0
   -6.7534   -8.9832   -2.6109 S   0  0  0  0  0  0  0  0  0  0  0  0
   -8.4869   -8.5977   -2.1697 C   0  0  0  0  0  0  0  0  0  0  0  0
   -9.3447   -8.3731   -3.4103 C   0  0  0  0  0  0  0  0  0  0  0  0
   -5.9477   -6.3696   -2.0670 C   0  0  0  0  0  0  0  0  0  0  0  0
   -5.5877   -5.0672   -2.4283 C   0  0  0  0  0  0  0  0  0  0  0  0
   -5.9397   -6.7261   -0.7581 F   0  0  0  0  0  0  0  0  0  0  0  0
   -5.9052   -2.1858   -3.7680 C   0  0  0  0  0  0  0  0  0  0  0  0
   -7.1557   -2.1111   -2.6478 S   0  0  0  0  0  0  0  0  0  0  0  0
   -3.0367   -4.0369   -5.2826 C   0  0  0  0  0  0  0  0  0  0  0  0
   -1.9185   -3.4640   -5.8870 C   0  0  0  0  0  0  0  0  0  0  0  0
   -2.1496   -1.8041   -6.0333 S   0  0  0  0  0  0  0  0  0  0  0  0
   -0.6341   -4.1290   -6.1449 C   0  0  0  0  0  0  0  0  0  0  0  0
    0.5551   -3.4665   -6.4595 C   0  0  0  0  0  0  0  0  0  0  0  0
    1.6706   -4.3192   -6.4864 C   0  0  0  0  0  0  0  0  0  0  0  0
    3.0039   -3.9391   -6.7451 C   0  0  0  0  0  0  0  0  0  0  0  0
    3.3889   -2.5235   -6.9537 C   0  0  0  0  0  0  0  0  0  0  0  0
    3.1218   -1.5629   -5.9634 C   0  0  0  0  0  0  0  0  0  0  0  0
    3.4833   -0.2289   -6.1613 C   0  0  0  0  0  0  0  0  0  0  0  0
    4.1268    0.1577   -7.3417 C   0  0  0  0  0  0  0  0  0  0  0  0
    4.6006    1.8738   -7.5734 S   0  0  0  0  0  0  0  0  0  0  0  0
    6.2396    1.6437   -6.8041 C   0  0  0  0  0  0  0  0  0  0  0  0
    7.0030    2.9582   -6.8025 C   0  0  0  0  0  0  0  0  0  0  0  0
    4.3873   -0.7932   -8.3394 C   0  0  0  0  0  0  0  0  0  0  0  0
    5.0015   -0.4290   -9.4958 F   0  0  0  0  0  0  0  0  0  0  0  0
    4.0189   -2.1277   -8.1438 C   0  0  0  0  0  0  0  0  0  0  0  0
    3.9603   -4.9692   -6.7534 C   0  0  0  0  0  0  0  0  0  0  0  0
    3.6373   -6.3041   -6.4929 C   0  0  0  0  0  0  0  0  0  0  0  0
    2.3042   -6.6796   -6.2095 C   0  0  0  0  0  0  0  0  0  0  0  0
    1.9216   -8.0767   -5.9133 C   0  0  0  0  0  0  0  0  0  0  0  0
    2.1146   -9.0860   -6.8680 C   0  0  0  0  0  0  0  0  0  0  0  0
    1.7156  -10.3969   -6.5964 C   0  0  0  0  0  0  0  0  0  0  0  0
    1.1169  -10.7107   -5.3719 C   0  0  0  0  0  0  0  0  0  0  0  0
    0.5676  -12.3912   -5.0498 S   0  0  0  0  0  0  0  0  0  0  0  0
    2.0530  -12.8709   -4.0921 C   0  0  0  0  0  0  0  0  0  0  0  0
    3.2359  -13.1596   -5.0101 C   0  0  0  0  0  0  0  0  0  0  0  0
    0.9121   -9.7053   -4.4177 C   0  0  0  0  0  0  0  0  0  0  0  0
    1.3233   -8.3973   -4.6835 C   0  0  0  0  0  0  0  0  0  0  0  0
    0.3188   -9.9929   -3.2288 F   0  0  0  0  0  0  0  0  0  0  0  0
    1.3441   -5.6521   -6.2199 C   0  0  0  0  0  0  0  0  0  0  0  0
   -0.3116   -5.7706   -5.9262 S   0  0  0  0  0  0  0  0  0  0  0  0
    4.7584   -7.1522   -6.5045 C   0  0  0  0  0  0  0  0  0  0  0  0
    5.9472   -6.4817   -6.7735 C   0  0  0  0  0  0  0  0  0  0  0  0
    5.6218   -4.8421   -6.9888 S   0  0  0  0  0  0  0  0  0  0  0  0
   12.5899    0.4942    4.9751 H   0  0  0  0  0  0  0  0  0  0  0  0
   11.8242    2.8831    5.6561 H   0  0  0  0  0  0  0  0  0  0  0  0
   10.3328    4.5669    4.2658 H   0  0  0  0  0  0  0  0  0  0  0  0
   11.4429    6.7578    4.3765 H   0  0  0  0  0  0  0  0  0  0  0  0
   10.1402    9.2243    4.8716 H   0  0  0  0  0  0  0  0  0  0  0  0
   10.9868   10.6708    5.5231 H   0  0  0  0  0  0  0  0  0  0  0  0
    8.7916    9.0302    6.9248 H   0  0  0  0  0  0  0  0  0  0  0  0
    9.7956   10.2816    7.7628 H   0  0  0  0  0  0  0  0  0  0  0  0
    8.7240   10.7518    6.3872 H   0  0  0  0  0  0  0  0  0  0  0  0
    9.1741    4.9488    8.4050 H   0  0  0  0  0  0  0  0  0  0  0  0
    5.7253    0.0255    4.3559 H   0  0  0  0  0  0  0  0  0  0  0  0
    4.6594   -2.1779    4.0794 H   0  0  0  0  0  0  0  0  0  0  0  0
    5.5614   -6.0420    3.2858 H   0  0  0  0  0  0  0  0  0  0  0  0
    6.1902   -4.3694    3.1124 H   0  0  0  0  0  0  0  0  0  0  0  0
    7.4202   -6.6136    4.8533 H   0  0  0  0  0  0  0  0  0  0  0  0
    8.0871   -4.9404    4.6759 H   0  0  0  0  0  0  0  0  0  0  0  0
    8.0332   -6.0424    3.2591 H   0  0  0  0  0  0  0  0  0  0  0  0
    8.3672   -1.6351    7.3332 H   0  0  0  0  0  0  0  0  0  0  0  0
    5.0163    1.0180    6.7083 H   0  0  0  0  0  0  0  0  0  0  0  0
    0.0760    2.1185    6.6422 H   0  0  0  0  0  0  0  0  0  0  0  0
    3.9328    5.5958    8.1782 H   0  0  0  0  0  0  0  0  0  0  0  0
   -4.4013    2.4372    4.4893 H   0  0  0  0  0  0  0  0  0  0  0  0
   -2.6247    5.9830    8.1893 H   0  0  0  0  0  0  0  0  0  0  0  0
   -7.4060    1.9085    4.9417 H   0  0  0  0  0  0  0  0  0  0  0  0
   -6.2052   -0.1789    3.6873 H   0  0  0  0  0  0  0  0  0  0  0  0
   -6.5240   -2.0533    5.2542 H   0  0  0  0  0  0  0  0  0  0  0  0
   -9.5639   -5.3363    4.8592 H   0  0  0  0  0  0  0  0  0  0  0  0
   -8.1102   -4.5488    4.1293 H   0  0  0  0  0  0  0  0  0  0  0  0
   -7.6333   -6.7968    5.1815 H   0  0  0  0  0  0  0  0  0  0  0  0
   -6.6710   -5.4560    5.9229 H   0  0  0  0  0  0  0  0  0  0  0  0
   -8.1108   -6.1333    6.7897 H   0  0  0  0  0  0  0  0  0  0  0  0
  -10.4313   -0.1691    2.8349 H   0  0  0  0  0  0  0  0  0  0  0  0
   -5.2569    3.4436   -0.9650 H   0  0  0  0  0  0  0  0  0  0  0  0
   -4.5222    5.2655   -2.4528 H   0  0  0  0  0  0  0  0  0  0  0  0
   -4.4112    8.1474   -0.9509 H   0  0  0  0  0  0  0  0  0  0  0  0
   -4.5374    9.6692   -1.8961 H   0  0  0  0  0  0  0  0  0  0  0  0
   -2.8084    7.2340   -2.6905 H   0  0  0  0  0  0  0  0  0  0  0  0
   -2.9185    8.8119   -3.5752 H   0  0  0  0  0  0  0  0  0  0  0  0
   -2.2137    8.7576   -1.9138 H   0  0  0  0  0  0  0  0  0  0  0  0
   -8.6732    5.7941    0.2202 H   0  0  0  0  0  0  0  0  0  0  0  0
   -7.3671    2.3772   -2.0754 H   0  0  0  0  0  0  0  0  0  0  0  0
   -6.1641    1.1629   -3.6315 H   0  0  0  0  0  0  0  0  0  0  0  0
   -3.8861    0.2689   -7.4500 H   0  0  0  0  0  0  0  0  0  0  0  0
   -2.8075    2.3893   -8.0651 H   0  0  0  0  0  0  0  0  0  0  0  0
   -3.1443    6.4509   -7.6007 H   0  0  0  0  0  0  0  0  0  0  0  0
   -3.9631    4.8718   -7.8564 H   0  0  0  0  0  0  0  0  0  0  0  0
   -4.9230    4.9285   -5.6036 H   0  0  0  0  0  0  0  0  0  0  0  0
   -3.8322    6.2860   -5.1106 H   0  0  0  0  0  0  0  0  0  0  0  0
   -5.1566    6.5779   -6.2952 H   0  0  0  0  0  0  0  0  0  0  0  0
   -3.7744    1.4303   -3.2944 H   0  0  0  0  0  0  0  0  0  0  0  0
   -5.9194   -5.3448   -5.8127 H   0  0  0  0  0  0  0  0  0  0  0  0
   -6.5715   -7.6320   -5.1730 H   0  0  0  0  0  0  0  0  0  0  0  0
   -8.8927   -9.4665   -1.6058 H   0  0  0  0  0  0  0  0  0  0  0  0
   -8.5331   -7.7094   -1.5080 H   0  0  0  0  0  0  0  0  0  0  0  0
   -9.2795   -9.2529   -4.0860 H   0  0  0  0  0  0  0  0  0  0  0  0
   -9.0150   -7.4635   -3.9533 H   0  0  0  0  0  0  0  0  0  0  0  0
  -10.4050   -8.2353   -3.1068 H   0  0  0  0  0  0  0  0  0  0  0  0
   -5.2999   -4.3596   -1.6612 H   0  0  0  0  0  0  0  0  0  0  0  0
   -3.0929   -5.0862   -5.0132 H   0  0  0  0  0  0  0  0  0  0  0  0
    0.6104   -2.4008   -6.6350 H   0  0  0  0  0  0  0  0  0  0  0  0
    2.6359   -1.8510   -5.0432 H   0  0  0  0  0  0  0  0  0  0  0  0
    3.2745    0.5027   -5.3889 H   0  0  0  0  0  0  0  0  0  0  0  0
    6.8198    0.8809   -7.3716 H   0  0  0  0  0  0  0  0  0  0  0  0
    6.1157    1.2931   -5.7562 H   0  0  0  0  0  0  0  0  0  0  0  0
    6.4345    3.7330   -6.2439 H   0  0  0  0  0  0  0  0  0  0  0  0
    7.9935    2.8200   -6.3180 H   0  0  0  0  0  0  0  0  0  0  0  0
    7.1652    3.3059   -7.8453 H   0  0  0  0  0  0  0  0  0  0  0  0
    4.2227   -2.8550   -8.9230 H   0  0  0  0  0  0  0  0  0  0  0  0
    2.5650   -8.8539   -7.8255 H   0  0  0  0  0  0  0  0  0  0  0  0
    1.8633  -11.1681   -7.3429 H   0  0  0  0  0  0  0  0  0  0  0  0
    1.8069  -13.7914   -3.5216 H   0  0  0  0  0  0  0  0  0  0  0  0
    2.3192  -12.0764   -3.3630 H   0  0  0  0  0  0  0  0  0  0  0  0
    4.0748  -13.5720   -4.4100 H   0  0  0  0  0  0  0  0  0  0  0  0
    3.5802  -12.2294   -5.5090 H   0  0  0  0  0  0  0  0  0  0  0  0
    2.9427  -13.9039   -5.7833 H   0  0  0  0  0  0  0  0  0  0  0  0
    1.1714   -7.6291   -3.9318 H   0  0  0  0  0  0  0  0  0  0  0  0
    4.7198   -8.2142   -6.3029 H   0  0  0  0  0  0  0  0  0  0  0  0
    6.9280   -6.9392   -6.8254 H   0  0  0  0  0  0  0  0  0  0  0  0
  1  2  2  0
  2  3  1  0
  3  4  2  0
  4  5  1  0
  5  6  2  0
  6  7  1  0
  7  8  2  0
  8  9  1  0
  9 10  1  0
 10 11  1  0
  8 12  1  0
 12 13  1  0
 12 14  2  0
  4 15  1  0
 15 16  2  0
 16 17  1  0
 17 18  1  0
 18 19  2  0
 19 20  1  0
 20 21  2  0
 21 22  1  0
 22 23  1  0
 23 24  1  0
 21 25  1  0
 25 26  2  0
 25 27  1  0
 17 28  2  0
 28 29  1  0
 16 30  1  0
 30 31  2  0
 31 32  1  0
 31 33  1  0
 33 34  1  0
 34 35  1  0
 35 36  1  0
 36 37  2  0
 37 38  1  0
 38 39  1  0
 39 40  1  0
 37 41  1  0
 41 42  1  0
 42 43  1  0
 43 44  1  0
 44 45  2  0
 45 46  1  0
 46 47  1  0
 47 48  1  0
 45 49  1  0
 49 50  2  0
 50 51  1  0
 51 52  2  0
 52 53  1  0
 53 54  2  0
 54 55  1  0
 55 56  2  0
 56 57  1  0
 57 58  1  0
 58 59  1  0
 56 60  1  0
 60 61  1  0
 60 62  2  0
 52 63  1  0
 63 64  2  0
 64 65  1  0
 65 66  1  0
 66 67  2  0
 67 68  1  0
 68 69  2  0
 69 70  1  0
 70 71  1  0
 71 72  1  0
 69 73  1  0
 73 74  2  0
 73 75  1  0
 65 76  2  0
 76 77  1  0
 64 78  1  0
 78 79  2  0
 79 80  1  0
 79 81  1  0
 81 82  2  0
 82 83  1  0
 83 84  2  0
 84 85  1  0
 85 86  2  0
 86 87  1  0
 87 88  2  0
 88 89  1  0
 89 90  1  0
 90 91  1  0
 88 92  1  0
 92 93  1  0
 92 94  2  0
 84 95  1  0
 95 96  2  0
 96 97  1  0
 97 98  1  0
 98 99  2  0
 99100  1  0
100101  2  0
101102  1  0
102103  1  0
103104  1  0
101105  1  0
105106  2  0
105107  1  0
 97108  2  0
108109  1  0
 96110  1  0
110111  2  0
111112  1  0
111113  1  0
113114  2  0
114115  1  0
115116  2  0
116117  1  0
117118  2  0
118119  1  0
119120  2  0
120121  1  0
121122  1  0
122123  1  0
120124  1  0
124125  1  0
124126  2  0
116127  1  0
127128  2  0
128129  1  0
129130  1  0
130131  2  0
131132  1  0
132133  2  0
133134  1  0
134135  1  0
135136  1  0
133137  1  0
137138  2  0
137139  1  0
129140  2  0
140141  1  0
128142  1  0
142143  2  0
143144  1  0
 29  1  1  0
 40 33  2  0
 48 41  2  0
 77 49  1  0
109 81  1  0
141113  1  0
 28  3  1  0
 39 35  2  0
 47 43  2  0
 76 51  1  0
108 83  1  0
140115  1  0
 14  5  1  0
 32 15  1  0
 62 53  1  0
 80 63  1  0
 94 85  1  0
112 95  1  0
126117  1  0
144127  1  0
 26 18  1  0
 74 66  1  0
106 98  1  0
138130  1  0
  1145  1  0
  2146  1  0
  6147  1  0
  7148  1  0
 10149  1  0
 10150  1  0
 11151  1  0
 11152  1  0
 11153  1  0
 14154  1  0
 19155  1  0
 20156  1  0
 23157  1  0
 23158  1  0
 24159  1  0
 24160  1  0
 24161  1  0
 26162  1  0
 30163  1  0
 36164  1  0
 40165  1  0
 44166  1  0
 48167  1  0
 50168  1  0
 54169  1  0
 55170  1  0
 58171  1  0
 58172  1  0
 59173  1  0
 59174  1  0
 59175  1  0
 62176  1  0
 67177  1  0
 68178  1  0
 71179  1  0
 71180  1  0
 72181  1  0
 72182  1  0
 72183  1  0
 74184  1  0
 78185  1  0
 82186  1  0
 86187  1  0
 87188  1  0
 90189  1  0
 90190  1  0
 91191  1  0
 91192  1  0
 91193  1  0
 94194  1  0
 99195  1  0
100196  1  0
103197  1  0
103198  1  0
104199  1  0
104200  1  0
104201  1  0
106202  1  0
110203  1  0
114204  1  0
118205  1  0
119206  1  0
122207  1  0
122208  1  0
123209  1  0
123210  1  0
123211  1  0
126212  1  0
131213  1  0
132214  1  0
135215  1  0
135216  1  0
136217  1  0
136218  1  0
136219  1  0
138220  1  0
142221  1  0
143222  1  0
M  END

