
     RDKit          3D

140153  0  0  0  0  0  0  0  0999 V2000
    4.3726   -2.8257    4.8782 C   0  0  0  0  0  0  0  0  0  0  0  0
    5.8737   -3.5669    5.0517 S   0  0  0  0  0  0  0  0  0  0  0  0
    6.7490   -2.1968    5.4777 C   0  0  0  0  0  0  0  0  0  0  0  0
    5.8609   -1.1304    5.4929 C   0  0  0  0  0  0  0  0  0  0  0  0
    4.5389   -1.4683    5.1483 C   0  0  0  0  0  0  0  0  0  0  0  0
    3.5308   -0.4800    5.1314 C   0  0  0  0  0  0  0  0  0  0  0  0
    3.8739    0.8391    5.5004 C   0  0  0  0  0  0  0  0  0  0  0  0
    5.2009    1.1579    5.8497 C   0  0  0  0  0  0  0  0  0  0  0  0
    6.1983    0.1773    5.8401 C   0  0  0  0  0  0  0  0  0  0  0  0
    2.8958    1.8357    5.5056 O   0  0  0  0  0  0  0  0  0  0  0  0
    2.1344   -0.7708    4.7376 C   0  0  0  0  0  0  0  0  0  0  0  0
    1.8415   -1.3832    3.5838 C   0  0  0  0  0  0  0  0  0  0  0  0
    0.4543   -1.6020    3.1165 C   0  0  0  0  0  0  0  0  0  0  0  0
    0.1246   -2.8478    2.5602 C   0  0  0  0  0  0  0  0  0  0  0  0
    1.0371   -3.8524    2.5378 F   0  0  0  0  0  0  0  0  0  0  0  0
   -1.1481   -3.0755    2.0330 C   0  0  0  0  0  0  0  0  0  0  0  0
   -1.4574   -4.3042    1.5502 F   0  0  0  0  0  0  0  0  0  0  0  0
   -2.0997   -2.0471    1.9985 C   0  0  0  0  0  0  0  0  0  0  0  0
   -1.8001   -0.8080    2.5876 C   0  0  0  0  0  0  0  0  0  0  0  0
   -2.7205    0.1941    2.6119 N   0  0  0  0  0  0  0  0  0  0  0  0
   -2.4477    1.4083    3.1617 C   0  0  0  0  0  0  0  0  0  0  0  0
   -3.5053    2.4342    3.1920 C   0  0  0  0  0  0  0  0  0  0  0  0
   -4.6908    2.1986    3.9000 C   0  0  0  0  0  0  0  0  0  0  0  0
   -5.6815    3.1835    3.9644 C   0  0  0  0  0  0  0  0  0  0  0  0
   -5.4994    4.4169    3.3086 C   0  0  0  0  0  0  0  0  0  0  0  0
   -6.4483    5.4510    3.3625 O   0  0  0  0  0  0  0  0  0  0  0  0
   -7.5684    5.5070    4.2453 C   0  0  0  0  0  0  0  0  0  0  0  0
   -7.1147    5.7623    5.6787 C   0  0  0  0  0  0  0  0  0  0  0  0
   -4.3322    4.6289    2.5636 C   0  0  0  0  0  0  0  0  0  0  0  0
   -3.3420    3.6451    2.5044 C   0  0  0  0  0  0  0  0  0  0  0  0
   -4.1520    5.8016    1.9050 F   0  0  0  0  0  0  0  0  0  0  0  0
   -1.1740    1.6315    3.7240 C   0  0  0  0  0  0  0  0  0  0  0  0
   -0.2538    0.6347    3.6876 N   0  0  0  0  0  0  0  0  0  0  0  0
   -0.5232   -0.5819    3.1440 C   0  0  0  0  0  0  0  0  0  0  0  0
   -0.8477    2.8522    4.4749 C   0  0  0  0  0  0  0  0  0  0  0  0
   -1.0265    2.8771    5.8646 C   0  0  0  0  0  0  0  0  0  0  0  0
   -0.6718    4.0100    6.6014 C   0  0  0  0  0  0  0  0  0  0  0  0
   -0.1327    5.1394    5.9520 C   0  0  0  0  0  0  0  0  0  0  0  0
    0.2546    6.3003    6.6420 O   0  0  0  0  0  0  0  0  0  0  0  0
    0.1149    6.5177    8.0465 C   0  0  0  0  0  0  0  0  0  0  0  0
   -1.3247    6.8789    8.3950 C   0  0  0  0  0  0  0  0  0  0  0  0
    0.0411    5.1078    4.5608 C   0  0  0  0  0  0  0  0  0  0  0  0
    0.5586    6.1858    3.9180 F   0  0  0  0  0  0  0  0  0  0  0  0
   -0.3007    3.9671    3.8272 C   0  0  0  0  0  0  0  0  0  0  0  0
   -3.3685   -2.2656    1.2827 C   0  0  0  0  0  0  0  0  0  0  0  0
   -4.8224   -2.6255    2.0498 S   0  0  0  0  0  0  0  0  0  0  0  0
   -5.6947   -3.0292    0.6681 C   0  0  0  0  0  0  0  0  0  0  0  0
   -4.8396   -2.9012   -0.4199 C   0  0  0  0  0  0  0  0  0  0  0  0
   -3.5413   -2.4587   -0.0975 C   0  0  0  0  0  0  0  0  0  0  0  0
   -2.5848   -2.2564   -1.1212 C   0  0  0  0  0  0  0  0  0  0  0  0
   -2.9552   -2.5362   -2.4545 C   0  0  0  0  0  0  0  0  0  0  0  0
   -4.2420   -3.0234   -2.7491 C   0  0  0  0  0  0  0  0  0  0  0  0
   -5.1896   -3.1949   -1.7364 C   0  0  0  0  0  0  0  0  0  0  0  0
   -2.0489   -2.3127   -3.4907 O   0  0  0  0  0  0  0  0  0  0  0  0
   -1.2973   -1.5843   -0.8451 C   0  0  0  0  0  0  0  0  0  0  0  0
   -0.0788   -2.0801   -1.1014 C   0  0  0  0  0  0  0  0  0  0  0  0
    0.2315   -3.4488   -1.5850 C   0  0  0  0  0  0  0  0  0  0  0  0
   -0.7401   -4.8092   -1.3474 S   0  0  0  0  0  0  0  0  0  0  0  0
    0.3889   -5.9796   -1.7512 C   0  0  0  0  0  0  0  0  0  0  0  0
    1.5676   -5.3210   -2.0645 C   0  0  0  0  0  0  0  0  0  0  0  0
    1.4903   -3.9139   -2.0157 C   0  0  0  0  0  0  0  0  0  0  0  0
    2.6150   -3.1364   -2.3961 C   0  0  0  0  0  0  0  0  0  0  0  0
    3.8297   -3.8028   -2.6968 C   0  0  0  0  0  0  0  0  0  0  0  0
    3.8940   -5.2044   -2.6694 C   0  0  0  0  0  0  0  0  0  0  0  0
    2.7595   -5.9671   -2.3843 C   0  0  0  0  0  0  0  0  0  0  0  0
    4.9818   -3.1025   -3.0634 O   0  0  0  0  0  0  0  0  0  0  0  0
    2.4789   -1.7084   -2.7393 C   0  0  0  0  0  0  0  0  0  0  0  0
    1.7032   -1.3622   -3.7658 C   0  0  0  0  0  0  0  0  0  0  0  0
    1.6591    0.0005   -4.3039 C   0  0  0  0  0  0  0  0  0  0  0  0
    1.1188    1.3371   -3.4343 S   0  0  0  0  0  0  0  0  0  0  0  0
    0.9435    2.3808   -4.7420 C   0  0  0  0  0  0  0  0  0  0  0  0
    1.2900    1.6770   -5.8891 C   0  0  0  0  0  0  0  0  0  0  0  0
    1.7138    0.3548   -5.6581 C   0  0  0  0  0  0  0  0  0  0  0  0
    2.1401   -0.4548   -6.7378 C   0  0  0  0  0  0  0  0  0  0  0  0
    2.0597    0.0722   -8.0514 C   0  0  0  0  0  0  0  0  0  0  0  0
    1.5823    1.3766   -8.2600 C   0  0  0  0  0  0  0  0  0  0  0  0
    1.2136    2.1878   -7.1835 C   0  0  0  0  0  0  0  0  0  0  0  0
    2.4599   -0.6686   -9.1662 O   0  0  0  0  0  0  0  0  0  0  0  0
    2.8236   -1.7396   -6.4901 C   0  0  0  0  0  0  0  0  0  0  0  0
    2.2820   -2.9540   -6.6596 C   0  0  0  0  0  0  0  0  0  0  0  0
    0.8807   -3.2337   -7.0641 C   0  0  0  0  0  0  0  0  0  0  0  0
   -0.4244   -2.2004   -6.7789 S   0  0  0  0  0  0  0  0  0  0  0  0
   -1.6591   -3.2720   -7.1339 C   0  0  0  0  0  0  0  0  0  0  0  0
   -1.0683   -4.4793   -7.4688 C   0  0  0  0  0  0  0  0  0  0  0  0
    0.3450   -4.4744   -7.4700 C   0  0  0  0  0  0  0  0  0  0  0  0
    1.0477   -5.6463   -7.8577 C   0  0  0  0  0  0  0  0  0  0  0  0
    0.3009   -6.8093   -8.1756 C   0  0  0  0  0  0  0  0  0  0  0  0
   -1.1011   -6.7992   -8.0981 C   0  0  0  0  0  0  0  0  0  0  0  0
   -1.7888   -5.6334   -7.7626 C   0  0  0  0  0  0  0  0  0  0  0  0
    0.9506   -7.9686   -8.5988 O   0  0  0  0  0  0  0  0  0  0  0  0
    2.5096   -5.6291   -8.0897 C   0  0  0  0  0  0  0  0  0  0  0  0
    3.3224   -6.5682   -7.6173 C   0  0  0  0  0  0  0  0  0  0  0  0
    3.4514   -3.3330    4.6279 H   0  0  0  0  0  0  0  0  0  0  0  0
    7.8044   -2.1599    5.7124 H   0  0  0  0  0  0  0  0  0  0  0  0
    5.4589    2.1726    6.1245 H   0  0  0  0  0  0  0  0  0  0  0  0
    7.2155    0.4361    6.1111 H   0  0  0  0  0  0  0  0  0  0  0  0
    3.1128    2.7928    5.7583 H   0  0  0  0  0  0  0  0  0  0  0  0
    1.3402   -0.3917    5.3683 H   0  0  0  0  0  0  0  0  0  0  0  0
    2.6446   -1.7569    2.9598 H   0  0  0  0  0  0  0  0  0  0  0  0
   -4.8399    1.2590    4.4181 H   0  0  0  0  0  0  0  0  0  0  0  0
   -6.5812    2.9736    4.5261 H   0  0  0  0  0  0  0  0  0  0  0  0
   -8.1751    4.5782    4.1785 H   0  0  0  0  0  0  0  0  0  0  0  0
   -8.2148    6.3518    3.9286 H   0  0  0  0  0  0  0  0  0  0  0  0
   -8.0014    5.9446    6.3237 H   0  0  0  0  0  0  0  0  0  0  0  0
   -6.5654    4.8862    6.0761 H   0  0  0  0  0  0  0  0  0  0  0  0
   -6.4516    6.6514    5.7145 H   0  0  0  0  0  0  0  0  0  0  0  0
   -2.4510    3.8271    1.9176 H   0  0  0  0  0  0  0  0  0  0  0  0
   -1.4318    2.0123    6.3776 H   0  0  0  0  0  0  0  0  0  0  0  0
   -0.8119    3.9886    7.6716 H   0  0  0  0  0  0  0  0  0  0  0  0
    0.7670    7.3674    8.3328 H   0  0  0  0  0  0  0  0  0  0  0  0
    0.4555    5.6323    8.6211 H   0  0  0  0  0  0  0  0  0  0  0  0
   -1.4102    7.0587    9.4879 H   0  0  0  0  0  0  0  0  0  0  0  0
   -2.0128    6.0546    8.1147 H   0  0  0  0  0  0  0  0  0  0  0  0
   -1.6248    7.7997    7.8549 H   0  0  0  0  0  0  0  0  0  0  0  0
   -0.1387    3.9531    2.7560 H   0  0  0  0  0  0  0  0  0  0  0  0
   -6.7259   -3.3512    0.6371 H   0  0  0  0  0  0  0  0  0  0  0  0
   -4.5150   -3.2468   -3.7738 H   0  0  0  0  0  0  0  0  0  0  0  0
   -6.1831   -3.5500   -1.9795 H   0  0  0  0  0  0  0  0  0  0  0  0
   -2.2938   -2.5055   -4.4537 H   0  0  0  0  0  0  0  0  0  0  0  0
   -1.3523   -0.6043   -0.3884 H   0  0  0  0  0  0  0  0  0  0  0  0
    0.7566   -1.4453   -0.8420 H   0  0  0  0  0  0  0  0  0  0  0  0
    0.2347   -7.0507   -1.7343 H   0  0  0  0  0  0  0  0  0  0  0  0
    4.8242   -5.7041   -2.9081 H   0  0  0  0  0  0  0  0  0  0  0  0
    2.8147   -7.0488   -2.4013 H   0  0  0  0  0  0  0  0  0  0  0  0
    5.0245   -2.0943   -3.1132 H   0  0  0  0  0  0  0  0  0  0  0  0
    3.1157   -0.9740   -2.2618 H   0  0  0  0  0  0  0  0  0  0  0  0
    1.1392   -2.1282   -4.2820 H   0  0  0  0  0  0  0  0  0  0  0  0
    0.5900    3.4024   -4.6997 H   0  0  0  0  0  0  0  0  0  0  0  0
    1.5192    1.7674   -9.2685 H   0  0  0  0  0  0  0  0  0  0  0  0
    0.8674    3.1987   -7.3621 H   0  0  0  0  0  0  0  0  0  0  0  0
    2.8163   -1.6140   -9.0993 H   0  0  0  0  0  0  0  0  0  0  0  0
    3.8357   -1.6874   -6.1071 H   0  0  0  0  0  0  0  0  0  0  0  0
    2.9064   -3.7920   -6.3883 H   0  0  0  0  0  0  0  0  0  0  0  0
   -2.7192   -3.0653   -7.0695 H   0  0  0  0  0  0  0  0  0  0  0  0
   -1.6629   -7.6950   -8.3322 H   0  0  0  0  0  0  0  0  0  0  0  0
   -2.8720   -5.6349   -7.7299 H   0  0  0  0  0  0  0  0  0  0  0  0
    0.4392   -8.8108   -8.8417 H   0  0  0  0  0  0  0  0  0  0  0  0
    2.9399   -4.7931   -8.6240 H   0  0  0  0  0  0  0  0  0  0  0  0
    4.3849   -6.5047   -7.8031 H   0  0  0  0  0  0  0  0  0  0  0  0
    2.9464   -7.3932   -7.0264 H   0  0  0  0  0  0  0  0  0  0  0  0
  1  2  1  0
  2  3  1  0
  3  4  2  0
  4  5  1  0
  5  6  1  0
  6  7  2  0
  7  8  1  0
  8  9  2  0
  7 10  1  0
  6 11  1  0
 11 12  2  3
 12 13  1  0
 13 14  2  0
 14 15  1  0
 14 16  1  0
 16 17  1  0
 16 18  2  0
 18 19  1  0
 19 20  2  0
 20 21  1  0
 21 22  1  0
 22 23  2  0
 23 24  1  0
 24 25  2  0
 25 26  1  0
 26 27  1  0
 27 28  1  0
 25 29  1  0
 29 30  2  0
 29 31  1  0
 21 32  2  0
 32 33  1  0
 33 34  2  0
 32 35  1  0
 35 36  2  0
 36 37  1  0
 37 38  2  0
 38 39  1  0
 39 40  1  0
 40 41  1  0
 38 42  1  0
 42 43  1  0
 42 44  2  0
 18 45  1  0
 45 46  1  0
 46 47  1  0
 47 48  2  0
 48 49  1  0
 49 50  1  0
 50 51  2  0
 51 52  1  0
 52 53  2  0
 51 54  1  0
 50 55  1  0
 55 56  2  3
 56 57  1  0
 57 58  1  0
 58 59  1  0
 59 60  2  0
 60 61  1  0
 61 62  1  0
 62 63  2  0
 63 64  1  0
 64 65  2  0
 63 66  1  0
 62 67  1  0
 67 68  2  3
 68 69  1  0
 69 70  1  0
 70 71  1  0
 71 72  2  0
 72 73  1  0
 73 74  1  0
 74 75  2  0
 75 76  1  0
 76 77  2  0
 75 78  1  0
 74 79  1  0
 79 80  2  3
 80 81  1  0
 81 82  1  0
 82 83  1  0
 83 84  2  0
 84 85  1  0
 85 86  1  0
 86 87  2  0
 87 88  1  0
 88 89  2  0
 87 90  1  0
 86 91  1  0
 91 92  2  3
  5  1  2  0
 34 13  1  0
 44 35  1  0
 49 45  2  0
 61 57  2  0
 73 69  2  0
 85 81  2  0
  9  4  1  0
 34 19  1  0
 53 48  1  0
 65 60  1  0
 77 72  1  0
 89 84  1  0
 30 22  1  0
  1 93  1  0
  3 94  1  0
  8 95  1  0
  9 96  1  0
 10 97  1  0
 11 98  1  0
 12 99  1  0
 23100  1  0
 24101  1  0
 27102  1  0
 27103  1  0
 28104  1  0
 28105  1  0
 28106  1  0
 30107  1  0
 36108  1  0
 37109  1  0
 40110  1  0
 40111  1  0
 41112  1  0
 41113  1  0
 41114  1  0
 44115  1  0
 47116  1  0
 52117  1  0
 53118  1  0
 54119  1  0
 55120  1  0
 56121  1  0
 59122  1  0
 64123  1  0
 65124  1  0
 66125  1  0
 67126  1  0
 68127  1  0
 71128  1  0
 76129  1  0
 77130  1  0
 78131  1  0
 79132  1  0
 80133  1  0
 83134  1  0
 88135  1  0
 89136  1  0
 90137  1  0
 91138  1  0
 92139  1  0
 92140  1  0
M  END

