
     RDKit          3D

238261  0  0  0  0  0  0  0  0999 V2000
   -1.9893    2.9813   10.3463 C   0  0  0  0  0  0  0  0  0  0  0  0
   -2.5871    3.3697    9.1511 C   0  0  0  0  0  0  0  0  0  0  0  0
   -2.8139    2.3001    8.2698 C   0  0  0  0  0  0  0  0  0  0  0  0
   -3.3763    2.3781    6.9777 C   0  0  0  0  0  0  0  0  0  0  0  0
   -3.7717    3.6647    6.3601 C   0  0  0  0  0  0  0  0  0  0  0  0
   -3.1748    4.0787    5.1578 C   0  0  0  0  0  0  0  0  0  0  0  0
   -3.5719    5.2662    4.5425 C   0  0  0  0  0  0  0  0  0  0  0  0
   -4.5485    6.0732    5.1370 C   0  0  0  0  0  0  0  0  0  0  0  0
   -5.0484    7.6007    4.3372 S   0  0  0  0  0  0  0  0  0  0  0  0
   -3.8586    8.6497    5.2383 C   0  0  0  0  0  0  0  0  0  0  0  0
   -2.4795    8.6146    4.5882 C   0  0  0  0  0  0  0  0  0  0  0  0
   -5.1548    5.6661    6.3353 C   0  0  0  0  0  0  0  0  0  0  0  0
   -6.1205    6.4268    6.9097 F   0  0  0  0  0  0  0  0  0  0  0  0
   -4.7649    4.4670    6.9456 C   0  0  0  0  0  0  0  0  0  0  0  0
   -3.4712    1.1731    6.2557 C   0  0  0  0  0  0  0  0  0  0  0  0
   -2.9855   -0.0460    6.7404 C   0  0  0  0  0  0  0  0  0  0  0  0
   -2.4341   -0.1232    8.0351 C   0  0  0  0  0  0  0  0  0  0  0  0
   -1.9204   -1.3826    8.6038 C   0  0  0  0  0  0  0  0  0  0  0  0
   -0.7596   -1.9759    8.0854 C   0  0  0  0  0  0  0  0  0  0  0  0
   -0.2349   -3.1298    8.6769 C   0  0  0  0  0  0  0  0  0  0  0  0
   -0.8716   -3.7025    9.7865 C   0  0  0  0  0  0  0  0  0  0  0  0
   -0.1623   -5.1583   10.5673 S   0  0  0  0  0  0  0  0  0  0  0  0
   -1.0554   -6.3340    9.4975 C   0  0  0  0  0  0  0  0  0  0  0  0
   -0.7580   -7.7597    9.9271 C   0  0  0  0  0  0  0  0  0  0  0  0
   -2.0449   -3.1222   10.2968 C   0  0  0  0  0  0  0  0  0  0  0  0
   -2.5611   -1.9614    9.7108 C   0  0  0  0  0  0  0  0  0  0  0  0
   -2.6736   -3.6744   11.3699 F   0  0  0  0  0  0  0  0  0  0  0  0
   -2.3803    1.0702    8.7771 C   0  0  0  0  0  0  0  0  0  0  0  0
   -1.7293    1.3169   10.3092 S   0  0  0  0  0  0  0  0  0  0  0  0
   -3.1003   -1.0949    5.8095 C   0  0  0  0  0  0  0  0  0  0  0  0
   -3.7067   -0.6909    4.6172 C   0  0  0  0  0  0  0  0  0  0  0  0
   -4.0836    0.9529    4.7091 S   0  0  0  0  0  0  0  0  0  0  0  0
   -3.7764   -1.4615    3.3692 C   0  0  0  0  0  0  0  0  0  0  0  0
   -2.7980   -2.3562    2.9326 C   0  0  0  0  0  0  0  0  0  0  0  0
   -2.8750   -2.6142    1.5529 C   0  0  0  0  0  0  0  0  0  0  0  0
   -1.9083   -3.2967    0.7891 C   0  0  0  0  0  0  0  0  0  0  0  0
   -0.8120   -4.0345    1.4451 C   0  0  0  0  0  0  0  0  0  0  0  0
    0.4448   -3.4389    1.6289 C   0  0  0  0  0  0  0  0  0  0  0  0
    1.4272   -4.1000    2.3710 C   0  0  0  0  0  0  0  0  0  0  0  0
    1.1574   -5.3485    2.9531 C   0  0  0  0  0  0  0  0  0  0  0  0
    2.4227   -6.1705    3.9246 S   0  0  0  0  0  0  0  0  0  0  0  0
    2.8669   -7.3523    2.6093 C   0  0  0  0  0  0  0  0  0  0  0  0
    4.2021   -8.0068    2.9153 C   0  0  0  0  0  0  0  0  0  0  0  0
   -0.1066   -5.9294    2.7894 C   0  0  0  0  0  0  0  0  0  0  0  0
   -0.3971   -7.1181    3.3776 F   0  0  0  0  0  0  0  0  0  0  0  0
   -1.0848   -5.2731    2.0400 C   0  0  0  0  0  0  0  0  0  0  0  0
   -2.0293   -3.2178   -0.6091 C   0  0  0  0  0  0  0  0  0  0  0  0
   -3.1120   -2.5826   -1.2336 C   0  0  0  0  0  0  0  0  0  0  0  0
   -4.1282   -1.9699   -0.4691 C   0  0  0  0  0  0  0  0  0  0  0  0
   -5.3072   -1.2966   -1.0654 C   0  0  0  0  0  0  0  0  0  0  0  0
   -5.1613   -0.2420   -1.9834 C   0  0  0  0  0  0  0  0  0  0  0  0
   -6.2888    0.3802   -2.5238 C   0  0  0  0  0  0  0  0  0  0  0  0
   -7.5757   -0.0279   -2.1406 C   0  0  0  0  0  0  0  0  0  0  0  0
   -9.0197    0.7983   -2.8242 S   0  0  0  0  0  0  0  0  0  0  0  0
   -9.1809   -0.3016   -4.2760 C   0  0  0  0  0  0  0  0  0  0  0  0
   -9.9593   -1.5638   -3.9272 C   0  0  0  0  0  0  0  0  0  0  0  0
   -7.7277   -1.0463   -1.1960 C   0  0  0  0  0  0  0  0  0  0  0  0
   -6.5985   -1.6863   -0.6722 C   0  0  0  0  0  0  0  0  0  0  0  0
   -8.9611   -1.4173   -0.7658 F   0  0  0  0  0  0  0  0  0  0  0  0
   -3.9426   -1.9661    0.9262 C   0  0  0  0  0  0  0  0  0  0  0  0
   -4.7606   -1.0382    2.0637 S   0  0  0  0  0  0  0  0  0  0  0  0
   -2.9831   -2.5343   -2.6258 C   0  0  0  0  0  0  0  0  0  0  0  0
   -1.7519   -3.0049   -3.0929 C   0  0  0  0  0  0  0  0  0  0  0  0
   -0.8862   -3.6216   -1.7768 S   0  0  0  0  0  0  0  0  0  0  0  0
   -1.1425   -2.5105   -4.3463 C   0  0  0  0  0  0  0  0  0  0  0  0
    0.2338   -2.4386   -4.6113 C   0  0  0  0  0  0  0  0  0  0  0  0
    0.5725   -1.4242   -5.5292 C   0  0  0  0  0  0  0  0  0  0  0  0
    1.8748   -0.9556   -5.8274 C   0  0  0  0  0  0  0  0  0  0  0  0
    3.1053   -1.5144   -5.2278 C   0  0  0  0  0  0  0  0  0  0  0  0
    3.7093   -2.6444   -5.7939 C   0  0  0  0  0  0  0  0  0  0  0  0
    5.0358   -2.9693   -5.4702 C   0  0  0  0  0  0  0  0  0  0  0  0
    5.7689   -2.1584   -4.5914 C   0  0  0  0  0  0  0  0  0  0  0  0
    7.5467   -2.4055   -4.4347 S   0  0  0  0  0  0  0  0  0  0  0  0
    7.5603   -3.0484   -2.7247 C   0  0  0  0  0  0  0  0  0  0  0  0
    6.8333   -4.3850   -2.6113 C   0  0  0  0  0  0  0  0  0  0  0  0
    5.1470   -1.0602   -3.9844 C   0  0  0  0  0  0  0  0  0  0  0  0
    5.8429   -0.2456   -3.1491 F   0  0  0  0  0  0  0  0  0  0  0  0
    3.8180   -0.7529   -4.2867 C   0  0  0  0  0  0  0  0  0  0  0  0
    1.9646    0.2060   -6.6166 C   0  0  0  0  0  0  0  0  0  0  0  0
    0.8407    0.9070   -7.0660 C   0  0  0  0  0  0  0  0  0  0  0  0
   -0.4589    0.4334   -6.7931 C   0  0  0  0  0  0  0  0  0  0  0  0
   -1.6767    1.2081   -7.1345 C   0  0  0  0  0  0  0  0  0  0  0  0
   -1.8196    2.5277   -6.6823 C   0  0  0  0  0  0  0  0  0  0  0  0
   -2.9803    3.2513   -6.9556 C   0  0  0  0  0  0  0  0  0  0  0  0
   -4.0369    2.6488   -7.6511 C   0  0  0  0  0  0  0  0  0  0  0  0
   -5.5368    3.5925   -7.9860 S   0  0  0  0  0  0  0  0  0  0  0  0
   -6.2494    3.3463   -6.3212 C   0  0  0  0  0  0  0  0  0  0  0  0
   -6.9309    1.9873   -6.2145 C   0  0  0  0  0  0  0  0  0  0  0  0
   -3.9079    1.3243   -8.0958 C   0  0  0  0  0  0  0  0  0  0  0  0
   -2.7268    0.6101   -7.8477 C   0  0  0  0  0  0  0  0  0  0  0  0
   -4.9224    0.7282   -8.7682 F   0  0  0  0  0  0  0  0  0  0  0  0
   -0.5481   -0.7458   -6.0324 C   0  0  0  0  0  0  0  0  0  0  0  0
   -1.9229   -1.3718   -5.3178 S   0  0  0  0  0  0  0  0  0  0  0  0
    1.1690    2.1157   -7.6976 C   0  0  0  0  0  0  0  0  0  0  0  0
    2.5333    2.3636   -7.7078 C   0  0  0  0  0  0  0  0  0  0  0  0
    3.3542    1.0695   -7.0210 S   0  0  0  0  0  0  0  0  0  0  0  0
    3.1311    3.6410   -8.1012 C   0  0  0  0  0  0  0  0  0  0  0  0
    3.1786    4.1674   -9.7013 S   0  0  0  0  0  0  0  0  0  0  0  0
    3.6388    5.7538   -9.3954 C   0  0  0  0  0  0  0  0  0  0  0  0
    3.7211    5.9028   -8.0161 C   0  0  0  0  0  0  0  0  0  0  0  0
    3.4395    4.7351   -7.2735 C   0  0  0  0  0  0  0  0  0  0  0  0
    3.4494    4.7863   -5.8512 C   0  0  0  0  0  0  0  0  0  0  0  0
    3.7667    6.0103   -5.2190 C   0  0  0  0  0  0  0  0  0  0  0  0
    4.0289    7.1593   -5.9880 C   0  0  0  0  0  0  0  0  0  0  0  0
    4.0061    7.1062   -7.3837 C   0  0  0  0  0  0  0  0  0  0  0  0
    3.8258    6.0835   -3.8203 O   0  0  0  0  0  0  0  0  0  0  0  0
    3.2806    3.5788   -5.0198 C   0  0  0  0  0  0  0  0  0  0  0  0
    2.2015    3.2649   -4.2830 C   0  0  0  0  0  0  0  0  0  0  0  0
    0.9265    4.0286   -4.1853 C   0  0  0  0  0  0  0  0  0  0  0  0
    0.5122    5.3517   -5.1546 S   0  0  0  0  0  0  0  0  0  0  0  0
   -1.0776    5.5275   -4.6673 C   0  0  0  0  0  0  0  0  0  0  0  0
   -1.3332    4.5263   -3.7432 C   0  0  0  0  0  0  0  0  0  0  0  0
   -0.2282    3.6978   -3.4312 C   0  0  0  0  0  0  0  0  0  0  0  0
   -0.3973    2.6655   -2.4679 C   0  0  0  0  0  0  0  0  0  0  0  0
   -1.6828    2.4483   -1.9115 C   0  0  0  0  0  0  0  0  0  0  0  0
   -2.7677    3.2543   -2.2922 C   0  0  0  0  0  0  0  0  0  0  0  0
   -2.5943    4.3018   -3.1922 C   0  0  0  0  0  0  0  0  0  0  0  0
   -1.8732    1.4434   -0.9563 O   0  0  0  0  0  0  0  0  0  0  0  0
    0.7399    1.9239   -1.8896 C   0  0  0  0  0  0  0  0  0  0  0  0
    0.7851    0.5886   -1.9278 C   0  0  0  0  0  0  0  0  0  0  0  0
    1.8345   -0.1975   -1.2501 C   0  0  0  0  0  0  0  0  0  0  0  0
    2.0085   -1.5653   -1.4351 C   0  0  0  0  0  0  0  0  0  0  0  0
    3.0035   -2.1123   -0.6183 C   0  0  0  0  0  0  0  0  0  0  0  0
    3.3946   -3.4678   -0.5808 C   0  0  0  0  0  0  0  0  0  0  0  0
    2.7881   -4.4877   -1.4642 C   0  0  0  0  0  0  0  0  0  0  0  0
    2.9904   -4.4121   -2.8443 C   0  0  0  0  0  0  0  0  0  0  0  0
    2.4372   -5.3746   -3.6955 C   0  0  0  0  0  0  0  0  0  0  0  0
    1.6566   -6.4092   -3.1730 C   0  0  0  0  0  0  0  0  0  0  0  0
    0.9138   -7.6081   -4.2869 S   0  0  0  0  0  0  0  0  0  0  0  0
   -0.5818   -6.6123   -4.6161 C   0  0  0  0  0  0  0  0  0  0  0  0
   -1.6378   -6.8484   -3.5462 C   0  0  0  0  0  0  0  0  0  0  0  0
    1.4713   -6.5069   -1.7844 C   0  0  0  0  0  0  0  0  0  0  0  0
    0.7418   -7.5267   -1.2590 F   0  0  0  0  0  0  0  0  0  0  0  0
    2.0261   -5.5421   -0.9386 C   0  0  0  0  0  0  0  0  0  0  0  0
    4.4162   -3.8051    0.3261 C   0  0  0  0  0  0  0  0  0  0  0  0
    4.9978   -2.8726    1.1870 C   0  0  0  0  0  0  0  0  0  0  0  0
    4.5829   -1.5197    1.1716 C   0  0  0  0  0  0  0  0  0  0  0  0
    5.1356   -0.5196    2.1076 C   0  0  0  0  0  0  0  0  0  0  0  0
    6.5052   -0.2103    2.0975 C   0  0  0  0  0  0  0  0  0  0  0  0
    7.0218    0.7265    2.9993 C   0  0  0  0  0  0  0  0  0  0  0  0
    6.1755    1.3545    3.9171 C   0  0  0  0  0  0  0  0  0  0  0  0
    6.8431    2.5671    5.0670 S   0  0  0  0  0  0  0  0  0  0  0  0
    7.0821    1.3967    6.4516 C   0  0  0  0  0  0  0  0  0  0  0  0
    8.4031    0.6530    6.3147 C   0  0  0  0  0  0  0  0  0  0  0  0
    4.8077    1.0553    3.9250 C   0  0  0  0  0  0  0  0  0  0  0  0
    4.2891    0.1210    3.0237 C   0  0  0  0  0  0  0  0  0  0  0  0
    3.9760    1.6609    4.8125 F   0  0  0  0  0  0  0  0  0  0  0  0
    3.5913   -1.1726    0.2370 C   0  0  0  0  0  0  0  0  0  0  0  0
    2.8980    0.3383   -0.0480 S   0  0  0  0  0  0  0  0  0  0  0  0
    5.9765   -3.4425    2.0206 C   0  0  0  0  0  0  0  0  0  0  0  0
    6.1766   -4.7997    1.7970 C   0  0  0  0  0  0  0  0  0  0  0  0
    5.1291   -5.3044    0.5731 S   0  0  0  0  0  0  0  0  0  0  0  0
   -1.7159    3.6399   11.1563 H   0  0  0  0  0  0  0  0  0  0  0  0
   -2.8265    4.3998    8.9252 H   0  0  0  0  0  0  0  0  0  0  0  0
   -2.4034    3.4754    4.6908 H   0  0  0  0  0  0  0  0  0  0  0  0
   -3.1171    5.5634    3.6084 H   0  0  0  0  0  0  0  0  0  0  0  0
   -4.2360    9.6938    5.2155 H   0  0  0  0  0  0  0  0  0  0  0  0
   -3.7899    8.3423    6.3052 H   0  0  0  0  0  0  0  0  0  0  0  0
   -1.8068    9.3213    5.1160 H   0  0  0  0  0  0  0  0  0  0  0  0
   -2.5526    8.9215    3.5203 H   0  0  0  0  0  0  0  0  0  0  0  0
   -2.0417    7.5963    4.6476 H   0  0  0  0  0  0  0  0  0  0  0  0
   -5.2414    4.1515    7.8671 H   0  0  0  0  0  0  0  0  0  0  0  0
   -0.2574   -1.5422    7.2331 H   0  0  0  0  0  0  0  0  0  0  0  0
    0.6769   -3.5724    8.2895 H   0  0  0  0  0  0  0  0  0  0  0  0
   -0.7404   -6.1882    8.4431 H   0  0  0  0  0  0  0  0  0  0  0  0
   -2.1480   -6.1456    9.5630 H   0  0  0  0  0  0  0  0  0  0  0  0
    0.3357   -7.9492    9.8867 H   0  0  0  0  0  0  0  0  0  0  0  0
   -1.2750   -8.4702    9.2482 H   0  0  0  0  0  0  0  0  0  0  0  0
   -1.1242   -7.9197   10.9646 H   0  0  0  0  0  0  0  0  0  0  0  0
   -3.4594   -1.5160   10.1169 H   0  0  0  0  0  0  0  0  0  0  0  0
   -2.7453   -2.1043    5.9879 H   0  0  0  0  0  0  0  0  0  0  0  0
   -1.9778   -2.6845    3.5556 H   0  0  0  0  0  0  0  0  0  0  0  0
    0.6527   -2.4619    1.2068 H   0  0  0  0  0  0  0  0  0  0  0  0
    2.3928   -3.6327    2.5113 H   0  0  0  0  0  0  0  0  0  0  0  0
    2.9411   -6.8268    1.6444 H   0  0  0  0  0  0  0  0  0  0  0  0
    2.0727   -8.1244    2.5351 H   0  0  0  0  0  0  0  0  0  0  0  0
    4.4975   -8.6497    2.0577 H   0  0  0  0  0  0  0  0  0  0  0  0
    4.9820   -7.2310    3.0636 H   0  0  0  0  0  0  0  0  0  0  0  0
    4.1176   -8.6293    3.8306 H   0  0  0  0  0  0  0  0  0  0  0  0
   -2.0650   -5.7188    1.9301 H   0  0  0  0  0  0  0  0  0  0  0  0
   -4.1743    0.1011   -2.2747 H   0  0  0  0  0  0  0  0  0  0  0  0
   -6.1654    1.1854   -3.2342 H   0  0  0  0  0  0  0  0  0  0  0  0
   -8.1797   -0.5669   -4.6853 H   0  0  0  0  0  0  0  0  0  0  0  0
   -9.7327    0.2523   -5.0683 H   0  0  0  0  0  0  0  0  0  0  0  0
   -9.3856   -2.1789   -3.2019 H   0  0  0  0  0  0  0  0  0  0  0  0
  -10.1215   -2.1664   -4.8447 H   0  0  0  0  0  0  0  0  0  0  0  0
  -10.9489   -1.2968   -3.4900 H   0  0  0  0  0  0  0  0  0  0  0  0
   -6.7289   -2.4787    0.0560 H   0  0  0  0  0  0  0  0  0  0  0  0
   -3.6958   -2.0431   -3.2723 H   0  0  0  0  0  0  0  0  0  0  0  0
    0.9667   -3.0220   -4.0846 H   0  0  0  0  0  0  0  0  0  0  0  0
    3.1826   -3.2291   -6.5360 H   0  0  0  0  0  0  0  0  0  0  0  0
    5.5112   -3.8142   -5.9546 H   0  0  0  0  0  0  0  0  0  0  0  0
    7.1198   -2.2976   -2.0305 H   0  0  0  0  0  0  0  0  0  0  0  0
    8.6215   -3.1962   -2.4374 H   0  0  0  0  0  0  0  0  0  0  0  0
    5.7399   -4.2209   -2.5877 H   0  0  0  0  0  0  0  0  0  0  0  0
    7.1304   -4.8878   -1.6730 H   0  0  0  0  0  0  0  0  0  0  0  0
    7.0974   -5.0529   -3.4644 H   0  0  0  0  0  0  0  0  0  0  0  0
    3.3761    0.1430   -3.8676 H   0  0  0  0  0  0  0  0  0  0  0  0
   -1.0234    2.9932   -6.1219 H   0  0  0  0  0  0  0  0  0  0  0  0
   -3.0642    4.2720   -6.6038 H   0  0  0  0  0  0  0  0  0  0  0  0
   -5.4719    3.4482   -5.5308 H   0  0  0  0  0  0  0  0  0  0  0  0
   -7.0110    4.1394   -6.1502 H   0  0  0  0  0  0  0  0  0  0  0  0
   -7.7200    1.8961   -6.9882 H   0  0  0  0  0  0  0  0  0  0  0  0
   -6.1968    1.1694   -6.3309 H   0  0  0  0  0  0  0  0  0  0  0  0
   -7.4078    1.9009   -5.2192 H   0  0  0  0  0  0  0  0  0  0  0  0
   -2.6370   -0.4127   -8.2022 H   0  0  0  0  0  0  0  0  0  0  0  0
    0.4477    2.8183   -8.0927 H   0  0  0  0  0  0  0  0  0  0  0  0
    3.8059    6.5231  -10.1384 H   0  0  0  0  0  0  0  0  0  0  0  0
    4.2651    8.0996   -5.5024 H   0  0  0  0  0  0  0  0  0  0  0  0
    4.1995    8.0029   -7.9601 H   0  0  0  0  0  0  0  0  0  0  0  0
    4.0318    6.9519   -3.3451 H   0  0  0  0  0  0  0  0  0  0  0  0
    4.1149    2.8929   -5.0057 H   0  0  0  0  0  0  0  0  0  0  0  0
    2.2679    2.3231   -3.7761 H   0  0  0  0  0  0  0  0  0  0  0  0
   -1.7836    6.2567   -5.0347 H   0  0  0  0  0  0  0  0  0  0  0  0
   -3.7495    3.0741   -1.8697 H   0  0  0  0  0  0  0  0  0  0  0  0
   -3.4365    4.9272   -3.4610 H   0  0  0  0  0  0  0  0  0  0  0  0
   -2.7768    1.2738   -0.5326 H   0  0  0  0  0  0  0  0  0  0  0  0
    1.5318    2.4872   -1.4072 H   0  0  0  0  0  0  0  0  0  0  0  0
    0.0121    0.0462   -2.4666 H   0  0  0  0  0  0  0  0  0  0  0  0
    1.4325   -2.1435   -2.1286 H   0  0  0  0  0  0  0  0  0  0  0  0
    3.5634   -3.5971   -3.2580 H   0  0  0  0  0  0  0  0  0  0  0  0
    2.5904   -5.2933   -4.7647 H   0  0  0  0  0  0  0  0  0  0  0  0
   -0.9982   -6.9245   -5.5970 H   0  0  0  0  0  0  0  0  0  0  0  0
   -0.3328   -5.5315   -4.6776 H   0  0  0  0  0  0  0  0  0  0  0  0
   -2.5454   -6.2548   -3.7812 H   0  0  0  0  0  0  0  0  0  0  0  0
   -1.9103   -7.9228   -3.5068 H   0  0  0  0  0  0  0  0  0  0  0  0
   -1.2641   -6.5332   -2.5513 H   0  0  0  0  0  0  0  0  0  0  0  0
    1.8327   -5.5949    0.1201 H   0  0  0  0  0  0  0  0  0  0  0  0
    7.1718   -0.6932    1.3909 H   0  0  0  0  0  0  0  0  0  0  0  0
    8.0794    0.9597    2.9839 H   0  0  0  0  0  0  0  0  0  0  0  0
    6.2382    0.6753    6.5106 H   0  0  0  0  0  0  0  0  0  0  0  0
    7.0998    1.9761    7.3984 H   0  0  0  0  0  0  0  0  0  0  0  0
    9.2440    1.3718    6.2103 H   0  0  0  0  0  0  0  0  0  0  0  0
    8.3779   -0.0161    5.4304 H   0  0  0  0  0  0  0  0  0  0  0  0
    8.5707    0.0334    7.2176 H   0  0  0  0  0  0  0  0  0  0  0  0
    3.2329   -0.1194    3.0485 H   0  0  0  0  0  0  0  0  0  0  0  0
    6.5262   -2.8950    2.7762 H   0  0  0  0  0  0  0  0  0  0  0  0
    6.8766   -5.4286    2.3275 H   0  0  0  0  0  0  0  0  0  0  0  0
  1  2  2  0
  2  3  1  0
  3  4  2  0
  4  5  1  0
  5  6  2  0
  6  7  1  0
  7  8  2  0
  8  9  1  0
  9 10  1  0
 10 11  1  0
  8 12  1  0
 12 13  1  0
 12 14  2  0
  4 15  1  0
 15 16  2  0
 16 17  1  0
 17 18  1  0
 18 19  2  0
 19 20  1  0
 20 21  2  0
 21 22  1  0
 22 23  1  0
 23 24  1  0
 21 25  1  0
 25 26  2  0
 25 27  1  0
 17 28  2  0
 28 29  1  0
 16 30  1  0
 30 31  2  0
 31 32  1  0
 31 33  1  0
 33 34  2  0
 34 35  1  0
 35 36  2  0
 36 37  1  0
 37 38  2  0
 38 39  1  0
 39 40  2  0
 40 41  1  0
 41 42  1  0
 42 43  1  0
 40 44  1  0
 44 45  1  0
 44 46  2  0
 36 47  1  0
 47 48  2  0
 48 49  1  0
 49 50  1  0
 50 51  2  0
 51 52  1  0
 52 53  2  0
 53 54  1  0
 54 55  1  0
 55 56  1  0
 53 57  1  0
 57 58  2  0
 57 59  1  0
 49 60  2  0
 60 61  1  0
 48 62  1  0
 62 63  2  0
 63 64  1  0
 63 65  1  0
 65 66  2  0
 66 67  1  0
 67 68  2  0
 68 69  1  0
 69 70  2  0
 70 71  1  0
 71 72  2  0
 72 73  1  0
 73 74  1  0
 74 75  1  0
 72 76  1  0
 76 77  1  0
 76 78  2  0
 68 79  1  0
 79 80  2  0
 80 81  1  0
 81 82  1  0
 82 83  2  0
 83 84  1  0
 84 85  2  0
 85 86  1  0
 86 87  1  0
 87 88  1  0
 85 89  1  0
 89 90  2  0
 89 91  1  0
 81 92  2  0
 92 93  1  0
 80 94  1  0
 94 95  2  0
 95 96  1  0
 95 97  1  0
 97 98  1  0
 98 99  1  0
 99100  2  0
100101  1  0
101102  1  0
102103  2  0
103104  1  0
104105  2  0
103106  1  0
102107  1  0
107108  2  3
108109  1  0
109110  1  0
110111  1  0
111112  2  0
112113  1  0
113114  1  0
114115  2  0
115116  1  0
116117  2  0
115118  1  0
114119  1  0
119120  2  3
120121  1  0
121122  2  0
122123  1  0
123124  2  0
124125  1  0
125126  2  0
126127  1  0
127128  2  0
128129  1  0
129130  1  0
130131  1  0
128132  1  0
132133  1  0
132134  2  0
124135  1  0
135136  2  0
136137  1  0
137138  1  0
138139  2  0
139140  1  0
140141  2  0
141142  1  0
142143  1  0
143144  1  0
141145  1  0
145146  2  0
145147  1  0
137148  2  0
148149  1  0
136150  1  0
150151  2  0
151152  1  0
 29  1  1  0
 61 33  1  0
 93 65  1  0
101 97  2  0
113109  2  0
149121  1  0
 28  3  1  0
 60 35  1  0
 92 67  1  0
105100  1  0
117112  1  0
148123  1  0
 14  5  1  0
 32 15  1  0
 46 37  1  0
 64 47  1  0
 78 69  1  0
 96 79  1  0
134125  1  0
152135  1  0
 26 18  1  0
 58 50  1  0
 90 82  1  0
146138  1  0
  1153  1  0
  2154  1  0
  6155  1  0
  7156  1  0
 10157  1  0
 10158  1  0
 11159  1  0
 11160  1  0
 11161  1  0
 14162  1  0
 19163  1  0
 20164  1  0
 23165  1  0
 23166  1  0
 24167  1  0
 24168  1  0
 24169  1  0
 26170  1  0
 30171  1  0
 34172  1  0
 38173  1  0
 39174  1  0
 42175  1  0
 42176  1  0
 43177  1  0
 43178  1  0
 43179  1  0
 46180  1  0
 51181  1  0
 52182  1  0
 55183  1  0
 55184  1  0
 56185  1  0
 56186  1  0
 56187  1  0
 58188  1  0
 62189  1  0
 66190  1  0
 70191  1  0
 71192  1  0
 74193  1  0
 74194  1  0
 75195  1  0
 75196  1  0
 75197  1  0
 78198  1  0
 83199  1  0
 84200  1  0
 87201  1  0
 87202  1  0
 88203  1  0
 88204  1  0
 88205  1  0
 90206  1  0
 94207  1  0
 99208  1  0
104209  1  0
105210  1  0
106211  1  0
107212  1  0
108213  1  0
111214  1  0
116215  1  0
117216  1  0
118217  1  0
119218  1  0
120219  1  0
122220  1  0
126221  1  0
127222  1  0
130223  1  0
130224  1  0
131225  1  0
131226  1  0
131227  1  0
134228  1  0
139229  1  0
140230  1  0
143231  1  0
143232  1  0
144233  1  0
144234  1  0
144235  1  0
146236  1  0
150237  1  0
151238  1  0
M  END

