
     RDKit          3D

233256  0  0  0  0  0  0  0  0999 V2000
   -2.5354   -4.2582   12.9922 C   0  0  0  0  0  0  0  0  0  0  0  0
   -2.2793   -2.8961   12.8817 C   0  0  0  0  0  0  0  0  0  0  0  0
   -2.5984   -2.3558   11.6287 C   0  0  0  0  0  0  0  0  0  0  0  0
   -2.5101   -0.9246   11.3490 C   0  0  0  0  0  0  0  0  0  0  0  0
   -3.5634   -0.2631   11.1532 O   0  0  0  0  0  0  0  0  0  0  0  0
   -1.2574   -0.3003   11.3279 O   0  0  0  0  0  0  0  0  0  0  0  0
   -1.0698    0.9890   10.7508 C   0  0  0  0  0  0  0  0  0  0  0  0
   -3.1161   -3.3046   10.7357 C   0  0  0  0  0  0  0  0  0  0  0  0
   -3.1664   -4.7893   11.5237 S   0  0  0  0  0  0  0  0  0  0  0  0
   -3.5223   -3.0830    9.3374 C   0  0  0  0  0  0  0  0  0  0  0  0
   -4.3515   -3.9199    8.5889 C   0  0  0  0  0  0  0  0  0  0  0  0
   -4.6147   -3.4216    7.2970 C   0  0  0  0  0  0  0  0  0  0  0  0
   -5.4594   -4.0033    6.3265 C   0  0  0  0  0  0  0  0  0  0  0  0
   -6.2818   -5.1919    6.6308 C   0  0  0  0  0  0  0  0  0  0  0  0
   -7.1738   -5.2772    7.6880 C   0  0  0  0  0  0  0  0  0  0  0  0
   -7.8012   -6.5243    7.7870 C   0  0  0  0  0  0  0  0  0  0  0  0
   -7.4115   -7.4168    6.7980 C   0  0  0  0  0  0  0  0  0  0  0  0
   -7.8672   -8.8221    6.7621 C   0  0  0  0  0  0  0  0  0  0  0  0
   -7.8115   -9.6385    5.7054 C   0  0  0  0  0  0  0  0  0  0  0  0
   -7.3733   -9.2316    4.3732 C   0  0  0  0  0  0  0  0  0  0  0  0
   -8.1724   -8.6205    3.4091 C   0  0  0  0  0  0  0  0  0  0  0  0
   -7.5168   -8.4664    2.1771 C   0  0  0  0  0  0  0  0  0  0  0  0
   -6.2102   -8.9387    2.1846 C   0  0  0  0  0  0  0  0  0  0  0  0
   -5.2827   -8.9966    1.0153 C   0  0  0  0  0  0  0  0  0  0  0  0
   -5.1303   -7.6307    0.3540 C   0  0  0  0  0  0  0  0  0  0  0  0
   -5.8801   -9.6016    3.7003 S   0  0  0  0  0  0  0  0  0  0  0  0
   -6.2696   -6.6578    5.8031 S   0  0  0  0  0  0  0  0  0  0  0  0
   -5.5925   -3.3210    5.1072 C   0  0  0  0  0  0  0  0  0  0  0  0
   -4.9563   -2.0950    4.8664 C   0  0  0  0  0  0  0  0  0  0  0  0
   -4.1186   -1.5147    5.8338 C   0  0  0  0  0  0  0  0  0  0  0  0
   -3.4883   -0.1963    5.6493 C   0  0  0  0  0  0  0  0  0  0  0  0
   -4.1653    0.9990    5.4279 C   0  0  0  0  0  0  0  0  0  0  0  0
   -3.3192    2.1068    5.3022 C   0  0  0  0  0  0  0  0  0  0  0  0
   -1.9691    1.7888    5.4258 C   0  0  0  0  0  0  0  0  0  0  0  0
   -0.8887    2.7834    5.2367 C   0  0  0  0  0  0  0  0  0  0  0  0
    0.4097    2.6091    5.5139 C   0  0  0  0  0  0  0  0  0  0  0  0
    0.9761    1.4343    6.1717 C   0  0  0  0  0  0  0  0  0  0  0  0
    1.1832    1.3121    7.5353 C   0  0  0  0  0  0  0  0  0  0  0  0
    1.9654    0.1971    7.8843 C   0  0  0  0  0  0  0  0  0  0  0  0
    2.3949   -0.5337    6.7768 C   0  0  0  0  0  0  0  0  0  0  0  0
    3.2402   -1.7777    6.8462 C   0  0  0  0  0  0  0  0  0  0  0  0
    4.2463   -1.8503    5.6966 C   0  0  0  0  0  0  0  0  0  0  0  0
    1.7920    0.1890    5.3784 S   0  0  0  0  0  0  0  0  0  0  0  0
   -1.8366    0.1267    5.6748 S   0  0  0  0  0  0  0  0  0  0  0  0
   -3.9592   -2.2197    7.0334 C   0  0  0  0  0  0  0  0  0  0  0  0
   -3.0822   -1.7606    8.3893 S   0  0  0  0  0  0  0  0  0  0  0  0
   -5.2474   -1.5636    3.6017 C   0  0  0  0  0  0  0  0  0  0  0  0
   -6.1039   -2.3638    2.8460 C   0  0  0  0  0  0  0  0  0  0  0  0
   -6.5096   -3.7346    3.7527 S   0  0  0  0  0  0  0  0  0  0  0  0
   -6.4253   -2.1103    1.4318 C   0  0  0  0  0  0  0  0  0  0  0  0
   -6.9472   -3.0168    0.5189 C   0  0  0  0  0  0  0  0  0  0  0  0
   -6.7999   -2.6073   -0.8210 C   0  0  0  0  0  0  0  0  0  0  0  0
   -7.2461   -3.4212   -1.9609 C   0  0  0  0  0  0  0  0  0  0  0  0
   -7.4843   -4.6481   -1.8121 O   0  0  0  0  0  0  0  0  0  0  0  0
   -7.4529   -2.8068   -3.1997 O   0  0  0  0  0  0  0  0  0  0  0  0
   -8.0905   -3.4611   -4.2879 C   0  0  0  0  0  0  0  0  0  0  0  0
   -6.1485   -1.3769   -0.9717 C   0  0  0  0  0  0  0  0  0  0  0  0
   -5.8110   -0.8105    0.5678 S   0  0  0  0  0  0  0  0  0  0  0  0
   -5.1950   -1.0947   -2.0475 C   0  0  0  0  0  0  0  0  0  0  0  0
   -3.8414   -1.3513   -1.8733 C   0  0  0  0  0  0  0  0  0  0  0  0
   -3.0232   -0.6421   -2.7566 C   0  0  0  0  0  0  0  0  0  0  0  0
   -1.6232   -0.5749   -2.6783 C   0  0  0  0  0  0  0  0  0  0  0  0
   -0.8669   -1.3340   -1.6618 C   0  0  0  0  0  0  0  0  0  0  0  0
   -0.0225   -0.7919   -0.6998 C   0  0  0  0  0  0  0  0  0  0  0  0
    0.5707   -1.7562    0.1253 C   0  0  0  0  0  0  0  0  0  0  0  0
    0.1944   -3.0618   -0.1899 C   0  0  0  0  0  0  0  0  0  0  0  0
    0.6160   -4.3103    0.4643 C   0  0  0  0  0  0  0  0  0  0  0  0
    1.6566   -4.3829    1.3107 C   0  0  0  0  0  0  0  0  0  0  0  0
    2.0671   -5.6660    1.9120 C   0  0  0  0  0  0  0  0  0  0  0  0
    3.2102   -5.8639    2.6753 C   0  0  0  0  0  0  0  0  0  0  0  0
    3.3561   -7.1888    3.1271 C   0  0  0  0  0  0  0  0  0  0  0  0
    2.3268   -8.0260    2.7168 C   0  0  0  0  0  0  0  0  0  0  0  0
    2.1385   -9.4589    3.0983 C   0  0  0  0  0  0  0  0  0  0  0  0
    1.2621   -9.5785    4.3393 C   0  0  0  0  0  0  0  0  0  0  0  0
    1.2319   -7.1292    1.8099 S   0  0  0  0  0  0  0  0  0  0  0  0
   -0.8772   -3.0023   -1.4854 S   0  0  0  0  0  0  0  0  0  0  0  0
   -0.9886    0.3394   -3.5252 C   0  0  0  0  0  0  0  0  0  0  0  0
   -1.6836    1.1364   -4.4383 C   0  0  0  0  0  0  0  0  0  0  0  0
   -3.0857    1.0187   -4.5735 C   0  0  0  0  0  0  0  0  0  0  0  0
   -3.8092    1.7122   -5.6634 C   0  0  0  0  0  0  0  0  0  0  0  0
   -3.3975    1.7450   -6.9964 C   0  0  0  0  0  0  0  0  0  0  0  0
   -4.2687    2.4434   -7.8372 C   0  0  0  0  0  0  0  0  0  0  0  0
   -5.3861    2.9540   -7.1828 C   0  0  0  0  0  0  0  0  0  0  0  0
   -6.4130    3.7936   -7.8452 C   0  0  0  0  0  0  0  0  0  0  0  0
   -7.6423    4.0324   -7.3664 C   0  0  0  0  0  0  0  0  0  0  0  0
   -8.2084    3.3491   -6.2053 C   0  0  0  0  0  0  0  0  0  0  0  0
   -8.7197    2.0555   -6.2166 C   0  0  0  0  0  0  0  0  0  0  0  0
   -9.2240    1.6598   -4.9759 C   0  0  0  0  0  0  0  0  0  0  0  0
   -9.1123    2.6506   -3.9984 C   0  0  0  0  0  0  0  0  0  0  0  0
   -9.5332    2.5049   -2.5740 C   0  0  0  0  0  0  0  0  0  0  0  0
   -8.7306    1.3953   -1.8914 C   0  0  0  0  0  0  0  0  0  0  0  0
   -8.3862    4.0169   -4.6703 S   0  0  0  0  0  0  0  0  0  0  0  0
   -5.2590    2.5581   -5.5485 S   0  0  0  0  0  0  0  0  0  0  0  0
   -3.7361    0.1431   -3.6681 C   0  0  0  0  0  0  0  0  0  0  0  0
   -5.3891   -0.0088   -3.3308 S   0  0  0  0  0  0  0  0  0  0  0  0
   -0.8621    2.0942   -5.0633 C   0  0  0  0  0  0  0  0  0  0  0  0
    0.4647    2.0119   -4.6462 C   0  0  0  0  0  0  0  0  0  0  0  0
    0.6282    0.7650   -3.5294 S   0  0  0  0  0  0  0  0  0  0  0  0
    1.5330    2.9794   -4.9108 C   0  0  0  0  0  0  0  0  0  0  0  0
    1.4003    4.2561   -5.4480 C   0  0  0  0  0  0  0  0  0  0  0  0
    2.5669    5.0443   -5.3521 C   0  0  0  0  0  0  0  0  0  0  0  0
    2.5782    6.4655   -5.7317 C   0  0  0  0  0  0  0  0  0  0  0  0
    1.4863    7.0620   -5.9241 O   0  0  0  0  0  0  0  0  0  0  0  0
    3.7831    7.1542   -5.8720 O   0  0  0  0  0  0  0  0  0  0  0  0
    3.8551    8.5105   -6.3087 C   0  0  0  0  0  0  0  0  0  0  0  0
    3.6282    4.3491   -4.7299 C   0  0  0  0  0  0  0  0  0  0  0  0
    3.0931    2.8236   -4.3224 S   0  0  0  0  0  0  0  0  0  0  0  0
    4.9874    4.8014   -4.4065 C   0  0  0  0  0  0  0  0  0  0  0  0
    5.9193    5.2885   -5.3189 C   0  0  0  0  0  0  0  0  0  0  0  0
    7.2394    5.2825   -4.8229 C   0  0  0  0  0  0  0  0  0  0  0  0
    8.4050    5.6241   -5.5462 C   0  0  0  0  0  0  0  0  0  0  0  0
    8.3476    6.0135   -6.9743 C   0  0  0  0  0  0  0  0  0  0  0  0
    8.7912    7.2140   -7.5130 C   0  0  0  0  0  0  0  0  0  0  0  0
    8.3955    7.4059   -8.8468 C   0  0  0  0  0  0  0  0  0  0  0  0
    7.6309    6.3561   -9.3513 C   0  0  0  0  0  0  0  0  0  0  0  0
    6.8820    6.3671  -10.6130 C   0  0  0  0  0  0  0  0  0  0  0  0
    5.5917    6.0021  -10.6197 C   0  0  0  0  0  0  0  0  0  0  0  0
    4.7594    6.0450  -11.8238 C   0  0  0  0  0  0  0  0  0  0  0  0
    3.3760    6.1835  -11.8180 C   0  0  0  0  0  0  0  0  0  0  0  0
    2.8056    6.1253  -13.0950 C   0  0  0  0  0  0  0  0  0  0  0  0
    3.7427    5.9288  -14.1028 C   0  0  0  0  0  0  0  0  0  0  0  0
    3.4283    5.6818  -15.5475 C   0  0  0  0  0  0  0  0  0  0  0  0
    3.1664    4.1998  -15.7907 C   0  0  0  0  0  0  0  0  0  0  0  0
    5.2780    5.8357  -13.4150 S   0  0  0  0  0  0  0  0  0  0  0  0
    7.4962    5.1809   -8.1684 S   0  0  0  0  0  0  0  0  0  0  0  0
    9.6282    5.4922   -4.8657 C   0  0  0  0  0  0  0  0  0  0  0  0
    9.7176    4.9897   -3.5574 C   0  0  0  0  0  0  0  0  0  0  0  0
    8.5531    4.6104   -2.8516 C   0  0  0  0  0  0  0  0  0  0  0  0
    8.6097    3.8435   -1.5855 C   0  0  0  0  0  0  0  0  0  0  0  0
    7.7523    3.9910   -0.5029 C   0  0  0  0  0  0  0  0  0  0  0  0
    7.8390    2.9463    0.4288 C   0  0  0  0  0  0  0  0  0  0  0  0
    8.7769    1.9784    0.0811 C   0  0  0  0  0  0  0  0  0  0  0  0
    9.0331    0.6924    0.7551 C   0  0  0  0  0  0  0  0  0  0  0  0
    8.1267    0.0967    1.5444 C   0  0  0  0  0  0  0  0  0  0  0  0
    8.3288   -1.2576    2.0792 C   0  0  0  0  0  0  0  0  0  0  0  0
    7.3246   -2.0639    2.6074 C   0  0  0  0  0  0  0  0  0  0  0  0
    7.7877   -3.3231    3.0314 C   0  0  0  0  0  0  0  0  0  0  0  0
    9.1510   -3.5037    2.8270 C   0  0  0  0  0  0  0  0  0  0  0  0
    9.9492   -4.7174    3.1953 C   0  0  0  0  0  0  0  0  0  0  0  0
   10.2327   -4.7535    4.6948 C   0  0  0  0  0  0  0  0  0  0  0  0
    9.7895   -2.1046    2.1474 S   0  0  0  0  0  0  0  0  0  0  0  0
    9.4896    2.4195   -1.3771 S   0  0  0  0  0  0  0  0  0  0  0  0
    7.3237    4.8066   -3.5142 C   0  0  0  0  0  0  0  0  0  0  0  0
    5.7939    4.3594   -2.9995 S   0  0  0  0  0  0  0  0  0  0  0  0
   11.0408    4.8886   -3.0959 C   0  0  0  0  0  0  0  0  0  0  0  0
   11.9823    5.2909   -4.0359 C   0  0  0  0  0  0  0  0  0  0  0  0
   11.1839    5.7788   -5.4403 S   0  0  0  0  0  0  0  0  0  0  0  0
   -2.3848   -4.8601   13.8792 H   0  0  0  0  0  0  0  0  0  0  0  0
   -1.8968   -2.3018   13.7035 H   0  0  0  0  0  0  0  0  0  0  0  0
   -1.7639    1.7181   11.2155 H   0  0  0  0  0  0  0  0  0  0  0  0
   -0.0254    1.3146   10.9205 H   0  0  0  0  0  0  0  0  0  0  0  0
   -1.2521    0.9378    9.6606 H   0  0  0  0  0  0  0  0  0  0  0  0
   -4.7738   -4.8341    8.9763 H   0  0  0  0  0  0  0  0  0  0  0  0
   -7.3705   -4.4702    8.3774 H   0  0  0  0  0  0  0  0  0  0  0  0
   -8.5142   -6.7551    8.5663 H   0  0  0  0  0  0  0  0  0  0  0  0
   -8.2934   -9.2196    7.6780 H   0  0  0  0  0  0  0  0  0  0  0  0
   -8.1696  -10.6567    5.8280 H   0  0  0  0  0  0  0  0  0  0  0  0
   -9.1975   -8.3295    3.5829 H   0  0  0  0  0  0  0  0  0  0  0  0
   -8.0073   -8.0396    1.3117 H   0  0  0  0  0  0  0  0  0  0  0  0
   -5.6674   -9.7358    0.2777 H   0  0  0  0  0  0  0  0  0  0  0  0
   -4.2840   -9.3419    1.3572 H   0  0  0  0  0  0  0  0  0  0  0  0
   -6.0643   -7.3687   -0.1919 H   0  0  0  0  0  0  0  0  0  0  0  0
   -4.2903   -7.6662   -0.3739 H   0  0  0  0  0  0  0  0  0  0  0  0
   -4.9056   -6.8556    1.1170 H   0  0  0  0  0  0  0  0  0  0  0  0
   -5.2405    1.0730    5.3715 H   0  0  0  0  0  0  0  0  0  0  0  0
   -3.6853    3.1041    5.1165 H   0  0  0  0  0  0  0  0  0  0  0  0
   -1.1798    3.7502    4.8493 H   0  0  0  0  0  0  0  0  0  0  0  0
    1.0856    3.4385    5.3252 H   0  0  0  0  0  0  0  0  0  0  0  0
    0.8317    2.0323    8.2678 H   0  0  0  0  0  0  0  0  0  0  0  0
    2.2221   -0.0442    8.9021 H   0  0  0  0  0  0  0  0  0  0  0  0
    3.7961   -1.7866    7.8089 H   0  0  0  0  0  0  0  0  0  0  0  0
    2.5777   -2.6690    6.8206 H   0  0  0  0  0  0  0  0  0  0  0  0
    4.8880   -0.9420    5.6819 H   0  0  0  0  0  0  0  0  0  0  0  0
    4.9016   -2.7349    5.8361 H   0  0  0  0  0  0  0  0  0  0  0  0
    3.7186   -1.9534    4.7257 H   0  0  0  0  0  0  0  0  0  0  0  0
   -4.8194   -0.6321    3.2430 H   0  0  0  0  0  0  0  0  0  0  0  0
   -7.3313   -3.9858    0.8044 H   0  0  0  0  0  0  0  0  0  0  0  0
   -8.1368   -2.7707   -5.1557 H   0  0  0  0  0  0  0  0  0  0  0  0
   -9.1288   -3.7462   -4.0022 H   0  0  0  0  0  0  0  0  0  0  0  0
   -7.5221   -4.3740   -4.5826 H   0  0  0  0  0  0  0  0  0  0  0  0
   -3.4638   -1.9414   -1.0500 H   0  0  0  0  0  0  0  0  0  0  0  0
    0.1509    0.2728   -0.5803 H   0  0  0  0  0  0  0  0  0  0  0  0
    1.2415   -1.4998    0.9378 H   0  0  0  0  0  0  0  0  0  0  0  0
    0.0759   -5.2028    0.1951 H   0  0  0  0  0  0  0  0  0  0  0  0
    2.2300   -3.4979    1.5456 H   0  0  0  0  0  0  0  0  0  0  0  0
    3.9212   -5.0815    2.9067 H   0  0  0  0  0  0  0  0  0  0  0  0
    4.1908   -7.5136    3.7352 H   0  0  0  0  0  0  0  0  0  0  0  0
    3.1269   -9.9356    3.2858 H   0  0  0  0  0  0  0  0  0  0  0  0
    1.6524   -9.9932    2.2549 H   0  0  0  0  0  0  0  0  0  0  0  0
    1.7669   -9.1056    5.2091 H   0  0  0  0  0  0  0  0  0  0  0  0
    0.2835   -9.0707    4.1757 H   0  0  0  0  0  0  0  0  0  0  0  0
    1.0846  -10.6505    4.5685 H   0  0  0  0  0  0  0  0  0  0  0  0
   -2.5009    1.2522   -7.3529 H   0  0  0  0  0  0  0  0  0  0  0  0
   -4.0810    2.5718   -8.8962 H   0  0  0  0  0  0  0  0  0  0  0  0
   -6.1481    4.2577   -8.7821 H   0  0  0  0  0  0  0  0  0  0  0  0
   -8.2877    4.6986   -7.9224 H   0  0  0  0  0  0  0  0  0  0  0  0
   -8.7493    1.4240   -7.1001 H   0  0  0  0  0  0  0  0  0  0  0  0
   -9.6576    0.6867   -4.7979 H   0  0  0  0  0  0  0  0  0  0  0  0
  -10.6116    2.2572   -2.5258 H   0  0  0  0  0  0  0  0  0  0  0  0
   -9.3577    3.4572   -2.0302 H   0  0  0  0  0  0  0  0  0  0  0  0
   -8.9686    1.3728   -0.8097 H   0  0  0  0  0  0  0  0  0  0  0  0
   -7.6433    1.5874   -2.0007 H   0  0  0  0  0  0  0  0  0  0  0  0
   -8.9728    0.4102   -2.3418 H   0  0  0  0  0  0  0  0  0  0  0  0
   -1.2183    2.8598   -5.7358 H   0  0  0  0  0  0  0  0  0  0  0  0
    0.4682    4.6335   -5.8440 H   0  0  0  0  0  0  0  0  0  0  0  0
    3.3489    9.1746   -5.5779 H   0  0  0  0  0  0  0  0  0  0  0  0
    3.3775    8.6115   -7.3041 H   0  0  0  0  0  0  0  0  0  0  0  0
    4.9174    8.8095   -6.3873 H   0  0  0  0  0  0  0  0  0  0  0  0
    5.6501    5.5443   -6.3297 H   0  0  0  0  0  0  0  0  0  0  0  0
    9.3148    7.9735   -6.9469 H   0  0  0  0  0  0  0  0  0  0  0  0
    8.5757    8.3212   -9.3848 H   0  0  0  0  0  0  0  0  0  0  0  0
    7.3447    6.7623  -11.5055 H   0  0  0  0  0  0  0  0  0  0  0  0
    5.1104    5.7210   -9.6871 H   0  0  0  0  0  0  0  0  0  0  0  0
    2.7809    6.3163  -10.9239 H   0  0  0  0  0  0  0  0  0  0  0  0
    1.7418    6.1858  -13.2757 H   0  0  0  0  0  0  0  0  0  0  0  0
    2.5275    6.2681  -15.8404 H   0  0  0  0  0  0  0  0  0  0  0  0
    4.2761    6.0225  -16.1758 H   0  0  0  0  0  0  0  0  0  0  0  0
    2.9747    4.0316  -16.8730 H   0  0  0  0  0  0  0  0  0  0  0  0
    4.0476    3.5997  -15.4754 H   0  0  0  0  0  0  0  0  0  0  0  0
    2.2746    3.8762  -15.2074 H   0  0  0  0  0  0  0  0  0  0  0  0
    7.0446    4.8039   -0.4015 H   0  0  0  0  0  0  0  0  0  0  0  0
    7.2353    2.8977    1.3181 H   0  0  0  0  0  0  0  0  0  0  0  0
    9.9428    0.1648    0.4968 H   0  0  0  0  0  0  0  0  0  0  0  0
    7.1729    0.5740    1.7353 H   0  0  0  0  0  0  0  0  0  0  0  0
    6.2843   -1.7673    2.6764 H   0  0  0  0  0  0  0  0  0  0  0  0
    7.1444   -4.0767    3.4619 H   0  0  0  0  0  0  0  0  0  0  0  0
   10.9138   -4.7108    2.6451 H   0  0  0  0  0  0  0  0  0  0  0  0
    9.3956   -5.6399    2.9078 H   0  0  0  0  0  0  0  0  0  0  0  0
   10.7460   -3.8190    5.0105 H   0  0  0  0  0  0  0  0  0  0  0  0
    9.2843   -4.8530    5.2652 H   0  0  0  0  0  0  0  0  0  0  0  0
   10.8815   -5.6220    4.9287 H   0  0  0  0  0  0  0  0  0  0  0  0
   11.3159    4.5264   -2.1108 H   0  0  0  0  0  0  0  0  0  0  0  0
   13.0595    5.2789   -3.8857 H   0  0  0  0  0  0  0  0  0  0  0  0
  1  2  2  0
  2  3  1  0
  3  4  1  0
  4  5  2  0
  4  6  1  0
  6  7  1  0
  3  8  2  0
  8  9  1  0
  8 10  1  0
 10 11  2  0
 11 12  1  0
 12 13  2  0
 13 14  1  0
 14 15  2  0
 15 16  1  0
 16 17  2  0
 17 18  1  0
 18 19  2  3
 19 20  1  0
 20 21  2  0
 21 22  1  0
 22 23  2  0
 23 24  1  0
 24 25  1  0
 23 26  1  0
 17 27  1  0
 13 28  1  0
 28 29  2  0
 29 30  1  0
 30 31  1  0
 31 32  2  0
 32 33  1  0
 33 34  2  0
 34 35  1  0
 35 36  2  3
 36 37  1  0
 37 38  2  0
 38 39  1  0
 39 40  2  0
 40 41  1  0
 41 42  1  0
 40 43  1  0
 34 44  1  0
 30 45  2  0
 45 46  1  0
 29 47  1  0
 47 48  2  0
 48 49  1  0
 48 50  1  0
 50 51  2  0
 51 52  1  0
 52 53  1  0
 53 54  2  0
 53 55  1  0
 55 56  1  0
 52 57  2  0
 57 58  1  0
 57 59  1  0
 59 60  2  0
 60 61  1  0
 61 62  2  0
 62 63  1  0
 63 64  2  0
 64 65  1  0
 65 66  2  0
 66 67  1  0
 67 68  2  3
 68 69  1  0
 69 70  2  0
 70 71  1  0
 71 72  2  0
 72 73  1  0
 73 74  1  0
 72 75  1  0
 66 76  1  0
 62 77  1  0
 77 78  2  0
 78 79  1  0
 79 80  1  0
 80 81  2  0
 81 82  1  0
 82 83  2  0
 83 84  1  0
 84 85  2  3
 85 86  1  0
 86 87  2  0
 87 88  1  0
 88 89  2  0
 89 90  1  0
 90 91  1  0
 89 92  1  0
 83 93  1  0
 79 94  2  0
 94 95  1  0
 78 96  1  0
 96 97  2  0
 97 98  1  0
 97 99  1  0
 99100  2  0
100101  1  0
101102  1  0
102103  2  0
102104  1  0
104105  1  0
101106  2  0
106107  1  0
106108  1  0
108109  2  0
109110  1  0
110111  2  0
111112  1  0
112113  2  0
113114  1  0
114115  2  0
115116  1  0
116117  2  3
117118  1  0
118119  2  0
119120  1  0
120121  2  0
121122  1  0
122123  1  0
121124  1  0
115125  1  0
111126  1  0
126127  2  0
127128  1  0
128129  1  0
129130  2  0
130131  1  0
131132  2  0
132133  1  0
133134  2  3
134135  1  0
135136  2  0
136137  1  0
137138  2  0
138139  1  0
139140  1  0
138141  1  0
132142  1  0
128143  2  0
143144  1  0
127145  1  0
145146  2  0
146147  1  0
  9  1  1  0
 46 10  1  0
 58 50  1  0
 95 59  1  0
107 99  1  0
144108  1  0
 45 12  1  0
 94 61  1  0
143110  1  0
 27 14  1  0
 49 28  1  0
 76 63  1  0
 98 77  1  0
125112  1  0
147126  1  0
 26 20  1  0
 44 31  1  0
 75 69  1  0
 93 80  1  0
124118  1  0
142129  1  0
 43 37  1  0
 92 86  1  0
141135  1  0
  1148  1  0
  2149  1  0
  7150  1  0
  7151  1  0
  7152  1  0
 11153  1  0
 15154  1  0
 16155  1  0
 18156  1  0
 19157  1  0
 21158  1  0
 22159  1  0
 24160  1  0
 24161  1  0
 25162  1  0
 25163  1  0
 25164  1  0
 32165  1  0
 33166  1  0
 35167  1  0
 36168  1  0
 38169  1  0
 39170  1  0
 41171  1  0
 41172  1  0
 42173  1  0
 42174  1  0
 42175  1  0
 47176  1  0
 51177  1  0
 56178  1  0
 56179  1  0
 56180  1  0
 60181  1  0
 64182  1  0
 65183  1  0
 67184  1  0
 68185  1  0
 70186  1  0
 71187  1  0
 73188  1  0
 73189  1  0
 74190  1  0
 74191  1  0
 74192  1  0
 81193  1  0
 82194  1  0
 84195  1  0
 85196  1  0
 87197  1  0
 88198  1  0
 90199  1  0
 90200  1  0
 91201  1  0
 91202  1  0
 91203  1  0
 96204  1  0
100205  1  0
105206  1  0
105207  1  0
105208  1  0
109209  1  0
113210  1  0
114211  1  0
116212  1  0
117213  1  0
119214  1  0
120215  1  0
122216  1  0
122217  1  0
123218  1  0
123219  1  0
123220  1  0
130221  1  0
131222  1  0
133223  1  0
134224  1  0
136225  1  0
137226  1  0
139227  1  0
139228  1  0
140229  1  0
140230  1  0
140231  1  0
145232  1  0
146233  1  0
M  END

