
     RDKit          3D

223249  0  0  0  0  0  0  0  0999 V2000
    4.3584    3.5934   10.8839 C   0  0  0  0  0  0  0  0  0  0  0  0
    3.7021    3.8537    9.6868 C   0  0  0  0  0  0  0  0  0  0  0  0
    2.3541    3.4573    9.6992 C   0  0  0  0  0  0  0  0  0  0  0  0
    1.4345    3.5889    8.6387 C   0  0  0  0  0  0  0  0  0  0  0  0
    1.8522    4.0264    7.2908 C   0  0  0  0  0  0  0  0  0  0  0  0
    2.9387    3.1816    6.3240 S   0  0  0  0  0  0  0  0  0  0  0  0
    2.7793    4.1606    4.9657 C   0  0  0  0  0  0  0  0  0  0  0  0
    3.4611    3.9066    3.6517 C   0  0  0  0  0  0  0  0  0  0  0  0
    2.6612    2.9237    2.8044 C   0  0  0  0  0  0  0  0  0  0  0  0
    1.8469    5.1588    5.2436 C   0  0  0  0  0  0  0  0  0  0  0  0
    1.3526    6.3765    4.0741 Cl  0  0  0  0  0  0  0  0  0  0  0  0
    1.3332    5.0882    6.5509 C   0  0  0  0  0  0  0  0  0  0  0  0
    0.1881    6.2572    7.1951 Cl  0  0  0  0  0  0  0  0  0  0  0  0
    0.1232    3.1467    8.8803 C   0  0  0  0  0  0  0  0  0  0  0  0
   -0.2682    2.5512   10.0873 C   0  0  0  0  0  0  0  0  0  0  0  0
    0.6574    2.4049   11.1400 C   0  0  0  0  0  0  0  0  0  0  0  0
    0.2899    1.7705   12.4191 C   0  0  0  0  0  0  0  0  0  0  0  0
    0.2376    2.5704   13.8968 S   0  0  0  0  0  0  0  0  0  0  0  0
   -0.3374    1.2622   14.7851 C   0  0  0  0  0  0  0  0  0  0  0  0
   -0.7197    1.3253   16.2306 C   0  0  0  0  0  0  0  0  0  0  0  0
   -2.1875    1.7113   16.3803 C   0  0  0  0  0  0  0  0  0  0  0  0
   -0.5127    0.1781   13.9247 C   0  0  0  0  0  0  0  0  0  0  0  0
   -0.1508    0.4589   12.5995 C   0  0  0  0  0  0  0  0  0  0  0  0
   -0.2212   -0.7316   11.3040 Cl  0  0  0  0  0  0  0  0  0  0  0  0
   -1.1367   -1.3808   14.4418 Cl  0  0  0  0  0  0  0  0  0  0  0  0
    1.9572    2.8913   10.9152 C   0  0  0  0  0  0  0  0  0  0  0  0
    3.2772    2.8680   11.9598 S   0  0  0  0  0  0  0  0  0  0  0  0
   -1.6094    2.1257   10.0821 C   0  0  0  0  0  0  0  0  0  0  0  0
   -2.2574    2.4030    8.8803 C   0  0  0  0  0  0  0  0  0  0  0  0
   -1.1760    3.1366    7.8163 S   0  0  0  0  0  0  0  0  0  0  0  0
   -3.5748    1.9170    8.4725 C   0  0  0  0  0  0  0  0  0  0  0  0
   -3.9377    0.5730    8.4888 C   0  0  0  0  0  0  0  0  0  0  0  0
   -4.9948    0.2829    7.6088 C   0  0  0  0  0  0  0  0  0  0  0  0
   -5.4163   -1.0053    7.2178 C   0  0  0  0  0  0  0  0  0  0  0  0
   -4.8176   -2.2240    7.7848 C   0  0  0  0  0  0  0  0  0  0  0  0
   -5.6146   -3.2983    8.8024 S   0  0  0  0  0  0  0  0  0  0  0  0
   -4.3026   -4.3262    9.0359 C   0  0  0  0  0  0  0  0  0  0  0  0
   -4.2995   -5.5088    9.9565 C   0  0  0  0  0  0  0  0  0  0  0  0
   -3.7907   -5.1151   11.3389 C   0  0  0  0  0  0  0  0  0  0  0  0
   -3.2099   -3.8241    8.3254 C   0  0  0  0  0  0  0  0  0  0  0  0
   -1.6225   -4.5805    8.3275 Cl  0  0  0  0  0  0  0  0  0  0  0  0
   -3.5023   -2.6508    7.6165 C   0  0  0  0  0  0  0  0  0  0  0  0
   -2.3320   -1.8157    6.6045 Cl  0  0  0  0  0  0  0  0  0  0  0  0
   -6.3180   -1.0778    6.1422 C   0  0  0  0  0  0  0  0  0  0  0  0
   -6.8274    0.0625    5.5087 C   0  0  0  0  0  0  0  0  0  0  0  0
   -6.4503    1.3489    5.9362 C   0  0  0  0  0  0  0  0  0  0  0  0
   -6.9046    2.5699    5.2461 C   0  0  0  0  0  0  0  0  0  0  0  0
   -6.5194    2.9879    3.6646 S   0  0  0  0  0  0  0  0  0  0  0  0
   -7.4067    4.4160    3.6358 C   0  0  0  0  0  0  0  0  0  0  0  0
   -7.5699    5.2896    2.4291 C   0  0  0  0  0  0  0  0  0  0  0  0
   -8.7510    4.8258    1.5838 C   0  0  0  0  0  0  0  0  0  0  0  0
   -8.0301    4.5794    4.8734 C   0  0  0  0  0  0  0  0  0  0  0  0
   -7.7414    3.5446    5.7773 C   0  0  0  0  0  0  0  0  0  0  0  0
   -8.4169    3.4638    7.3997 Cl  0  0  0  0  0  0  0  0  0  0  0  0
   -9.1037    5.9190    5.2528 Cl  0  0  0  0  0  0  0  0  0  0  0  0
   -5.5052    1.4196    6.9700 C   0  0  0  0  0  0  0  0  0  0  0  0
   -4.5926    2.7577    7.4207 S   0  0  0  0  0  0  0  0  0  0  0  0
   -7.5535   -0.2282    4.3425 C   0  0  0  0  0  0  0  0  0  0  0  0
   -7.5340   -1.5790    4.0047 C   0  0  0  0  0  0  0  0  0  0  0  0
   -6.7023   -2.4248    5.2120 S   0  0  0  0  0  0  0  0  0  0  0  0
   -7.7000   -2.0698    2.6256 C   0  0  0  0  0  0  0  0  0  0  0  0
   -6.9409   -3.1044    2.0857 C   0  0  0  0  0  0  0  0  0  0  0  0
   -6.8857   -3.0811    0.6830 C   0  0  0  0  0  0  0  0  0  0  0  0
   -6.0553   -3.8910   -0.1162 C   0  0  0  0  0  0  0  0  0  0  0  0
   -5.2637   -4.9929    0.4661 C   0  0  0  0  0  0  0  0  0  0  0  0
   -3.5833   -5.0626    0.5016 S   0  0  0  0  0  0  0  0  0  0  0  0
   -3.4857   -6.4897    1.3899 C   0  0  0  0  0  0  0  0  0  0  0  0
   -2.2066   -7.1915    1.7281 C   0  0  0  0  0  0  0  0  0  0  0  0
   -1.8312   -8.1777    0.6302 C   0  0  0  0  0  0  0  0  0  0  0  0
   -4.7764   -6.9433    1.6559 C   0  0  0  0  0  0  0  0  0  0  0  0
   -5.1241   -8.4275    2.5304 Cl  0  0  0  0  0  0  0  0  0  0  0  0
   -5.7732   -6.0978    1.1469 C   0  0  0  0  0  0  0  0  0  0  0  0
   -7.4951   -6.4221    1.3211 Cl  0  0  0  0  0  0  0  0  0  0  0  0
   -5.9526   -3.5443   -1.4735 C   0  0  0  0  0  0  0  0  0  0  0  0
   -6.6881   -2.4972   -2.0426 C   0  0  0  0  0  0  0  0  0  0  0  0
   -7.5913   -1.7482   -1.2599 C   0  0  0  0  0  0  0  0  0  0  0  0
   -8.4273   -0.6843   -1.8554 C   0  0  0  0  0  0  0  0  0  0  0  0
   -8.4207    0.9356   -1.3957 S   0  0  0  0  0  0  0  0  0  0  0  0
   -9.5685    1.4452   -2.5197 C   0  0  0  0  0  0  0  0  0  0  0  0
  -10.1104    2.8410   -2.6100 C   0  0  0  0  0  0  0  0  0  0  0  0
  -11.3682    2.9888   -1.7636 C   0  0  0  0  0  0  0  0  0  0  0  0
   -9.9953    0.3410   -3.2562 C   0  0  0  0  0  0  0  0  0  0  0  0
   -9.3543   -0.8502   -2.8874 C   0  0  0  0  0  0  0  0  0  0  0  0
   -9.7320   -2.4093   -3.6131 Cl  0  0  0  0  0  0  0  0  0  0  0  0
  -11.2372    0.4232   -4.4960 Cl  0  0  0  0  0  0  0  0  0  0  0  0
   -7.6298   -2.0408    0.1172 C   0  0  0  0  0  0  0  0  0  0  0  0
   -8.3438   -1.1537    1.3569 S   0  0  0  0  0  0  0  0  0  0  0  0
   -6.3375   -2.2436   -3.3817 C   0  0  0  0  0  0  0  0  0  0  0  0
   -5.3530   -3.1040   -3.8499 C   0  0  0  0  0  0  0  0  0  0  0  0
   -4.8902   -4.1620   -2.6244 S   0  0  0  0  0  0  0  0  0  0  0  0
   -4.6177   -2.9419   -5.1007 C   0  0  0  0  0  0  0  0  0  0  0  0
   -3.5129   -2.2349   -5.2161 O   0  0  0  0  0  0  0  0  0  0  0  0
   -4.8393   -3.6229   -6.2720 C   0  0  0  0  0  0  0  0  0  0  0  0
   -5.3002   -4.9790   -6.5402 C   0  0  0  0  0  0  0  0  0  0  0  0
   -6.1645   -5.6078   -5.8782 O   0  0  0  0  0  0  0  0  0  0  0  0
   -4.5200   -5.5484   -7.5890 N   0  0  0  0  0  0  0  0  0  0  0  0
   -3.5550   -4.5459   -7.9080 C   0  0  0  0  0  0  0  0  0  0  0  0
   -2.6306   -4.7082   -8.7478 O   0  0  0  0  0  0  0  0  0  0  0  0
   -3.7874   -3.3505   -7.0904 C   0  0  0  0  0  0  0  0  0  0  0  0
   -2.9559   -2.4872   -6.3861 C   0  0  0  0  0  0  0  0  0  0  0  0
   -1.6185   -1.9931   -6.7587 C   0  0  0  0  0  0  0  0  0  0  0  0
   -0.8583   -1.1087   -5.9885 C   0  0  0  0  0  0  0  0  0  0  0  0
    0.4308   -0.8976   -6.5056 C   0  0  0  0  0  0  0  0  0  0  0  0
    1.4430   -0.1038   -5.9327 C   0  0  0  0  0  0  0  0  0  0  0  0
    1.2107    0.6959   -4.7202 C   0  0  0  0  0  0  0  0  0  0  0  0
    0.3266    2.1244   -4.6782 S   0  0  0  0  0  0  0  0  0  0  0  0
    0.6109    2.4587   -3.0519 C   0  0  0  0  0  0  0  0  0  0  0  0
    0.0903    3.6587   -2.3246 C   0  0  0  0  0  0  0  0  0  0  0  0
   -1.2708    3.3697   -1.6996 C   0  0  0  0  0  0  0  0  0  0  0  0
    1.3931    1.4361   -2.5136 C   0  0  0  0  0  0  0  0  0  0  0  0
    1.9003    1.3822   -0.8312 Cl  0  0  0  0  0  0  0  0  0  0  0  0
    1.7335    0.4500   -3.4532 C   0  0  0  0  0  0  0  0  0  0  0  0
    2.7045   -0.9633   -3.0643 Cl  0  0  0  0  0  0  0  0  0  0  0  0
    2.6962   -0.1121   -6.5688 C   0  0  0  0  0  0  0  0  0  0  0  0
    2.9493   -0.8699   -7.7164 C   0  0  0  0  0  0  0  0  0  0  0  0
    1.9285   -1.6369   -8.3087 C   0  0  0  0  0  0  0  0  0  0  0  0
    2.1755   -2.4636   -9.5037 C   0  0  0  0  0  0  0  0  0  0  0  0
    2.1787   -4.1445   -9.5176 S   0  0  0  0  0  0  0  0  0  0  0  0
    2.6357   -4.3052  -11.1283 C   0  0  0  0  0  0  0  0  0  0  0  0
    2.7894   -5.6150  -11.8385 C   0  0  0  0  0  0  0  0  0  0  0  0
    1.4545   -6.0825  -12.4023 C   0  0  0  0  0  0  0  0  0  0  0  0
    2.7717   -3.0340  -11.6857 C   0  0  0  0  0  0  0  0  0  0  0  0
    2.5255   -1.9998  -10.7707 C   0  0  0  0  0  0  0  0  0  0  0  0
    2.6381   -0.2951  -11.1864 Cl  0  0  0  0  0  0  0  0  0  0  0  0
    3.2080   -2.7505  -13.3651 Cl  0  0  0  0  0  0  0  0  0  0  0  0
    0.6792   -1.6305   -7.6708 C   0  0  0  0  0  0  0  0  0  0  0  0
   -0.6996   -2.5022   -8.0787 S   0  0  0  0  0  0  0  0  0  0  0  0
    4.2857   -0.8105   -8.1374 C   0  0  0  0  0  0  0  0  0  0  0  0
    5.0722    0.0099   -7.3329 C   0  0  0  0  0  0  0  0  0  0  0  0
    4.1168    0.6651   -6.1007 S   0  0  0  0  0  0  0  0  0  0  0  0
    6.5221    0.2050   -7.4795 C   0  0  0  0  0  0  0  0  0  0  0  0
    7.3761   -0.6097   -8.2239 C   0  0  0  0  0  0  0  0  0  0  0  0
    8.7181   -0.2130   -8.1455 C   0  0  0  0  0  0  0  0  0  0  0  0
    9.8129   -0.8483   -8.7628 C   0  0  0  0  0  0  0  0  0  0  0  0
    9.6563   -2.1047   -9.5146 C   0  0  0  0  0  0  0  0  0  0  0  0
    9.1590   -3.5600   -8.8347 S   0  0  0  0  0  0  0  0  0  0  0  0
    9.2583   -4.4615  -10.2494 C   0  0  0  0  0  0  0  0  0  0  0  0
    8.9857   -5.9333  -10.3382 C   0  0  0  0  0  0  0  0  0  0  0  0
   10.2830   -6.7360  -10.2605 C   0  0  0  0  0  0  0  0  0  0  0  0
    9.7022   -3.6315  -11.2787 C   0  0  0  0  0  0  0  0  0  0  0  0
    9.9575   -4.1850  -12.9281 Cl  0  0  0  0  0  0  0  0  0  0  0  0
    9.9209   -2.3084  -10.8668 C   0  0  0  0  0  0  0  0  0  0  0  0
   10.4346   -1.0299  -11.9613 Cl  0  0  0  0  0  0  0  0  0  0  0  0
   11.0795   -0.2744   -8.5558 C   0  0  0  0  0  0  0  0  0  0  0  0
   11.2690    0.8734   -7.7793 C   0  0  0  0  0  0  0  0  0  0  0  0
   10.1713    1.5065   -7.1591 C   0  0  0  0  0  0  0  0  0  0  0  0
   10.3361    2.6930   -6.3043 C   0  0  0  0  0  0  0  0  0  0  0  0
   10.0784    2.7111   -4.6437 S   0  0  0  0  0  0  0  0  0  0  0  0
   10.5110    4.3194   -4.4116 C   0  0  0  0  0  0  0  0  0  0  0  0
   10.6074    4.9838   -3.0753 C   0  0  0  0  0  0  0  0  0  0  0  0
   12.0413    4.9462   -2.5569 C   0  0  0  0  0  0  0  0  0  0  0  0
   10.8846    4.8621   -5.6433 C   0  0  0  0  0  0  0  0  0  0  0  0
   10.7821    3.9502   -6.7057 C   0  0  0  0  0  0  0  0  0  0  0  0
   11.1640    4.3575   -8.3760 Cl  0  0  0  0  0  0  0  0  0  0  0  0
   11.4423    6.5173   -5.8452 Cl  0  0  0  0  0  0  0  0  0  0  0  0
    8.9073    0.9272   -7.3584 C   0  0  0  0  0  0  0  0  0  0  0  0
    7.4231    1.4268   -6.7381 S   0  0  0  0  0  0  0  0  0  0  0  0
   12.6211    1.2399   -7.6583 C   0  0  0  0  0  0  0  0  0  0  0  0
   13.4809    0.3864   -8.3447 C   0  0  0  0  0  0  0  0  0  0  0  0
   12.5776   -0.8329   -9.0833 S   0  0  0  0  0  0  0  0  0  0  0  0
    5.3958    3.8203   11.0909 H   0  0  0  0  0  0  0  0  0  0  0  0
    4.1852    4.3279    8.8421 H   0  0  0  0  0  0  0  0  0  0  0  0
    4.4724    3.4873    3.8394 H   0  0  0  0  0  0  0  0  0  0  0  0
    3.5880    4.8592    3.0958 H   0  0  0  0  0  0  0  0  0  0  0  0
    3.1841    2.7517    1.8406 H   0  0  0  0  0  0  0  0  0  0  0  0
    1.6498    3.3268    2.5949 H   0  0  0  0  0  0  0  0  0  0  0  0
    2.5636    1.9500    3.3298 H   0  0  0  0  0  0  0  0  0  0  0  0
   -0.0866    2.0807   16.7451 H   0  0  0  0  0  0  0  0  0  0  0  0
   -0.5394    0.3417   16.7143 H   0  0  0  0  0  0  0  0  0  0  0  0
   -2.3686    2.7174   15.9391 H   0  0  0  0  0  0  0  0  0  0  0  0
   -2.8409    0.9677   15.8736 H   0  0  0  0  0  0  0  0  0  0  0  0
   -2.4569    1.7431   17.4570 H   0  0  0  0  0  0  0  0  0  0  0  0
   -2.0907    1.6152   10.9058 H   0  0  0  0  0  0  0  0  0  0  0  0
   -3.3596   -0.1819    9.0075 H   0  0  0  0  0  0  0  0  0  0  0  0
   -3.6616   -6.3174    9.5366 H   0  0  0  0  0  0  0  0  0  0  0  0
   -5.3330   -5.9073   10.0505 H   0  0  0  0  0  0  0  0  0  0  0  0
   -4.4396   -4.3266   11.7804 H   0  0  0  0  0  0  0  0  0  0  0  0
   -3.8050   -6.0006   12.0072 H   0  0  0  0  0  0  0  0  0  0  0  0
   -2.7485   -4.7368   11.2758 H   0  0  0  0  0  0  0  0  0  0  0  0
   -7.7313    6.3427    2.7440 H   0  0  0  0  0  0  0  0  0  0  0  0
   -6.6421    5.2553    1.8209 H   0  0  0  0  0  0  0  0  0  0  0  0
   -9.6872    4.8346    2.1850 H   0  0  0  0  0  0  0  0  0  0  0  0
   -8.5714    3.7985    1.1957 H   0  0  0  0  0  0  0  0  0  0  0  0
   -8.8782    5.5133    0.7189 H   0  0  0  0  0  0  0  0  0  0  0  0
   -7.9511    0.5289    3.6811 H   0  0  0  0  0  0  0  0  0  0  0  0
   -6.3374   -3.7695    2.6902 H   0  0  0  0  0  0  0  0  0  0  0  0
   -1.3934   -6.4422    1.8455 H   0  0  0  0  0  0  0  0  0  0  0  0
   -2.3126   -7.7319    2.6916 H   0  0  0  0  0  0  0  0  0  0  0  0
   -1.7112   -7.6490   -0.3409 H   0  0  0  0  0  0  0  0  0  0  0  0
   -2.6178   -8.9549    0.5269 H   0  0  0  0  0  0  0  0  0  0  0  0
   -0.8715   -8.6722    0.8843 H   0  0  0  0  0  0  0  0  0  0  0  0
   -9.3432    3.5621   -2.2530 H   0  0  0  0  0  0  0  0  0  0  0  0
  -10.3425    3.0851   -3.6686 H   0  0  0  0  0  0  0  0  0  0  0  0
  -11.1369    2.7904   -0.6951 H   0  0  0  0  0  0  0  0  0  0  0  0
  -12.1511    2.2795   -2.1068 H   0  0  0  0  0  0  0  0  0  0  0  0
  -11.7646    4.0232   -1.8568 H   0  0  0  0  0  0  0  0  0  0  0  0
   -6.7352   -1.4267   -3.9680 H   0  0  0  0  0  0  0  0  0  0  0  0
   -4.6012   -6.5093   -7.9959 H   0  0  0  0  0  0  0  0  0  0  0  0
   -1.2196   -0.6666   -5.0676 H   0  0  0  0  0  0  0  0  0  0  0  0
   -0.0018    4.5079   -3.0335 H   0  0  0  0  0  0  0  0  0  0  0  0
    0.8054    3.9523   -1.5286 H   0  0  0  0  0  0  0  0  0  0  0  0
   -2.0187    3.1596   -2.4925 H   0  0  0  0  0  0  0  0  0  0  0  0
   -1.2074    2.4989   -1.0135 H   0  0  0  0  0  0  0  0  0  0  0  0
   -1.6051    4.2579   -1.1229 H   0  0  0  0  0  0  0  0  0  0  0  0
    3.1722   -6.3762  -11.1238 H   0  0  0  0  0  0  0  0  0  0  0  0
    3.5312   -5.5223  -12.6597 H   0  0  0  0  0  0  0  0  0  0  0  0
    0.7013   -6.1794  -11.5893 H   0  0  0  0  0  0  0  0  0  0  0  0
    1.5840   -7.0716  -12.8906 H   0  0  0  0  0  0  0  0  0  0  0  0
    1.0829   -5.3574  -13.1570 H   0  0  0  0  0  0  0  0  0  0  0  0
    4.6701   -1.3490   -8.9909 H   0  0  0  0  0  0  0  0  0  0  0  0
    7.0365   -1.4651   -8.7909 H   0  0  0  0  0  0  0  0  0  0  0  0
    8.3226   -6.2345   -9.4995 H   0  0  0  0  0  0  0  0  0  0  0  0
    8.4596   -6.1644  -11.2884 H   0  0  0  0  0  0  0  0  0  0  0  0
   10.9394   -6.4989  -11.1245 H   0  0  0  0  0  0  0  0  0  0  0  0
   10.8244   -6.5090   -9.3165 H   0  0  0  0  0  0  0  0  0  0  0  0
   10.0471   -7.8214  -10.2828 H   0  0  0  0  0  0  0  0  0  0  0  0
   10.2643    6.0361   -3.1484 H   0  0  0  0  0  0  0  0  0  0  0  0
    9.9489    4.4593   -2.3530 H   0  0  0  0  0  0  0  0  0  0  0  0
   12.7101    5.5290   -3.2246 H   0  0  0  0  0  0  0  0  0  0  0  0
   12.4033    3.8976   -2.5035 H   0  0  0  0  0  0  0  0  0  0  0  0
   12.0811    5.3898   -1.5403 H   0  0  0  0  0  0  0  0  0  0  0  0
   12.9735    2.0903   -7.0866 H   0  0  0  0  0  0  0  0  0  0  0  0
   14.5587    0.4807   -8.3817 H   0  0  0  0  0  0  0  0  0  0  0  0
  1  2  2  0
  2  3  1  0
  3  4  2  0
  4  5  1  0
  5  6  1  0
  6  7  1  0
  7  8  1  0
  8  9  1  0
  7 10  2  0
 10 11  1  0
 10 12  1  0
 12 13  1  0
  4 14  1  0
 14 15  2  0
 15 16  1  0
 16 17  1  0
 17 18  1  0
 18 19  1  0
 19 20  1  0
 20 21  1  0
 19 22  2  0
 22 23  1  0
 23 24  1  0
 22 25  1  0
 16 26  2  0
 26 27  1  0
 15 28  1  0
 28 29  2  0
 29 30  1  0
 29 31  1  0
 31 32  2  0
 32 33  1  0
 33 34  2  0
 34 35  1  0
 35 36  1  0
 36 37  1  0
 37 38  1  0
 38 39  1  0
 37 40  2  0
 40 41  1  0
 40 42  1  0
 42 43  1  0
 34 44  1  0
 44 45  2  0
 45 46  1  0
 46 47  1  0
 47 48  1  0
 48 49  1  0
 49 50  1  0
 50 51  1  0
 49 52  2  0
 52 53  1  0
 53 54  1  0
 52 55  1  0
 46 56  2  0
 56 57  1  0
 45 58  1  0
 58 59  2  0
 59 60  1  0
 59 61  1  0
 61 62  2  0
 62 63  1  0
 63 64  2  0
 64 65  1  0
 65 66  1  0
 66 67  1  0
 67 68  1  0
 68 69  1  0
 67 70  2  0
 70 71  1  0
 70 72  1  0
 72 73  1  0
 64 74  1  0
 74 75  2  0
 75 76  1  0
 76 77  1  0
 77 78  1  0
 78 79  1  0
 79 80  1  0
 80 81  1  0
 79 82  2  0
 82 83  1  0
 83 84  1  0
 82 85  1  0
 76 86  2  0
 86 87  1  0
 75 88  1  0
 88 89  2  0
 89 90  1  0
 89 91  1  0
 91 92  1  0
 91 93  2  0
 93 94  1  0
 94 95  2  0
 94 96  1  0
 96 97  1  0
 97 98  2  0
 97 99  1  0
 99100  2  0
100101  1  0
101102  2  0
102103  1  0
103104  2  0
104105  1  0
105106  1  0
106107  1  0
107108  1  0
108109  1  0
107110  2  0
110111  1  0
110112  1  0
112113  1  0
104114  1  0
114115  2  0
115116  1  0
116117  1  0
117118  1  0
118119  1  0
119120  1  0
120121  1  0
119122  2  0
122123  1  0
123124  1  0
122125  1  0
116126  2  0
126127  1  0
115128  1  0
128129  2  0
129130  1  0
129131  1  0
131132  2  0
132133  1  0
133134  2  0
134135  1  0
135136  1  0
136137  1  0
137138  1  0
138139  1  0
137140  2  0
140141  1  0
140142  1  0
142143  1  0
134144  1  0
144145  2  0
145146  1  0
146147  1  0
147148  1  0
148149  1  0
149150  1  0
150151  1  0
149152  2  0
152153  1  0
153154  1  0
152155  1  0
146156  2  0
156157  1  0
145158  1  0
158159  2  0
159160  1  0
 27  1  1  0
 57 31  1  0
 87 61  1  0
100 92  1  0
127101  1  0
157131  1  0
 26  3  1  0
 56 33  1  0
 86 63  1  0
 99 93  1  0
126103  1  0
156133  1  0
 12  5  2  0
 30 14  1  0
 42 35  2  0
 60 44  1  0
 72 65  2  0
 90 74  1  0
112105  2  0
130114  1  0
142135  2  0
160144  1  0
 23 17  2  0
 53 47  2  0
 83 77  2  0
123117  2  0
153147  2  0
  1161  1  0
  2162  1  0
  8163  1  0
  8164  1  0
  9165  1  0
  9166  1  0
  9167  1  0
 20168  1  0
 20169  1  0
 21170  1  0
 21171  1  0
 21172  1  0
 28173  1  0
 32174  1  0
 38175  1  0
 38176  1  0
 39177  1  0
 39178  1  0
 39179  1  0
 50180  1  0
 50181  1  0
 51182  1  0
 51183  1  0
 51184  1  0
 58185  1  0
 62186  1  0
 68187  1  0
 68188  1  0
 69189  1  0
 69190  1  0
 69191  1  0
 80192  1  0
 80193  1  0
 81194  1  0
 81195  1  0
 81196  1  0
 88197  1  0
 96198  1  0
102199  1  0
108200  1  0
108201  1  0
109202  1  0
109203  1  0
109204  1  0
120205  1  0
120206  1  0
121207  1  0
121208  1  0
121209  1  0
128210  1  0
132211  1  0
138212  1  0
138213  1  0
139214  1  0
139215  1  0
139216  1  0
150217  1  0
150218  1  0
151219  1  0
151220  1  0
151221  1  0
158222  1  0
159223  1  0
M  END

