
     RDKit          3D

224249  0  0  0  0  0  0  0  0999 V2000
    2.0897   -8.0698   10.3336 C   0  0  0  0  0  0  0  0  0  0  0  0
    1.6158   -6.7994   10.0188 C   0  0  0  0  0  0  0  0  0  0  0  0
    1.0275   -6.7317    8.7448 C   0  0  0  0  0  0  0  0  0  0  0  0
    0.4493   -5.5935    8.1486 C   0  0  0  0  0  0  0  0  0  0  0  0
    0.4770   -4.2740    8.8013 C   0  0  0  0  0  0  0  0  0  0  0  0
   -0.8725   -3.4444    9.3696 S   0  0  0  0  0  0  0  0  0  0  0  0
   -0.0258   -2.1105    9.9531 C   0  0  0  0  0  0  0  0  0  0  0  0
   -0.6585   -0.9061   10.5811 C   0  0  0  0  0  0  0  0  0  0  0  0
   -0.9621    0.1531    9.5287 C   0  0  0  0  0  0  0  0  0  0  0  0
    1.3293   -2.2849    9.6798 C   0  0  0  0  0  0  0  0  0  0  0  0
    2.5625   -1.0975   10.0840 Cl  0  0  0  0  0  0  0  0  0  0  0  0
    1.6115   -3.5018    9.0398 C   0  0  0  0  0  0  0  0  0  0  0  0
    3.2313   -3.9817    8.5463 Cl  0  0  0  0  0  0  0  0  0  0  0  0
   -0.1202   -5.7632    6.8756 C   0  0  0  0  0  0  0  0  0  0  0  0
   -0.0834   -6.9825    6.1893 C   0  0  0  0  0  0  0  0  0  0  0  0
    0.5002   -8.1168    6.7847 C   0  0  0  0  0  0  0  0  0  0  0  0
    0.5286   -9.4215    6.1070 C   0  0  0  0  0  0  0  0  0  0  0  0
    1.4976   -9.7933    4.7845 S   0  0  0  0  0  0  0  0  0  0  0  0
    0.9825  -11.3872    4.6304 C   0  0  0  0  0  0  0  0  0  0  0  0
    1.5167  -12.3588    3.6216 C   0  0  0  0  0  0  0  0  0  0  0  0
    2.5797  -13.2591    4.2430 C   0  0  0  0  0  0  0  0  0  0  0  0
    0.0392  -11.6506    5.6236 C   0  0  0  0  0  0  0  0  0  0  0  0
   -0.2150  -10.5459    6.4519 C   0  0  0  0  0  0  0  0  0  0  0  0
   -1.3715  -10.5745    7.7774 Cl  0  0  0  0  0  0  0  0  0  0  0  0
   -0.7555  -13.2050    5.8275 Cl  0  0  0  0  0  0  0  0  0  0  0  0
    1.0396   -7.9562    8.0710 C   0  0  0  0  0  0  0  0  0  0  0  0
    1.7847   -9.1088    9.0404 S   0  0  0  0  0  0  0  0  0  0  0  0
   -0.6977   -6.9274    4.9268 C   0  0  0  0  0  0  0  0  0  0  0  0
   -1.2250   -5.6697    4.6445 C   0  0  0  0  0  0  0  0  0  0  0  0
   -0.9271   -4.6267    5.9367 S   0  0  0  0  0  0  0  0  0  0  0  0
   -1.9982   -5.3133    3.4494 C   0  0  0  0  0  0  0  0  0  0  0  0
   -3.0100   -4.4287    3.4618 N   0  0  0  0  0  0  0  0  0  0  0  0
   -3.4842   -4.3472    2.2030 C   0  0  0  0  0  0  0  0  0  0  0  0
   -4.6276   -3.4865    1.8293 C   0  0  0  0  0  0  0  0  0  0  0  0
   -4.9425   -2.3897    2.5098 C   0  0  0  0  0  0  0  0  0  0  0  0
   -2.7419   -5.1886    1.3647 C   0  0  0  0  0  0  0  0  0  0  0  0
   -1.7985   -5.8052    2.1744 C   0  0  0  0  0  0  0  0  0  0  0  0
   -2.7480   -5.2450   -0.1168 C   0  0  0  0  0  0  0  0  0  0  0  0
   -1.6191   -5.4853   -0.9036 C   0  0  0  0  0  0  0  0  0  0  0  0
   -1.8067   -5.1623   -2.2617 C   0  0  0  0  0  0  0  0  0  0  0  0
   -0.8084   -5.1088   -3.2607 C   0  0  0  0  0  0  0  0  0  0  0  0
    0.5823   -5.5109   -2.9965 C   0  0  0  0  0  0  0  0  0  0  0  0
    1.6050   -4.7818   -1.8793 S   0  0  0  0  0  0  0  0  0  0  0  0
    2.9125   -5.8088   -2.1419 C   0  0  0  0  0  0  0  0  0  0  0  0
    4.1675   -5.7999   -1.3227 C   0  0  0  0  0  0  0  0  0  0  0  0
    3.9706   -6.6059   -0.0450 C   0  0  0  0  0  0  0  0  0  0  0  0
    2.5541   -6.7535   -3.1015 C   0  0  0  0  0  0  0  0  0  0  0  0
    3.6043   -8.0661   -3.6140 Cl  0  0  0  0  0  0  0  0  0  0  0  0
    1.2513   -6.5759   -3.5924 C   0  0  0  0  0  0  0  0  0  0  0  0
    0.5144   -7.6352   -4.7868 Cl  0  0  0  0  0  0  0  0  0  0  0  0
   -1.1773   -4.5499   -4.4996 C   0  0  0  0  0  0  0  0  0  0  0  0
   -2.4761   -4.1095   -4.7678 C   0  0  0  0  0  0  0  0  0  0  0  0
   -3.4800   -4.2146   -3.7887 C   0  0  0  0  0  0  0  0  0  0  0  0
   -4.8108   -3.6162   -3.9730 C   0  0  0  0  0  0  0  0  0  0  0  0
   -5.1515   -1.9799   -3.7909 S   0  0  0  0  0  0  0  0  0  0  0  0
   -6.8104   -2.1224   -4.0413 C   0  0  0  0  0  0  0  0  0  0  0  0
   -7.7661   -0.9688   -4.0571 C   0  0  0  0  0  0  0  0  0  0  0  0
   -7.7481   -0.2713   -5.4117 C   0  0  0  0  0  0  0  0  0  0  0  0
   -7.1146   -3.4598   -4.2877 C   0  0  0  0  0  0  0  0  0  0  0  0
   -5.9931   -4.3017   -4.2311 C   0  0  0  0  0  0  0  0  0  0  0  0
   -6.0669   -6.0399   -4.4741 Cl  0  0  0  0  0  0  0  0  0  0  0  0
   -8.7396   -4.0410   -4.6199 Cl  0  0  0  0  0  0  0  0  0  0  0  0
   -3.1051   -4.7359   -2.5427 C   0  0  0  0  0  0  0  0  0  0  0  0
   -3.9944   -4.7179   -1.1238 S   0  0  0  0  0  0  0  0  0  0  0  0
   -2.5909   -3.4128   -5.9792 C   0  0  0  0  0  0  0  0  0  0  0  0
   -1.3705   -3.2362   -6.6353 C   0  0  0  0  0  0  0  0  0  0  0  0
   -0.1660   -4.0196   -5.7378 S   0  0  0  0  0  0  0  0  0  0  0  0
   -1.1230   -2.1248   -7.5738 C   0  0  0  0  0  0  0  0  0  0  0  0
    0.0653   -1.3897   -7.5949 C   0  0  0  0  0  0  0  0  0  0  0  0
   -0.1121   -0.0522   -7.9950 C   0  0  0  0  0  0  0  0  0  0  0  0
    0.8391    0.9754   -7.8294 C   0  0  0  0  0  0  0  0  0  0  0  0
    2.2256    0.6810   -7.4199 C   0  0  0  0  0  0  0  0  0  0  0  0
    2.9154    1.1015   -5.9412 S   0  0  0  0  0  0  0  0  0  0  0  0
    4.4318    0.4471   -6.2597 C   0  0  0  0  0  0  0  0  0  0  0  0
    5.5973    0.4831   -5.3119 C   0  0  0  0  0  0  0  0  0  0  0  0
    5.7511   -0.8474   -4.5861 C   0  0  0  0  0  0  0  0  0  0  0  0
    4.4107   -0.1339   -7.5265 C   0  0  0  0  0  0  0  0  0  0  0  0
    5.8006   -0.9298   -8.2576 Cl  0  0  0  0  0  0  0  0  0  0  0  0
    3.1735   -0.0034   -8.1762 C   0  0  0  0  0  0  0  0  0  0  0  0
    2.8579   -0.6223   -9.7924 Cl  0  0  0  0  0  0  0  0  0  0  0  0
    0.3573    2.2964   -7.8804 C   0  0  0  0  0  0  0  0  0  0  0  0
   -0.9796    2.5997   -8.1540 C   0  0  0  0  0  0  0  0  0  0  0  0
   -1.8960    1.5761   -8.4732 C   0  0  0  0  0  0  0  0  0  0  0  0
   -3.3170    1.8809   -8.7515 C   0  0  0  0  0  0  0  0  0  0  0  0
   -4.6272    1.3329   -7.8464 S   0  0  0  0  0  0  0  0  0  0  0  0
   -5.8085    2.1588   -8.7121 C   0  0  0  0  0  0  0  0  0  0  0  0
   -7.2712    2.1403   -8.3855 C   0  0  0  0  0  0  0  0  0  0  0  0
   -7.5882    3.1302   -7.2704 C   0  0  0  0  0  0  0  0  0  0  0  0
   -5.1877    2.9080   -9.7109 C   0  0  0  0  0  0  0  0  0  0  0  0
   -3.7936    2.7476   -9.7359 C   0  0  0  0  0  0  0  0  0  0  0  0
   -2.7568    3.5493  -10.9092 Cl  0  0  0  0  0  0  0  0  0  0  0  0
   -6.0541    3.9662  -10.8162 Cl  0  0  0  0  0  0  0  0  0  0  0  0
   -1.4346    0.2532   -8.3394 C   0  0  0  0  0  0  0  0  0  0  0  0
   -2.3601   -1.1337   -8.1565 S   0  0  0  0  0  0  0  0  0  0  0  0
   -1.3323    3.9193   -7.8092 C   0  0  0  0  0  0  0  0  0  0  0  0
   -0.2887    4.6420   -7.2291 C   0  0  0  0  0  0  0  0  0  0  0  0
    1.0897    3.6677   -7.2507 S   0  0  0  0  0  0  0  0  0  0  0  0
   -0.5075    5.5859   -6.1233 C   0  0  0  0  0  0  0  0  0  0  0  0
    0.5389    6.2402   -5.4671 C   0  0  0  0  0  0  0  0  0  0  0  0
    0.3059    6.4252   -4.0930 C   0  0  0  0  0  0  0  0  0  0  0  0
    1.2731    6.8174   -3.1474 C   0  0  0  0  0  0  0  0  0  0  0  0
    2.5978    7.2967   -3.5591 C   0  0  0  0  0  0  0  0  0  0  0  0
    2.9429    8.8819   -3.9833 S   0  0  0  0  0  0  0  0  0  0  0  0
    4.5716    8.6251   -4.3288 C   0  0  0  0  0  0  0  0  0  0  0  0
    5.5090    9.6678   -4.8702 C   0  0  0  0  0  0  0  0  0  0  0  0
    5.4492   10.9565   -4.0494 C   0  0  0  0  0  0  0  0  0  0  0  0
    4.8502    7.2677   -4.1515 C   0  0  0  0  0  0  0  0  0  0  0  0
    6.4262    6.5468   -4.4483 Cl  0  0  0  0  0  0  0  0  0  0  0  0
    3.7427    6.5257   -3.7133 C   0  0  0  0  0  0  0  0  0  0  0  0
    3.7863    4.7909   -3.4194 Cl  0  0  0  0  0  0  0  0  0  0  0  0
    0.9750    6.5844   -1.7960 C   0  0  0  0  0  0  0  0  0  0  0  0
   -0.2429    6.0366   -1.3844 C   0  0  0  0  0  0  0  0  0  0  0  0
   -1.2582    5.7562   -2.3179 C   0  0  0  0  0  0  0  0  0  0  0  0
   -2.5171    5.1115   -1.8953 C   0  0  0  0  0  0  0  0  0  0  0  0
   -2.9049    3.4953   -2.1681 S   0  0  0  0  0  0  0  0  0  0  0  0
   -4.2808    3.4803   -1.1989 C   0  0  0  0  0  0  0  0  0  0  0  0
   -5.1683    2.2900   -0.9918 C   0  0  0  0  0  0  0  0  0  0  0  0
   -6.2917    2.2717   -2.0191 C   0  0  0  0  0  0  0  0  0  0  0  0
   -4.4594    4.7501   -0.6522 C   0  0  0  0  0  0  0  0  0  0  0  0
   -3.4607    5.6594   -1.0285 C   0  0  0  0  0  0  0  0  0  0  0  0
   -3.3963    7.3183   -0.4570 Cl  0  0  0  0  0  0  0  0  0  0  0  0
   -5.7784    5.1655    0.4347 Cl  0  0  0  0  0  0  0  0  0  0  0  0
   -0.9371    5.9414   -3.6732 C   0  0  0  0  0  0  0  0  0  0  0  0
   -1.7446    5.3179   -5.0009 S   0  0  0  0  0  0  0  0  0  0  0  0
   -0.2403    5.6297   -0.0431 C   0  0  0  0  0  0  0  0  0  0  0  0
    0.9730    5.8623    0.5951 C   0  0  0  0  0  0  0  0  0  0  0  0
    2.0416    6.5781   -0.4947 S   0  0  0  0  0  0  0  0  0  0  0  0
    1.4066    5.1070    1.7648 C   0  0  0  0  0  0  0  0  0  0  0  0
    1.4271    3.7165    1.8280 C   0  0  0  0  0  0  0  0  0  0  0  0
    1.9259    3.2362    3.0440 C   0  0  0  0  0  0  0  0  0  0  0  0
    2.0955    1.8837    3.3974 C   0  0  0  0  0  0  0  0  0  0  0  0
    1.7568    0.7853    2.4729 C   0  0  0  0  0  0  0  0  0  0  0  0
    0.4390   -0.2468    2.6499 S   0  0  0  0  0  0  0  0  0  0  0  0
    0.7210   -1.1443    1.2534 C   0  0  0  0  0  0  0  0  0  0  0  0
   -0.1746   -2.2378    0.7484 C   0  0  0  0  0  0  0  0  0  0  0  0
   -1.0434   -1.7358   -0.4021 C   0  0  0  0  0  0  0  0  0  0  0  0
    1.8603   -0.6405    0.6243 C   0  0  0  0  0  0  0  0  0  0  0  0
    2.5179   -1.2945   -0.8704 Cl  0  0  0  0  0  0  0  0  0  0  0  0
    2.4370    0.4428    1.3072 C   0  0  0  0  0  0  0  0  0  0  0  0
    3.8787    1.2835    0.7477 Cl  0  0  0  0  0  0  0  0  0  0  0  0
    2.6053    1.6231    4.6785 C   0  0  0  0  0  0  0  0  0  0  0  0
    2.9259    2.6406    5.5827 C   0  0  0  0  0  0  0  0  0  0  0  0
    2.7345    3.9944    5.2346 C   0  0  0  0  0  0  0  0  0  0  0  0
    2.9637    5.0905    6.1913 C   0  0  0  0  0  0  0  0  0  0  0  0
    4.4682    5.5701    6.7725 S   0  0  0  0  0  0  0  0  0  0  0  0
    3.8915    6.8391    7.7177 C   0  0  0  0  0  0  0  0  0  0  0  0
    4.7547    7.7812    8.4979 C   0  0  0  0  0  0  0  0  0  0  0  0
    5.1174    9.0000    7.6542 C   0  0  0  0  0  0  0  0  0  0  0  0
    2.5079    6.9135    7.5761 C   0  0  0  0  0  0  0  0  0  0  0  0
    1.9872    5.9324    6.7225 C   0  0  0  0  0  0  0  0  0  0  0  0
    0.2699    5.7677    6.3770 Cl  0  0  0  0  0  0  0  0  0  0  0  0
    1.5115    8.1290    8.3651 Cl  0  0  0  0  0  0  0  0  0  0  0  0
    2.2534    4.2579    3.9410 C   0  0  0  0  0  0  0  0  0  0  0  0
    1.9844    5.7560    3.2101 S   0  0  0  0  0  0  0  0  0  0  0  0
    3.4174    2.1512    6.8031 C   0  0  0  0  0  0  0  0  0  0  0  0
    3.4953    0.7610    6.8453 C   0  0  0  0  0  0  0  0  0  0  0  0
    2.9420    0.1324    5.3808 S   0  0  0  0  0  0  0  0  0  0  0  0
    2.5746   -8.3460   11.2596 H   0  0  0  0  0  0  0  0  0  0  0  0
    1.6941   -5.9607   10.6988 H   0  0  0  0  0  0  0  0  0  0  0  0
    0.0232   -0.4808   11.3461 H   0  0  0  0  0  0  0  0  0  0  0  0
   -1.5981   -1.2047   11.0898 H   0  0  0  0  0  0  0  0  0  0  0  0
   -1.6714   -0.2501    8.7754 H   0  0  0  0  0  0  0  0  0  0  0  0
   -0.0277    0.4744    9.0207 H   0  0  0  0  0  0  0  0  0  0  0  0
   -1.4285    1.0386   10.0147 H   0  0  0  0  0  0  0  0  0  0  0  0
    1.9707  -11.7990    2.7783 H   0  0  0  0  0  0  0  0  0  0  0  0
    0.6929  -12.9800    3.2147 H   0  0  0  0  0  0  0  0  0  0  0  0
    2.1435  -13.8642    5.0668 H   0  0  0  0  0  0  0  0  0  0  0  0
    3.4184  -12.6498    4.6449 H   0  0  0  0  0  0  0  0  0  0  0  0
    2.9809  -13.9478    3.4688 H   0  0  0  0  0  0  0  0  0  0  0  0
   -0.7987   -7.7748    4.2617 H   0  0  0  0  0  0  0  0  0  0  0  0
   -3.3778   -3.9319    4.3036 H   0  0  0  0  0  0  0  0  0  0  0  0
   -5.2577   -3.7593    0.9981 H   0  0  0  0  0  0  0  0  0  0  0  0
   -4.3512   -2.0505    3.3507 H   0  0  0  0  0  0  0  0  0  0  0  0
   -5.7993   -1.8001    2.2129 H   0  0  0  0  0  0  0  0  0  0  0  0
   -1.0253   -6.4918    1.8619 H   0  0  0  0  0  0  0  0  0  0  0  0
   -0.6673   -5.7801   -0.4850 H   0  0  0  0  0  0  0  0  0  0  0  0
    5.0109   -6.2211   -1.9068 H   0  0  0  0  0  0  0  0  0  0  0  0
    4.4277   -4.7511   -1.0617 H   0  0  0  0  0  0  0  0  0  0  0  0
    3.2004   -6.1244    0.5938 H   0  0  0  0  0  0  0  0  0  0  0  0
    3.6555   -7.6437   -0.2873 H   0  0  0  0  0  0  0  0  0  0  0  0
    4.9262   -6.6463    0.5205 H   0  0  0  0  0  0  0  0  0  0  0  0
   -7.4786   -0.2510   -3.2647 H   0  0  0  0  0  0  0  0  0  0  0  0
   -8.7952   -1.3184   -3.8359 H   0  0  0  0  0  0  0  0  0  0  0  0
   -6.7299    0.1072   -5.6413 H   0  0  0  0  0  0  0  0  0  0  0  0
   -8.0721   -0.9736   -6.2092 H   0  0  0  0  0  0  0  0  0  0  0  0
   -8.4444    0.5946   -5.3923 H   0  0  0  0  0  0  0  0  0  0  0  0
   -3.5048   -2.9253   -6.2903 H   0  0  0  0  0  0  0  0  0  0  0  0
    0.9889   -1.7533   -7.1570 H   0  0  0  0  0  0  0  0  0  0  0  0
    6.5279    0.7100   -5.8745 H   0  0  0  0  0  0  0  0  0  0  0  0
    5.4435    1.2912   -4.5650 H   0  0  0  0  0  0  0  0  0  0  0  0
    6.6117   -0.7902   -3.8862 H   0  0  0  0  0  0  0  0  0  0  0  0
    4.8350   -1.0826   -4.0067 H   0  0  0  0  0  0  0  0  0  0  0  0
    5.9451   -1.6632   -5.3140 H   0  0  0  0  0  0  0  0  0  0  0  0
   -7.5597    1.1194   -8.0649 H   0  0  0  0  0  0  0  0  0  0  0  0
   -7.8694    2.3950   -9.2854 H   0  0  0  0  0  0  0  0  0  0  0  0
   -8.6802    3.1209   -7.0687 H   0  0  0  0  0  0  0  0  0  0  0  0
   -7.0526    2.8480   -6.3411 H   0  0  0  0  0  0  0  0  0  0  0  0
   -7.2866    4.1567   -7.5676 H   0  0  0  0  0  0  0  0  0  0  0  0
   -2.3558    4.2682   -7.7863 H   0  0  0  0  0  0  0  0  0  0  0  0
    1.5059    6.4045   -5.9287 H   0  0  0  0  0  0  0  0  0  0  0  0
    5.2335    9.8906   -5.9212 H   0  0  0  0  0  0  0  0  0  0  0  0
    6.5544    9.2959   -4.8565 H   0  0  0  0  0  0  0  0  0  0  0  0
    4.4403   11.4134   -4.1138 H   0  0  0  0  0  0  0  0  0  0  0  0
    6.1856   11.6859   -4.4480 H   0  0  0  0  0  0  0  0  0  0  0  0
    5.6928   10.7451   -2.9863 H   0  0  0  0  0  0  0  0  0  0  0  0
   -4.5686    1.3610   -1.0774 H   0  0  0  0  0  0  0  0  0  0  0  0
   -5.6046    2.3135    0.0289 H   0  0  0  0  0  0  0  0  0  0  0  0
   -5.8764    2.1362   -3.0422 H   0  0  0  0  0  0  0  0  0  0  0  0
   -6.8734    3.2184   -1.9762 H   0  0  0  0  0  0  0  0  0  0  0  0
   -6.9766    1.4310   -1.7893 H   0  0  0  0  0  0  0  0  0  0  0  0
   -1.0415    5.0615    0.4149 H   0  0  0  0  0  0  0  0  0  0  0  0
    1.1084    3.0814    1.0115 H   0  0  0  0  0  0  0  0  0  0  0  0
    0.4343   -3.1010    0.4146 H   0  0  0  0  0  0  0  0  0  0  0  0
   -0.8333   -2.5822    1.5711 H   0  0  0  0  0  0  0  0  0  0  0  0
   -1.7280   -2.5453   -0.7320 H   0  0  0  0  0  0  0  0  0  0  0  0
   -0.4096   -1.4488   -1.2665 H   0  0  0  0  0  0  0  0  0  0  0  0
   -1.6535   -0.8647   -0.0804 H   0  0  0  0  0  0  0  0  0  0  0  0
    5.6832    7.2629    8.8138 H   0  0  0  0  0  0  0  0  0  0  0  0
    4.2200    8.1133    9.4143 H   0  0  0  0  0  0  0  0  0  0  0  0
    4.1980    9.5258    7.3163 H   0  0  0  0  0  0  0  0  0  0  0  0
    5.7048    8.6896    6.7635 H   0  0  0  0  0  0  0  0  0  0  0  0
    5.7276    9.7053    8.2579 H   0  0  0  0  0  0  0  0  0  0  0  0
    3.7130    2.7786    7.6342 H   0  0  0  0  0  0  0  0  0  0  0  0
    3.8660    0.1788    7.6801 H   0  0  0  0  0  0  0  0  0  0  0  0
  1  2  2  0
  2  3  1  0
  3  4  2  0
  4  5  1  0
  5  6  1  0
  6  7  1  0
  7  8  1  0
  8  9  1  0
  7 10  2  0
 10 11  1  0
 10 12  1  0
 12 13  1  0
  4 14  1  0
 14 15  2  0
 15 16  1  0
 16 17  1  0
 17 18  1  0
 18 19  1  0
 19 20  1  0
 20 21  1  0
 19 22  2  0
 22 23  1  0
 23 24  1  0
 22 25  1  0
 16 26  2  0
 26 27  1  0
 15 28  1  0
 28 29  2  0
 29 30  1  0
 29 31  1  0
 31 32  1  0
 32 33  1  0
 33 34  1  0
 34 35  2  3
 33 36  2  0
 36 37  1  0
 36 38  1  0
 38 39  2  0
 39 40  1  0
 40 41  2  0
 41 42  1  0
 42 43  1  0
 43 44  1  0
 44 45  1  0
 45 46  1  0
 44 47  2  0
 47 48  1  0
 47 49  1  0
 49 50  1  0
 41 51  1  0
 51 52  2  0
 52 53  1  0
 53 54  1  0
 54 55  1  0
 55 56  1  0
 56 57  1  0
 57 58  1  0
 56 59  2  0
 59 60  1  0
 60 61  1  0
 59 62  1  0
 53 63  2  0
 63 64  1  0
 52 65  1  0
 65 66  2  0
 66 67  1  0
 66 68  1  0
 68 69  2  0
 69 70  1  0
 70 71  2  0
 71 72  1  0
 72 73  1  0
 73 74  1  0
 74 75  1  0
 75 76  1  0
 74 77  2  0
 77 78  1  0
 77 79  1  0
 79 80  1  0
 71 81  1  0
 81 82  2  0
 82 83  1  0
 83 84  1  0
 84 85  1  0
 85 86  1  0
 86 87  1  0
 87 88  1  0
 86 89  2  0
 89 90  1  0
 90 91  1  0
 89 92  1  0
 83 93  2  0
 93 94  1  0
 82 95  1  0
 95 96  2  0
 96 97  1  0
 96 98  1  0
 98 99  2  0
 99100  1  0
100101  2  0
101102  1  0
102103  1  0
103104  1  0
104105  1  0
105106  1  0
104107  2  0
107108  1  0
107109  1  0
109110  1  0
101111  1  0
111112  2  0
112113  1  0
113114  1  0
114115  1  0
115116  1  0
116117  1  0
117118  1  0
116119  2  0
119120  1  0
120121  1  0
119122  1  0
113123  2  0
123124  1  0
112125  1  0
125126  2  0
126127  1  0
126128  1  0
128129  2  0
129130  1  0
130131  2  0
131132  1  0
132133  1  0
133134  1  0
134135  1  0
135136  1  0
134137  2  0
137138  1  0
137139  1  0
139140  1  0
131141  1  0
141142  2  0
142143  1  0
143144  1  0
144145  1  0
145146  1  0
146147  1  0
147148  1  0
146149  2  0
149150  1  0
150151  1  0
149152  1  0
143153  2  0
153154  1  0
142155  1  0
155156  2  0
156157  1  0
 27  1  1  0
 37 31  2  0
 64 38  1  0
 94 68  1  0
124 98  1  0
154128  1  0
 26  3  1  0
 63 40  1  0
 93 70  1  0
123100  1  0
153130  1  0
 12  5  2  0
 30 14  1  0
 49 42  2  0
 67 51  1  0
 79 72  2  0
 97 81  1  0
109102  2  0
127111  1  0
139132  2  0
157141  1  0
 23 17  2  0
 60 54  2  0
 90 84  2  0
120114  2  0
150144  2  0
  1158  1  0
  2159  1  0
  8160  1  0
  8161  1  0
  9162  1  0
  9163  1  0
  9164  1  0
 20165  1  0
 20166  1  0
 21167  1  0
 21168  1  0
 21169  1  0
 28170  1  0
 32171  1  0
 34172  1  0
 35173  1  0
 35174  1  0
 37175  1  0
 39176  1  0
 45177  1  0
 45178  1  0
 46179  1  0
 46180  1  0
 46181  1  0
 57182  1  0
 57183  1  0
 58184  1  0
 58185  1  0
 58186  1  0
 65187  1  0
 69188  1  0
 75189  1  0
 75190  1  0
 76191  1  0
 76192  1  0
 76193  1  0
 87194  1  0
 87195  1  0
 88196  1  0
 88197  1  0
 88198  1  0
 95199  1  0
 99200  1  0
105201  1  0
105202  1  0
106203  1  0
106204  1  0
106205  1  0
117206  1  0
117207  1  0
118208  1  0
118209  1  0
118210  1  0
125211  1  0
129212  1  0
135213  1  0
135214  1  0
136215  1  0
136216  1  0
136217  1  0
147218  1  0
147219  1  0
148220  1  0
148221  1  0
148222  1  0
155223  1  0
156224  1  0
M  END

