
     RDKit          3D

232258  0  0  0  0  0  0  0  0999 V2000
    3.8332   -8.0694    8.3076 C   0  0  0  0  0  0  0  0  0  0  0  0
    3.5770   -6.9351    9.0581 C   0  0  0  0  0  0  0  0  0  0  0  0
    2.7399   -5.9989    8.4235 C   0  0  0  0  0  0  0  0  0  0  0  0
    2.2675   -4.7734    8.9637 C   0  0  0  0  0  0  0  0  0  0  0  0
    2.6963   -4.3488   10.3064 C   0  0  0  0  0  0  0  0  0  0  0  0
    4.3045   -4.3149   10.8385 S   0  0  0  0  0  0  0  0  0  0  0  0
    3.9403   -4.1351   12.4625 C   0  0  0  0  0  0  0  0  0  0  0  0
    4.9709   -4.0598   13.5415 C   0  0  0  0  0  0  0  0  0  0  0  0
    5.3856   -2.6072   13.7649 C   0  0  0  0  0  0  0  0  0  0  0  0
    2.5528   -4.0332   12.5976 C   0  0  0  0  0  0  0  0  0  0  0  0
    1.7622   -3.8632   14.1515 Cl  0  0  0  0  0  0  0  0  0  0  0  0
    1.8758   -4.1807   11.3996 C   0  0  0  0  0  0  0  0  0  0  0  0
    0.1123   -4.1921   11.3169 Cl  0  0  0  0  0  0  0  0  0  0  0  0
    1.3422   -4.0418    8.1801 C   0  0  0  0  0  0  0  0  0  0  0  0
    0.9689   -4.4594    6.8847 C   0  0  0  0  0  0  0  0  0  0  0  0
    1.4831   -5.6633    6.3370 C   0  0  0  0  0  0  0  0  0  0  0  0
    1.0927   -6.1522    4.9993 C   0  0  0  0  0  0  0  0  0  0  0  0
    2.1795   -6.7269    3.8504 S   0  0  0  0  0  0  0  0  0  0  0  0
    1.0283   -7.3100    2.7786 C   0  0  0  0  0  0  0  0  0  0  0  0
    1.3258   -8.0139    1.4909 C   0  0  0  0  0  0  0  0  0  0  0  0
    1.2766   -7.0432    0.3131 C   0  0  0  0  0  0  0  0  0  0  0  0
   -0.2347   -7.0383    3.3102 C   0  0  0  0  0  0  0  0  0  0  0  0
   -0.2052   -6.4226    4.5450 C   0  0  0  0  0  0  0  0  0  0  0  0
   -1.6534   -6.1307    5.5034 Cl  0  0  0  0  0  0  0  0  0  0  0  0
   -1.7191   -7.5071    2.4913 Cl  0  0  0  0  0  0  0  0  0  0  0  0
    2.3483   -6.4085    7.1501 C   0  0  0  0  0  0  0  0  0  0  0  0
    3.0272   -7.9234    6.8373 S   0  0  0  0  0  0  0  0  0  0  0  0
    0.1033   -3.5415    6.2657 C   0  0  0  0  0  0  0  0  0  0  0  0
   -0.2175   -2.4201    7.0340 C   0  0  0  0  0  0  0  0  0  0  0  0
    0.5999   -2.5472    8.5135 S   0  0  0  0  0  0  0  0  0  0  0  0
   -1.0139   -1.2814    6.5307 C   0  0  0  0  0  0  0  0  0  0  0  0
   -1.2549   -1.0729    5.1797 C   0  0  0  0  0  0  0  0  0  0  0  0
   -1.9125    0.1146    4.8690 C   0  0  0  0  0  0  0  0  0  0  0  0
   -2.1811    0.5991    3.5571 C   0  0  0  0  0  0  0  0  0  0  0  0
   -1.6865   -0.1202    2.3701 C   0  0  0  0  0  0  0  0  0  0  0  0
   -2.6558   -0.6202    1.0872 S   0  0  0  0  0  0  0  0  0  0  0  0
   -1.4490   -1.4856    0.2858 C   0  0  0  0  0  0  0  0  0  0  0  0
   -1.6343   -2.2520   -0.9998 C   0  0  0  0  0  0  0  0  0  0  0  0
   -1.9580   -3.7141   -0.7204 C   0  0  0  0  0  0  0  0  0  0  0  0
   -0.2825   -1.4193    1.0405 C   0  0  0  0  0  0  0  0  0  0  0  0
    1.1680   -2.3282    0.6671 Cl  0  0  0  0  0  0  0  0  0  0  0  0
   -0.3925   -0.6147    2.1682 C   0  0  0  0  0  0  0  0  0  0  0  0
    0.9898   -0.2233    3.1940 Cl  0  0  0  0  0  0  0  0  0  0  0  0
   -2.9208    1.7908    3.4800 C   0  0  0  0  0  0  0  0  0  0  0  0
   -3.4033    2.4921    4.6093 C   0  0  0  0  0  0  0  0  0  0  0  0
   -3.0926    2.0270    5.9134 C   0  0  0  0  0  0  0  0  0  0  0  0
   -3.5542    2.7571    7.1138 C   0  0  0  0  0  0  0  0  0  0  0  0
   -3.3877    4.4262    7.3492 S   0  0  0  0  0  0  0  0  0  0  0  0
   -4.1404    4.4584    8.8479 C   0  0  0  0  0  0  0  0  0  0  0  0
   -4.2998    5.6818    9.7006 C   0  0  0  0  0  0  0  0  0  0  0  0
   -3.2659    5.6807   10.8232 C   0  0  0  0  0  0  0  0  0  0  0  0
   -4.4921    3.1569    9.2058 C   0  0  0  0  0  0  0  0  0  0  0  0
   -4.1984    2.2236    8.2291 C   0  0  0  0  0  0  0  0  0  0  0  0
   -4.6819    0.5343    8.3911 Cl  0  0  0  0  0  0  0  0  0  0  0  0
   -5.2934    2.7662   10.7219 Cl  0  0  0  0  0  0  0  0  0  0  0  0
   -2.3301    0.8208    6.0014 C   0  0  0  0  0  0  0  0  0  0  0  0
   -1.7083    0.0099    7.3804 S   0  0  0  0  0  0  0  0  0  0  0  0
   -4.2238    3.5921    4.2113 C   0  0  0  0  0  0  0  0  0  0  0  0
   -4.3119    3.7923    2.8252 C   0  0  0  0  0  0  0  0  0  0  0  0
   -3.4204    2.5655    2.0850 S   0  0  0  0  0  0  0  0  0  0  0  0
   -5.2111    4.6828    2.0359 C   0  0  0  0  0  0  0  0  0  0  0  0
   -6.5983    4.4984    2.0398 C   0  0  0  0  0  0  0  0  0  0  0  0
   -7.1684    4.4297    0.7617 C   0  0  0  0  0  0  0  0  0  0  0  0
   -8.4117    3.8524    0.4632 C   0  0  0  0  0  0  0  0  0  0  0  0
   -9.4792    3.7983    1.4276 C   0  0  0  0  0  0  0  0  0  0  0  0
   -9.5748    2.7746    2.7434 S   0  0  0  0  0  0  0  0  0  0  0  0
  -11.1156    3.3265    3.2094 C   0  0  0  0  0  0  0  0  0  0  0  0
  -11.7260    2.9848    4.5298 C   0  0  0  0  0  0  0  0  0  0  0  0
  -11.7658    4.1878    5.4884 C   0  0  0  0  0  0  0  0  0  0  0  0
  -11.5199    4.3340    2.3100 C   0  0  0  0  0  0  0  0  0  0  0  0
  -12.9158    5.3589    2.5610 Cl  0  0  0  0  0  0  0  0  0  0  0  0
  -10.5731    4.6308    1.3655 C   0  0  0  0  0  0  0  0  0  0  0  0
  -10.8390    5.7892    0.0543 Cl  0  0  0  0  0  0  0  0  0  0  0  0
   -8.6323    3.4369   -0.8576 C   0  0  0  0  0  0  0  0  0  0  0  0
   -7.7211    3.6961   -1.8720 C   0  0  0  0  0  0  0  0  0  0  0  0
   -6.5948    4.5318   -1.6298 C   0  0  0  0  0  0  0  0  0  0  0  0
   -6.1094    5.3825   -2.7461 C   0  0  0  0  0  0  0  0  0  0  0  0
   -4.5486    5.9747   -2.9524 S   0  0  0  0  0  0  0  0  0  0  0  0
   -4.8976    7.0492   -4.2085 C   0  0  0  0  0  0  0  0  0  0  0  0
   -3.8978    7.9005   -4.9390 C   0  0  0  0  0  0  0  0  0  0  0  0
   -3.5284    7.2714   -6.2783 C   0  0  0  0  0  0  0  0  0  0  0  0
   -6.2615    6.9663   -4.4655 C   0  0  0  0  0  0  0  0  0  0  0  0
   -6.9425    6.0720   -3.6628 C   0  0  0  0  0  0  0  0  0  0  0  0
   -8.6956    5.9495   -3.6936 Cl  0  0  0  0  0  0  0  0  0  0  0  0
   -7.0662    7.9607   -5.6766 Cl  0  0  0  0  0  0  0  0  0  0  0  0
   -6.3098    4.7904   -0.2786 C   0  0  0  0  0  0  0  0  0  0  0  0
   -4.8068    5.0573    0.4270 S   0  0  0  0  0  0  0  0  0  0  0  0
   -8.0138    2.9929   -3.0566 C   0  0  0  0  0  0  0  0  0  0  0  0
   -9.1303    2.1609   -2.9904 C   0  0  0  0  0  0  0  0  0  0  0  0
   -9.7926    2.3477   -1.4239 S   0  0  0  0  0  0  0  0  0  0  0  0
   -9.1690    0.8437   -3.6507 C   0  0  0  0  0  0  0  0  0  0  0  0
   -8.1594   -0.0004   -3.3760 C   0  0  0  0  0  0  0  0  0  0  0  0
   -7.9157   -0.8671   -4.5102 C   0  0  0  0  0  0  0  0  0  0  0  0
   -8.9316   -0.4630   -5.4909 C   0  0  0  0  0  0  0  0  0  0  0  0
   -9.5502    0.6227   -5.0442 C   0  0  0  0  0  0  0  0  0  0  0  0
   -8.9610   -0.8978   -6.7794 F   0  0  0  0  0  0  0  0  0  0  0  0
   -6.6644   -1.1326   -4.8902 C   0  0  0  0  0  0  0  0  0  0  0  0
   -6.2572   -2.1460   -5.8582 C   0  0  0  0  0  0  0  0  0  0  0  0
   -5.0467   -1.8095   -6.2948 C   0  0  0  0  0  0  0  0  0  0  0  0
   -4.7087   -0.4837   -5.7916 C   0  0  0  0  0  0  0  0  0  0  0  0
   -5.6530   -0.0618   -4.9664 C   0  0  0  0  0  0  0  0  0  0  0  0
   -6.0513    1.2077   -5.0434 F   0  0  0  0  0  0  0  0  0  0  0  0
   -4.3505   -2.5358   -7.4044 C   0  0  0  0  0  0  0  0  0  0  0  0
   -3.2850   -2.0349   -8.0226 C   0  0  0  0  0  0  0  0  0  0  0  0
   -1.9366   -2.0034   -7.4208 C   0  0  0  0  0  0  0  0  0  0  0  0
   -1.4492   -1.2043   -6.3608 C   0  0  0  0  0  0  0  0  0  0  0  0
   -0.0599   -1.3039   -6.1696 C   0  0  0  0  0  0  0  0  0  0  0  0
    0.7435   -0.5677   -5.2624 C   0  0  0  0  0  0  0  0  0  0  0  0
    0.1700    0.4049   -4.3141 C   0  0  0  0  0  0  0  0  0  0  0  0
   -0.8521    1.6827   -4.7336 S   0  0  0  0  0  0  0  0  0  0  0  0
   -0.7792    2.4404   -3.2324 C   0  0  0  0  0  0  0  0  0  0  0  0
   -1.4863    3.7048   -2.8808 C   0  0  0  0  0  0  0  0  0  0  0  0
   -2.5208    3.4481   -1.7979 C   0  0  0  0  0  0  0  0  0  0  0  0
    0.0614    1.7084   -2.3905 C   0  0  0  0  0  0  0  0  0  0  0  0
    0.4515    2.1822   -0.7487 Cl  0  0  0  0  0  0  0  0  0  0  0  0
    0.5724    0.5732   -2.9865 C   0  0  0  0  0  0  0  0  0  0  0  0
    1.5607   -0.5730   -2.0831 Cl  0  0  0  0  0  0  0  0  0  0  0  0
    2.1417   -0.7916   -5.3223 C   0  0  0  0  0  0  0  0  0  0  0  0
    2.7333   -1.6676   -6.2300 C   0  0  0  0  0  0  0  0  0  0  0  0
    1.9507   -2.3520   -7.1822 C   0  0  0  0  0  0  0  0  0  0  0  0
    2.5981   -3.0021   -8.3214 C   0  0  0  0  0  0  0  0  0  0  0  0
    3.7450   -2.2299   -9.3011 S   0  0  0  0  0  0  0  0  0  0  0  0
    3.9518   -3.5285  -10.3502 C   0  0  0  0  0  0  0  0  0  0  0  0
    4.7794   -3.4624  -11.5971 C   0  0  0  0  0  0  0  0  0  0  0  0
    3.9034   -3.0482  -12.7714 C   0  0  0  0  0  0  0  0  0  0  0  0
    3.1260   -4.5714   -9.9400 C   0  0  0  0  0  0  0  0  0  0  0  0
    2.3867   -4.2750   -8.8032 C   0  0  0  0  0  0  0  0  0  0  0  0
    1.2851   -5.4465   -8.0768 Cl  0  0  0  0  0  0  0  0  0  0  0  0
    3.0608   -6.1099  -10.7824 Cl  0  0  0  0  0  0  0  0  0  0  0  0
    0.5472   -2.1832   -7.0938 C   0  0  0  0  0  0  0  0  0  0  0  0
   -0.6215   -2.7490   -8.1394 S   0  0  0  0  0  0  0  0  0  0  0  0
    4.1205   -1.7366   -6.0848 C   0  0  0  0  0  0  0  0  0  0  0  0
    4.6509   -0.9048   -5.1031 C   0  0  0  0  0  0  0  0  0  0  0  0
    3.3647   -0.0269   -4.4289 S   0  0  0  0  0  0  0  0  0  0  0  0
    6.0333   -0.8642   -4.6440 C   0  0  0  0  0  0  0  0  0  0  0  0
    7.0885   -1.4493   -5.3126 C   0  0  0  0  0  0  0  0  0  0  0  0
    8.3300   -1.3125   -4.6731 C   0  0  0  0  0  0  0  0  0  0  0  0
    9.5861   -1.7771   -5.1268 C   0  0  0  0  0  0  0  0  0  0  0  0
    9.7059   -2.4931   -6.4041 C   0  0  0  0  0  0  0  0  0  0  0  0
    9.0803   -1.9696   -7.8924 S   0  0  0  0  0  0  0  0  0  0  0  0
    9.5292   -3.3439   -8.7525 C   0  0  0  0  0  0  0  0  0  0  0  0
    9.1362   -3.6269  -10.1634 C   0  0  0  0  0  0  0  0  0  0  0  0
    7.8472   -4.4497  -10.1913 C   0  0  0  0  0  0  0  0  0  0  0  0
   10.1493   -4.2383   -7.8800 C   0  0  0  0  0  0  0  0  0  0  0  0
   10.7088   -5.8291   -8.3778 Cl  0  0  0  0  0  0  0  0  0  0  0  0
   10.2498   -3.7609   -6.5848 C   0  0  0  0  0  0  0  0  0  0  0  0
   10.9260   -4.7194   -5.2694 Cl  0  0  0  0  0  0  0  0  0  0  0  0
   10.6973   -1.5184   -4.3062 C   0  0  0  0  0  0  0  0  0  0  0  0
   10.6015   -0.8648   -3.0757 C   0  0  0  0  0  0  0  0  0  0  0  0
    9.3417   -0.4257   -2.5958 C   0  0  0  0  0  0  0  0  0  0  0  0
    9.2313    0.2368   -1.2940 C   0  0  0  0  0  0  0  0  0  0  0  0
    9.8757   -0.3775    0.1419 S   0  0  0  0  0  0  0  0  0  0  0  0
    9.8217    1.0559    0.9952 C   0  0  0  0  0  0  0  0  0  0  0  0
   10.4084    1.2115    2.3702 C   0  0  0  0  0  0  0  0  0  0  0  0
    9.4270    0.7720    3.4492 C   0  0  0  0  0  0  0  0  0  0  0  0
    9.2831    2.0400    0.1711 C   0  0  0  0  0  0  0  0  0  0  0  0
    8.9705    1.5830   -1.0957 C   0  0  0  0  0  0  0  0  0  0  0  0
    8.2523    2.6206   -2.3299 Cl  0  0  0  0  0  0  0  0  0  0  0  0
    9.1309    3.7142    0.6726 Cl  0  0  0  0  0  0  0  0  0  0  0  0
    8.2297   -0.6234   -3.4483 C   0  0  0  0  0  0  0  0  0  0  0  0
    6.6068   -0.1925   -3.2014 S   0  0  0  0  0  0  0  0  0  0  0  0
   11.8492   -0.6694   -2.4569 C   0  0  0  0  0  0  0  0  0  0  0  0
   12.9244   -1.1309   -3.1903 C   0  0  0  0  0  0  0  0  0  0  0  0
   12.3336   -1.7946   -4.6222 S   0  0  0  0  0  0  0  0  0  0  0  0
    4.4190   -8.9064    8.6421 H   0  0  0  0  0  0  0  0  0  0  0  0
    3.9698   -6.8349   10.0520 H   0  0  0  0  0  0  0  0  0  0  0  0
    4.5556   -4.4718   14.5016 H   0  0  0  0  0  0  0  0  0  0  0  0
    5.8609   -4.6652   13.2665 H   0  0  0  0  0  0  0  0  0  0  0  0
    5.8604   -2.2012   12.8432 H   0  0  0  0  0  0  0  0  0  0  0  0
    6.1073   -2.5242   14.6087 H   0  0  0  0  0  0  0  0  0  0  0  0
    4.4826   -1.9998   14.0049 H   0  0  0  0  0  0  0  0  0  0  0  0
    0.5653   -8.8150    1.3238 H   0  0  0  0  0  0  0  0  0  0  0  0
    2.3246   -8.4979    1.5257 H   0  0  0  0  0  0  0  0  0  0  0  0
    0.9284   -7.5771   -0.6059 H   0  0  0  0  0  0  0  0  0  0  0  0
    0.5767   -6.1972    0.5141 H   0  0  0  0  0  0  0  0  0  0  0  0
    2.2917   -6.6239    0.1049 H   0  0  0  0  0  0  0  0  0  0  0  0
   -0.2487   -3.6849    5.2628 H   0  0  0  0  0  0  0  0  0  0  0  0
   -0.9320   -1.7626    4.4347 H   0  0  0  0  0  0  0  0  0  0  0  0
   -0.7029   -2.2172   -1.5990 H   0  0  0  0  0  0  0  0  0  0  0  0
   -2.4441   -1.8024   -1.6156 H   0  0  0  0  0  0  0  0  0  0  0  0
   -2.9329   -3.8023   -0.1834 H   0  0  0  0  0  0  0  0  0  0  0  0
   -1.1460   -4.1702   -0.1106 H   0  0  0  0  0  0  0  0  0  0  0  0
   -2.0345   -4.2794   -1.6796 H   0  0  0  0  0  0  0  0  0  0  0  0
   -5.3300    5.7015   10.1513 H   0  0  0  0  0  0  0  0  0  0  0  0
   -4.1830    6.5902    9.0766 H   0  0  0  0  0  0  0  0  0  0  0  0
   -3.4086    4.7973   11.4785 H   0  0  0  0  0  0  0  0  0  0  0  0
   -2.2342    5.6420   10.3969 H   0  0  0  0  0  0  0  0  0  0  0  0
   -3.3606    6.6012   11.4501 H   0  0  0  0  0  0  0  0  0  0  0  0
   -4.7347    4.2319    4.9487 H   0  0  0  0  0  0  0  0  0  0  0  0
   -7.1326    4.2068    2.9417 H   0  0  0  0  0  0  0  0  0  0  0  0
  -12.7644    2.5840    4.3888 H   0  0  0  0  0  0  0  0  0  0  0  0
  -11.1398    2.1707    5.0107 H   0  0  0  0  0  0  0  0  0  0  0  0
  -11.3265    3.8945    6.4621 H   0  0  0  0  0  0  0  0  0  0  0  0
  -12.8246    4.4907    5.6587 H   0  0  0  0  0  0  0  0  0  0  0  0
  -11.1917    5.0523    5.0843 H   0  0  0  0  0  0  0  0  0  0  0  0
   -2.9887    8.0261   -4.3264 H   0  0  0  0  0  0  0  0  0  0  0  0
   -4.3180    8.9138   -5.1281 H   0  0  0  0  0  0  0  0  0  0  0  0
   -4.4421    7.1170   -6.8981 H   0  0  0  0  0  0  0  0  0  0  0  0
   -2.8395    7.9438   -6.8361 H   0  0  0  0  0  0  0  0  0  0  0  0
   -3.0273    6.2918   -6.1158 H   0  0  0  0  0  0  0  0  0  0  0  0
   -7.3411    2.9842   -3.9051 H   0  0  0  0  0  0  0  0  0  0  0  0
   -8.0412   -0.3429   -2.3571 H   0  0  0  0  0  0  0  0  0  0  0  0
  -10.3650    1.1316   -5.5689 H   0  0  0  0  0  0  0  0  0  0  0  0
   -6.8657   -2.9943   -6.1987 H   0  0  0  0  0  0  0  0  0  0  0  0
   -4.0872    0.1960   -6.3466 H   0  0  0  0  0  0  0  0  0  0  0  0
   -5.0330   -3.0936   -8.0377 H   0  0  0  0  0  0  0  0  0  0  0  0
   -3.2932   -1.9848   -9.0960 H   0  0  0  0  0  0  0  0  0  0  0  0
   -2.0785   -0.5494   -5.7832 H   0  0  0  0  0  0  0  0  0  0  0  0
   -0.7510    4.4628   -2.5177 H   0  0  0  0  0  0  0  0  0  0  0  0
   -2.0055    4.1240   -3.7762 H   0  0  0  0  0  0  0  0  0  0  0  0
   -2.9506    4.4068   -1.4546 H   0  0  0  0  0  0  0  0  0  0  0  0
   -2.0585    2.9889   -0.8945 H   0  0  0  0  0  0  0  0  0  0  0  0
   -3.3381    2.7895   -2.1695 H   0  0  0  0  0  0  0  0  0  0  0  0
    5.2212   -4.4705  -11.8137 H   0  0  0  0  0  0  0  0  0  0  0  0
    5.6096   -2.7345  -11.4683 H   0  0  0  0  0  0  0  0  0  0  0  0
    3.0916   -3.7872  -12.8999 H   0  0  0  0  0  0  0  0  0  0  0  0
    3.4745   -2.0341  -12.5918 H   0  0  0  0  0  0  0  0  0  0  0  0
    4.5058   -3.0259  -13.6992 H   0  0  0  0  0  0  0  0  0  0  0  0
    4.7347   -2.4079   -6.6485 H   0  0  0  0  0  0  0  0  0  0  0  0
    6.9621   -1.9734   -6.2387 H   0  0  0  0  0  0  0  0  0  0  0  0
    8.9803   -2.6820  -10.7336 H   0  0  0  0  0  0  0  0  0  0  0  0
    9.9493   -4.2005  -10.6747 H   0  0  0  0  0  0  0  0  0  0  0  0
    7.0244   -3.8648   -9.7256 H   0  0  0  0  0  0  0  0  0  0  0  0
    7.5649   -4.7129  -11.2467 H   0  0  0  0  0  0  0  0  0  0  0  0
    7.9868   -5.3940   -9.6221 H   0  0  0  0  0  0  0  0  0  0  0  0
   11.3236    0.5930    2.4429 H   0  0  0  0  0  0  0  0  0  0  0  0
   10.6982    2.2738    2.5630 H   0  0  0  0  0  0  0  0  0  0  0  0
    9.9782    0.5627    4.3899 H   0  0  0  0  0  0  0  0  0  0  0  0
    8.8719   -0.1475    3.1309 H   0  0  0  0  0  0  0  0  0  0  0  0
    8.6980    1.5909    3.6603 H   0  0  0  0  0  0  0  0  0  0  0  0
   11.9971   -0.1703   -1.5117 H   0  0  0  0  0  0  0  0  0  0  0  0
   13.9523   -1.0312   -2.9005 H   0  0  0  0  0  0  0  0  0  0  0  0
  1  2  2  0
  2  3  1  0
  3  4  2  0
  4  5  1  0
  5  6  1  0
  6  7  1  0
  7  8  1  0
  8  9  1  0
  7 10  2  0
 10 11  1  0
 10 12  1  0
 12 13  1  0
  4 14  1  0
 14 15  2  0
 15 16  1  0
 16 17  1  0
 17 18  1  0
 18 19  1  0
 19 20  1  0
 20 21  1  0
 19 22  2  0
 22 23  1  0
 23 24  1  0
 22 25  1  0
 16 26  2  0
 26 27  1  0
 15 28  1  0
 28 29  2  0
 29 30  1  0
 29 31  1  0
 31 32  2  0
 32 33  1  0
 33 34  2  0
 34 35  1  0
 35 36  1  0
 36 37  1  0
 37 38  1  0
 38 39  1  0
 37 40  2  0
 40 41  1  0
 40 42  1  0
 42 43  1  0
 34 44  1  0
 44 45  2  0
 45 46  1  0
 46 47  1  0
 47 48  1  0
 48 49  1  0
 49 50  1  0
 50 51  1  0
 49 52  2  0
 52 53  1  0
 53 54  1  0
 52 55  1  0
 46 56  2  0
 56 57  1  0
 45 58  1  0
 58 59  2  0
 59 60  1  0
 59 61  1  0
 61 62  2  0
 62 63  1  0
 63 64  2  0
 64 65  1  0
 65 66  1  0
 66 67  1  0
 67 68  1  0
 68 69  1  0
 67 70  2  0
 70 71  1  0
 70 72  1  0
 72 73  1  0
 64 74  1  0
 74 75  2  0
 75 76  1  0
 76 77  1  0
 77 78  1  0
 78 79  1  0
 79 80  1  0
 80 81  1  0
 79 82  2  0
 82 83  1  0
 83 84  1  0
 82 85  1  0
 76 86  2  0
 86 87  1  0
 75 88  1  0
 88 89  2  0
 89 90  1  0
 89 91  1  0
 91 92  2  0
 92 93  1  0
 93 94  1  0
 94 95  2  0
 94 96  1  0
 93 97  2  0
 97 98  1  0
 98 99  2  0
 99100  1  0
100101  2  0
101102  1  0
 99103  1  0
103104  2  3
104105  1  0
105106  2  0
106107  1  0
107108  2  0
108109  1  0
109110  1  0
110111  1  0
111112  1  0
112113  1  0
111114  2  0
114115  1  0
114116  1  0
116117  1  0
108118  1  0
118119  2  0
119120  1  0
120121  1  0
121122  1  0
122123  1  0
123124  1  0
124125  1  0
123126  2  0
126127  1  0
127128  1  0
126129  1  0
120130  2  0
130131  1  0
119132  1  0
132133  2  0
133134  1  0
133135  1  0
135136  2  0
136137  1  0
137138  2  0
138139  1  0
139140  1  0
140141  1  0
141142  1  0
142143  1  0
141144  2  0
144145  1  0
144146  1  0
146147  1  0
138148  1  0
148149  2  0
149150  1  0
150151  1  0
151152  1  0
152153  1  0
153154  1  0
154155  1  0
153156  2  0
156157  1  0
157158  1  0
156159  1  0
150160  2  0
160161  1  0
149162  1  0
162163  2  0
163164  1  0
 27  1  1  0
 57 31  1  0
 87 61  1  0
 95 91  1  0
101 97  1  0
131105  1  0
161135  1  0
 26  3  1  0
 56 33  1  0
 86 63  1  0
130107  1  0
160137  1  0
 12  5  2  0
 30 14  1  0
 42 35  2  0
 60 44  1  0
 72 65  2  0
 90 74  1  0
116109  2  0
134118  1  0
146139  2  0
164148  1  0
 23 17  2  0
 53 47  2  0
 83 77  2  0
127121  2  0
157151  2  0
  1165  1  0
  2166  1  0
  8167  1  0
  8168  1  0
  9169  1  0
  9170  1  0
  9171  1  0
 20172  1  0
 20173  1  0
 21174  1  0
 21175  1  0
 21176  1  0
 28177  1  0
 32178  1  0
 38179  1  0
 38180  1  0
 39181  1  0
 39182  1  0
 39183  1  0
 50184  1  0
 50185  1  0
 51186  1  0
 51187  1  0
 51188  1  0
 58189  1  0
 62190  1  0
 68191  1  0
 68192  1  0
 69193  1  0
 69194  1  0
 69195  1  0
 80196  1  0
 80197  1  0
 81198  1  0
 81199  1  0
 81200  1  0
 88201  1  0
 92202  1  0
 95203  1  0
 98204  1  0
100205  1  0
103206  1  0
104207  1  0
106208  1  0
112209  1  0
112210  1  0
113211  1  0
113212  1  0
113213  1  0
124214  1  0
124215  1  0
125216  1  0
125217  1  0
125218  1  0
132219  1  0
136220  1  0
142221  1  0
142222  1  0
143223  1  0
143224  1  0
143225  1  0
154226  1  0
154227  1  0
155228  1  0
155229  1  0
155230  1  0
162231  1  0
163232  1  0
M  END

