
     RDKit          3D

231256  0  0  0  0  0  0  0  0999 V2000
    0.9592   -9.7715    9.2868 C   0  0  0  0  0  0  0  0  0  0  0  0
    0.9214  -10.2071    7.9649 C   0  0  0  0  0  0  0  0  0  0  0  0
   -0.1953   -9.7269    7.2581 C   0  0  0  0  0  0  0  0  0  0  0  0
   -0.4945   -9.9676    5.9014 C   0  0  0  0  0  0  0  0  0  0  0  0
    0.4234  -10.7153    5.0212 C   0  0  0  0  0  0  0  0  0  0  0  0
    0.0354  -12.1335    4.2056 S   0  0  0  0  0  0  0  0  0  0  0  0
    1.5059  -12.2797    3.3965 C   0  0  0  0  0  0  0  0  0  0  0  0
    1.8076  -13.3334    2.3758 C   0  0  0  0  0  0  0  0  0  0  0  0
    1.3316  -12.8922    0.9963 C   0  0  0  0  0  0  0  0  0  0  0  0
    2.3093  -11.1905    3.7288 C   0  0  0  0  0  0  0  0  0  0  0  0
    3.8974  -10.9057    3.0283 Cl  0  0  0  0  0  0  0  0  0  0  0  0
    1.7049  -10.3159    4.6446 C   0  0  0  0  0  0  0  0  0  0  0  0
    2.4531   -8.8182    5.1812 Cl  0  0  0  0  0  0  0  0  0  0  0  0
   -1.6737   -9.3920    5.3945 C   0  0  0  0  0  0  0  0  0  0  0  0
   -2.4903   -8.5638    6.1712 C   0  0  0  0  0  0  0  0  0  0  0  0
   -2.1819   -8.3037    7.5179 C   0  0  0  0  0  0  0  0  0  0  0  0
   -2.9803   -7.3630    8.3204 C   0  0  0  0  0  0  0  0  0  0  0  0
   -3.1921   -5.7360    7.9519 S   0  0  0  0  0  0  0  0  0  0  0  0
   -4.2504   -5.3872    9.2162 C   0  0  0  0  0  0  0  0  0  0  0  0
   -4.9665   -4.0789    9.4147 C   0  0  0  0  0  0  0  0  0  0  0  0
   -4.0600   -2.8804    9.1377 C   0  0  0  0  0  0  0  0  0  0  0  0
   -4.4807   -6.5689    9.9236 C   0  0  0  0  0  0  0  0  0  0  0  0
   -3.7653   -7.6742    9.4280 C   0  0  0  0  0  0  0  0  0  0  0  0
   -3.9255   -9.3004   10.0778 Cl  0  0  0  0  0  0  0  0  0  0  0  0
   -5.5999   -6.6877   11.2750 Cl  0  0  0  0  0  0  0  0  0  0  0  0
   -1.0335   -8.9231    8.0366 C   0  0  0  0  0  0  0  0  0  0  0  0
   -0.3837   -8.7930    9.5822 S   0  0  0  0  0  0  0  0  0  0  0  0
   -3.5647   -8.0212    5.4541 C   0  0  0  0  0  0  0  0  0  0  0  0
   -3.5841   -8.4105    4.1188 C   0  0  0  0  0  0  0  0  0  0  0  0
   -2.2745   -9.4353    3.8177 S   0  0  0  0  0  0  0  0  0  0  0  0
   -4.4240   -7.7794    3.0946 C   0  0  0  0  0  0  0  0  0  0  0  0
   -4.7727   -6.4336    3.1136 C   0  0  0  0  0  0  0  0  0  0  0  0
   -5.4211   -6.0228    1.9469 C   0  0  0  0  0  0  0  0  0  0  0  0
   -5.7964   -4.7052    1.6455 C   0  0  0  0  0  0  0  0  0  0  0  0
   -5.4592   -3.5927    2.5445 C   0  0  0  0  0  0  0  0  0  0  0  0
   -3.8929   -3.0531    2.8359 S   0  0  0  0  0  0  0  0  0  0  0  0
   -4.2872   -2.0035    4.0921 C   0  0  0  0  0  0  0  0  0  0  0  0
   -3.2783   -1.2501    4.9156 C   0  0  0  0  0  0  0  0  0  0  0  0
   -2.4170   -0.3421    4.0428 C   0  0  0  0  0  0  0  0  0  0  0  0
   -5.6603   -2.0937    4.3195 C   0  0  0  0  0  0  0  0  0  0  0  0
   -6.4950   -1.2377    5.6117 Cl  0  0  0  0  0  0  0  0  0  0  0  0
   -6.3167   -2.9829    3.4509 C   0  0  0  0  0  0  0  0  0  0  0  0
   -8.0343   -3.3529    3.5433 Cl  0  0  0  0  0  0  0  0  0  0  0  0
   -6.3565   -4.4762    0.3821 C   0  0  0  0  0  0  0  0  0  0  0  0
   -6.5372   -5.4980   -0.5566 C   0  0  0  0  0  0  0  0  0  0  0  0
   -6.2264   -6.8364   -0.2286 C   0  0  0  0  0  0  0  0  0  0  0  0
   -6.5704   -7.9554   -1.1246 C   0  0  0  0  0  0  0  0  0  0  0  0
   -5.4882   -9.0845   -1.7482 S   0  0  0  0  0  0  0  0  0  0  0  0
   -6.6359   -9.9981   -2.5756 C   0  0  0  0  0  0  0  0  0  0  0  0
   -6.3258  -11.1702   -3.4556 C   0  0  0  0  0  0  0  0  0  0  0  0
   -6.1503  -10.7211   -4.9022 C   0  0  0  0  0  0  0  0  0  0  0  0
   -7.8898   -9.4138   -2.3866 C   0  0  0  0  0  0  0  0  0  0  0  0
   -7.8544   -8.2796   -1.5659 C   0  0  0  0  0  0  0  0  0  0  0  0
   -9.2967   -7.3774   -1.1111 Cl  0  0  0  0  0  0  0  0  0  0  0  0
   -9.3734  -10.0500   -3.0907 Cl  0  0  0  0  0  0  0  0  0  0  0  0
   -5.6232   -7.0569    1.0259 C   0  0  0  0  0  0  0  0  0  0  0  0
   -4.9526   -8.4759    1.6460 S   0  0  0  0  0  0  0  0  0  0  0  0
   -6.8804   -5.0154   -1.8331 C   0  0  0  0  0  0  0  0  0  0  0  0
   -6.9924   -3.6241   -1.8780 C   0  0  0  0  0  0  0  0  0  0  0  0
   -6.6603   -2.9985   -0.3460 S   0  0  0  0  0  0  0  0  0  0  0  0
   -6.7868   -2.8081   -3.0761 C   0  0  0  0  0  0  0  0  0  0  0  0
   -5.5952   -2.8756   -3.7983 C   0  0  0  0  0  0  0  0  0  0  0  0
   -5.2439   -1.6607   -4.4051 C   0  0  0  0  0  0  0  0  0  0  0  0
   -3.9919   -1.3571   -4.9709 C   0  0  0  0  0  0  0  0  0  0  0  0
   -2.9223   -2.3632   -5.1056 C   0  0  0  0  0  0  0  0  0  0  0  0
   -2.0816   -3.0608   -3.8240 S   0  0  0  0  0  0  0  0  0  0  0  0
   -1.0037   -3.9447   -4.7734 C   0  0  0  0  0  0  0  0  0  0  0  0
    0.1004   -4.8071   -4.2352 C   0  0  0  0  0  0  0  0  0  0  0  0
    1.4287   -4.0578   -4.2452 C   0  0  0  0  0  0  0  0  0  0  0  0
   -1.2759   -3.6787   -6.1138 C   0  0  0  0  0  0  0  0  0  0  0  0
   -0.3567   -4.3665   -7.4471 Cl  0  0  0  0  0  0  0  0  0  0  0  0
   -2.3466   -2.7899   -6.2988 C   0  0  0  0  0  0  0  0  0  0  0  0
   -2.8975   -2.2472   -7.8773 Cl  0  0  0  0  0  0  0  0  0  0  0  0
   -3.7414   -0.0097   -5.2694 C   0  0  0  0  0  0  0  0  0  0  0  0
   -4.6924    1.0011   -5.0778 C   0  0  0  0  0  0  0  0  0  0  0  0
   -5.9726    0.6850   -4.5791 C   0  0  0  0  0  0  0  0  0  0  0  0
   -6.9866    1.7151   -4.2992 C   0  0  0  0  0  0  0  0  0  0  0  0
   -6.8164    2.9688   -3.1847 S   0  0  0  0  0  0  0  0  0  0  0  0
   -8.3530    3.6225   -3.4204 C   0  0  0  0  0  0  0  0  0  0  0  0
   -8.8432    4.8830   -2.7768 C   0  0  0  0  0  0  0  0  0  0  0  0
   -8.5827    6.0832   -3.6783 C   0  0  0  0  0  0  0  0  0  0  0  0
   -9.0186    2.8649   -4.3834 C   0  0  0  0  0  0  0  0  0  0  0  0
   -8.2587    1.7873   -4.8638 C   0  0  0  0  0  0  0  0  0  0  0  0
   -8.8334    0.6620   -6.0864 Cl  0  0  0  0  0  0  0  0  0  0  0  0
  -10.6404    3.2303   -4.9518 Cl  0  0  0  0  0  0  0  0  0  0  0  0
   -6.2029   -0.6589   -4.2250 C   0  0  0  0  0  0  0  0  0  0  0  0
   -7.4346   -1.2584   -3.2502 S   0  0  0  0  0  0  0  0  0  0  0  0
   -4.1705    2.2932   -5.2700 C   0  0  0  0  0  0  0  0  0  0  0  0
   -2.8041    2.2838   -5.5405 C   0  0  0  0  0  0  0  0  0  0  0  0
   -2.2544    0.6930   -5.5963 S   0  0  0  0  0  0  0  0  0  0  0  0
   -1.9158    3.4233   -5.3030 C   0  0  0  0  0  0  0  0  0  0  0  0
   -0.9065    3.4238   -4.3473 C   0  0  0  0  0  0  0  0  0  0  0  0
   -0.2448    4.6533   -4.2537 C   0  0  0  0  0  0  0  0  0  0  0  0
    0.7920    4.9611   -3.3570 C   0  0  0  0  0  0  0  0  0  0  0  0
    1.2032    4.0305   -2.2900 C   0  0  0  0  0  0  0  0  0  0  0  0
    0.2157    3.5719   -1.0097 S   0  0  0  0  0  0  0  0  0  0  0  0
    1.3718    2.6586   -0.2026 C   0  0  0  0  0  0  0  0  0  0  0  0
    1.1166    1.8879    1.0563 C   0  0  0  0  0  0  0  0  0  0  0  0
    0.6296    0.4780    0.7404 C   0  0  0  0  0  0  0  0  0  0  0  0
    2.5545    2.6877   -0.9416 C   0  0  0  0  0  0  0  0  0  0  0  0
    4.0184    1.8418   -0.4595 Cl  0  0  0  0  0  0  0  0  0  0  0  0
    2.4641    3.4619   -2.1099 C   0  0  0  0  0  0  0  0  0  0  0  0
    3.7933    3.6583   -3.2456 Cl  0  0  0  0  0  0  0  0  0  0  0  0
    1.3484    6.2424   -3.4515 C   0  0  0  0  0  0  0  0  0  0  0  0
    0.8892    7.2041   -4.3583 C   0  0  0  0  0  0  0  0  0  0  0  0
   -0.1696    6.9012   -5.2422 C   0  0  0  0  0  0  0  0  0  0  0  0
   -0.6702    7.8827   -6.2172 C   0  0  0  0  0  0  0  0  0  0  0  0
   -1.4448    9.3234   -5.8215 S   0  0  0  0  0  0  0  0  0  0  0  0
   -1.6572    9.8531   -7.4033 C   0  0  0  0  0  0  0  0  0  0  0  0
   -2.3847   11.1052   -7.7895 C   0  0  0  0  0  0  0  0  0  0  0  0
   -3.8468   10.8050   -8.0990 C   0  0  0  0  0  0  0  0  0  0  0  0
   -1.1359    8.8927   -8.2683 C   0  0  0  0  0  0  0  0  0  0  0  0
   -0.5749    7.7922   -7.6035 C   0  0  0  0  0  0  0  0  0  0  0  0
    0.2089    6.4523   -8.4378 Cl  0  0  0  0  0  0  0  0  0  0  0  0
   -1.1764    9.0401  -10.0189 Cl  0  0  0  0  0  0  0  0  0  0  0  0
   -0.7175    5.6065   -5.1604 C   0  0  0  0  0  0  0  0  0  0  0  0
   -2.0035    4.9435   -6.0364 S   0  0  0  0  0  0  0  0  0  0  0  0
    1.6082    8.4132   -4.2871 C   0  0  0  0  0  0  0  0  0  0  0  0
    2.6205    8.3759   -3.3314 C   0  0  0  0  0  0  0  0  0  0  0  0
    2.6191    6.8793   -2.5590 S   0  0  0  0  0  0  0  0  0  0  0  0
    3.6028    9.4293   -3.0618 C   0  0  0  0  0  0  0  0  0  0  0  0
    3.2607   11.0559   -2.8327 S   0  0  0  0  0  0  0  0  0  0  0  0
    4.8318   11.5100   -2.4208 C   0  0  0  0  0  0  0  0  0  0  0  0
    5.6479   10.3837   -2.4624 C   0  0  0  0  0  0  0  0  0  0  0  0
    4.9617    9.2218   -2.8264 C   0  0  0  0  0  0  0  0  0  0  0  0
    5.6123    7.9634   -3.0606 N   0  0  0  0  0  0  0  0  0  0  0  0
    5.6716    7.4541   -4.4418 C   0  0  0  0  0  0  0  0  0  0  0  0
    7.0972    7.5173   -4.9823 C   0  0  0  0  0  0  0  0  0  0  0  0
    6.1799    7.2615   -1.9340 C   0  0  0  0  0  0  0  0  0  0  0  0
    6.5328    5.9666   -1.9902 C   0  0  0  0  0  0  0  0  0  0  0  0
    7.1049    5.2452   -0.8399 C   0  0  0  0  0  0  0  0  0  0  0  0
    7.5061    3.9091   -0.8660 C   0  0  0  0  0  0  0  0  0  0  0  0
    8.0522    3.4767    0.3523 C   0  0  0  0  0  0  0  0  0  0  0  0
    8.5498    2.1877    0.6356 C   0  0  0  0  0  0  0  0  0  0  0  0
    8.5571    1.1051   -0.3675 C   0  0  0  0  0  0  0  0  0  0  0  0
    7.1804    0.4095   -1.0376 S   0  0  0  0  0  0  0  0  0  0  0  0
    7.9849   -0.7471   -1.9597 C   0  0  0  0  0  0  0  0  0  0  0  0
    7.3047   -1.8104   -2.7668 C   0  0  0  0  0  0  0  0  0  0  0  0
    7.0896   -3.0694   -1.9303 C   0  0  0  0  0  0  0  0  0  0  0  0
    9.3545   -0.6200   -1.7298 C   0  0  0  0  0  0  0  0  0  0  0  0
   10.5562   -1.6821   -2.4421 Cl  0  0  0  0  0  0  0  0  0  0  0  0
    9.6758    0.4271   -0.8485 C   0  0  0  0  0  0  0  0  0  0  0  0
   11.3278    0.8464   -0.4182 Cl  0  0  0  0  0  0  0  0  0  0  0  0
    9.0492    1.9714    1.9344 C   0  0  0  0  0  0  0  0  0  0  0  0
    9.0950    2.9781    2.9029 C   0  0  0  0  0  0  0  0  0  0  0  0
    8.6266    4.2734    2.6108 C   0  0  0  0  0  0  0  0  0  0  0  0
    8.6930    5.3655    3.5974 C   0  0  0  0  0  0  0  0  0  0  0  0
    7.9039    5.3691    5.0826 S   0  0  0  0  0  0  0  0  0  0  0  0
    8.4690    6.8724    5.5882 C   0  0  0  0  0  0  0  0  0  0  0  0
    8.0989    7.5298    6.8842 C   0  0  0  0  0  0  0  0  0  0  0  0
    6.6571    8.0224    6.8415 C   0  0  0  0  0  0  0  0  0  0  0  0
    9.2806    7.3990    4.5863 C   0  0  0  0  0  0  0  0  0  0  0  0
    9.4179    6.5516    3.4752 C   0  0  0  0  0  0  0  0  0  0  0  0
   10.4519    6.9227    2.0992 Cl  0  0  0  0  0  0  0  0  0  0  0  0
   10.0663    8.9687    4.6915 Cl  0  0  0  0  0  0  0  0  0  0  0  0
    8.0955    4.4827    1.3229 C   0  0  0  0  0  0  0  0  0  0  0  0
    7.4322    5.8920    0.6871 S   0  0  0  0  0  0  0  0  0  0  0  0
    9.6579    2.5470    4.1173 C   0  0  0  0  0  0  0  0  0  0  0  0
   10.0196    1.2044    4.1109 C   0  0  0  0  0  0  0  0  0  0  0  0
    9.6573    0.5500    2.5997 S   0  0  0  0  0  0  0  0  0  0  0  0
    1.7345  -10.0105   10.0044 H   0  0  0  0  0  0  0  0  0  0  0  0
    1.6825  -10.8463    7.5377 H   0  0  0  0  0  0  0  0  0  0  0  0
    1.2947  -14.2783    2.6595 H   0  0  0  0  0  0  0  0  0  0  0  0
    2.9011  -13.5325    2.3475 H   0  0  0  0  0  0  0  0  0  0  0  0
    1.8720  -11.9751    0.6789 H   0  0  0  0  0  0  0  0  0  0  0  0
    0.2398  -12.6839    1.0128 H   0  0  0  0  0  0  0  0  0  0  0  0
    1.5278  -13.6988    0.2627 H   0  0  0  0  0  0  0  0  0  0  0  0
   -5.3348   -4.0041   10.4613 H   0  0  0  0  0  0  0  0  0  0  0  0
   -5.8437   -4.0392    8.7330 H   0  0  0  0  0  0  0  0  0  0  0  0
   -3.1476   -2.9308    9.7696 H   0  0  0  0  0  0  0  0  0  0  0  0
   -3.7662   -2.8482    8.0667 H   0  0  0  0  0  0  0  0  0  0  0  0
   -4.6038   -1.9424    9.3721 H   0  0  0  0  0  0  0  0  0  0  0  0
   -4.2868   -7.3358    5.8752 H   0  0  0  0  0  0  0  0  0  0  0  0
   -4.5070   -5.7636    3.9212 H   0  0  0  0  0  0  0  0  0  0  0  0
   -2.6299   -1.9830    5.4455 H   0  0  0  0  0  0  0  0  0  0  0  0
   -3.7907   -0.6265    5.6810 H   0  0  0  0  0  0  0  0  0  0  0  0
   -1.8285   -0.9392    3.3138 H   0  0  0  0  0  0  0  0  0  0  0  0
   -1.7080    0.2233    4.6829 H   0  0  0  0  0  0  0  0  0  0  0  0
   -3.0539    0.3830    3.4910 H   0  0  0  0  0  0  0  0  0  0  0  0
   -5.3917  -11.6587   -3.1057 H   0  0  0  0  0  0  0  0  0  0  0  0
   -7.1442  -11.9178   -3.3947 H   0  0  0  0  0  0  0  0  0  0  0  0
   -5.2981  -10.0121   -4.9846 H   0  0  0  0  0  0  0  0  0  0  0  0
   -5.9457  -11.6055   -5.5440 H   0  0  0  0  0  0  0  0  0  0  0  0
   -7.0785  -10.2261   -5.2669 H   0  0  0  0  0  0  0  0  0  0  0  0
   -6.9293   -5.6388   -2.7163 H   0  0  0  0  0  0  0  0  0  0  0  0
   -4.9269   -3.7217   -3.7314 H   0  0  0  0  0  0  0  0  0  0  0  0
    0.1861   -5.7312   -4.8460 H   0  0  0  0  0  0  0  0  0  0  0  0
   -0.1410   -5.1083   -3.1947 H   0  0  0  0  0  0  0  0  0  0  0  0
    2.2252   -4.7045   -3.8168 H   0  0  0  0  0  0  0  0  0  0  0  0
    1.3602   -3.1328   -3.6351 H   0  0  0  0  0  0  0  0  0  0  0  0
    1.7168   -3.7892   -5.2834 H   0  0  0  0  0  0  0  0  0  0  0  0
   -9.9302    4.8048   -2.5635 H   0  0  0  0  0  0  0  0  0  0  0  0
   -8.3174    5.0307   -1.8085 H   0  0  0  0  0  0  0  0  0  0  0  0
   -8.8782    7.0121   -3.1509 H   0  0  0  0  0  0  0  0  0  0  0  0
   -7.5034    6.1438   -3.9328 H   0  0  0  0  0  0  0  0  0  0  0  0
   -9.1763    5.9925   -4.6124 H   0  0  0  0  0  0  0  0  0  0  0  0
   -4.7218    3.2051   -5.0891 H   0  0  0  0  0  0  0  0  0  0  0  0
   -0.6804    2.5683   -3.7247 H   0  0  0  0  0  0  0  0  0  0  0  0
    2.0411    1.8351    1.6679 H   0  0  0  0  0  0  0  0  0  0  0  0
    0.3452    2.4130    1.6589 H   0  0  0  0  0  0  0  0  0  0  0  0
   -0.3277    0.5194    0.1773 H   0  0  0  0  0  0  0  0  0  0  0  0
    1.3869   -0.0660    0.1360 H   0  0  0  0  0  0  0  0  0  0  0  0
    0.4599   -0.0792    1.6860 H   0  0  0  0  0  0  0  0  0  0  0  0
   -2.3363   11.8346   -6.9523 H   0  0  0  0  0  0  0  0  0  0  0  0
   -1.9044   11.5684   -8.6766 H   0  0  0  0  0  0  0  0  0  0  0  0
   -3.9282   10.1306   -8.9789 H   0  0  0  0  0  0  0  0  0  0  0  0
   -4.3797   11.7524   -8.3240 H   0  0  0  0  0  0  0  0  0  0  0  0
   -4.3348   10.3259   -7.2240 H   0  0  0  0  0  0  0  0  0  0  0  0
    1.4254    9.2663   -4.9274 H   0  0  0  0  0  0  0  0  0  0  0  0
    5.1537   12.5102   -2.1691 H   0  0  0  0  0  0  0  0  0  0  0  0
    6.7126   10.4172   -2.2683 H   0  0  0  0  0  0  0  0  0  0  0  0
    5.0295    8.0660   -5.1086 H   0  0  0  0  0  0  0  0  0  0  0  0
    5.2793    6.4178   -4.4947 H   0  0  0  0  0  0  0  0  0  0  0  0
    7.4551    8.5698   -4.9908 H   0  0  0  0  0  0  0  0  0  0  0  0
    7.7854    6.9110   -4.3544 H   0  0  0  0  0  0  0  0  0  0  0  0
    7.1255    7.1167   -6.0187 H   0  0  0  0  0  0  0  0  0  0  0  0
    6.2806    7.7967   -0.9977 H   0  0  0  0  0  0  0  0  0  0  0  0
    6.4072    5.4002   -2.9027 H   0  0  0  0  0  0  0  0  0  0  0  0
    7.4081    3.2826   -1.7438 H   0  0  0  0  0  0  0  0  0  0  0  0
    6.3195   -1.4315   -3.1209 H   0  0  0  0  0  0  0  0  0  0  0  0
    7.9178   -2.0601   -3.6611 H   0  0  0  0  0  0  0  0  0  0  0  0
    6.5592   -3.8330   -2.5350 H   0  0  0  0  0  0  0  0  0  0  0  0
    6.4774   -2.8414   -1.0336 H   0  0  0  0  0  0  0  0  0  0  0  0
    8.0664   -3.4892   -1.6085 H   0  0  0  0  0  0  0  0  0  0  0  0
    8.2130    6.7970    7.7100 H   0  0  0  0  0  0  0  0  0  0  0  0
    8.7726    8.3865    7.0972 H   0  0  0  0  0  0  0  0  0  0  0  0
    6.5142    8.7353    6.0003 H   0  0  0  0  0  0  0  0  0  0  0  0
    5.9573    7.1659    6.7163 H   0  0  0  0  0  0  0  0  0  0  0  0
    6.4103    8.5416    7.7928 H   0  0  0  0  0  0  0  0  0  0  0  0
    9.7968    3.1836    4.9780 H   0  0  0  0  0  0  0  0  0  0  0  0
   10.4613    0.6737    4.9407 H   0  0  0  0  0  0  0  0  0  0  0  0
  1  2  2  0
  2  3  1  0
  3  4  2  0
  4  5  1  0
  5  6  1  0
  6  7  1  0
  7  8  1  0
  8  9  1  0
  7 10  2  0
 10 11  1  0
 10 12  1  0
 12 13  1  0
  4 14  1  0
 14 15  2  0
 15 16  1  0
 16 17  1  0
 17 18  1  0
 18 19  1  0
 19 20  1  0
 20 21  1  0
 19 22  2  0
 22 23  1  0
 23 24  1  0
 22 25  1  0
 16 26  2  0
 26 27  1  0
 15 28  1  0
 28 29  2  0
 29 30  1  0
 29 31  1  0
 31 32  2  0
 32 33  1  0
 33 34  2  0
 34 35  1  0
 35 36  1  0
 36 37  1  0
 37 38  1  0
 38 39  1  0
 37 40  2  0
 40 41  1  0
 40 42  1  0
 42 43  1  0
 34 44  1  0
 44 45  2  0
 45 46  1  0
 46 47  1  0
 47 48  1  0
 48 49  1  0
 49 50  1  0
 50 51  1  0
 49 52  2  0
 52 53  1  0
 53 54  1  0
 52 55  1  0
 46 56  2  0
 56 57  1  0
 45 58  1  0
 58 59  2  0
 59 60  1  0
 59 61  1  0
 61 62  2  0
 62 63  1  0
 63 64  2  0
 64 65  1  0
 65 66  1  0
 66 67  1  0
 67 68  1  0
 68 69  1  0
 67 70  2  0
 70 71  1  0
 70 72  1  0
 72 73  1  0
 64 74  1  0
 74 75  2  0
 75 76  1  0
 76 77  1  0
 77 78  1  0
 78 79  1  0
 79 80  1  0
 80 81  1  0
 79 82  2  0
 82 83  1  0
 83 84  1  0
 82 85  1  0
 76 86  2  0
 86 87  1  0
 75 88  1  0
 88 89  2  0
 89 90  1  0
 89 91  1  0
 91 92  2  0
 92 93  1  0
 93 94  2  0
 94 95  1  0
 95 96  1  0
 96 97  1  0
 97 98  1  0
 98 99  1  0
 97100  2  0
100101  1  0
100102  1  0
102103  1  0
 94104  1  0
104105  2  0
105106  1  0
106107  1  0
107108  1  0
108109  1  0
109110  1  0
110111  1  0
109112  2  0
112113  1  0
113114  1  0
112115  1  0
106116  2  0
116117  1  0
105118  1  0
118119  2  0
119120  1  0
119121  1  0
121122  1  0
122123  1  0
123124  2  0
124125  1  0
125126  1  0
126127  1  0
127128  1  0
126129  1  0
129130  2  3
130131  1  0
131132  2  0
132133  1  0
133134  2  0
134135  1  0
135136  1  0
136137  1  0
137138  1  0
138139  1  0
137140  2  0
140141  1  0
140142  1  0
142143  1  0
134144  1  0
144145  2  0
145146  1  0
146147  1  0
147148  1  0
148149  1  0
149150  1  0
150151  1  0
149152  2  0
152153  1  0
153154  1  0
152155  1  0
146156  2  0
156157  1  0
145158  1  0
158159  2  0
159160  1  0
 27  1  1  0
 57 31  1  0
 87 61  1  0
117 91  1  0
125121  2  0
157131  1  0
 26  3  1  0
 56 33  1  0
 86 63  1  0
116 93  1  0
156133  1  0
 12  5  2  0
 30 14  1  0
 42 35  2  0
 60 44  1  0
 72 65  2  0
 90 74  1  0
102 95  2  0
120104  1  0
142135  2  0
160144  1  0
 23 17  2  0
 53 47  2  0
 83 77  2  0
113107  2  0
153147  2  0
  1161  1  0
  2162  1  0
  8163  1  0
  8164  1  0
  9165  1  0
  9166  1  0
  9167  1  0
 20168  1  0
 20169  1  0
 21170  1  0
 21171  1  0
 21172  1  0
 28173  1  0
 32174  1  0
 38175  1  0
 38176  1  0
 39177  1  0
 39178  1  0
 39179  1  0
 50180  1  0
 50181  1  0
 51182  1  0
 51183  1  0
 51184  1  0
 58185  1  0
 62186  1  0
 68187  1  0
 68188  1  0
 69189  1  0
 69190  1  0
 69191  1  0
 80192  1  0
 80193  1  0
 81194  1  0
 81195  1  0
 81196  1  0
 88197  1  0
 92198  1  0
 98199  1  0
 98200  1  0
 99201  1  0
 99202  1  0
 99203  1  0
110204  1  0
110205  1  0
111206  1  0
111207  1  0
111208  1  0
118209  1  0
123210  1  0
124211  1  0
127212  1  0
127213  1  0
128214  1  0
128215  1  0
128216  1  0
129217  1  0
130218  1  0
132219  1  0
138220  1  0
138221  1  0
139222  1  0
139223  1  0
139224  1  0
150225  1  0
150226  1  0
151227  1  0
151228  1  0
151229  1  0
158230  1  0
159231  1  0
M  END

