
     RDKit          3D

258287  0  0  0  0  0  0  0  0999 V2000
    0.3161  -13.2138    3.6475 C   0  0  0  0  0  0  0  0  0  0  0  0
    0.0044  -13.0081    2.3078 C   0  0  0  0  0  0  0  0  0  0  0  0
   -0.6284  -11.7768    2.0685 C   0  0  0  0  0  0  0  0  0  0  0  0
   -1.0946  -11.3049    0.8232 C   0  0  0  0  0  0  0  0  0  0  0  0
   -0.8884  -12.0593   -0.4260 C   0  0  0  0  0  0  0  0  0  0  0  0
   -2.1181  -12.6935   -1.3842 S   0  0  0  0  0  0  0  0  0  0  0  0
   -1.1076  -13.3724   -2.5462 C   0  0  0  0  0  0  0  0  0  0  0  0
   -1.5790  -14.0873   -3.7774 C   0  0  0  0  0  0  0  0  0  0  0  0
   -1.6789  -13.1271   -4.9572 C   0  0  0  0  0  0  0  0  0  0  0  0
    0.2149  -13.0848   -2.2104 C   0  0  0  0  0  0  0  0  0  0  0  0
    1.5937  -13.5678   -3.1891 Cl  0  0  0  0  0  0  0  0  0  0  0  0
    0.3374  -12.3539   -1.0185 C   0  0  0  0  0  0  0  0  0  0  0  0
    1.8810  -11.8071   -0.3734 Cl  0  0  0  0  0  0  0  0  0  0  0  0
   -1.7658  -10.0706    0.8237 C   0  0  0  0  0  0  0  0  0  0  0  0
   -1.9576   -9.3210    1.9890 C   0  0  0  0  0  0  0  0  0  0  0  0
   -1.4755   -9.7826    3.2304 C   0  0  0  0  0  0  0  0  0  0  0  0
   -1.6670   -9.0044    4.4697 C   0  0  0  0  0  0  0  0  0  0  0  0
   -3.1653   -8.5760    5.1075 S   0  0  0  0  0  0  0  0  0  0  0  0
   -2.5671   -7.5958    6.3349 C   0  0  0  0  0  0  0  0  0  0  0  0
   -3.4165   -6.7738    7.2561 C   0  0  0  0  0  0  0  0  0  0  0  0
   -3.7143   -5.4106    6.6401 C   0  0  0  0  0  0  0  0  0  0  0  0
   -1.1758   -7.5700    6.2469 C   0  0  0  0  0  0  0  0  0  0  0  0
   -0.6708   -8.3671    5.2072 C   0  0  0  0  0  0  0  0  0  0  0  0
    1.0429   -8.4744    4.8277 Cl  0  0  0  0  0  0  0  0  0  0  0  0
   -0.1539   -6.5907    7.2898 Cl  0  0  0  0  0  0  0  0  0  0  0  0
   -0.8153  -11.0220    3.2317 C   0  0  0  0  0  0  0  0  0  0  0  0
   -0.2001  -11.8794    4.5419 S   0  0  0  0  0  0  0  0  0  0  0  0
   -2.6295   -8.1097    1.7614 C   0  0  0  0  0  0  0  0  0  0  0  0
   -2.9739   -7.9197    0.4258 C   0  0  0  0  0  0  0  0  0  0  0  0
   -2.4266   -9.2350   -0.4822 S   0  0  0  0  0  0  0  0  0  0  0  0
   -3.7105   -6.7606   -0.1031 C   0  0  0  0  0  0  0  0  0  0  0  0
   -4.3639   -5.8011    0.6684 C   0  0  0  0  0  0  0  0  0  0  0  0
   -4.9629   -4.7902   -0.0986 C   0  0  0  0  0  0  0  0  0  0  0  0
   -5.6704   -3.6717    0.3952 C   0  0  0  0  0  0  0  0  0  0  0  0
   -5.9260   -3.4796    1.8383 C   0  0  0  0  0  0  0  0  0  0  0  0
   -5.6109   -2.3437    2.5780 C   0  0  0  0  0  0  0  0  0  0  0  0
   -5.9877   -2.4366    3.9225 C   0  0  0  0  0  0  0  0  0  0  0  0
   -5.6996   -1.1508    5.0812 Cl  0  0  0  0  0  0  0  0  0  0  0  0
   -6.5989   -3.6433    4.2396 C   0  0  0  0  0  0  0  0  0  0  0  0
   -7.1677   -4.1469    5.8644 S   0  0  0  0  0  0  0  0  0  0  0  0
   -8.8398   -3.4274    5.6899 C   0  0  0  0  0  0  0  0  0  0  0  0
   -9.7806   -4.4065    4.9989 C   0  0  0  0  0  0  0  0  0  0  0  0
   -6.6720   -4.5976    2.8575 S   0  0  0  0  0  0  0  0  0  0  0  0
   -6.0874   -2.7220   -0.5564 C   0  0  0  0  0  0  0  0  0  0  0  0
   -5.8420   -2.8650   -1.9276 C   0  0  0  0  0  0  0  0  0  0  0  0
   -5.1899   -4.0106   -2.4200 C   0  0  0  0  0  0  0  0  0  0  0  0
   -5.0076   -4.2319   -3.8603 C   0  0  0  0  0  0  0  0  0  0  0  0
   -6.2655   -4.4775   -4.9503 S   0  0  0  0  0  0  0  0  0  0  0  0
   -5.2793   -4.6482   -6.2995 C   0  0  0  0  0  0  0  0  0  0  0  0
   -5.8840   -4.9744   -7.9547 S   0  0  0  0  0  0  0  0  0  0  0  0
   -6.3359   -3.2395   -8.3047 C   0  0  0  0  0  0  0  0  0  0  0  0
   -5.1269   -2.4384   -8.7634 C   0  0  0  0  0  0  0  0  0  0  0  0
   -3.9502   -4.5165   -5.9117 C   0  0  0  0  0  0  0  0  0  0  0  0
   -3.7944   -4.2924   -4.5380 C   0  0  0  0  0  0  0  0  0  0  0  0
   -2.5913   -4.6500   -7.0126 Cl  0  0  0  0  0  0  0  0  0  0  0  0
   -4.7452   -4.9477   -1.4727 C   0  0  0  0  0  0  0  0  0  0  0  0
   -3.8629   -6.3584   -1.7360 S   0  0  0  0  0  0  0  0  0  0  0  0
   -6.2178   -1.7369   -2.6795 C   0  0  0  0  0  0  0  0  0  0  0  0
   -6.7811   -0.7261   -1.9008 C   0  0  0  0  0  0  0  0  0  0  0  0
   -6.8146   -1.2293   -0.2910 S   0  0  0  0  0  0  0  0  0  0  0  0
   -6.9110    0.6810   -2.2952 C   0  0  0  0  0  0  0  0  0  0  0  0
   -5.9984    1.3425   -3.1189 C   0  0  0  0  0  0  0  0  0  0  0  0
   -5.9904    2.7375   -2.9282 C   0  0  0  0  0  0  0  0  0  0  0  0
   -5.0241    3.6425   -3.4265 C   0  0  0  0  0  0  0  0  0  0  0  0
   -3.8677    3.1948   -4.2288 C   0  0  0  0  0  0  0  0  0  0  0  0
   -2.9278    2.2516   -3.8184 C   0  0  0  0  0  0  0  0  0  0  0  0
   -1.8192    2.1697   -4.6678 C   0  0  0  0  0  0  0  0  0  0  0  0
   -0.4631    1.0996   -4.3611 Cl  0  0  0  0  0  0  0  0  0  0  0  0
   -1.8826    3.0518   -5.7386 C   0  0  0  0  0  0  0  0  0  0  0  0
   -0.6027    3.3272   -6.9599 S   0  0  0  0  0  0  0  0  0  0  0  0
   -1.2102    2.0246   -8.0825 C   0  0  0  0  0  0  0  0  0  0  0  0
   -0.2832    1.9061   -9.2834 C   0  0  0  0  0  0  0  0  0  0  0  0
   -3.3056    3.9408   -5.6331 S   0  0  0  0  0  0  0  0  0  0  0  0
   -5.0587    4.9499   -2.9082 C   0  0  0  0  0  0  0  0  0  0  0  0
   -5.9807    5.3532   -1.9343 C   0  0  0  0  0  0  0  0  0  0  0  0
   -6.9898    4.4732   -1.5050 C   0  0  0  0  0  0  0  0  0  0  0  0
   -7.9455    4.8424   -0.4550 C   0  0  0  0  0  0  0  0  0  0  0  0
   -9.5692    5.1869   -0.7214 S   0  0  0  0  0  0  0  0  0  0  0  0
   -9.9611    5.3645    0.9039 C   0  0  0  0  0  0  0  0  0  0  0  0
  -11.5986    5.7648    1.5182 S   0  0  0  0  0  0  0  0  0  0  0  0
  -12.1265    4.0269    1.7349 C   0  0  0  0  0  0  0  0  0  0  0  0
  -12.5014    3.3861    0.4036 C   0  0  0  0  0  0  0  0  0  0  0  0
   -8.8195    5.1615    1.6738 C   0  0  0  0  0  0  0  0  0  0  0  0
   -7.6874    4.8613    0.9093 C   0  0  0  0  0  0  0  0  0  0  0  0
   -8.7920    5.2461    3.4239 Cl  0  0  0  0  0  0  0  0  0  0  0  0
   -6.9540    3.1652   -2.0082 C   0  0  0  0  0  0  0  0  0  0  0  0
   -7.7582    1.8266   -1.3909 S   0  0  0  0  0  0  0  0  0  0  0  0
   -5.6460    6.5733   -1.3170 C   0  0  0  0  0  0  0  0  0  0  0  0
   -4.4396    7.1075   -1.7719 C   0  0  0  0  0  0  0  0  0  0  0  0
   -3.8376    6.0968   -2.9819 S   0  0  0  0  0  0  0  0  0  0  0  0
   -3.5424    7.9221   -0.9390 C   0  0  0  0  0  0  0  0  0  0  0  0
   -2.2694    8.3058   -1.3617 C   0  0  0  0  0  0  0  0  0  0  0  0
   -1.3359    8.3935   -0.3153 C   0  0  0  0  0  0  0  0  0  0  0  0
    0.0598    8.5119   -0.4694 C   0  0  0  0  0  0  0  0  0  0  0  0
    0.6942    8.5539   -1.7999 C   0  0  0  0  0  0  0  0  0  0  0  0
    1.6958    9.7912   -2.3451 S   0  0  0  0  0  0  0  0  0  0  0  0
    2.1273    9.0472   -3.7919 C   0  0  0  0  0  0  0  0  0  0  0  0
    3.1249    9.5949   -4.7652 C   0  0  0  0  0  0  0  0  0  0  0  0
    4.5296    9.1161   -4.4191 C   0  0  0  0  0  0  0  0  0  0  0  0
    1.5181    7.7931   -3.8484 C   0  0  0  0  0  0  0  0  0  0  0  0
    1.7622    6.6511   -5.1639 Cl  0  0  0  0  0  0  0  0  0  0  0  0
    0.7182    7.5155   -2.7304 C   0  0  0  0  0  0  0  0  0  0  0  0
   -0.0807    5.9658   -2.4834 Cl  0  0  0  0  0  0  0  0  0  0  0  0
    0.8428    8.3306    0.6814 C   0  0  0  0  0  0  0  0  0  0  0  0
    0.2905    8.0118    1.9273 C   0  0  0  0  0  0  0  0  0  0  0  0
   -1.1073    7.9529    2.0930 C   0  0  0  0  0  0  0  0  0  0  0  0
   -1.7137    7.5367    3.3674 C   0  0  0  0  0  0  0  0  0  0  0  0
   -1.8277    8.5073    4.7366 S   0  0  0  0  0  0  0  0  0  0  0  0
   -2.6072    7.3654    5.6971 C   0  0  0  0  0  0  0  0  0  0  0  0
   -2.9840    7.5709    7.1333 C   0  0  0  0  0  0  0  0  0  0  0  0
   -1.8414    7.1605    8.0559 C   0  0  0  0  0  0  0  0  0  0  0  0
   -2.7601    6.1919    4.9609 C   0  0  0  0  0  0  0  0  0  0  0  0
   -2.2661    6.2893    3.6521 C   0  0  0  0  0  0  0  0  0  0  0  0
   -2.2905    4.9535    2.5067 Cl  0  0  0  0  0  0  0  0  0  0  0  0
   -3.4950    4.7282    5.6036 Cl  0  0  0  0  0  0  0  0  0  0  0  0
   -1.8932    8.1439    0.9434 C   0  0  0  0  0  0  0  0  0  0  0  0
   -3.5245    7.7933    0.7478 S   0  0  0  0  0  0  0  0  0  0  0  0
    1.2438    7.5479    2.8525 C   0  0  0  0  0  0  0  0  0  0  0  0
    2.5378    7.5033    2.3299 C   0  0  0  0  0  0  0  0  0  0  0  0
    2.4971    8.0626    0.7401 S   0  0  0  0  0  0  0  0  0  0  0  0
    3.6085    6.6197    2.8141 C   0  0  0  0  0  0  0  0  0  0  0  0
    4.8774    6.5644    2.2389 C   0  0  0  0  0  0  0  0  0  0  0  0
    5.5179    5.3282    2.4185 C   0  0  0  0  0  0  0  0  0  0  0  0
    6.6876    4.9109    1.7514 C   0  0  0  0  0  0  0  0  0  0  0  0
    7.4694    5.8373    0.9077 C   0  0  0  0  0  0  0  0  0  0  0  0
    7.6702    5.6960   -0.7589 S   0  0  0  0  0  0  0  0  0  0  0  0
    8.5836    7.0968   -0.9480 C   0  0  0  0  0  0  0  0  0  0  0  0
    9.1784    7.5580   -2.2445 C   0  0  0  0  0  0  0  0  0  0  0  0
   10.5734    6.9734   -2.4367 C   0  0  0  0  0  0  0  0  0  0  0  0
    8.7576    7.6883    0.3022 C   0  0  0  0  0  0  0  0  0  0  0  0
    9.6919    9.1550    0.5609 Cl  0  0  0  0  0  0  0  0  0  0  0  0
    8.1230    6.9882    1.3397 C   0  0  0  0  0  0  0  0  0  0  0  0
    8.1833    7.4940    3.0251 Cl  0  0  0  0  0  0  0  0  0  0  0  0
    7.0027    3.5437    1.8204 C   0  0  0  0  0  0  0  0  0  0  0  0
    6.2317    2.6278    2.5436 C   0  0  0  0  0  0  0  0  0  0  0  0
    5.0910    3.0553    3.2573 C   0  0  0  0  0  0  0  0  0  0  0  0
    4.1853    2.0956    3.9203 C   0  0  0  0  0  0  0  0  0  0  0  0
    3.3761    0.8388    3.1420 S   0  0  0  0  0  0  0  0  0  0  0  0
    2.6304    0.2214    4.5171 C   0  0  0  0  0  0  0  0  0  0  0  0
    1.8078   -1.0297    4.5450 C   0  0  0  0  0  0  0  0  0  0  0  0
    2.6904   -2.2470    4.8031 C   0  0  0  0  0  0  0  0  0  0  0  0
    3.0180    0.9888    5.6153 C   0  0  0  0  0  0  0  0  0  0  0  0
    3.8796    2.0470    5.2784 C   0  0  0  0  0  0  0  0  0  0  0  0
    4.5555    3.1584    6.4625 Cl  0  0  0  0  0  0  0  0  0  0  0  0
    2.5139    0.6471    7.2642 Cl  0  0  0  0  0  0  0  0  0  0  0  0
    4.7606    4.4207    3.1677 C   0  0  0  0  0  0  0  0  0  0  0  0
    3.3039    5.1484    3.5877 S   0  0  0  0  0  0  0  0  0  0  0  0
    6.6459    1.2982    2.3644 C   0  0  0  0  0  0  0  0  0  0  0  0
    7.7033    1.1681    1.4656 C   0  0  0  0  0  0  0  0  0  0  0  0
    8.1721    2.7054    0.9494 S   0  0  0  0  0  0  0  0  0  0  0  0
    8.0908   -0.0842    0.7973 C   0  0  0  0  0  0  0  0  0  0  0  0
    7.4020   -1.2931    0.9019 C   0  0  0  0  0  0  0  0  0  0  0  0
    7.7739   -2.2258   -0.0784 C   0  0  0  0  0  0  0  0  0  0  0  0
    7.1865   -3.4909   -0.2867 C   0  0  0  0  0  0  0  0  0  0  0  0
    6.0243   -3.9505    0.4983 C   0  0  0  0  0  0  0  0  0  0  0  0
    5.9746   -5.3588    1.4164 S   0  0  0  0  0  0  0  0  0  0  0  0
    4.3668   -5.2077    1.8929 C   0  0  0  0  0  0  0  0  0  0  0  0
    3.6131   -6.2398    2.6743 C   0  0  0  0  0  0  0  0  0  0  0  0
    2.9250   -7.2258    1.7361 C   0  0  0  0  0  0  0  0  0  0  0  0
    3.8353   -4.0598    1.3090 C   0  0  0  0  0  0  0  0  0  0  0  0
    2.1512   -3.5774    1.4770 Cl  0  0  0  0  0  0  0  0  0  0  0  0
    4.7646   -3.3516    0.5314 C   0  0  0  0  0  0  0  0  0  0  0  0
    4.3431   -1.9110   -0.3867 Cl  0  0  0  0  0  0  0  0  0  0  0  0
    7.6933   -4.2570   -1.3504 C   0  0  0  0  0  0  0  0  0  0  0  0
    8.7055   -3.7935   -2.1982 C   0  0  0  0  0  0  0  0  0  0  0  0
    9.2770   -2.5187   -2.0016 C   0  0  0  0  0  0  0  0  0  0  0  0
   10.2869   -1.9627   -2.9183 C   0  0  0  0  0  0  0  0  0  0  0  0
   10.0599   -0.5930   -3.8700 S   0  0  0  0  0  0  0  0  0  0  0  0
   11.5966   -0.5924   -4.5514 C   0  0  0  0  0  0  0  0  0  0  0  0
   12.0714    0.3962   -5.5729 C   0  0  0  0  0  0  0  0  0  0  0  0
   11.8535   -0.1358   -6.9840 C   0  0  0  0  0  0  0  0  0  0  0  0
   12.3077   -1.6836   -4.0537 C   0  0  0  0  0  0  0  0  0  0  0  0
   11.5750   -2.4485   -3.1320 C   0  0  0  0  0  0  0  0  0  0  0  0
   12.2357   -3.8495   -2.2966 Cl  0  0  0  0  0  0  0  0  0  0  0  0
   13.9611   -2.0588   -4.5185 Cl  0  0  0  0  0  0  0  0  0  0  0  0
    8.7855   -1.7620   -0.9244 C   0  0  0  0  0  0  0  0  0  0  0  0
    9.1884   -0.1889   -0.4823 S   0  0  0  0  0  0  0  0  0  0  0  0
    8.9919   -4.6803   -3.2489 C   0  0  0  0  0  0  0  0  0  0  0  0
    8.2195   -5.8367   -3.2163 C   0  0  0  0  0  0  0  0  0  0  0  0
    7.1664   -5.7554   -1.9021 S   0  0  0  0  0  0  0  0  0  0  0  0
    0.7937  -14.0961    4.0513 H   0  0  0  0  0  0  0  0  0  0  0  0
    0.2171  -13.7407    1.5382 H   0  0  0  0  0  0  0  0  0  0  0  0
   -2.5771  -14.5351   -3.5843 H   0  0  0  0  0  0  0  0  0  0  0  0
   -0.8785  -14.9124   -4.0259 H   0  0  0  0  0  0  0  0  0  0  0  0
   -2.3977  -12.3122   -4.7288 H   0  0  0  0  0  0  0  0  0  0  0  0
   -0.6851  -12.6871   -5.1854 H   0  0  0  0  0  0  0  0  0  0  0  0
   -2.0412  -13.6762   -5.8524 H   0  0  0  0  0  0  0  0  0  0  0  0
   -2.9004   -6.6382    8.2292 H   0  0  0  0  0  0  0  0  0  0  0  0
   -4.3697   -7.3075    7.4510 H   0  0  0  0  0  0  0  0  0  0  0  0
   -4.3158   -4.8082    7.3534 H   0  0  0  0  0  0  0  0  0  0  0  0
   -4.2902   -5.5300    5.6977 H   0  0  0  0  0  0  0  0  0  0  0  0
   -2.7707   -4.8651    6.4256 H   0  0  0  0  0  0  0  0  0  0  0  0
   -2.8391   -7.3844    2.5335 H   0  0  0  0  0  0  0  0  0  0  0  0
   -4.3882   -5.8276    1.7478 H   0  0  0  0  0  0  0  0  0  0  0  0
   -5.1092   -1.4793    2.1620 H   0  0  0  0  0  0  0  0  0  0  0  0
   -9.2306   -3.2090    6.7068 H   0  0  0  0  0  0  0  0  0  0  0  0
   -8.8025   -2.4713    5.1260 H   0  0  0  0  0  0  0  0  0  0  0  0
   -9.4441   -4.5954    3.9585 H   0  0  0  0  0  0  0  0  0  0  0  0
  -10.8041   -3.9776    4.9694 H   0  0  0  0  0  0  0  0  0  0  0  0
   -9.8107   -5.3667    5.5561 H   0  0  0  0  0  0  0  0  0  0  0  0
   -7.0980   -3.2364   -9.1125 H   0  0  0  0  0  0  0  0  0  0  0  0
   -6.7907   -2.7611   -7.4116 H   0  0  0  0  0  0  0  0  0  0  0  0
   -4.6769   -2.9134   -9.6594 H   0  0  0  0  0  0  0  0  0  0  0  0
   -4.3701   -2.3875   -7.9550 H   0  0  0  0  0  0  0  0  0  0  0  0
   -5.4422   -1.4051   -9.0207 H   0  0  0  0  0  0  0  0  0  0  0  0
   -2.8333   -4.1702   -4.0566 H   0  0  0  0  0  0  0  0  0  0  0  0
   -6.0149   -1.6239   -3.7353 H   0  0  0  0  0  0  0  0  0  0  0  0
   -5.2692    0.8173   -3.7213 H   0  0  0  0  0  0  0  0  0  0  0  0
   -3.0148    1.6782   -2.9041 H   0  0  0  0  0  0  0  0  0  0  0  0
   -1.2393    1.0507   -7.5484 H   0  0  0  0  0  0  0  0  0  0  0  0
   -2.2342    2.2788   -8.4289 H   0  0  0  0  0  0  0  0  0  0  0  0
   -0.6518    1.1125   -9.9693 H   0  0  0  0  0  0  0  0  0  0  0  0
    0.7430    1.6415   -8.9462 H   0  0  0  0  0  0  0  0  0  0  0  0
   -0.2519    2.8691   -9.8342 H   0  0  0  0  0  0  0  0  0  0  0  0
  -11.3285    3.4365    2.2314 H   0  0  0  0  0  0  0  0  0  0  0  0
  -13.0164    4.0174    2.4010 H   0  0  0  0  0  0  0  0  0  0  0  0
  -11.5985    3.2294   -0.2198 H   0  0  0  0  0  0  0  0  0  0  0  0
  -12.9712    2.3967    0.5878 H   0  0  0  0  0  0  0  0  0  0  0  0
  -13.2177    4.0291   -0.1474 H   0  0  0  0  0  0  0  0  0  0  0  0
   -6.7139    4.6521    1.3359 H   0  0  0  0  0  0  0  0  0  0  0  0
   -6.1711    6.9648   -0.4549 H   0  0  0  0  0  0  0  0  0  0  0  0
   -1.9949    8.3608   -2.4083 H   0  0  0  0  0  0  0  0  0  0  0  0
    3.0948   10.7043   -4.7385 H   0  0  0  0  0  0  0  0  0  0  0  0
    2.8632    9.2719   -5.7964 H   0  0  0  0  0  0  0  0  0  0  0  0
    5.2515    9.5121   -5.1640 H   0  0  0  0  0  0  0  0  0  0  0  0
    4.5783    8.0061   -4.4326 H   0  0  0  0  0  0  0  0  0  0  0  0
    4.8239    9.4819   -3.4124 H   0  0  0  0  0  0  0  0  0  0  0  0
   -3.8885    6.9728    7.3780 H   0  0  0  0  0  0  0  0  0  0  0  0
   -3.2352    8.6386    7.3048 H   0  0  0  0  0  0  0  0  0  0  0  0
   -0.9502    7.7986    7.8717 H   0  0  0  0  0  0  0  0  0  0  0  0
   -2.1564    7.2849    9.1118 H   0  0  0  0  0  0  0  0  0  0  0  0
   -1.5704    6.0963    7.8886 H   0  0  0  0  0  0  0  0  0  0  0  0
    0.9861    7.1232    3.8150 H   0  0  0  0  0  0  0  0  0  0  0  0
    5.2569    7.3392    1.5858 H   0  0  0  0  0  0  0  0  0  0  0  0
    8.5260    7.2393   -3.0851 H   0  0  0  0  0  0  0  0  0  0  0  0
    9.2354    8.6668   -2.2626 H   0  0  0  0  0  0  0  0  0  0  0  0
   11.0032    7.3450   -3.3921 H   0  0  0  0  0  0  0  0  0  0  0  0
   11.2394    7.2807   -1.6027 H   0  0  0  0  0  0  0  0  0  0  0  0
   10.5205    5.8654   -2.4799 H   0  0  0  0  0  0  0  0  0  0  0  0
    1.2926   -1.1507    3.5707 H   0  0  0  0  0  0  0  0  0  0  0  0
    1.0280   -0.9578    5.3330 H   0  0  0  0  0  0  0  0  0  0  0  0
    2.0702   -3.1673    4.7823 H   0  0  0  0  0  0  0  0  0  0  0  0
    3.1762   -2.1681    5.7981 H   0  0  0  0  0  0  0  0  0  0  0  0
    3.4756   -2.3289    4.0195 H   0  0  0  0  0  0  0  0  0  0  0  0
    6.1430    0.4537    2.8104 H   0  0  0  0  0  0  0  0  0  0  0  0
    6.6115   -1.4674    1.6186 H   0  0  0  0  0  0  0  0  0  0  0  0
    2.8549   -5.7464    3.3201 H   0  0  0  0  0  0  0  0  0  0  0  0
    4.3157   -6.7899    3.3352 H   0  0  0  0  0  0  0  0  0  0  0  0
    2.1736   -6.6995    1.1093 H   0  0  0  0  0  0  0  0  0  0  0  0
    3.6723   -7.7177    1.0764 H   0  0  0  0  0  0  0  0  0  0  0  0
    2.4064   -8.0080    2.3252 H   0  0  0  0  0  0  0  0  0  0  0  0
   13.1495    0.6134   -5.4167 H   0  0  0  0  0  0  0  0  0  0  0  0
   11.5118    1.3477   -5.4507 H   0  0  0  0  0  0  0  0  0  0  0  0
   12.1733    0.6291   -7.7209 H   0  0  0  0  0  0  0  0  0  0  0  0
   10.7775   -0.3610   -7.1504 H   0  0  0  0  0  0  0  0  0  0  0  0
   12.4499   -1.0594   -7.1444 H   0  0  0  0  0  0  0  0  0  0  0  0
    9.7206   -4.4894   -4.0258 H   0  0  0  0  0  0  0  0  0  0  0  0
    8.2740   -6.6476   -3.9312 H   0  0  0  0  0  0  0  0  0  0  0  0
  1  2  2  0
  2  3  1  0
  3  4  2  0
  4  5  1  0
  5  6  1  0
  6  7  1  0
  7  8  1  0
  8  9  1  0
  7 10  2  0
 10 11  1  0
 10 12  1  0
 12 13  1  0
  4 14  1  0
 14 15  2  0
 15 16  1  0
 16 17  1  0
 17 18  1  0
 18 19  1  0
 19 20  1  0
 20 21  1  0
 19 22  2  0
 22 23  1  0
 23 24  1  0
 22 25  1  0
 16 26  2  0
 26 27  1  0
 15 28  1  0
 28 29  2  0
 29 30  1  0
 29 31  1  0
 31 32  2  0
 32 33  1  0
 33 34  2  0
 34 35  1  0
 35 36  2  0
 36 37  1  0
 37 38  1  0
 37 39  2  0
 39 40  1  0
 40 41  1  0
 41 42  1  0
 39 43  1  0
 34 44  1  0
 44 45  2  0
 45 46  1  0
 46 47  1  0
 47 48  1  0
 48 49  1  0
 49 50  1  0
 50 51  1  0
 51 52  1  0
 49 53  2  0
 53 54  1  0
 53 55  1  0
 46 56  2  0
 56 57  1  0
 45 58  1  0
 58 59  2  0
 59 60  1  0
 59 61  1  0
 61 62  2  0
 62 63  1  0
 63 64  2  0
 64 65  1  0
 65 66  2  0
 66 67  1  0
 67 68  1  0
 67 69  2  0
 69 70  1  0
 70 71  1  0
 71 72  1  0
 69 73  1  0
 64 74  1  0
 74 75  2  0
 75 76  1  0
 76 77  1  0
 77 78  1  0
 78 79  1  0
 79 80  1  0
 80 81  1  0
 81 82  1  0
 79 83  2  0
 83 84  1  0
 83 85  1  0
 76 86  2  0
 86 87  1  0
 75 88  1  0
 88 89  2  0
 89 90  1  0
 89 91  1  0
 91 92  2  0
 92 93  1  0
 93 94  2  0
 94 95  1  0
 95 96  1  0
 96 97  1  0
 97 98  1  0
 98 99  1  0
 97100  2  0
100101  1  0
100102  1  0
102103  1  0
 94104  1  0
104105  2  0
105106  1  0
106107  1  0
107108  1  0
108109  1  0
109110  1  0
110111  1  0
109112  2  0
112113  1  0
113114  1  0
112115  1  0
106116  2  0
116117  1  0
105118  1  0
118119  2  0
119120  1  0
119121  1  0
121122  2  0
122123  1  0
123124  2  0
124125  1  0
125126  1  0
126127  1  0
127128  1  0
128129  1  0
127130  2  0
130131  1  0
130132  1  0
132133  1  0
124134  1  0
134135  2  0
135136  1  0
136137  1  0
137138  1  0
138139  1  0
139140  1  0
140141  1  0
139142  2  0
142143  1  0
143144  1  0
142145  1  0
136146  2  0
146147  1  0
135148  1  0
148149  2  0
149150  1  0
149151  1  0
151152  2  0
152153  1  0
153154  2  0
154155  1  0
155156  1  0
156157  1  0
157158  1  0
158159  1  0
157160  2  0
160161  1  0
160162  1  0
162163  1  0
154164  1  0
164165  2  0
165166  1  0
166167  1  0
167168  1  0
168169  1  0
169170  1  0
170171  1  0
169172  2  0
172173  1  0
173174  1  0
172175  1  0
166176  2  0
176177  1  0
165178  1  0
178179  2  0
179180  1  0
 27  1  1  0
 57 31  1  0
 87 61  1  0
117 91  1  0
147121  1  0
177151  1  0
 26  3  1  0
 56 33  1  0
 86 63  1  0
116 93  1  0
146123  1  0
176153  1  0
 12  5  2  0
 30 14  1  0
 43 35  1  0
 60 44  1  0
 73 65  1  0
 90 74  1  0
102 95  2  0
120104  1  0
132125  2  0
150134  1  0
162155  2  0
180164  1  0
 23 17  2  0
 54 47  2  0
 84 77  2  0
113107  2  0
143137  2  0
173167  2  0
  1181  1  0
  2182  1  0
  8183  1  0
  8184  1  0
  9185  1  0
  9186  1  0
  9187  1  0
 20188  1  0
 20189  1  0
 21190  1  0
 21191  1  0
 21192  1  0
 28193  1  0
 32194  1  0
 36195  1  0
 41196  1  0
 41197  1  0
 42198  1  0
 42199  1  0
 42200  1  0
 51201  1  0
 51202  1  0
 52203  1  0
 52204  1  0
 52205  1  0
 54206  1  0
 58207  1  0
 62208  1  0
 66209  1  0
 71210  1  0
 71211  1  0
 72212  1  0
 72213  1  0
 72214  1  0
 81215  1  0
 81216  1  0
 82217  1  0
 82218  1  0
 82219  1  0
 84220  1  0
 88221  1  0
 92222  1  0
 98223  1  0
 98224  1  0
 99225  1  0
 99226  1  0
 99227  1  0
110228  1  0
110229  1  0
111230  1  0
111231  1  0
111232  1  0
118233  1  0
122234  1  0
128235  1  0
128236  1  0
129237  1  0
129238  1  0
129239  1  0
140240  1  0
140241  1  0
141242  1  0
141243  1  0
141244  1  0
148245  1  0
152246  1  0
158247  1  0
158248  1  0
159249  1  0
159250  1  0
159251  1  0
170252  1  0
170253  1  0
171254  1  0
171255  1  0
171256  1  0
178257  1  0
179258  1  0
M  END

