
     RDKit          3D

 94103  0  0  0  0  0  0  0  0999 V2000
   12.9569   -0.9587    7.6876 C   0  0  0  0  0  0  0  0  0  0  0  0
   12.0968   -1.3405    8.6688 C   0  0  0  0  0  0  0  0  0  0  0  0
   10.7733   -1.3781    8.4621 C   0  0  0  0  0  0  0  0  0  0  0  0
    9.8459   -1.8043    9.6248 C   0  0  0  0  0  0  0  0  0  0  0  0
    9.2361   -3.1503    9.3427 C   0  0  0  0  0  0  0  0  0  0  0  0
   10.2046   -1.0514    7.2967 C   0  0  0  0  0  0  0  0  0  0  0  0
   11.7809   -0.5911    6.2442 Se  0  0  0  0  0  2  0  0  0  0  0  0
    8.8769   -0.9104    6.7225 C   0  0  0  0  0  0  0  0  0  0  0  0
    8.5535   -0.8036    5.0077 S   0  0  0  0  0  0  0  0  0  0  0  0
    6.8871   -0.5949    5.0623 C   0  0  0  0  0  0  0  0  0  0  0  0
    5.6943   -0.4193    4.3660 C   0  0  0  0  0  0  0  0  0  0  0  0
    4.6646   -0.3169    5.2490 C   0  0  0  0  0  0  0  0  0  0  0  0
    5.2228   -0.4325    6.5026 N   0  0  0  0  0  0  0  0  0  0  0  0
    4.4715   -0.3622    7.7571 C   0  0  0  0  0  0  0  0  0  0  0  0
    4.0148   -1.7422    8.1433 C   0  0  0  0  0  0  0  0  0  0  0  0
    6.5852   -0.6044    6.3827 C   0  0  0  0  0  0  0  0  0  0  0  0
    7.6348   -0.7713    7.2456 C   0  0  0  0  0  0  0  0  0  0  0  0
    3.4188   -0.1574    4.7232 C   0  0  0  0  0  0  0  0  0  0  0  0
    3.3313   -0.1175    3.3592 C   0  0  0  0  0  0  0  0  0  0  0  0
    4.9374   -0.2962    2.8516 S   0  0  0  0  0  0  0  0  0  0  0  0
    2.1111   -0.0114    2.5397 C   0  0  0  0  0  0  0  0  0  0  0  0
    0.8471    0.2467    2.8980 C   0  0  0  0  0  0  0  0  0  0  0  0
   -0.1564    0.2575    2.0162 C   0  0  0  0  0  0  0  0  0  0  0  0
   -1.6203    0.5225    2.4644 C   0  0  0  0  0  0  0  0  0  0  0  0
   -2.3397   -0.8005    2.5920 C   0  0  0  0  0  0  0  0  0  0  0  0
    0.0201    0.0162    0.7270 C   0  0  0  0  0  0  0  0  0  0  0  0
    1.9898   -0.2945    0.7200 Se  0  0  0  0  0  2  0  0  0  0  0  0
   -0.7417   -0.0095   -0.4959 C   0  0  0  0  0  0  0  0  0  0  0  0
   -0.3863   -0.3222   -1.7696 C   0  0  0  0  0  0  0  0  0  0  0  0
   -1.2525   -0.2334   -2.7790 C   0  0  0  0  0  0  0  0  0  0  0  0
   -0.8106   -0.6163   -4.2164 C   0  0  0  0  0  0  0  0  0  0  0  0
   -1.3648   -1.9806   -4.5657 C   0  0  0  0  0  0  0  0  0  0  0  0
   -2.5094    0.1593   -2.6392 C   0  0  0  0  0  0  0  0  0  0  0  0
   -2.5448    0.4904   -0.6855 Se  0  0  0  0  0  2  0  0  0  0  0  0
   -3.6966    0.3497   -3.4241 C   0  0  0  0  0  0  0  0  0  0  0  0
   -4.9225    0.7879   -3.1127 C   0  0  0  0  0  0  0  0  0  0  0  0
   -5.9150    0.8674   -3.9871 C   0  0  0  0  0  0  0  0  0  0  0  0
   -7.3167    1.3998   -3.5827 C   0  0  0  0  0  0  0  0  0  0  0  0
   -8.2699    0.2445   -3.3986 C   0  0  0  0  0  0  0  0  0  0  0  0
   -5.7618    0.5062   -5.2727 C   0  0  0  0  0  0  0  0  0  0  0  0
   -3.8766   -0.0478   -5.2672 Se  0  0  0  0  0  2  0  0  0  0  0  0
   -6.6110    0.4732   -6.4337 C   0  0  0  0  0  0  0  0  0  0  0  0
   -8.2337    0.9989   -6.5403 S   0  0  0  0  0  0  0  0  0  0  0  0
   -8.5439    0.6128   -8.1577 C   0  0  0  0  0  0  0  0  0  0  0  0
   -9.4619    0.6099   -9.2029 C   0  0  0  0  0  0  0  0  0  0  0  0
   -8.8499    0.0681  -10.2899 C   0  0  0  0  0  0  0  0  0  0  0  0
   -7.5625   -0.2608   -9.9133 N   0  0  0  0  0  0  0  0  0  0  0  0
   -6.5653   -0.8821  -10.7897 C   0  0  0  0  0  0  0  0  0  0  0  0
   -5.8256    0.2185  -11.4808 C   0  0  0  0  0  0  0  0  0  0  0  0
   -7.3720    0.0762   -8.5949 C   0  0  0  0  0  0  0  0  0  0  0  0
   -6.3587    0.0043   -7.6861 C   0  0  0  0  0  0  0  0  0  0  0  0
   -9.6023   -0.0151  -11.4275 C   0  0  0  0  0  0  0  0  0  0  0  0
  -10.8907    0.4533  -11.3577 C   0  0  0  0  0  0  0  0  0  0  0  0
  -11.0172    0.9861   -9.7413 S   0  0  0  0  0  0  0  0  0  0  0  0
   14.0589   -0.8983    7.7039 H   0  0  0  0  0  0  0  0  0  0  0  0
   12.5913   -1.6171    9.6574 H   0  0  0  0  0  0  0  0  0  0  0  0
   10.4422   -1.8852   10.5796 H   0  0  0  0  0  0  0  0  0  0  0  0
    9.0861   -1.0770    9.8297 H   0  0  0  0  0  0  0  0  0  0  0  0
    8.2729   -3.1789    9.8886 H   0  0  0  0  0  0  0  0  0  0  0  0
    9.0031   -3.1907    8.2350 H   0  0  0  0  0  0  0  0  0  0  0  0
    9.8216   -4.0109    9.6727 H   0  0  0  0  0  0  0  0  0  0  0  0
    3.5682    0.2649    7.5981 H   0  0  0  0  0  0  0  0  0  0  0  0
    5.0558    0.1518    8.5597 H   0  0  0  0  0  0  0  0  0  0  0  0
    3.7331   -2.2891    7.2314 H   0  0  0  0  0  0  0  0  0  0  0  0
    4.7963   -2.2586    8.7484 H   0  0  0  0  0  0  0  0  0  0  0  0
    3.1341   -1.6400    8.8093 H   0  0  0  0  0  0  0  0  0  0  0  0
    7.5259   -0.7961    8.3623 H   0  0  0  0  0  0  0  0  0  0  0  0
    2.4706   -0.0551    5.3168 H   0  0  0  0  0  0  0  0  0  0  0  0
    0.6576    0.4615    3.9965 H   0  0  0  0  0  0  0  0  0  0  0  0
   -2.1123    1.1775    1.7548 H   0  0  0  0  0  0  0  0  0  0  0  0
   -1.6455    1.0040    3.4392 H   0  0  0  0  0  0  0  0  0  0  0  0
   -2.7844   -0.9258    3.6290 H   0  0  0  0  0  0  0  0  0  0  0  0
   -1.6242   -1.6634    2.5169 H   0  0  0  0  0  0  0  0  0  0  0  0
   -3.2065   -0.9039    1.9143 H   0  0  0  0  0  0  0  0  0  0  0  0
    0.6879   -0.6756   -1.9104 H   0  0  0  0  0  0  0  0  0  0  0  0
    0.2680   -0.6805   -4.3060 H   0  0  0  0  0  0  0  0  0  0  0  0
   -1.1422    0.1835   -4.9050 H   0  0  0  0  0  0  0  0  0  0  0  0
   -2.1985   -2.2729   -3.9222 H   0  0  0  0  0  0  0  0  0  0  0  0
   -0.5877   -2.7918   -4.4073 H   0  0  0  0  0  0  0  0  0  0  0  0
   -1.5896   -2.0556   -5.6505 H   0  0  0  0  0  0  0  0  0  0  0  0
   -5.0836    1.0934   -2.0237 H   0  0  0  0  0  0  0  0  0  0  0  0
   -7.6570    2.1157   -4.3377 H   0  0  0  0  0  0  0  0  0  0  0  0
   -7.2568    1.9561   -2.6339 H   0  0  0  0  0  0  0  0  0  0  0  0
   -9.3239    0.5296   -3.5761 H   0  0  0  0  0  0  0  0  0  0  0  0
   -8.2311   -0.1426   -2.3406 H   0  0  0  0  0  0  0  0  0  0  0  0
   -7.9668   -0.6082   -4.0352 H   0  0  0  0  0  0  0  0  0  0  0  0
   -5.8543   -1.4274  -10.1302 H   0  0  0  0  0  0  0  0  0  0  0  0
   -7.1071   -1.5470  -11.4982 H   0  0  0  0  0  0  0  0  0  0  0  0
   -5.8251    1.1412  -10.8470 H   0  0  0  0  0  0  0  0  0  0  0  0
   -6.2578    0.4018  -12.4706 H   0  0  0  0  0  0  0  0  0  0  0  0
   -4.7570   -0.0902  -11.6562 H   0  0  0  0  0  0  0  0  0  0  0  0
   -5.3334   -0.4128   -7.8928 H   0  0  0  0  0  0  0  0  0  0  0  0
   -9.2506   -0.4275  -12.4080 H   0  0  0  0  0  0  0  0  0  0  0  0
  -11.6351    0.4601  -12.1757 H   0  0  0  0  0  0  0  0  0  0  0  0
  1  2  2  0
  2  3  1  0
  3  4  1  0
  4  5  1  0
  3  6  2  0
  6  7  1  0
  6  8  1  0
  8  9  1  0
  9 10  1  0
 10 11  1  0
 11 12  2  0
 12 13  1  0
 13 14  1  0
 14 15  1  0
 13 16  1  0
 16 17  1  0
 12 18  1  0
 18 19  2  0
 19 20  1  0
 19 21  1  0
 21 22  2  0
 22 23  1  0
 23 24  1  0
 24 25  1  0
 23 26  2  0
 26 27  1  0
 26 28  1  0
 28 29  2  0
 29 30  1  0
 30 31  1  0
 31 32  1  0
 30 33  2  0
 33 34  1  0
 33 35  1  0
 35 36  2  0
 36 37  1  0
 37 38  1  0
 38 39  1  0
 37 40  2  0
 40 41  1  0
 40 42  1  0
 42 43  1  0
 43 44  1  0
 44 45  1  0
 45 46  2  0
 46 47  1  0
 47 48  1  0
 48 49  1  0
 47 50  1  0
 50 51  1  0
 46 52  1  0
 52 53  2  0
 53 54  1  0
  7  1  1  0
 17  8  2  0
 27 21  1  0
 34 28  1  0
 41 35  1  0
 51 42  2  0
 16 10  2  0
 50 44  2  0
 20 11  1  0
 54 45  1  0
  1 55  1  0
  2 56  1  0
  4 57  1  0
  4 58  1  0
  5 59  1  0
  5 60  1  0
  5 61  1  0
 14 62  1  0
 14 63  1  0
 15 64  1  0
 15 65  1  0
 15 66  1  0
 17 67  1  0
 18 68  1  0
 22 69  1  0
 24 70  1  0
 24 71  1  0
 25 72  1  0
 25 73  1  0
 25 74  1  0
 29 75  1  0
 31 76  1  0
 31 77  1  0
 32 78  1  0
 32 79  1  0
 32 80  1  0
 36 81  1  0
 38 82  1  0
 38 83  1  0
 39 84  1  0
 39 85  1  0
 39 86  1  0
 48 87  1  0
 48 88  1  0
 49 89  1  0
 49 90  1  0
 49 91  1  0
 51 92  1  0
 52 93  1  0
 53 94  1  0
M  END

