
     RDKit          3D

225250  0  0  0  0  0  0  0  0999 V2000
    3.4557    4.9433   13.0712 C   0  0  0  0  0  0  0  0  0  0  0  0
    3.6724    5.8229   12.0377 C   0  0  0  0  0  0  0  0  0  0  0  0
    3.3027    5.4335   10.8026 C   0  0  0  0  0  0  0  0  0  0  0  0
    3.4396    6.1588    9.6229 C   0  0  0  0  0  0  0  0  0  0  0  0
    4.1836    7.4187    9.4948 C   0  0  0  0  0  0  0  0  0  0  0  0
    3.7681    8.7931    8.5416 S   0  0  0  0  0  0  0  0  0  0  0  0
    5.1499    9.7464    8.7760 C   0  0  0  0  0  0  0  0  0  0  0  0
    5.5016   11.1080    8.2005 C   0  0  0  0  0  0  0  0  0  0  0  0
    6.4677   10.8967    7.0418 C   0  0  0  0  0  0  0  0  0  0  0  0
    5.9185    8.9628    9.6047 C   0  0  0  0  0  0  0  0  0  0  0  0
    7.5104    9.5882   10.1579 Cl  0  0  0  0  0  0  0  0  0  0  0  0
    5.4201    7.7710    9.9703 C   0  0  0  0  0  0  0  0  0  0  0  0
    6.3930    6.6099   10.9460 Cl  0  0  0  0  0  0  0  0  0  0  0  0
    2.9993    5.6109    8.4166 C   0  0  0  0  0  0  0  0  0  0  0  0
    2.4238    4.3816    8.2711 C   0  0  0  0  0  0  0  0  0  0  0  0
    2.2906    3.6455    9.4758 C   0  0  0  0  0  0  0  0  0  0  0  0
    1.7287    2.2913    9.4608 C   0  0  0  0  0  0  0  0  0  0  0  0
    1.7859    1.1581    8.1731 S   0  0  0  0  0  0  0  0  0  0  0  0
    0.8396   -0.0937    8.8123 C   0  0  0  0  0  0  0  0  0  0  0  0
    0.4431   -1.4075    8.2116 C   0  0  0  0  0  0  0  0  0  0  0  0
    1.2602   -2.4839    8.8894 C   0  0  0  0  0  0  0  0  0  0  0  0
    0.4907    0.4047   10.0358 C   0  0  0  0  0  0  0  0  0  0  0  0
    0.9467    1.6256   10.3601 C   0  0  0  0  0  0  0  0  0  0  0  0
    0.4419    2.3861   11.9095 Cl  0  0  0  0  0  0  0  0  0  0  0  0
   -0.5380   -0.5925   11.1182 Cl  0  0  0  0  0  0  0  0  0  0  0  0
    2.7278    4.1894   10.6724 C   0  0  0  0  0  0  0  0  0  0  0  0
    2.7506    3.6319   12.2838 S   0  0  0  0  0  0  0  0  0  0  0  0
    2.0546    4.0138    7.0185 C   0  0  0  0  0  0  0  0  0  0  0  0
    2.2911    4.9011    6.0111 C   0  0  0  0  0  0  0  0  0  0  0  0
    3.0100    6.2143    6.8118 S   0  0  0  0  0  0  0  0  0  0  0  0
    2.0443    4.7695    4.5768 C   0  0  0  0  0  0  0  0  0  0  0  0
    1.7359    3.7053    3.8160 C   0  0  0  0  0  0  0  0  0  0  0  0
    1.5716    3.8985    2.4812 C   0  0  0  0  0  0  0  0  0  0  0  0
    1.1963    2.9316    1.5314 C   0  0  0  0  0  0  0  0  0  0  0  0
    1.1121    1.5237    1.8738 C   0  0  0  0  0  0  0  0  0  0  0  0
   -0.0965    0.4199    1.4088 S   0  0  0  0  0  0  0  0  0  0  0  0
    0.4959   -0.9970    2.1468 C   0  0  0  0  0  0  0  0  0  0  0  0
   -0.0801   -2.3903    2.1933 C   0  0  0  0  0  0  0  0  0  0  0  0
   -0.7065   -2.6482    3.5504 C   0  0  0  0  0  0  0  0  0  0  0  0
    1.6559   -0.5603    2.7443 C   0  0  0  0  0  0  0  0  0  0  0  0
    2.6437   -1.7437    3.6536 Cl  0  0  0  0  0  0  0  0  0  0  0  0
    1.9637    0.7404    2.5941 C   0  0  0  0  0  0  0  0  0  0  0  0
    3.5204    1.3805    3.2187 Cl  0  0  0  0  0  0  0  0  0  0  0  0
    1.0020    3.3173    0.2116 C   0  0  0  0  0  0  0  0  0  0  0  0
    1.1456    4.6026   -0.2726 C   0  0  0  0  0  0  0  0  0  0  0  0
    1.5208    5.5423    0.6714 C   0  0  0  0  0  0  0  0  0  0  0  0
    1.6043    6.9953    0.4924 C   0  0  0  0  0  0  0  0  0  0  0  0
    2.8114    8.0225    1.2295 S   0  0  0  0  0  0  0  0  0  0  0  0
    2.2327    9.5303    0.7393 C   0  0  0  0  0  0  0  0  0  0  0  0
    2.7699   10.9253    1.0233 C   0  0  0  0  0  0  0  0  0  0  0  0
    1.8726   11.4487    2.1408 C   0  0  0  0  0  0  0  0  0  0  0  0
    1.1190    9.2152    0.0187 C   0  0  0  0  0  0  0  0  0  0  0  0
    0.7959    7.9145   -0.1048 C   0  0  0  0  0  0  0  0  0  0  0  0
   -0.7436    7.4364   -0.9384 Cl  0  0  0  0  0  0  0  0  0  0  0  0
    0.1519   10.5361   -0.7066 Cl  0  0  0  0  0  0  0  0  0  0  0  0
    1.7200    5.1486    2.0064 C   0  0  0  0  0  0  0  0  0  0  0  0
    2.1037    6.0382    3.4169 S   0  0  0  0  0  0  0  0  0  0  0  0
    0.8973    4.7540   -1.6071 C   0  0  0  0  0  0  0  0  0  0  0  0
    0.5419    3.7137   -2.3287 C   0  0  0  0  0  0  0  0  0  0  0  0
    0.5465    2.4131   -1.1487 S   0  0  0  0  0  0  0  0  0  0  0  0
   -0.0547    3.5282   -3.6631 C   0  0  0  0  0  0  0  0  0  0  0  0
    0.2364    2.6309   -4.6083 C   0  0  0  0  0  0  0  0  0  0  0  0
   -0.5894    2.5032   -5.6704 C   0  0  0  0  0  0  0  0  0  0  0  0
   -0.5968    1.4930   -6.6418 C   0  0  0  0  0  0  0  0  0  0  0  0
    0.3576    0.4073   -6.6761 C   0  0  0  0  0  0  0  0  0  0  0  0
    1.1960   -0.2854   -5.3583 S   0  0  0  0  0  0  0  0  0  0  0  0
    2.1267   -1.4523   -6.1841 C   0  0  0  0  0  0  0  0  0  0  0  0
    3.1054   -2.4840   -5.6591 C   0  0  0  0  0  0  0  0  0  0  0  0
    2.3188   -3.7776   -5.6505 C   0  0  0  0  0  0  0  0  0  0  0  0
    1.7575   -1.2633   -7.4782 C   0  0  0  0  0  0  0  0  0  0  0  0
    2.5029   -2.2993   -8.7578 Cl  0  0  0  0  0  0  0  0  0  0  0  0
    0.8427   -0.3112   -7.7467 C   0  0  0  0  0  0  0  0  0  0  0  0
    0.3486    0.0764   -9.4247 Cl  0  0  0  0  0  0  0  0  0  0  0  0
   -1.6942    1.3845   -7.5159 C   0  0  0  0  0  0  0  0  0  0  0  0
   -2.7704    2.1632   -7.5276 C   0  0  0  0  0  0  0  0  0  0  0  0
   -2.7617    3.2283   -6.5632 C   0  0  0  0  0  0  0  0  0  0  0  0
   -3.8323    4.2255   -6.6149 C   0  0  0  0  0  0  0  0  0  0  0  0
   -4.6527    4.6236   -8.1099 S   0  0  0  0  0  0  0  0  0  0  0  0
   -5.8622    5.6359   -7.5041 C   0  0  0  0  0  0  0  0  0  0  0  0
   -6.9729    6.2991   -8.2692 C   0  0  0  0  0  0  0  0  0  0  0  0
   -6.6705    7.7642   -8.3215 C   0  0  0  0  0  0  0  0  0  0  0  0
   -5.6106    5.6514   -6.1697 C   0  0  0  0  0  0  0  0  0  0  0  0
   -4.5648    4.9212   -5.7138 C   0  0  0  0  0  0  0  0  0  0  0  0
   -4.2077    4.8281   -3.9562 Cl  0  0  0  0  0  0  0  0  0  0  0  0
   -6.6862    6.6031   -5.0934 Cl  0  0  0  0  0  0  0  0  0  0  0  0
   -1.7038    3.3523   -5.6946 C   0  0  0  0  0  0  0  0  0  0  0  0
   -1.4918    4.2542   -4.2444 S   0  0  0  0  0  0  0  0  0  0  0  0
   -3.9340    1.6847   -8.1389 C   0  0  0  0  0  0  0  0  0  0  0  0
   -3.9029    0.4682   -8.6610 C   0  0  0  0  0  0  0  0  0  0  0  0
   -2.2461   -0.0292   -8.3703 S   0  0  0  0  0  0  0  0  0  0  0  0
   -4.9588   -0.6207   -8.7980 C   0  0  0  0  0  0  0  0  0  0  0  0
   -5.0370   -1.8383   -9.2132 C   0  0  0  0  0  0  0  0  0  0  0  0
   -5.6426   -2.8690   -8.4640 C   0  0  0  0  0  0  0  0  0  0  0  0
   -5.5422   -4.2576   -9.0582 C   0  0  0  0  0  0  0  0  0  0  0  0
   -4.2005   -4.8263   -8.6414 C   0  0  0  0  0  0  0  0  0  0  0  0
   -6.1689   -2.6344   -7.2799 C   0  0  0  0  0  0  0  0  0  0  0  0
   -5.9515   -0.8206   -7.0040 Se  0  0  0  0  0  2  0  0  0  0  0  0
   -6.2723   -3.5312   -5.9991 C   0  0  0  0  0  0  0  0  0  0  0  0
   -5.7792   -4.7244   -5.7346 C   0  0  0  0  0  0  0  0  0  0  0  0
   -5.3074   -4.9786   -4.4536 C   0  0  0  0  0  0  0  0  0  0  0  0
   -4.4095   -6.0001   -4.1248 C   0  0  0  0  0  0  0  0  0  0  0  0
   -4.2197   -7.2672   -4.8279 C   0  0  0  0  0  0  0  0  0  0  0  0
   -2.7217   -8.1221   -4.9661 S   0  0  0  0  0  0  0  0  0  0  0  0
   -3.2824   -9.5458   -5.7250 C   0  0  0  0  0  0  0  0  0  0  0  0
   -2.4729  -10.7610   -6.1167 C   0  0  0  0  0  0  0  0  0  0  0  0
   -2.6444  -11.8398   -5.0461 C   0  0  0  0  0  0  0  0  0  0  0  0
   -4.6222   -9.3190   -5.8546 C   0  0  0  0  0  0  0  0  0  0  0  0
   -5.6348  -10.5719   -6.6281 Cl  0  0  0  0  0  0  0  0  0  0  0  0
   -5.1017   -8.1310   -5.3847 C   0  0  0  0  0  0  0  0  0  0  0  0
   -6.8754   -7.7977   -5.4220 Cl  0  0  0  0  0  0  0  0  0  0  0  0
   -3.6757   -5.8791   -2.9299 C   0  0  0  0  0  0  0  0  0  0  0  0
   -3.7435   -4.8743   -2.0377 C   0  0  0  0  0  0  0  0  0  0  0  0
   -4.6979   -3.8446   -2.3589 C   0  0  0  0  0  0  0  0  0  0  0  0
   -4.9452   -2.7944   -1.3846 C   0  0  0  0  0  0  0  0  0  0  0  0
   -4.6053   -3.0195    0.3545 S   0  0  0  0  0  0  0  0  0  0  0  0
   -4.9771   -1.4555    0.8977 C   0  0  0  0  0  0  0  0  0  0  0  0
   -4.8350   -0.8988    2.2947 C   0  0  0  0  0  0  0  0  0  0  0  0
   -6.2181   -0.7001    2.8691 C   0  0  0  0  0  0  0  0  0  0  0  0
   -5.3538   -0.8134   -0.2254 C   0  0  0  0  0  0  0  0  0  0  0  0
   -5.3322   -1.5038   -1.3838 C   0  0  0  0  0  0  0  0  0  0  0  0
   -5.7692   -0.6352   -2.9161 Cl  0  0  0  0  0  0  0  0  0  0  0  0
   -5.8230    0.9286   -0.0882 Cl  0  0  0  0  0  0  0  0  0  0  0  0
   -5.4028   -3.9723   -3.5401 C   0  0  0  0  0  0  0  0  0  0  0  0
   -6.1603   -2.7187   -4.4865 S   0  0  0  0  0  0  0  0  0  0  0  0
   -2.7561   -4.8426   -1.0765 C   0  0  0  0  0  0  0  0  0  0  0  0
   -1.8204   -5.7611   -1.0740 C   0  0  0  0  0  0  0  0  0  0  0  0
   -2.2934   -6.7733   -2.4521 S   0  0  0  0  0  0  0  0  0  0  0  0
   -0.4138   -5.8740   -0.5490 C   0  0  0  0  0  0  0  0  0  0  0  0
    0.2165   -7.0095   -0.1855 C   0  0  0  0  0  0  0  0  0  0  0  0
    1.5351   -6.9036    0.1150 C   0  0  0  0  0  0  0  0  0  0  0  0
    2.3868   -7.9779    0.4715 C   0  0  0  0  0  0  0  0  0  0  0  0
    1.8690   -9.3576    0.5022 C   0  0  0  0  0  0  0  0  0  0  0  0
    0.5103   -9.9019   -0.4508 S   0  0  0  0  0  0  0  0  0  0  0  0
    0.3713  -11.4867    0.1200 C   0  0  0  0  0  0  0  0  0  0  0  0
   -0.6371  -12.5323   -0.2896 C   0  0  0  0  0  0  0  0  0  0  0  0
   -0.0154  -13.5249   -1.1900 C   0  0  0  0  0  0  0  0  0  0  0  0
    1.3690  -11.5642    1.0386 C   0  0  0  0  0  0  0  0  0  0  0  0
    1.5975  -13.0982    1.9404 Cl  0  0  0  0  0  0  0  0  0  0  0  0
    2.1443  -10.4664    1.2367 C   0  0  0  0  0  0  0  0  0  0  0  0
    3.4623  -10.4843    2.4760 Cl  0  0  0  0  0  0  0  0  0  0  0  0
    3.7025   -7.7012    0.7010 C   0  0  0  0  0  0  0  0  0  0  0  0
    4.3079   -6.4786    0.6257 C   0  0  0  0  0  0  0  0  0  0  0  0
    3.4555   -5.4016    0.2726 C   0  0  0  0  0  0  0  0  0  0  0  0
    3.9556   -4.0417    0.1801 C   0  0  0  0  0  0  0  0  0  0  0  0
    3.5704   -2.9983   -1.1491 S   0  0  0  0  0  0  0  0  0  0  0  0
    4.4222   -1.5963   -0.6635 C   0  0  0  0  0  0  0  0  0  0  0  0
    4.5888   -0.2813   -1.3826 C   0  0  0  0  0  0  0  0  0  0  0  0
    3.8186    0.8378   -0.7993 C   0  0  0  0  0  0  0  0  0  0  0  0
    4.9777   -1.9805    0.5310 C   0  0  0  0  0  0  0  0  0  0  0  0
    4.7286   -3.2362    0.9540 C   0  0  0  0  0  0  0  0  0  0  0  0
    5.3164   -3.8191    2.5610 Cl  0  0  0  0  0  0  0  0  0  0  0  0
    5.9981   -0.7965    1.4150 Cl  0  0  0  0  0  0  0  0  0  0  0  0
    2.1091   -5.6745    0.0375 C   0  0  0  0  0  0  0  0  0  0  0  0
    0.8004   -4.6855   -0.4473 S   0  0  0  0  0  0  0  0  0  0  0  0
    5.6425   -6.4259    0.8238 C   0  0  0  0  0  0  0  0  0  0  0  0
    6.2931   -7.6036    1.0945 C   0  0  0  0  0  0  0  0  0  0  0  0
    5.0446   -8.7325    1.0572 S   0  0  0  0  0  0  0  0  0  0  0  0
    3.7018    5.1165   14.1360 H   0  0  0  0  0  0  0  0  0  0  0  0
    4.0943    6.8202   12.3156 H   0  0  0  0  0  0  0  0  0  0  0  0
    6.0270   11.6569    8.9992 H   0  0  0  0  0  0  0  0  0  0  0  0
    4.5857   11.5567    7.8406 H   0  0  0  0  0  0  0  0  0  0  0  0
    5.9603   10.4563    6.1821 H   0  0  0  0  0  0  0  0  0  0  0  0
    6.7820   11.9257    6.7475 H   0  0  0  0  0  0  0  0  0  0  0  0
    7.3381   10.3515    7.4236 H   0  0  0  0  0  0  0  0  0  0  0  0
    0.5522   -1.4323    7.1250 H   0  0  0  0  0  0  0  0  0  0  0  0
   -0.6430   -1.5919    8.5362 H   0  0  0  0  0  0  0  0  0  0  0  0
    2.3298   -2.2504    9.0246 H   0  0  0  0  0  0  0  0  0  0  0  0
    1.2322   -3.4130    8.2416 H   0  0  0  0  0  0  0  0  0  0  0  0
    0.8667   -2.7195    9.9018 H   0  0  0  0  0  0  0  0  0  0  0  0
    1.5391    3.0553    6.7755 H   0  0  0  0  0  0  0  0  0  0  0  0
    1.5814    2.7177    4.3340 H   0  0  0  0  0  0  0  0  0  0  0  0
    0.7813   -3.0697    2.0528 H   0  0  0  0  0  0  0  0  0  0  0  0
   -0.8062   -2.5709    1.4090 H   0  0  0  0  0  0  0  0  0  0  0  0
   -1.8133   -2.5919    3.4256 H   0  0  0  0  0  0  0  0  0  0  0  0
   -0.3281   -1.9690    4.3126 H   0  0  0  0  0  0  0  0  0  0  0  0
   -0.4648   -3.7055    3.8030 H   0  0  0  0  0  0  0  0  0  0  0  0
    2.5577   11.4870    0.1135 H   0  0  0  0  0  0  0  0  0  0  0  0
    3.8125   10.8199    1.3084 H   0  0  0  0  0  0  0  0  0  0  0  0
    0.9092   10.9251    2.1853 H   0  0  0  0  0  0  0  0  0  0  0  0
    2.3610   11.3834    3.1299 H   0  0  0  0  0  0  0  0  0  0  0  0
    1.7245   12.5209    1.9335 H   0  0  0  0  0  0  0  0  0  0  0  0
    1.0617    5.7864   -2.0783 H   0  0  0  0  0  0  0  0  0  0  0  0
    1.1641    2.0156   -4.5051 H   0  0  0  0  0  0  0  0  0  0  0  0
    3.3299   -2.1844   -4.6232 H   0  0  0  0  0  0  0  0  0  0  0  0
    4.0201   -2.5073   -6.2636 H   0  0  0  0  0  0  0  0  0  0  0  0
    1.6041   -3.7358   -4.7931 H   0  0  0  0  0  0  0  0  0  0  0  0
    1.7612   -3.9382   -6.6078 H   0  0  0  0  0  0  0  0  0  0  0  0
    2.9317   -4.6613   -5.4943 H   0  0  0  0  0  0  0  0  0  0  0  0
   -7.9115    6.0263   -7.7849 H   0  0  0  0  0  0  0  0  0  0  0  0
   -6.9464    5.8808   -9.3042 H   0  0  0  0  0  0  0  0  0  0  0  0
   -6.6967    8.1638   -9.3750 H   0  0  0  0  0  0  0  0  0  0  0  0
   -7.3854    8.3828   -7.7202 H   0  0  0  0  0  0  0  0  0  0  0  0
   -5.6630    8.0296   -7.9356 H   0  0  0  0  0  0  0  0  0  0  0  0
   -4.8708    2.2647   -8.1894 H   0  0  0  0  0  0  0  0  0  0  0  0
   -4.5777   -2.0436  -10.2245 H   0  0  0  0  0  0  0  0  0  0  0  0
   -6.3836   -4.8786   -8.7490 H   0  0  0  0  0  0  0  0  0  0  0  0
   -5.5697   -4.2609  -10.1618 H   0  0  0  0  0  0  0  0  0  0  0  0
   -3.4052   -4.6862   -9.4258 H   0  0  0  0  0  0  0  0  0  0  0  0
   -4.2439   -5.8697   -8.3176 H   0  0  0  0  0  0  0  0  0  0  0  0
   -3.7825   -4.2484   -7.7622 H   0  0  0  0  0  0  0  0  0  0  0  0
   -5.7696   -5.5022   -6.5077 H   0  0  0  0  0  0  0  0  0  0  0  0
   -1.4094  -10.4849   -6.0803 H   0  0  0  0  0  0  0  0  0  0  0  0
   -2.8110  -11.1532   -7.0757 H   0  0  0  0  0  0  0  0  0  0  0  0
   -1.6618  -12.0707   -4.5371 H   0  0  0  0  0  0  0  0  0  0  0  0
   -2.9949  -12.8053   -5.4852 H   0  0  0  0  0  0  0  0  0  0  0  0
   -3.3056  -11.5130   -4.2319 H   0  0  0  0  0  0  0  0  0  0  0  0
   -4.2635   -1.6294    2.9208 H   0  0  0  0  0  0  0  0  0  0  0  0
   -4.2754    0.0554    2.1904 H   0  0  0  0  0  0  0  0  0  0  0  0
   -6.3945   -1.4860    3.6593 H   0  0  0  0  0  0  0  0  0  0  0  0
   -6.2957    0.2782    3.4014 H   0  0  0  0  0  0  0  0  0  0  0  0
   -7.0310   -0.8376    2.1409 H   0  0  0  0  0  0  0  0  0  0  0  0
   -2.7181   -4.0200   -0.3117 H   0  0  0  0  0  0  0  0  0  0  0  0
   -0.4082   -7.9205   -0.1263 H   0  0  0  0  0  0  0  0  0  0  0  0
   -1.0931  -12.9264    0.6273 H   0  0  0  0  0  0  0  0  0  0  0  0
   -1.4618  -11.9772   -0.8396 H   0  0  0  0  0  0  0  0  0  0  0  0
   -0.5343  -13.6420   -2.1802 H   0  0  0  0  0  0  0  0  0  0  0  0
    1.0408  -13.3542   -1.4507 H   0  0  0  0  0  0  0  0  0  0  0  0
   -0.1301  -14.5456   -0.6901 H   0  0  0  0  0  0  0  0  0  0  0  0
    5.6723   -0.0065   -1.2825 H   0  0  0  0  0  0  0  0  0  0  0  0
    4.3830   -0.5158   -2.4426 H   0  0  0  0  0  0  0  0  0  0  0  0
    4.4775    1.5772   -0.2559 H   0  0  0  0  0  0  0  0  0  0  0  0
    3.4184    1.4450   -1.6615 H   0  0  0  0  0  0  0  0  0  0  0  0
    3.0126    0.5781   -0.1079 H   0  0  0  0  0  0  0  0  0  0  0  0
    6.3017   -5.5225    0.7464 H   0  0  0  0  0  0  0  0  0  0  0  0
    7.3676   -7.7244    1.3083 H   0  0  0  0  0  0  0  0  0  0  0  0
  1  2  2  0
  2  3  1  0
  3  4  2  0
  4  5  1  0
  5  6  1  0
  6  7  1  0
  7  8  1  0
  8  9  1  0
  7 10  2  0
 10 11  1  0
 10 12  1  0
 12 13  1  0
  4 14  1  0
 14 15  2  0
 15 16  1  0
 16 17  1  0
 17 18  1  0
 18 19  1  0
 19 20  1  0
 20 21  1  0
 19 22  2  0
 22 23  1  0
 23 24  1  0
 22 25  1  0
 16 26  2  0
 26 27  1  0
 15 28  1  0
 28 29  2  0
 29 30  1  0
 29 31  1  0
 31 32  2  0
 32 33  1  0
 33 34  2  0
 34 35  1  0
 35 36  1  0
 36 37  1  0
 37 38  1  0
 38 39  1  0
 37 40  2  0
 40 41  1  0
 40 42  1  0
 42 43  1  0
 34 44  1  0
 44 45  2  0
 45 46  1  0
 46 47  1  0
 47 48  1  0
 48 49  1  0
 49 50  1  0
 50 51  1  0
 49 52  2  0
 52 53  1  0
 53 54  1  0
 52 55  1  0
 46 56  2  0
 56 57  1  0
 45 58  1  0
 58 59  2  0
 59 60  1  0
 59 61  1  0
 61 62  2  0
 62 63  1  0
 63 64  2  0
 64 65  1  0
 65 66  1  0
 66 67  1  0
 67 68  1  0
 68 69  1  0
 67 70  2  0
 70 71  1  0
 70 72  1  0
 72 73  1  0
 64 74  1  0
 74 75  2  0
 75 76  1  0
 76 77  1  0
 77 78  1  0
 78 79  1  0
 79 80  1  0
 80 81  1  0
 79 82  2  0
 82 83  1  0
 83 84  1  0
 82 85  1  0
 76 86  2  0
 86 87  1  0
 75 88  1  0
 88 89  2  0
 89 90  1  0
 89 91  1  0
 91 92  2  0
 92 93  1  0
 93 94  1  0
 94 95  1  0
 93 96  2  0
 96 97  1  0
 96 98  1  0
 98 99  2  0
 99100  1  0
100101  2  0
101102  1  0
102103  1  0
103104  1  0
104105  1  0
105106  1  0
104107  2  0
107108  1  0
107109  1  0
109110  1  0
101111  1  0
111112  2  0
112113  1  0
113114  1  0
114115  1  0
115116  1  0
116117  1  0
117118  1  0
116119  2  0
119120  1  0
120121  1  0
119122  1  0
113123  2  0
123124  1  0
112125  1  0
125126  2  0
126127  1  0
126128  1  0
128129  2  0
129130  1  0
130131  2  0
131132  1  0
132133  1  0
133134  1  0
134135  1  0
135136  1  0
134137  2  0
137138  1  0
137139  1  0
139140  1  0
131141  1  0
141142  2  0
142143  1  0
143144  1  0
144145  1  0
145146  1  0
146147  1  0
147148  1  0
146149  2  0
149150  1  0
150151  1  0
149152  1  0
143153  2  0
153154  1  0
142155  1  0
155156  2  0
156157  1  0
 27  1  1  0
 57 31  1  0
 87 61  1  0
 97 91  1  0
124 98  1  0
154128  1  0
 26  3  1  0
 56 33  1  0
 86 63  1  0
123100  1  0
153130  1  0
 12  5  2  0
 30 14  1  0
 42 35  2  0
 60 44  1  0
 72 65  2  0
 90 74  1  0
109102  2  0
127111  1  0
139132  2  0
157141  1  0
 23 17  2  0
 53 47  2  0
 83 77  2  0
120114  2  0
150144  2  0
  1158  1  0
  2159  1  0
  8160  1  0
  8161  1  0
  9162  1  0
  9163  1  0
  9164  1  0
 20165  1  0
 20166  1  0
 21167  1  0
 21168  1  0
 21169  1  0
 28170  1  0
 32171  1  0
 38172  1  0
 38173  1  0
 39174  1  0
 39175  1  0
 39176  1  0
 50177  1  0
 50178  1  0
 51179  1  0
 51180  1  0
 51181  1  0
 58182  1  0
 62183  1  0
 68184  1  0
 68185  1  0
 69186  1  0
 69187  1  0
 69188  1  0
 80189  1  0
 80190  1  0
 81191  1  0
 81192  1  0
 81193  1  0
 88194  1  0
 92195  1  0
 94196  1  0
 94197  1  0
 95198  1  0
 95199  1  0
 95200  1  0
 99201  1  0
105202  1  0
105203  1  0
106204  1  0
106205  1  0
106206  1  0
117207  1  0
117208  1  0
118209  1  0
118210  1  0
118211  1  0
125212  1  0
129213  1  0
135214  1  0
135215  1  0
136216  1  0
136217  1  0
136218  1  0
147219  1  0
147220  1  0
148221  1  0
148222  1  0
148223  1  0
155224  1  0
156225  1  0
M  END

