
     RDKit          3D

101112  0  0  0  0  0  0  0  0999 V2000
   13.5174   10.4663    2.0909 C   0  0  0  0  0  0  0  0  0  0  0  0
   11.9336   11.0489    1.8434 S   0  0  0  0  0  0  0  0  0  0  0  0
   11.0614    9.6256    2.1486 C   0  0  0  0  0  0  0  0  0  0  0  0
    9.8133    9.0283    2.2146 C   0  0  0  0  0  0  0  0  0  0  0  0
    9.9940    7.7333    2.5489 C   0  0  0  0  0  0  0  0  0  0  0  0
   11.3495    7.5427    2.6889 N   0  0  0  0  0  0  0  0  0  0  0  0
   12.0032    6.2785    3.0731 C   0  0  0  0  0  0  0  0  0  0  0  0
   12.1217    6.3178    4.5965 C   0  0  0  0  0  0  0  0  0  0  0  0
   12.0322    8.7004    2.4450 C   0  0  0  0  0  0  0  0  0  0  0  0
   13.3066    9.1451    2.4127 C   0  0  0  0  0  0  0  0  0  0  0  0
    8.8757    6.9569    2.6565 C   0  0  0  0  0  0  0  0  0  0  0  0
    7.6760    7.5776    2.4121 C   0  0  0  0  0  0  0  0  0  0  0  0
    8.1499    9.1936    2.0524 S   0  0  0  0  0  0  0  0  0  0  0  0
    6.3443    7.0239    2.4483 C   0  0  0  0  0  0  0  0  0  0  0  0
    5.1076    7.4634    2.4618 C   0  0  0  0  0  0  0  0  0  0  0  0
    4.0337    6.6727    2.3609 C   0  0  0  0  0  0  0  0  0  0  0  0
    2.6176    7.2772    2.3770 C   0  0  0  0  0  0  0  0  0  0  0  0
    2.0784    7.3615    0.9681 C   0  0  0  0  0  0  0  0  0  0  0  0
    4.1630    5.3459    2.2349 C   0  0  0  0  0  0  0  0  0  0  0  0
    6.0025    5.0761    2.2560 Se  0  0  0  0  0  2  0  0  0  0  0  0
    3.1408    4.2836    2.0702 C   0  0  0  0  0  0  0  0  0  0  0  0
    1.4476    4.3808    2.0679 S   0  0  0  0  0  0  0  0  0  0  0  0
    1.0846    2.7337    1.7015 C   0  0  0  0  0  0  0  0  0  0  0  0
    0.0776    1.8268    1.4618 C   0  0  0  0  0  0  0  0  0  0  0  0
    0.6917    0.6419    1.1966 C   0  0  0  0  0  0  0  0  0  0  0  0
    2.0478    0.8675    1.2868 N   0  0  0  0  0  0  0  0  0  0  0  0
    3.0873   -0.1507    1.0906 C   0  0  0  0  0  0  0  0  0  0  0  0
    3.3776   -0.7751    2.4472 C   0  0  0  0  0  0  0  0  0  0  0  0
    2.3023    2.1766    1.6012 C   0  0  0  0  0  0  0  0  0  0  0  0
    3.3826    2.9644    1.7901 C   0  0  0  0  0  0  0  0  0  0  0  0
   -0.1136   -0.4084    0.8971 C   0  0  0  0  0  0  0  0  0  0  0  0
   -1.4670   -0.1794    0.8871 C   0  0  0  0  0  0  0  0  0  0  0  0
   -1.5645    1.4732    1.2977 S   0  0  0  0  0  0  0  0  0  0  0  0
   -2.5072   -1.1570    0.5217 C   0  0  0  0  0  0  0  0  0  0  0  0
   -2.2590   -2.7891    0.0525 S   0  0  0  0  0  0  0  0  0  0  0  0
   -3.8585   -3.2265   -0.3083 C   0  0  0  0  0  0  0  0  0  0  0  0
   -4.7314   -4.1920   -0.7608 C   0  0  0  0  0  0  0  0  0  0  0  0
   -5.9903   -3.6714   -0.7922 C   0  0  0  0  0  0  0  0  0  0  0  0
   -5.8634   -2.3822   -0.3514 N   0  0  0  0  0  0  0  0  0  0  0  0
   -6.9994   -1.4350   -0.2199 C   0  0  0  0  0  0  0  0  0  0  0  0
   -7.2346   -0.6435   -1.4574 C   0  0  0  0  0  0  0  0  0  0  0  0
   -4.5626   -2.0824   -0.0495 C   0  0  0  0  0  0  0  0  0  0  0  0
   -3.8424   -1.0138    0.3827 C   0  0  0  0  0  0  0  0  0  0  0  0
   -6.9787   -4.5142   -1.2463 C   0  0  0  0  0  0  0  0  0  0  0  0
   -6.6267   -5.7600   -1.6180 C   0  0  0  0  0  0  0  0  0  0  0  0
   -4.9364   -5.7780   -1.3374 S   0  0  0  0  0  0  0  0  0  0  0  0
   -7.4273   -6.8571   -2.2075 C   0  0  0  0  0  0  0  0  0  0  0  0
   -8.7228   -7.0471   -2.4759 C   0  0  0  0  0  0  0  0  0  0  0  0
   -9.1844   -8.1265   -3.0832 C   0  0  0  0  0  0  0  0  0  0  0  0
  -10.6858   -8.3318   -3.3923 C   0  0  0  0  0  0  0  0  0  0  0  0
  -10.9488   -8.0497   -4.8419 C   0  0  0  0  0  0  0  0  0  0  0  0
   -8.3888   -9.1213   -3.4804 C   0  0  0  0  0  0  0  0  0  0  0  0
   -6.6634   -8.3793   -2.8730 Se  0  0  0  0  0  2  0  0  0  0  0  0
   -8.4696  -10.3845   -4.1519 C   0  0  0  0  0  0  0  0  0  0  0  0
   -7.5286  -11.2949   -4.4870 C   0  0  0  0  0  0  0  0  0  0  0  0
   -7.8112  -12.4086   -5.1291 C   0  0  0  0  0  0  0  0  0  0  0  0
   -6.7035  -13.4288   -5.5082 C   0  0  0  0  0  0  0  0  0  0  0  0
   -6.1676  -13.1427   -6.8696 C   0  0  0  0  0  0  0  0  0  0  0  0
   -9.0658  -12.7435   -5.5104 C   0  0  0  0  0  0  0  0  0  0  0  0
  -10.0352  -11.2032   -4.8416 Se  0  0  0  0  0  2  0  0  0  0  0  0
   14.4896   10.9895    2.0158 H   0  0  0  0  0  0  0  0  0  0  0  0
   11.4634    5.3963    2.7320 H   0  0  0  0  0  0  0  0  0  0  0  0
   13.0449    6.2739    2.6747 H   0  0  0  0  0  0  0  0  0  0  0  0
   12.7034    5.4581    4.9742 H   0  0  0  0  0  0  0  0  0  0  0  0
   11.1172    6.3024    5.0243 H   0  0  0  0  0  0  0  0  0  0  0  0
   12.6325    7.2185    4.9612 H   0  0  0  0  0  0  0  0  0  0  0  0
   14.2143    8.5267    2.6172 H   0  0  0  0  0  0  0  0  0  0  0  0
    8.8385    5.8739    2.9253 H   0  0  0  0  0  0  0  0  0  0  0  0
    4.9948    8.6093    2.5685 H   0  0  0  0  0  0  0  0  0  0  0  0
    2.6040    8.2659    2.8246 H   0  0  0  0  0  0  0  0  0  0  0  0
    1.9563    6.6378    2.9510 H   0  0  0  0  0  0  0  0  0  0  0  0
    2.2312    8.3782    0.5224 H   0  0  0  0  0  0  0  0  0  0  0  0
    0.9956    7.1281    0.9777 H   0  0  0  0  0  0  0  0  0  0  0  0
    2.5875    6.6668    0.2693 H   0  0  0  0  0  0  0  0  0  0  0  0
    4.0025    0.3324    0.6981 H   0  0  0  0  0  0  0  0  0  0  0  0
    2.6884   -0.9233    0.3953 H   0  0  0  0  0  0  0  0  0  0  0  0
    2.4720   -0.6532    3.1069 H   0  0  0  0  0  0  0  0  0  0  0  0
    4.2125   -0.2615    2.9802 H   0  0  0  0  0  0  0  0  0  0  0  0
    3.5145   -1.8677    2.3595 H   0  0  0  0  0  0  0  0  0  0  0  0
    4.4446    2.6390    1.7339 H   0  0  0  0  0  0  0  0  0  0  0  0
    0.2342   -1.4466    0.6593 H   0  0  0  0  0  0  0  0  0  0  0  0
   -7.8867   -2.0674   -0.0123 H   0  0  0  0  0  0  0  0  0  0  0  0
   -6.8638   -0.7845    0.6767 H   0  0  0  0  0  0  0  0  0  0  0  0
   -6.4555   -0.7963   -2.2213 H   0  0  0  0  0  0  0  0  0  0  0  0
   -7.4010    0.4181   -1.1915 H   0  0  0  0  0  0  0  0  0  0  0  0
   -8.2015   -0.9700   -1.9405 H   0  0  0  0  0  0  0  0  0  0  0  0
   -4.2726   -0.0096    0.6387 H   0  0  0  0  0  0  0  0  0  0  0  0
   -8.0569   -4.2405   -1.3300 H   0  0  0  0  0  0  0  0  0  0  0  0
   -9.4184   -6.2151   -2.1529 H   0  0  0  0  0  0  0  0  0  0  0  0
  -11.2975   -7.6728   -2.7755 H   0  0  0  0  0  0  0  0  0  0  0  0
  -10.9853   -9.3593   -3.1691 H   0  0  0  0  0  0  0  0  0  0  0  0
  -10.0338   -8.1822   -5.4810 H   0  0  0  0  0  0  0  0  0  0  0  0
  -11.2696   -6.9942   -4.9920 H   0  0  0  0  0  0  0  0  0  0  0  0
  -11.7607   -8.6800   -5.1891 H   0  0  0  0  0  0  0  0  0  0  0  0
   -6.4558  -11.0362   -4.1820 H   0  0  0  0  0  0  0  0  0  0  0  0
   -7.1154  -14.4459   -5.4719 H   0  0  0  0  0  0  0  0  0  0  0  0
   -5.8823  -13.3786   -4.7853 H   0  0  0  0  0  0  0  0  0  0  0  0
   -5.8665  -14.0940   -7.3567 H   0  0  0  0  0  0  0  0  0  0  0  0
   -5.2349  -12.5516   -6.7692 H   0  0  0  0  0  0  0  0  0  0  0  0
   -6.8497  -12.5496   -7.5190 H   0  0  0  0  0  0  0  0  0  0  0  0
   -9.5230  -13.5634   -6.0216 H   0  0  0  0  0  0  0  0  0  0  0  0
  1  2  1  0
  2  3  1  0
  3  4  1  0
  4  5  2  0
  5  6  1  0
  6  7  1  0
  7  8  1  0
  6  9  1  0
  9 10  1  0
  5 11  1  0
 11 12  2  0
 12 13  1  0
 12 14  1  0
 14 15  2  0
 15 16  1  0
 16 17  1  0
 17 18  1  0
 16 19  2  0
 19 20  1  0
 19 21  1  0
 21 22  1  0
 22 23  1  0
 23 24  1  0
 24 25  2  0
 25 26  1  0
 26 27  1  0
 27 28  1  0
 26 29  1  0
 29 30  1  0
 25 31  1  0
 31 32  2  0
 32 33  1  0
 32 34  1  0
 34 35  1  0
 35 36  1  0
 36 37  1  0
 37 38  2  0
 38 39  1  0
 39 40  1  0
 40 41  1  0
 39 42  1  0
 42 43  1  0
 38 44  1  0
 44 45  2  0
 45 46  1  0
 45 47  1  0
 47 48  2  0
 48 49  1  0
 49 50  1  0
 50 51  1  0
 49 52  2  0
 52 53  1  0
 52 54  1  0
 54 55  2  0
 55 56  1  0
 56 57  1  0
 57 58  1  0
 56 59  2  0
 59 60  1  0
 10  1  2  0
 20 14  1  0
 30 21  2  0
 43 34  2  0
 53 47  1  0
 60 54  1  0
  9  3  2  0
 29 23  2  0
 42 36  2  0
 13  4  1  0
 33 24  1  0
 46 37  1  0
  1 61  1  0
  7 62  1  0
  7 63  1  0
  8 64  1  0
  8 65  1  0
  8 66  1  0
 10 67  1  0
 11 68  1  0
 15 69  1  0
 17 70  1  0
 17 71  1  0
 18 72  1  0
 18 73  1  0
 18 74  1  0
 27 75  1  0
 27 76  1  0
 28 77  1  0
 28 78  1  0
 28 79  1  0
 30 80  1  0
 31 81  1  0
 40 82  1  0
 40 83  1  0
 41 84  1  0
 41 85  1  0
 41 86  1  0
 43 87  1  0
 44 88  1  0
 48 89  1  0
 50 90  1  0
 50 91  1  0
 51 92  1  0
 51 93  1  0
 51 94  1  0
 55 95  1  0
 57 96  1  0
 57 97  1  0
 58 98  1  0
 58 99  1  0
 58100  1  0
 59101  1  0
M  END

