
     RDKit          3D

 94103  0  0  0  0  0  0  0  0999 V2000
   11.2552    4.2654    5.2943 C   0  0  0  0  0  0  0  0  0  0  0  0
    9.9206    4.1758    5.3602 C   0  0  0  0  0  0  0  0  0  0  0  0
    9.1629    3.5557    4.4512 C   0  0  0  0  0  0  0  0  0  0  0  0
    7.6410    3.5046    4.6035 C   0  0  0  0  0  0  0  0  0  0  0  0
    7.0460    4.5245    3.6631 C   0  0  0  0  0  0  0  0  0  0  0  0
    9.7126    2.9648    3.3809 C   0  0  0  0  0  0  0  0  0  0  0  0
   11.5852    3.2846    3.6100 Se  0  0  0  0  0  2  0  0  0  0  0  0
    9.1824    2.2289    2.2398 C   0  0  0  0  0  0  0  0  0  0  0  0
    9.8070    1.6573    1.1968 C   0  0  0  0  0  0  0  0  0  0  0  0
    9.1349    1.0191    0.2316 C   0  0  0  0  0  0  0  0  0  0  0  0
    9.9087    0.3636   -0.9342 C   0  0  0  0  0  0  0  0  0  0  0  0
    9.9186   -1.1200   -0.6560 C   0  0  0  0  0  0  0  0  0  0  0  0
    7.8060    0.9070    0.2378 C   0  0  0  0  0  0  0  0  0  0  0  0
    7.3924    1.8525    1.8742 Se  0  0  0  0  0  2  0  0  0  0  0  0
    6.7580    0.3366   -0.5865 C   0  0  0  0  0  0  0  0  0  0  0  0
    6.6945   -0.3224   -1.7348 C   0  0  0  0  0  0  0  0  0  0  0  0
    5.5503   -0.7680   -2.2801 C   0  0  0  0  0  0  0  0  0  0  0  0
    5.5791   -1.5216   -3.6284 C   0  0  0  0  0  0  0  0  0  0  0  0
    5.3842   -2.9852   -3.3652 C   0  0  0  0  0  0  0  0  0  0  0  0
    4.3645   -0.5800   -1.6977 C   0  0  0  0  0  0  0  0  0  0  0  0
    4.9158    0.3835   -0.1161 Se  0  0  0  0  0  2  0  0  0  0  0  0
    2.9762   -0.8858   -1.9587 C   0  0  0  0  0  0  0  0  0  0  0  0
    2.2449   -1.4820   -2.8996 C   0  0  0  0  0  0  0  0  0  0  0  0
    0.9134   -1.6235   -2.8251 C   0  0  0  0  0  0  0  0  0  0  0  0
    0.1181   -2.3224   -3.9205 C   0  0  0  0  0  0  0  0  0  0  0  0
   -0.2836   -3.7004   -3.5301 C   0  0  0  0  0  0  0  0  0  0  0  0
    0.2393   -1.1603   -1.7723 C   0  0  0  0  0  0  0  0  0  0  0  0
    1.5741   -0.4171   -0.7072 Se  0  0  0  0  0  2  0  0  0  0  0  0
   -1.2006   -1.1634   -1.4530 C   0  0  0  0  0  0  0  0  0  0  0  0
   -2.5084   -1.6583   -2.4135 S   0  0  0  0  0  0  0  0  0  0  0  0
   -3.7828   -1.3884   -1.3260 C   0  0  0  0  0  0  0  0  0  0  0  0
   -5.1359   -1.4245   -1.0316 C   0  0  0  0  0  0  0  0  0  0  0  0
   -5.3577   -0.9820    0.2360 C   0  0  0  0  0  0  0  0  0  0  0  0
   -4.1243   -0.6658    0.7339 N   0  0  0  0  0  0  0  0  0  0  0  0
   -3.8727   -0.1459    2.0850 C   0  0  0  0  0  0  0  0  0  0  0  0
   -3.6286   -1.2815    3.0539 C   0  0  0  0  0  0  0  0  0  0  0  0
   -3.1534   -0.9098   -0.2141 C   0  0  0  0  0  0  0  0  0  0  0  0
   -1.7987   -0.7909   -0.2799 C   0  0  0  0  0  0  0  0  0  0  0  0
   -6.6510   -0.9585    0.6606 C   0  0  0  0  0  0  0  0  0  0  0  0
   -7.5997   -1.3790   -0.2246 C   0  0  0  0  0  0  0  0  0  0  0  0
   -6.6877   -1.7915   -1.6038 S   0  0  0  0  0  0  0  0  0  0  0  0
   -9.0670   -1.4502   -0.0160 C   0  0  0  0  0  0  0  0  0  0  0  0
  -10.0124   -1.1155    1.3562 S   0  0  0  0  0  0  0  0  0  0  0  0
  -11.5499   -1.4120    0.7084 C   0  0  0  0  0  0  0  0  0  0  0  0
  -12.9107   -1.4412    0.9066 C   0  0  0  0  0  0  0  0  0  0  0  0
  -13.5184   -1.8129   -0.2426 C   0  0  0  0  0  0  0  0  0  0  0  0
  -12.5192   -2.0167   -1.1617 N   0  0  0  0  0  0  0  0  0  0  0  0
  -12.7161   -2.4280   -2.5582 C   0  0  0  0  0  0  0  0  0  0  0  0
  -12.8670   -1.2126   -3.4503 C   0  0  0  0  0  0  0  0  0  0  0  0
  -11.2953   -1.7727   -0.5868 C   0  0  0  0  0  0  0  0  0  0  0  0
   -9.9920   -1.7930   -0.9659 C   0  0  0  0  0  0  0  0  0  0  0  0
  -14.8833   -1.8915   -0.2160 C   0  0  0  0  0  0  0  0  0  0  0  0
  -15.4938   -1.5841    0.9776 C   0  0  0  0  0  0  0  0  0  0  0  0
  -14.1688   -1.2062    1.9926 S   0  0  0  0  0  0  0  0  0  0  0  0
   12.0604    4.6831    5.8601 H   0  0  0  0  0  0  0  0  0  0  0  0
    9.4575    4.6880    6.2844 H   0  0  0  0  0  0  0  0  0  0  0  0
    7.2671    2.5152    4.3593 H   0  0  0  0  0  0  0  0  0  0  0  0
    7.3205    3.7286    5.6255 H   0  0  0  0  0  0  0  0  0  0  0  0
    6.8450    5.4961    4.2148 H   0  0  0  0  0  0  0  0  0  0  0  0
    6.0327    4.2273    3.2763 H   0  0  0  0  0  0  0  0  0  0  0  0
    7.6702    4.7775    2.8048 H   0  0  0  0  0  0  0  0  0  0  0  0
   10.9432    1.7490    1.1928 H   0  0  0  0  0  0  0  0  0  0  0  0
   10.9853    0.6700   -0.9043 H   0  0  0  0  0  0  0  0  0  0  0  0
    9.5436    0.6824   -1.8919 H   0  0  0  0  0  0  0  0  0  0  0  0
   10.6233   -1.2885    0.1991 H   0  0  0  0  0  0  0  0  0  0  0  0
    8.9168   -1.5024   -0.3360 H   0  0  0  0  0  0  0  0  0  0  0  0
   10.3235   -1.6738   -1.5147 H   0  0  0  0  0  0  0  0  0  0  0  0
    7.6900   -0.5105   -2.2642 H   0  0  0  0  0  0  0  0  0  0  0  0
    4.8444   -1.1442   -4.3165 H   0  0  0  0  0  0  0  0  0  0  0  0
    6.5605   -1.3874   -4.1331 H   0  0  0  0  0  0  0  0  0  0  0  0
    6.3421   -3.4582   -3.0385 H   0  0  0  0  0  0  0  0  0  0  0  0
    5.0440   -3.5453   -4.2517 H   0  0  0  0  0  0  0  0  0  0  0  0
    4.5945   -3.1426   -2.5819 H   0  0  0  0  0  0  0  0  0  0  0  0
    2.8251   -1.8828   -3.7948 H   0  0  0  0  0  0  0  0  0  0  0  0
    0.7126   -2.4123   -4.8564 H   0  0  0  0  0  0  0  0  0  0  0  0
   -0.7276   -1.6854   -4.1555 H   0  0  0  0  0  0  0  0  0  0  0  0
   -1.2305   -3.9303   -4.0310 H   0  0  0  0  0  0  0  0  0  0  0  0
   -0.3847   -3.7485   -2.4148 H   0  0  0  0  0  0  0  0  0  0  0  0
    0.5152   -4.4207   -3.8123 H   0  0  0  0  0  0  0  0  0  0  0  0
   -2.9763    0.4856    2.0683 H   0  0  0  0  0  0  0  0  0  0  0  0
   -4.7378    0.4707    2.3649 H   0  0  0  0  0  0  0  0  0  0  0  0
   -2.5359   -1.3798    3.2556 H   0  0  0  0  0  0  0  0  0  0  0  0
   -3.9561   -2.2472    2.6319 H   0  0  0  0  0  0  0  0  0  0  0  0
   -4.1211   -1.0287    4.0009 H   0  0  0  0  0  0  0  0  0  0  0  0
   -1.1282   -0.4166    0.5376 H   0  0  0  0  0  0  0  0  0  0  0  0
   -7.0046   -0.6269    1.6718 H   0  0  0  0  0  0  0  0  0  0  0  0
  -11.8278   -3.0316   -2.8543 H   0  0  0  0  0  0  0  0  0  0  0  0
  -13.5823   -3.0890   -2.5911 H   0  0  0  0  0  0  0  0  0  0  0  0
  -11.9070   -0.9885   -3.9544 H   0  0  0  0  0  0  0  0  0  0  0  0
  -13.1468   -0.3091   -2.8706 H   0  0  0  0  0  0  0  0  0  0  0  0
  -13.6060   -1.4596   -4.2523 H   0  0  0  0  0  0  0  0  0  0  0  0
   -9.6110   -2.0648   -1.9816 H   0  0  0  0  0  0  0  0  0  0  0  0
  -15.5445   -2.1766   -1.0734 H   0  0  0  0  0  0  0  0  0  0  0  0
  -16.5779   -1.5906    1.1907 H   0  0  0  0  0  0  0  0  0  0  0  0
  1  2  2  0
  2  3  1  0
  3  4  1  0
  4  5  1  0
  3  6  2  0
  6  7  1  0
  6  8  1  0
  8  9  2  0
  9 10  1  0
 10 11  1  0
 11 12  1  0
 10 13  2  0
 13 14  1  0
 13 15  1  0
 15 16  2  0
 16 17  1  0
 17 18  1  0
 18 19  1  0
 17 20  2  0
 20 21  1  0
 20 22  1  0
 22 23  2  0
 23 24  1  0
 24 25  1  0
 25 26  1  0
 24 27  2  0
 27 28  1  0
 27 29  1  0
 29 30  1  0
 30 31  1  0
 31 32  1  0
 32 33  2  0
 33 34  1  0
 34 35  1  0
 35 36  1  0
 34 37  1  0
 37 38  1  0
 33 39  1  0
 39 40  2  0
 40 41  1  0
 40 42  1  0
 42 43  1  0
 43 44  1  0
 44 45  1  0
 45 46  2  0
 46 47  1  0
 47 48  1  0
 48 49  1  0
 47 50  1  0
 50 51  1  0
 46 52  1  0
 52 53  2  0
 53 54  1  0
  7  1  1  0
 14  8  1  0
 21 15  1  0
 28 22  1  0
 38 29  2  0
 51 42  2  0
 37 31  2  0
 50 44  2  0
 41 32  1  0
 54 45  1  0
  1 55  1  0
  2 56  1  0
  4 57  1  0
  4 58  1  0
  5 59  1  0
  5 60  1  0
  5 61  1  0
  9 62  1  0
 11 63  1  0
 11 64  1  0
 12 65  1  0
 12 66  1  0
 12 67  1  0
 16 68  1  0
 18 69  1  0
 18 70  1  0
 19 71  1  0
 19 72  1  0
 19 73  1  0
 23 74  1  0
 25 75  1  0
 25 76  1  0
 26 77  1  0
 26 78  1  0
 26 79  1  0
 35 80  1  0
 35 81  1  0
 36 82  1  0
 36 83  1  0
 36 84  1  0
 38 85  1  0
 39 86  1  0
 48 87  1  0
 48 88  1  0
 49 89  1  0
 49 90  1  0
 49 91  1  0
 51 92  1  0
 52 93  1  0
 53 94  1  0
M  END

