
     RDKit          3D

225251  0  0  0  0  0  0  0  0999 V2000
   -2.4286    7.3334   -6.8435 C   0  0  0  0  0  0  0  0  0  0  0  0
   -2.0212    6.6423   -5.7080 C   0  0  0  0  0  0  0  0  0  0  0  0
   -1.1207    5.6001   -5.9877 C   0  0  0  0  0  0  0  0  0  0  0  0
   -0.5050    4.7525   -5.0441 C   0  0  0  0  0  0  0  0  0  0  0  0
   -0.7796    4.8666   -3.6005 C   0  0  0  0  0  0  0  0  0  0  0  0
   -2.2724    4.5729   -2.8817 S   0  0  0  0  0  0  0  0  0  0  0  0
   -1.7892    4.9386   -1.3122 C   0  0  0  0  0  0  0  0  0  0  0  0
   -2.6892    4.9072   -0.1140 C   0  0  0  0  0  0  0  0  0  0  0  0
   -3.3287    6.2728    0.1121 C   0  0  0  0  0  0  0  0  0  0  0  0
   -0.4480    5.3163   -1.3354 C   0  0  0  0  0  0  0  0  0  0  0  0
    0.4503    5.8009    0.0992 Cl  0  0  0  0  0  0  0  0  0  0  0  0
    0.1211    5.2629   -2.6149 C   0  0  0  0  0  0  0  0  0  0  0  0
    1.7895    5.7133   -2.9514 Cl  0  0  0  0  0  0  0  0  0  0  0  0
    0.4033    3.8035   -5.5400 C   0  0  0  0  0  0  0  0  0  0  0  0
    0.7177    3.6979   -6.9027 C   0  0  0  0  0  0  0  0  0  0  0  0
    0.0903    4.5372   -7.8471 C   0  0  0  0  0  0  0  0  0  0  0  0
    0.3650    4.4380   -9.2911 C   0  0  0  0  0  0  0  0  0  0  0  0
    1.8166    4.8669  -10.0257 S   0  0  0  0  0  0  0  0  0  0  0  0
    1.2938    4.6342  -11.6089 C   0  0  0  0  0  0  0  0  0  0  0  0
    2.1036    4.9476  -12.8340 C   0  0  0  0  0  0  0  0  0  0  0  0
    1.7694    6.3432  -13.3567 C   0  0  0  0  0  0  0  0  0  0  0  0
   -0.0431    4.2331  -11.5849 C   0  0  0  0  0  0  0  0  0  0  0  0
   -0.5605    4.1188  -10.2857 C   0  0  0  0  0  0  0  0  0  0  0  0
   -2.2126    3.6214   -9.9485 Cl  0  0  0  0  0  0  0  0  0  0  0  0
   -0.9965    3.9366  -13.0332 Cl  0  0  0  0  0  0  0  0  0  0  0  0
   -0.8209    5.4817   -7.3488 C   0  0  0  0  0  0  0  0  0  0  0  0
   -1.6711    6.6654   -8.1921 S   0  0  0  0  0  0  0  0  0  0  0  0
    1.6695    2.7030   -7.1757 C   0  0  0  0  0  0  0  0  0  0  0  0
    2.0678    2.0173   -6.0268 C   0  0  0  0  0  0  0  0  0  0  0  0
    1.2749    2.6503   -4.6826 S   0  0  0  0  0  0  0  0  0  0  0  0
    3.1602    1.0481   -5.9432 C   0  0  0  0  0  0  0  0  0  0  0  0
    4.4938    1.4079   -5.7987 C   0  0  0  0  0  0  0  0  0  0  0  0
    5.2992    0.3473   -5.3519 C   0  0  0  0  0  0  0  0  0  0  0  0
    6.6411    0.4522   -4.9263 C   0  0  0  0  0  0  0  0  0  0  0  0
    7.3525    1.7385   -4.9719 C   0  0  0  0  0  0  0  0  0  0  0  0
    7.6813    2.6907   -3.6273 S   0  0  0  0  0  0  0  0  0  0  0  0
    8.3020    3.9981   -4.4828 C   0  0  0  0  0  0  0  0  0  0  0  0
    8.7236    5.2942   -3.8631 C   0  0  0  0  0  0  0  0  0  0  0  0
    7.5823    6.3084   -3.8921 C   0  0  0  0  0  0  0  0  0  0  0  0
    8.2305    3.7172   -5.8468 C   0  0  0  0  0  0  0  0  0  0  0  0
    8.7218    4.8485   -7.1016 Cl  0  0  0  0  0  0  0  0  0  0  0  0
    7.6920    2.4486   -6.1206 C   0  0  0  0  0  0  0  0  0  0  0  0
    7.4587    1.8263   -7.7468 Cl  0  0  0  0  0  0  0  0  0  0  0  0
    7.1913   -0.6660   -4.2782 C   0  0  0  0  0  0  0  0  0  0  0  0
    6.4761   -1.8506   -4.0858 C   0  0  0  0  0  0  0  0  0  0  0  0
    5.1561   -1.9719   -4.5609 C   0  0  0  0  0  0  0  0  0  0  0  0
    4.3452   -3.1718   -4.2955 C   0  0  0  0  0  0  0  0  0  0  0  0
    3.5655   -3.5105   -2.8446 S   0  0  0  0  0  0  0  0  0  0  0  0
    2.8980   -4.9819   -3.3385 C   0  0  0  0  0  0  0  0  0  0  0  0
    1.9971   -5.8420   -2.4980 C   0  0  0  0  0  0  0  0  0  0  0  0
    2.6395   -6.1774   -1.1574 C   0  0  0  0  0  0  0  0  0  0  0  0
    3.2620   -5.2032   -4.6713 C   0  0  0  0  0  0  0  0  0  0  0  0
    4.0717   -4.1876   -5.2022 C   0  0  0  0  0  0  0  0  0  0  0  0
    4.6840   -4.1975   -6.8504 Cl  0  0  0  0  0  0  0  0  0  0  0  0
    2.7536   -6.6067   -5.6025 Cl  0  0  0  0  0  0  0  0  0  0  0  0
    4.5875   -0.8437   -5.1660 C   0  0  0  0  0  0  0  0  0  0  0  0
    2.9617   -0.5685   -5.5148 S   0  0  0  0  0  0  0  0  0  0  0  0
    7.1088   -2.7419   -3.2075 C   0  0  0  0  0  0  0  0  0  0  0  0
    8.2722   -2.2286   -2.6174 C   0  0  0  0  0  0  0  0  0  0  0  0
    8.5737   -0.7228   -3.3278 S   0  0  0  0  0  0  0  0  0  0  0  0
    8.5055   -2.4536   -1.1785 C   0  0  0  0  0  0  0  0  0  0  0  0
    8.0674   -1.4757   -0.2888 C   0  0  0  0  0  0  0  0  0  0  0  0
    7.3993   -1.9884    0.8277 C   0  0  0  0  0  0  0  0  0  0  0  0
    6.4914   -1.2604    1.6196 C   0  0  0  0  0  0  0  0  0  0  0  0
    6.2577    0.1821    1.4113 C   0  0  0  0  0  0  0  0  0  0  0  0
    6.6211    1.3802    2.5351 S   0  0  0  0  0  0  0  0  0  0  0  0
    6.0486    2.6681    1.6136 C   0  0  0  0  0  0  0  0  0  0  0  0
    5.9750    4.0849    2.0978 C   0  0  0  0  0  0  0  0  0  0  0  0
    4.7267    4.2983    2.9455 C   0  0  0  0  0  0  0  0  0  0  0  0
    5.5418    2.1691    0.4136 C   0  0  0  0  0  0  0  0  0  0  0  0
    4.8454    3.1791   -0.8434 Cl  0  0  0  0  0  0  0  0  0  0  0  0
    5.6495    0.7733    0.3033 C   0  0  0  0  0  0  0  0  0  0  0  0
    5.0247   -0.1367   -1.0716 Cl  0  0  0  0  0  0  0  0  0  0  0  0
    5.6290   -2.0052    2.4355 C   0  0  0  0  0  0  0  0  0  0  0  0
    5.6734   -3.4007    2.5130 C   0  0  0  0  0  0  0  0  0  0  0  0
    6.6554   -4.1164    1.8005 C   0  0  0  0  0  0  0  0  0  0  0  0
    6.7868   -5.5786    1.9025 C   0  0  0  0  0  0  0  0  0  0  0  0
    5.6760   -6.7060    1.3319 S   0  0  0  0  0  0  0  0  0  0  0  0
    6.4976   -8.0618    1.9043 C   0  0  0  0  0  0  0  0  0  0  0  0
    5.9798   -9.4707    1.8212 C   0  0  0  0  0  0  0  0  0  0  0  0
    5.2041   -9.8465    3.0791 C   0  0  0  0  0  0  0  0  0  0  0  0
    7.6525   -7.6431    2.5626 C   0  0  0  0  0  0  0  0  0  0  0  0
    7.8156   -6.2487    2.5523 C   0  0  0  0  0  0  0  0  0  0  0  0
    9.1529   -5.4224    3.3377 Cl  0  0  0  0  0  0  0  0  0  0  0  0
    8.7702   -8.7346    3.3666 Cl  0  0  0  0  0  0  0  0  0  0  0  0
    7.4673   -3.3826    0.9228 C   0  0  0  0  0  0  0  0  0  0  0  0
    8.2466   -3.9632   -0.4551 S   0  0  0  0  0  0  0  0  0  0  0  0
    4.5442   -3.9595    3.1472 C   0  0  0  0  0  0  0  0  0  0  0  0
    3.5823   -3.0033    3.4747 C   0  0  0  0  0  0  0  0  0  0  0  0
    4.1846   -1.4765    3.0884 S   0  0  0  0  0  0  0  0  0  0  0  0
    2.1452   -3.2726    3.5099 C   0  0  0  0  0  0  0  0  0  0  0  0
    1.2374   -2.5653    2.7353 C   0  0  0  0  0  0  0  0  0  0  0  0
   -0.0616   -3.0600    2.8183 C   0  0  0  0  0  0  0  0  0  0  0  0
   -1.1706   -2.5550    2.1213 C   0  0  0  0  0  0  0  0  0  0  0  0
   -1.0437   -1.4550    1.1525 C   0  0  0  0  0  0  0  0  0  0  0  0
   -0.5651    0.1146    1.5256 S   0  0  0  0  0  0  0  0  0  0  0  0
   -0.5103    0.6630   -0.0642 C   0  0  0  0  0  0  0  0  0  0  0  0
    0.0028    2.0082   -0.4775 C   0  0  0  0  0  0  0  0  0  0  0  0
    1.5152    1.9685   -0.6615 C   0  0  0  0  0  0  0  0  0  0  0  0
   -0.8393   -0.3909   -0.9176 C   0  0  0  0  0  0  0  0  0  0  0  0
   -0.8080   -0.2652   -2.6716 Cl  0  0  0  0  0  0  0  0  0  0  0  0
   -1.1495   -1.5726   -0.2306 C   0  0  0  0  0  0  0  0  0  0  0  0
   -1.5469   -3.0830   -1.0457 Cl  0  0  0  0  0  0  0  0  0  0  0  0
   -2.4052   -3.1469    2.3920 C   0  0  0  0  0  0  0  0  0  0  0  0
   -2.5573   -4.2158    3.2753 C   0  0  0  0  0  0  0  0  0  0  0  0
   -1.4287   -4.7842    3.9076 C   0  0  0  0  0  0  0  0  0  0  0  0
   -1.5518   -5.9565    4.7923 C   0  0  0  0  0  0  0  0  0  0  0  0
   -1.2061   -5.9645    6.4399 S   0  0  0  0  0  0  0  0  0  0  0  0
   -1.5761   -7.5887    6.6879 C   0  0  0  0  0  0  0  0  0  0  0  0
   -1.5083   -8.2898    8.0134 C   0  0  0  0  0  0  0  0  0  0  0  0
   -2.8986   -8.4851    8.6146 C   0  0  0  0  0  0  0  0  0  0  0  0
   -1.9871   -8.1471    5.4782 C   0  0  0  0  0  0  0  0  0  0  0  0
   -1.9742   -7.2304    4.4153 C   0  0  0  0  0  0  0  0  0  0  0  0
   -2.4156   -7.6546    2.7653 Cl  0  0  0  0  0  0  0  0  0  0  0  0
   -2.4583   -9.8283    5.2923 Cl  0  0  0  0  0  0  0  0  0  0  0  0
   -0.1879   -4.1623    3.6736 C   0  0  0  0  0  0  0  0  0  0  0  0
    1.3441   -4.5460    4.2863 S   0  0  0  0  0  0  0  0  0  0  0  0
   -3.9110   -4.5200    3.5348 C   0  0  0  0  0  0  0  0  0  0  0  0
   -4.8027   -3.6561    2.8844 C   0  0  0  0  0  0  0  0  0  0  0  0
   -3.9048   -2.5701    1.9472 S   0  0  0  0  0  0  0  0  0  0  0  0
   -6.2054   -3.3398    3.2852 C   0  0  0  0  0  0  0  0  0  0  0  0
   -7.0782   -2.7170    2.3589 C   0  0  0  0  0  0  0  0  0  0  0  0
   -6.9006   -2.9514    0.9388 C   0  0  0  0  0  0  0  0  0  0  0  0
   -6.7572   -3.1446   -0.1931 N   0  0  0  0  0  0  0  0  0  0  0  0
   -8.0939   -1.8382    2.8146 C   0  0  0  0  0  0  0  0  0  0  0  0
   -8.9511   -1.1990    1.8337 C   0  0  0  0  0  0  0  0  0  0  0  0
   -9.6332   -0.6907    1.0458 N   0  0  0  0  0  0  0  0  0  0  0  0
   -8.2283   -1.5619    4.2042 C   0  0  0  0  0  0  0  0  0  0  0  0
   -7.6251   -2.4814    5.0887 C   0  0  0  0  0  0  0  0  0  0  0  0
   -6.5823   -3.3388    4.6361 C   0  0  0  0  0  0  0  0  0  0  0  0
   -5.9547   -4.0781    5.5876 N   0  0  0  0  0  0  0  0  0  0  0  0
   -6.8084   -3.6510    6.9301 S   0  0  0  0  0  0  0  0  0  0  0  0
   -7.9192   -2.5512    6.4141 N   0  0  0  0  0  0  0  0  0  0  0  0
   -8.6809   -0.2168    4.7156 C   0  0  0  0  0  0  0  0  0  0  0  0
   -8.3025    0.3398    5.9492 C   0  0  0  0  0  0  0  0  0  0  0  0
   -8.4863    1.7308    6.0493 C   0  0  0  0  0  0  0  0  0  0  0  0
   -8.1172    2.5414    7.1447 C   0  0  0  0  0  0  0  0  0  0  0  0
   -7.4185    1.9838    8.3202 C   0  0  0  0  0  0  0  0  0  0  0  0
   -5.9371    1.1858    8.2636 S   0  0  0  0  0  0  0  0  0  0  0  0
   -5.8848    0.7756    9.8909 C   0  0  0  0  0  0  0  0  0  0  0  0
   -4.8405   -0.1059   10.5114 C   0  0  0  0  0  0  0  0  0  0  0  0
   -5.2920   -1.5632   10.5076 C   0  0  0  0  0  0  0  0  0  0  0  0
   -7.0370    1.2628   10.5098 C   0  0  0  0  0  0  0  0  0  0  0  0
   -7.4102    1.0020   12.2076 Cl  0  0  0  0  0  0  0  0  0  0  0  0
   -7.8947    1.9450    9.6275 C   0  0  0  0  0  0  0  0  0  0  0  0
   -9.4623    2.5812   10.1096 Cl  0  0  0  0  0  0  0  0  0  0  0  0
   -8.3448    3.9205    7.0161 C   0  0  0  0  0  0  0  0  0  0  0  0
   -8.8707    4.4921    5.8518 C   0  0  0  0  0  0  0  0  0  0  0  0
   -9.2150    3.6830    4.7492 C   0  0  0  0  0  0  0  0  0  0  0  0
   -9.6466    4.2586    3.4623 C   0  0  0  0  0  0  0  0  0  0  0  0
  -11.0210    5.2052    3.2405 S   0  0  0  0  0  0  0  0  0  0  0  0
  -10.7329    5.5631    1.6226 C   0  0  0  0  0  0  0  0  0  0  0  0
  -11.5370    6.5368    0.8122 C   0  0  0  0  0  0  0  0  0  0  0  0
  -10.9806    7.9514    0.9593 C   0  0  0  0  0  0  0  0  0  0  0  0
   -9.5331    4.9597    1.2365 C   0  0  0  0  0  0  0  0  0  0  0  0
   -8.9287    4.2270    2.2642 C   0  0  0  0  0  0  0  0  0  0  0  0
   -7.3635    3.4372    2.0863 Cl  0  0  0  0  0  0  0  0  0  0  0  0
   -8.8217    5.1525   -0.3581 Cl  0  0  0  0  0  0  0  0  0  0  0  0
   -9.0237    2.2966    4.8996 C   0  0  0  0  0  0  0  0  0  0  0  0
   -9.2636    1.0702    3.7747 S   0  0  0  0  0  0  0  0  0  0  0  0
   -8.9256    5.8950    5.9064 C   0  0  0  0  0  0  0  0  0  0  0  0
   -8.4612    6.4227    7.1067 C   0  0  0  0  0  0  0  0  0  0  0  0
   -7.9589    5.1524    8.0975 S   0  0  0  0  0  0  0  0  0  0  0  0
   -3.1114    8.1731   -6.8585 H   0  0  0  0  0  0  0  0  0  0  0  0
   -2.3629    6.8990   -4.7143 H   0  0  0  0  0  0  0  0  0  0  0  0
   -3.4826    4.1484   -0.2738 H   0  0  0  0  0  0  0  0  0  0  0  0
   -2.1092    4.6105    0.7845 H   0  0  0  0  0  0  0  0  0  0  0  0
   -2.5472    7.0453    0.2804 H   0  0  0  0  0  0  0  0  0  0  0  0
   -3.9463    6.5550   -0.7669 H   0  0  0  0  0  0  0  0  0  0  0  0
   -3.9807    6.2257    1.0094 H   0  0  0  0  0  0  0  0  0  0  0  0
    3.1849    4.9014  -12.5838 H   0  0  0  0  0  0  0  0  0  0  0  0
    1.8993    4.1942  -13.6229 H   0  0  0  0  0  0  0  0  0  0  0  0
    1.9853    7.1079  -12.5831 H   0  0  0  0  0  0  0  0  0  0  0  0
    2.3857    6.5569  -14.2574 H   0  0  0  0  0  0  0  0  0  0  0  0
    0.6995    6.4062  -13.6456 H   0  0  0  0  0  0  0  0  0  0  0  0
    2.0689    2.4896   -8.1565 H   0  0  0  0  0  0  0  0  0  0  0  0
    4.8403    2.4256   -5.9011 H   0  0  0  0  0  0  0  0  0  0  0  0
    9.0273    5.1174   -2.8108 H   0  0  0  0  0  0  0  0  0  0  0  0
    9.6009    5.7051   -4.4076 H   0  0  0  0  0  0  0  0  0  0  0  0
    7.9038    7.2451   -3.3889 H   0  0  0  0  0  0  0  0  0  0  0  0
    7.3012    6.5416   -4.9397 H   0  0  0  0  0  0  0  0  0  0  0  0
    6.6963    5.9041   -3.3571 H   0  0  0  0  0  0  0  0  0  0  0  0
    1.0376   -5.3054   -2.3341 H   0  0  0  0  0  0  0  0  0  0  0  0
    1.7676   -6.7941   -3.0262 H   0  0  0  0  0  0  0  0  0  0  0  0
    3.6509   -6.6174   -1.3076 H   0  0  0  0  0  0  0  0  0  0  0  0
    2.0042   -6.9060   -0.6144 H   0  0  0  0  0  0  0  0  0  0  0  0
    2.7246   -5.2595   -0.5339 H   0  0  0  0  0  0  0  0  0  0  0  0
    6.6208   -3.6338   -2.8399 H   0  0  0  0  0  0  0  0  0  0  0  0
    7.9979   -0.4300   -0.5673 H   0  0  0  0  0  0  0  0  0  0  0  0
    6.8766    4.3093    2.7044 H   0  0  0  0  0  0  0  0  0  0  0  0
    5.9666    4.7868    1.2372 H   0  0  0  0  0  0  0  0  0  0  0  0
    3.8144    4.1696    2.3225 H   0  0  0  0  0  0  0  0  0  0  0  0
    4.6938    3.5698    3.7850 H   0  0  0  0  0  0  0  0  0  0  0  0
    4.7336    5.3264    3.3657 H   0  0  0  0  0  0  0  0  0  0  0  0
    5.3083   -9.5581    0.9375 H   0  0  0  0  0  0  0  0  0  0  0  0
    6.8277  -10.1775    1.6697 H   0  0  0  0  0  0  0  0  0  0  0  0
    4.6838  -10.8121    2.9155 H   0  0  0  0  0  0  0  0  0  0  0  0
    5.8928   -9.9572    3.9404 H   0  0  0  0  0  0  0  0  0  0  0  0
    4.4432   -9.0718    3.3095 H   0  0  0  0  0  0  0  0  0  0  0  0
    4.3442   -5.0214    3.1908 H   0  0  0  0  0  0  0  0  0  0  0  0
    1.5257   -1.7481    2.0891 H   0  0  0  0  0  0  0  0  0  0  0  0
   -0.4773    2.3236   -1.4265 H   0  0  0  0  0  0  0  0  0  0  0  0
   -0.2500    2.7544    0.3084 H   0  0  0  0  0  0  0  0  0  0  0  0
    1.8750    2.9790   -0.9470 H   0  0  0  0  0  0  0  0  0  0  0  0
    1.7851    1.2570   -1.4707 H   0  0  0  0  0  0  0  0  0  0  0  0
    2.0161    1.6685    0.2839 H   0  0  0  0  0  0  0  0  0  0  0  0
   -1.0152   -9.2758    7.8899 H   0  0  0  0  0  0  0  0  0  0  0  0
   -0.8929   -7.6881    8.7181 H   0  0  0  0  0  0  0  0  0  0  0  0
   -3.5252   -9.1173    7.9495 H   0  0  0  0  0  0  0  0  0  0  0  0
   -2.8129   -8.9923    9.5967 H   0  0  0  0  0  0  0  0  0  0  0  0
   -3.3976   -7.5020    8.7601 H   0  0  0  0  0  0  0  0  0  0  0  0
   -4.2183   -5.2808    4.2389 H   0  0  0  0  0  0  0  0  0  0  0  0
   -7.8203   -0.2092    6.7430 H   0  0  0  0  0  0  0  0  0  0  0  0
   -3.8942   -0.0155    9.9374 H   0  0  0  0  0  0  0  0  0  0  0  0
   -4.6394    0.2196   11.5548 H   0  0  0  0  0  0  0  0  0  0  0  0
   -5.5027   -1.9032    9.4686 H   0  0  0  0  0  0  0  0  0  0  0  0
   -4.4875   -2.1995   10.9370 H   0  0  0  0  0  0  0  0  0  0  0  0
   -6.2094   -1.6844   11.1230 H   0  0  0  0  0  0  0  0  0  0  0  0
  -11.5238    6.2437   -0.2593 H   0  0  0  0  0  0  0  0  0  0  0  0
  -12.5936    6.5243    1.1619 H   0  0  0  0  0  0  0  0  0  0  0  0
   -9.9426    8.0048    0.5690 H   0  0  0  0  0  0  0  0  0  0  0  0
  -11.6142    8.6626    0.3890 H   0  0  0  0  0  0  0  0  0  0  0  0
  -10.9811    8.2574    2.0298 H   0  0  0  0  0  0  0  0  0  0  0  0
   -9.2746    6.5232    5.1027 H   0  0  0  0  0  0  0  0  0  0  0  0
   -8.4124    7.4738    7.3588 H   0  0  0  0  0  0  0  0  0  0  0  0
  1  2  2  0
  2  3  1  0
  3  4  2  0
  4  5  1  0
  5  6  1  0
  6  7  1  0
  7  8  1  0
  8  9  1  0
  7 10  2  0
 10 11  1  0
 10 12  1  0
 12 13  1  0
  4 14  1  0
 14 15  2  0
 15 16  1  0
 16 17  1  0
 17 18  1  0
 18 19  1  0
 19 20  1  0
 20 21  1  0
 19 22  2  0
 22 23  1  0
 23 24  1  0
 22 25  1  0
 16 26  2  0
 26 27  1  0
 15 28  1  0
 28 29  2  0
 29 30  1  0
 29 31  1  0
 31 32  2  0
 32 33  1  0
 33 34  2  0
 34 35  1  0
 35 36  1  0
 36 37  1  0
 37 38  1  0
 38 39  1  0
 37 40  2  0
 40 41  1  0
 40 42  1  0
 42 43  1  0
 34 44  1  0
 44 45  2  0
 45 46  1  0
 46 47  1  0
 47 48  1  0
 48 49  1  0
 49 50  1  0
 50 51  1  0
 49 52  2  0
 52 53  1  0
 53 54  1  0
 52 55  1  0
 46 56  2  0
 56 57  1  0
 45 58  1  0
 58 59  2  0
 59 60  1  0
 59 61  1  0
 61 62  2  0
 62 63  1  0
 63 64  2  0
 64 65  1  0
 65 66  1  0
 66 67  1  0
 67 68  1  0
 68 69  1  0
 67 70  2  0
 70 71  1  0
 70 72  1  0
 72 73  1  0
 64 74  1  0
 74 75  2  0
 75 76  1  0
 76 77  1  0
 77 78  1  0
 78 79  1  0
 79 80  1  0
 80 81  1  0
 79 82  2  0
 82 83  1  0
 83 84  1  0
 82 85  1  0
 76 86  2  0
 86 87  1  0
 75 88  1  0
 88 89  2  0
 89 90  1  0
 89 91  1  0
 91 92  2  0
 92 93  1  0
 93 94  2  0
 94 95  1  0
 95 96  1  0
 96 97  1  0
 97 98  1  0
 98 99  1  0
 97100  2  0
100101  1  0
100102  1  0
102103  1  0
 94104  1  0
104105  2  0
105106  1  0
106107  1  0
107108  1  0
108109  1  0
109110  1  0
110111  1  0
109112  2  0
112113  1  0
113114  1  0
112115  1  0
106116  2  0
116117  1  0
105118  1  0
118119  2  0
119120  1  0
119121  1  0
121122  2  0
122123  1  0
123124  3  0
122125  1  0
125126  1  0
126127  3  0
125128  2  0
128129  1  0
129130  1  0
130131  2  0
131132  1  0
132133  1  0
128134  1  0
134135  2  0
135136  1  0
136137  2  0
137138  1  0
138139  1  0
139140  1  0
140141  1  0
141142  1  0
140143  2  0
143144  1  0
143145  1  0
145146  1  0
137147  1  0
147148  2  0
148149  1  0
149150  1  0
150151  1  0
151152  1  0
152153  1  0
153154  1  0
152155  2  0
155156  1  0
156157  1  0
155158  1  0
149159  2  0
159160  1  0
148161  1  0
161162  2  0
162163  1  0
 27  1  1  0
 57 31  1  0
 87 61  1  0
117 91  1  0
130121  1  0
160134  1  0
 26  3  1  0
 56 33  1  0
 86 63  1  0
116 93  1  0
133129  2  0
159136  1  0
 12  5  2  0
 30 14  1  0
 42 35  2  0
 60 44  1  0
 72 65  2  0
 90 74  1  0
102 95  2  0
120104  1  0
145138  2  0
163147  1  0
 23 17  2  0
 53 47  2  0
 83 77  2  0
113107  2  0
156150  2  0
  1164  1  0
  2165  1  0
  8166  1  0
  8167  1  0
  9168  1  0
  9169  1  0
  9170  1  0
 20171  1  0
 20172  1  0
 21173  1  0
 21174  1  0
 21175  1  0
 28176  1  0
 32177  1  0
 38178  1  0
 38179  1  0
 39180  1  0
 39181  1  0
 39182  1  0
 50183  1  0
 50184  1  0
 51185  1  0
 51186  1  0
 51187  1  0
 58188  1  0
 62189  1  0
 68190  1  0
 68191  1  0
 69192  1  0
 69193  1  0
 69194  1  0
 80195  1  0
 80196  1  0
 81197  1  0
 81198  1  0
 81199  1  0
 88200  1  0
 92201  1  0
 98202  1  0
 98203  1  0
 99204  1  0
 99205  1  0
 99206  1  0
110207  1  0
110208  1  0
111209  1  0
111210  1  0
111211  1  0
118212  1  0
135213  1  0
141214  1  0
141215  1  0
142216  1  0
142217  1  0
142218  1  0
153219  1  0
153220  1  0
154221  1  0
154222  1  0
154223  1  0
161224  1  0
162225  1  0
M  END

