
     RDKit          3D

264289  0  0  0  0  0  0  0  0999 V2000
   -4.4437    1.4821    3.3675 C   0  0  0  0  0  0  0  0  0  0  0  0
   -4.3595    0.7416    4.5460 C   0  0  0  0  0  0  0  0  0  0  0  0
   -5.3654   -0.2320    4.6570 C   0  0  0  0  0  0  0  0  0  0  0  0
   -5.5353   -1.1444    5.7245 C   0  0  0  0  0  0  0  0  0  0  0  0
   -4.6462   -1.1408    6.9016 C   0  0  0  0  0  0  0  0  0  0  0  0
   -3.7912   -2.2251    7.1448 C   0  0  0  0  0  0  0  0  0  0  0  0
   -2.8918   -2.1867    8.2134 C   0  0  0  0  0  0  0  0  0  0  0  0
   -2.8433   -1.0640    9.0490 C   0  0  0  0  0  0  0  0  0  0  0  0
   -1.6418   -0.9966   10.3826 S   0  0  0  0  0  0  0  0  0  0  0  0
   -0.2598   -0.4118    9.3309 C   0  0  0  0  0  0  0  0  0  0  0  0
   -0.3486    1.0868    9.0652 C   0  0  0  0  0  0  0  0  0  0  0  0
   -3.7249    0.0053    8.8321 C   0  0  0  0  0  0  0  0  0  0  0  0
   -3.7116    1.0852    9.6523 F   0  0  0  0  0  0  0  0  0  0  0  0
   -4.6170   -0.0309    7.7577 C   0  0  0  0  0  0  0  0  0  0  0  0
   -6.5968   -2.0614    5.6084 C   0  0  0  0  0  0  0  0  0  0  0  0
   -7.4591   -2.0774    4.5083 C   0  0  0  0  0  0  0  0  0  0  0  0
   -7.2883   -1.1660    3.4507 C   0  0  0  0  0  0  0  0  0  0  0  0
   -8.1904   -1.1460    2.2902 C   0  0  0  0  0  0  0  0  0  0  0  0
   -9.3191   -0.3155    2.3014 C   0  0  0  0  0  0  0  0  0  0  0  0
  -10.1946   -0.3120    1.2134 C   0  0  0  0  0  0  0  0  0  0  0  0
   -9.9481   -1.1326    0.1060 C   0  0  0  0  0  0  0  0  0  0  0  0
  -11.0533   -1.0770   -1.3069 S   0  0  0  0  0  0  0  0  0  0  0  0
  -12.0194   -2.5536   -0.8249 C   0  0  0  0  0  0  0  0  0  0  0  0
  -12.9929   -2.2402    0.3058 C   0  0  0  0  0  0  0  0  0  0  0  0
   -8.8129   -1.9590    0.0908 C   0  0  0  0  0  0  0  0  0  0  0  0
   -7.9414   -1.9700    1.1846 C   0  0  0  0  0  0  0  0  0  0  0  0
   -8.5455   -2.7389   -0.9869 F   0  0  0  0  0  0  0  0  0  0  0  0
   -6.2261   -0.2557    3.5579 C   0  0  0  0  0  0  0  0  0  0  0  0
   -5.7516    0.9244    2.4585 S   0  0  0  0  0  0  0  0  0  0  0  0
   -8.4349   -3.0796    4.5784 C   0  0  0  0  0  0  0  0  0  0  0  0
   -8.3480   -3.8378    5.7426 C   0  0  0  0  0  0  0  0  0  0  0  0
   -7.0483   -3.2879    6.6743 S   0  0  0  0  0  0  0  0  0  0  0  0
   -9.0883   -5.0885    5.9711 C   0  0  0  0  0  0  0  0  0  0  0  0
  -10.0218   -5.2839    6.9962 C   0  0  0  0  0  0  0  0  0  0  0  0
  -10.4711   -4.3376    8.0354 C   0  0  0  0  0  0  0  0  0  0  0  0
  -10.6973   -4.7803    9.1913 O   0  0  0  0  0  0  0  0  0  0  0  0
  -10.6764   -2.8725    7.7656 C   0  0  0  0  0  0  0  0  0  0  0  0
  -11.7315   -2.4087    8.5287 F   0  0  0  0  0  0  0  0  0  0  0  0
   -9.5400   -2.1667    8.1108 F   0  0  0  0  0  0  0  0  0  0  0  0
  -10.9709   -2.6557    6.4327 F   0  0  0  0  0  0  0  0  0  0  0  0
  -10.6538   -6.8309    6.8293 S   0  0  0  0  0  0  0  0  0  0  0  0
   -9.7910   -7.2706    5.4594 C   0  0  0  0  0  0  0  0  0  0  0  0
   -8.9554   -6.2130    5.1225 C   0  0  0  0  0  0  0  0  0  0  0  0
   -7.9912   -6.3012    4.0140 C   0  0  0  0  0  0  0  0  0  0  0  0
   -8.2745   -6.7473    2.7255 C   0  0  0  0  0  0  0  0  0  0  0  0
   -7.1837   -6.6010    1.8462 C   0  0  0  0  0  0  0  0  0  0  0  0
   -7.1823   -6.8822    0.4653 C   0  0  0  0  0  0  0  0  0  0  0  0
   -8.4053   -7.3561   -0.2025 C   0  0  0  0  0  0  0  0  0  0  0  0
   -8.7143   -8.7226   -0.2161 C   0  0  0  0  0  0  0  0  0  0  0  0
   -9.9749   -9.1518   -0.6504 C   0  0  0  0  0  0  0  0  0  0  0  0
  -10.9295   -8.2164   -1.0759 C   0  0  0  0  0  0  0  0  0  0  0  0
  -12.5930   -8.7616   -1.4839 S   0  0  0  0  0  0  0  0  0  0  0  0
  -12.3202   -8.8253   -3.2872 C   0  0  0  0  0  0  0  0  0  0  0  0
  -11.6543  -10.1322   -3.6897 C   0  0  0  0  0  0  0  0  0  0  0  0
  -10.6097   -6.8514   -1.0892 C   0  0  0  0  0  0  0  0  0  0  0  0
  -11.5283   -5.9357   -1.4891 F   0  0  0  0  0  0  0  0  0  0  0  0
   -9.3525   -6.4227   -0.6561 C   0  0  0  0  0  0  0  0  0  0  0  0
   -6.0033   -6.5978   -0.2448 C   0  0  0  0  0  0  0  0  0  0  0  0
   -4.8652   -6.0709    0.3808 C   0  0  0  0  0  0  0  0  0  0  0  0
   -4.8691   -5.7725    1.7593 C   0  0  0  0  0  0  0  0  0  0  0  0
   -3.7351   -5.0966    2.4272 C   0  0  0  0  0  0  0  0  0  0  0  0
   -3.9076   -3.8284    2.9993 C   0  0  0  0  0  0  0  0  0  0  0  0
   -2.8629   -3.2238    3.7041 C   0  0  0  0  0  0  0  0  0  0  0  0
   -1.6425   -3.8906    3.8584 C   0  0  0  0  0  0  0  0  0  0  0  0
   -0.3268   -3.1403    4.8312 S   0  0  0  0  0  0  0  0  0  0  0  0
    0.2935   -2.0644    3.4896 C   0  0  0  0  0  0  0  0  0  0  0  0
    0.0696   -0.6072    3.8628 C   0  0  0  0  0  0  0  0  0  0  0  0
   -1.4564   -5.1521    3.2740 C   0  0  0  0  0  0  0  0  0  0  0  0
   -2.5009   -5.7559    2.5644 C   0  0  0  0  0  0  0  0  0  0  0  0
   -0.2838   -5.8167    3.4339 F   0  0  0  0  0  0  0  0  0  0  0  0
   -6.0514   -6.0650    2.4619 C   0  0  0  0  0  0  0  0  0  0  0  0
   -6.3904   -5.7735    4.0799 S   0  0  0  0  0  0  0  0  0  0  0  0
   -3.8348   -5.7736   -0.5156 C   0  0  0  0  0  0  0  0  0  0  0  0
   -4.1602   -6.0556   -1.8412 C   0  0  0  0  0  0  0  0  0  0  0  0
   -5.7401   -6.6544   -1.9102 S   0  0  0  0  0  0  0  0  0  0  0  0
   -3.4185   -5.4730   -2.9589 C   0  0  0  0  0  0  0  0  0  0  0  0
   -3.3338   -4.0902   -3.0907 C   0  0  0  0  0  0  0  0  0  0  0  0
   -2.1160   -3.6537   -3.6269 C   0  0  0  0  0  0  0  0  0  0  0  0
   -1.6769   -2.3159   -3.6657 C   0  0  0  0  0  0  0  0  0  0  0  0
   -2.5012   -1.1907   -3.1652 C   0  0  0  0  0  0  0  0  0  0  0  0
   -2.9228   -1.1529   -1.8258 C   0  0  0  0  0  0  0  0  0  0  0  0
   -3.6890   -0.0793   -1.3591 C   0  0  0  0  0  0  0  0  0  0  0  0
   -4.0169    0.9787   -2.2136 C   0  0  0  0  0  0  0  0  0  0  0  0
   -4.9820    2.3666   -1.6017 S   0  0  0  0  0  0  0  0  0  0  0  0
   -6.5863    1.7259   -2.2024 C   0  0  0  0  0  0  0  0  0  0  0  0
   -7.2214    0.8082   -1.1685 C   0  0  0  0  0  0  0  0  0  0  0  0
   -3.5672    0.9617   -3.5443 C   0  0  0  0  0  0  0  0  0  0  0  0
   -3.8617    1.9878   -4.3837 F   0  0  0  0  0  0  0  0  0  0  0  0
   -2.8137   -0.1198   -4.0168 C   0  0  0  0  0  0  0  0  0  0  0  0
   -0.3447   -2.1033   -4.0465 C   0  0  0  0  0  0  0  0  0  0  0  0
    0.5196   -3.1440   -4.4041 C   0  0  0  0  0  0  0  0  0  0  0  0
    0.0567   -4.4808   -4.4416 C   0  0  0  0  0  0  0  0  0  0  0  0
    0.9256   -5.5762   -4.9444 C   0  0  0  0  0  0  0  0  0  0  0  0
    1.5214   -5.4538   -6.2105 C   0  0  0  0  0  0  0  0  0  0  0  0
    2.3560   -6.4580   -6.6994 C   0  0  0  0  0  0  0  0  0  0  0  0
    2.5922   -7.6087   -5.9393 C   0  0  0  0  0  0  0  0  0  0  0  0
    3.6380   -8.9144   -6.5963 S   0  0  0  0  0  0  0  0  0  0  0  0
    2.3624   -9.6195   -7.7023 C   0  0  0  0  0  0  0  0  0  0  0  0
    2.6673   -9.2643   -9.1527 C   0  0  0  0  0  0  0  0  0  0  0  0
    2.0021   -7.7397   -4.6744 C   0  0  0  0  0  0  0  0  0  0  0  0
    1.1821   -6.7220   -4.1723 C   0  0  0  0  0  0  0  0  0  0  0  0
    2.2400   -8.8425   -3.9166 F   0  0  0  0  0  0  0  0  0  0  0  0
   -1.2638   -4.7023   -3.9945 C   0  0  0  0  0  0  0  0  0  0  0  0
   -2.0092   -6.1569   -3.5893 S   0  0  0  0  0  0  0  0  0  0  0  0
    1.8650   -2.7355   -4.5002 C   0  0  0  0  0  0  0  0  0  0  0  0
    2.0380   -1.3876   -4.1969 C   0  0  0  0  0  0  0  0  0  0  0  0
    0.5449   -0.6995   -3.8393 S   0  0  0  0  0  0  0  0  0  0  0  0
    3.2851   -0.7920   -3.7219 C   0  0  0  0  0  0  0  0  0  0  0  0
    4.3762   -0.4160   -4.4987 C   0  0  0  0  0  0  0  0  0  0  0  0
    5.2781    0.4143   -3.7961 C   0  0  0  0  0  0  0  0  0  0  0  0
    6.4213    1.0607   -4.3309 C   0  0  0  0  0  0  0  0  0  0  0  0
    6.9215    0.7379   -5.6987 C   0  0  0  0  0  0  0  0  0  0  0  0
    7.1257    1.7471   -6.6550 C   0  0  0  0  0  0  0  0  0  0  0  0
    7.5229    1.4188   -7.9523 C   0  0  0  0  0  0  0  0  0  0  0  0
    7.6825    0.0799   -8.3214 C   0  0  0  0  0  0  0  0  0  0  0  0
    8.1495   -0.3259  -10.0089 S   0  0  0  0  0  0  0  0  0  0  0  0
    9.9201   -0.6087   -9.6373 C   0  0  0  0  0  0  0  0  0  0  0  0
   10.3035   -2.0350  -10.0158 C   0  0  0  0  0  0  0  0  0  0  0  0
    7.4723   -0.9339   -7.3754 C   0  0  0  0  0  0  0  0  0  0  0  0
    7.5817   -2.2353   -7.7282 F   0  0  0  0  0  0  0  0  0  0  0  0
    7.1150   -0.6013   -6.0694 C   0  0  0  0  0  0  0  0  0  0  0  0
    7.0314    2.0393   -3.5083 C   0  0  0  0  0  0  0  0  0  0  0  0
    6.5696    2.3197   -2.2121 C   0  0  0  0  0  0  0  0  0  0  0  0
    5.4933    1.6091   -1.6503 C   0  0  0  0  0  0  0  0  0  0  0  0
    4.9740    1.9316   -0.2971 C   0  0  0  0  0  0  0  0  0  0  0  0
    5.8301    1.9022    0.8137 C   0  0  0  0  0  0  0  0  0  0  0  0
    5.3755    2.3084    2.0721 C   0  0  0  0  0  0  0  0  0  0  0  0
    4.0508    2.7221    2.2398 C   0  0  0  0  0  0  0  0  0  0  0  0
    3.4885    3.3150    3.8412 S   0  0  0  0  0  0  0  0  0  0  0  0
    3.0461    1.6629    4.4881 C   0  0  0  0  0  0  0  0  0  0  0  0
    4.2590    0.9812    5.1156 C   0  0  0  0  0  0  0  0  0  0  0  0
    3.1783    2.7275    1.1449 C   0  0  0  0  0  0  0  0  0  0  0  0
    3.6442    2.3571   -0.1200 C   0  0  0  0  0  0  0  0  0  0  0  0
    1.8909    3.1273    1.2930 F   0  0  0  0  0  0  0  0  0  0  0  0
    4.8615    0.6779   -2.4842 C   0  0  0  0  0  0  0  0  0  0  0  0
    3.4292   -0.1362   -2.1837 S   0  0  0  0  0  0  0  0  0  0  0  0
    7.1808    3.4370   -1.6338 C   0  0  0  0  0  0  0  0  0  0  0  0
    8.1263    4.0371   -2.4526 C   0  0  0  0  0  0  0  0  0  0  0  0
    8.2256    3.1756   -3.9028 S   0  0  0  0  0  0  0  0  0  0  0  0
    8.5696    5.4067   -2.2346 C   0  0  0  0  0  0  0  0  0  0  0  0
    9.8737    5.8176   -1.9587 C   0  0  0  0  0  0  0  0  0  0  0  0
    9.9275    7.1298   -1.4524 C   0  0  0  0  0  0  0  0  0  0  0  0
   11.0742    7.8062   -0.9896 C   0  0  0  0  0  0  0  0  0  0  0  0
   12.4047    7.1830   -0.9925 C   0  0  0  0  0  0  0  0  0  0  0  0
   13.2764    7.3847   -2.0732 C   0  0  0  0  0  0  0  0  0  0  0  0
   14.5802    6.8813   -2.0220 C   0  0  0  0  0  0  0  0  0  0  0  0
   15.0187    6.1832   -0.8897 C   0  0  0  0  0  0  0  0  0  0  0  0
   16.7263    5.6362   -0.7905 S   0  0  0  0  0  0  0  0  0  0  0  0
   17.2813    7.0568    0.2214 C   0  0  0  0  0  0  0  0  0  0  0  0
   17.4733    8.3083   -0.6296 C   0  0  0  0  0  0  0  0  0  0  0  0
   14.1329    5.9344    0.1697 C   0  0  0  0  0  0  0  0  0  0  0  0
   14.5412    5.2478    1.2656 F   0  0  0  0  0  0  0  0  0  0  0  0
   12.8314    6.4431    0.1202 C   0  0  0  0  0  0  0  0  0  0  0  0
   10.8787    9.0832   -0.4299 C   0  0  0  0  0  0  0  0  0  0  0  0
    9.6177    9.6736   -0.3132 C   0  0  0  0  0  0  0  0  0  0  0  0
    8.4732    8.9966   -0.7751 C   0  0  0  0  0  0  0  0  0  0  0  0
    7.1172    9.5436   -0.6004 C   0  0  0  0  0  0  0  0  0  0  0  0
    6.3484    9.1643    0.5080 C   0  0  0  0  0  0  0  0  0  0  0  0
    5.0355    9.6256    0.6457 C   0  0  0  0  0  0  0  0  0  0  0  0
    4.4820   10.4637   -0.3313 C   0  0  0  0  0  0  0  0  0  0  0  0
    2.7775   11.0140   -0.1680 S   0  0  0  0  0  0  0  0  0  0  0  0
    2.1069    9.5432   -1.0165 C   0  0  0  0  0  0  0  0  0  0  0  0
    0.5909    9.6255   -1.0806 C   0  0  0  0  0  0  0  0  0  0  0  0
    5.2545   10.8630   -1.4318 C   0  0  0  0  0  0  0  0  0  0  0  0
    6.5702   10.4046   -1.5645 C   0  0  0  0  0  0  0  0  0  0  0  0
    4.7306   11.6787   -2.3858 F   0  0  0  0  0  0  0  0  0  0  0  0
    8.6682    7.7258   -1.3393 C   0  0  0  0  0  0  0  0  0  0  0  0
    7.4949    6.6473   -1.8498 S   0  0  0  0  0  0  0  0  0  0  0  0
    9.6476   10.9209    0.3274 C   0  0  0  0  0  0  0  0  0  0  0  0
   10.9293   11.3085    0.7085 C   0  0  0  0  0  0  0  0  0  0  0  0
   12.0220   10.1031    0.2565 S   0  0  0  0  0  0  0  0  0  0  0  0
   -3.7740    2.2805    3.0838 H   0  0  0  0  0  0  0  0  0  0  0  0
   -3.5869    0.9074    5.2852 H   0  0  0  0  0  0  0  0  0  0  0  0
   -3.8039   -3.0869    6.4905 H   0  0  0  0  0  0  0  0  0  0  0  0
   -2.2131   -3.0177    8.3744 H   0  0  0  0  0  0  0  0  0  0  0  0
   -0.2405   -0.9677    8.3714 H   0  0  0  0  0  0  0  0  0  0  0  0
    0.6933   -0.6243    9.8581 H   0  0  0  0  0  0  0  0  0  0  0  0
    0.5541    1.4099    8.5012 H   0  0  0  0  0  0  0  0  0  0  0  0
   -0.3958    1.6477   10.0228 H   0  0  0  0  0  0  0  0  0  0  0  0
   -1.2389    1.3273    8.4507 H   0  0  0  0  0  0  0  0  0  0  0  0
   -5.2811    0.8093    7.5802 H   0  0  0  0  0  0  0  0  0  0  0  0
   -9.5200    0.3228    3.1525 H   0  0  0  0  0  0  0  0  0  0  0  0
  -11.0659    0.3342    1.2306 H   0  0  0  0  0  0  0  0  0  0  0  0
  -11.3417   -3.3825   -0.5254 H   0  0  0  0  0  0  0  0  0  0  0  0
  -12.6007   -2.8869   -1.7117 H   0  0  0  0  0  0  0  0  0  0  0  0
  -12.4433   -1.9952    1.2389 H   0  0  0  0  0  0  0  0  0  0  0  0
  -13.6451   -1.3848    0.0250 H   0  0  0  0  0  0  0  0  0  0  0  0
  -13.6307   -3.1295    0.4994 H   0  0  0  0  0  0  0  0  0  0  0  0
   -7.0680   -2.6145    1.1688 H   0  0  0  0  0  0  0  0  0  0  0  0
   -9.1581   -3.2755    3.7962 H   0  0  0  0  0  0  0  0  0  0  0  0
   -9.8521   -8.2236    4.9535 H   0  0  0  0  0  0  0  0  0  0  0  0
   -9.2503   -7.1135    2.4272 H   0  0  0  0  0  0  0  0  0  0  0  0
   -7.9993   -9.4469    0.1566 H   0  0  0  0  0  0  0  0  0  0  0  0
  -10.2122  -10.2086   -0.6248 H   0  0  0  0  0  0  0  0  0  0  0  0
  -11.7113   -7.9613   -3.6292 H   0  0  0  0  0  0  0  0  0  0  0  0
  -13.3099   -8.7619   -3.7873 H   0  0  0  0  0  0  0  0  0  0  0  0
  -10.6306  -10.1921   -3.2660 H   0  0  0  0  0  0  0  0  0  0  0  0
  -12.2554  -10.9929   -3.3276 H   0  0  0  0  0  0  0  0  0  0  0  0
  -11.5826  -10.1898   -4.7943 H   0  0  0  0  0  0  0  0  0  0  0  0
   -9.1307   -5.3608   -0.6275 H   0  0  0  0  0  0  0  0  0  0  0  0
   -4.8527   -3.3070    2.9012 H   0  0  0  0  0  0  0  0  0  0  0  0
   -3.0102   -2.2440    4.1458 H   0  0  0  0  0  0  0  0  0  0  0  0
    1.3773   -2.2522    3.3591 H   0  0  0  0  0  0  0  0  0  0  0  0
   -0.2046   -2.2708    2.5199 H   0  0  0  0  0  0  0  0  0  0  0  0
   -1.0169   -0.3947    3.9279 H   0  0  0  0  0  0  0  0  0  0  0  0
    0.5514   -0.3799    4.8392 H   0  0  0  0  0  0  0  0  0  0  0  0
    0.5099    0.0530    3.0865 H   0  0  0  0  0  0  0  0  0  0  0  0
   -2.3589   -6.7390    2.1371 H   0  0  0  0  0  0  0  0  0  0  0  0
   -2.9131   -5.2734   -0.2368 H   0  0  0  0  0  0  0  0  0  0  0  0
   -4.0753   -3.4282   -2.6590 H   0  0  0  0  0  0  0  0  0  0  0  0
   -2.6610   -1.9523   -1.1463 H   0  0  0  0  0  0  0  0  0  0  0  0
   -4.0181   -0.0665   -0.3246 H   0  0  0  0  0  0  0  0  0  0  0  0
   -6.4651    1.1859   -3.1677 H   0  0  0  0  0  0  0  0  0  0  0  0
   -7.2616    2.5889   -2.3798 H   0  0  0  0  0  0  0  0  0  0  0  0
   -6.5679   -0.0634   -0.9624 H   0  0  0  0  0  0  0  0  0  0  0  0
   -8.1924    0.4396   -1.5612 H   0  0  0  0  0  0  0  0  0  0  0  0
   -7.4031    1.3650   -0.2236 H   0  0  0  0  0  0  0  0  0  0  0  0
   -2.4793   -0.1253   -5.0460 H   0  0  0  0  0  0  0  0  0  0  0  0
    1.3327   -4.5799   -6.8200 H   0  0  0  0  0  0  0  0  0  0  0  0
    2.8096   -6.3464   -7.6758 H   0  0  0  0  0  0  0  0  0  0  0  0
    1.3455   -9.2606   -7.4386 H   0  0  0  0  0  0  0  0  0  0  0  0
    2.3694  -10.7240   -7.5906 H   0  0  0  0  0  0  0  0  0  0  0  0
    2.7490   -8.1631   -9.2721 H   0  0  0  0  0  0  0  0  0  0  0  0
    1.8501   -9.6308   -9.8122 H   0  0  0  0  0  0  0  0  0  0  0  0
    3.6247   -9.7335   -9.4695 H   0  0  0  0  0  0  0  0  0  0  0  0
    0.7558   -6.8228   -3.1840 H   0  0  0  0  0  0  0  0  0  0  0  0
    2.6950   -3.4180   -4.6303 H   0  0  0  0  0  0  0  0  0  0  0  0
    4.4496   -0.6468   -5.5520 H   0  0  0  0  0  0  0  0  0  0  0  0
    6.9536    2.7864   -6.4107 H   0  0  0  0  0  0  0  0  0  0  0  0
    7.6648    2.2031   -8.6869 H   0  0  0  0  0  0  0  0  0  0  0  0
   10.1568   -0.4473   -8.5637 H   0  0  0  0  0  0  0  0  0  0  0  0
   10.5283    0.1087  -10.2266 H   0  0  0  0  0  0  0  0  0  0  0  0
    9.6930   -2.7647   -9.4382 H   0  0  0  0  0  0  0  0  0  0  0  0
   10.1356   -2.2076  -11.1021 H   0  0  0  0  0  0  0  0  0  0  0  0
   11.3757   -2.2112   -9.7905 H   0  0  0  0  0  0  0  0  0  0  0  0
    6.9483   -1.3964   -5.3526 H   0  0  0  0  0  0  0  0  0  0  0  0
    6.8603    1.5856    0.7016 H   0  0  0  0  0  0  0  0  0  0  0  0
    6.0595    2.3183    2.9106 H   0  0  0  0  0  0  0  0  0  0  0  0
    2.6244    1.0183    3.6868 H   0  0  0  0  0  0  0  0  0  0  0  0
    2.2670    1.7984    5.2633 H   0  0  0  0  0  0  0  0  0  0  0  0
    4.9592    0.6340    4.3311 H   0  0  0  0  0  0  0  0  0  0  0  0
    3.9307    0.1005    5.7121 H   0  0  0  0  0  0  0  0  0  0  0  0
    4.7851    1.6887    5.7947 H   0  0  0  0  0  0  0  0  0  0  0  0
    2.9729    2.4183   -0.9653 H   0  0  0  0  0  0  0  0  0  0  0  0
    6.8726    3.8709   -0.6916 H   0  0  0  0  0  0  0  0  0  0  0  0
   10.7315    5.1634   -2.0498 H   0  0  0  0  0  0  0  0  0  0  0  0
   12.9516    7.9542   -2.9380 H   0  0  0  0  0  0  0  0  0  0  0  0
   15.2560    7.0658   -2.8493 H   0  0  0  0  0  0  0  0  0  0  0  0
   16.5568    7.2621    1.0377 H   0  0  0  0  0  0  0  0  0  0  0  0
   18.2526    6.7927    0.6880 H   0  0  0  0  0  0  0  0  0  0  0  0
   17.8644    9.1291    0.0073 H   0  0  0  0  0  0  0  0  0  0  0  0
   16.5096    8.6359   -1.0657 H   0  0  0  0  0  0  0  0  0  0  0  0
   18.2024    8.1106   -1.4426 H   0  0  0  0  0  0  0  0  0  0  0  0
   12.1637    6.2867    0.9604 H   0  0  0  0  0  0  0  0  0  0  0  0
    6.7575    8.4934    1.2558 H   0  0  0  0  0  0  0  0  0  0  0  0
    4.4392    9.3120    1.4975 H   0  0  0  0  0  0  0  0  0  0  0  0
    2.5162    9.4834   -2.0499 H   0  0  0  0  0  0  0  0  0  0  0  0
    2.3973    8.6242   -0.4621 H   0  0  0  0  0  0  0  0  0  0  0  0
    0.1870    8.7113   -1.5645 H   0  0  0  0  0  0  0  0  0  0  0  0
    0.1665    9.7000   -0.0562 H   0  0  0  0  0  0  0  0  0  0  0  0
    0.2791   10.5119   -1.6734 H   0  0  0  0  0  0  0  0  0  0  0  0
    7.1578   10.6998   -2.4261 H   0  0  0  0  0  0  0  0  0  0  0  0
    8.7647   11.5187    0.5224 H   0  0  0  0  0  0  0  0  0  0  0  0
   11.1743   12.2223    1.2255 H   0  0  0  0  0  0  0  0  0  0  0  0
  1  2  2  0
  2  3  1  0
  3  4  2  0
  4  5  1  0
  5  6  2  0
  6  7  1  0
  7  8  2  0
  8  9  1  0
  9 10  1  0
 10 11  1  0
  8 12  1  0
 12 13  1  0
 12 14  2  0
  4 15  1  0
 15 16  2  0
 16 17  1  0
 17 18  1  0
 18 19  2  0
 19 20  1  0
 20 21  2  0
 21 22  1  0
 22 23  1  0
 23 24  1  0
 21 25  1  0
 25 26  2  0
 25 27  1  0
 17 28  2  0
 28 29  1  0
 16 30  1  0
 30 31  2  0
 31 32  1  0
 31 33  1  0
 33 34  2  0
 34 35  1  0
 35 36  2  0
 35 37  1  0
 37 38  1  0
 37 39  1  0
 37 40  1  0
 34 41  1  0
 41 42  1  0
 42 43  2  0
 43 44  1  0
 44 45  2  0
 45 46  1  0
 46 47  2  0
 47 48  1  0
 48 49  2  0
 49 50  1  0
 50 51  2  0
 51 52  1  0
 52 53  1  0
 53 54  1  0
 51 55  1  0
 55 56  1  0
 55 57  2  0
 47 58  1  0
 58 59  2  0
 59 60  1  0
 60 61  1  0
 61 62  2  0
 62 63  1  0
 63 64  2  0
 64 65  1  0
 65 66  1  0
 66 67  1  0
 64 68  1  0
 68 69  2  0
 68 70  1  0
 60 71  2  0
 71 72  1  0
 59 73  1  0
 73 74  2  0
 74 75  1  0
 74 76  1  0
 76 77  2  0
 77 78  1  0
 78 79  2  0
 79 80  1  0
 80 81  2  0
 81 82  1  0
 82 83  2  0
 83 84  1  0
 84 85  1  0
 85 86  1  0
 83 87  1  0
 87 88  1  0
 87 89  2  0
 79 90  1  0
 90 91  2  0
 91 92  1  0
 92 93  1  0
 93 94  2  0
 94 95  1  0
 95 96  2  0
 96 97  1  0
 97 98  1  0
 98 99  1  0
 96100  1  0
100101  2  0
100102  1  0
 92103  2  0
103104  1  0
 91105  1  0
105106  2  0
106107  1  0
106108  1  0
108109  2  0
109110  1  0
110111  2  0
111112  1  0
112113  2  0
113114  1  0
114115  2  0
115116  1  0
116117  1  0
117118  1  0
115119  1  0
119120  1  0
119121  2  0
111122  1  0
122123  2  0
123124  1  0
124125  1  0
125126  2  0
126127  1  0
127128  2  0
128129  1  0
129130  1  0
130131  1  0
128132  1  0
132133  2  0
132134  1  0
124135  2  0
135136  1  0
123137  1  0
137138  2  0
138139  1  0
138140  1  0
140141  2  0
141142  1  0
142143  2  0
143144  1  0
144145  2  0
145146  1  0
146147  2  0
147148  1  0
148149  1  0
149150  1  0
147151  1  0
151152  1  0
151153  2  0
143154  1  0
154155  2  0
155156  1  0
156157  1  0
157158  2  0
158159  1  0
159160  2  0
160161  1  0
161162  1  0
162163  1  0
160164  1  0
164165  2  0
164166  1  0
156167  2  0
167168  1  0
155169  1  0
169170  2  0
170171  1  0
 29  1  1  0
 43 33  1  0
 72 44  1  0
104 76  1  0
136108  1  0
168140  1  0
 28  3  1  0
 71 46  1  0
103 78  1  0
135110  1  0
167142  1  0
 14  5  1  0
 32 15  1  0
 57 48  1  0
 75 58  1  0
 89 80  1  0
107 90  1  0
121112  1  0
139122  1  0
153144  1  0
171154  1  0
 26 18  1  0
 69 61  1  0
101 93  1  0
133125  1  0
165157  1  0
  1172  1  0
  2173  1  0
  6174  1  0
  7175  1  0
 10176  1  0
 10177  1  0
 11178  1  0
 11179  1  0
 11180  1  0
 14181  1  0
 19182  1  0
 20183  1  0
 23184  1  0
 23185  1  0
 24186  1  0
 24187  1  0
 24188  1  0
 26189  1  0
 30190  1  0
 42191  1  0
 45192  1  0
 49193  1  0
 50194  1  0
 53195  1  0
 53196  1  0
 54197  1  0
 54198  1  0
 54199  1  0
 57200  1  0
 62201  1  0
 63202  1  0
 66203  1  0
 66204  1  0
 67205  1  0
 67206  1  0
 67207  1  0
 69208  1  0
 73209  1  0
 77210  1  0
 81211  1  0
 82212  1  0
 85213  1  0
 85214  1  0
 86215  1  0
 86216  1  0
 86217  1  0
 89218  1  0
 94219  1  0
 95220  1  0
 98221  1  0
 98222  1  0
 99223  1  0
 99224  1  0
 99225  1  0
101226  1  0
105227  1  0
109228  1  0
113229  1  0
114230  1  0
117231  1  0
117232  1  0
118233  1  0
118234  1  0
118235  1  0
121236  1  0
126237  1  0
127238  1  0
130239  1  0
130240  1  0
131241  1  0
131242  1  0
131243  1  0
133244  1  0
137245  1  0
141246  1  0
145247  1  0
146248  1  0
149249  1  0
149250  1  0
150251  1  0
150252  1  0
150253  1  0
153254  1  0
158255  1  0
159256  1  0
162257  1  0
162258  1  0
163259  1  0
163260  1  0
163261  1  0
165262  1  0
169263  1  0
170264  1  0
M  END

