
     RDKit          3D

120131  0  0  0  0  0  0  0  0999 V2000
    2.9501   -0.7766   -1.0706 C   0  0  0  0  0  0  0  0  0  0  0  0
    1.9889   -2.1528   -0.9971 S   0  0  0  0  0  0  0  0  0  0  0  0
    3.0359   -3.2209   -1.7914 C   0  0  0  0  0  0  0  0  0  0  0  0
    4.1665   -2.4725   -2.1542 C   0  0  0  0  0  0  0  0  0  0  0  0
    4.1098   -1.1238   -1.7514 C   0  0  0  0  0  0  0  0  0  0  0  0
    5.1488   -0.2409   -2.0569 C   0  0  0  0  0  0  0  0  0  0  0  0
    6.2533   -0.6977   -2.7964 C   0  0  0  0  0  0  0  0  0  0  0  0
    7.2726    0.2158   -3.1020 O   0  0  0  0  0  0  0  0  0  0  0  0
    8.3898   -0.0746   -3.9378 C   0  0  0  0  0  0  0  0  0  0  0  0
    6.3033   -2.0488   -3.2127 C   0  0  0  0  0  0  0  0  0  0  0  0
    5.2679   -2.9347   -2.8915 C   0  0  0  0  0  0  0  0  0  0  0  0
    2.7857   -4.6456   -2.1429 C   0  0  0  0  0  0  0  0  0  0  0  0
    1.7055   -5.3792   -1.8334 C   0  0  0  0  0  0  0  0  0  0  0  0
    0.6101   -4.9727   -0.9403 C   0  0  0  0  0  0  0  0  0  0  0  0
    0.8246   -4.7634    0.7129 S   0  0  0  0  0  0  0  0  0  0  0  0
   -0.7919   -4.8240    1.1605 C   0  0  0  0  0  0  0  0  0  0  0  0
   -1.5452   -5.0718    0.0031 C   0  0  0  0  0  0  0  0  0  0  0  0
   -0.7668   -5.1124   -1.1834 C   0  0  0  0  0  0  0  0  0  0  0  0
   -1.3987   -5.2801   -2.4429 C   0  0  0  0  0  0  0  0  0  0  0  0
   -0.7168   -5.0225   -3.7347 C   0  0  0  0  0  0  0  0  0  0  0  0
   -1.1483   -5.5445   -4.7921 O   0  0  0  0  0  0  0  0  0  0  0  0
    0.2666   -4.0371   -3.8227 O   0  0  0  0  0  0  0  0  0  0  0  0
   -2.7815   -5.5423   -2.4644 C   0  0  0  0  0  0  0  0  0  0  0  0
   -3.5265   -5.5901   -1.2824 C   0  0  0  0  0  0  0  0  0  0  0  0
   -2.9221   -5.3530   -0.0418 C   0  0  0  0  0  0  0  0  0  0  0  0
   -3.6799   -5.4455    1.1237 O   0  0  0  0  0  0  0  0  0  0  0  0
   -1.2744   -4.4049    2.4921 C   0  0  0  0  0  0  0  0  0  0  0  0
   -2.4962   -3.2717    2.7403 S   0  0  0  0  0  0  0  0  0  0  0  0
   -2.2165   -2.9861    4.3758 C   0  0  0  0  0  0  0  0  0  0  0  0
   -1.1871   -3.8414    4.7709 C   0  0  0  0  0  0  0  0  0  0  0  0
   -0.6474   -4.6130    3.7226 C   0  0  0  0  0  0  0  0  0  0  0  0
    0.3935   -5.5136    3.9690 C   0  0  0  0  0  0  0  0  0  0  0  0
    0.9159   -5.6331    5.2740 C   0  0  0  0  0  0  0  0  0  0  0  0
    1.9656   -6.5115    5.5827 O   0  0  0  0  0  0  0  0  0  0  0  0
    2.5830   -7.3854    4.6414 C   0  0  0  0  0  0  0  0  0  0  0  0
    0.3723   -4.8553    6.3120 C   0  0  0  0  0  0  0  0  0  0  0  0
   -0.6819   -3.9643    6.0696 C   0  0  0  0  0  0  0  0  0  0  0  0
   -3.1002   -2.2332    5.2806 C   0  0  0  0  0  0  0  0  0  0  0  0
   -3.3543   -0.9146    5.2461 C   0  0  0  0  0  0  0  0  0  0  0  0
   -2.8011    0.0941    4.3041 C   0  0  0  0  0  0  0  0  0  0  0  0
   -2.5258   -0.1004    2.6552 S   0  0  0  0  0  0  0  0  0  0  0  0
   -2.1648    1.4932    2.2761 C   0  0  0  0  0  0  0  0  0  0  0  0
   -2.3113    2.2404    3.4489 C   0  0  0  0  0  0  0  0  0  0  0  0
   -2.6551    1.4604    4.5745 C   0  0  0  0  0  0  0  0  0  0  0  0
   -2.8561    2.0716    5.8200 C   0  0  0  0  0  0  0  0  0  0  0  0
   -2.7551    3.4655    5.9383 C   0  0  0  0  0  0  0  0  0  0  0  0
   -2.9715    4.0373    7.2007 O   0  0  0  0  0  0  0  0  0  0  0  0
   -2.9461    5.4358    7.4646 C   0  0  0  0  0  0  0  0  0  0  0  0
   -2.4543    4.2433    4.7980 C   0  0  0  0  0  0  0  0  0  0  0  0
   -2.2380    3.6361    3.5559 C   0  0  0  0  0  0  0  0  0  0  0  0
   -1.8838    1.9601    0.9050 C   0  0  0  0  0  0  0  0  0  0  0  0
   -0.9593    2.8885    0.6335 C   0  0  0  0  0  0  0  0  0  0  0  0
   -0.7293    3.4026   -0.7345 C   0  0  0  0  0  0  0  0  0  0  0  0
   -1.4852    2.8482   -2.1374 S   0  0  0  0  0  0  0  0  0  0  0  0
   -0.8317    3.9655   -3.2192 C   0  0  0  0  0  0  0  0  0  0  0  0
    0.0322    4.7843   -2.4830 C   0  0  0  0  0  0  0  0  0  0  0  0
    0.0943    4.4709   -1.1066 C   0  0  0  0  0  0  0  0  0  0  0  0
    0.9351    5.1982   -0.2520 C   0  0  0  0  0  0  0  0  0  0  0  0
    1.7213    6.2454   -0.7761 C   0  0  0  0  0  0  0  0  0  0  0  0
    2.6125    6.9834    0.0185 O   0  0  0  0  0  0  0  0  0  0  0  0
    2.9040    6.6899    1.3826 C   0  0  0  0  0  0  0  0  0  0  0  0
    1.6301    6.5678   -2.1401 C   0  0  0  0  0  0  0  0  0  0  0  0
    0.7915    5.8443   -2.9959 C   0  0  0  0  0  0  0  0  0  0  0  0
   -1.0292    4.0030   -4.6903 C   0  0  0  0  0  0  0  0  0  0  0  0
   -2.0311    3.4264   -5.3685 C   0  0  0  0  0  0  0  0  0  0  0  0
   -3.1888    2.7567   -4.7545 C   0  0  0  0  0  0  0  0  0  0  0  0
   -4.3266    3.5667   -3.8130 S   0  0  0  0  0  0  0  0  0  0  0  0
   -5.4346    2.3139   -3.6907 C   0  0  0  0  0  0  0  0  0  0  0  0
   -4.9467    1.2362   -4.4281 C   0  0  0  0  0  0  0  0  0  0  0  0
   -3.6805    1.4678   -5.0212 C   0  0  0  0  0  0  0  0  0  0  0  0
   -3.0692    0.4526   -5.8031 C   0  0  0  0  0  0  0  0  0  0  0  0
   -1.7002    0.5438   -6.3487 C   0  0  0  0  0  0  0  0  0  0  0  0
   -0.7498    0.9441   -5.6236 O   0  0  0  0  0  0  0  0  0  0  0  0
   -1.4307    0.0810   -7.6309 O   0  0  0  0  0  0  0  0  0  0  0  0
   -3.7820   -0.7386   -6.0280 C   0  0  0  0  0  0  0  0  0  0  0  0
   -5.0367   -0.9503   -5.4482 C   0  0  0  0  0  0  0  0  0  0  0  0
   -5.6234    0.0198   -4.6308 C   0  0  0  0  0  0  0  0  0  0  0  0
   -6.8661   -0.2546   -4.0576 O   0  0  0  0  0  0  0  0  0  0  0  0
    2.6973    0.2025   -0.6889 H   0  0  0  0  0  0  0  0  0  0  0  0
    5.0986    0.7976   -1.7448 H   0  0  0  0  0  0  0  0  0  0  0  0
    9.0312    0.8285   -4.0150 H   0  0  0  0  0  0  0  0  0  0  0  0
    8.0365   -0.3444   -4.9596 H   0  0  0  0  0  0  0  0  0  0  0  0
    8.9934   -0.9016   -3.5076 H   0  0  0  0  0  0  0  0  0  0  0  0
    7.1423   -2.4253   -3.7824 H   0  0  0  0  0  0  0  0  0  0  0  0
    5.3395   -3.9624   -3.2235 H   0  0  0  0  0  0  0  0  0  0  0  0
    3.5114   -5.1341   -2.7746 H   0  0  0  0  0  0  0  0  0  0  0  0
    1.6270   -6.3665   -2.2700 H   0  0  0  0  0  0  0  0  0  0  0  0
    0.7079   -3.8169   -4.7061 H   0  0  0  0  0  0  0  0  0  0  0  0
   -3.3021   -5.6761   -3.4054 H   0  0  0  0  0  0  0  0  0  0  0  0
   -4.5872   -5.8059   -1.3353 H   0  0  0  0  0  0  0  0  0  0  0  0
   -4.6739   -5.6450    1.0974 H   0  0  0  0  0  0  0  0  0  0  0  0
    0.7699   -6.1336    3.1706 H   0  0  0  0  0  0  0  0  0  0  0  0
    3.0277   -6.8016    3.8092 H   0  0  0  0  0  0  0  0  0  0  0  0
    1.8371   -8.1085    4.2459 H   0  0  0  0  0  0  0  0  0  0  0  0
    3.3917   -7.9506    5.1464 H   0  0  0  0  0  0  0  0  0  0  0  0
    0.7729   -4.9399    7.3158 H   0  0  0  0  0  0  0  0  0  0  0  0
   -1.0864   -3.3742    6.8848 H   0  0  0  0  0  0  0  0  0  0  0  0
   -3.5133   -2.7928    6.1125 H   0  0  0  0  0  0  0  0  0  0  0  0
   -3.9765   -0.5336    6.0474 H   0  0  0  0  0  0  0  0  0  0  0  0
   -3.0949    1.4844    6.6983 H   0  0  0  0  0  0  0  0  0  0  0  0
   -1.9506    5.8545    7.2182 H   0  0  0  0  0  0  0  0  0  0  0  0
   -3.1478    5.6062    8.5426 H   0  0  0  0  0  0  0  0  0  0  0  0
   -3.7340    5.9480    6.8707 H   0  0  0  0  0  0  0  0  0  0  0  0
   -2.3959    5.3201    4.8618 H   0  0  0  0  0  0  0  0  0  0  0  0
   -2.0499    4.2613    2.6965 H   0  0  0  0  0  0  0  0  0  0  0  0
   -2.4174    1.4772    0.0970 H   0  0  0  0  0  0  0  0  0  0  0  0
   -0.3723    3.2909    1.4442 H   0  0  0  0  0  0  0  0  0  0  0  0
    0.9885    4.9519    0.7982 H   0  0  0  0  0  0  0  0  0  0  0  0
    3.2912    5.6490    1.4741 H   0  0  0  0  0  0  0  0  0  0  0  0
    1.9902    6.8183    2.0037 H   0  0  0  0  0  0  0  0  0  0  0  0
    3.6827    7.3914    1.7439 H   0  0  0  0  0  0  0  0  0  0  0  0
    2.2244    7.3789   -2.5419 H   0  0  0  0  0  0  0  0  0  0  0  0
    0.7458    6.1189   -4.0411 H   0  0  0  0  0  0  0  0  0  0  0  0
   -0.2789    4.5082   -5.2837 H   0  0  0  0  0  0  0  0  0  0  0  0
   -2.0004    3.4622   -6.4529 H   0  0  0  0  0  0  0  0  0  0  0  0
   -6.3731    2.3720   -3.1577 H   0  0  0  0  0  0  0  0  0  0  0  0
   -0.4959    0.1305   -8.0193 H   0  0  0  0  0  0  0  0  0  0  0  0
   -3.3474   -1.5308   -6.6280 H   0  0  0  0  0  0  0  0  0  0  0  0
   -5.5529   -1.8843   -5.6256 H   0  0  0  0  0  0  0  0  0  0  0  0
   -7.3421    0.3834   -3.4329 H   0  0  0  0  0  0  0  0  0  0  0  0
  1  2  1  0
  2  3  1  0
  3  4  2  0
  4  5  1  0
  5  6  1  0
  6  7  2  0
  7  8  1  0
  8  9  1  0
  7 10  1  0
 10 11  2  0
  3 12  1  0
 12 13  2  3
 13 14  1  0
 14 15  1  0
 15 16  1  0
 16 17  2  0
 17 18  1  0
 18 19  1  0
 19 20  1  0
 20 21  2  0
 20 22  1  0
 19 23  2  0
 23 24  1  0
 24 25  2  0
 25 26  1  0
 16 27  1  0
 27 28  1  0
 28 29  1  0
 29 30  2  0
 30 31  1  0
 31 32  1  0
 32 33  2  0
 33 34  1  0
 34 35  1  0
 33 36  1  0
 36 37  2  0
 29 38  1  0
 38 39  2  3
 39 40  1  0
 40 41  1  0
 41 42  1  0
 42 43  2  0
 43 44  1  0
 44 45  1  0
 45 46  2  0
 46 47  1  0
 47 48  1  0
 46 49  1  0
 49 50  2  0
 42 51  1  0
 51 52  2  3
 52 53  1  0
 53 54  1  0
 54 55  1  0
 55 56  2  0
 56 57  1  0
 57 58  1  0
 58 59  2  0
 59 60  1  0
 60 61  1  0
 59 62  1  0
 62 63  2  0
 55 64  1  0
 64 65  2  3
 65 66  1  0
 66 67  1  0
 67 68  1  0
 68 69  2  0
 69 70  1  0
 70 71  1  0
 71 72  1  0
 72 73  2  0
 72 74  1  0
 71 75  2  0
 75 76  1  0
 76 77  2  0
 77 78  1  0
  5  1  2  0
 18 14  2  0
 31 27  2  0
 44 40  2  0
 57 53  2  0
 70 66  2  0
 11  4  1  0
 25 17  1  0
 37 30  1  0
 50 43  1  0
 63 56  1  0
 77 69  1  0
  1 79  1  0
  6 80  1  0
  9 81  1  0
  9 82  1  0
  9 83  1  0
 10 84  1  0
 11 85  1  0
 12 86  1  0
 13 87  1  0
 22 88  1  0
 23 89  1  0
 24 90  1  0
 26 91  1  0
 32 92  1  0
 35 93  1  0
 35 94  1  0
 35 95  1  0
 36 96  1  0
 37 97  1  0
 38 98  1  0
 39 99  1  0
 45100  1  0
 48101  1  0
 48102  1  0
 48103  1  0
 49104  1  0
 50105  1  0
 51106  1  0
 52107  1  0
 58108  1  0
 61109  1  0
 61110  1  0
 61111  1  0
 62112  1  0
 63113  1  0
 64114  1  0
 65115  1  0
 68116  1  0
 74117  1  0
 75118  1  0
 76119  1  0
 78120  1  0
M  END

