
     RDKit          3D

206227  0  0  0  0  0  0  0  0999 V2000
   -4.6249   -2.7467   10.8170 C   0  0  0  0  0  0  0  0  0  0  0  0
   -3.6546   -2.1212   10.0389 C   0  0  0  0  0  0  0  0  0  0  0  0
   -3.7306   -2.4607    8.6776 C   0  0  0  0  0  0  0  0  0  0  0  0
   -2.8853   -1.9922    7.6523 C   0  0  0  0  0  0  0  0  0  0  0  0
   -1.7539   -1.0818    7.9142 C   0  0  0  0  0  0  0  0  0  0  0  0
   -1.5914    0.4544    7.2485 S   0  0  0  0  0  0  0  0  0  0  0  0
   -0.0915    0.7940    7.9241 C   0  0  0  0  0  0  0  0  0  0  0  0
    0.6323    2.0967    7.7636 C   0  0  0  0  0  0  0  0  0  0  0  0
    0.2594    3.0572    8.8859 C   0  0  0  0  0  0  0  0  0  0  0  0
    0.3033   -0.2970    8.6984 C   0  0  0  0  0  0  0  0  0  0  0  0
    1.8180   -0.3557    9.5907 Cl  0  0  0  0  0  0  0  0  0  0  0  0
   -0.6230   -1.3542    8.6831 C   0  0  0  0  0  0  0  0  0  0  0  0
   -0.3508   -2.8854    9.5034 Cl  0  0  0  0  0  0  0  0  0  0  0  0
   -3.1870   -2.4112    6.3438 C   0  0  0  0  0  0  0  0  0  0  0  0
   -4.2525   -3.2694    6.0522 C   0  0  0  0  0  0  0  0  0  0  0  0
   -5.0638   -3.7845    7.0859 C   0  0  0  0  0  0  0  0  0  0  0  0
   -6.1338   -4.7675    6.8244 C   0  0  0  0  0  0  0  0  0  0  0  0
   -7.7585   -4.5632    7.2159 S   0  0  0  0  0  0  0  0  0  0  0  0
   -8.2680   -6.0777    6.6853 C   0  0  0  0  0  0  0  0  0  0  0  0
   -9.6836   -6.5717    6.7336 C   0  0  0  0  0  0  0  0  0  0  0  0
  -10.3474   -6.4566    5.3657 C   0  0  0  0  0  0  0  0  0  0  0  0
   -7.1663   -6.7643    6.1772 C   0  0  0  0  0  0  0  0  0  0  0  0
   -5.9701   -6.0364    6.2661 C   0  0  0  0  0  0  0  0  0  0  0  0
   -4.4130   -6.6963    5.7823 Cl  0  0  0  0  0  0  0  0  0  0  0  0
   -7.2582   -8.3903    5.5172 Cl  0  0  0  0  0  0  0  0  0  0  0  0
   -4.7835   -3.3365    8.3895 C   0  0  0  0  0  0  0  0  0  0  0  0
   -5.5807   -3.7129    9.8199 S   0  0  0  0  0  0  0  0  0  0  0  0
   -4.3962   -3.5217    4.6765 C   0  0  0  0  0  0  0  0  0  0  0  0
   -3.4116   -2.9025    3.9091 C   0  0  0  0  0  0  0  0  0  0  0  0
   -2.3826   -2.0241    4.9198 S   0  0  0  0  0  0  0  0  0  0  0  0
   -3.2850   -2.9717    2.4476 C   0  0  0  0  0  0  0  0  0  0  0  0
   -2.1541   -2.6077    1.7254 C   0  0  0  0  0  0  0  0  0  0  0  0
   -2.3233   -2.7300    0.3383 C   0  0  0  0  0  0  0  0  0  0  0  0
   -1.3607   -2.4337   -0.6499 C   0  0  0  0  0  0  0  0  0  0  0  0
   -0.0099   -1.9772   -0.2943 C   0  0  0  0  0  0  0  0  0  0  0  0
    0.3116   -0.5885    0.5959 S   0  0  0  0  0  0  0  0  0  0  0  0
    1.9251   -0.9388    0.9159 C   0  0  0  0  0  0  0  0  0  0  0  0
    2.7764   -0.1740    1.8837 C   0  0  0  0  0  0  0  0  0  0  0  0
    2.5432   -0.6605    3.3090 C   0  0  0  0  0  0  0  0  0  0  0  0
    2.2309   -2.1706    0.3380 C   0  0  0  0  0  0  0  0  0  0  0  0
    3.7872   -2.9617    0.5268 Cl  0  0  0  0  0  0  0  0  0  0  0  0
    1.1479   -2.7506   -0.3429 C   0  0  0  0  0  0  0  0  0  0  0  0
    1.2079   -4.3519   -1.0628 Cl  0  0  0  0  0  0  0  0  0  0  0  0
   -1.7490   -2.6231   -1.9876 C   0  0  0  0  0  0  0  0  0  0  0  0
   -3.0196   -3.0944   -2.3423 C   0  0  0  0  0  0  0  0  0  0  0  0
   -3.9720   -3.4044   -1.3510 C   0  0  0  0  0  0  0  0  0  0  0  0
   -5.2864   -3.9679   -1.6829 C   0  0  0  0  0  0  0  0  0  0  0  0
   -6.5188   -3.1342   -2.4619 S   0  0  0  0  0  0  0  0  0  0  0  0
   -7.6130   -4.4139   -2.4716 C   0  0  0  0  0  0  0  0  0  0  0  0
   -9.0135   -4.3360   -3.0063 C   0  0  0  0  0  0  0  0  0  0  0  0
  -10.0194   -4.1482   -1.8745 C   0  0  0  0  0  0  0  0  0  0  0  0
   -7.0185   -5.5169   -1.8582 C   0  0  0  0  0  0  0  0  0  0  0  0
   -5.7106   -5.2651   -1.4191 C   0  0  0  0  0  0  0  0  0  0  0  0
   -4.6938   -6.4738   -0.6457 Cl  0  0  0  0  0  0  0  0  0  0  0  0
   -7.8187   -7.0673   -1.6507 Cl  0  0  0  0  0  0  0  0  0  0  0  0
   -3.5887   -3.2064   -0.0162 C   0  0  0  0  0  0  0  0  0  0  0  0
   -4.4949   -3.4632    1.3775 S   0  0  0  0  0  0  0  0  0  0  0  0
   -3.1677   -3.3024   -3.7232 C   0  0  0  0  0  0  0  0  0  0  0  0
   -2.0226   -2.9844   -4.4477 C   0  0  0  0  0  0  0  0  0  0  0  0
   -0.8236   -2.4551   -3.3820 S   0  0  0  0  0  0  0  0  0  0  0  0
   -1.7689   -3.4861   -5.8065 C   0  0  0  0  0  0  0  0  0  0  0  0
   -1.3916   -4.8167   -6.0391 C   0  0  0  0  0  0  0  0  0  0  0  0
   -1.1634   -5.8865   -5.0085 C   0  0  0  0  0  0  0  0  0  0  0  0
   -2.3662   -6.2238   -4.4142 F   0  0  0  0  0  0  0  0  0  0  0  0
   -0.6268   -7.0135   -5.6059 F   0  0  0  0  0  0  0  0  0  0  0  0
   -0.2825   -5.4414   -4.0405 F   0  0  0  0  0  0  0  0  0  0  0  0
   -1.3811   -5.0898   -7.6935 S   0  0  0  0  0  0  0  0  0  0  0  0
   -1.8240   -3.5304   -8.1387 C   0  0  0  0  0  0  0  0  0  0  0  0
   -2.0449   -3.1127   -9.4554 O   0  0  0  0  0  0  0  0  0  0  0  0
   -1.8640   -3.9677  -10.5779 C   0  0  0  0  0  0  0  0  0  0  0  0
   -1.9735   -2.7370   -6.9923 C   0  0  0  0  0  0  0  0  0  0  0  0
   -2.3244   -1.2887   -7.0003 C   0  0  0  0  0  0  0  0  0  0  0  0
   -2.0523   -0.4965   -8.0503 C   0  0  0  0  0  0  0  0  0  0  0  0
   -2.2950    0.9670   -8.1329 C   0  0  0  0  0  0  0  0  0  0  0  0
   -1.5054    1.7797   -8.9663 C   0  0  0  0  0  0  0  0  0  0  0  0
   -0.3310    1.3461   -9.8002 C   0  0  0  0  0  0  0  0  0  0  0  0
    0.5439    0.5999   -9.0329 F   0  0  0  0  0  0  0  0  0  0  0  0
   -0.7747    0.5871  -10.8672 F   0  0  0  0  0  0  0  0  0  0  0  0
    0.3465    2.4501  -10.2877 F   0  0  0  0  0  0  0  0  0  0  0  0
   -2.0554    3.3685   -8.8806 S   0  0  0  0  0  0  0  0  0  0  0  0
   -3.2847    3.0632   -7.7838 C   0  0  0  0  0  0  0  0  0  0  0  0
   -4.1680    4.0146   -7.2619 O   0  0  0  0  0  0  0  0  0  0  0  0
   -4.1242    5.3876   -7.6312 C   0  0  0  0  0  0  0  0  0  0  0  0
   -3.2940    1.7122   -7.4536 C   0  0  0  0  0  0  0  0  0  0  0  0
   -4.2277    1.1954   -6.4376 C   0  0  0  0  0  0  0  0  0  0  0  0
   -4.0587    1.3846   -5.1167 C   0  0  0  0  0  0  0  0  0  0  0  0
   -2.8097    1.8691   -4.4832 C   0  0  0  0  0  0  0  0  0  0  0  0
   -2.6708    2.2176   -3.1363 C   0  0  0  0  0  0  0  0  0  0  0  0
   -1.3283    2.3927   -2.7386 C   0  0  0  0  0  0  0  0  0  0  0  0
   -0.8350    2.6560   -1.4330 C   0  0  0  0  0  0  0  0  0  0  0  0
   -1.7072    2.7048   -0.2308 C   0  0  0  0  0  0  0  0  0  0  0  0
   -1.5731    3.8518    0.9980 S   0  0  0  0  0  0  0  0  0  0  0  0
   -2.6762    3.1508    2.0535 C   0  0  0  0  0  0  0  0  0  0  0  0
   -2.9380    3.6207    3.4529 C   0  0  0  0  0  0  0  0  0  0  0  0
   -1.9676    2.9680    4.4326 C   0  0  0  0  0  0  0  0  0  0  0  0
   -3.1534    1.9800    1.4719 C   0  0  0  0  0  0  0  0  0  0  0  0
   -4.2588    0.8775    2.2835 Cl  0  0  0  0  0  0  0  0  0  0  0  0
   -2.6264    1.7356    0.1943 C   0  0  0  0  0  0  0  0  0  0  0  0
   -3.0439    0.2922   -0.7103 Cl  0  0  0  0  0  0  0  0  0  0  0  0
    0.5705    2.8001   -1.3148 C   0  0  0  0  0  0  0  0  0  0  0  0
    1.4373    2.6764   -2.4073 C   0  0  0  0  0  0  0  0  0  0  0  0
    0.9424    2.4000   -3.6868 C   0  0  0  0  0  0  0  0  0  0  0  0
    1.8350    2.2676   -4.8505 C   0  0  0  0  0  0  0  0  0  0  0  0
    2.6442    3.5491   -5.5794 S   0  0  0  0  0  0  0  0  0  0  0  0
    3.3964    2.6247   -6.7693 C   0  0  0  0  0  0  0  0  0  0  0  0
    4.3662    3.1644   -7.7778 C   0  0  0  0  0  0  0  0  0  0  0  0
    5.7842    3.1554   -7.2177 C   0  0  0  0  0  0  0  0  0  0  0  0
    3.0441    1.2883   -6.5857 C   0  0  0  0  0  0  0  0  0  0  0  0
    2.1561    1.0913   -5.5178 C   0  0  0  0  0  0  0  0  0  0  0  0
    1.5406   -0.4861   -5.0530 Cl  0  0  0  0  0  0  0  0  0  0  0  0
    3.6678   -0.0252   -7.5756 Cl  0  0  0  0  0  0  0  0  0  0  0  0
   -0.4381    2.2499   -3.8091 C   0  0  0  0  0  0  0  0  0  0  0  0
   -1.2778    1.8404   -5.1852 S   0  0  0  0  0  0  0  0  0  0  0  0
    2.7941    2.7314   -2.0676 C   0  0  0  0  0  0  0  0  0  0  0  0
    3.0125    2.8902   -0.7032 C   0  0  0  0  0  0  0  0  0  0  0  0
    1.5144    2.9720    0.0775 S   0  0  0  0  0  0  0  0  0  0  0  0
    4.3216    2.7536   -0.0444 C   0  0  0  0  0  0  0  0  0  0  0  0
    5.4903    2.3366   -0.6839 C   0  0  0  0  0  0  0  0  0  0  0  0
    6.5366    2.0605    0.2052 C   0  0  0  0  0  0  0  0  0  0  0  0
    7.7917    1.5170   -0.1387 C   0  0  0  0  0  0  0  0  0  0  0  0
    8.1822    1.2926   -1.5442 C   0  0  0  0  0  0  0  0  0  0  0  0
    8.5000   -0.2109   -2.2294 S   0  0  0  0  0  0  0  0  0  0  0  0
    8.7886    0.3557   -3.7901 C   0  0  0  0  0  0  0  0  0  0  0  0
    9.0768   -0.5176   -4.9749 C   0  0  0  0  0  0  0  0  0  0  0  0
    7.7846   -1.0981   -5.5358 C   0  0  0  0  0  0  0  0  0  0  0  0
    8.6177    1.7403   -3.7959 C   0  0  0  0  0  0  0  0  0  0  0  0
    8.8019    2.7343   -5.2337 Cl  0  0  0  0  0  0  0  0  0  0  0  0
    8.2879    2.2649   -2.5377 C   0  0  0  0  0  0  0  0  0  0  0  0
    8.0631    3.9845   -2.2413 Cl  0  0  0  0  0  0  0  0  0  0  0  0
    8.6403    1.1670    0.9235 C   0  0  0  0  0  0  0  0  0  0  0  0
    8.2847    1.3523    2.2654 C   0  0  0  0  0  0  0  0  0  0  0  0
    7.0391    1.9185    2.6033 C   0  0  0  0  0  0  0  0  0  0  0  0
    6.6011    2.0737    3.9975 C   0  0  0  0  0  0  0  0  0  0  0  0
    6.3904    3.5522    4.7726 S   0  0  0  0  0  0  0  0  0  0  0  0
    5.7687    2.9149    6.1984 C   0  0  0  0  0  0  0  0  0  0  0  0
    5.4005    3.7290    7.4016 C   0  0  0  0  0  0  0  0  0  0  0  0
    6.5879    3.8509    8.3500 C   0  0  0  0  0  0  0  0  0  0  0  0
    5.7243    1.5251    6.0887 C   0  0  0  0  0  0  0  0  0  0  0  0
    6.1805    1.0546    4.8475 C   0  0  0  0  0  0  0  0  0  0  0  0
    6.1699   -0.6408    4.3881 Cl  0  0  0  0  0  0  0  0  0  0  0  0
    5.1300    0.4691    7.3635 Cl  0  0  0  0  0  0  0  0  0  0  0  0
    6.1898    2.2680    1.5422 C   0  0  0  0  0  0  0  0  0  0  0  0
    4.5970    2.8068    1.6203 S   0  0  0  0  0  0  0  0  0  0  0  0
    9.2758    0.9238    3.1616 C   0  0  0  0  0  0  0  0  0  0  0  0
   10.4022    0.4117    2.5276 C   0  0  0  0  0  0  0  0  0  0  0  0
   10.1759    0.4894    0.8572 S   0  0  0  0  0  0  0  0  0  0  0  0
   -4.7484   -2.6260   11.8840 H   0  0  0  0  0  0  0  0  0  0  0  0
   -2.9249   -1.4443   10.4571 H   0  0  0  0  0  0  0  0  0  0  0  0
    0.3602    2.5483    6.7857 H   0  0  0  0  0  0  0  0  0  0  0  0
    1.7320    1.9259    7.7628 H   0  0  0  0  0  0  0  0  0  0  0  0
   -0.8407    3.2103    8.9084 H   0  0  0  0  0  0  0  0  0  0  0  0
    0.5897    2.6522    9.8655 H   0  0  0  0  0  0  0  0  0  0  0  0
    0.7541    4.0378    8.7167 H   0  0  0  0  0  0  0  0  0  0  0  0
   -9.6970   -7.6329    7.0644 H   0  0  0  0  0  0  0  0  0  0  0  0
  -10.2606   -5.9725    7.4724 H   0  0  0  0  0  0  0  0  0  0  0  0
  -11.3781   -6.8634    5.4172 H   0  0  0  0  0  0  0  0  0  0  0  0
   -9.7819   -7.0371    4.6056 H   0  0  0  0  0  0  0  0  0  0  0  0
  -10.3978   -5.3913    5.0465 H   0  0  0  0  0  0  0  0  0  0  0  0
   -5.1816   -4.1323    4.2534 H   0  0  0  0  0  0  0  0  0  0  0  0
   -1.2429   -2.2702    2.1979 H   0  0  0  0  0  0  0  0  0  0  0  0
    2.5061    0.8980    1.8261 H   0  0  0  0  0  0  0  0  0  0  0  0
    3.8517   -0.2765    1.6227 H   0  0  0  0  0  0  0  0  0  0  0  0
    1.4660   -0.5766    3.5738 H   0  0  0  0  0  0  0  0  0  0  0  0
    2.8705   -1.7187    3.4129 H   0  0  0  0  0  0  0  0  0  0  0  0
    3.1312   -0.0373    4.0130 H   0  0  0  0  0  0  0  0  0  0  0  0
   -9.0917   -3.4757   -3.7035 H   0  0  0  0  0  0  0  0  0  0  0  0
   -9.2555   -5.2594   -3.5722 H   0  0  0  0  0  0  0  0  0  0  0  0
  -10.0101   -5.0295   -1.1992 H   0  0  0  0  0  0  0  0  0  0  0  0
  -11.0407   -4.0412   -2.2948 H   0  0  0  0  0  0  0  0  0  0  0  0
   -9.7757   -3.2348   -1.2917 H   0  0  0  0  0  0  0  0  0  0  0  0
   -4.0447   -3.7487   -4.1725 H   0  0  0  0  0  0  0  0  0  0  0  0
   -2.5748   -4.8194  -10.5225 H   0  0  0  0  0  0  0  0  0  0  0  0
   -2.0596   -3.3961  -11.5071 H   0  0  0  0  0  0  0  0  0  0  0  0
   -0.8198   -4.3468  -10.6038 H   0  0  0  0  0  0  0  0  0  0  0  0
   -2.7175   -0.8632   -6.0921 H   0  0  0  0  0  0  0  0  0  0  0  0
   -1.5209   -0.9178   -8.8850 H   0  0  0  0  0  0  0  0  0  0  0  0
   -4.9280    5.9370   -7.0935 H   0  0  0  0  0  0  0  0  0  0  0  0
   -4.2913    5.4892   -8.7255 H   0  0  0  0  0  0  0  0  0  0  0  0
   -3.1389    5.8253   -7.3548 H   0  0  0  0  0  0  0  0  0  0  0  0
   -5.1523    0.7515   -6.7845 H   0  0  0  0  0  0  0  0  0  0  0  0
   -4.8685    1.0974   -4.4583 H   0  0  0  0  0  0  0  0  0  0  0  0
   -3.5166    2.3134   -2.4709 H   0  0  0  0  0  0  0  0  0  0  0  0
   -2.8181    4.7246    3.4967 H   0  0  0  0  0  0  0  0  0  0  0  0
   -3.9798    3.3773    3.7464 H   0  0  0  0  0  0  0  0  0  0  0  0
   -2.2099    3.2902    5.4681 H   0  0  0  0  0  0  0  0  0  0  0  0
   -0.9254    3.2716    4.1977 H   0  0  0  0  0  0  0  0  0  0  0  0
   -2.0471    1.8620    4.3790 H   0  0  0  0  0  0  0  0  0  0  0  0
    4.3274    2.5521   -8.7043 H   0  0  0  0  0  0  0  0  0  0  0  0
    4.0775    4.2029   -8.0430 H   0  0  0  0  0  0  0  0  0  0  0  0
    6.4861    3.5286   -7.9934 H   0  0  0  0  0  0  0  0  0  0  0  0
    6.0827    2.1231   -6.9359 H   0  0  0  0  0  0  0  0  0  0  0  0
    5.8507    3.8178   -6.3292 H   0  0  0  0  0  0  0  0  0  0  0  0
    3.5892    2.6027   -2.7908 H   0  0  0  0  0  0  0  0  0  0  0  0
    5.5617    2.1640   -1.7492 H   0  0  0  0  0  0  0  0  0  0  0  0
    9.5939    0.0626   -5.7686 H   0  0  0  0  0  0  0  0  0  0  0  0
    9.7478   -1.3444   -4.6676 H   0  0  0  0  0  0  0  0  0  0  0  0
    8.0139   -1.7443   -6.4112 H   0  0  0  0  0  0  0  0  0  0  0  0
    7.2635   -1.7110   -4.7638 H   0  0  0  0  0  0  0  0  0  0  0  0
    7.1105   -0.2797   -5.8684 H   0  0  0  0  0  0  0  0  0  0  0  0
    4.5416    3.2612    7.9297 H   0  0  0  0  0  0  0  0  0  0  0  0
    5.0881    4.7430    7.0724 H   0  0  0  0  0  0  0  0  0  0  0  0
    7.4622    4.2808    7.8198 H   0  0  0  0  0  0  0  0  0  0  0  0
    6.8593    2.8524    8.7507 H   0  0  0  0  0  0  0  0  0  0  0  0
    6.3192    4.5153    9.1961 H   0  0  0  0  0  0  0  0  0  0  0  0
    9.1843    0.9770    4.2381 H   0  0  0  0  0  0  0  0  0  0  0  0
   11.2843    0.0233    3.0233 H   0  0  0  0  0  0  0  0  0  0  0  0
  1  2  2  0
  2  3  1  0
  3  4  2  0
  4  5  1  0
  5  6  1  0
  6  7  1  0
  7  8  1  0
  8  9  1  0
  7 10  2  0
 10 11  1  0
 10 12  1  0
 12 13  1  0
  4 14  1  0
 14 15  2  0
 15 16  1  0
 16 17  1  0
 17 18  1  0
 18 19  1  0
 19 20  1  0
 20 21  1  0
 19 22  2  0
 22 23  1  0
 23 24  1  0
 22 25  1  0
 16 26  2  0
 26 27  1  0
 15 28  1  0
 28 29  2  0
 29 30  1  0
 29 31  1  0
 31 32  2  0
 32 33  1  0
 33 34  2  0
 34 35  1  0
 35 36  1  0
 36 37  1  0
 37 38  1  0
 38 39  1  0
 37 40  2  0
 40 41  1  0
 40 42  1  0
 42 43  1  0
 34 44  1  0
 44 45  2  0
 45 46  1  0
 46 47  1  0
 47 48  1  0
 48 49  1  0
 49 50  1  0
 50 51  1  0
 49 52  2  0
 52 53  1  0
 53 54  1  0
 52 55  1  0
 46 56  2  0
 56 57  1  0
 45 58  1  0
 58 59  2  0
 59 60  1  0
 59 61  1  0
 61 62  2  0
 62 63  1  0
 63 64  1  0
 63 65  1  0
 63 66  1  0
 62 67  1  0
 67 68  1  0
 68 69  1  0
 69 70  1  0
 68 71  2  0
 71 72  1  0
 72 73  2  3
 73 74  1  0
 74 75  2  0
 75 76  1  0
 76 77  1  0
 76 78  1  0
 76 79  1  0
 75 80  1  0
 80 81  1  0
 81 82  1  0
 82 83  1  0
 81 84  2  0
 84 85  1  0
 85 86  2  3
 86 87  1  0
 87 88  2  0
 88 89  1  0
 89 90  2  0
 90 91  1  0
 91 92  1  0
 92 93  1  0
 93 94  1  0
 94 95  1  0
 93 96  2  0
 96 97  1  0
 96 98  1  0
 98 99  1  0
 90100  1  0
100101  2  0
101102  1  0
102103  1  0
103104  1  0
104105  1  0
105106  1  0
106107  1  0
105108  2  0
108109  1  0
109110  1  0
108111  1  0
102112  2  0
112113  1  0
101114  1  0
114115  2  0
115116  1  0
115117  1  0
117118  2  0
118119  1  0
119120  2  0
120121  1  0
121122  1  0
122123  1  0
123124  1  0
124125  1  0
123126  2  0
126127  1  0
126128  1  0
128129  1  0
120130  1  0
130131  2  0
131132  1  0
132133  1  0
133134  1  0
134135  1  0
135136  1  0
136137  1  0
135138  2  0
138139  1  0
139140  1  0
138141  1  0
132142  2  0
142143  1  0
131144  1  0
144145  2  0
145146  1  0
 27  1  1  0
 57 31  1  0
 71 61  1  0
 84 74  1  0
113 87  1  0
143117  1  0
 26  3  1  0
 56 33  1  0
112 89  1  0
142119  1  0
 12  5  2  0
 30 14  1  0
 42 35  2  0
 60 44  1  0
 98 91  2  0
116100  1  0
128121  2  0
146130  1  0
 23 17  2  0
 53 47  2  0
109103  2  0
139133  2  0
  1147  1  0
  2148  1  0
  8149  1  0
  8150  1  0
  9151  1  0
  9152  1  0
  9153  1  0
 20154  1  0
 20155  1  0
 21156  1  0
 21157  1  0
 21158  1  0
 28159  1  0
 32160  1  0
 38161  1  0
 38162  1  0
 39163  1  0
 39164  1  0
 39165  1  0
 50166  1  0
 50167  1  0
 51168  1  0
 51169  1  0
 51170  1  0
 58171  1  0
 70172  1  0
 70173  1  0
 70174  1  0
 72175  1  0
 73176  1  0
 83177  1  0
 83178  1  0
 83179  1  0
 85180  1  0
 86181  1  0
 88182  1  0
 94183  1  0
 94184  1  0
 95185  1  0
 95186  1  0
 95187  1  0
106188  1  0
106189  1  0
107190  1  0
107191  1  0
107192  1  0
114193  1  0
118194  1  0
124195  1  0
124196  1  0
125197  1  0
125198  1  0
125199  1  0
136200  1  0
136201  1  0
137202  1  0
137203  1  0
137204  1  0
144205  1  0
145206  1  0
M  END

