
     RDKit          3D

235261  0  0  0  0  0  0  0  0999 V2000
    0.6200  -12.1448    8.8353 C   0  0  0  0  0  0  0  0  0  0  0  0
    1.3491  -11.4510    7.9182 C   0  0  0  0  0  0  0  0  0  0  0  0
    0.5608  -10.8691    6.8577 C   0  0  0  0  0  0  0  0  0  0  0  0
    1.0019  -10.2858    5.6979 C   0  0  0  0  0  0  0  0  0  0  0  0
    2.4220  -10.3137    5.3387 C   0  0  0  0  0  0  0  0  0  0  0  0
    3.7612   -9.9742    6.2909 S   0  0  0  0  0  0  0  0  0  0  0  0
    4.9443  -10.4464    5.2426 C   0  0  0  0  0  0  0  0  0  0  0  0
    6.4170  -10.3431    5.4651 C   0  0  0  0  0  0  0  0  0  0  0  0
    6.8761   -8.9787    4.9664 C   0  0  0  0  0  0  0  0  0  0  0  0
    4.3170  -10.8634    4.0617 C   0  0  0  0  0  0  0  0  0  0  0  0
    5.1720  -11.4734    2.6866 Cl  0  0  0  0  0  0  0  0  0  0  0  0
    2.8892  -10.8281    4.1005 C   0  0  0  0  0  0  0  0  0  0  0  0
    1.8791  -11.5602    2.8871 Cl  0  0  0  0  0  0  0  0  0  0  0  0
    0.0218   -9.7351    4.7776 C   0  0  0  0  0  0  0  0  0  0  0  0
   -1.2960   -9.8611    5.0518 C   0  0  0  0  0  0  0  0  0  0  0  0
   -1.7536  -10.5431    6.1396 C   0  0  0  0  0  0  0  0  0  0  0  0
   -3.1680  -10.4525    6.5202 C   0  0  0  0  0  0  0  0  0  0  0  0
   -4.2076   -9.1207    6.3593 S   0  0  0  0  0  0  0  0  0  0  0  0
   -5.5887   -9.8315    6.9645 C   0  0  0  0  0  0  0  0  0  0  0  0
   -6.9747   -9.1963    7.0912 C   0  0  0  0  0  0  0  0  0  0  0  0
   -7.0691   -8.3367    8.3357 C   0  0  0  0  0  0  0  0  0  0  0  0
   -5.2349  -11.1309    7.4237 C   0  0  0  0  0  0  0  0  0  0  0  0
   -3.8647  -11.4764    7.1274 C   0  0  0  0  0  0  0  0  0  0  0  0
   -3.3840  -13.1140    7.0299 Cl  0  0  0  0  0  0  0  0  0  0  0  0
   -6.3631  -12.2389    8.1982 Cl  0  0  0  0  0  0  0  0  0  0  0  0
   -0.7972  -11.0388    7.0964 C   0  0  0  0  0  0  0  0  0  0  0  0
   -0.9884  -12.0291    8.4115 S   0  0  0  0  0  0  0  0  0  0  0  0
   -2.1486   -9.3277    4.0403 C   0  0  0  0  0  0  0  0  0  0  0  0
   -1.4367   -8.8275    2.9375 C   0  0  0  0  0  0  0  0  0  0  0  0
    0.1997   -9.0182    3.2656 S   0  0  0  0  0  0  0  0  0  0  0  0
   -2.1168   -8.2203    1.7688 C   0  0  0  0  0  0  0  0  0  0  0  0
   -3.3327   -7.5748    1.8465 C   0  0  0  0  0  0  0  0  0  0  0  0
   -3.7337   -6.8673    0.7312 C   0  0  0  0  0  0  0  0  0  0  0  0
   -4.8111   -6.0239    0.5595 C   0  0  0  0  0  0  0  0  0  0  0  0
   -5.4932   -5.5360    1.8175 C   0  0  0  0  0  0  0  0  0  0  0  0
   -6.2549   -6.3945    2.9770 S   0  0  0  0  0  0  0  0  0  0  0  0
   -6.3897   -5.1492    4.1291 C   0  0  0  0  0  0  0  0  0  0  0  0
   -6.9678   -5.2721    5.5160 C   0  0  0  0  0  0  0  0  0  0  0  0
   -8.4988   -5.1214    5.5055 C   0  0  0  0  0  0  0  0  0  0  0  0
   -5.8104   -4.0453    3.5516 C   0  0  0  0  0  0  0  0  0  0  0  0
   -5.7188   -2.4976    4.3915 Cl  0  0  0  0  0  0  0  0  0  0  0  0
   -5.2879   -4.2244    2.2520 C   0  0  0  0  0  0  0  0  0  0  0  0
   -4.4138   -2.9760    1.4448 Cl  0  0  0  0  0  0  0  0  0  0  0  0
   -4.9653   -5.2965   -0.6511 C   0  0  0  0  0  0  0  0  0  0  0  0
   -4.1045   -5.4377   -1.6940 C   0  0  0  0  0  0  0  0  0  0  0  0
   -3.1235   -6.4526   -1.6451 C   0  0  0  0  0  0  0  0  0  0  0  0
   -2.5848   -7.1747   -2.8364 C   0  0  0  0  0  0  0  0  0  0  0  0
   -1.1532   -8.0318   -2.8970 S   0  0  0  0  0  0  0  0  0  0  0  0
   -1.3424   -8.7848   -4.4055 C   0  0  0  0  0  0  0  0  0  0  0  0
   -0.4100   -9.7135   -5.1111 C   0  0  0  0  0  0  0  0  0  0  0  0
    0.2457   -9.0621   -6.3228 C   0  0  0  0  0  0  0  0  0  0  0  0
   -2.5463   -8.3354   -4.8906 C   0  0  0  0  0  0  0  0  0  0  0  0
   -3.2633   -7.4764   -4.0259 C   0  0  0  0  0  0  0  0  0  0  0  0
   -4.8836   -6.9687   -4.3865 Cl  0  0  0  0  0  0  0  0  0  0  0  0
   -3.2383   -8.8723   -6.3962 Cl  0  0  0  0  0  0  0  0  0  0  0  0
   -2.9092   -7.0983   -0.3742 C   0  0  0  0  0  0  0  0  0  0  0  0
   -1.6047   -7.9793    0.1951 S   0  0  0  0  0  0  0  0  0  0  0  0
   -4.2717   -4.5297   -2.7701 C   0  0  0  0  0  0  0  0  0  0  0  0
   -5.2295   -3.5450   -2.4348 C   0  0  0  0  0  0  0  0  0  0  0  0
   -5.9433   -3.9651   -1.0092 S   0  0  0  0  0  0  0  0  0  0  0  0
   -5.3742   -2.2766   -3.2208 C   0  0  0  0  0  0  0  0  0  0  0  0
   -6.0611   -1.1866   -2.7144 C   0  0  0  0  0  0  0  0  0  0  0  0
   -5.8133    0.0165   -3.4099 C   0  0  0  0  0  0  0  0  0  0  0  0
   -6.2346    1.2692   -3.0256 C   0  0  0  0  0  0  0  0  0  0  0  0
   -7.2109    1.4738   -1.9670 C   0  0  0  0  0  0  0  0  0  0  0  0
   -7.3429    0.7048   -0.5108 S   0  0  0  0  0  0  0  0  0  0  0  0
   -8.8339    1.2303   -0.0446 C   0  0  0  0  0  0  0  0  0  0  0  0
   -9.5518    0.8933    1.2252 C   0  0  0  0  0  0  0  0  0  0  0  0
  -10.9007    0.2591    0.8652 C   0  0  0  0  0  0  0  0  0  0  0  0
   -9.2238    2.2085   -0.9928 C   0  0  0  0  0  0  0  0  0  0  0  0
  -10.6878    3.1388   -0.8951 Cl  0  0  0  0  0  0  0  0  0  0  0  0
   -8.3359    2.2786   -2.1062 C   0  0  0  0  0  0  0  0  0  0  0  0
   -8.6888    3.2281   -3.4964 Cl  0  0  0  0  0  0  0  0  0  0  0  0
   -5.7226    2.4318   -3.6880 C   0  0  0  0  0  0  0  0  0  0  0  0
   -4.8925    2.2655   -4.7459 C   0  0  0  0  0  0  0  0  0  0  0  0
   -4.5306    1.0165   -5.2304 C   0  0  0  0  0  0  0  0  0  0  0  0
   -3.6050    0.8438   -6.3663 C   0  0  0  0  0  0  0  0  0  0  0  0
   -2.2292    1.7286   -6.7099 S   0  0  0  0  0  0  0  0  0  0  0  0
   -1.9122    1.1405   -8.2259 C   0  0  0  0  0  0  0  0  0  0  0  0
   -0.8045    1.5162   -9.1586 C   0  0  0  0  0  0  0  0  0  0  0  0
    0.4235    0.6245   -8.9670 C   0  0  0  0  0  0  0  0  0  0  0  0
   -2.8016    0.0953   -8.4508 C   0  0  0  0  0  0  0  0  0  0  0  0
   -3.7648   -0.0448   -7.4133 C   0  0  0  0  0  0  0  0  0  0  0  0
   -5.0894   -1.1901   -7.5184 Cl  0  0  0  0  0  0  0  0  0  0  0  0
   -2.8249   -0.9184   -9.8632 Cl  0  0  0  0  0  0  0  0  0  0  0  0
   -5.0142   -0.1402   -4.5104 C   0  0  0  0  0  0  0  0  0  0  0  0
   -4.5704   -1.7714   -4.5966 S   0  0  0  0  0  0  0  0  0  0  0  0
   -4.3642    3.5099   -5.2909 C   0  0  0  0  0  0  0  0  0  0  0  0
   -4.6942    4.6057   -4.4984 C   0  0  0  0  0  0  0  0  0  0  0  0
   -5.7622    4.0852   -3.3263 S   0  0  0  0  0  0  0  0  0  0  0  0
   -3.7795    5.7685   -4.4510 C   0  0  0  0  0  0  0  0  0  0  0  0
   -2.1425    5.6703   -4.5871 S   0  0  0  0  0  0  0  0  0  0  0  0
   -1.6893    7.1567   -4.0131 C   0  0  0  0  0  0  0  0  0  0  0  0
   -2.8590    7.8669   -3.7729 C   0  0  0  0  0  0  0  0  0  0  0  0
   -4.0753    7.1004   -3.9671 C   0  0  0  0  0  0  0  0  0  0  0  0
   -5.4026    7.6863   -3.9519 C   0  0  2  0  0  0  0  0  0  0  0  0
   -5.7601    8.1601   -5.3741 C   0  0  0  0  0  0  0  0  0  0  0  0
   -5.4535    8.9127   -3.0094 C   0  0  0  0  0  0  0  0  0  0  0  0
   -4.3914    9.8407   -3.5266 C   0  0  0  0  0  0  0  0  0  0  0  0
   -3.0116    9.2659   -3.2222 C   0  0  1  0  0  0  0  0  0  0  0  0
   -2.8023    9.2952   -1.6910 C   0  0  0  0  0  0  0  0  0  0  0  0
   -0.2679    7.4334   -3.6603 C   0  0  0  0  0  0  0  0  0  0  0  0
    0.1327    7.6034   -2.3227 C   0  0  0  0  0  0  0  0  0  0  0  0
    1.4862    7.3253   -2.1132 C   0  0  0  0  0  0  0  0  0  0  0  0
    2.0901    7.1838   -0.8660 C   0  0  0  0  0  0  0  0  0  0  0  0
    1.6282    7.9911    0.3252 C   0  0  0  0  0  0  0  0  0  0  0  0
    0.0955    8.2554    0.8243 S   0  0  0  0  0  0  0  0  0  0  0  0
    0.4149    9.2978    2.0828 C   0  0  0  0  0  0  0  0  0  0  0  0
   -0.5854    9.8788    3.0635 C   0  0  0  0  0  0  0  0  0  0  0  0
   -0.5418    9.0377    4.3749 C   0  0  0  0  0  0  0  0  0  0  0  0
    1.7859    9.4890    2.1270 C   0  0  0  0  0  0  0  0  0  0  0  0
    2.5798   10.5405    3.2786 Cl  0  0  0  0  0  0  0  0  0  0  0  0
    2.4895    8.7951    1.0915 C   0  0  0  0  0  0  0  0  0  0  0  0
    4.2299    8.9343    0.8924 Cl  0  0  0  0  0  0  0  0  0  0  0  0
    3.3678    6.5687   -0.7676 C   0  0  0  0  0  0  0  0  0  0  0  0
    4.0737    6.1175   -1.8435 C   0  0  0  0  0  0  0  0  0  0  0  0
    3.4734    6.2013   -3.1012 C   0  0  0  0  0  0  0  0  0  0  0  0
    4.0023    5.6502   -4.3806 C   0  0  0  0  0  0  0  0  0  0  0  0
    3.1208    4.7464   -5.4724 S   0  0  0  0  0  0  0  0  0  0  0  0
    4.2637    4.5460   -6.6685 C   0  0  0  0  0  0  0  0  0  0  0  0
    4.1251    3.8075   -7.9715 C   0  0  0  0  0  0  0  0  0  0  0  0
    3.8808    4.8415   -9.0740 C   0  0  0  0  0  0  0  0  0  0  0  0
    5.4097    5.1241   -6.1921 C   0  0  0  0  0  0  0  0  0  0  0  0
    5.2693    5.7801   -4.9347 C   0  0  0  0  0  0  0  0  0  0  0  0
    6.5191    6.7107   -4.1952 Cl  0  0  0  0  0  0  0  0  0  0  0  0
    6.8861    5.1914   -7.0806 Cl  0  0  0  0  0  0  0  0  0  0  0  0
    2.2079    6.8476   -3.2167 C   0  0  0  0  0  0  0  0  0  0  0  0
    1.0911    6.8815   -4.4878 S   0  0  0  0  0  0  0  0  0  0  0  0
    5.3001    5.4320   -1.5055 C   0  0  0  0  0  0  0  0  0  0  0  0
    5.5045    5.3615   -0.1145 C   0  0  0  0  0  0  0  0  0  0  0  0
    4.2143    6.1013    0.6428 S   0  0  0  0  0  0  0  0  0  0  0  0
    6.5731    4.5667    0.5147 C   0  0  0  0  0  0  0  0  0  0  0  0
    7.4920    3.8649   -0.2259 C   0  0  0  0  0  0  0  0  0  0  0  0
    8.3515    3.0234    0.5818 C   0  0  0  0  0  0  0  0  0  0  0  0
    9.3758    2.2758    0.0736 C   0  0  0  0  0  0  0  0  0  0  0  0
    9.1883    1.7562   -1.3035 C   0  0  0  0  0  0  0  0  0  0  0  0
    7.7230    1.3958   -1.9950 S   0  0  0  0  0  0  0  0  0  0  0  0
    8.2171    0.7261   -3.4223 C   0  0  0  0  0  0  0  0  0  0  0  0
    7.3287    0.1409   -4.4837 C   0  0  0  0  0  0  0  0  0  0  0  0
    7.4014    1.0249   -5.6904 C   0  0  0  0  0  0  0  0  0  0  0  0
    9.6054    0.6223   -3.3420 C   0  0  0  0  0  0  0  0  0  0  0  0
   10.6361   -0.1426   -4.5372 Cl  0  0  0  0  0  0  0  0  0  0  0  0
   10.1675    1.2199   -2.1515 C   0  0  0  0  0  0  0  0  0  0  0  0
   11.8168    1.6205   -1.9788 Cl  0  0  0  0  0  0  0  0  0  0  0  0
   10.2068    1.5257    1.0035 C   0  0  0  0  0  0  0  0  0  0  0  0
    9.9476    1.6222    2.3397 C   0  0  0  0  0  0  0  0  0  0  0  0
    8.9610    2.4371    2.8302 C   0  0  0  0  0  0  0  0  0  0  0  0
    9.0563    3.0374    4.1697 C   0  0  0  0  0  0  0  0  0  0  0  0
    9.2179    2.2714    5.6386 S   0  0  0  0  0  0  0  0  0  0  0  0
    9.6337    3.6035    6.5401 C   0  0  0  0  0  0  0  0  0  0  0  0
    9.7726    3.6198    8.0450 C   0  0  0  0  0  0  0  0  0  0  0  0
    8.3739    3.6144    8.6444 C   0  0  0  0  0  0  0  0  0  0  0  0
    9.6274    4.7259    5.6939 C   0  0  0  0  0  0  0  0  0  0  0  0
    9.3309    4.4032    4.3313 C   0  0  0  0  0  0  0  0  0  0  0  0
    9.5359    5.4749    2.9928 Cl  0  0  0  0  0  0  0  0  0  0  0  0
   10.0927    6.3319    6.2005 Cl  0  0  0  0  0  0  0  0  0  0  0  0
    8.0849    3.1047    1.9157 C   0  0  0  0  0  0  0  0  0  0  0  0
    6.8941    4.2932    2.1487 S   0  0  0  0  0  0  0  0  0  0  0  0
   10.8673    0.8815    3.1603 C   0  0  0  0  0  0  0  0  0  0  0  0
   11.8623    0.2849    2.4224 C   0  0  0  0  0  0  0  0  0  0  0  0
   11.6268    0.6276    0.8142 S   0  0  0  0  0  0  0  0  0  0  0  0
    1.1306  -12.7147    9.6436 H   0  0  0  0  0  0  0  0  0  0  0  0
    2.4325  -11.3816    7.9167 H   0  0  0  0  0  0  0  0  0  0  0  0
    6.5980  -10.3989    6.5634 H   0  0  0  0  0  0  0  0  0  0  0  0
    6.9234  -11.1504    4.9259 H   0  0  0  0  0  0  0  0  0  0  0  0
    7.8730   -9.0246    4.4719 H   0  0  0  0  0  0  0  0  0  0  0  0
    6.9633   -8.2549    5.8258 H   0  0  0  0  0  0  0  0  0  0  0  0
    6.1564   -8.5318    4.2234 H   0  0  0  0  0  0  0  0  0  0  0  0
   -7.7472  -10.0157    7.1184 H   0  0  0  0  0  0  0  0  0  0  0  0
   -7.1328   -8.5876    6.1850 H   0  0  0  0  0  0  0  0  0  0  0  0
   -6.1111   -7.8036    8.5274 H   0  0  0  0  0  0  0  0  0  0  0  0
   -7.3434   -8.9746    9.1938 H   0  0  0  0  0  0  0  0  0  0  0  0
   -7.8869   -7.6004    8.1802 H   0  0  0  0  0  0  0  0  0  0  0  0
   -3.2225   -9.3613    4.0480 H   0  0  0  0  0  0  0  0  0  0  0  0
   -3.8901   -7.5028    2.7633 H   0  0  0  0  0  0  0  0  0  0  0  0
   -6.5487   -4.4489    6.1660 H   0  0  0  0  0  0  0  0  0  0  0  0
   -6.7109   -6.2877    5.9721 H   0  0  0  0  0  0  0  0  0  0  0  0
   -8.9740   -5.6470    4.6295 H   0  0  0  0  0  0  0  0  0  0  0  0
   -8.7902   -4.0390    5.5287 H   0  0  0  0  0  0  0  0  0  0  0  0
   -8.8895   -5.5777    6.4247 H   0  0  0  0  0  0  0  0  0  0  0  0
   -1.0138  -10.5995   -5.4068 H   0  0  0  0  0  0  0  0  0  0  0  0
    0.3597  -10.0497   -4.4307 H   0  0  0  0  0  0  0  0  0  0  0  0
   -0.4405   -9.1252   -7.2157 H   0  0  0  0  0  0  0  0  0  0  0  0
    1.1893   -9.6033   -6.5896 H   0  0  0  0  0  0  0  0  0  0  0  0
    0.4868   -8.0120   -6.0952 H   0  0  0  0  0  0  0  0  0  0  0  0
   -3.5942   -4.4724   -3.5620 H   0  0  0  0  0  0  0  0  0  0  0  0
   -6.5807   -1.2564   -1.8090 H   0  0  0  0  0  0  0  0  0  0  0  0
   -8.9609    0.0992    1.7855 H   0  0  0  0  0  0  0  0  0  0  0  0
   -9.6835    1.8202    1.8615 H   0  0  0  0  0  0  0  0  0  0  0  0
  -10.8017   -0.8660    0.8921 H   0  0  0  0  0  0  0  0  0  0  0  0
  -11.2451    0.5370   -0.1610 H   0  0  0  0  0  0  0  0  0  0  0  0
  -11.6971    0.5463    1.6215 H   0  0  0  0  0  0  0  0  0  0  0  0
   -1.1792    1.4376  -10.2013 H   0  0  0  0  0  0  0  0  0  0  0  0
   -0.5170    2.5668   -8.9266 H   0  0  0  0  0  0  0  0  0  0  0  0
    0.1527   -0.4563   -8.9799 H   0  0  0  0  0  0  0  0  0  0  0  0
    1.1555    0.8299   -9.7840 H   0  0  0  0  0  0  0  0  0  0  0  0
    0.9347    0.8482   -8.0012 H   0  0  0  0  0  0  0  0  0  0  0  0
   -3.7054    3.5914   -6.1209 H   0  0  0  0  0  0  0  0  0  0  0  0
   -6.1599    6.9979   -3.5986 H   0  0  0  0  0  0  0  0  0  0  0  0
   -4.8204    8.3420   -5.9333 H   0  0  0  0  0  0  0  0  0  0  0  0
   -6.3273    9.1006   -5.3004 H   0  0  0  0  0  0  0  0  0  0  0  0
   -6.3357    7.3669   -5.8961 H   0  0  0  0  0  0  0  0  0  0  0  0
   -5.2612    8.6104   -1.9700 H   0  0  0  0  0  0  0  0  0  0  0  0
   -6.4160    9.4184   -3.1092 H   0  0  0  0  0  0  0  0  0  0  0  0
   -4.5303   10.0041   -4.6292 H   0  0  0  0  0  0  0  0  0  0  0  0
   -4.4894   10.8325   -3.0135 H   0  0  0  0  0  0  0  0  0  0  0  0
   -2.2444    9.8998   -3.7319 H   0  0  0  0  0  0  0  0  0  0  0  0
   -3.6922    9.8019   -1.2323 H   0  0  0  0  0  0  0  0  0  0  0  0
   -2.7473    8.2650   -1.2707 H   0  0  0  0  0  0  0  0  0  0  0  0
   -1.8921    9.9184   -1.4590 H   0  0  0  0  0  0  0  0  0  0  0  0
   -0.5437    7.6900   -1.5404 H   0  0  0  0  0  0  0  0  0  0  0  0
   -1.6349    9.8101    2.6276 H   0  0  0  0  0  0  0  0  0  0  0  0
   -0.2625   10.9275    3.3318 H   0  0  0  0  0  0  0  0  0  0  0  0
   -0.9276    8.0043    4.1616 H   0  0  0  0  0  0  0  0  0  0  0  0
   -1.1749    9.5578    5.1185 H   0  0  0  0  0  0  0  0  0  0  0  0
    0.5114    9.0191    4.7730 H   0  0  0  0  0  0  0  0  0  0  0  0
    3.2946    3.0736   -7.9244 H   0  0  0  0  0  0  0  0  0  0  0  0
    5.0970    3.2927   -8.2125 H   0  0  0  0  0  0  0  0  0  0  0  0
    4.8400    5.3025   -9.4133 H   0  0  0  0  0  0  0  0  0  0  0  0
    3.2340    5.6836   -8.6960 H   0  0  0  0  0  0  0  0  0  0  0  0
    3.4150    4.3946   -9.9501 H   0  0  0  0  0  0  0  0  0  0  0  0
    5.9245    5.0254   -2.2457 H   0  0  0  0  0  0  0  0  0  0  0  0
    7.4975    3.8074   -1.3181 H   0  0  0  0  0  0  0  0  0  0  0  0
    6.2800    0.1779   -4.1160 H   0  0  0  0  0  0  0  0  0  0  0  0
    7.5889   -0.8937   -4.7313 H   0  0  0  0  0  0  0  0  0  0  0  0
    8.4760    1.3138   -5.8324 H   0  0  0  0  0  0  0  0  0  0  0  0
    6.7917    1.9349   -5.5784 H   0  0  0  0  0  0  0  0  0  0  0  0
    7.0505    0.4689   -6.5773 H   0  0  0  0  0  0  0  0  0  0  0  0
   10.2874    2.6759    8.3626 H   0  0  0  0  0  0  0  0  0  0  0  0
   10.3246    4.5226    8.4042 H   0  0  0  0  0  0  0  0  0  0  0  0
    7.6176    4.1062    7.9660 H   0  0  0  0  0  0  0  0  0  0  0  0
    8.0012    2.5700    8.8333 H   0  0  0  0  0  0  0  0  0  0  0  0
    8.3168    4.1576    9.6196 H   0  0  0  0  0  0  0  0  0  0  0  0
   10.7473    0.7538    4.1972 H   0  0  0  0  0  0  0  0  0  0  0  0
   12.6734   -0.2456    2.8938 H   0  0  0  0  0  0  0  0  0  0  0  0
  1  2  2  0
  2  3  1  0
  3  4  2  0
  4  5  1  0
  5  6  1  0
  6  7  1  0
  7  8  1  0
  8  9  1  0
  7 10  2  0
 10 11  1  0
 10 12  1  0
 12 13  1  0
  4 14  1  0
 14 15  2  0
 15 16  1  0
 16 17  1  0
 17 18  1  0
 18 19  1  0
 19 20  1  0
 20 21  1  0
 19 22  2  0
 22 23  1  0
 23 24  1  0
 22 25  1  0
 16 26  2  0
 26 27  1  0
 15 28  1  0
 28 29  2  0
 29 30  1  0
 29 31  1  0
 31 32  2  0
 32 33  1  0
 33 34  2  0
 34 35  1  0
 35 36  1  0
 36 37  1  0
 37 38  1  0
 38 39  1  0
 37 40  2  0
 40 41  1  0
 40 42  1  0
 42 43  1  0
 34 44  1  0
 44 45  2  0
 45 46  1  0
 46 47  1  0
 47 48  1  0
 48 49  1  0
 49 50  1  0
 50 51  1  0
 49 52  2  0
 52 53  1  0
 53 54  1  0
 52 55  1  0
 46 56  2  0
 56 57  1  0
 45 58  1  0
 58 59  2  0
 59 60  1  0
 59 61  1  0
 61 62  2  0
 62 63  1  0
 63 64  2  0
 64 65  1  0
 65 66  1  0
 66 67  1  0
 67 68  1  0
 68 69  1  0
 67 70  2  0
 70 71  1  0
 70 72  1  0
 72 73  1  0
 64 74  1  0
 74 75  2  0
 75 76  1  0
 76 77  1  0
 77 78  1  0
 78 79  1  0
 79 80  1  0
 80 81  1  0
 79 82  2  0
 82 83  1  0
 83 84  1  0
 82 85  1  0
 76 86  2  0
 86 87  1  0
 75 88  1  0
 88 89  2  0
 89 90  1  0
 89 91  1  0
 91 92  1  0
 92 93  1  0
 93 94  2  0
 94 95  1  0
 95 96  1  0
 96 97  1  0
 96 98  1  0
 98 99  1  0
 99100  1  0
100101  1  0
 93102  1  0
102103  2  0
103104  1  0
104105  2  0
105106  1  0
106107  1  0
107108  1  0
108109  1  0
109110  1  0
108111  2  0
111112  1  0
111113  1  0
113114  1  0
105115  1  0
115116  2  0
116117  1  0
117118  1  0
118119  1  0
119120  1  0
120121  1  0
121122  1  0
120123  2  0
123124  1  0
124125  1  0
123126  1  0
117127  2  0
127128  1  0
116129  1  0
129130  2  0
130131  1  0
130132  1  0
132133  2  0
133134  1  0
134135  2  0
135136  1  0
136137  1  0
137138  1  0
138139  1  0
139140  1  0
138141  2  0
141142  1  0
141143  1  0
143144  1  0
135145  1  0
145146  2  0
146147  1  0
147148  1  0
148149  1  0
149150  1  0
150151  1  0
151152  1  0
150153  2  0
153154  1  0
154155  1  0
153156  1  0
147157  2  0
157158  1  0
146159  1  0
159160  2  0
160161  1  0
 27  1  1  0
 57 31  1  0
 87 61  1  0
 95 91  2  0
128102  1  0
158132  1  0
 26  3  1  0
 56 33  1  0
 86 63  1  0
100 94  1  0
127104  1  0
157134  1  0
 12  5  2  0
 30 14  1  0
 42 35  2  0
 60 44  1  0
 72 65  2  0
 90 74  1  0
113106  2  0
131115  1  0
143136  2  0
161145  1  0
 23 17  2  0
 53 47  2  0
 83 77  2  0
124118  2  0
154148  2  0
  1162  1  0
  2163  1  0
  8164  1  0
  8165  1  0
  9166  1  0
  9167  1  0
  9168  1  0
 20169  1  0
 20170  1  0
 21171  1  0
 21172  1  0
 21173  1  0
 28174  1  0
 32175  1  0
 38176  1  0
 38177  1  0
 39178  1  0
 39179  1  0
 39180  1  0
 50181  1  0
 50182  1  0
 51183  1  0
 51184  1  0
 51185  1  0
 58186  1  0
 62187  1  0
 68188  1  0
 68189  1  0
 69190  1  0
 69191  1  0
 69192  1  0
 80193  1  0
 80194  1  0
 81195  1  0
 81196  1  0
 81197  1  0
 88198  1  0
 96199  1  1
 97200  1  0
 97201  1  0
 97202  1  0
 98203  1  0
 98204  1  0
 99205  1  0
 99206  1  0
100207  1  6
101208  1  0
101209  1  0
101210  1  0
103211  1  0
109212  1  0
109213  1  0
110214  1  0
110215  1  0
110216  1  0
121217  1  0
121218  1  0
122219  1  0
122220  1  0
122221  1  0
129222  1  0
133223  1  0
139224  1  0
139225  1  0
140226  1  0
140227  1  0
140228  1  0
151229  1  0
151230  1  0
152231  1  0
152232  1  0
152233  1  0
159234  1  0
160235  1  0
M  END

