
     RDKit          3D

196217  0  0  0  0  0  0  0  0999 V2000
   -1.1049  -14.7981    7.2231 C   0  0  0  0  0  0  0  0  0  0  0  0
   -0.1995  -14.3973    6.2456 C   0  0  0  0  0  0  0  0  0  0  0  0
   -0.4531  -13.1062    5.7499 C   0  0  0  0  0  0  0  0  0  0  0  0
    0.3048  -12.4157    4.7807 C   0  0  0  0  0  0  0  0  0  0  0  0
    1.4863  -13.0245    4.1449 C   0  0  0  0  0  0  0  0  0  0  0  0
    1.4550  -14.4067    3.1872 S   0  0  0  0  0  0  0  0  0  0  0  0
    3.1131  -14.4734    2.9127 C   0  0  0  0  0  0  0  0  0  0  0  0
    3.7903  -15.4801    2.0359 C   0  0  0  0  0  0  0  0  0  0  0  0
    3.8388  -14.9921    0.5916 C   0  0  0  0  0  0  0  0  0  0  0  0
    3.7148  -13.3926    3.5559 C   0  0  0  0  0  0  0  0  0  0  0  0
    5.4406  -13.0643    3.4979 Cl  0  0  0  0  0  0  0  0  0  0  0  0
    2.8048  -12.5876    4.2588 C   0  0  0  0  0  0  0  0  0  0  0  0
    3.2957  -11.2032    5.2299 Cl  0  0  0  0  0  0  0  0  0  0  0  0
   -0.1134  -11.1112    4.4560 C   0  0  0  0  0  0  0  0  0  0  0  0
   -1.2111  -10.4995    5.0736 C   0  0  0  0  0  0  0  0  0  0  0  0
   -1.9625  -11.1873    6.0484 C   0  0  0  0  0  0  0  0  0  0  0  0
   -3.1015  -10.5543    6.7369 C   0  0  0  0  0  0  0  0  0  0  0  0
   -2.9936   -9.1703    7.6882 S   0  0  0  0  0  0  0  0  0  0  0  0
   -4.6383   -9.0548    8.0224 C   0  0  0  0  0  0  0  0  0  0  0  0
   -5.2755   -7.9191    8.7576 C   0  0  0  0  0  0  0  0  0  0  0  0
   -5.6678   -6.8056    7.7891 C   0  0  0  0  0  0  0  0  0  0  0  0
   -5.2997  -10.0913    7.3656 C   0  0  0  0  0  0  0  0  0  0  0  0
   -4.4371  -10.9376    6.6509 C   0  0  0  0  0  0  0  0  0  0  0  0
   -5.0018  -12.2842    5.6700 Cl  0  0  0  0  0  0  0  0  0  0  0  0
   -7.0461  -10.3024    7.3941 Cl  0  0  0  0  0  0  0  0  0  0  0  0
   -1.5572  -12.4974    6.3536 C   0  0  0  0  0  0  0  0  0  0  0  0
   -2.2090  -13.5529    7.4923 S   0  0  0  0  0  0  0  0  0  0  0  0
   -1.4505   -9.1977    4.6069 C   0  0  0  0  0  0  0  0  0  0  0  0
   -0.5387   -8.7863    3.6353 C   0  0  0  0  0  0  0  0  0  0  0  0
    0.5502  -10.0426    3.3345 S   0  0  0  0  0  0  0  0  0  0  0  0
   -0.4508   -7.4291    3.0714 C   0  0  0  0  0  0  0  0  0  0  0  0
   -1.0470   -6.2932    3.6196 C   0  0  0  0  0  0  0  0  0  0  0  0
   -0.6317   -5.1027    3.0009 C   0  0  0  0  0  0  0  0  0  0  0  0
   -0.9348   -3.8000    3.4387 C   0  0  0  0  0  0  0  0  0  0  0  0
   -1.7678   -3.5642    4.6274 C   0  0  0  0  0  0  0  0  0  0  0  0
   -3.4410   -3.7237    4.6778 S   0  0  0  0  0  0  0  0  0  0  0  0
   -3.5977   -3.3893    6.3209 C   0  0  0  0  0  0  0  0  0  0  0  0
   -4.9019   -3.2951    7.0519 C   0  0  0  0  0  0  0  0  0  0  0  0
   -5.3440   -1.8430    7.1950 C   0  0  0  0  0  0  0  0  0  0  0  0
   -2.3323   -3.1440    6.8510 C   0  0  0  0  0  0  0  0  0  0  0  0
   -2.0425   -2.7574    8.5417 Cl  0  0  0  0  0  0  0  0  0  0  0  0
   -1.3055   -3.2457    5.9024 C   0  0  0  0  0  0  0  0  0  0  0  0
    0.3973   -3.0304    6.2862 Cl  0  0  0  0  0  0  0  0  0  0  0  0
   -0.2884   -2.7400    2.7817 C   0  0  0  0  0  0  0  0  0  0  0  0
    0.6126   -2.9407    1.7279 C   0  0  0  0  0  0  0  0  0  0  0  0
    0.9025   -4.2495    1.2778 C   0  0  0  0  0  0  0  0  0  0  0  0
    1.8953   -4.5144    0.2236 C   0  0  0  0  0  0  0  0  0  0  0  0
    1.5568   -5.2868   -1.2338 S   0  0  0  0  0  0  0  0  0  0  0  0
    3.1315   -5.2603   -1.8226 C   0  0  0  0  0  0  0  0  0  0  0  0
    3.5646   -5.8585   -3.1261 C   0  0  0  0  0  0  0  0  0  0  0  0
    4.0909   -7.2760   -2.9269 C   0  0  0  0  0  0  0  0  0  0  0  0
    3.9560   -4.6679   -0.8644 C   0  0  0  0  0  0  0  0  0  0  0  0
    3.2638   -4.2504    0.2833 C   0  0  0  0  0  0  0  0  0  0  0  0
    4.0626   -3.5522    1.6865 Cl  0  0  0  0  0  0  0  0  0  0  0  0
    5.6949   -4.4872   -1.0607 Cl  0  0  0  0  0  0  0  0  0  0  0  0
    0.2633   -5.3091    1.9459 C   0  0  0  0  0  0  0  0  0  0  0  0
    0.5674   -6.9618    1.8068 S   0  0  0  0  0  0  0  0  0  0  0  0
    1.2308   -1.7501    1.3019 C   0  0  0  0  0  0  0  0  0  0  0  0
    0.8495   -0.6366    2.0517 C   0  0  0  0  0  0  0  0  0  0  0  0
   -0.2851   -1.1145    3.2079 S   0  0  0  0  0  0  0  0  0  0  0  0
    1.6597    0.5881    2.1642 C   0  0  0  0  0  0  0  0  0  0  0  0
    2.4495    0.8609    3.2855 C   0  0  0  0  0  0  0  0  0  0  0  0
    2.5651    0.0348    4.5287 C   0  0  0  0  0  0  0  0  0  0  0  0
    3.3139    2.2748    3.0188 S   0  0  0  0  0  0  0  0  0  0  0  0
    2.7182    2.5619    1.4766 C   0  0  0  0  0  0  0  0  0  0  0  0
    3.1053    3.7440    0.6404 C   0  0  0  0  0  0  0  0  0  0  0  0
    1.8296    1.5354    1.1317 C   0  0  0  0  0  0  0  0  0  0  0  0
    1.0993    1.5230   -0.1470 C   0  0  0  0  0  0  0  0  0  0  0  0
    1.6956    1.7537   -1.3854 C   0  0  0  0  0  0  0  0  0  0  0  0
    0.7767    2.1236   -2.3779 C   0  0  0  0  0  0  0  0  0  0  0  0
    1.0936    2.5161   -3.6900 C   0  0  0  0  0  0  0  0  0  0  0  0
    2.4754    2.5158   -4.1943 C   0  0  0  0  0  0  0  0  0  0  0  0
    3.6850    3.5753   -3.6947 S   0  0  0  0  0  0  0  0  0  0  0  0
    4.8779    2.9713   -4.7196 C   0  0  0  0  0  0  0  0  0  0  0  0
    6.2548    3.5441   -4.8550 C   0  0  0  0  0  0  0  0  0  0  0  0
    6.3248    4.4974   -6.0419 C   0  0  0  0  0  0  0  0  0  0  0  0
    4.3295    1.9426   -5.4872 C   0  0  0  0  0  0  0  0  0  0  0  0
    5.2292    1.0618   -6.7159 Cl  0  0  0  0  0  0  0  0  0  0  0  0
    2.9830    1.6892   -5.1928 C   0  0  0  0  0  0  0  0  0  0  0  0
    2.0375    0.4392   -5.9905 Cl  0  0  0  0  0  0  0  0  0  0  0  0
    0.0364    2.9705   -4.4919 C   0  0  0  0  0  0  0  0  0  0  0  0
   -1.2893    3.0056   -4.0454 C   0  0  0  0  0  0  0  0  0  0  0  0
   -1.6130    2.5719   -2.7412 C   0  0  0  0  0  0  0  0  0  0  0  0
   -2.9960    2.5785   -2.2444 C   0  0  0  0  0  0  0  0  0  0  0  0
   -3.6020    3.6326   -1.0827 S   0  0  0  0  0  0  0  0  0  0  0  0
   -5.1446    2.9594   -1.0262 C   0  0  0  0  0  0  0  0  0  0  0  0
   -6.2470    3.4410   -0.1293 C   0  0  0  0  0  0  0  0  0  0  0  0
   -7.3809    4.0779   -0.9278 C   0  0  0  0  0  0  0  0  0  0  0  0
   -5.1990    1.8858   -1.9165 C   0  0  0  0  0  0  0  0  0  0  0  0
   -3.9950    1.6812   -2.6088 C   0  0  0  0  0  0  0  0  0  0  0  0
   -3.7517    0.3851   -3.7722 Cl  0  0  0  0  0  0  0  0  0  0  0  0
   -6.6034    0.8486   -2.1119 Cl  0  0  0  0  0  0  0  0  0  0  0  0
   -0.5456    2.1507   -1.9260 C   0  0  0  0  0  0  0  0  0  0  0  0
   -0.5717    1.7370   -0.2922 S   0  0  0  0  0  0  0  0  0  0  0  0
   -2.1670    3.5933   -4.9764 C   0  0  0  0  0  0  0  0  0  0  0  0
   -1.5099    4.0251   -6.1273 C   0  0  0  0  0  0  0  0  0  0  0  0
    0.1350    3.6811   -6.0102 S   0  0  0  0  0  0  0  0  0  0  0  0
   -2.0957    4.8517   -7.1901 C   0  0  0  0  0  0  0  0  0  0  0  0
   -2.9490    4.3524   -8.1713 C   0  0  0  0  0  0  0  0  0  0  0  0
   -3.4557    2.9524   -8.2747 C   0  0  0  0  0  0  0  0  0  0  0  0
   -3.3934    5.6166   -9.1888 S   0  0  0  0  0  0  0  0  0  0  0  0
   -2.4780    6.8034   -8.4214 C   0  0  0  0  0  0  0  0  0  0  0  0
   -2.4976    8.2579   -8.7701 C   0  0  0  0  0  0  0  0  0  0  0  0
   -1.8308    6.2265   -7.3310 C   0  0  0  0  0  0  0  0  0  0  0  0
   -1.0863    7.0060   -6.3338 C   0  0  0  0  0  0  0  0  0  0  0  0
   -1.6525    7.5492   -5.1882 C   0  0  0  0  0  0  0  0  0  0  0  0
   -0.7120    8.2017   -4.3778 C   0  0  0  0  0  0  0  0  0  0  0  0
   -0.9769    8.8548   -3.1592 C   0  0  0  0  0  0  0  0  0  0  0  0
   -2.3387    8.9396   -2.6078 C   0  0  0  0  0  0  0  0  0  0  0  0
   -3.2457    7.6268   -2.0744 S   0  0  0  0  0  0  0  0  0  0  0  0
   -4.6265    8.5114   -1.6944 C   0  0  0  0  0  0  0  0  0  0  0  0
   -5.8701    7.9345   -1.0922 C   0  0  0  0  0  0  0  0  0  0  0  0
   -5.8356    8.0413    0.4281 C   0  0  0  0  0  0  0  0  0  0  0  0
   -4.3873    9.8568   -1.9694 C   0  0  0  0  0  0  0  0  0  0  0  0
   -5.5729   11.1299   -1.7081 Cl  0  0  0  0  0  0  0  0  0  0  0  0
   -3.1055   10.0967   -2.4881 C   0  0  0  0  0  0  0  0  0  0  0  0
   -2.5480   11.6905   -2.9846 Cl  0  0  0  0  0  0  0  0  0  0  0  0
    0.1166    9.4456   -2.5038 C   0  0  0  0  0  0  0  0  0  0  0  0
    1.4140    9.4130   -3.0232 C   0  0  0  0  0  0  0  0  0  0  0  0
    1.6758    8.7771   -4.2541 C   0  0  0  0  0  0  0  0  0  0  0  0
    3.0243    8.7646   -4.8437 C   0  0  0  0  0  0  0  0  0  0  0  0
    4.3570    7.9709   -4.1923 S   0  0  0  0  0  0  0  0  0  0  0  0
    5.4788    8.5366   -5.3193 C   0  0  0  0  0  0  0  0  0  0  0  0
    6.9419    8.1880   -5.3810 C   0  0  0  0  0  0  0  0  0  0  0  0
    7.4639    7.5638   -4.0891 C   0  0  0  0  0  0  0  0  0  0  0  0
    4.8052    9.3443   -6.2357 C   0  0  0  0  0  0  0  0  0  0  0  0
    3.4351    9.4793   -5.9647 C   0  0  0  0  0  0  0  0  0  0  0  0
    2.3595   10.4982   -6.9137 Cl  0  0  0  0  0  0  0  0  0  0  0  0
    5.5974   10.1294   -7.5956 Cl  0  0  0  0  0  0  0  0  0  0  0  0
    0.5835    8.1752   -4.9061 C   0  0  0  0  0  0  0  0  0  0  0  0
    0.5705    7.3275   -6.3628 S   0  0  0  0  0  0  0  0  0  0  0  0
    2.3466   10.0828   -2.2146 C   0  0  0  0  0  0  0  0  0  0  0  0
    1.7848   10.6195   -1.0595 C   0  0  0  0  0  0  0  0  0  0  0  0
    0.1347   10.2755   -1.0395 S   0  0  0  0  0  0  0  0  0  0  0  0
   -1.0954  -15.7514    7.7338 H   0  0  0  0  0  0  0  0  0  0  0  0
    0.6221  -15.0245    5.9230 H   0  0  0  0  0  0  0  0  0  0  0  0
    4.8220  -15.6716    2.4007 H   0  0  0  0  0  0  0  0  0  0  0  0
    3.2328  -16.4413    2.0815 H   0  0  0  0  0  0  0  0  0  0  0  0
    4.3139  -15.7663   -0.0456 H   0  0  0  0  0  0  0  0  0  0  0  0
    4.4329  -14.0563    0.5224 H   0  0  0  0  0  0  0  0  0  0  0  0
    2.8119  -14.8013    0.2150 H   0  0  0  0  0  0  0  0  0  0  0  0
   -6.1757   -8.2759    9.2995 H   0  0  0  0  0  0  0  0  0  0  0  0
   -4.5623   -7.5169    9.5088 H   0  0  0  0  0  0  0  0  0  0  0  0
   -6.3575   -7.1947    7.0083 H   0  0  0  0  0  0  0  0  0  0  0  0
   -6.1836   -5.9971    8.3479 H   0  0  0  0  0  0  0  0  0  0  0  0
   -4.7620   -6.3843    7.3029 H   0  0  0  0  0  0  0  0  0  0  0  0
   -2.2545   -8.5697    4.9642 H   0  0  0  0  0  0  0  0  0  0  0  0
   -1.6901   -6.3204    4.4881 H   0  0  0  0  0  0  0  0  0  0  0  0
   -4.8047   -3.7543    8.0574 H   0  0  0  0  0  0  0  0  0  0  0  0
   -5.6777   -3.8577    6.4919 H   0  0  0  0  0  0  0  0  0  0  0  0
   -4.6132   -1.2736    7.8094 H   0  0  0  0  0  0  0  0  0  0  0  0
   -6.3324   -1.8049    7.6979 H   0  0  0  0  0  0  0  0  0  0  0  0
   -5.4321   -1.3658    6.1963 H   0  0  0  0  0  0  0  0  0  0  0  0
    4.3564   -5.2289   -3.5823 H   0  0  0  0  0  0  0  0  0  0  0  0
    2.7030   -5.8845   -3.8265 H   0  0  0  0  0  0  0  0  0  0  0  0
    3.2915   -7.9305   -2.5159 H   0  0  0  0  0  0  0  0  0  0  0  0
    4.4233   -7.6821   -3.9049 H   0  0  0  0  0  0  0  0  0  0  0  0
    4.9583   -7.2736   -2.2324 H   0  0  0  0  0  0  0  0  0  0  0  0
    2.0121   -1.7096    0.5523 H   0  0  0  0  0  0  0  0  0  0  0  0
    3.4610    0.3378    5.1115 H   0  0  0  0  0  0  0  0  0  0  0  0
    1.6618    0.1779    5.1585 H   0  0  0  0  0  0  0  0  0  0  0  0
    2.6665   -1.0399    4.2652 H   0  0  0  0  0  0  0  0  0  0  0  0
    2.2089    4.1678    0.1432 H   0  0  0  0  0  0  0  0  0  0  0  0
    3.5588    4.5334    1.2763 H   0  0  0  0  0  0  0  0  0  0  0  0
    3.8436    3.4328   -0.1267 H   0  0  0  0  0  0  0  0  0  0  0  0
    2.7662    1.7319   -1.5382 H   0  0  0  0  0  0  0  0  0  0  0  0
    6.5213    4.0920   -3.9273 H   0  0  0  0  0  0  0  0  0  0  0  0
    6.9908    2.7240   -4.9893 H   0  0  0  0  0  0  0  0  0  0  0  0
    5.5957    5.3239   -5.9160 H   0  0  0  0  0  0  0  0  0  0  0  0
    7.3463    4.9263   -6.1124 H   0  0  0  0  0  0  0  0  0  0  0  0
    6.1042    3.9578   -6.9857 H   0  0  0  0  0  0  0  0  0  0  0  0
   -5.8386    4.1936    0.5791 H   0  0  0  0  0  0  0  0  0  0  0  0
   -6.6408    2.5903    0.4661 H   0  0  0  0  0  0  0  0  0  0  0  0
   -7.9593    3.3022   -1.4730 H   0  0  0  0  0  0  0  0  0  0  0  0
   -6.9853    4.8106   -1.6592 H   0  0  0  0  0  0  0  0  0  0  0  0
   -8.0720    4.6020   -0.2325 H   0  0  0  0  0  0  0  0  0  0  0  0
   -3.2217    3.7621   -4.7965 H   0  0  0  0  0  0  0  0  0  0  0  0
   -3.9064    2.7774   -9.2753 H   0  0  0  0  0  0  0  0  0  0  0  0
   -4.2241    2.7786   -7.4926 H   0  0  0  0  0  0  0  0  0  0  0  0
   -2.6186    2.2362   -8.1311 H   0  0  0  0  0  0  0  0  0  0  0  0
   -3.1614    8.7979   -8.0651 H   0  0  0  0  0  0  0  0  0  0  0  0
   -2.8742    8.3957   -9.8046 H   0  0  0  0  0  0  0  0  0  0  0  0
   -1.4734    8.6789   -8.7044 H   0  0  0  0  0  0  0  0  0  0  0  0
   -2.7063    7.4672   -4.9570 H   0  0  0  0  0  0  0  0  0  0  0  0
   -5.9492    6.8676   -1.3791 H   0  0  0  0  0  0  0  0  0  0  0  0
   -6.7611    8.4627   -1.4868 H   0  0  0  0  0  0  0  0  0  0  0  0
   -5.6970    9.0995    0.7378 H   0  0  0  0  0  0  0  0  0  0  0  0
   -6.7961    7.6760    0.8470 H   0  0  0  0  0  0  0  0  0  0  0  0
   -5.0065    7.4254    0.8371 H   0  0  0  0  0  0  0  0  0  0  0  0
    7.1067    7.4844   -6.2233 H   0  0  0  0  0  0  0  0  0  0  0  0
    7.5244    9.1122   -5.5840 H   0  0  0  0  0  0  0  0  0  0  0  0
    7.3081    8.2531   -3.2341 H   0  0  0  0  0  0  0  0  0  0  0  0
    8.5511    7.3626   -4.1890 H   0  0  0  0  0  0  0  0  0  0  0  0
    6.9501    6.6016   -3.8863 H   0  0  0  0  0  0  0  0  0  0  0  0
    3.3954   10.1880   -2.4535 H   0  0  0  0  0  0  0  0  0  0  0  0
    2.3208   11.1725   -0.3012 H   0  0  0  0  0  0  0  0  0  0  0  0
  1  2  2  0
  2  3  1  0
  3  4  2  0
  4  5  1  0
  5  6  1  0
  6  7  1  0
  7  8  1  0
  8  9  1  0
  7 10  2  0
 10 11  1  0
 10 12  1  0
 12 13  1  0
  4 14  1  0
 14 15  2  0
 15 16  1  0
 16 17  1  0
 17 18  1  0
 18 19  1  0
 19 20  1  0
 20 21  1  0
 19 22  2  0
 22 23  1  0
 23 24  1  0
 22 25  1  0
 16 26  2  0
 26 27  1  0
 15 28  1  0
 28 29  2  0
 29 30  1  0
 29 31  1  0
 31 32  2  0
 32 33  1  0
 33 34  2  0
 34 35  1  0
 35 36  1  0
 36 37  1  0
 37 38  1  0
 38 39  1  0
 37 40  2  0
 40 41  1  0
 40 42  1  0
 42 43  1  0
 34 44  1  0
 44 45  2  0
 45 46  1  0
 46 47  1  0
 47 48  1  0
 48 49  1  0
 49 50  1  0
 50 51  1  0
 49 52  2  0
 52 53  1  0
 53 54  1  0
 52 55  1  0
 46 56  2  0
 56 57  1  0
 45 58  1  0
 58 59  2  0
 59 60  1  0
 59 61  1  0
 61 62  2  0
 62 63  1  0
 62 64  1  0
 64 65  1  0
 65 66  1  0
 65 67  2  0
 67 68  1  0
 68 69  2  0
 69 70  1  0
 70 71  2  0
 71 72  1  0
 72 73  1  0
 73 74  1  0
 74 75  1  0
 75 76  1  0
 74 77  2  0
 77 78  1  0
 77 79  1  0
 79 80  1  0
 71 81  1  0
 81 82  2  0
 82 83  1  0
 83 84  1  0
 84 85  1  0
 85 86  1  0
 86 87  1  0
 87 88  1  0
 86 89  2  0
 89 90  1  0
 90 91  1  0
 89 92  1  0
 83 93  2  0
 93 94  1  0
 82 95  1  0
 95 96  2  0
 96 97  1  0
 96 98  1  0
 98 99  2  0
 99100  1  0
 99101  1  0
101102  1  0
102103  1  0
102104  2  0
104105  1  0
105106  2  0
106107  1  0
107108  2  0
108109  1  0
109110  1  0
110111  1  0
111112  1  0
112113  1  0
111114  2  0
114115  1  0
114116  1  0
116117  1  0
108118  1  0
118119  2  0
119120  1  0
120121  1  0
121122  1  0
122123  1  0
123124  1  0
124125  1  0
123126  2  0
126127  1  0
127128  1  0
126129  1  0
120130  2  0
130131  1  0
119132  1  0
132133  2  0
133134  1  0
 27  1  1  0
 57 31  1  0
 67 61  1  0
 94 68  1  0
104 98  1  0
131105  1  0
 26  3  1  0
 56 33  1  0
 93 70  1  0
130107  1  0
 12  5  2  0
 30 14  1  0
 42 35  2  0
 60 44  1  0
 79 72  2  0
 97 81  1  0
116109  2  0
134118  1  0
 23 17  2  0
 53 47  2  0
 90 84  2  0
127121  2  0
  1135  1  0
  2136  1  0
  8137  1  0
  8138  1  0
  9139  1  0
  9140  1  0
  9141  1  0
 20142  1  0
 20143  1  0
 21144  1  0
 21145  1  0
 21146  1  0
 28147  1  0
 32148  1  0
 38149  1  0
 38150  1  0
 39151  1  0
 39152  1  0
 39153  1  0
 50154  1  0
 50155  1  0
 51156  1  0
 51157  1  0
 51158  1  0
 58159  1  0
 63160  1  0
 63161  1  0
 63162  1  0
 66163  1  0
 66164  1  0
 66165  1  0
 69166  1  0
 75167  1  0
 75168  1  0
 76169  1  0
 76170  1  0
 76171  1  0
 87172  1  0
 87173  1  0
 88174  1  0
 88175  1  0
 88176  1  0
 95177  1  0
100178  1  0
100179  1  0
100180  1  0
103181  1  0
103182  1  0
103183  1  0
106184  1  0
112185  1  0
112186  1  0
113187  1  0
113188  1  0
113189  1  0
124190  1  0
124191  1  0
125192  1  0
125193  1  0
125194  1  0
132195  1  0
133196  1  0
M  END

