
     RDKit          3D

248271  0  0  0  0  0  0  0  0999 V2000
   -0.8356   -3.4352   10.1122 C   0  0  0  0  0  0  0  0  0  0  0  0
   -1.4222   -2.2089    9.8152 C   0  0  0  0  0  0  0  0  0  0  0  0
   -2.1903   -2.2307    8.6372 C   0  0  0  0  0  0  0  0  0  0  0  0
   -2.8643   -1.1346    8.0561 C   0  0  0  0  0  0  0  0  0  0  0  0
   -2.9341    0.1876    8.7209 C   0  0  0  0  0  0  0  0  0  0  0  0
   -2.4964    1.3453    8.0563 C   0  0  0  0  0  0  0  0  0  0  0  0
   -2.6171    2.5956    8.6684 C   0  0  0  0  0  0  0  0  0  0  0  0
   -3.1511    2.7000    9.9571 C   0  0  0  0  0  0  0  0  0  0  0  0
   -3.3065    4.3149   10.7243 S   0  0  0  0  0  0  0  0  0  0  0  0
   -1.6556    4.2440   11.4988 C   0  0  0  0  0  0  0  0  0  0  0  0
   -1.2919    5.6065   12.0701 C   0  0  0  0  0  0  0  0  0  0  0  0
   -3.5850    1.5494   10.6298 C   0  0  0  0  0  0  0  0  0  0  0  0
   -4.1114    1.6389   11.8768 F   0  0  0  0  0  0  0  0  0  0  0  0
   -3.4762    0.2986   10.0124 C   0  0  0  0  0  0  0  0  0  0  0  0
   -3.5004   -1.3654    6.8217 C   0  0  0  0  0  0  0  0  0  0  0  0
   -3.5110   -2.6192    6.1995 C   0  0  0  0  0  0  0  0  0  0  0  0
   -2.8481   -3.7191    6.7868 C   0  0  0  0  0  0  0  0  0  0  0  0
   -2.8020   -5.0513    6.1373 C   0  0  0  0  0  0  0  0  0  0  0  0
   -2.3084   -5.1888    4.8309 C   0  0  0  0  0  0  0  0  0  0  0  0
   -2.2896   -6.4404    4.2107 C   0  0  0  0  0  0  0  0  0  0  0  0
   -2.7267   -7.5751    4.9033 C   0  0  0  0  0  0  0  0  0  0  0  0
   -2.6698   -9.1789    4.1010 S   0  0  0  0  0  0  0  0  0  0  0  0
   -0.9118   -9.4580    4.5056 C   0  0  0  0  0  0  0  0  0  0  0  0
   -0.4043  -10.7054    3.7977 C   0  0  0  0  0  0  0  0  0  0  0  0
   -3.2089   -7.4492    6.2130 C   0  0  0  0  0  0  0  0  0  0  0  0
   -3.2560   -6.1915    6.8235 C   0  0  0  0  0  0  0  0  0  0  0  0
   -3.6486   -8.5397    6.8918 F   0  0  0  0  0  0  0  0  0  0  0  0
   -2.1948   -3.4813    8.0108 C   0  0  0  0  0  0  0  0  0  0  0  0
   -1.2546   -4.5452    8.9154 S   0  0  0  0  0  0  0  0  0  0  0  0
   -4.2181   -2.6244    4.9857 C   0  0  0  0  0  0  0  0  0  0  0  0
   -4.7192   -1.3716    4.6371 C   0  0  0  0  0  0  0  0  0  0  0  0
   -4.3356   -0.2670    5.8535 S   0  0  0  0  0  0  0  0  0  0  0  0
   -5.3231   -1.0372    3.3378 C   0  0  0  0  0  0  0  0  0  0  0  0
   -5.4653    0.2488    2.8149 C   0  0  0  0  0  0  0  0  0  0  0  0
   -5.8549    0.2503    1.4633 C   0  0  0  0  0  0  0  0  0  0  0  0
   -5.9624    1.3789    0.6203 C   0  0  0  0  0  0  0  0  0  0  0  0
   -5.6679    2.7516    1.1008 C   0  0  0  0  0  0  0  0  0  0  0  0
   -4.6292    3.4976    0.5163 C   0  0  0  0  0  0  0  0  0  0  0  0
   -4.3912    4.8122    0.9169 C   0  0  0  0  0  0  0  0  0  0  0  0
   -5.1465    5.3814    1.9452 C   0  0  0  0  0  0  0  0  0  0  0  0
   -4.8303    7.0801    2.4346 S   0  0  0  0  0  0  0  0  0  0  0  0
   -3.4220    6.6507    3.5140 C   0  0  0  0  0  0  0  0  0  0  0  0
   -2.6755    7.9141    3.9177 C   0  0  0  0  0  0  0  0  0  0  0  0
   -6.1661    4.6358    2.5572 C   0  0  0  0  0  0  0  0  0  0  0  0
   -6.9107    5.1804    3.5520 F   0  0  0  0  0  0  0  0  0  0  0  0
   -6.4278    3.3282    2.1304 C   0  0  0  0  0  0  0  0  0  0  0  0
   -6.2026    1.1230   -0.7449 C   0  0  0  0  0  0  0  0  0  0  0  0
   -6.2950   -0.1669   -1.2726 C   0  0  0  0  0  0  0  0  0  0  0  0
   -6.2505   -1.2846   -0.4202 C   0  0  0  0  0  0  0  0  0  0  0  0
   -6.4278   -2.6591   -0.9224 C   0  0  0  0  0  0  0  0  0  0  0  0
   -7.7151   -3.1244   -1.2280 C   0  0  0  0  0  0  0  0  0  0  0  0
   -7.9052   -4.4464   -1.6348 C   0  0  0  0  0  0  0  0  0  0  0  0
   -6.8100   -5.3118   -1.7512 C   0  0  0  0  0  0  0  0  0  0  0  0
   -7.0719   -7.0166   -2.2464 S   0  0  0  0  0  0  0  0  0  0  0  0
   -6.9907   -6.6439   -4.0299 C   0  0  0  0  0  0  0  0  0  0  0  0
   -7.2332   -7.9124   -4.8342 C   0  0  0  0  0  0  0  0  0  0  0  0
   -5.5216   -4.8501   -1.4464 C   0  0  0  0  0  0  0  0  0  0  0  0
   -5.3304   -3.5249   -1.0398 C   0  0  0  0  0  0  0  0  0  0  0  0
   -4.4563   -5.6869   -1.5300 F   0  0  0  0  0  0  0  0  0  0  0  0
   -6.0168   -1.0396    0.9419 C   0  0  0  0  0  0  0  0  0  0  0  0
   -5.6940   -2.1687    2.1422 S   0  0  0  0  0  0  0  0  0  0  0  0
   -6.2575   -0.2031   -2.6794 C   0  0  0  0  0  0  0  0  0  0  0  0
   -6.1575    1.0669   -3.2646 C   0  0  0  0  0  0  0  0  0  0  0  0
   -6.1563    2.2090   -2.0188 S   0  0  0  0  0  0  0  0  0  0  0  0
   -5.5751    1.3842   -4.5887 C   0  0  0  0  0  0  0  0  0  0  0  0
   -4.4935    2.6580   -4.7669 S   0  0  0  0  0  0  0  0  0  0  0  0
   -3.9024    2.2870   -6.2877 C   0  0  0  0  0  0  0  0  0  0  0  0
   -4.5416    1.1135   -6.6872 C   0  0  0  0  0  0  0  0  0  0  0  0
   -5.4776    0.6178   -5.7622 C   0  0  0  0  0  0  0  0  0  0  0  0
   -6.2017   -0.6532   -6.1015 C   0  0  0  0  0  0  0  0  0  0  0  0
   -5.2018   -1.7095   -6.6425 C   0  0  2  0  0  0  0  0  0  0  0  0
   -4.4508   -2.3860   -5.5247 C   0  0  0  0  0  0  0  0  0  0  0  0
   -3.9837   -1.7073   -4.5670 O   0  0  0  0  0  0  0  0  0  0  0  0
   -4.1794   -3.7542   -5.6187 O   0  0  0  0  0  0  0  0  0  0  0  0
   -3.3709   -4.4360   -4.6692 C   0  0  0  0  0  0  0  0  0  0  0  0
   -4.1865   -1.1475   -7.6948 C   0  0  0  0  0  0  0  0  0  0  0  0
   -4.2950    0.3664   -7.9655 C   0  0  0  0  0  0  0  0  0  0  0  0
   -2.5910    2.7724   -6.7449 C   0  0  0  0  0  0  0  0  0  0  0  0
   -1.2437    1.7684   -6.7441 S   0  0  0  0  0  0  0  0  0  0  0  0
   -0.0577    2.9466   -6.5597 C   0  0  0  0  0  0  0  0  0  0  0  0
   -0.7159    4.1800   -6.5081 C   0  0  0  0  0  0  0  0  0  0  0  0
   -2.1153    4.0809   -6.6016 C   0  0  0  0  0  0  0  0  0  0  0  0
   -2.9446    5.2950   -6.2829 C   0  0  0  0  0  0  0  0  0  0  0  0
   -2.3356    5.9501   -5.0258 C   0  0  2  0  0  0  0  0  0  0  0  0
   -3.1753    7.0851   -4.5180 C   0  0  0  0  0  0  0  0  0  0  0  0
   -3.6583    7.9328   -5.3201 O   0  0  0  0  0  0  0  0  0  0  0  0
   -3.3782    7.2117   -3.1387 O   0  0  0  0  0  0  0  0  0  0  0  0
   -4.1609    8.2509   -2.5673 C   0  0  0  0  0  0  0  0  0  0  0  0
   -0.8651    6.3961   -5.2628 C   0  0  0  0  0  0  0  0  0  0  0  0
   -0.0867    5.5357   -6.2960 C   0  0  0  0  0  0  0  0  0  0  0  0
    1.2765    2.6196   -6.0238 C   0  0  0  0  0  0  0  0  0  0  0  0
    1.9255    1.4029   -6.2395 C   0  0  0  0  0  0  0  0  0  0  0  0
    2.9291    1.1305   -5.2924 C   0  0  0  0  0  0  0  0  0  0  0  0
    3.6724   -0.0640   -5.1790 C   0  0  0  0  0  0  0  0  0  0  0  0
    3.4725   -1.2083   -6.0943 C   0  0  0  0  0  0  0  0  0  0  0  0
    2.2231   -1.8439   -6.1715 C   0  0  0  0  0  0  0  0  0  0  0  0
    2.0412   -2.9341   -7.0255 C   0  0  0  0  0  0  0  0  0  0  0  0
    3.1058   -3.4013   -7.8058 C   0  0  0  0  0  0  0  0  0  0  0  0
    2.8609   -4.8047   -8.8978 S   0  0  0  0  0  0  0  0  0  0  0  0
    2.3986   -3.7699  -10.3277 C   0  0  0  0  0  0  0  0  0  0  0  0
    2.1379   -4.6486  -11.5430 C   0  0  0  0  0  0  0  0  0  0  0  0
    4.3586   -2.7796   -7.7188 C   0  0  0  0  0  0  0  0  0  0  0  0
    5.4001   -3.2293   -8.4624 F   0  0  0  0  0  0  0  0  0  0  0  0
    4.5403   -1.6858   -6.8687 C   0  0  0  0  0  0  0  0  0  0  0  0
    4.5488   -0.1649   -4.0824 C   0  0  0  0  0  0  0  0  0  0  0  0
    4.6900    0.8519   -3.1327 C   0  0  0  0  0  0  0  0  0  0  0  0
    3.9568    2.0483   -3.2538 C   0  0  0  0  0  0  0  0  0  0  0  0
    4.0088    3.0969   -2.2175 C   0  0  0  0  0  0  0  0  0  0  0  0
    5.1413    3.9146   -2.0937 C   0  0  0  0  0  0  0  0  0  0  0  0
    5.1829    4.9110   -1.1143 C   0  0  0  0  0  0  0  0  0  0  0  0
    4.0940    5.0955   -0.2520 C   0  0  0  0  0  0  0  0  0  0  0  0
    4.1471    6.3963    0.9854 S   0  0  0  0  0  0  0  0  0  0  0  0
    3.5101    7.7096   -0.1179 C   0  0  0  0  0  0  0  0  0  0  0  0
    1.9886    7.6693   -0.2011 C   0  0  0  0  0  0  0  0  0  0  0  0
    2.9743    4.2578   -0.3535 C   0  0  0  0  0  0  0  0  0  0  0  0
    2.9282    3.2693   -1.3395 C   0  0  0  0  0  0  0  0  0  0  0  0
    1.9302    4.3986    0.5009 F   0  0  0  0  0  0  0  0  0  0  0  0
    3.0804    2.1482   -4.3464 C   0  0  0  0  0  0  0  0  0  0  0  0
    1.9584    3.3547   -4.6633 S   0  0  0  0  0  0  0  0  0  0  0  0
    5.4994    0.4892   -2.0427 C   0  0  0  0  0  0  0  0  0  0  0  0
    5.9717   -0.8205   -2.1319 C   0  0  0  0  0  0  0  0  0  0  0  0
    5.4072   -1.5137   -3.5641 S   0  0  0  0  0  0  0  0  0  0  0  0
    6.6676   -1.5600   -1.0666 C   0  0  0  0  0  0  0  0  0  0  0  0
    7.0621   -1.0477    0.1706 C   0  0  0  0  0  0  0  0  0  0  0  0
    7.5533   -2.0363    1.0419 C   0  0  0  0  0  0  0  0  0  0  0  0
    7.9779   -1.8455    2.3750 C   0  0  0  0  0  0  0  0  0  0  0  0
    7.9503   -0.5188    3.0260 C   0  0  0  0  0  0  0  0  0  0  0  0
    6.7340    0.1589    3.2002 C   0  0  0  0  0  0  0  0  0  0  0  0
    6.7104    1.4171    3.8071 C   0  0  0  0  0  0  0  0  0  0  0  0
    7.9014    2.0105    4.2430 C   0  0  0  0  0  0  0  0  0  0  0  0
    7.8617    3.6312    5.0161 S   0  0  0  0  0  0  0  0  0  0  0  0
    8.2204    4.5566    3.4792 C   0  0  0  0  0  0  0  0  0  0  0  0
    6.9575    4.7588    2.6508 C   0  0  0  0  0  0  0  0  0  0  0  0
    9.1161    1.3259    4.0946 C   0  0  0  0  0  0  0  0  0  0  0  0
   10.2742    1.8820    4.5310 F   0  0  0  0  0  0  0  0  0  0  0  0
    9.1406    0.0677    3.4837 C   0  0  0  0  0  0  0  0  0  0  0  0
    8.3982   -2.9907    3.0763 C   0  0  0  0  0  0  0  0  0  0  0  0
    8.3920   -4.2686    2.5096 C   0  0  0  0  0  0  0  0  0  0  0  0
    7.9693   -4.4588    1.1785 C   0  0  0  0  0  0  0  0  0  0  0  0
    7.8787   -5.7979    0.5609 C   0  0  0  0  0  0  0  0  0  0  0  0
    8.6455   -6.1084   -0.5725 C   0  0  0  0  0  0  0  0  0  0  0  0
    8.5042   -7.3495   -1.1979 C   0  0  0  0  0  0  0  0  0  0  0  0
    7.5865   -8.2860   -0.7054 C   0  0  0  0  0  0  0  0  0  0  0  0
    7.3899   -9.8693   -1.5306 S   0  0  0  0  0  0  0  0  0  0  0  0
    6.0232   -9.3249   -2.6186 C   0  0  0  0  0  0  0  0  0  0  0  0
    6.5638   -8.6436   -3.8706 C   0  0  0  0  0  0  0  0  0  0  0  0
    6.8347   -7.9878    0.4395 C   0  0  0  0  0  0  0  0  0  0  0  0
    6.9771   -6.7464    1.0676 C   0  0  0  0  0  0  0  0  0  0  0  0
    5.9525   -8.8908    0.9364 F   0  0  0  0  0  0  0  0  0  0  0  0
    7.5639   -3.3135    0.4725 C   0  0  0  0  0  0  0  0  0  0  0  0
    6.9427   -3.2252   -1.0880 S   0  0  0  0  0  0  0  0  0  0  0  0
    8.8302   -5.2675    3.3949 C   0  0  0  0  0  0  0  0  0  0  0  0
    9.1630   -4.7757    4.6532 C   0  0  0  0  0  0  0  0  0  0  0  0
    8.9207   -3.1074    4.6716 S   0  0  0  0  0  0  0  0  0  0  0  0
   -0.1951   -3.6348   10.9608 H   0  0  0  0  0  0  0  0  0  0  0  0
   -1.2656   -1.3292   10.4232 H   0  0  0  0  0  0  0  0  0  0  0  0
   -2.0751    1.2824    7.0616 H   0  0  0  0  0  0  0  0  0  0  0  0
   -2.2959    3.4824    8.1373 H   0  0  0  0  0  0  0  0  0  0  0  0
   -0.8905    3.9539   10.7458 H   0  0  0  0  0  0  0  0  0  0  0  0
   -1.6641    3.4894   12.3147 H   0  0  0  0  0  0  0  0  0  0  0  0
   -2.0573    5.9289   12.8078 H   0  0  0  0  0  0  0  0  0  0  0  0
   -0.3048    5.5488   12.5758 H   0  0  0  0  0  0  0  0  0  0  0  0
   -1.2318    6.3534   11.2506 H   0  0  0  0  0  0  0  0  0  0  0  0
   -3.8317   -0.5824   10.5342 H   0  0  0  0  0  0  0  0  0  0  0  0
   -1.9426   -4.3256    4.2873 H   0  0  0  0  0  0  0  0  0  0  0  0
   -1.9242   -6.5301    3.1963 H   0  0  0  0  0  0  0  0  0  0  0  0
   -0.7945   -9.5782    5.6046 H   0  0  0  0  0  0  0  0  0  0  0  0
   -0.3067   -8.5879    4.1704 H   0  0  0  0  0  0  0  0  0  0  0  0
   -0.5294  -10.5960    2.6996 H   0  0  0  0  0  0  0  0  0  0  0  0
   -0.9652  -11.5982    4.1460 H   0  0  0  0  0  0  0  0  0  0  0  0
    0.6744  -10.8480    4.0206 H   0  0  0  0  0  0  0  0  0  0  0  0
   -3.6540   -6.1018    7.8271 H   0  0  0  0  0  0  0  0  0  0  0  0
   -4.3349   -3.4971    4.3574 H   0  0  0  0  0  0  0  0  0  0  0  0
   -5.2191    1.1432    3.3711 H   0  0  0  0  0  0  0  0  0  0  0  0
   -4.0118    3.0657   -0.2608 H   0  0  0  0  0  0  0  0  0  0  0  0
   -3.6071    5.3847    0.4356 H   0  0  0  0  0  0  0  0  0  0  0  0
   -2.7174    5.9796    2.9765 H   0  0  0  0  0  0  0  0  0  0  0  0
   -3.7949    6.1307    4.4224 H   0  0  0  0  0  0  0  0  0  0  0  0
   -2.2751    8.4231    3.0146 H   0  0  0  0  0  0  0  0  0  0  0  0
   -1.8269    7.6509    4.5840 H   0  0  0  0  0  0  0  0  0  0  0  0
   -3.3553    8.6058    4.4573 H   0  0  0  0  0  0  0  0  0  0  0  0
   -7.2359    2.7699    2.5898 H   0  0  0  0  0  0  0  0  0  0  0  0
   -8.5705   -2.4692   -1.1297 H   0  0  0  0  0  0  0  0  0  0  0  0
   -8.9049   -4.8017   -1.8540 H   0  0  0  0  0  0  0  0  0  0  0  0
   -5.9898   -6.2316   -4.2807 H   0  0  0  0  0  0  0  0  0  0  0  0
   -7.7680   -5.8942   -4.2917 H   0  0  0  0  0  0  0  0  0  0  0  0
   -7.2047   -7.6784   -5.9202 H   0  0  0  0  0  0  0  0  0  0  0  0
   -8.2290   -8.3392   -4.5855 H   0  0  0  0  0  0  0  0  0  0  0  0
   -6.4469   -8.6640   -4.6090 H   0  0  0  0  0  0  0  0  0  0  0  0
   -4.3325   -3.1751   -0.8057 H   0  0  0  0  0  0  0  0  0  0  0  0
   -6.1479   -1.1295   -3.2168 H   0  0  0  0  0  0  0  0  0  0  0  0
   -6.8000   -1.0527   -5.2636 H   0  0  0  0  0  0  0  0  0  0  0  0
   -6.9325   -0.4176   -6.9064 H   0  0  0  0  0  0  0  0  0  0  0  0
   -5.8123   -2.4931   -7.1445 H   0  0  0  0  0  0  0  0  0  0  0  0
   -2.3495   -3.9947   -4.6504 H   0  0  0  0  0  0  0  0  0  0  0  0
   -3.8233   -4.3503   -3.6608 H   0  0  0  0  0  0  0  0  0  0  0  0
   -3.2999   -5.5092   -4.9437 H   0  0  0  0  0  0  0  0  0  0  0  0
   -3.1400   -1.3529   -7.3786 H   0  0  0  0  0  0  0  0  0  0  0  0
   -4.3213   -1.6842   -8.6569 H   0  0  0  0  0  0  0  0  0  0  0  0
   -5.1496    0.5533   -8.6509 H   0  0  0  0  0  0  0  0  0  0  0  0
   -3.3763    0.7220   -8.4770 H   0  0  0  0  0  0  0  0  0  0  0  0
   -2.8967    6.0018   -7.1398 H   0  0  0  0  0  0  0  0  0  0  0  0
   -4.0104    5.0384   -6.1181 H   0  0  0  0  0  0  0  0  0  0  0  0
   -2.3268    5.1733   -4.2263 H   0  0  0  0  0  0  0  0  0  0  0  0
   -4.1522    8.1470   -1.4621 H   0  0  0  0  0  0  0  0  0  0  0  0
   -3.7375    9.2413   -2.8392 H   0  0  0  0  0  0  0  0  0  0  0  0
   -5.2098    8.1783   -2.9267 H   0  0  0  0  0  0  0  0  0  0  0  0
   -0.8392    7.4525   -5.6089 H   0  0  0  0  0  0  0  0  0  0  0  0
   -0.3328    6.3647   -4.2893 H   0  0  0  0  0  0  0  0  0  0  0  0
    0.9798    5.4696   -6.0124 H   0  0  0  0  0  0  0  0  0  0  0  0
   -0.1102    6.0587   -7.2762 H   0  0  0  0  0  0  0  0  0  0  0  0
    1.6188    0.7063   -7.0079 H   0  0  0  0  0  0  0  0  0  0  0  0
    1.3936   -1.4971   -5.5664 H   0  0  0  0  0  0  0  0  0  0  0  0
    1.0730   -3.4153   -7.0789 H   0  0  0  0  0  0  0  0  0  0  0  0
    3.2242   -3.0618  -10.5589 H   0  0  0  0  0  0  0  0  0  0  0  0
    1.4800   -3.1915  -10.0894 H   0  0  0  0  0  0  0  0  0  0  0  0
    1.8537   -4.0140  -12.4095 H   0  0  0  0  0  0  0  0  0  0  0  0
    1.3110   -5.3595  -11.3304 H   0  0  0  0  0  0  0  0  0  0  0  0
    3.0551   -5.2192  -11.8033 H   0  0  0  0  0  0  0  0  0  0  0  0
    5.5106   -1.2076   -6.8132 H   0  0  0  0  0  0  0  0  0  0  0  0
    5.9863    3.7827   -2.7597 H   0  0  0  0  0  0  0  0  0  0  0  0
    6.0578    5.5439   -1.0314 H   0  0  0  0  0  0  0  0  0  0  0  0
    3.9520    7.6196   -1.1337 H   0  0  0  0  0  0  0  0  0  0  0  0
    3.8182    8.6906    0.3022 H   0  0  0  0  0  0  0  0  0  0  0  0
    1.6274    8.5451   -0.7800 H   0  0  0  0  0  0  0  0  0  0  0  0
    1.5449    7.7073    0.8172 H   0  0  0  0  0  0  0  0  0  0  0  0
    1.6514    6.7482   -0.7182 H   0  0  0  0  0  0  0  0  0  0  0  0
    2.0571    2.6319   -1.4159 H   0  0  0  0  0  0  0  0  0  0  0  0
    5.6702    1.1276   -1.1860 H   0  0  0  0  0  0  0  0  0  0  0  0
    6.9671   -0.0042    0.4378 H   0  0  0  0  0  0  0  0  0  0  0  0
    5.8058   -0.2883    2.8683 H   0  0  0  0  0  0  0  0  0  0  0  0
    5.7676    1.9318    3.9322 H   0  0  0  0  0  0  0  0  0  0  0  0
    8.9928    4.0331    2.8751 H   0  0  0  0  0  0  0  0  0  0  0  0
    8.6238    5.5520    3.7630 H   0  0  0  0  0  0  0  0  0  0  0  0
    7.1851    5.4096    1.7802 H   0  0  0  0  0  0  0  0  0  0  0  0
    6.5783    3.7879    2.2722 H   0  0  0  0  0  0  0  0  0  0  0  0
    6.1707    5.2454    3.2655 H   0  0  0  0  0  0  0  0  0  0  0  0
   10.0864   -0.4473    3.3624 H   0  0  0  0  0  0  0  0  0  0  0  0
    9.3452   -5.3847   -0.9736 H   0  0  0  0  0  0  0  0  0  0  0  0
    9.0985   -7.5767   -2.0738 H   0  0  0  0  0  0  0  0  0  0  0  0
    5.3316   -8.6428   -2.0790 H   0  0  0  0  0  0  0  0  0  0  0  0
    5.4455  -10.2244   -2.9217 H   0  0  0  0  0  0  0  0  0  0  0  0
    5.7251   -8.4362   -4.5694 H   0  0  0  0  0  0  0  0  0  0  0  0
    7.0518   -7.6813   -3.6103 H   0  0  0  0  0  0  0  0  0  0  0  0
    7.3005   -9.3030   -4.3805 H   0  0  0  0  0  0  0  0  0  0  0  0
    6.3712   -6.5168    1.9357 H   0  0  0  0  0  0  0  0  0  0  0  0
    8.9049   -6.3150    3.1396 H   0  0  0  0  0  0  0  0  0  0  0  0
    9.5161   -5.3694    5.4861 H   0  0  0  0  0  0  0  0  0  0  0  0
  1  2  2  0
  2  3  1  0
  3  4  2  0
  4  5  1  0
  5  6  2  0
  6  7  1  0
  7  8  2  0
  8  9  1  0
  9 10  1  0
 10 11  1  0
  8 12  1  0
 12 13  1  0
 12 14  2  0
  4 15  1  0
 15 16  2  0
 16 17  1  0
 17 18  1  0
 18 19  2  0
 19 20  1  0
 20 21  2  0
 21 22  1  0
 22 23  1  0
 23 24  1  0
 21 25  1  0
 25 26  2  0
 25 27  1  0
 17 28  2  0
 28 29  1  0
 16 30  1  0
 30 31  2  0
 31 32  1  0
 31 33  1  0
 33 34  2  0
 34 35  1  0
 35 36  2  0
 36 37  1  0
 37 38  2  0
 38 39  1  0
 39 40  2  0
 40 41  1  0
 41 42  1  0
 42 43  1  0
 40 44  1  0
 44 45  1  0
 44 46  2  0
 36 47  1  0
 47 48  2  0
 48 49  1  0
 49 50  1  0
 50 51  2  0
 51 52  1  0
 52 53  2  0
 53 54  1  0
 54 55  1  0
 55 56  1  0
 53 57  1  0
 57 58  2  0
 57 59  1  0
 49 60  2  0
 60 61  1  0
 48 62  1  0
 62 63  2  0
 63 64  1  0
 63 65  1  0
 65 66  1  0
 66 67  1  0
 67 68  2  0
 68 69  1  0
 69 70  1  0
 70 71  1  0
 71 72  1  0
 72 73  2  0
 72 74  1  0
 74 75  1  0
 71 76  1  0
 76 77  1  0
 67 78  1  0
 78 79  1  0
 79 80  1  0
 80 81  2  0
 81 82  1  0
 82 83  1  0
 83 84  1  0
 84 85  1  0
 85 86  2  0
 85 87  1  0
 87 88  1  0
 84 89  1  0
 89 90  1  0
 80 91  1  0
 91 92  2  0
 92 93  1  0
 93 94  2  0
 94 95  1  0
 95 96  2  0
 96 97  1  0
 97 98  2  0
 98 99  1  0
 99100  1  0
100101  1  0
 98102  1  0
102103  1  0
102104  2  0
 94105  1  0
105106  2  0
106107  1  0
107108  1  0
108109  2  0
109110  1  0
110111  2  0
111112  1  0
112113  1  0
113114  1  0
111115  1  0
115116  2  0
115117  1  0
107118  2  0
118119  1  0
106120  1  0
120121  2  0
121122  1  0
121123  1  0
123124  2  0
124125  1  0
125126  2  0
126127  1  0
127128  2  0
128129  1  0
129130  2  0
130131  1  0
131132  1  0
132133  1  0
130134  1  0
134135  1  0
134136  2  0
126137  1  0
137138  2  0
138139  1  0
139140  1  0
140141  2  0
141142  1  0
142143  2  0
143144  1  0
144145  1  0
145146  1  0
143147  1  0
147148  2  0
147149  1  0
139150  2  0
150151  1  0
138152  1  0
152153  2  0
153154  1  0
 29  1  1  0
 61 33  1  0
 69 65  2  0
 82 78  2  0
119 91  1  0
151123  1  0
 28  3  1  0
 60 35  1  0
 77 68  1  0
 90 81  1  0
118 93  1  0
150125  1  0
 14  5  1  0
 32 15  1  0
 46 37  1  0
 64 47  1  0
104 95  1  0
122105  1  0
136127  1  0
154137  1  0
 26 18  1  0
 58 50  1  0
116108  1  0
148140  1  0
  1155  1  0
  2156  1  0
  6157  1  0
  7158  1  0
 10159  1  0
 10160  1  0
 11161  1  0
 11162  1  0
 11163  1  0
 14164  1  0
 19165  1  0
 20166  1  0
 23167  1  0
 23168  1  0
 24169  1  0
 24170  1  0
 24171  1  0
 26172  1  0
 30173  1  0
 34174  1  0
 38175  1  0
 39176  1  0
 42177  1  0
 42178  1  0
 43179  1  0
 43180  1  0
 43181  1  0
 46182  1  0
 51183  1  0
 52184  1  0
 55185  1  0
 55186  1  0
 56187  1  0
 56188  1  0
 56189  1  0
 58190  1  0
 62191  1  0
 70192  1  0
 70193  1  0
 71194  1  6
 75195  1  0
 75196  1  0
 75197  1  0
 76198  1  0
 76199  1  0
 77200  1  0
 77201  1  0
 83202  1  0
 83203  1  0
 84204  1  1
 88205  1  0
 88206  1  0
 88207  1  0
 89208  1  0
 89209  1  0
 90210  1  0
 90211  1  0
 92212  1  0
 96213  1  0
 97214  1  0
100215  1  0
100216  1  0
101217  1  0
101218  1  0
101219  1  0
104220  1  0
109221  1  0
110222  1  0
113223  1  0
113224  1  0
114225  1  0
114226  1  0
114227  1  0
116228  1  0
120229  1  0
124230  1  0
128231  1  0
129232  1  0
132233  1  0
132234  1  0
133235  1  0
133236  1  0
133237  1  0
136238  1  0
141239  1  0
142240  1  0
145241  1  0
145242  1  0
146243  1  0
146244  1  0
146245  1  0
148246  1  0
152247  1  0
153248  1  0
M  END

