
     RDKit          3D

158179  0  0  0  0  0  0  0  0999 V2000
    3.3050    3.5688   10.7897 C   0  0  0  0  0  0  0  0  0  0  0  0
    2.0460    3.3946   10.2129 C   0  0  0  0  0  0  0  0  0  0  0  0
    1.6915    2.2450    9.5034 C   0  0  0  0  0  0  0  0  0  0  0  0
    0.4409    2.2745    8.9694 N   0  0  0  0  0  0  0  0  0  0  0  0
   -0.2056    3.4279    9.2651 C   0  0  0  0  0  0  0  0  0  0  0  0
    0.7555    4.4679   10.1905 S   0  0  0  0  0  0  0  0  0  0  0  0
    2.6128    1.1843    9.3402 C   0  0  0  0  0  0  0  0  0  0  0  0
    3.8879    1.3729    9.9177 C   0  0  0  0  0  0  0  0  0  0  0  0
    4.2290    2.5316   10.6249 C   0  0  0  0  0  0  0  0  0  0  0  0
    5.4896    2.5597   11.1298 N   0  0  0  0  0  0  0  0  0  0  0  0
    6.1677    1.4244   10.8348 C   0  0  0  0  0  0  0  0  0  0  0  0
    5.2228    0.3457    9.9439 S   0  0  0  0  0  0  0  0  0  0  0  0
    2.2666   -0.0328    8.5708 C   0  0  0  0  0  0  0  0  0  0  0  0
    1.0090   -0.6377    8.5271 C   0  0  0  0  0  0  0  0  0  0  0  0
    0.9257   -1.6771    7.5840 C   0  0  0  0  0  0  0  0  0  0  0  0
   -0.2387   -2.3964    7.2230 C   0  0  0  0  0  0  0  0  0  0  0  0
   -1.5744   -2.0872    7.7898 C   0  0  0  0  0  0  0  0  0  0  0  0
   -2.0981   -0.7854    7.7162 C   0  0  0  0  0  0  0  0  0  0  0  0
   -3.3877   -0.5167    8.1848 C   0  0  0  0  0  0  0  0  0  0  0  0
   -4.1746   -1.5451    8.7163 C   0  0  0  0  0  0  0  0  0  0  0  0
   -5.8355   -1.1853    9.3018 S   0  0  0  0  0  0  0  0  0  0  0  0
   -6.6485   -1.4019    7.6746 C   0  0  0  0  0  0  0  0  0  0  0  0
   -6.8808   -2.8769    7.3701 C   0  0  0  0  0  0  0  0  0  0  0  0
   -3.6536   -2.8421    8.8025 C   0  0  0  0  0  0  0  0  0  0  0  0
   -4.3938   -3.8470    9.3320 F   0  0  0  0  0  0  0  0  0  0  0  0
   -2.3621   -3.1116    8.3350 C   0  0  0  0  0  0  0  0  0  0  0  0
   -0.1023   -3.3389    6.1856 C   0  0  0  0  0  0  0  0  0  0  0  0
    1.1071   -3.5552    5.5183 C   0  0  0  0  0  0  0  0  0  0  0  0
    2.2702   -2.8473    5.8872 C   0  0  0  0  0  0  0  0  0  0  0  0
    3.5389   -2.9865    5.1408 C   0  0  0  0  0  0  0  0  0  0  0  0
    3.6161   -2.5869    3.7977 C   0  0  0  0  0  0  0  0  0  0  0  0
    4.7973   -2.7703    3.0762 C   0  0  0  0  0  0  0  0  0  0  0  0
    5.9137   -3.3521    3.6866 C   0  0  0  0  0  0  0  0  0  0  0  0
    7.4175   -3.5986    2.7355 S   0  0  0  0  0  0  0  0  0  0  0  0
    6.9112   -5.2079    2.0291 C   0  0  0  0  0  0  0  0  0  0  0  0
    7.1840   -6.3432    3.0061 C   0  0  0  0  0  0  0  0  0  0  0  0
    5.8542   -3.7175    5.0388 C   0  0  0  0  0  0  0  0  0  0  0  0
    4.6694   -3.5373    5.7624 C   0  0  0  0  0  0  0  0  0  0  0  0
    6.9376   -4.2557    5.6511 F   0  0  0  0  0  0  0  0  0  0  0  0
    2.1388   -1.9135    6.9266 C   0  0  0  0  0  0  0  0  0  0  0  0
    3.2842   -0.8089    7.4691 S   0  0  0  0  0  0  0  0  0  0  0  0
    0.9781   -4.3867    4.3935 C   0  0  0  0  0  0  0  0  0  0  0  0
   -0.3358   -4.7678    4.1282 C   0  0  0  0  0  0  0  0  0  0  0  0
   -1.3257   -4.1321    5.3455 S   0  0  0  0  0  0  0  0  0  0  0  0
   -0.7905   -5.0883    2.7589 C   0  0  0  0  0  0  0  0  0  0  0  0
   -0.1228   -6.0446    1.9677 C   0  0  0  0  0  0  0  0  0  0  0  0
   -0.2320   -6.0808    0.5733 C   0  0  0  0  0  0  0  0  0  0  0  0
    0.5382   -7.0216   -0.0380 N   0  0  0  0  0  0  0  0  0  0  0  0
    1.2583   -7.7395    0.8546 C   0  0  0  0  0  0  0  0  0  0  0  0
    0.9834   -7.2193    2.4386 S   0  0  0  0  0  0  0  0  0  0  0  0
   -1.0276   -5.1415   -0.1075 C   0  0  0  0  0  0  0  0  0  0  0  0
   -1.7716   -4.2513    0.6911 C   0  0  0  0  0  0  0  0  0  0  0  0
   -1.6653   -4.2153    2.0801 C   0  0  0  0  0  0  0  0  0  0  0  0
   -2.3434   -3.1959    2.6744 N   0  0  0  0  0  0  0  0  0  0  0  0
   -3.0028   -2.4260    1.7809 C   0  0  0  0  0  0  0  0  0  0  0  0
   -2.7391   -2.9578    0.2051 S   0  0  0  0  0  0  0  0  0  0  0  0
   -0.8960   -4.8863   -1.5594 C   0  0  0  0  0  0  0  0  0  0  0  0
    0.2994   -4.3803   -2.0896 C   0  0  0  0  0  0  0  0  0  0  0  0
    0.3581   -3.7050   -3.3127 C   0  0  0  0  0  0  0  0  0  0  0  0
    1.6000   -3.2515   -3.6354 N   0  0  0  0  0  0  0  0  0  0  0  0
    2.5194   -3.5310   -2.6826 C   0  0  0  0  0  0  0  0  0  0  0  0
    1.8274   -4.3421   -1.3817 S   0  0  0  0  0  0  0  0  0  0  0  0
   -0.8207   -3.4538   -4.0668 C   0  0  0  0  0  0  0  0  0  0  0  0
   -1.9822   -4.1383   -3.6111 C   0  0  0  0  0  0  0  0  0  0  0  0
   -2.0240   -4.8273   -2.3892 C   0  0  0  0  0  0  0  0  0  0  0  0
   -3.2339   -5.3492   -2.0458 N   0  0  0  0  0  0  0  0  0  0  0  0
   -4.1719   -5.1136   -2.9891 C   0  0  0  0  0  0  0  0  0  0  0  0
   -3.5316   -4.2333   -4.2722 S   0  0  0  0  0  0  0  0  0  0  0  0
   -0.8957   -2.3318   -5.0748 C   0  0  0  0  0  0  0  0  0  0  0  0
    0.0767   -1.3355   -5.2868 C   0  0  0  0  0  0  0  0  0  0  0  0
   -0.3951   -0.1872   -5.9479 C   0  0  0  0  0  0  0  0  0  0  0  0
    0.3278    1.0098   -6.1608 C   0  0  0  0  0  0  0  0  0  0  0  0
    1.7129    1.1998   -5.6691 C   0  0  0  0  0  0  0  0  0  0  0  0
    2.7376    1.5799   -6.5522 C   0  0  0  0  0  0  0  0  0  0  0  0
    4.0278    1.8268   -6.0693 C   0  0  0  0  0  0  0  0  0  0  0  0
    4.3072    1.6990   -4.7049 C   0  0  0  0  0  0  0  0  0  0  0  0
    5.9432    2.1002   -4.0814 S   0  0  0  0  0  0  0  0  0  0  0  0
    6.6093    0.4043   -4.1992 C   0  0  0  0  0  0  0  0  0  0  0  0
    7.7816    0.3819   -5.1655 C   0  0  0  0  0  0  0  0  0  0  0  0
    3.2904    1.3082   -3.8202 C   0  0  0  0  0  0  0  0  0  0  0  0
    3.5476    1.1767   -2.4946 F   0  0  0  0  0  0  0  0  0  0  0  0
    1.9999    1.0661   -4.2985 C   0  0  0  0  0  0  0  0  0  0  0  0
   -0.3805    2.0800   -6.7364 C   0  0  0  0  0  0  0  0  0  0  0  0
   -1.7381    1.9981   -7.0643 C   0  0  0  0  0  0  0  0  0  0  0  0
   -2.4526    0.7972   -6.8712 C   0  0  0  0  0  0  0  0  0  0  0  0
   -3.9067    0.7072   -7.1251 C   0  0  0  0  0  0  0  0  0  0  0  0
   -4.4140    0.9021   -8.4181 C   0  0  0  0  0  0  0  0  0  0  0  0
   -5.7931    0.8642   -8.6485 C   0  0  0  0  0  0  0  0  0  0  0  0
   -6.6768    0.6363   -7.5874 C   0  0  0  0  0  0  0  0  0  0  0  0
   -8.4466    0.5861   -7.8956 S   0  0  0  0  0  0  0  0  0  0  0  0
   -8.6974    2.3920   -7.7699 C   0  0  0  0  0  0  0  0  0  0  0  0
   -8.7616    2.8415   -6.3147 C   0  0  0  0  0  0  0  0  0  0  0  0
   -6.1729    0.4197   -6.2978 C   0  0  0  0  0  0  0  0  0  0  0  0
   -4.7949    0.4594   -6.0678 C   0  0  0  0  0  0  0  0  0  0  0  0
   -7.0136    0.1731   -5.2624 F   0  0  0  0  0  0  0  0  0  0  0  0
   -1.7389   -0.2767   -6.3104 C   0  0  0  0  0  0  0  0  0  0  0  0
   -2.3187   -1.7633   -5.8027 S   0  0  0  0  0  0  0  0  0  0  0  0
   -2.2806    3.2273   -7.4757 C   0  0  0  0  0  0  0  0  0  0  0  0
   -1.3536    4.2699   -7.4748 C   0  0  0  0  0  0  0  0  0  0  0  0
    0.1379    3.6641   -6.9631 S   0  0  0  0  0  0  0  0  0  0  0  0
   -1.6433    5.6822   -7.8115 C   0  0  0  0  0  0  0  0  0  0  0  0
   -1.0681    6.7611   -7.1024 C   0  0  0  0  0  0  0  0  0  0  0  0
   -1.3515    8.0973   -7.4075 C   0  0  0  0  0  0  0  0  0  0  0  0
   -0.7507    9.0208   -6.6106 N   0  0  0  0  0  0  0  0  0  0  0  0
    0.0091    8.4373   -5.6562 C   0  0  0  0  0  0  0  0  0  0  0  0
   -0.0397    6.7535   -5.7684 S   0  0  0  0  0  0  0  0  0  0  0  0
   -2.2211    8.4244   -8.4522 C   0  0  0  0  0  0  0  0  0  0  0  0
   -2.7955    7.3637   -9.1564 C   0  0  0  0  0  0  0  0  0  0  0  0
   -2.5275    6.0262   -8.8576 C   0  0  0  0  0  0  0  0  0  0  0  0
   -3.1700    5.1310   -9.6571 N   0  0  0  0  0  0  0  0  0  0  0  0
   -3.9479    5.7483  -10.5784 C   0  0  0  0  0  0  0  0  0  0  0  0
   -3.8663    7.4335  -10.4439 S   0  0  0  0  0  0  0  0  0  0  0  0
    3.5580    4.4712   11.3311 H   0  0  0  0  0  0  0  0  0  0  0  0
   -1.2107    3.6456    8.9312 H   0  0  0  0  0  0  0  0  0  0  0  0
    7.1861    1.2422   11.1490 H   0  0  0  0  0  0  0  0  0  0  0  0
    0.1814   -0.3193    9.1429 H   0  0  0  0  0  0  0  0  0  0  0  0
   -1.5170    0.0182    7.2806 H   0  0  0  0  0  0  0  0  0  0  0  0
   -3.7787    0.4918    8.1192 H   0  0  0  0  0  0  0  0  0  0  0  0
   -6.0490   -0.9358    6.8645 H   0  0  0  0  0  0  0  0  0  0  0  0
   -7.6338   -0.8894    7.7139 H   0  0  0  0  0  0  0  0  0  0  0  0
   -5.9180   -3.3869    7.1636 H   0  0  0  0  0  0  0  0  0  0  0  0
   -7.5232   -2.9764    6.4684 H   0  0  0  0  0  0  0  0  0  0  0  0
   -7.3876   -3.3727    8.2253 H   0  0  0  0  0  0  0  0  0  0  0  0
   -1.9794   -4.1230    8.3889 H   0  0  0  0  0  0  0  0  0  0  0  0
    2.7592   -2.1451    3.3044 H   0  0  0  0  0  0  0  0  0  0  0  0
    4.8391   -2.4707    2.0359 H   0  0  0  0  0  0  0  0  0  0  0  0
    7.5048   -5.3812    1.1083 H   0  0  0  0  0  0  0  0  0  0  0  0
    5.8379   -5.1976    1.7503 H   0  0  0  0  0  0  0  0  0  0  0  0
    8.2302   -6.2963    3.3730 H   0  0  0  0  0  0  0  0  0  0  0  0
    7.0304   -7.3212    2.4977 H   0  0  0  0  0  0  0  0  0  0  0  0
    6.4852   -6.2905    3.8657 H   0  0  0  0  0  0  0  0  0  0  0  0
    4.6264   -3.8393    6.8018 H   0  0  0  0  0  0  0  0  0  0  0  0
    1.7849   -4.5799    3.7019 H   0  0  0  0  0  0  0  0  0  0  0  0
    1.9292   -8.5397    0.5720 H   0  0  0  0  0  0  0  0  0  0  0  0
   -3.5970   -1.5682    2.0607 H   0  0  0  0  0  0  0  0  0  0  0  0
    3.5585   -3.2395   -2.7537 H   0  0  0  0  0  0  0  0  0  0  0  0
   -5.1972   -5.4485   -2.9062 H   0  0  0  0  0  0  0  0  0  0  0  0
    1.0846   -1.3792   -4.9194 H   0  0  0  0  0  0  0  0  0  0  0  0
    2.5341    1.6971   -7.6092 H   0  0  0  0  0  0  0  0  0  0  0  0
    4.8080    2.1290   -6.7586 H   0  0  0  0  0  0  0  0  0  0  0  0
    5.8431   -0.3281   -4.5306 H   0  0  0  0  0  0  0  0  0  0  0  0
    6.9681    0.1023   -3.1916 H   0  0  0  0  0  0  0  0  0  0  0  0
    8.5856    1.0600   -4.8067 H   0  0  0  0  0  0  0  0  0  0  0  0
    8.1883   -0.6498   -5.2434 H   0  0  0  0  0  0  0  0  0  0  0  0
    7.4453    0.7160   -6.1721 H   0  0  0  0  0  0  0  0  0  0  0  0
    1.2222    0.7914   -3.6008 H   0  0  0  0  0  0  0  0  0  0  0  0
   -3.7412    1.0904   -9.2463 H   0  0  0  0  0  0  0  0  0  0  0  0
   -6.1756    1.0151   -9.6501 H   0  0  0  0  0  0  0  0  0  0  0  0
   -9.6630    2.6382   -8.2613 H   0  0  0  0  0  0  0  0  0  0  0  0
   -7.8927    2.9409   -8.3055 H   0  0  0  0  0  0  0  0  0  0  0  0
   -9.5223    2.2454   -5.7635 H   0  0  0  0  0  0  0  0  0  0  0  0
   -7.7719    2.7247   -5.8265 H   0  0  0  0  0  0  0  0  0  0  0  0
   -9.0487    3.9123   -6.2688 H   0  0  0  0  0  0  0  0  0  0  0  0
   -4.4203    0.3145   -5.0601 H   0  0  0  0  0  0  0  0  0  0  0  0
   -3.3273    3.3718   -7.7072 H   0  0  0  0  0  0  0  0  0  0  0  0
    0.5682    8.9917   -4.9159 H   0  0  0  0  0  0  0  0  0  0  0  0
   -2.4494    9.4549   -8.6965 H   0  0  0  0  0  0  0  0  0  0  0  0
   -4.5428    5.2128  -11.3054 H   0  0  0  0  0  0  0  0  0  0  0  0
  1  2  2  0
  2  3  1  0
  3  4  1  0
  4  5  2  0
  5  6  1  0
  3  7  2  0
  7  8  1  0
  8  9  2  0
  9 10  1  0
 10 11  2  0
 11 12  1  0
  7 13  1  0
 13 14  2  0
 14 15  1  0
 15 16  2  0
 16 17  1  0
 17 18  2  0
 18 19  1  0
 19 20  2  0
 20 21  1  0
 21 22  1  0
 22 23  1  0
 20 24  1  0
 24 25  1  0
 24 26  2  0
 16 27  1  0
 27 28  2  0
 28 29  1  0
 29 30  1  0
 30 31  2  0
 31 32  1  0
 32 33  2  0
 33 34  1  0
 34 35  1  0
 35 36  1  0
 33 37  1  0
 37 38  2  0
 37 39  1  0
 29 40  2  0
 40 41  1  0
 28 42  1  0
 42 43  2  0
 43 44  1  0
 43 45  1  0
 45 46  1  0
 46 47  2  0
 47 48  1  0
 48 49  2  0
 49 50  1  0
 47 51  1  0
 51 52  2  0
 52 53  1  0
 53 54  1  0
 54 55  2  0
 55 56  1  0
 51 57  1  0
 57 58  1  0
 58 59  2  0
 59 60  1  0
 60 61  2  0
 61 62  1  0
 59 63  1  0
 63 64  2  0
 64 65  1  0
 65 66  1  0
 66 67  2  0
 67 68  1  0
 63 69  1  0
 69 70  2  0
 70 71  1  0
 71 72  2  0
 72 73  1  0
 73 74  2  0
 74 75  1  0
 75 76  2  0
 76 77  1  0
 77 78  1  0
 78 79  1  0
 76 80  1  0
 80 81  1  0
 80 82  2  0
 72 83  1  0
 83 84  2  0
 84 85  1  0
 85 86  1  0
 86 87  2  0
 87 88  1  0
 88 89  2  0
 89 90  1  0
 90 91  1  0
 91 92  1  0
 89 93  1  0
 93 94  2  0
 93 95  1  0
 85 96  2  0
 96 97  1  0
 84 98  1  0
 98 99  2  0
 99100  1  0
 99101  1  0
101102  1  0
102103  2  0
103104  1  0
104105  2  0
105106  1  0
103107  1  0
107108  2  0
108109  1  0
109110  1  0
110111  2  0
111112  1  0
  9  1  1  0
 41 13  1  0
 53 45  2  0
 65 57  2  0
 97 69  1  0
109101  2  0
  6  2  1  0
 12  8  1  0
 40 15  1  0
 50 46  1  0
 56 52  1  0
 62 58  1  0
 68 64  1  0
 96 71  1  0
106102  1  0
112108  1  0
 26 17  1  0
 44 27  1  0
 82 73  1  0
100 83  1  0
 38 30  1  0
 94 86  1  0
  1113  1  0
  5114  1  0
 11115  1  0
 14116  1  0
 18117  1  0
 19118  1  0
 22119  1  0
 22120  1  0
 23121  1  0
 23122  1  0
 23123  1  0
 26124  1  0
 31125  1  0
 32126  1  0
 35127  1  0
 35128  1  0
 36129  1  0
 36130  1  0
 36131  1  0
 38132  1  0
 42133  1  0
 49134  1  0
 55135  1  0
 61136  1  0
 67137  1  0
 70138  1  0
 74139  1  0
 75140  1  0
 78141  1  0
 78142  1  0
 79143  1  0
 79144  1  0
 79145  1  0
 82146  1  0
 87147  1  0
 88148  1  0
 91149  1  0
 91150  1  0
 92151  1  0
 92152  1  0
 92153  1  0
 94154  1  0
 98155  1  0
105156  1  0
107157  1  0
111158  1  0
M  END

