
     RDKit          3D

265292  0  0  0  0  0  0  0  0999 V2000
   -2.3114    3.0289    6.2520 C   0  0  0  0  0  0  0  0  0  0  0  0
   -1.5473    2.0088    6.7936 C   0  0  0  0  0  0  0  0  0  0  0  0
   -2.2332    0.7492    6.9034 C   0  0  0  0  0  0  0  0  0  0  0  0
   -1.6636   -0.4105    7.4039 C   0  0  0  0  0  0  0  0  0  0  0  0
   -0.3199   -0.5125    7.9154 C   0  0  0  0  0  0  0  0  0  0  0  0
    0.7433   -0.3326    7.0364 C   0  0  0  0  0  0  0  0  0  0  0  0
    2.0267   -0.2027    7.5284 C   0  0  0  0  0  0  0  0  0  0  0  0
    2.3024   -0.3282    8.8919 C   0  0  0  0  0  0  0  0  0  0  0  0
    3.8230    0.3235    9.6215 S   0  0  0  0  0  0  0  0  0  0  0  0
    5.1394   -0.2427    8.4497 C   0  0  0  0  0  0  0  0  0  0  0  0
    5.5026    0.8869    7.4919 C   0  0  0  0  0  0  0  0  0  0  0  0
    1.2600   -0.5969    9.7749 C   0  0  0  0  0  0  0  0  0  0  0  0
    1.5083   -0.6734   11.0979 F   0  0  0  0  0  0  0  0  0  0  0  0
   -0.0769   -0.6383    9.3017 C   0  0  0  0  0  0  0  0  0  0  0  0
   -2.4660   -1.5971    7.4238 C   0  0  0  0  0  0  0  0  0  0  0  0
   -3.7455   -1.5580    6.9795 C   0  0  0  0  0  0  0  0  0  0  0  0
   -4.3145   -0.4100    6.4953 C   0  0  0  0  0  0  0  0  0  0  0  0
   -5.7399   -0.2801    6.1747 C   0  0  0  0  0  0  0  0  0  0  0  0
   -6.4796    0.4269    7.0772 C   0  0  0  0  0  0  0  0  0  0  0  0
   -7.8719    0.5459    6.8836 C   0  0  0  0  0  0  0  0  0  0  0  0
   -8.4597   -0.1073    5.8318 C   0  0  0  0  0  0  0  0  0  0  0  0
  -10.2472    0.0670    5.6396 S   0  0  0  0  0  0  0  0  0  0  0  0
  -10.9677   -1.3147    6.5999 C   0  0  0  0  0  0  0  0  0  0  0  0
  -12.5058   -1.2237    6.5547 C   0  0  0  0  0  0  0  0  0  0  0  0
   -7.7200   -0.8136    4.8902 C   0  0  0  0  0  0  0  0  0  0  0  0
   -6.3068   -0.9167    5.0569 C   0  0  0  0  0  0  0  0  0  0  0  0
   -8.3651   -1.5301    3.9721 F   0  0  0  0  0  0  0  0  0  0  0  0
   -3.5150    0.7796    6.4661 C   0  0  0  0  0  0  0  0  0  0  0  0
   -3.8317    2.3421    5.9439 S   0  0  0  0  0  0  0  0  0  0  0  0
   -4.4317   -2.8281    7.0635 C   0  0  0  0  0  0  0  0  0  0  0  0
   -3.6497   -3.8470    7.6003 C   0  0  0  0  0  0  0  0  0  0  0  0
   -2.1377   -3.1659    7.9472 S   0  0  0  0  0  0  0  0  0  0  0  0
   -4.0903   -5.2756    7.7444 C   0  0  0  0  0  0  0  0  0  0  0  0
   -3.5698   -6.3589    8.9276 S   0  0  0  0  0  0  0  0  0  0  0  0
   -4.3262   -7.7344    8.2894 C   0  0  0  0  0  0  0  0  0  0  0  0
   -4.9873   -7.3862    7.1327 C   0  0  0  0  0  0  0  0  0  0  0  0
   -4.8680   -6.0274    6.8156 C   0  0  0  0  0  0  0  0  0  0  0  0
   -5.6254   -5.7580    5.3395 S   0  0  0  0  0  0  0  0  0  0  0  0
   -6.1589   -7.3460    5.0662 C   0  0  0  0  0  0  0  0  0  0  0  0
   -5.7237   -8.1235    6.1588 C   0  0  0  0  0  0  0  0  0  0  0  0
   -6.0634   -9.4424    6.0268 C   0  0  0  0  0  0  0  0  0  0  0  0
   -6.8631   -9.6527    4.5381 S   0  0  0  0  0  0  0  0  0  0  0  0
   -6.8160   -8.0216    4.0510 C   0  0  0  0  0  0  0  0  0  0  0  0
   -7.2585   -7.4402    2.7366 C   0  0  0  0  0  0  0  0  0  0  0  0
   -7.1323   -8.0735    1.5339 C   0  0  0  0  0  0  0  0  0  0  0  0
   -7.2757   -7.2314    0.3827 C   0  0  0  0  0  0  0  0  0  0  0  0
   -6.9826   -7.5674   -0.9183 C   0  0  0  0  0  0  0  0  0  0  0  0
   -6.5838   -8.8970   -1.3403 C   0  0  0  0  0  0  0  0  0  0  0  0
   -5.2380   -9.1186   -1.5109 C   0  0  0  0  0  0  0  0  0  0  0  0
   -4.7843  -10.3699   -1.9120 C   0  0  0  0  0  0  0  0  0  0  0  0
   -5.6874  -11.3526   -2.1667 C   0  0  0  0  0  0  0  0  0  0  0  0
   -5.1103  -12.9889   -2.5635 S   0  0  0  0  0  0  0  0  0  0  0  0
   -3.3695  -12.8926   -3.2023 C   0  0  0  0  0  0  0  0  0  0  0  0
   -3.2446  -12.0189   -4.4338 C   0  0  0  0  0  0  0  0  0  0  0  0
   -7.0666  -11.1716   -1.9754 C   0  0  0  0  0  0  0  0  0  0  0  0
   -7.8996  -12.1870   -2.2153 F   0  0  0  0  0  0  0  0  0  0  0  0
   -7.5381   -9.9052   -1.5474 C   0  0  0  0  0  0  0  0  0  0  0  0
   -6.9695   -6.5641   -1.9080 C   0  0  0  0  0  0  0  0  0  0  0  0
   -7.3012   -5.2723   -1.5742 C   0  0  0  0  0  0  0  0  0  0  0  0
   -7.6470   -4.9205   -0.3129 C   0  0  0  0  0  0  0  0  0  0  0  0
   -7.9495   -3.5670    0.0556 C   0  0  0  0  0  0  0  0  0  0  0  0
   -9.2480   -3.0372   -0.1238 C   0  0  0  0  0  0  0  0  0  0  0  0
   -9.4951   -1.7175    0.3118 C   0  0  0  0  0  0  0  0  0  0  0  0
   -8.4527   -0.9929    0.9160 C   0  0  0  0  0  0  0  0  0  0  0  0
   -8.8638    0.5377    1.8124 S   0  0  0  0  0  0  0  0  0  0  0  0
   -7.2900    1.5515    1.7934 C   0  0  0  0  0  0  0  0  0  0  0  0
   -7.6918    2.9923    1.9779 C   0  0  0  0  0  0  0  0  0  0  0  0
   -7.1861   -1.4942    0.9938 C   0  0  0  0  0  0  0  0  0  0  0  0
   -6.9265   -2.7756    0.5500 C   0  0  0  0  0  0  0  0  0  0  0  0
   -6.2239   -0.8152    1.6102 F   0  0  0  0  0  0  0  0  0  0  0  0
   -7.6093   -5.9292    0.7120 C   0  0  0  0  0  0  0  0  0  0  0  0
   -7.6412   -5.8261    2.3852 S   0  0  0  0  0  0  0  0  0  0  0  0
   -7.0131   -4.3390   -2.6324 C   0  0  0  0  0  0  0  0  0  0  0  0
   -6.3835   -4.8487   -3.7359 C   0  0  0  0  0  0  0  0  0  0  0  0
   -6.2740   -6.5316   -3.4334 S   0  0  0  0  0  0  0  0  0  0  0  0
   -5.5771   -4.0059   -4.6885 C   0  0  0  0  0  0  0  0  0  0  0  0
   -5.4489   -2.6102   -4.5203 C   0  0  0  0  0  0  0  0  0  0  0  0
   -4.3229   -2.0390   -5.1654 C   0  0  0  0  0  0  0  0  0  0  0  0
   -3.8732   -0.7547   -4.9662 C   0  0  0  0  0  0  0  0  0  0  0  0
   -4.5688    0.2772   -4.2492 C   0  0  0  0  0  0  0  0  0  0  0  0
   -4.9361    0.1298   -2.9002 C   0  0  0  0  0  0  0  0  0  0  0  0
   -5.5242    1.2161   -2.2941 C   0  0  0  0  0  0  0  0  0  0  0  0
   -5.7850    2.3981   -3.0161 C   0  0  0  0  0  0  0  0  0  0  0  0
   -6.5662    3.7815   -2.1770 S   0  0  0  0  0  0  0  0  0  0  0  0
   -8.3487    3.7058   -2.6676 C   0  0  0  0  0  0  0  0  0  0  0  0
   -9.0054    2.4458   -2.1537 C   0  0  0  0  0  0  0  0  0  0  0  0
   -5.3684    2.5261   -4.3350 C   0  0  0  0  0  0  0  0  0  0  0  0
   -5.6363    3.6842   -4.9708 F   0  0  0  0  0  0  0  0  0  0  0  0
   -4.7926    1.4637   -4.9559 C   0  0  0  0  0  0  0  0  0  0  0  0
   -2.6086   -0.3981   -5.5036 C   0  0  0  0  0  0  0  0  0  0  0  0
   -1.8437   -1.2718   -6.2210 C   0  0  0  0  0  0  0  0  0  0  0  0
   -2.3525   -2.5446   -6.4532 C   0  0  0  0  0  0  0  0  0  0  0  0
   -1.7539   -3.5077   -7.3884 C   0  0  0  0  0  0  0  0  0  0  0  0
   -2.2856   -3.5163   -8.6355 C   0  0  0  0  0  0  0  0  0  0  0  0
   -1.8779   -4.5670   -9.5551 C   0  0  0  0  0  0  0  0  0  0  0  0
   -0.9421   -5.4747   -9.1760 C   0  0  0  0  0  0  0  0  0  0  0  0
   -0.5746   -6.8317  -10.2990 S   0  0  0  0  0  0  0  0  0  0  0  0
    0.7808   -6.3731  -11.4720 C   0  0  0  0  0  0  0  0  0  0  0  0
    2.1388   -6.3267  -10.8221 C   0  0  0  0  0  0  0  0  0  0  0  0
   -0.4391   -5.4969   -7.8911 C   0  0  0  0  0  0  0  0  0  0  0  0
   -0.8449   -4.4559   -6.9608 C   0  0  0  0  0  0  0  0  0  0  0  0
    0.4614   -6.4188   -7.5180 F   0  0  0  0  0  0  0  0  0  0  0  0
   -3.5993   -2.9238   -5.9305 C   0  0  0  0  0  0  0  0  0  0  0  0
   -4.3243   -4.4353   -5.7271 S   0  0  0  0  0  0  0  0  0  0  0  0
   -0.4963   -0.8343   -6.4351 C   0  0  0  0  0  0  0  0  0  0  0  0
   -0.2048    0.4170   -5.8059 C   0  0  0  0  0  0  0  0  0  0  0  0
   -1.6440    0.9036   -5.1048 S   0  0  0  0  0  0  0  0  0  0  0  0
    1.1235    1.1111   -5.5562 C   0  0  0  0  0  0  0  0  0  0  0  0
    1.2150    1.8225   -4.3926 C   0  0  0  0  0  0  0  0  0  0  0  0
    2.5183    2.3132   -4.0323 C   0  0  0  0  0  0  0  0  0  0  0  0
    2.8037    2.9876   -2.8915 C   0  0  0  0  0  0  0  0  0  0  0  0
    1.7977    3.1458   -1.8491 C   0  0  0  0  0  0  0  0  0  0  0  0
    1.1785    4.3655   -1.5738 C   0  0  0  0  0  0  0  0  0  0  0  0
    0.1200    4.3523   -0.6116 C   0  0  0  0  0  0  0  0  0  0  0  0
   -0.2335    3.1643    0.0321 C   0  0  0  0  0  0  0  0  0  0  0  0
   -1.3667    3.3310    1.4187 S   0  0  0  0  0  0  0  0  0  0  0  0
   -2.0358    1.6557    1.8357 C   0  0  0  0  0  0  0  0  0  0  0  0
   -1.1496    0.9293    2.8288 C   0  0  0  0  0  0  0  0  0  0  0  0
    0.3908    1.9870   -0.2895 C   0  0  0  0  0  0  0  0  0  0  0  0
    0.0694    0.8718    0.3494 F   0  0  0  0  0  0  0  0  0  0  0  0
    1.4040    1.9806   -1.2527 C   0  0  0  0  0  0  0  0  0  0  0  0
    4.1658    3.3395   -2.6425 C   0  0  0  0  0  0  0  0  0  0  0  0
    5.1241    3.0087   -3.5515 C   0  0  0  0  0  0  0  0  0  0  0  0
    4.8246    2.3423   -4.7344 C   0  0  0  0  0  0  0  0  0  0  0  0
    5.7849    1.8662   -5.6949 C   0  0  0  0  0  0  0  0  0  0  0  0
    6.1737    0.5574   -5.5854 C   0  0  0  0  0  0  0  0  0  0  0  0
    7.1509    0.0422   -6.4369 C   0  0  0  0  0  0  0  0  0  0  0  0
    7.6975    0.8230   -7.4054 C   0  0  0  0  0  0  0  0  0  0  0  0
    9.0186    0.1839   -8.4857 S   0  0  0  0  0  0  0  0  0  0  0  0
    9.0427   -1.6387   -8.2785 C   0  0  0  0  0  0  0  0  0  0  0  0
    9.6883   -2.0846   -6.9468 C   0  0  0  0  0  0  0  0  0  0  0  0
    7.3075    2.1645   -7.5527 C   0  0  0  0  0  0  0  0  0  0  0  0
    6.3305    2.7108   -6.6921 C   0  0  0  0  0  0  0  0  0  0  0  0
    7.8726    2.9197   -8.4963 F   0  0  0  0  0  0  0  0  0  0  0  0
    3.4588    1.9882   -4.9603 C   0  0  0  0  0  0  0  0  0  0  0  0
    2.7017    1.1022   -6.1894 S   0  0  0  0  0  0  0  0  0  0  0  0
    6.4492    3.3985   -3.1632 C   0  0  0  0  0  0  0  0  0  0  0  0
    6.4710    4.0214   -1.9077 C   0  0  0  0  0  0  0  0  0  0  0  0
    4.8899    4.0811   -1.3436 S   0  0  0  0  0  0  0  0  0  0  0  0
    7.7470    4.5387   -1.2625 C   0  0  0  0  0  0  0  0  0  0  0  0
    7.7445    5.1231   -0.0126 C   0  0  0  0  0  0  0  0  0  0  0  0
    9.0457    5.5662    0.4173 C   0  0  0  0  0  0  0  0  0  0  0  0
    9.3068    6.2115    1.6003 C   0  0  0  0  0  0  0  0  0  0  0  0
    8.3657    6.4807    2.6584 C   0  0  0  0  0  0  0  0  0  0  0  0
    8.1948    5.5660    3.6670 C   0  0  0  0  0  0  0  0  0  0  0  0
    7.3612    5.9263    4.7572 C   0  0  0  0  0  0  0  0  0  0  0  0
    6.7167    7.1512    4.7828 C   0  0  0  0  0  0  0  0  0  0  0  0
    5.7526    7.6110    6.2480 S   0  0  0  0  0  0  0  0  0  0  0  0
    4.0037    6.9925    6.0841 C   0  0  0  0  0  0  0  0  0  0  0  0
    4.0135    5.4877    6.1840 C   0  0  0  0  0  0  0  0  0  0  0  0
    6.9053    8.0636    3.7791 C   0  0  0  0  0  0  0  0  0  0  0  0
    6.2761    9.2573    3.8311 F   0  0  0  0  0  0  0  0  0  0  0  0
    7.7278    7.7440    2.6908 C   0  0  0  0  0  0  0  0  0  0  0  0
   10.6453    6.6267    1.8368 C   0  0  0  0  0  0  0  0  0  0  0  0
   11.6206    6.3860    0.9201 C   0  0  0  0  0  0  0  0  0  0  0  0
   11.3755    5.7450   -0.2531 C   0  0  0  0  0  0  0  0  0  0  0  0
   12.3468    5.4815   -1.3008 C   0  0  0  0  0  0  0  0  0  0  0  0
   12.2097    6.1148   -2.5156 C   0  0  0  0  0  0  0  0  0  0  0  0
   13.1125    5.8712   -3.5344 C   0  0  0  0  0  0  0  0  0  0  0  0
   14.1633    4.9891   -3.3403 C   0  0  0  0  0  0  0  0  0  0  0  0
   15.2710    4.6082   -4.7210 S   0  0  0  0  0  0  0  0  0  0  0  0
   14.6876    5.6122   -6.1706 C   0  0  0  0  0  0  0  0  0  0  0  0
   15.5405    5.2975   -7.4131 C   0  0  0  0  0  0  0  0  0  0  0  0
   14.3292    4.3475   -2.1169 C   0  0  0  0  0  0  0  0  0  0  0  0
   13.4111    4.5817   -1.0606 C   0  0  0  0  0  0  0  0  0  0  0  0
   15.3574    3.4945   -1.9417 F   0  0  0  0  0  0  0  0  0  0  0  0
   10.0089    5.3377   -0.5018 C   0  0  0  0  0  0  0  0  0  0  0  0
    9.3295    4.5758   -1.8165 S   0  0  0  0  0  0  0  0  0  0  0  0
   12.9274    6.8914    1.3247 C   0  0  0  0  0  0  0  0  0  0  0  0
   12.9370    7.5248    2.5613 C   0  0  0  0  0  0  0  0  0  0  0  0
   11.3522    7.4375    3.1185 S   0  0  0  0  0  0  0  0  0  0  0  0
   -1.9338    4.0708    6.1203 H   0  0  0  0  0  0  0  0  0  0  0  0
   -0.5532    2.1601    7.0691 H   0  0  0  0  0  0  0  0  0  0  0  0
    0.6064   -0.2217    5.9660 H   0  0  0  0  0  0  0  0  0  0  0  0
    2.8146    0.0400    6.8792 H   0  0  0  0  0  0  0  0  0  0  0  0
    4.8161   -1.0815    7.8312 H   0  0  0  0  0  0  0  0  0  0  0  0
    6.0475   -0.5430    9.0499 H   0  0  0  0  0  0  0  0  0  0  0  0
    5.9223    0.5317    6.5225 H   0  0  0  0  0  0  0  0  0  0  0  0
    4.5913    1.4987    7.2582 H   0  0  0  0  0  0  0  0  0  0  0  0
    6.2986    1.4886    7.9519 H   0  0  0  0  0  0  0  0  0  0  0  0
   -0.9113   -0.7575    9.9735 H   0  0  0  0  0  0  0  0  0  0  0  0
   -6.0137    0.9088    7.9131 H   0  0  0  0  0  0  0  0  0  0  0  0
   -8.4656    1.0733    7.5870 H   0  0  0  0  0  0  0  0  0  0  0  0
  -10.6349   -1.2007    7.6765 H   0  0  0  0  0  0  0  0  0  0  0  0
  -10.7087   -2.2771    6.1092 H   0  0  0  0  0  0  0  0  0  0  0  0
  -12.9035   -1.6434    7.4879 H   0  0  0  0  0  0  0  0  0  0  0  0
  -12.8766   -0.1658    6.4974 H   0  0  0  0  0  0  0  0  0  0  0  0
  -12.9016   -1.8648    5.7156 H   0  0  0  0  0  0  0  0  0  0  0  0
   -5.7155   -1.4548    4.3544 H   0  0  0  0  0  0  0  0  0  0  0  0
   -5.4172   -2.9713    6.7585 H   0  0  0  0  0  0  0  0  0  0  0  0
   -4.2836   -8.6891    8.7508 H   0  0  0  0  0  0  0  0  0  0  0  0
   -5.8308  -10.2480    6.7192 H   0  0  0  0  0  0  0  0  0  0  0  0
   -6.8744   -9.1068    1.5068 H   0  0  0  0  0  0  0  0  0  0  0  0
   -4.5427   -8.3162   -1.3246 H   0  0  0  0  0  0  0  0  0  0  0  0
   -3.7468  -10.5864   -2.0572 H   0  0  0  0  0  0  0  0  0  0  0  0
   -2.6737  -12.5942   -2.4013 H   0  0  0  0  0  0  0  0  0  0  0  0
   -3.0821  -13.9336   -3.5107 H   0  0  0  0  0  0  0  0  0  0  0  0
   -4.2265  -11.8898   -4.8989 H   0  0  0  0  0  0  0  0  0  0  0  0
   -2.5946  -12.4826   -5.1870 H   0  0  0  0  0  0  0  0  0  0  0  0
   -2.7800  -11.0481   -4.1645 H   0  0  0  0  0  0  0  0  0  0  0  0
   -8.5839   -9.7138   -1.3825 H   0  0  0  0  0  0  0  0  0  0  0  0
  -10.0287   -3.6542   -0.5152 H   0  0  0  0  0  0  0  0  0  0  0  0
  -10.4448   -1.2487    0.2479 H   0  0  0  0  0  0  0  0  0  0  0  0
   -6.5936    1.3180    2.6520 H   0  0  0  0  0  0  0  0  0  0  0  0
   -6.7691    1.4561    0.8066 H   0  0  0  0  0  0  0  0  0  0  0  0
   -7.9661    3.2239    3.0447 H   0  0  0  0  0  0  0  0  0  0  0  0
   -6.8090    3.6220    1.7479 H   0  0  0  0  0  0  0  0  0  0  0  0
   -8.5625    3.2038    1.3154 H   0  0  0  0  0  0  0  0  0  0  0  0
   -5.9380   -3.1826    0.7069 H   0  0  0  0  0  0  0  0  0  0  0  0
   -7.2047   -3.2881   -2.5438 H   0  0  0  0  0  0  0  0  0  0  0  0
   -6.1154   -2.0723   -3.9352 H   0  0  0  0  0  0  0  0  0  0  0  0
   -4.7495   -0.7762   -2.3627 H   0  0  0  0  0  0  0  0  0  0  0  0
   -5.8529    1.1880   -1.2891 H   0  0  0  0  0  0  0  0  0  0  0  0
   -8.8728    4.5585   -2.1710 H   0  0  0  0  0  0  0  0  0  0  0  0
   -8.4339    3.7715   -3.7823 H   0  0  0  0  0  0  0  0  0  0  0  0
   -9.1496    2.4577   -1.0496 H   0  0  0  0  0  0  0  0  0  0  0  0
  -10.0008    2.3209   -2.6462 H   0  0  0  0  0  0  0  0  0  0  0  0
   -8.3155    1.6180   -2.3759 H   0  0  0  0  0  0  0  0  0  0  0  0
   -4.4845    1.5337   -5.9921 H   0  0  0  0  0  0  0  0  0  0  0  0
   -3.0052   -2.7768   -8.9313 H   0  0  0  0  0  0  0  0  0  0  0  0
   -2.2534   -4.5840  -10.5636 H   0  0  0  0  0  0  0  0  0  0  0  0
    0.8539   -7.1819  -12.2622 H   0  0  0  0  0  0  0  0  0  0  0  0
    0.5660   -5.4071  -11.9457 H   0  0  0  0  0  0  0  0  0  0  0  0
    2.8155   -5.8143  -11.5743 H   0  0  0  0  0  0  0  0  0  0  0  0
    2.0763   -5.7271   -9.9122 H   0  0  0  0  0  0  0  0  0  0  0  0
    2.5425   -7.3139  -10.5486 H   0  0  0  0  0  0  0  0  0  0  0  0
   -0.4591   -4.4350   -5.9700 H   0  0  0  0  0  0  0  0  0  0  0  0
    0.2326   -1.4176   -6.8870 H   0  0  0  0  0  0  0  0  0  0  0  0
    0.3681    1.9722   -3.7802 H   0  0  0  0  0  0  0  0  0  0  0  0
    1.5175    5.2624   -2.0405 H   0  0  0  0  0  0  0  0  0  0  0  0
   -0.3408    5.2605   -0.3149 H   0  0  0  0  0  0  0  0  0  0  0  0
   -3.0400    1.7202    2.3376 H   0  0  0  0  0  0  0  0  0  0  0  0
   -2.1195    1.0605    0.9268 H   0  0  0  0  0  0  0  0  0  0  0  0
   -0.1157    1.2950    2.7587 H   0  0  0  0  0  0  0  0  0  0  0  0
   -1.5353    0.9803    3.8587 H   0  0  0  0  0  0  0  0  0  0  0  0
   -1.1471   -0.1505    2.5585 H   0  0  0  0  0  0  0  0  0  0  0  0
    1.8840    1.0368   -1.4897 H   0  0  0  0  0  0  0  0  0  0  0  0
    5.7492   -0.0665   -4.7996 H   0  0  0  0  0  0  0  0  0  0  0  0
    7.4837   -0.9580   -6.3699 H   0  0  0  0  0  0  0  0  0  0  0  0
    8.0240   -2.0419   -8.3411 H   0  0  0  0  0  0  0  0  0  0  0  0
    9.6508   -2.0711   -9.1263 H   0  0  0  0  0  0  0  0  0  0  0  0
    9.0828   -2.8942   -6.4952 H   0  0  0  0  0  0  0  0  0  0  0  0
    9.7636   -1.2702   -6.1961 H   0  0  0  0  0  0  0  0  0  0  0  0
   10.6798   -2.4644   -7.1345 H   0  0  0  0  0  0  0  0  0  0  0  0
    6.0341    3.7417   -6.7531 H   0  0  0  0  0  0  0  0  0  0  0  0
    7.2962    3.2265   -3.7179 H   0  0  0  0  0  0  0  0  0  0  0  0
    6.8686    5.2256    0.5657 H   0  0  0  0  0  0  0  0  0  0  0  0
    8.7011    4.6039    3.6222 H   0  0  0  0  0  0  0  0  0  0  0  0
    7.2062    5.2563    5.5418 H   0  0  0  0  0  0  0  0  0  0  0  0
    3.3904    7.3709    6.9593 H   0  0  0  0  0  0  0  0  0  0  0  0
    3.5138    7.3279    5.1526 H   0  0  0  0  0  0  0  0  0  0  0  0
    3.0415    5.1271    6.6101 H   0  0  0  0  0  0  0  0  0  0  0  0
    4.1752    5.0413    5.1671 H   0  0  0  0  0  0  0  0  0  0  0  0
    4.8208    5.1662    6.8606 H   0  0  0  0  0  0  0  0  0  0  0  0
    7.8598    8.4729    1.9218 H   0  0  0  0  0  0  0  0  0  0  0  0
   11.3996    6.8139   -2.7115 H   0  0  0  0  0  0  0  0  0  0  0  0
   13.0308    6.3271   -4.4872 H   0  0  0  0  0  0  0  0  0  0  0  0
   13.6211    5.3781   -6.4130 H   0  0  0  0  0  0  0  0  0  0  0  0
   14.8414    6.6824   -5.9451 H   0  0  0  0  0  0  0  0  0  0  0  0
   16.5824    5.0395   -7.1396 H   0  0  0  0  0  0  0  0  0  0  0  0
   15.5984    6.2028   -8.0740 H   0  0  0  0  0  0  0  0  0  0  0  0
   15.0789    4.4728   -7.9950 H   0  0  0  0  0  0  0  0  0  0  0  0
   13.5216    4.1083   -0.1353 H   0  0  0  0  0  0  0  0  0  0  0  0
   13.7836    6.8139    0.7367 H   0  0  0  0  0  0  0  0  0  0  0  0
   13.8541    7.9681    3.0242 H   0  0  0  0  0  0  0  0  0  0  0  0
  1  2  2  0
  2  3  1  0
  3  4  2  0
  4  5  1  0
  5  6  2  0
  6  7  1  0
  7  8  2  0
  8  9  1  0
  9 10  1  0
 10 11  1  0
  8 12  1  0
 12 13  1  0
 12 14  2  0
  4 15  1  0
 15 16  2  0
 16 17  1  0
 17 18  1  0
 18 19  2  0
 19 20  1  0
 20 21  2  0
 21 22  1  0
 22 23  1  0
 23 24  1  0
 21 25  1  0
 25 26  2  0
 25 27  1  0
 17 28  2  0
 28 29  1  0
 16 30  1  0
 30 31  2  0
 31 32  1  0
 31 33  1  0
 33 34  1  0
 34 35  1  0
 35 36  2  0
 36 37  1  0
 37 38  1  0
 38 39  1  0
 39 40  1  0
 40 41  2  0
 41 42  1  0
 42 43  1  0
 43 44  1  0
 44 45  2  0
 45 46  1  0
 46 47  2  0
 47 48  1  0
 48 49  2  0
 49 50  1  0
 50 51  2  0
 51 52  1  0
 52 53  1  0
 53 54  1  0
 51 55  1  0
 55 56  1  0
 55 57  2  0
 47 58  1  0
 58 59  2  0
 59 60  1  0
 60 61  1  0
 61 62  2  0
 62 63  1  0
 63 64  2  0
 64 65  1  0
 65 66  1  0
 66 67  1  0
 64 68  1  0
 68 69  2  0
 68 70  1  0
 60 71  2  0
 71 72  1  0
 59 73  1  0
 73 74  2  0
 74 75  1  0
 74 76  1  0
 76 77  2  0
 77 78  1  0
 78 79  2  0
 79 80  1  0
 80 81  2  0
 81 82  1  0
 82 83  2  0
 83 84  1  0
 84 85  1  0
 85 86  1  0
 83 87  1  0
 87 88  1  0
 87 89  2  0
 79 90  1  0
 90 91  2  0
 91 92  1  0
 92 93  1  0
 93 94  2  0
 94 95  1  0
 95 96  2  0
 96 97  1  0
 97 98  1  0
 98 99  1  0
 96100  1  0
100101  2  0
100102  1  0
 92103  2  0
103104  1  0
 91105  1  0
105106  2  0
106107  1  0
106108  1  0
108109  2  0
109110  1  0
110111  2  0
111112  1  0
112113  2  0
113114  1  0
114115  2  0
115116  1  0
116117  1  0
117118  1  0
115119  1  0
119120  1  0
119121  2  0
111122  1  0
122123  2  0
123124  1  0
124125  1  0
125126  2  0
126127  1  0
127128  2  0
128129  1  0
129130  1  0
130131  1  0
128132  1  0
132133  2  0
132134  1  0
124135  2  0
135136  1  0
123137  1  0
137138  2  0
138139  1  0
138140  1  0
140141  2  0
141142  1  0
142143  2  0
143144  1  0
144145  2  0
145146  1  0
146147  2  0
147148  1  0
148149  1  0
149150  1  0
147151  1  0
151152  1  0
151153  2  0
143154  1  0
154155  2  0
155156  1  0
156157  1  0
157158  2  0
158159  1  0
159160  2  0
160161  1  0
161162  1  0
162163  1  0
160164  1  0
164165  2  0
164166  1  0
156167  2  0
167168  1  0
155169  1  0
169170  2  0
170171  1  0
 29  1  1  0
 37 33  2  0
 43 39  2  0
 72 44  1  0
104 76  1  0
136108  1  0
168140  1  0
 28  3  1  0
 40 36  1  0
 71 46  1  0
103 78  1  0
135110  1  0
167142  1  0
 14  5  1  0
 32 15  1  0
 57 48  1  0
 75 58  1  0
 89 80  1  0
107 90  1  0
121112  1  0
139122  1  0
153144  1  0
171154  1  0
 26 18  1  0
 69 61  1  0
101 93  1  0
133125  1  0
165157  1  0
  1172  1  0
  2173  1  0
  6174  1  0
  7175  1  0
 10176  1  0
 10177  1  0
 11178  1  0
 11179  1  0
 11180  1  0
 14181  1  0
 19182  1  0
 20183  1  0
 23184  1  0
 23185  1  0
 24186  1  0
 24187  1  0
 24188  1  0
 26189  1  0
 30190  1  0
 35191  1  0
 41192  1  0
 45193  1  0
 49194  1  0
 50195  1  0
 53196  1  0
 53197  1  0
 54198  1  0
 54199  1  0
 54200  1  0
 57201  1  0
 62202  1  0
 63203  1  0
 66204  1  0
 66205  1  0
 67206  1  0
 67207  1  0
 67208  1  0
 69209  1  0
 73210  1  0
 77211  1  0
 81212  1  0
 82213  1  0
 85214  1  0
 85215  1  0
 86216  1  0
 86217  1  0
 86218  1  0
 89219  1  0
 94220  1  0
 95221  1  0
 98222  1  0
 98223  1  0
 99224  1  0
 99225  1  0
 99226  1  0
101227  1  0
105228  1  0
109229  1  0
113230  1  0
114231  1  0
117232  1  0
117233  1  0
118234  1  0
118235  1  0
118236  1  0
121237  1  0
126238  1  0
127239  1  0
130240  1  0
130241  1  0
131242  1  0
131243  1  0
131244  1  0
133245  1  0
137246  1  0
141247  1  0
145248  1  0
146249  1  0
149250  1  0
149251  1  0
150252  1  0
150253  1  0
150254  1  0
153255  1  0
158256  1  0
159257  1  0
162258  1  0
162259  1  0
163260  1  0
163261  1  0
163262  1  0
165263  1  0
169264  1  0
170265  1  0
M  END

