
     RDKit          3D

220241  0  0  0  0  0  0  0  0999 V2000
   -5.9364    2.8304   10.8455 C   0  0  0  0  0  0  0  0  0  0  0  0
   -5.1096    1.4128   10.4968 S   0  0  0  0  0  0  0  0  0  0  0  0
   -5.8206    1.1180    9.0018 C   0  0  0  0  0  0  0  0  0  0  0  0
   -6.7400    2.1460    8.7557 C   0  0  0  0  0  0  0  0  0  0  0  0
   -6.7890    3.1034    9.7851 C   0  0  0  0  0  0  0  0  0  0  0  0
   -7.6285    2.1877    7.6301 N   0  0  0  0  0  4  0  0  0  0  0  0
   -8.0963    1.0195    7.0744 O   0  0  0  0  0  1  0  0  0  0  0  0
   -8.1389    3.2714    7.2774 O   0  0  0  0  0  0  0  0  0  0  0  0
   -5.4150    0.0292    8.1000 C   0  0  0  0  0  0  0  0  0  0  0  0
   -5.3390    0.1038    6.7096 C   0  0  0  0  0  0  0  0  0  0  0  0
   -4.8323   -1.0688    6.1261 C   0  0  0  0  0  0  0  0  0  0  0  0
   -4.6206   -1.2907    4.7521 C   0  0  0  0  0  0  0  0  0  0  0  0
   -5.0423   -0.3201    3.7186 C   0  0  0  0  0  0  0  0  0  0  0  0
   -6.3954    0.0357    3.5989 C   0  0  0  0  0  0  0  0  0  0  0  0
   -6.8182    0.8497    2.5457 C   0  0  0  0  0  0  0  0  0  0  0  0
   -5.8956    1.2976    1.5935 C   0  0  0  0  0  0  0  0  0  0  0  0
   -6.4650    2.2249    0.1653 S   0  0  0  0  0  0  0  0  0  0  0  0
   -7.0253    0.7551   -0.7740 C   0  0  0  0  0  0  0  0  0  0  0  0
   -5.8584   -0.1324   -1.2040 C   0  0  0  0  0  0  0  0  0  0  0  0
   -4.5385    0.9874    1.7358 C   0  0  0  0  0  0  0  0  0  0  0  0
   -3.6319    1.4345    0.8301 F   0  0  0  0  0  0  0  0  0  0  0  0
   -4.1125    0.1834    2.7953 C   0  0  0  0  0  0  0  0  0  0  0  0
   -4.0500   -2.5241    4.3922 C   0  0  0  0  0  0  0  0  0  0  0  0
   -3.7243   -3.5160    5.3261 C   0  0  0  0  0  0  0  0  0  0  0  0
   -3.9333   -3.2846    6.6994 C   0  0  0  0  0  0  0  0  0  0  0  0
   -3.5589   -4.2666    7.7272 C   0  0  0  0  0  0  0  0  0  0  0  0
   -2.2482   -4.2925    8.2249 C   0  0  0  0  0  0  0  0  0  0  0  0
   -1.9192   -5.1437    9.2828 C   0  0  0  0  0  0  0  0  0  0  0  0
   -2.8962   -5.9704    9.8505 C   0  0  0  0  0  0  0  0  0  0  0  0
   -2.4855   -7.0003   11.2626 S   0  0  0  0  0  0  0  0  0  0  0  0
   -3.0699   -5.8034   12.5167 C   0  0  0  0  0  0  0  0  0  0  0  0
   -2.0067   -4.7535   12.8120 C   0  0  0  0  0  0  0  0  0  0  0  0
   -4.1978   -5.9752    9.3260 C   0  0  0  0  0  0  0  0  0  0  0  0
   -4.5296   -5.1144    8.2742 C   0  0  0  0  0  0  0  0  0  0  0  0
   -5.1515   -6.7852    9.8559 F   0  0  0  0  0  0  0  0  0  0  0  0
   -4.4876   -2.0461    7.0630 C   0  0  0  0  0  0  0  0  0  0  0  0
   -4.8095   -1.4643    8.6090 S   0  0  0  0  0  0  0  0  0  0  0  0
   -3.1987   -4.6837    4.7380 C   0  0  0  0  0  0  0  0  0  0  0  0
   -3.0926   -4.5794    3.3495 C   0  0  0  0  0  0  0  0  0  0  0  0
   -3.6691   -3.0765    2.8534 S   0  0  0  0  0  0  0  0  0  0  0  0
   -2.5191   -5.5654    2.4288 C   0  0  0  0  0  0  0  0  0  0  0  0
   -1.6808   -5.1564    1.0383 S   0  0  0  0  0  0  0  0  0  0  0  0
   -1.4664   -6.7213    0.4723 C   0  0  0  0  0  0  0  0  0  0  0  0
   -2.0882   -7.6055    1.3600 C   0  0  0  0  0  0  0  0  0  0  0  0
   -2.6648   -6.9513    2.4728 C   0  0  0  0  0  0  0  0  0  0  0  0
   -2.1829   -9.0236    1.1518 N   0  0  0  0  0  4  0  0  0  0  0  0
   -1.5528   -9.6248    0.0862 O   0  0  0  0  0  1  0  0  0  0  0  0
   -2.8516   -9.7303    1.9358 O   0  0  0  0  0  0  0  0  0  0  0  0
   -0.8385   -6.9959   -0.8208 C   0  0  0  0  0  0  0  0  0  0  0  0
   -1.5287   -6.8139   -2.0177 C   0  0  0  0  0  0  0  0  0  0  0  0
   -0.7161   -6.3555   -3.0714 C   0  0  0  0  0  0  0  0  0  0  0  0
   -1.1665   -5.8505   -4.3102 C   0  0  0  0  0  0  0  0  0  0  0  0
   -2.5873   -5.8779   -4.7182 C   0  0  0  0  0  0  0  0  0  0  0  0
   -2.9459   -6.4984   -5.9234 C   0  0  0  0  0  0  0  0  0  0  0  0
   -4.2770   -6.5007   -6.3457 C   0  0  0  0  0  0  0  0  0  0  0  0
   -5.2653   -5.8965   -5.5597 C   0  0  0  0  0  0  0  0  0  0  0  0
   -6.9836   -5.9895   -6.0722 S   0  0  0  0  0  0  0  0  0  0  0  0
   -7.2324   -7.6255   -5.3037 C   0  0  0  0  0  0  0  0  0  0  0  0
   -8.6192   -8.1575   -5.6300 C   0  0  0  0  0  0  0  0  0  0  0  0
   -4.9101   -5.2446   -4.3719 C   0  0  0  0  0  0  0  0  0  0  0  0
   -5.8554   -4.6305   -3.6161 F   0  0  0  0  0  0  0  0  0  0  0  0
   -3.5722   -5.2219   -3.9594 C   0  0  0  0  0  0  0  0  0  0  0  0
   -0.2214   -5.1695   -5.0942 C   0  0  0  0  0  0  0  0  0  0  0  0
    1.1148   -5.0108   -4.7125 C   0  0  0  0  0  0  0  0  0  0  0  0
    1.5867   -5.5953   -3.5154 C   0  0  0  0  0  0  0  0  0  0  0  0
    2.9689   -5.4107   -3.0148 C   0  0  0  0  0  0  0  0  0  0  0  0
    3.7426   -6.5346   -2.6938 C   0  0  0  0  0  0  0  0  0  0  0  0
    4.9927   -6.3824   -2.0863 C   0  0  0  0  0  0  0  0  0  0  0  0
    5.4719   -5.1040   -1.7807 C   0  0  0  0  0  0  0  0  0  0  0  0
    7.0553   -4.9304   -0.9464 S   0  0  0  0  0  0  0  0  0  0  0  0
    8.0558   -4.8212   -2.4705 C   0  0  0  0  0  0  0  0  0  0  0  0
    9.0408   -5.9805   -2.5217 C   0  0  0  0  0  0  0  0  0  0  0  0
    4.7110   -3.9758   -2.1067 C   0  0  0  0  0  0  0  0  0  0  0  0
    3.4577   -4.1287   -2.7100 C   0  0  0  0  0  0  0  0  0  0  0  0
    5.1660   -2.7308   -1.8103 F   0  0  0  0  0  0  0  0  0  0  0  0
    0.6294   -6.2383   -2.7103 C   0  0  0  0  0  0  0  0  0  0  0  0
    0.7850   -6.6376   -1.0840 S   0  0  0  0  0  0  0  0  0  0  0  0
    1.8048   -4.0793   -5.5117 C   0  0  0  0  0  0  0  0  0  0  0  0
    0.9902   -3.4316   -6.4464 C   0  0  0  0  0  0  0  0  0  0  0  0
   -0.5489   -4.1172   -6.3608 S   0  0  0  0  0  0  0  0  0  0  0  0
    1.2015   -2.0225   -6.8260 C   0  0  0  0  0  0  0  0  0  0  0  0
    0.2147   -1.0556   -6.6114 C   0  0  0  0  0  0  0  0  0  0  0  0
    0.7280    0.2114   -6.3023 C   0  0  0  0  0  0  0  0  0  0  0  0
   -0.0015    1.2666   -5.7093 C   0  0  0  0  0  0  0  0  0  0  0  0
   -1.4585    1.1840   -5.4714 C   0  0  0  0  0  0  0  0  0  0  0  0
   -1.9817    0.2413   -4.5698 C   0  0  0  0  0  0  0  0  0  0  0  0
   -3.3541    0.2053   -4.3059 C   0  0  0  0  0  0  0  0  0  0  0  0
   -4.2153    1.1176   -4.9288 C   0  0  0  0  0  0  0  0  0  0  0  0
   -5.9678    1.1072   -4.5302 S   0  0  0  0  0  0  0  0  0  0  0  0
   -6.4573   -0.0149   -5.8841 C   0  0  0  0  0  0  0  0  0  0  0  0
   -6.2428   -1.4722   -5.4930 C   0  0  0  0  0  0  0  0  0  0  0  0
   -3.6947    2.0706   -5.8151 C   0  0  0  0  0  0  0  0  0  0  0  0
   -4.5165    2.9731   -6.4083 F   0  0  0  0  0  0  0  0  0  0  0  0
   -2.3231    2.1033   -6.0844 C   0  0  0  0  0  0  0  0  0  0  0  0
    0.7486    2.3191   -5.1597 C   0  0  0  0  0  0  0  0  0  0  0  0
    2.1456    2.3786   -5.2427 C   0  0  0  0  0  0  0  0  0  0  0  0
    2.8605    1.3676   -5.9160 C   0  0  0  0  0  0  0  0  0  0  0  0
    4.3316    1.3437   -5.9744 C   0  0  0  0  0  0  0  0  0  0  0  0
    5.0879    1.0065   -4.8410 C   0  0  0  0  0  0  0  0  0  0  0  0
    6.4778    0.8892   -4.9380 C   0  0  0  0  0  0  0  0  0  0  0  0
    7.1229    1.1080   -6.1628 C   0  0  0  0  0  0  0  0  0  0  0  0
    8.9021    0.8938   -6.2884 S   0  0  0  0  0  0  0  0  0  0  0  0
    9.3292    2.5830   -5.7408 C   0  0  0  0  0  0  0  0  0  0  0  0
    9.1454    3.5956   -6.8629 C   0  0  0  0  0  0  0  0  0  0  0  0
    6.3653    1.4381   -7.2958 C   0  0  0  0  0  0  0  0  0  0  0  0
    4.9765    1.5541   -7.2004 C   0  0  0  0  0  0  0  0  0  0  0  0
    6.9695    1.6283   -8.4954 F   0  0  0  0  0  0  0  0  0  0  0  0
    2.1197    0.2751   -6.3967 C   0  0  0  0  0  0  0  0  0  0  0  0
    2.7074   -1.2573   -6.7672 S   0  0  0  0  0  0  0  0  0  0  0  0
    2.7055    3.3733   -4.4201 C   0  0  0  0  0  0  0  0  0  0  0  0
    1.7542    4.0436   -3.6499 C   0  0  0  0  0  0  0  0  0  0  0  0
    0.2247    3.4434   -4.0251 S   0  0  0  0  0  0  0  0  0  0  0  0
    2.0666    4.6697   -2.3644 C   0  0  0  0  0  0  0  0  0  0  0  0
    2.9772    5.7008   -2.1408 C   0  0  0  0  0  0  0  0  0  0  0  0
    3.1920    5.9420   -0.7680 C   0  0  0  0  0  0  0  0  0  0  0  0
    4.0130    6.9431   -0.2057 C   0  0  0  0  0  0  0  0  0  0  0  0
    4.7385    7.9219   -1.0433 C   0  0  0  0  0  0  0  0  0  0  0  0
    5.7200    7.4965   -1.9519 C   0  0  0  0  0  0  0  0  0  0  0  0
    6.3922    8.4284   -2.7503 C   0  0  0  0  0  0  0  0  0  0  0  0
    6.0933    9.7910   -2.6402 C   0  0  0  0  0  0  0  0  0  0  0  0
    6.9583   10.9827   -3.6690 S   0  0  0  0  0  0  0  0  0  0  0  0
    8.3254   11.2032   -2.4813 C   0  0  0  0  0  0  0  0  0  0  0  0
    9.2944   12.2563   -2.9982 C   0  0  0  0  0  0  0  0  0  0  0  0
    5.1175   10.2195   -1.7329 C   0  0  0  0  0  0  0  0  0  0  0  0
    4.8185   11.5397   -1.6181 F   0  0  0  0  0  0  0  0  0  0  0  0
    4.4417    9.2889   -0.9381 C   0  0  0  0  0  0  0  0  0  0  0  0
    4.0813    6.9900    1.2002 C   0  0  0  0  0  0  0  0  0  0  0  0
    3.3845    6.0995    2.0243 C   0  0  0  0  0  0  0  0  0  0  0  0
    2.5516    5.1094    1.4653 C   0  0  0  0  0  0  0  0  0  0  0  0
    1.8082    4.1342    2.2974 C   0  0  0  0  0  0  0  0  0  0  0  0
    2.0951    2.7631    2.2009 C   0  0  0  0  0  0  0  0  0  0  0  0
    1.3478    1.8334    2.9292 C   0  0  0  0  0  0  0  0  0  0  0  0
    0.3069    2.2620    3.7624 C   0  0  0  0  0  0  0  0  0  0  0  0
   -0.7042    1.0487    4.6233 S   0  0  0  0  0  0  0  0  0  0  0  0
    0.2257    1.1167    6.1970 C   0  0  0  0  0  0  0  0  0  0  0  0
    1.5111    0.3018    6.1103 C   0  0  0  0  0  0  0  0  0  0  0  0
    0.0235    3.6318    3.8687 C   0  0  0  0  0  0  0  0  0  0  0  0
    0.7734    4.5633    3.1423 C   0  0  0  0  0  0  0  0  0  0  0  0
   -0.9884    4.0606    4.6641 F   0  0  0  0  0  0  0  0  0  0  0  0
    2.4731    5.0723    0.0626 C   0  0  0  0  0  0  0  0  0  0  0  0
    1.5503    4.0414   -0.8872 S   0  0  0  0  0  0  0  0  0  0  0  0
    3.6385    6.2961    3.3911 C   0  0  0  0  0  0  0  0  0  0  0  0
    4.5221    7.3441    3.6373 C   0  0  0  0  0  0  0  0  0  0  0  0
    4.9983    8.0204    2.1685 S   0  0  0  0  0  0  0  0  0  0  0  0
   -5.8224    3.4320   11.7364 H   0  0  0  0  0  0  0  0  0  0  0  0
   -7.4475    3.9598    9.7701 H   0  0  0  0  0  0  0  0  0  0  0  0
   -5.6012    0.9928    6.1495 H   0  0  0  0  0  0  0  0  0  0  0  0
   -7.1291   -0.3472    4.2999 H   0  0  0  0  0  0  0  0  0  0  0  0
   -7.8671    1.0941    2.4452 H   0  0  0  0  0  0  0  0  0  0  0  0
   -7.7443    0.1642   -0.1663 H   0  0  0  0  0  0  0  0  0  0  0  0
   -7.5573    1.1097   -1.6820 H   0  0  0  0  0  0  0  0  0  0  0  0
   -6.2090   -0.8682   -1.9587 H   0  0  0  0  0  0  0  0  0  0  0  0
   -5.4611   -0.6993   -0.3366 H   0  0  0  0  0  0  0  0  0  0  0  0
   -5.0476    0.4813   -1.6481 H   0  0  0  0  0  0  0  0  0  0  0  0
   -3.0640   -0.0781    2.8775 H   0  0  0  0  0  0  0  0  0  0  0  0
   -1.4903   -3.6372    7.8068 H   0  0  0  0  0  0  0  0  0  0  0  0
   -0.9098   -5.1432    9.6749 H   0  0  0  0  0  0  0  0  0  0  0  0
   -4.0116   -5.3163   12.1866 H   0  0  0  0  0  0  0  0  0  0  0  0
   -3.2878   -6.3597   13.4525 H   0  0  0  0  0  0  0  0  0  0  0  0
   -1.7961   -4.1426   11.9118 H   0  0  0  0  0  0  0  0  0  0  0  0
   -1.0696   -5.2413   13.1540 H   0  0  0  0  0  0  0  0  0  0  0  0
   -2.3665   -4.0763   13.6138 H   0  0  0  0  0  0  0  0  0  0  0  0
   -5.5460   -5.0931    7.8989 H   0  0  0  0  0  0  0  0  0  0  0  0
   -2.8755   -5.5516    5.2952 H   0  0  0  0  0  0  0  0  0  0  0  0
   -3.2110   -7.4624    3.2559 H   0  0  0  0  0  0  0  0  0  0  0  0
   -2.6081   -6.8567   -2.0655 H   0  0  0  0  0  0  0  0  0  0  0  0
   -2.1938   -6.9841   -6.5340 H   0  0  0  0  0  0  0  0  0  0  0  0
   -4.5430   -6.9921   -7.2727 H   0  0  0  0  0  0  0  0  0  0  0  0
   -7.1161   -7.5538   -4.2001 H   0  0  0  0  0  0  0  0  0  0  0  0
   -6.4766   -8.3405   -5.6952 H   0  0  0  0  0  0  0  0  0  0  0  0
   -9.3970   -7.4741   -5.2274 H   0  0  0  0  0  0  0  0  0  0  0  0
   -8.7440   -8.2514   -6.7301 H   0  0  0  0  0  0  0  0  0  0  0  0
   -8.7529   -9.1607   -5.1720 H   0  0  0  0  0  0  0  0  0  0  0  0
   -3.3075   -4.6949   -3.0498 H   0  0  0  0  0  0  0  0  0  0  0  0
    3.3730   -7.5310   -2.8996 H   0  0  0  0  0  0  0  0  0  0  0  0
    5.5726   -7.2593   -1.8296 H   0  0  0  0  0  0  0  0  0  0  0  0
    7.4322   -4.8350   -3.3937 H   0  0  0  0  0  0  0  0  0  0  0  0
    8.6203   -3.8654   -2.4500 H   0  0  0  0  0  0  0  0  0  0  0  0
    8.4910   -6.9454   -2.5590 H   0  0  0  0  0  0  0  0  0  0  0  0
    9.6782   -5.8950   -3.4260 H   0  0  0  0  0  0  0  0  0  0  0  0
    9.6954   -5.9641   -1.6215 H   0  0  0  0  0  0  0  0  0  0  0  0
    2.8560   -3.2498   -2.9093 H   0  0  0  0  0  0  0  0  0  0  0  0
    2.8147   -3.7552   -5.3010 H   0  0  0  0  0  0  0  0  0  0  0  0
   -0.8290   -1.3102   -6.4915 H   0  0  0  0  0  0  0  0  0  0  0  0
   -1.3255   -0.4583   -4.0665 H   0  0  0  0  0  0  0  0  0  0  0  0
   -3.7431   -0.5245   -3.6100 H   0  0  0  0  0  0  0  0  0  0  0  0
   -5.8957    0.2236   -6.8134 H   0  0  0  0  0  0  0  0  0  0  0  0
   -7.5380    0.1489   -6.0817 H   0  0  0  0  0  0  0  0  0  0  0  0
   -6.7731   -1.6997   -4.5455 H   0  0  0  0  0  0  0  0  0  0  0  0
   -6.6475   -2.1292   -6.2945 H   0  0  0  0  0  0  0  0  0  0  0  0
   -5.1609   -1.6909   -5.3766 H   0  0  0  0  0  0  0  0  0  0  0  0
   -1.9316    2.8496   -6.7645 H   0  0  0  0  0  0  0  0  0  0  0  0
    4.5994    0.8112   -3.8934 H   0  0  0  0  0  0  0  0  0  0  0  0
    7.0533    0.6175   -4.0619 H   0  0  0  0  0  0  0  0  0  0  0  0
    8.7191    2.8694   -4.8568 H   0  0  0  0  0  0  0  0  0  0  0  0
   10.3958    2.5827   -5.4333 H   0  0  0  0  0  0  0  0  0  0  0  0
    9.5362    4.5842   -6.5376 H   0  0  0  0  0  0  0  0  0  0  0  0
    9.6990    3.2735   -7.7695 H   0  0  0  0  0  0  0  0  0  0  0  0
    8.0698    3.7091   -7.1072 H   0  0  0  0  0  0  0  0  0  0  0  0
    4.3967    1.7973   -8.0828 H   0  0  0  0  0  0  0  0  0  0  0  0
    3.7720    3.4847   -4.2588 H   0  0  0  0  0  0  0  0  0  0  0  0
    3.4626    6.2445   -2.9407 H   0  0  0  0  0  0  0  0  0  0  0  0
    5.9647    6.4444   -2.0412 H   0  0  0  0  0  0  0  0  0  0  0  0
    7.1492    8.0910   -3.4477 H   0  0  0  0  0  0  0  0  0  0  0  0
    8.8607   10.2366   -2.3571 H   0  0  0  0  0  0  0  0  0  0  0  0
    7.9266   11.5269   -1.4948 H   0  0  0  0  0  0  0  0  0  0  0  0
   10.1367   12.3724   -2.2833 H   0  0  0  0  0  0  0  0  0  0  0  0
    9.7095   11.9469   -3.9816 H   0  0  0  0  0  0  0  0  0  0  0  0
    8.7777   13.2333   -3.1075 H   0  0  0  0  0  0  0  0  0  0  0  0
    3.6823    9.6332   -0.2448 H   0  0  0  0  0  0  0  0  0  0  0  0
    2.8946    2.4154    1.5582 H   0  0  0  0  0  0  0  0  0  0  0  0
    1.5683    0.7786    2.8358 H   0  0  0  0  0  0  0  0  0  0  0  0
   -0.4159    0.6845    6.9947 H   0  0  0  0  0  0  0  0  0  0  0  0
    0.4554    2.1701    6.4738 H   0  0  0  0  0  0  0  0  0  0  0  0
    1.9909    0.2608    7.1124 H   0  0  0  0  0  0  0  0  0  0  0  0
    2.2233    0.7754    5.4033 H   0  0  0  0  0  0  0  0  0  0  0  0
    1.2884   -0.7349    5.7768 H   0  0  0  0  0  0  0  0  0  0  0  0
    0.5385    5.6186    3.2266 H   0  0  0  0  0  0  0  0  0  0  0  0
    3.2076    5.6968    4.1831 H   0  0  0  0  0  0  0  0  0  0  0  0
    4.8586    7.6641    4.6131 H   0  0  0  0  0  0  0  0  0  0  0  0
  1  2  1  0
  2  3  1  0
  3  4  2  0
  4  5  1  0
  4  6  1  0
  6  7  1  0
  6  8  2  0
  3  9  1  0
  9 10  2  0
 10 11  1  0
 11 12  2  0
 12 13  1  0
 13 14  2  0
 14 15  1  0
 15 16  2  0
 16 17  1  0
 17 18  1  0
 18 19  1  0
 16 20  1  0
 20 21  1  0
 20 22  2  0
 12 23  1  0
 23 24  2  0
 24 25  1  0
 25 26  1  0
 26 27  2  0
 27 28  1  0
 28 29  2  0
 29 30  1  0
 30 31  1  0
 31 32  1  0
 29 33  1  0
 33 34  2  0
 33 35  1  0
 25 36  2  0
 36 37  1  0
 24 38  1  0
 38 39  2  0
 39 40  1  0
 39 41  1  0
 41 42  1  0
 42 43  1  0
 43 44  2  0
 44 45  1  0
 44 46  1  0
 46 47  1  0
 46 48  2  0
 43 49  1  0
 49 50  2  0
 50 51  1  0
 51 52  2  0
 52 53  1  0
 53 54  2  0
 54 55  1  0
 55 56  2  0
 56 57  1  0
 57 58  1  0
 58 59  1  0
 56 60  1  0
 60 61  1  0
 60 62  2  0
 52 63  1  0
 63 64  2  0
 64 65  1  0
 65 66  1  0
 66 67  2  0
 67 68  1  0
 68 69  2  0
 69 70  1  0
 70 71  1  0
 71 72  1  0
 69 73  1  0
 73 74  2  0
 73 75  1  0
 65 76  2  0
 76 77  1  0
 64 78  1  0
 78 79  2  0
 79 80  1  0
 79 81  1  0
 81 82  2  0
 82 83  1  0
 83 84  2  0
 84 85  1  0
 85 86  2  0
 86 87  1  0
 87 88  2  0
 88 89  1  0
 89 90  1  0
 90 91  1  0
 88 92  1  0
 92 93  1  0
 92 94  2  0
 84 95  1  0
 95 96  2  0
 96 97  1  0
 97 98  1  0
 98 99  2  0
 99100  1  0
100101  2  0
101102  1  0
102103  1  0
103104  1  0
101105  1  0
105106  2  0
105107  1  0
 97108  2  0
108109  1  0
 96110  1  0
110111  2  0
111112  1  0
111113  1  0
113114  2  0
114115  1  0
115116  2  0
116117  1  0
117118  2  0
118119  1  0
119120  2  0
120121  1  0
121122  1  0
122123  1  0
120124  1  0
124125  1  0
124126  2  0
116127  1  0
127128  2  0
128129  1  0
129130  1  0
130131  2  0
131132  1  0
132133  2  0
133134  1  0
134135  1  0
135136  1  0
133137  1  0
137138  2  0
137139  1  0
129140  2  0
140141  1  0
128142  1  0
142143  2  0
143144  1  0
  5  1  2  0
 37  9  1  0
 45 41  2  0
 77 49  1  0
109 81  1  0
141113  1  0
 36 11  1  0
 76 51  1  0
108 83  1  0
140115  1  0
 22 13  1  0
 40 23  1  0
 62 53  1  0
 80 63  1  0
 94 85  1  0
112 95  1  0
126117  1  0
144127  1  0
 34 26  1  0
 74 66  1  0
106 98  1  0
138130  1  0
  1145  1  0
  5146  1  0
 10147  1  0
 14148  1  0
 15149  1  0
 18150  1  0
 18151  1  0
 19152  1  0
 19153  1  0
 19154  1  0
 22155  1  0
 27156  1  0
 28157  1  0
 31158  1  0
 31159  1  0
 32160  1  0
 32161  1  0
 32162  1  0
 34163  1  0
 38164  1  0
 45165  1  0
 50166  1  0
 54167  1  0
 55168  1  0
 58169  1  0
 58170  1  0
 59171  1  0
 59172  1  0
 59173  1  0
 62174  1  0
 67175  1  0
 68176  1  0
 71177  1  0
 71178  1  0
 72179  1  0
 72180  1  0
 72181  1  0
 74182  1  0
 78183  1  0
 82184  1  0
 86185  1  0
 87186  1  0
 90187  1  0
 90188  1  0
 91189  1  0
 91190  1  0
 91191  1  0
 94192  1  0
 99193  1  0
100194  1  0
103195  1  0
103196  1  0
104197  1  0
104198  1  0
104199  1  0
106200  1  0
110201  1  0
114202  1  0
118203  1  0
119204  1  0
122205  1  0
122206  1  0
123207  1  0
123208  1  0
123209  1  0
126210  1  0
131211  1  0
132212  1  0
135213  1  0
135214  1  0
136215  1  0
136216  1  0
136217  1  0
138218  1  0
142219  1  0
143220  1  0
M  CHG  4   6   1   7  -1  46   1  47  -1
M  END

