
     RDKit          3D

240265  0  0  0  0  0  0  0  0999 V2000
    0.4028    0.7654   11.1438 C   0  0  0  0  0  0  0  0  0  0  0  0
    0.5875    1.5291    9.9955 C   0  0  0  0  0  0  0  0  0  0  0  0
   -0.1882    1.0928    8.9119 C   0  0  0  0  0  0  0  0  0  0  0  0
   -0.1970    1.6438    7.6190 C   0  0  0  0  0  0  0  0  0  0  0  0
    0.6565    2.7818    7.2402 C   0  0  0  0  0  0  0  0  0  0  0  0
    0.0869    4.2845    6.7540 S   0  0  0  0  0  0  0  0  0  0  0  0
    1.5884    4.9202    6.3417 C   0  0  0  0  0  0  0  0  0  0  0  0
    1.7957    6.2566    5.6938 C   0  0  0  0  0  0  0  0  0  0  0  0
    1.7302    6.1359    4.1735 C   0  0  0  0  0  0  0  0  0  0  0  0
    2.5599    3.9455    6.5555 C   0  0  0  0  0  0  0  0  0  0  0  0
    4.2641    4.1729    6.1858 Cl  0  0  0  0  0  0  0  0  0  0  0  0
    2.0385    2.7463    7.0672 C   0  0  0  0  0  0  0  0  0  0  0  0
    3.0173    1.3145    7.3746 Cl  0  0  0  0  0  0  0  0  0  0  0  0
   -1.0311    1.0331    6.6734 C   0  0  0  0  0  0  0  0  0  0  0  0
   -1.8195   -0.0862    6.9571 C   0  0  0  0  0  0  0  0  0  0  0  0
   -1.8208   -0.6375    8.2575 C   0  0  0  0  0  0  0  0  0  0  0  0
   -2.5661   -1.8700    8.5816 C   0  0  0  0  0  0  0  0  0  0  0  0
   -2.2189   -3.3775    7.9225 S   0  0  0  0  0  0  0  0  0  0  0  0
   -3.2715   -4.2506    8.8967 C   0  0  0  0  0  0  0  0  0  0  0  0
   -3.3482   -5.7468    8.9337 C   0  0  0  0  0  0  0  0  0  0  0  0
   -2.4165   -6.3085   10.0033 C   0  0  0  0  0  0  0  0  0  0  0  0
   -3.9105   -3.3658    9.7677 C   0  0  0  0  0  0  0  0  0  0  0  0
   -3.5220   -2.0320    9.5844 C   0  0  0  0  0  0  0  0  0  0  0  0
   -4.1813   -0.6982   10.5243 Cl  0  0  0  0  0  0  0  0  0  0  0  0
   -5.0483   -3.8744   11.0051 Cl  0  0  0  0  0  0  0  0  0  0  0  0
   -0.9974   -0.0077    9.2145 C   0  0  0  0  0  0  0  0  0  0  0  0
   -0.7250   -0.4432   10.8213 S   0  0  0  0  0  0  0  0  0  0  0  0
   -2.5747   -0.5288    5.8530 C   0  0  0  0  0  0  0  0  0  0  0  0
   -2.3633    0.2499    4.7130 C   0  0  0  0  0  0  0  0  0  0  0  0
   -1.2502    1.4670    5.0701 S   0  0  0  0  0  0  0  0  0  0  0  0
   -3.0199    0.1139    3.4060 C   0  0  0  0  0  0  0  0  0  0  0  0
   -3.8357   -0.9347    2.9671 C   0  0  0  0  0  0  0  0  0  0  0  0
   -4.2924   -0.7512    1.6456 C   0  0  0  0  0  0  0  0  0  0  0  0
   -5.0833   -1.6441    0.8897 C   0  0  0  0  0  0  0  0  0  0  0  0
   -5.5206   -2.9564    1.4111 C   0  0  0  0  0  0  0  0  0  0  0  0
   -7.1271   -3.4329    1.5583 S   0  0  0  0  0  0  0  0  0  0  0  0
   -6.8062   -4.9849    2.1264 C   0  0  0  0  0  0  0  0  0  0  0  0
   -7.8487   -5.9702    2.5512 C   0  0  0  0  0  0  0  0  0  0  0  0
   -8.1416   -5.8349    4.0419 C   0  0  0  0  0  0  0  0  0  0  0  0
   -5.4266   -5.1450    2.2232 C   0  0  0  0  0  0  0  0  0  0  0  0
   -4.6585   -6.6231    2.7897 Cl  0  0  0  0  0  0  0  0  0  0  0  0
   -4.7026   -4.0110    1.8200 C   0  0  0  0  0  0  0  0  0  0  0  0
   -2.9451   -3.9570    1.8118 Cl  0  0  0  0  0  0  0  0  0  0  0  0
   -5.4254   -1.2370   -0.4150 C   0  0  0  0  0  0  0  0  0  0  0  0
   -5.0068   -0.0214   -0.9668 C   0  0  0  0  0  0  0  0  0  0  0  0
   -4.2057    0.8600   -0.2187 C   0  0  0  0  0  0  0  0  0  0  0  0
   -3.6291    2.0882   -0.7949 C   0  0  0  0  0  0  0  0  0  0  0  0
   -2.3240    2.0775   -1.8551 S   0  0  0  0  0  0  0  0  0  0  0  0
   -1.8885    3.6862   -1.6381 C   0  0  0  0  0  0  0  0  0  0  0  0
   -0.6638    4.3234   -2.2185 C   0  0  0  0  0  0  0  0  0  0  0  0
   -1.0210    5.1684   -3.4285 C   0  0  0  0  0  0  0  0  0  0  0  0
   -2.7817    4.2683   -0.7424 C   0  0  0  0  0  0  0  0  0  0  0  0
   -3.7543    3.3742   -0.2691 C   0  0  0  0  0  0  0  0  0  0  0  0
   -4.9692    3.8239    0.9235 Cl  0  0  0  0  0  0  0  0  0  0  0  0
   -2.6474    5.9307   -0.1772 Cl  0  0  0  0  0  0  0  0  0  0  0  0
   -3.8646    0.4550    1.0825 C   0  0  0  0  0  0  0  0  0  0  0  0
   -2.8852    1.2612    2.1793 S   0  0  0  0  0  0  0  0  0  0  0  0
   -5.4499    0.1780   -2.2846 C   0  0  0  0  0  0  0  0  0  0  0  0
   -6.1955   -0.8946   -2.7905 C   0  0  0  0  0  0  0  0  0  0  0  0
   -6.2964   -2.0787   -1.5827 S   0  0  0  0  0  0  0  0  0  0  0  0
   -6.7623   -0.9842   -4.1697 C   0  0  0  0  0  0  0  0  0  0  0  0
   -7.8483   -1.8373   -4.4827 C   0  0  0  0  0  0  0  0  0  0  0  0
   -8.4376   -2.5993   -3.4587 O   0  0  0  0  0  0  0  0  0  0  0  0
   -9.5505   -3.4716   -3.6217 C   0  0  0  0  0  0  0  0  0  0  0  0
   -9.8690   -4.1296   -2.2871 C   0  0  0  0  0  0  0  0  0  0  0  0
   -8.3277   -1.8951   -5.8095 C   0  0  0  0  0  0  0  0  0  0  0  0
   -7.7490   -1.1091   -6.8233 C   0  0  0  0  0  0  0  0  0  0  0  0
   -8.2269   -1.1194   -8.1454 O   0  0  0  0  0  0  0  0  0  0  0  0
   -9.3867   -1.8257   -8.5831 C   0  0  0  0  0  0  0  0  0  0  0  0
   -9.6149   -1.5596  -10.0597 C   0  0  0  0  0  0  0  0  0  0  0  0
   -6.6777   -0.2675   -6.5052 C   0  0  0  0  0  0  0  0  0  0  0  0
   -6.1992   -0.2089   -5.1944 C   0  0  0  0  0  0  0  0  0  0  0  0
   -6.0418    0.6084   -7.5032 C   0  0  0  0  0  0  0  0  0  0  0  0
   -5.1254    0.1221   -8.3522 C   0  0  0  0  0  0  0  0  0  0  0  0
   -3.9575    0.9392   -8.7613 C   0  0  0  0  0  0  0  0  0  0  0  0
   -2.7161    0.3701   -9.0465 C   0  0  0  0  0  0  0  0  0  0  0  0
   -1.6263    1.2035   -8.7263 C   0  0  0  0  0  0  0  0  0  0  0  0
   -0.2860    0.7786   -8.6359 C   0  0  0  0  0  0  0  0  0  0  0  0
    0.1722   -0.4646   -9.2955 C   0  0  0  0  0  0  0  0  0  0  0  0
    0.9241   -1.7688   -8.5381 S   0  0  0  0  0  0  0  0  0  0  0  0
    1.1497   -2.6850   -9.9298 C   0  0  0  0  0  0  0  0  0  0  0  0
    1.8987   -3.9820   -9.9796 C   0  0  0  0  0  0  0  0  0  0  0  0
    3.3827   -3.7385  -10.2396 C   0  0  0  0  0  0  0  0  0  0  0  0
    0.6521   -1.9715  -11.0181 C   0  0  0  0  0  0  0  0  0  0  0  0
    0.7581   -2.5371  -12.6784 Cl  0  0  0  0  0  0  0  0  0  0  0  0
    0.0953   -0.7331  -10.6633 C   0  0  0  0  0  0  0  0  0  0  0  0
   -0.5418    0.4082  -11.8407 Cl  0  0  0  0  0  0  0  0  0  0  0  0
    0.5518    1.5386   -7.8005 C   0  0  0  0  0  0  0  0  0  0  0  0
    0.1339    2.7310   -7.2016 C   0  0  0  0  0  0  0  0  0  0  0  0
   -1.1203    3.2969   -7.5245 C   0  0  0  0  0  0  0  0  0  0  0  0
   -1.4978    4.6663   -7.0793 C   0  0  0  0  0  0  0  0  0  0  0  0
   -2.9991    5.1428   -6.4699 S   0  0  0  0  0  0  0  0  0  0  0  0
   -2.6331    6.7664   -6.2689 C   0  0  0  0  0  0  0  0  0  0  0  0
   -3.6052    7.8113   -5.8099 C   0  0  0  0  0  0  0  0  0  0  0  0
   -4.2532    8.5057   -7.0039 C   0  0  0  0  0  0  0  0  0  0  0  0
   -1.3311    6.9791   -6.7090 C   0  0  0  0  0  0  0  0  0  0  0  0
   -0.6954    5.8126   -7.1641 C   0  0  0  0  0  0  0  0  0  0  0  0
    0.9106    5.8391   -7.8827 Cl  0  0  0  0  0  0  0  0  0  0  0  0
   -0.5679    8.5649   -6.7308 Cl  0  0  0  0  0  0  0  0  0  0  0  0
   -2.0092    2.4535   -8.2238 C   0  0  0  0  0  0  0  0  0  0  0  0
   -3.6866    2.5154   -8.2244 S   0  0  0  0  0  0  0  0  0  0  0  0
    0.9542    3.1153   -6.1225 C   0  0  0  0  0  0  0  0  0  0  0  0
    2.0096    2.2352   -5.8716 C   0  0  0  0  0  0  0  0  0  0  0  0
    1.9471    1.0170   -7.0380 S   0  0  0  0  0  0  0  0  0  0  0  0
    2.4041    1.8860   -4.5052 C   0  0  0  0  0  0  0  0  0  0  0  0
    3.5015    2.3515   -3.7772 C   0  0  0  0  0  0  0  0  0  0  0  0
    3.6815    1.6463   -2.5662 C   0  0  0  0  0  0  0  0  0  0  0  0
    4.7306    1.8053   -1.6348 C   0  0  0  0  0  0  0  0  0  0  0  0
    5.7013    2.9061   -1.7465 C   0  0  0  0  0  0  0  0  0  0  0  0
    5.2929    4.5335   -1.6136 S   0  0  0  0  0  0  0  0  0  0  0  0
    6.8632    5.1221   -1.7266 C   0  0  0  0  0  0  0  0  0  0  0  0
    7.2385    6.5644   -1.5672 C   0  0  0  0  0  0  0  0  0  0  0  0
    7.4928    6.8980   -0.1003 C   0  0  0  0  0  0  0  0  0  0  0  0
    7.7365    4.0412   -1.8546 C   0  0  0  0  0  0  0  0  0  0  0  0
    9.4857    4.2083   -1.9461 Cl  0  0  0  0  0  0  0  0  0  0  0  0
    7.0835    2.8004   -1.8785 C   0  0  0  0  0  0  0  0  0  0  0  0
    7.9291    1.2694   -2.0848 Cl  0  0  0  0  0  0  0  0  0  0  0  0
    4.7679    0.8994   -0.5513 C   0  0  0  0  0  0  0  0  0  0  0  0
    3.8055   -0.1006   -0.3710 C   0  0  0  0  0  0  0  0  0  0  0  0
    2.7594   -0.2488   -1.2949 C   0  0  0  0  0  0  0  0  0  0  0  0
    1.7852   -1.3445   -1.2248 C   0  0  0  0  0  0  0  0  0  0  0  0
    1.9613   -2.8005   -2.0470 S   0  0  0  0  0  0  0  0  0  0  0  0
    0.3503   -3.2677   -1.9252 C   0  0  0  0  0  0  0  0  0  0  0  0
   -0.2068   -4.5413   -2.4832 C   0  0  0  0  0  0  0  0  0  0  0  0
   -0.1160   -5.6641   -1.4541 C   0  0  0  0  0  0  0  0  0  0  0  0
   -0.3528   -2.2767   -1.2501 C   0  0  0  0  0  0  0  0  0  0  0  0
    0.4525   -1.2001   -0.8570 C   0  0  0  0  0  0  0  0  0  0  0  0
   -0.1426    0.2107    0.0051 Cl  0  0  0  0  0  0  0  0  0  0  0  0
   -2.0916   -2.2990   -1.0182 Cl  0  0  0  0  0  0  0  0  0  0  0  0
    2.7223    0.6476   -2.3712 C   0  0  0  0  0  0  0  0  0  0  0  0
    1.6609    0.6333   -3.6662 S   0  0  0  0  0  0  0  0  0  0  0  0
    4.0321   -0.9104    0.7502 C   0  0  0  0  0  0  0  0  0  0  0  0
    5.1895   -0.5571    1.4390 C   0  0  0  0  0  0  0  0  0  0  0  0
    5.9212    0.7572    0.6661 S   0  0  0  0  0  0  0  0  0  0  0  0
    5.8083   -1.3806    2.4781 C   0  0  0  0  0  0  0  0  0  0  0  0
    7.0212   -2.0423    2.3315 C   0  0  0  0  0  0  0  0  0  0  0  0
    7.2612   -2.9773    3.3490 C   0  0  0  0  0  0  0  0  0  0  0  0
    8.3639   -3.8516    3.4327 C   0  0  0  0  0  0  0  0  0  0  0  0
    9.4151   -3.8850    2.4006 C   0  0  0  0  0  0  0  0  0  0  0  0
    9.1634   -4.2512    0.7768 S   0  0  0  0  0  0  0  0  0  0  0  0
   10.7716   -4.0973    0.3039 C   0  0  0  0  0  0  0  0  0  0  0  0
   11.2595   -4.1865   -1.1075 C   0  0  0  0  0  0  0  0  0  0  0  0
   11.1800   -2.8227   -1.7901 C   0  0  0  0  0  0  0  0  0  0  0  0
   11.5297   -3.7384    1.4190 C   0  0  0  0  0  0  0  0  0  0  0  0
   13.2592   -3.4372    1.3584 Cl  0  0  0  0  0  0  0  0  0  0  0  0
   10.7712   -3.6273    2.5946 C   0  0  0  0  0  0  0  0  0  0  0  0
   11.4628   -3.1493    4.1404 Cl  0  0  0  0  0  0  0  0  0  0  0  0
    8.3850   -4.7415    4.5226 C   0  0  0  0  0  0  0  0  0  0  0  0
    7.3915   -4.7512    5.5073 C   0  0  0  0  0  0  0  0  0  0  0  0
    6.3058   -3.8538    5.4430 C   0  0  0  0  0  0  0  0  0  0  0  0
    5.2924   -3.7878    6.5116 C   0  0  0  0  0  0  0  0  0  0  0  0
    3.6428   -4.0569    6.3027 S   0  0  0  0  0  0  0  0  0  0  0  0
    3.2300   -3.8754    7.9231 C   0  0  0  0  0  0  0  0  0  0  0  0
    1.8349   -3.9284    8.4599 C   0  0  0  0  0  0  0  0  0  0  0  0
    1.2757   -2.5226    8.6214 C   0  0  0  0  0  0  0  0  0  0  0  0
    4.3786   -3.5763    8.6513 C   0  0  0  0  0  0  0  0  0  0  0  0
    5.5351   -3.5258    7.8611 C   0  0  0  0  0  0  0  0  0  0  0  0
    7.1168   -3.1095    8.5029 Cl  0  0  0  0  0  0  0  0  0  0  0  0
    4.3824   -3.2751   10.3845 Cl  0  0  0  0  0  0  0  0  0  0  0  0
    6.2519   -3.0042    4.3204 C   0  0  0  0  0  0  0  0  0  0  0  0
    5.0375   -1.9240    3.8753 S   0  0  0  0  0  0  0  0  0  0  0  0
    7.5780   -5.7608    6.4663 C   0  0  0  0  0  0  0  0  0  0  0  0
    8.7130   -6.5316    6.2342 C   0  0  0  0  0  0  0  0  0  0  0  0
    9.4796   -5.9787    4.8400 S   0  0  0  0  0  0  0  0  0  0  0  0
    0.9088    0.9223   12.0862 H   0  0  0  0  0  0  0  0  0  0  0  0
    1.2749    2.3629    9.9512 H   0  0  0  0  0  0  0  0  0  0  0  0
    1.0059    6.9605    6.0363 H   0  0  0  0  0  0  0  0  0  0  0  0
    2.7788    6.6747    5.9953 H   0  0  0  0  0  0  0  0  0  0  0  0
    0.7351    5.7570    3.8622 H   0  0  0  0  0  0  0  0  0  0  0  0
    2.5225    5.4484    3.8034 H   0  0  0  0  0  0  0  0  0  0  0  0
    1.8870    7.1357    3.7159 H   0  0  0  0  0  0  0  0  0  0  0  0
   -4.3892   -6.0656    9.1421 H   0  0  0  0  0  0  0  0  0  0  0  0
   -3.0543   -6.1537    7.9433 H   0  0  0  0  0  0  0  0  0  0  0  0
   -2.4871   -7.4185   10.0109 H   0  0  0  0  0  0  0  0  0  0  0  0
   -1.3620   -6.0235    9.7908 H   0  0  0  0  0  0  0  0  0  0  0  0
   -2.7010   -5.9315   11.0080 H   0  0  0  0  0  0  0  0  0  0  0  0
   -3.2636   -1.3625    5.8871 H   0  0  0  0  0  0  0  0  0  0  0  0
   -4.0713   -1.7990    3.5706 H   0  0  0  0  0  0  0  0  0  0  0  0
   -7.5050   -7.0037    2.3337 H   0  0  0  0  0  0  0  0  0  0  0  0
   -8.7812   -5.7937    1.9725 H   0  0  0  0  0  0  0  0  0  0  0  0
   -7.2249   -6.0516    4.6354 H   0  0  0  0  0  0  0  0  0  0  0  0
   -8.9376   -6.5530    4.3306 H   0  0  0  0  0  0  0  0  0  0  0  0
   -8.4899   -4.8075    4.2739 H   0  0  0  0  0  0  0  0  0  0  0  0
    0.0512    3.5297   -2.5301 H   0  0  0  0  0  0  0  0  0  0  0  0
   -0.1621    4.9525   -1.4535 H   0  0  0  0  0  0  0  0  0  0  0  0
   -1.7596    5.9556   -3.1632 H   0  0  0  0  0  0  0  0  0  0  0  0
   -0.1078    5.6586   -3.8240 H   0  0  0  0  0  0  0  0  0  0  0  0
   -1.4461    4.5087   -4.2105 H   0  0  0  0  0  0  0  0  0  0  0  0
   -5.2399    1.0813   -2.8404 H   0  0  0  0  0  0  0  0  0  0  0  0
  -10.4352   -2.8885   -3.9575 H   0  0  0  0  0  0  0  0  0  0  0  0
   -9.3089   -4.2565   -4.3725 H   0  0  0  0  0  0  0  0  0  0  0  0
  -10.1118   -3.3535   -1.5330 H   0  0  0  0  0  0  0  0  0  0  0  0
   -8.9941   -4.7149   -1.9371 H   0  0  0  0  0  0  0  0  0  0  0  0
  -10.7393   -4.8125   -2.4049 H   0  0  0  0  0  0  0  0  0  0  0  0
   -9.1562   -2.5450   -6.0487 H   0  0  0  0  0  0  0  0  0  0  0  0
  -10.2757   -1.4776   -8.0066 H   0  0  0  0  0  0  0  0  0  0  0  0
   -9.2465   -2.9179   -8.4231 H   0  0  0  0  0  0  0  0  0  0  0  0
  -10.5457   -2.0676  -10.3911 H   0  0  0  0  0  0  0  0  0  0  0  0
   -8.7603   -1.9519  -10.6471 H   0  0  0  0  0  0  0  0  0  0  0  0
   -9.7187   -0.4691  -10.2407 H   0  0  0  0  0  0  0  0  0  0  0  0
   -5.3518    0.4327   -4.9877 H   0  0  0  0  0  0  0  0  0  0  0  0
   -6.0858    1.6648   -7.2972 H   0  0  0  0  0  0  0  0  0  0  0  0
   -5.0694   -0.9522   -8.5029 H   0  0  0  0  0  0  0  0  0  0  0  0
   -2.6028   -0.6811   -9.2856 H   0  0  0  0  0  0  0  0  0  0  0  0
    1.7731   -4.5197   -9.0155 H   0  0  0  0  0  0  0  0  0  0  0  0
    1.4820   -4.6238  -10.7875 H   0  0  0  0  0  0  0  0  0  0  0  0
    3.5248   -3.1858  -11.1924 H   0  0  0  0  0  0  0  0  0  0  0  0
    3.8260   -3.1505   -9.4079 H   0  0  0  0  0  0  0  0  0  0  0  0
    3.9110   -4.7117  -10.3122 H   0  0  0  0  0  0  0  0  0  0  0  0
   -3.0811    8.5630   -5.1855 H   0  0  0  0  0  0  0  0  0  0  0  0
   -4.3948    7.3405   -5.1858 H   0  0  0  0  0  0  0  0  0  0  0  0
   -4.7902    7.7690   -7.6363 H   0  0  0  0  0  0  0  0  0  0  0  0
   -3.4812    9.0191   -7.6208 H   0  0  0  0  0  0  0  0  0  0  0  0
   -4.9828    9.2638   -6.6478 H   0  0  0  0  0  0  0  0  0  0  0  0
    0.6796    3.8921   -5.4222 H   0  0  0  0  0  0  0  0  0  0  0  0
    4.1728    3.1204   -4.1421 H   0  0  0  0  0  0  0  0  0  0  0  0
    6.4157    7.2047   -1.9505 H   0  0  0  0  0  0  0  0  0  0  0  0
    8.1515    6.7864   -2.1599 H   0  0  0  0  0  0  0  0  0  0  0  0
    8.3270    6.2814    0.2965 H   0  0  0  0  0  0  0  0  0  0  0  0
    6.5817    6.7071    0.5057 H   0  0  0  0  0  0  0  0  0  0  0  0
    7.7650    7.9705   -0.0070 H   0  0  0  0  0  0  0  0  0  0  0  0
    0.3620   -4.8299   -3.3957 H   0  0  0  0  0  0  0  0  0  0  0  0
   -1.2687   -4.3958   -2.7807 H   0  0  0  0  0  0  0  0  0  0  0  0
   -0.5138   -6.6044   -1.8918 H   0  0  0  0  0  0  0  0  0  0  0  0
   -0.7124   -5.4106   -0.5511 H   0  0  0  0  0  0  0  0  0  0  0  0
    0.9410   -5.8268   -1.1594 H   0  0  0  0  0  0  0  0  0  0  0  0
    3.4143   -1.7566    1.0155 H   0  0  0  0  0  0  0  0  0  0  0  0
    7.6700   -1.8836    1.4817 H   0  0  0  0  0  0  0  0  0  0  0  0
   12.3086   -4.5541   -1.1203 H   0  0  0  0  0  0  0  0  0  0  0  0
   10.6350   -4.9147   -1.6691 H   0  0  0  0  0  0  0  0  0  0  0  0
   10.1179   -2.5323   -1.9308 H   0  0  0  0  0  0  0  0  0  0  0  0
   11.6930   -2.0493   -1.1791 H   0  0  0  0  0  0  0  0  0  0  0  0
   11.6707   -2.8759   -2.7815 H   0  0  0  0  0  0  0  0  0  0  0  0
    1.1864   -4.4999    7.7631 H   0  0  0  0  0  0  0  0  0  0  0  0
    1.8296   -4.4465    9.4402 H   0  0  0  0  0  0  0  0  0  0  0  0
    1.9344   -1.9000    9.2662 H   0  0  0  0  0  0  0  0  0  0  0  0
    0.2813   -2.5880    9.1050 H   0  0  0  0  0  0  0  0  0  0  0  0
    1.1647   -2.0316    7.6298 H   0  0  0  0  0  0  0  0  0  0  0  0
    6.9031   -5.9507    7.2902 H   0  0  0  0  0  0  0  0  0  0  0  0
    9.0363   -7.3620    6.8425 H   0  0  0  0  0  0  0  0  0  0  0  0
  1  2  2  0
  2  3  1  0
  3  4  2  0
  4  5  1  0
  5  6  1  0
  6  7  1  0
  7  8  1  0
  8  9  1  0
  7 10  2  0
 10 11  1  0
 10 12  1  0
 12 13  1  0
  4 14  1  0
 14 15  2  0
 15 16  1  0
 16 17  1  0
 17 18  1  0
 18 19  1  0
 19 20  1  0
 20 21  1  0
 19 22  2  0
 22 23  1  0
 23 24  1  0
 22 25  1  0
 16 26  2  0
 26 27  1  0
 15 28  1  0
 28 29  2  0
 29 30  1  0
 29 31  1  0
 31 32  2  0
 32 33  1  0
 33 34  2  0
 34 35  1  0
 35 36  1  0
 36 37  1  0
 37 38  1  0
 38 39  1  0
 37 40  2  0
 40 41  1  0
 40 42  1  0
 42 43  1  0
 34 44  1  0
 44 45  2  0
 45 46  1  0
 46 47  1  0
 47 48  1  0
 48 49  1  0
 49 50  1  0
 50 51  1  0
 49 52  2  0
 52 53  1  0
 53 54  1  0
 52 55  1  0
 46 56  2  0
 56 57  1  0
 45 58  1  0
 58 59  2  0
 59 60  1  0
 59 61  1  0
 61 62  2  0
 62 63  1  0
 63 64  1  0
 64 65  1  0
 62 66  1  0
 66 67  2  0
 67 68  1  0
 68 69  1  0
 69 70  1  0
 67 71  1  0
 71 72  2  0
 71 73  1  0
 73 74  2  3
 74 75  1  0
 75 76  2  0
 76 77  1  0
 77 78  2  0
 78 79  1  0
 79 80  1  0
 80 81  1  0
 81 82  1  0
 82 83  1  0
 81 84  2  0
 84 85  1  0
 84 86  1  0
 86 87  1  0
 78 88  1  0
 88 89  2  0
 89 90  1  0
 90 91  1  0
 91 92  1  0
 92 93  1  0
 93 94  1  0
 94 95  1  0
 93 96  2  0
 96 97  1  0
 97 98  1  0
 96 99  1  0
 90100  2  0
100101  1  0
 89102  1  0
102103  2  0
103104  1  0
103105  1  0
105106  2  0
106107  1  0
107108  2  0
108109  1  0
109110  1  0
110111  1  0
111112  1  0
112113  1  0
111114  2  0
114115  1  0
114116  1  0
116117  1  0
108118  1  0
118119  2  0
119120  1  0
120121  1  0
121122  1  0
122123  1  0
123124  1  0
124125  1  0
123126  2  0
126127  1  0
127128  1  0
126129  1  0
120130  2  0
130131  1  0
119132  1  0
132133  2  0
133134  1  0
133135  1  0
135136  2  0
136137  1  0
137138  2  0
138139  1  0
139140  1  0
140141  1  0
141142  1  0
142143  1  0
141144  2  0
144145  1  0
144146  1  0
146147  1  0
138148  1  0
148149  2  0
149150  1  0
150151  1  0
151152  1  0
152153  1  0
153154  1  0
154155  1  0
153156  2  0
156157  1  0
157158  1  0
156159  1  0
150160  2  0
160161  1  0
149162  1  0
162163  2  0
163164  1  0
 27  1  1  0
 57 31  1  0
 72 61  1  0
101 75  1  0
131105  1  0
161135  1  0
 26  3  1  0
 56 33  1  0
100 77  1  0
130107  1  0
160137  1  0
 12  5  2  0
 30 14  1  0
 42 35  2  0
 60 44  1  0
 86 79  2  0
104 88  1  0
116109  2  0
134118  1  0
146139  2  0
164148  1  0
 23 17  2  0
 53 47  2  0
 97 91  2  0
127121  2  0
157151  2  0
  1165  1  0
  2166  1  0
  8167  1  0
  8168  1  0
  9169  1  0
  9170  1  0
  9171  1  0
 20172  1  0
 20173  1  0
 21174  1  0
 21175  1  0
 21176  1  0
 28177  1  0
 32178  1  0
 38179  1  0
 38180  1  0
 39181  1  0
 39182  1  0
 39183  1  0
 50184  1  0
 50185  1  0
 51186  1  0
 51187  1  0
 51188  1  0
 58189  1  0
 64190  1  0
 64191  1  0
 65192  1  0
 65193  1  0
 65194  1  0
 66195  1  0
 69196  1  0
 69197  1  0
 70198  1  0
 70199  1  0
 70200  1  0
 72201  1  0
 73202  1  0
 74203  1  0
 76204  1  0
 82205  1  0
 82206  1  0
 83207  1  0
 83208  1  0
 83209  1  0
 94210  1  0
 94211  1  0
 95212  1  0
 95213  1  0
 95214  1  0
102215  1  0
106216  1  0
112217  1  0
112218  1  0
113219  1  0
113220  1  0
113221  1  0
124222  1  0
124223  1  0
125224  1  0
125225  1  0
125226  1  0
132227  1  0
136228  1  0
142229  1  0
142230  1  0
143231  1  0
143232  1  0
143233  1  0
154234  1  0
154235  1  0
155236  1  0
155237  1  0
155238  1  0
162239  1  0
163240  1  0
M  END

