
     RDKit          3D

255282  0  0  0  0  0  0  0  0999 V2000
    6.8239    0.8520   11.9031 C   0  0  0  0  0  0  0  0  0  0  0  0
    7.8194    0.4055   11.0400 C   0  0  0  0  0  0  0  0  0  0  0  0
    7.3209   -0.0745    9.8174 C   0  0  0  0  0  0  0  0  0  0  0  0
    8.0812   -0.5729    8.7357 C   0  0  0  0  0  0  0  0  0  0  0  0
    9.5524   -0.6208    8.7649 C   0  0  0  0  0  0  0  0  0  0  0  0
   10.4702   -2.0264    8.6317 S   0  0  0  0  0  0  0  0  0  0  0  0
   11.9712   -1.2740    8.7273 C   0  0  0  0  0  0  0  0  0  0  0  0
   13.2852   -1.9829    8.6114 C   0  0  0  0  0  0  0  0  0  0  0  0
   13.7438   -2.0381    7.1583 C   0  0  0  0  0  0  0  0  0  0  0  0
   11.7727    0.1017    8.8371 C   0  0  0  0  0  0  0  0  0  0  0  0
   13.0900    1.2644    8.9169 Cl  0  0  0  0  0  0  0  0  0  0  0  0
   10.4184    0.4689    8.8642 C   0  0  0  0  0  0  0  0  0  0  0  0
    9.8752    2.1424    8.9382 Cl  0  0  0  0  0  0  0  0  0  0  0  0
    7.3669   -1.0087    7.6093 C   0  0  0  0  0  0  0  0  0  0  0  0
    5.9706   -0.9521    7.5332 C   0  0  0  0  0  0  0  0  0  0  0  0
    5.2118   -0.4609    8.6126 C   0  0  0  0  0  0  0  0  0  0  0  0
    3.7425   -0.3659    8.5505 C   0  0  0  0  0  0  0  0  0  0  0  0
    2.8936    0.6668    7.5285 S   0  0  0  0  0  0  0  0  0  0  0  0
    1.3608    0.2237    8.0604 C   0  0  0  0  0  0  0  0  0  0  0  0
    0.0845    0.8623    7.6033 C   0  0  0  0  0  0  0  0  0  0  0  0
   -0.2754    2.0421    8.4999 C   0  0  0  0  0  0  0  0  0  0  0  0
    1.4960   -0.7317    9.0692 C   0  0  0  0  0  0  0  0  0  0  0  0
    2.8314   -1.0728    9.3311 C   0  0  0  0  0  0  0  0  0  0  0  0
    3.3024   -2.2937   10.5090 Cl  0  0  0  0  0  0  0  0  0  0  0  0
    0.1324   -1.4280    9.9343 Cl  0  0  0  0  0  0  0  0  0  0  0  0
    5.9259   -0.0232    9.7425 C   0  0  0  0  0  0  0  0  0  0  0  0
    5.3242    0.6422   11.1645 S   0  0  0  0  0  0  0  0  0  0  0  0
    5.4658   -1.3979    6.3050 C   0  0  0  0  0  0  0  0  0  0  0  0
    6.4650   -1.7762    5.4124 C   0  0  0  0  0  0  0  0  0  0  0  0
    7.9729   -1.5797    6.1453 S   0  0  0  0  0  0  0  0  0  0  0  0
    6.2324   -2.1367    4.0085 C   0  0  0  0  0  0  0  0  0  0  0  0
    7.2055   -2.4145    3.0438 C   0  0  0  0  0  0  0  0  0  0  0  0
    6.6691   -2.5551    1.7502 C   0  0  0  0  0  0  0  0  0  0  0  0
    7.3977   -2.7158    0.5520 C   0  0  0  0  0  0  0  0  0  0  0  0
    8.8632   -2.8097    0.5460 C   0  0  0  0  0  0  0  0  0  0  0  0
    9.7431   -4.1232    1.1179 S   0  0  0  0  0  0  0  0  0  0  0  0
   11.2610   -3.4585    0.8271 C   0  0  0  0  0  0  0  0  0  0  0  0
   12.5613   -4.1183    1.1809 C   0  0  0  0  0  0  0  0  0  0  0  0
   12.9940   -3.7442    2.5951 C   0  0  0  0  0  0  0  0  0  0  0  0
   11.0954   -2.1750    0.3060 C   0  0  0  0  0  0  0  0  0  0  0  0
   12.4340   -1.1030   -0.0853 Cl  0  0  0  0  0  0  0  0  0  0  0  0
    9.7496   -1.8137    0.1433 C   0  0  0  0  0  0  0  0  0  0  0  0
    9.2316   -0.2418   -0.4458 Cl  0  0  0  0  0  0  0  0  0  0  0  0
    6.6612   -2.7123   -0.6478 C   0  0  0  0  0  0  0  0  0  0  0  0
    5.2694   -2.5643   -0.6705 C   0  0  0  0  0  0  0  0  0  0  0  0
    4.5463   -2.3665    0.5211 C   0  0  0  0  0  0  0  0  0  0  0  0
    3.1331   -1.9437    0.5238 C   0  0  0  0  0  0  0  0  0  0  0  0
    1.9032   -2.6993    1.3902 S   0  0  0  0  0  0  0  0  0  0  0  0
    0.7401   -1.5180    1.1136 C   0  0  0  0  0  0  0  0  0  0  0  0
   -0.6605   -1.5595    1.6474 C   0  0  0  0  0  0  0  0  0  0  0  0
   -1.6207   -2.0958    0.5917 C   0  0  0  0  0  0  0  0  0  0  0  0
    1.2978   -0.5097    0.3308 C   0  0  0  0  0  0  0  0  0  0  0  0
    2.6422   -0.7393    0.0094 C   0  0  0  0  0  0  0  0  0  0  0  0
    3.6311    0.4302   -0.8586 Cl  0  0  0  0  0  0  0  0  0  0  0  0
    0.4188    0.9280   -0.1700 Cl  0  0  0  0  0  0  0  0  0  0  0  0
    5.2799   -2.3950    1.7155 C   0  0  0  0  0  0  0  0  0  0  0  0
    4.7240   -2.0695    3.2623 S   0  0  0  0  0  0  0  0  0  0  0  0
    4.7359   -2.5468   -1.9638 C   0  0  0  0  0  0  0  0  0  0  0  0
    5.7044   -2.6422   -2.9597 C   0  0  0  0  0  0  0  0  0  0  0  0
    7.2307   -2.7476   -2.2396 S   0  0  0  0  0  0  0  0  0  0  0  0
    5.4285   -2.2650   -4.3453 C   0  0  0  0  0  0  0  0  0  0  0  0
    5.6232   -0.9577   -4.7852 C   0  0  0  0  0  0  0  0  0  0  0  0
    4.7075   -0.5590   -5.7756 C   0  0  0  0  0  0  0  0  0  0  0  0
    4.4682    0.7731   -6.1668 C   0  0  0  0  0  0  0  0  0  0  0  0
    5.3283    1.8724   -5.6984 C   0  0  0  0  0  0  0  0  0  0  0  0
    6.9161    2.1249   -6.1943 S   0  0  0  0  0  0  0  0  0  0  0  0
    7.1917    3.4817   -5.2334 C   0  0  0  0  0  0  0  0  0  0  0  0
    8.4804    4.2511   -5.1959 C   0  0  0  0  0  0  0  0  0  0  0  0
    8.7795    4.8840   -6.5547 C   0  0  0  0  0  0  0  0  0  0  0  0
    6.0321    3.7481   -4.4982 C   0  0  0  0  0  0  0  0  0  0  0  0
    5.8941    5.0548   -3.3284 Cl  0  0  0  0  0  0  0  0  0  0  0  0
    4.9945    2.8375   -4.7497 C   0  0  0  0  0  0  0  0  0  0  0  0
    3.4673    2.8527   -3.8801 Cl  0  0  0  0  0  0  0  0  0  0  0  0
    3.2849    1.0254   -6.8854 C   0  0  0  0  0  0  0  0  0  0  0  0
    2.4043    0.0056   -7.2599 C   0  0  0  0  0  0  0  0  0  0  0  0
    2.6703   -1.3342   -6.9146 C   0  0  0  0  0  0  0  0  0  0  0  0
    1.6920   -2.4051   -7.1645 C   0  0  0  0  0  0  0  0  0  0  0  0
    0.1646   -2.4972   -6.4618 S   0  0  0  0  0  0  0  0  0  0  0  0
   -0.3140   -3.9030   -7.2504 C   0  0  0  0  0  0  0  0  0  0  0  0
   -1.6100   -4.6125   -7.0081 C   0  0  0  0  0  0  0  0  0  0  0  0
   -1.4304   -5.7256   -5.9831 C   0  0  0  0  0  0  0  0  0  0  0  0
    0.7413   -4.3408   -8.0556 C   0  0  0  0  0  0  0  0  0  0  0  0
    1.8652   -3.5014   -8.0053 C   0  0  0  0  0  0  0  0  0  0  0  0
    3.3332   -3.7931   -8.9282 Cl  0  0  0  0  0  0  0  0  0  0  0  0
    0.6603   -5.7857   -9.0528 Cl  0  0  0  0  0  0  0  0  0  0  0  0
    3.8221   -1.5769   -6.1452 C   0  0  0  0  0  0  0  0  0  0  0  0
    4.1485   -2.9383   -5.2192 S   0  0  0  0  0  0  0  0  0  0  0  0
    1.2105    0.4871   -7.8194 C   0  0  0  0  0  0  0  0  0  0  0  0
    1.1153    1.8775   -7.8087 C   0  0  0  0  0  0  0  0  0  0  0  0
    2.5473    2.5122   -7.1801 S   0  0  0  0  0  0  0  0  0  0  0  0
   -0.1761    2.5714   -7.7965 C   0  0  0  0  0  0  0  0  0  0  0  0
   -0.6403    3.2914   -6.6944 C   0  0  0  0  0  0  0  0  0  0  0  0
   -2.0410    3.3898   -6.6493 C   0  0  0  0  0  0  0  0  0  0  0  0
   -2.8054    3.9000   -5.5796 C   0  0  0  0  0  0  0  0  0  0  0  0
   -2.1818    4.4721   -4.3772 C   0  0  0  0  0  0  0  0  0  0  0  0
   -1.2518    3.6154   -3.2670 S   0  0  0  0  0  0  0  0  0  0  0  0
   -0.9149    4.9291   -2.2703 C   0  0  0  0  0  0  0  0  0  0  0  0
   -0.0291    4.8733   -1.0626 C   0  0  0  0  0  0  0  0  0  0  0  0
    1.4292    5.0831   -1.4530 C   0  0  0  0  0  0  0  0  0  0  0  0
   -1.5131    6.0673   -2.8126 C   0  0  0  0  0  0  0  0  0  0  0  0
   -1.3487    7.6727   -2.1209 Cl  0  0  0  0  0  0  0  0  0  0  0  0
   -2.2345    5.8077   -3.9862 C   0  0  0  0  0  0  0  0  0  0  0  0
   -3.0679    7.0499   -4.9088 Cl  0  0  0  0  0  0  0  0  0  0  0  0
   -4.2001    3.7572   -5.6707 C   0  0  0  0  0  0  0  0  0  0  0  0
   -4.8256    3.1803   -6.7793 C   0  0  0  0  0  0  0  0  0  0  0  0
   -4.0647    2.6807   -7.8521 C   0  0  0  0  0  0  0  0  0  0  0  0
   -4.6864    1.9488   -8.9705 C   0  0  0  0  0  0  0  0  0  0  0  0
   -5.6959    2.6362  -10.1228 S   0  0  0  0  0  0  0  0  0  0  0  0
   -5.9553    1.2279  -11.0086 C   0  0  0  0  0  0  0  0  0  0  0  0
   -6.8842    1.1076  -12.1860 C   0  0  0  0  0  0  0  0  0  0  0  0
   -6.6274    2.1975  -13.2234 C   0  0  0  0  0  0  0  0  0  0  0  0
   -5.2698    0.1836  -10.3849 C   0  0  0  0  0  0  0  0  0  0  0  0
   -4.5586    0.5888   -9.2439 C   0  0  0  0  0  0  0  0  0  0  0  0
   -3.6688   -0.5334   -8.2152 Cl  0  0  0  0  0  0  0  0  0  0  0  0
   -5.3037   -1.4851  -10.9401 Cl  0  0  0  0  0  0  0  0  0  0  0  0
   -2.6688    2.7919   -7.7454 C   0  0  0  0  0  0  0  0  0  0  0  0
   -1.4981    2.1088   -8.7396 S   0  0  0  0  0  0  0  0  0  0  0  0
   -6.2086    3.0275   -6.6171 C   0  0  0  0  0  0  0  0  0  0  0  0
   -6.6660    3.3852   -5.3425 C   0  0  0  0  0  0  0  0  0  0  0  0
   -5.3520    4.0074   -4.4701 S   0  0  0  0  0  0  0  0  0  0  0  0
   -8.0739    3.1152   -4.8351 C   0  0  0  0  0  0  0  0  0  0  0  0
   -8.5269    1.6838   -5.2095 C   0  0  0  0  0  0  0  0  0  0  0  0
   -7.7580    0.5822   -4.4394 C   0  0  2  0  0  0  0  0  0  0  0  0
   -7.2926    1.0326   -3.0441 C   0  0  1  0  0  0  0  0  0  0  0  0
   -8.2500    2.0736   -2.4384 C   0  0  0  0  0  0  0  0  0  0  0  0
   -8.2850    3.3603   -3.3072 C   0  0  0  0  0  0  0  0  0  0  0  0
   -6.9966   -0.1366   -2.1815 N   0  0  0  0  0  0  0  0  0  0  0  0
   -8.1201   -0.7828   -1.4358 C   0  0  0  0  0  0  0  0  0  0  0  0
   -9.0802   -1.6238   -2.2777 C   0  0  0  0  0  0  0  0  0  0  0  0
   -5.8197   -0.9297   -2.6639 C   0  0  2  0  0  0  0  0  0  0  0  0
   -5.9434   -1.3871   -4.1585 C   0  0  1  0  0  0  0  0  0  0  0  0
   -6.2922   -0.0149   -5.3351 S   0  0  0  0  0  0  0  0  0  0  0  0
   -4.6375   -2.0598   -4.6205 C   0  0  0  0  0  0  0  0  0  0  0  0
   -4.2742   -3.2487   -3.7291 C   0  0  0  0  0  0  0  0  0  0  0  0
   -4.1477   -2.8152   -2.2690 C   0  0  0  0  0  0  0  0  0  0  0  0
   -5.4530   -2.1539   -1.7662 C   0  0  0  0  0  0  0  0  0  0  0  0
   -5.3166   -1.7857   -0.3045 C   0  0  0  0  0  0  0  0  0  0  0  0
   -5.2719   -2.7402    0.6282 C   0  0  0  0  0  0  0  0  0  0  0  0
   -5.5053   -2.4410    2.0418 C   0  0  0  0  0  0  0  0  0  0  0  0
   -4.6985   -2.8600    3.0943 C   0  0  0  0  0  0  0  0  0  0  0  0
   -5.3014   -2.6676    4.3519 C   0  0  0  0  0  0  0  0  0  0  0  0
   -4.7421   -2.9780    5.6103 C   0  0  0  0  0  0  0  0  0  0  0  0
   -3.3731   -3.5091    5.7582 C   0  0  0  0  0  0  0  0  0  0  0  0
   -2.1275   -2.7336    6.5871 S   0  0  0  0  0  0  0  0  0  0  0  0
   -0.9660   -3.9252    6.3287 C   0  0  0  0  0  0  0  0  0  0  0  0
    0.4588   -3.8367    6.7843 C   0  0  0  0  0  0  0  0  0  0  0  0
    1.2573   -2.8876    5.8947 C   0  0  0  0  0  0  0  0  0  0  0  0
   -1.5444   -4.9506    5.5778 C   0  0  0  0  0  0  0  0  0  0  0  0
   -0.6716   -6.3964    5.0794 Cl  0  0  0  0  0  0  0  0  0  0  0  0
   -2.8940   -4.7275    5.2735 C   0  0  0  0  0  0  0  0  0  0  0  0
   -3.9005   -5.9054    4.4428 Cl  0  0  0  0  0  0  0  0  0  0  0  0
   -5.5442   -2.7291    6.7394 C   0  0  0  0  0  0  0  0  0  0  0  0
   -6.8415   -2.2179    6.6482 C   0  0  0  0  0  0  0  0  0  0  0  0
   -7.3990   -1.9067    5.3930 C   0  0  0  0  0  0  0  0  0  0  0  0
   -8.7887   -1.4341    5.2589 C   0  0  0  0  0  0  0  0  0  0  0  0
   -9.3750    0.0274    5.8488 S   0  0  0  0  0  0  0  0  0  0  0  0
  -10.9747   -0.2208    5.3831 C   0  0  0  0  0  0  0  0  0  0  0  0
  -12.0904    0.7576    5.5951 C   0  0  0  0  0  0  0  0  0  0  0  0
  -12.3424    1.5757    4.3325 C   0  0  0  0  0  0  0  0  0  0  0  0
  -11.0647   -1.4583    4.7441 C   0  0  0  0  0  0  0  0  0  0  0  0
   -9.8427   -2.1409    4.6852 C   0  0  0  0  0  0  0  0  0  0  0  0
   -9.6686   -3.7531    4.0001 Cl  0  0  0  0  0  0  0  0  0  0  0  0
  -12.5630   -2.1122    4.0972 Cl  0  0  0  0  0  0  0  0  0  0  0  0
   -6.5911   -2.1297    4.2636 C   0  0  0  0  0  0  0  0  0  0  0  0
   -6.9689   -1.8593    2.6468 S   0  0  0  0  0  0  0  0  0  0  0  0
   -7.4875   -2.1274    7.8926 C   0  0  0  0  0  0  0  0  0  0  0  0
   -6.6959   -2.5485    8.9564 C   0  0  0  0  0  0  0  0  0  0  0  0
   -5.2025   -3.0494    8.3557 S   0  0  0  0  0  0  0  0  0  0  0  0
    6.9860    1.2585   12.8915 H   0  0  0  0  0  0  0  0  0  0  0  0
    8.8723    0.4337   11.2985 H   0  0  0  0  0  0  0  0  0  0  0  0
   13.1804   -3.0163    9.0017 H   0  0  0  0  0  0  0  0  0  0  0  0
   14.0503   -1.4610    9.2262 H   0  0  0  0  0  0  0  0  0  0  0  0
   14.7163   -2.5706    7.0957 H   0  0  0  0  0  0  0  0  0  0  0  0
   12.9985   -2.5811    6.5378 H   0  0  0  0  0  0  0  0  0  0  0  0
   13.8750   -1.0119    6.7580 H   0  0  0  0  0  0  0  0  0  0  0  0
    0.2051    1.2178    6.5592 H   0  0  0  0  0  0  0  0  0  0  0  0
   -0.7396    0.1161    7.6175 H   0  0  0  0  0  0  0  0  0  0  0  0
   -1.2335    2.4841    8.1647 H   0  0  0  0  0  0  0  0  0  0  0  0
    0.5149    2.8210    8.4471 H   0  0  0  0  0  0  0  0  0  0  0  0
   -0.3865    1.7052    9.5513 H   0  0  0  0  0  0  0  0  0  0  0  0
    4.4123   -1.4123    6.0589 H   0  0  0  0  0  0  0  0  0  0  0  0
    8.2630   -2.4524    3.2639 H   0  0  0  0  0  0  0  0  0  0  0  0
   13.3469   -3.8149    0.4583 H   0  0  0  0  0  0  0  0  0  0  0  0
   12.4459   -5.2205    1.1092 H   0  0  0  0  0  0  0  0  0  0  0  0
   12.2135   -4.0393    3.3308 H   0  0  0  0  0  0  0  0  0  0  0  0
   13.9369   -4.2770    2.8462 H   0  0  0  0  0  0  0  0  0  0  0  0
   13.1712   -2.6475    2.6642 H   0  0  0  0  0  0  0  0  0  0  0  0
   -0.7011   -2.2121    2.5461 H   0  0  0  0  0  0  0  0  0  0  0  0
   -0.9756   -0.5372    1.9545 H   0  0  0  0  0  0  0  0  0  0  0  0
   -1.3628   -3.1454    0.3329 H   0  0  0  0  0  0  0  0  0  0  0  0
   -2.6505   -2.0705    0.9953 H   0  0  0  0  0  0  0  0  0  0  0  0
   -1.5859   -1.4720   -0.3253 H   0  0  0  0  0  0  0  0  0  0  0  0
    3.6883   -2.3807   -2.1759 H   0  0  0  0  0  0  0  0  0  0  0  0
    6.2750   -0.2669   -4.2627 H   0  0  0  0  0  0  0  0  0  0  0  0
    9.3053    3.5617   -4.9260 H   0  0  0  0  0  0  0  0  0  0  0  0
    8.4436    5.0519   -4.4296 H   0  0  0  0  0  0  0  0  0  0  0  0
    7.9466    5.5497   -6.8642 H   0  0  0  0  0  0  0  0  0  0  0  0
    8.9253    4.0953   -7.3239 H   0  0  0  0  0  0  0  0  0  0  0  0
    9.7141    5.4854   -6.4845 H   0  0  0  0  0  0  0  0  0  0  0  0
   -1.9892   -5.0404   -7.9619 H   0  0  0  0  0  0  0  0  0  0  0  0
   -2.3641   -3.8923   -6.6291 H   0  0  0  0  0  0  0  0  0  0  0  0
   -2.3979   -6.2526   -5.8343 H   0  0  0  0  0  0  0  0  0  0  0  0
   -1.1045   -5.3000   -5.0099 H   0  0  0  0  0  0  0  0  0  0  0  0
   -0.6753   -6.4582   -6.3341 H   0  0  0  0  0  0  0  0  0  0  0  0
    0.3784   -0.1507   -8.0793 H   0  0  0  0  0  0  0  0  0  0  0  0
    0.0099    3.6133   -5.8888 H   0  0  0  0  0  0  0  0  0  0  0  0
   -0.3303    5.6485   -0.3246 H   0  0  0  0  0  0  0  0  0  0  0  0
   -0.1419    3.8844   -0.5729 H   0  0  0  0  0  0  0  0  0  0  0  0
    1.7336    4.3235   -2.2020 H   0  0  0  0  0  0  0  0  0  0  0  0
    2.0712    4.9746   -0.5557 H   0  0  0  0  0  0  0  0  0  0  0  0
    1.5754    6.0934   -1.8853 H   0  0  0  0  0  0  0  0  0  0  0  0
   -7.9310    1.1776  -11.8284 H   0  0  0  0  0  0  0  0  0  0  0  0
   -6.7589    0.1236  -12.6813 H   0  0  0  0  0  0  0  0  0  0  0  0
   -7.3151    2.0594  -14.0855 H   0  0  0  0  0  0  0  0  0  0  0  0
   -6.8149    3.2052  -12.7857 H   0  0  0  0  0  0  0  0  0  0  0  0
   -5.5787    2.1472  -13.5922 H   0  0  0  0  0  0  0  0  0  0  0  0
   -6.8393    2.5790   -7.3689 H   0  0  0  0  0  0  0  0  0  0  0  0
   -8.7364    3.8199   -5.3809 H   0  0  0  0  0  0  0  0  0  0  0  0
   -8.4742    1.5012   -6.3023 H   0  0  0  0  0  0  0  0  0  0  0  0
   -9.6079    1.5977   -4.9538 H   0  0  0  0  0  0  0  0  0  0  0  0
   -8.4506   -0.2726   -4.3779 H   0  0  0  0  0  0  0  0  0  0  0  0
   -6.3357    1.5862   -3.1601 H   0  0  0  0  0  0  0  0  0  0  0  0
   -7.9208    2.3352   -1.4093 H   0  0  0  0  0  0  0  0  0  0  0  0
   -9.2773    1.6487   -2.3816 H   0  0  0  0  0  0  0  0  0  0  0  0
   -9.2861    3.8276   -3.1613 H   0  0  0  0  0  0  0  0  0  0  0  0
   -7.5590    4.0998   -2.9160 H   0  0  0  0  0  0  0  0  0  0  0  0
   -8.7044   -0.0158   -0.8913 H   0  0  0  0  0  0  0  0  0  0  0  0
   -7.7402   -1.4244   -0.6244 H   0  0  0  0  0  0  0  0  0  0  0  0
   -9.8167   -0.9768   -2.8021 H   0  0  0  0  0  0  0  0  0  0  0  0
   -9.6562   -2.2841   -1.5987 H   0  0  0  0  0  0  0  0  0  0  0  0
   -8.5414   -2.2781   -2.9845 H   0  0  0  0  0  0  0  0  0  0  0  0
   -4.9405   -0.2452   -2.6163 H   0  0  0  0  0  0  0  0  0  0  0  0
   -6.7559   -2.1315   -4.2588 H   0  0  0  0  0  0  0  0  0  0  0  0
   -4.7540   -2.4163   -5.6661 H   0  0  0  0  0  0  0  0  0  0  0  0
   -3.8063   -1.3212   -4.6089 H   0  0  0  0  0  0  0  0  0  0  0  0
   -3.3060   -3.6762   -4.0706 H   0  0  0  0  0  0  0  0  0  0  0  0
   -5.0512   -4.0412   -3.8246 H   0  0  0  0  0  0  0  0  0  0  0  0
   -3.9163   -3.7170   -1.6628 H   0  0  0  0  0  0  0  0  0  0  0  0
   -3.2993   -2.1063   -2.1634 H   0  0  0  0  0  0  0  0  0  0  0  0
   -6.2730   -2.9020   -1.8588 H   0  0  0  0  0  0  0  0  0  0  0  0
   -5.3930   -0.7456   -0.0042 H   0  0  0  0  0  0  0  0  0  0  0  0
   -5.1723   -3.7815    0.3458 H   0  0  0  0  0  0  0  0  0  0  0  0
   -3.7234   -3.3095    2.9516 H   0  0  0  0  0  0  0  0  0  0  0  0
    0.4857   -3.4671    7.8290 H   0  0  0  0  0  0  0  0  0  0  0  0
    0.9344   -4.8406    6.7729 H   0  0  0  0  0  0  0  0  0  0  0  0
    0.8571   -1.8546    5.9798 H   0  0  0  0  0  0  0  0  0  0  0  0
    2.3223   -2.8893    6.2101 H   0  0  0  0  0  0  0  0  0  0  0  0
    1.1937   -3.2132    4.8325 H   0  0  0  0  0  0  0  0  0  0  0  0
  -13.0204    0.2175    5.8792 H   0  0  0  0  0  0  0  0  0  0  0  0
  -11.8301    1.4426    6.4313 H   0  0  0  0  0  0  0  0  0  0  0  0
  -11.4258    2.1340    4.0468 H   0  0  0  0  0  0  0  0  0  0  0  0
  -12.6425    0.9095    3.4959 H   0  0  0  0  0  0  0  0  0  0  0  0
  -13.1611    2.3025    4.5174 H   0  0  0  0  0  0  0  0  0  0  0  0
   -8.5021   -1.7787    8.0241 H   0  0  0  0  0  0  0  0  0  0  0  0
   -6.9995   -2.5660    9.9933 H   0  0  0  0  0  0  0  0  0  0  0  0
  1  2  2  0
  2  3  1  0
  3  4  2  0
  4  5  1  0
  5  6  1  0
  6  7  1  0
  7  8  1  0
  8  9  1  0
  7 10  2  0
 10 11  1  0
 10 12  1  0
 12 13  1  0
  4 14  1  0
 14 15  2  0
 15 16  1  0
 16 17  1  0
 17 18  1  0
 18 19  1  0
 19 20  1  0
 20 21  1  0
 19 22  2  0
 22 23  1  0
 23 24  1  0
 22 25  1  0
 16 26  2  0
 26 27  1  0
 15 28  1  0
 28 29  2  0
 29 30  1  0
 29 31  1  0
 31 32  2  0
 32 33  1  0
 33 34  2  0
 34 35  1  0
 35 36  1  0
 36 37  1  0
 37 38  1  0
 38 39  1  0
 37 40  2  0
 40 41  1  0
 40 42  1  0
 42 43  1  0
 34 44  1  0
 44 45  2  0
 45 46  1  0
 46 47  1  0
 47 48  1  0
 48 49  1  0
 49 50  1  0
 50 51  1  0
 49 52  2  0
 52 53  1  0
 53 54  1  0
 52 55  1  0
 46 56  2  0
 56 57  1  0
 45 58  1  0
 58 59  2  0
 59 60  1  0
 59 61  1  0
 61 62  2  0
 62 63  1  0
 63 64  2  0
 64 65  1  0
 65 66  1  0
 66 67  1  0
 67 68  1  0
 68 69  1  0
 67 70  2  0
 70 71  1  0
 70 72  1  0
 72 73  1  0
 64 74  1  0
 74 75  2  0
 75 76  1  0
 76 77  1  0
 77 78  1  0
 78 79  1  0
 79 80  1  0
 80 81  1  0
 79 82  2  0
 82 83  1  0
 83 84  1  0
 82 85  1  0
 76 86  2  0
 86 87  1  0
 75 88  1  0
 88 89  2  0
 89 90  1  0
 89 91  1  0
 91 92  2  0
 92 93  1  0
 93 94  2  0
 94 95  1  0
 95 96  1  0
 96 97  1  0
 97 98  1  0
 98 99  1  0
 97100  2  0
100101  1  0
100102  1  0
102103  1  0
 94104  1  0
104105  2  0
105106  1  0
106107  1  0
107108  1  0
108109  1  0
109110  1  0
110111  1  0
109112  2  0
112113  1  0
113114  1  0
112115  1  0
106116  2  0
116117  1  0
105118  1  0
118119  2  0
119120  1  0
119121  1  0
121122  1  0
122123  1  0
123124  1  0
124125  1  0
125126  1  0
124127  1  0
127128  1  0
128129  1  0
127130  1  0
130131  1  0
131132  1  0
131133  1  0
133134  1  0
134135  1  0
135136  1  0
136137  1  0
137138  2  3
138139  1  0
139140  2  0
140141  1  0
141142  2  0
142143  1  0
143144  1  0
144145  1  0
145146  1  0
146147  1  0
145148  2  0
148149  1  0
148150  1  0
150151  1  0
142152  1  0
152153  2  0
153154  1  0
154155  1  0
155156  1  0
156157  1  0
157158  1  0
158159  1  0
157160  2  0
160161  1  0
161162  1  0
160163  1  0
154164  2  0
164165  1  0
153166  1  0
166167  2  0
167168  1  0
 27  1  1  0
 57 31  1  0
 87 61  1  0
117 91  1  0
126121  1  0
136130  1  0
165139  1  0
 26  3  1  0
 56 33  1  0
 86 63  1  0
116 93  1  0
132123  1  0
164141  1  0
 12  5  2  0
 30 14  1  0
 42 35  2  0
 60 44  1  0
 72 65  2  0
 90 74  1  0
102 95  2  0
120104  1  0
150143  2  0
168152  1  0
 23 17  2  0
 53 47  2  0
 83 77  2  0
113107  2  0
161155  2  0
  1169  1  0
  2170  1  0
  8171  1  0
  8172  1  0
  9173  1  0
  9174  1  0
  9175  1  0
 20176  1  0
 20177  1  0
 21178  1  0
 21179  1  0
 21180  1  0
 28181  1  0
 32182  1  0
 38183  1  0
 38184  1  0
 39185  1  0
 39186  1  0
 39187  1  0
 50188  1  0
 50189  1  0
 51190  1  0
 51191  1  0
 51192  1  0
 58193  1  0
 62194  1  0
 68195  1  0
 68196  1  0
 69197  1  0
 69198  1  0
 69199  1  0
 80200  1  0
 80201  1  0
 81202  1  0
 81203  1  0
 81204  1  0
 88205  1  0
 92206  1  0
 98207  1  0
 98208  1  0
 99209  1  0
 99210  1  0
 99211  1  0
110212  1  0
110213  1  0
111214  1  0
111215  1  0
111216  1  0
118217  1  0
121218  1  0
122219  1  0
122220  1  0
123221  1  1
124222  1  6
125223  1  0
125224  1  0
126225  1  0
126226  1  0
128227  1  0
128228  1  0
129229  1  0
129230  1  0
129231  1  0
130232  1  6
131233  1  1
133234  1  0
133235  1  0
134236  1  0
134237  1  0
135238  1  0
135239  1  0
136240  1  0
137241  1  0
138242  1  0
140243  1  0
146244  1  0
146245  1  0
147246  1  0
147247  1  0
147248  1  0
158249  1  0
158250  1  0
159251  1  0
159252  1  0
159253  1  0
166254  1  0
167255  1  0
M  END

