
     RDKit          3D

108115  0  0  0  0  0  0  0  0999 V2000
    3.3144    5.0624    0.4233 C   0  0  0  0  0  0  0  0  0  0  0  0
    3.9889    5.4392   -0.6776 N   0  0  0  0  0  0  0  0  0  0  0  0
    5.1578    4.7766   -0.6784 C   0  0  0  0  0  0  0  0  0  0  0  0
    5.2561    3.9880    0.4635 C   0  0  0  0  0  0  0  0  0  0  0  0
    4.0687    4.1701    1.1558 C   0  0  0  0  0  0  0  0  0  0  0  0
    6.4012    3.1572    0.8999 C   0  0  0  0  0  0  0  0  0  0  0  0
    7.5115    3.2554    0.3133 O   0  0  0  0  0  0  0  0  0  0  0  0
    6.2695    2.1905    2.0348 C   0  0  0  0  0  0  0  0  0  0  0  0
    6.1487    4.9232   -1.7580 C   0  0  0  0  0  0  0  0  0  0  0  0
    6.6088    3.9185   -2.5173 C   0  0  0  0  0  0  0  0  0  0  0  0
    6.1262    2.5192   -2.4860 C   0  0  0  0  0  0  0  0  0  0  0  0
    6.8910    1.4769   -2.7817 C   0  0  0  0  0  0  0  0  0  0  0  0
    8.2470    1.5897   -3.1026 O   0  0  0  0  0  0  0  0  0  0  0  0
    9.0744    0.4605   -3.3885 C   0  0  0  0  0  0  0  0  0  0  0  0
    8.6794   -0.7606   -2.5480 C   0  0  0  0  0  0  0  0  0  0  0  0
    7.0318   -1.3434   -3.0632 S   0  0  0  0  0  0  0  0  0  0  0  0
    6.2217    0.1855   -2.5961 C   0  0  0  0  0  0  0  0  0  0  0  0
    4.9915    0.3066   -2.0850 C   0  0  0  0  0  0  0  0  0  0  0  0
    4.5191    1.9893   -2.0251 S   0  0  0  0  0  3  0  0  0  0  0  0
    3.3186    2.2781   -3.2587 N   0  0  0  0  0  0  0  0  0  0  0  0
    3.7055    3.3906   -4.1221 C   0  0  0  0  0  0  0  0  0  0  0  0
    4.0855   -0.7846   -1.6544 C   0  0  0  0  0  0  0  0  0  0  0  0
    2.7479   -0.6414   -1.5397 N   0  0  0  0  0  0  0  0  0  0  0  0
    2.2554   -1.8094   -1.0732 C   0  0  0  0  0  0  0  0  0  0  0  0
    3.2976   -2.7128   -0.8850 C   0  0  0  0  0  0  0  0  0  0  0  0
    4.4608   -2.0479   -1.2321 C   0  0  0  0  0  0  0  0  0  0  0  0
    3.2375   -4.1173   -0.4065 C   0  0  0  0  0  0  0  0  0  0  0  0
    2.1378   -4.7279   -0.3392 O   0  0  0  0  0  0  0  0  0  0  0  0
    4.4842   -4.8595   -0.0487 C   0  0  0  0  0  0  0  0  0  0  0  0
    0.8333   -2.0432   -0.7318 C   0  0  0  0  0  0  0  0  0  0  0  0
   -0.1575   -1.2252   -1.1032 C   0  0  0  0  0  0  0  0  0  0  0  0
   -1.5576   -1.4752   -0.7008 C   0  0  0  0  0  0  0  0  0  0  0  0
   -2.5520   -0.6132   -0.8723 C   0  0  0  0  0  0  0  0  0  0  0  0
   -2.4093    0.5940   -1.5624 O   0  0  0  0  0  0  0  0  0  0  0  0
   -3.4882    1.5068   -1.7896 C   0  0  0  0  0  0  0  0  0  0  0  0
   -4.8498    0.7991   -1.8596 C   0  0  0  0  0  0  0  0  0  0  0  0
   -5.2308    0.0516   -0.2426 S   0  0  0  0  0  0  0  0  0  0  0  0
   -3.8399   -1.0797   -0.3400 C   0  0  0  0  0  0  0  0  0  0  0  0
   -3.7846   -2.3327    0.1400 C   0  0  0  0  0  0  0  0  0  0  0  0
   -2.1596   -2.9612   -0.0042 S   0  0  0  0  0  3  0  0  0  0  0  0
   -2.1072   -4.2662   -1.1523 N   0  0  0  0  0  0  0  0  0  0  0  0
   -2.6854   -3.8548   -2.4297 C   0  0  0  0  0  0  0  0  0  0  0  0
   -4.8594   -3.1168    0.7979 C   0  0  0  0  0  0  0  0  0  0  0  0
   -6.1800   -2.8441    0.7634 N   0  0  0  0  0  0  0  0  0  0  0  0
   -6.7997   -3.7847    1.5070 C   0  0  0  0  0  0  0  0  0  0  0  0
   -5.8776   -4.7124    1.9688 C   0  0  0  0  0  0  0  0  0  0  0  0
   -4.6407   -4.2778    1.5244 C   0  0  0  0  0  0  0  0  0  0  0  0
   -6.1297   -5.9085    2.8027 C   0  0  0  0  0  0  0  0  0  0  0  0
   -7.2877   -6.1565    3.2287 O   0  0  0  0  0  0  0  0  0  0  0  0
   -5.0142   -6.8484    3.1495 C   0  0  0  0  0  0  0  0  0  0  0  0
   -8.2501   -3.7766    1.7887 C   0  0  0  0  0  0  0  0  0  0  0  0
   -8.9372   -2.6745    2.1320 C   0  0  0  0  0  0  0  0  0  0  0  0
   -8.3282   -1.3605    2.4320 C   0  0  0  0  0  0  0  0  0  0  0  0
   -8.9046   -0.1892    2.1060 N   0  0  0  0  0  0  0  0  0  0  0  0
   -8.0367    0.7833    2.4558 C   0  0  0  0  0  0  0  0  0  0  0  0
   -6.9104    0.2252    3.0599 C   0  0  0  0  0  0  0  0  0  0  0  0
   -7.1081   -1.1413    3.0486 C   0  0  0  0  0  0  0  0  0  0  0  0
   -5.7516    0.9139    3.6570 C   0  0  0  0  0  0  0  0  0  0  0  0
   -5.8352    2.1193    4.0067 O   0  0  0  0  0  0  0  0  0  0  0  0
   -4.4744    0.1635    3.8984 C   0  0  0  0  0  0  0  0  0  0  0  0
   -8.2873    2.2042    2.1427 C   0  0  0  0  0  0  0  0  0  0  0  0
   -7.3463    2.9948    1.6319 C   0  0  0  0  0  0  0  0  0  0  0  0
    2.3315    5.4288    0.6883 H   0  0  0  0  0  0  0  0  0  0  0  0
    3.6537    6.1013   -1.4069 H   0  0  0  0  0  0  0  0  0  0  0  0
    3.7807    3.7201    2.0937 H   0  0  0  0  0  0  0  0  0  0  0  0
    5.8120    2.6869    2.9123 H   0  0  0  0  0  0  0  0  0  0  0  0
    5.6338    1.3410    1.7227 H   0  0  0  0  0  0  0  0  0  0  0  0
    7.2665    1.8053    2.3362 H   0  0  0  0  0  0  0  0  0  0  0  0
    6.5179    5.9229   -1.9461 H   0  0  0  0  0  0  0  0  0  0  0  0
    7.3903    4.1521   -3.2287 H   0  0  0  0  0  0  0  0  0  0  0  0
   10.1270    0.7331   -3.1695 H   0  0  0  0  0  0  0  0  0  0  0  0
    9.0027    0.2089   -4.4689 H   0  0  0  0  0  0  0  0  0  0  0  0
    8.6782   -0.5047   -1.4660 H   0  0  0  0  0  0  0  0  0  0  0  0
    9.4128   -1.5788   -2.7205 H   0  0  0  0  0  0  0  0  0  0  0  0
    3.2471    1.4187   -3.8512 H   0  0  0  0  0  0  0  0  0  0  0  0
    3.8762    4.3025   -3.5137 H   0  0  0  0  0  0  0  0  0  0  0  0
    4.6208    3.1388   -4.7026 H   0  0  0  0  0  0  0  0  0  0  0  0
    2.8794    3.6031   -4.8375 H   0  0  0  0  0  0  0  0  0  0  0  0
    2.2033    0.2252   -1.7456 H   0  0  0  0  0  0  0  0  0  0  0  0
    5.4621   -2.4477   -1.1452 H   0  0  0  0  0  0  0  0  0  0  0  0
    4.2371   -5.8359    0.4203 H   0  0  0  0  0  0  0  0  0  0  0  0
    5.0872   -4.2689    0.6658 H   0  0  0  0  0  0  0  0  0  0  0  0
    5.0785   -5.0452   -0.9649 H   0  0  0  0  0  0  0  0  0  0  0  0
    0.5921   -2.9026   -0.1287 H   0  0  0  0  0  0  0  0  0  0  0  0
    0.0576   -0.3416   -1.6876 H   0  0  0  0  0  0  0  0  0  0  0  0
   -3.4965    2.2690   -0.9776 H   0  0  0  0  0  0  0  0  0  0  0  0
   -3.3015    2.0319   -2.7503 H   0  0  0  0  0  0  0  0  0  0  0  0
   -5.6331    1.5450   -2.1066 H   0  0  0  0  0  0  0  0  0  0  0  0
   -4.8407    0.0192   -2.6539 H   0  0  0  0  0  0  0  0  0  0  0  0
   -1.0965   -4.4766   -1.3178 H   0  0  0  0  0  0  0  0  0  0  0  0
   -2.1064   -3.0190   -2.8856 H   0  0  0  0  0  0  0  0  0  0  0  0
   -2.6620   -4.7141   -3.1309 H   0  0  0  0  0  0  0  0  0  0  0  0
   -3.7485   -3.5546   -2.2981 H   0  0  0  0  0  0  0  0  0  0  0  0
   -6.6618   -2.0853    0.2377 H   0  0  0  0  0  0  0  0  0  0  0  0
   -3.6863   -4.7513    1.7113 H   0  0  0  0  0  0  0  0  0  0  0  0
   -5.3977   -7.7040    3.7449 H   0  0  0  0  0  0  0  0  0  0  0  0
   -4.5493   -7.2409    2.2249 H   0  0  0  0  0  0  0  0  0  0  0  0
   -4.2457   -6.3211    3.7504 H   0  0  0  0  0  0  0  0  0  0  0  0
   -8.7939   -4.7075    1.6758 H   0  0  0  0  0  0  0  0  0  0  0  0
  -10.0133   -2.7453    2.1991 H   0  0  0  0  0  0  0  0  0  0  0  0
   -9.8198   -0.0630    1.6130 H   0  0  0  0  0  0  0  0  0  0  0  0
   -6.4465   -1.8909    3.4555 H   0  0  0  0  0  0  0  0  0  0  0  0
   -4.5880   -0.4680    4.8021 H   0  0  0  0  0  0  0  0  0  0  0  0
   -4.2258   -0.4811    3.0266 H   0  0  0  0  0  0  0  0  0  0  0  0
   -3.6373    0.8717    4.0580 H   0  0  0  0  0  0  0  0  0  0  0  0
   -9.2971    2.5836    2.2234 H   0  0  0  0  0  0  0  0  0  0  0  0
   -7.5822    4.0185    1.3664 H   0  0  0  0  0  0  0  0  0  0  0  0
   -6.3471    2.6302    1.4483 H   0  0  0  0  0  0  0  0  0  0  0  0
  1  2  1  0
  2  3  1  0
  3  4  2  0
  4  5  1  0
  4  6  1  0
  6  7  2  0
  6  8  1  0
  3  9  1  0
  9 10  2  3
 10 11  1  0
 11 12  2  0
 12 13  1  0
 13 14  1  0
 14 15  1  0
 15 16  1  0
 16 17  1  0
 17 18  2  0
 18 19  1  0
 19 20  1  0
 20 21  1  0
 18 22  1  0
 22 23  1  0
 23 24  1  0
 24 25  2  0
 25 26  1  0
 25 27  1  0
 27 28  2  0
 27 29  1  0
 24 30  1  0
 30 31  2  3
 31 32  1  0
 32 33  2  0
 33 34  1  0
 34 35  1  0
 35 36  1  0
 36 37  1  0
 37 38  1  0
 38 39  2  0
 39 40  1  0
 40 41  1  0
 41 42  1  0
 39 43  1  0
 43 44  1  0
 44 45  1  0
 45 46  2  0
 46 47  1  0
 46 48  1  0
 48 49  2  0
 48 50  1  0
 45 51  1  0
 51 52  2  3
 52 53  1  0
 53 54  1  0
 54 55  1  0
 55 56  2  0
 56 57  1  0
 56 58  1  0
 58 59  2  0
 58 60  1  0
 55 61  1  0
 61 62  2  3
  5  1  2  0
 19 11  1  0
 26 22  2  0
 40 32  1  0
 47 43  2  0
 57 53  2  0
 17 12  1  0
 38 33  1  0
  1 63  1  0
  2 64  1  0
  5 65  1  0
  8 66  1  0
  8 67  1  0
  8 68  1  0
  9 69  1  0
 10 70  1  0
 14 71  1  0
 14 72  1  0
 15 73  1  0
 15 74  1  0
 20 75  1  0
 21 76  1  0
 21 77  1  0
 21 78  1  0
 23 79  1  0
 26 80  1  0
 29 81  1  0
 29 82  1  0
 29 83  1  0
 30 84  1  0
 31 85  1  0
 35 86  1  0
 35 87  1  0
 36 88  1  0
 36 89  1  0
 41 90  1  0
 42 91  1  0
 42 92  1  0
 42 93  1  0
 44 94  1  0
 47 95  1  0
 50 96  1  0
 50 97  1  0
 50 98  1  0
 51 99  1  0
 52100  1  0
 54101  1  0
 57102  1  0
 60103  1  0
 60104  1  0
 60105  1  0
 61106  1  0
 62107  1  0
 62108  1  0
M  RAD  2  19   2  40   2
M  END

