
     RDKit          3D

227253  0  0  0  0  0  0  0  0999 V2000
    1.0195  -11.5578   11.1463 C   0  0  0  0  0  0  0  0  0  0  0  0
    1.5315  -11.7430    9.8661 C   0  0  0  0  0  0  0  0  0  0  0  0
    0.8184  -11.0464    8.8767 C   0  0  0  0  0  0  0  0  0  0  0  0
    1.1186  -11.0059    7.5001 C   0  0  0  0  0  0  0  0  0  0  0  0
    2.2606  -11.7386    6.9292 C   0  0  0  0  0  0  0  0  0  0  0  0
    3.6103  -11.0181    6.2297 S   0  0  0  0  0  0  0  0  0  0  0  0
    4.3896  -12.4541    5.8269 C   0  0  0  0  0  0  0  0  0  0  0  0
    5.6789  -12.5372    5.0674 C   0  0  0  0  0  0  0  0  0  0  0  0
    5.4168  -12.5514    3.5639 C   0  0  0  0  0  0  0  0  0  0  0  0
    3.5820  -13.5234    6.2107 C   0  0  0  0  0  0  0  0  0  0  0  0
    3.9930  -15.2078    5.9178 Cl  0  0  0  0  0  0  0  0  0  0  0  0
    2.3912  -13.1229    6.8369 C   0  0  0  0  0  0  0  0  0  0  0  0
    1.1555  -14.2491    7.3832 Cl  0  0  0  0  0  0  0  0  0  0  0  0
    0.2928  -10.2060    6.6929 C   0  0  0  0  0  0  0  0  0  0  0  0
   -0.7801   -9.4736    7.2098 C   0  0  0  0  0  0  0  0  0  0  0  0
   -1.0728   -9.4990    8.5888 C   0  0  0  0  0  0  0  0  0  0  0  0
   -2.1751   -8.7064    9.1711 C   0  0  0  0  0  0  0  0  0  0  0  0
   -3.4800   -9.3572   10.0092 S   0  0  0  0  0  0  0  0  0  0  0  0
   -4.2554   -7.8937   10.2999 C   0  0  0  0  0  0  0  0  0  0  0  0
   -5.5729   -7.7531   11.0012 C   0  0  0  0  0  0  0  0  0  0  0  0
   -6.7227   -7.7967   10.0021 C   0  0  0  0  0  0  0  0  0  0  0  0
   -3.5063   -6.8683    9.7257 C   0  0  0  0  0  0  0  0  0  0  0  0
   -2.3318   -7.3226    9.1080 C   0  0  0  0  0  0  0  0  0  0  0  0
   -1.1566   -6.2358    8.3721 Cl  0  0  0  0  0  0  0  0  0  0  0  0
   -3.9867   -5.1765    9.7584 Cl  0  0  0  0  0  0  0  0  0  0  0  0
   -0.2535  -10.3091    9.3922 C   0  0  0  0  0  0  0  0  0  0  0  0
   -0.3080  -10.5221   11.0598 S   0  0  0  0  0  0  0  0  0  0  0  0
   -1.4761   -8.7524    6.2290 C   0  0  0  0  0  0  0  0  0  0  0  0
   -0.9281   -8.8926    4.9565 C   0  0  0  0  0  0  0  0  0  0  0  0
    0.3929   -9.9425    5.0304 S   0  0  0  0  0  0  0  0  0  0  0  0
   -1.3110   -8.0980    3.7807 C   0  0  0  0  0  0  0  0  0  0  0  0
   -2.0185   -6.9002    3.8361 C   0  0  0  0  0  0  0  0  0  0  0  0
   -2.0704   -6.2355    2.6043 C   0  0  0  0  0  0  0  0  0  0  0  0
   -2.6441   -4.9702    2.3712 C   0  0  0  0  0  0  0  0  0  0  0  0
   -3.2639   -4.1845    3.4547 C   0  0  0  0  0  0  0  0  0  0  0  0
   -4.9034   -3.8228    3.5499 S   0  0  0  0  0  0  0  0  0  0  0  0
   -4.8239   -3.0196    5.0249 C   0  0  0  0  0  0  0  0  0  0  0  0
   -6.0117   -2.4711    5.7585 C   0  0  0  0  0  0  0  0  0  0  0  0
   -6.5425   -3.4886    6.7628 C   0  0  0  0  0  0  0  0  0  0  0  0
   -3.5032   -3.0332    5.4727 C   0  0  0  0  0  0  0  0  0  0  0  0
   -2.9886   -2.3333    7.0017 Cl  0  0  0  0  0  0  0  0  0  0  0  0
   -2.6265   -3.6790    4.5861 C   0  0  0  0  0  0  0  0  0  0  0  0
   -0.8976   -3.8270    4.8787 Cl  0  0  0  0  0  0  0  0  0  0  0  0
   -2.5439   -4.4603    1.0677 C   0  0  0  0  0  0  0  0  0  0  0  0
   -1.9116   -5.1574    0.0328 C   0  0  0  0  0  0  0  0  0  0  0  0
   -1.3683   -6.4396    0.2560 C   0  0  0  0  0  0  0  0  0  0  0  0
   -0.7734   -7.2277   -0.8408 C   0  0  0  0  0  0  0  0  0  0  0  0
    0.8194   -7.7695   -0.8922 S   0  0  0  0  0  0  0  0  0  0  0  0
    0.7021   -8.5316   -2.3897 C   0  0  0  0  0  0  0  0  0  0  0  0
    1.8436   -9.1857   -3.1070 C   0  0  0  0  0  0  0  0  0  0  0  0
    2.5949   -8.1679   -3.9604 C   0  0  0  0  0  0  0  0  0  0  0  0
   -0.5921   -8.3561   -2.8792 C   0  0  0  0  0  0  0  0  0  0  0  0
   -1.4197   -7.6315   -2.0082 C   0  0  0  0  0  0  0  0  0  0  0  0
   -3.1150   -7.3043   -2.3463 Cl  0  0  0  0  0  0  0  0  0  0  0  0
   -1.1344   -8.9710   -4.4355 Cl  0  0  0  0  0  0  0  0  0  0  0  0
   -1.4398   -6.9374    1.5709 C   0  0  0  0  0  0  0  0  0  0  0  0
   -0.7853   -8.3600    2.1956 S   0  0  0  0  0  0  0  0  0  0  0  0
   -1.7963   -4.4019   -1.1469 C   0  0  0  0  0  0  0  0  0  0  0  0
   -2.3723   -3.1350   -1.0456 C   0  0  0  0  0  0  0  0  0  0  0  0
   -2.9663   -2.9281    0.5209 S   0  0  0  0  0  0  0  0  0  0  0  0
   -2.1559   -2.0220   -1.9837 C   0  0  0  0  0  0  0  0  0  0  0  0
   -1.6754   -0.8576   -1.4536 N   0  0  0  0  0  0  0  0  0  0  0  0
   -1.3637    0.1879   -2.2506 C   0  0  0  0  0  0  0  0  0  0  0  0
   -0.8105    1.3815   -1.8168 C   0  0  0  0  0  0  0  0  0  0  0  0
   -0.5187    2.3003   -3.2033 S   0  0  0  0  0  0  0  0  0  0  0  0
   -1.1248    1.2062   -4.3365 C   0  0  0  0  0  0  0  0  0  0  0  0
   -1.5335    0.0902   -3.6252 C   0  0  0  0  0  0  0  0  0  0  0  0
   -2.0307   -1.0453   -4.1713 N   0  0  0  0  0  0  0  0  0  0  0  0
   -2.3584   -2.1221   -3.3957 C   0  0  0  0  0  0  0  0  0  0  0  0
   -2.9264   -3.3537   -4.0332 C   0  0  0  0  0  0  0  0  0  0  0  0
   -3.2940   -3.4902   -5.3242 C   0  0  0  0  0  0  0  0  0  0  0  0
   -3.3097   -2.3978   -6.3033 C   0  0  0  0  0  0  0  0  0  0  0  0
   -2.1876   -1.8812   -6.9473 C   0  0  0  0  0  0  0  0  0  0  0  0
   -2.4113   -0.6016   -7.4849 C   0  0  0  0  0  0  0  0  0  0  0  0
   -1.4163    0.2636   -7.9847 C   0  0  0  0  0  0  0  0  0  0  0  0
   -0.0157   -0.1824   -8.1275 C   0  0  0  0  0  0  0  0  0  0  0  0
    1.2808    0.3733   -7.2070 S   0  0  0  0  0  0  0  0  0  0  0  0
    2.4341   -0.6488   -7.8845 C   0  0  0  0  0  0  0  0  0  0  0  0
    3.8934   -0.6252   -7.5480 C   0  0  0  0  0  0  0  0  0  0  0  0
    4.6524    0.2924   -8.5005 C   0  0  0  0  0  0  0  0  0  0  0  0
    1.8183   -1.4326   -8.8579 C   0  0  0  0  0  0  0  0  0  0  0  0
    2.6738   -2.6171   -9.8344 Cl  0  0  0  0  0  0  0  0  0  0  0  0
    0.4419   -1.1797   -8.9844 C   0  0  0  0  0  0  0  0  0  0  0  0
   -0.5926   -2.0151  -10.1385 Cl  0  0  0  0  0  0  0  0  0  0  0  0
   -1.7800    1.6140   -8.1406 C   0  0  0  0  0  0  0  0  0  0  0  0
   -3.0772    2.0771   -7.8970 C   0  0  0  0  0  0  0  0  0  0  0  0
   -4.1018    1.1838   -7.5299 C   0  0  0  0  0  0  0  0  0  0  0  0
   -5.4814    1.6525   -7.2931 C   0  0  0  0  0  0  0  0  0  0  0  0
   -6.2843    1.6160   -5.8125 S   0  0  0  0  0  0  0  0  0  0  0  0
   -7.7194    2.2928   -6.3734 C   0  0  0  0  0  0  0  0  0  0  0  0
   -8.9218    2.5724   -5.5217 C   0  0  0  0  0  0  0  0  0  0  0  0
   -8.9374    4.0286   -5.0709 C   0  0  0  0  0  0  0  0  0  0  0  0
   -7.5805    2.5792   -7.7309 C   0  0  0  0  0  0  0  0  0  0  0  0
   -6.3272    2.2184   -8.2458 C   0  0  0  0  0  0  0  0  0  0  0  0
   -5.8807    2.4263   -9.9333 Cl  0  0  0  0  0  0  0  0  0  0  0  0
   -8.8498    3.3124   -8.7046 Cl  0  0  0  0  0  0  0  0  0  0  0  0
   -3.7188   -0.1432   -7.2796 C   0  0  0  0  0  0  0  0  0  0  0  0
   -4.5883   -1.3132   -6.4444 S   0  0  0  0  0  0  0  0  0  0  0  0
   -3.1568    3.4752   -7.7946 C   0  0  0  0  0  0  0  0  0  0  0  0
   -1.9196    4.1129   -7.9049 C   0  0  0  0  0  0  0  0  0  0  0  0
   -0.7530    2.9385   -8.2392 S   0  0  0  0  0  0  0  0  0  0  0  0
   -1.5788    5.3111   -7.1241 C   0  0  0  0  0  0  0  0  0  0  0  0
   -2.1153    5.5390   -5.8555 C   0  0  0  0  0  0  0  0  0  0  0  0
   -1.2718    6.2757   -5.0133 C   0  0  0  0  0  0  0  0  0  0  0  0
   -1.4510    6.4689   -3.6286 C   0  0  0  0  0  0  0  0  0  0  0  0
   -2.6643    6.0245   -2.9120 C   0  0  0  0  0  0  0  0  0  0  0  0
   -3.1496    4.4243   -2.7324 S   0  0  0  0  0  0  0  0  0  0  0  0
   -4.4653    4.7364   -1.7344 C   0  0  0  0  0  0  0  0  0  0  0  0
   -5.3408    3.6816   -1.1247 C   0  0  0  0  0  0  0  0  0  0  0  0
   -4.9224    3.3934    0.3140 C   0  0  0  0  0  0  0  0  0  0  0  0
   -4.5341    6.1106   -1.5120 C   0  0  0  0  0  0  0  0  0  0  0  0
   -5.7517    6.8688   -0.4942 Cl  0  0  0  0  0  0  0  0  0  0  0  0
   -3.5239    6.8319   -2.1692 C   0  0  0  0  0  0  0  0  0  0  0  0
   -3.3668    8.5824   -2.0744 Cl  0  0  0  0  0  0  0  0  0  0  0  0
   -0.3685    7.0167   -2.9273 C   0  0  0  0  0  0  0  0  0  0  0  0
    0.8045    7.4491   -3.5556 C   0  0  0  0  0  0  0  0  0  0  0  0
    0.9481    7.3415   -4.9554 C   0  0  0  0  0  0  0  0  0  0  0  0
    2.1604    7.8246   -5.6463 C   0  0  0  0  0  0  0  0  0  0  0  0
    3.2221    6.8768   -6.5465 S   0  0  0  0  0  0  0  0  0  0  0  0
    4.2936    8.1200   -6.9309 C   0  0  0  0  0  0  0  0  0  0  0  0
    5.5179    7.9665   -7.7814 C   0  0  0  0  0  0  0  0  0  0  0  0
    5.2465    8.4014   -9.2182 C   0  0  0  0  0  0  0  0  0  0  0  0
    3.8233    9.3029   -6.3667 C   0  0  0  0  0  0  0  0  0  0  0  0
    2.6323    9.1358   -5.6399 C   0  0  0  0  0  0  0  0  0  0  0  0
    1.7973   10.4675   -4.8435 Cl  0  0  0  0  0  0  0  0  0  0  0  0
    4.6404   10.8511   -6.5310 Cl  0  0  0  0  0  0  0  0  0  0  0  0
   -0.0957    6.6965   -5.6482 C   0  0  0  0  0  0  0  0  0  0  0  0
   -0.0889    6.1002   -7.2228 S   0  0  0  0  0  0  0  0  0  0  0  0
    1.8213    7.7949   -2.6475 C   0  0  0  0  0  0  0  0  0  0  0  0
    1.4540    7.5871   -1.3209 C   0  0  0  0  0  0  0  0  0  0  0  0
   -0.1308    7.0101   -1.2653 S   0  0  0  0  0  0  0  0  0  0  0  0
    2.3888    7.5175   -0.1947 C   0  0  0  0  0  0  0  0  0  0  0  0
    2.4228    6.4726    0.7252 C   0  0  0  0  0  0  0  0  0  0  0  0
    3.5142    6.5549    1.6000 C   0  0  0  0  0  0  0  0  0  0  0  0
    3.8612    5.6095    2.5862 C   0  0  0  0  0  0  0  0  0  0  0  0
    3.1341    4.3324    2.7252 C   0  0  0  0  0  0  0  0  0  0  0  0
    2.2449    3.8600    4.0728 S   0  0  0  0  0  0  0  0  0  0  0  0
    1.7010    2.4031    3.4273 C   0  0  0  0  0  0  0  0  0  0  0  0
    0.8397    1.4134    4.1547 C   0  0  0  0  0  0  0  0  0  0  0  0
    1.6955    0.3973    4.9000 C   0  0  0  0  0  0  0  0  0  0  0  0
    2.2343    2.2541    2.1486 C   0  0  0  0  0  0  0  0  0  0  0  0
    1.9297    0.8568    1.1252 Cl  0  0  0  0  0  0  0  0  0  0  0  0
    3.0349    3.3368    1.7536 C   0  0  0  0  0  0  0  0  0  0  0  0
    3.8679    3.4052    0.2036 Cl  0  0  0  0  0  0  0  0  0  0  0  0
    4.9781    5.9083    3.3851 C   0  0  0  0  0  0  0  0  0  0  0  0
    5.7452    7.0637    3.2024 C   0  0  0  0  0  0  0  0  0  0  0  0
    5.4217    7.9842    2.1853 C   0  0  0  0  0  0  0  0  0  0  0  0
    6.2173    9.1992    1.9639 C   0  0  0  0  0  0  0  0  0  0  0  0
    7.3372    9.4033    0.7275 S   0  0  0  0  0  0  0  0  0  0  0  0
    7.8319   10.9440    1.1949 C   0  0  0  0  0  0  0  0  0  0  0  0
    8.8423   11.7692    0.4555 C   0  0  0  0  0  0  0  0  0  0  0  0
    8.2074   12.4475   -0.7528 C   0  0  0  0  0  0  0  0  0  0  0  0
    7.1056   11.3254    2.3224 C   0  0  0  0  0  0  0  0  0  0  0  0
    6.2083   10.3387    2.7616 C   0  0  0  0  0  0  0  0  0  0  0  0
    5.1726   10.5221    4.1702 Cl  0  0  0  0  0  0  0  0  0  0  0  0
    7.2942   12.8778    3.1242 Cl  0  0  0  0  0  0  0  0  0  0  0  0
    4.2997    7.6934    1.3934 C   0  0  0  0  0  0  0  0  0  0  0  0
    3.6855    8.5612    0.0849 S   0  0  0  0  0  0  0  0  0  0  0  0
    6.8378    7.1458    4.0819 C   0  0  0  0  0  0  0  0  0  0  0  0
    6.9271    6.0577    4.9454 C   0  0  0  0  0  0  0  0  0  0  0  0
    5.6607    4.9910    4.6203 S   0  0  0  0  0  0  0  0  0  0  0  0
    1.4185  -11.9962   12.0511 H   0  0  0  0  0  0  0  0  0  0  0  0
    2.3990  -12.3588    9.6654 H   0  0  0  0  0  0  0  0  0  0  0  0
    6.3160  -11.6631    5.3221 H   0  0  0  0  0  0  0  0  0  0  0  0
    6.2286  -13.4572    5.3596 H   0  0  0  0  0  0  0  0  0  0  0  0
    4.9620  -11.5889    3.2458 H   0  0  0  0  0  0  0  0  0  0  0  0
    6.3739  -12.6889    3.0200 H   0  0  0  0  0  0  0  0  0  0  0  0
    4.7334  -13.3845    3.2957 H   0  0  0  0  0  0  0  0  0  0  0  0
   -5.6027   -6.7964   11.5656 H   0  0  0  0  0  0  0  0  0  0  0  0
   -5.6901   -8.5795   11.7328 H   0  0  0  0  0  0  0  0  0  0  0  0
   -7.6874   -7.7070   10.5434 H   0  0  0  0  0  0  0  0  0  0  0  0
   -6.7158   -8.7612    9.4472 H   0  0  0  0  0  0  0  0  0  0  0  0
   -6.6405   -6.9560    9.2802 H   0  0  0  0  0  0  0  0  0  0  0  0
   -2.3383   -8.1332    6.4367 H   0  0  0  0  0  0  0  0  0  0  0  0
   -2.4323   -6.4944    4.7498 H   0  0  0  0  0  0  0  0  0  0  0  0
   -6.8132   -2.2248    5.0283 H   0  0  0  0  0  0  0  0  0  0  0  0
   -5.7318   -1.5347    6.2879 H   0  0  0  0  0  0  0  0  0  0  0  0
   -6.8463   -4.4225    6.2441 H   0  0  0  0  0  0  0  0  0  0  0  0
   -7.4283   -3.0671    7.2835 H   0  0  0  0  0  0  0  0  0  0  0  0
   -5.7661   -3.7259    7.5202 H   0  0  0  0  0  0  0  0  0  0  0  0
    2.5397   -9.6347   -2.3651 H   0  0  0  0  0  0  0  0  0  0  0  0
    1.4643  -10.0052   -3.7534 H   0  0  0  0  0  0  0  0  0  0  0  0
    3.3936   -8.6804   -4.5361 H   0  0  0  0  0  0  0  0  0  0  0  0
    1.9019   -7.6753   -4.6735 H   0  0  0  0  0  0  0  0  0  0  0  0
    3.0594   -7.3991   -3.3099 H   0  0  0  0  0  0  0  0  0  0  0  0
   -1.2339   -4.7284   -2.0112 H   0  0  0  0  0  0  0  0  0  0  0  0
   -0.5851    1.6614   -0.7956 H   0  0  0  0  0  0  0  0  0  0  0  0
   -1.1680    1.3469   -5.4047 H   0  0  0  0  0  0  0  0  0  0  0  0
   -3.0969   -4.2199   -3.4120 H   0  0  0  0  0  0  0  0  0  0  0  0
   -3.7163   -4.4350   -5.6395 H   0  0  0  0  0  0  0  0  0  0  0  0
   -1.2139   -2.3525   -6.8976 H   0  0  0  0  0  0  0  0  0  0  0  0
    4.0301   -0.2651   -6.5046 H   0  0  0  0  0  0  0  0  0  0  0  0
    4.3107   -1.6540   -7.6107 H   0  0  0  0  0  0  0  0  0  0  0  0
    5.7307    0.2850   -8.2432 H   0  0  0  0  0  0  0  0  0  0  0  0
    4.2749    1.3341   -8.4135 H   0  0  0  0  0  0  0  0  0  0  0  0
    4.5356   -0.0536   -9.5490 H   0  0  0  0  0  0  0  0  0  0  0  0
   -8.9055    1.9127   -4.6264 H   0  0  0  0  0  0  0  0  0  0  0  0
   -9.8483    2.3464   -6.0933 H   0  0  0  0  0  0  0  0  0  0  0  0
   -8.9648    4.7091   -5.9493 H   0  0  0  0  0  0  0  0  0  0  0  0
   -8.0346    4.2534   -4.4651 H   0  0  0  0  0  0  0  0  0  0  0  0
   -9.8408    4.2124   -4.4492 H   0  0  0  0  0  0  0  0  0  0  0  0
   -4.0471    3.9901   -7.4523 H   0  0  0  0  0  0  0  0  0  0  0  0
   -3.0140    5.0493   -5.5038 H   0  0  0  0  0  0  0  0  0  0  0  0
   -5.2603    2.7470   -1.7171 H   0  0  0  0  0  0  0  0  0  0  0  0
   -6.4013    4.0099   -1.1472 H   0  0  0  0  0  0  0  0  0  0  0  0
   -5.0039    4.3102    0.9365 H   0  0  0  0  0  0  0  0  0  0  0  0
   -5.5892    2.6134    0.7425 H   0  0  0  0  0  0  0  0  0  0  0  0
   -3.8744    3.0263    0.3417 H   0  0  0  0  0  0  0  0  0  0  0  0
    6.3461    8.5778   -7.3606 H   0  0  0  0  0  0  0  0  0  0  0  0
    5.8418    6.9042   -7.7740 H   0  0  0  0  0  0  0  0  0  0  0  0
    4.9266    9.4641   -9.2530 H   0  0  0  0  0  0  0  0  0  0  0  0
    4.4567    7.7666   -9.6713 H   0  0  0  0  0  0  0  0  0  0  0  0
    6.1755    8.2928   -9.8147 H   0  0  0  0  0  0  0  0  0  0  0  0
    2.8285    8.0604   -2.9461 H   0  0  0  0  0  0  0  0  0  0  0  0
    1.7107    5.6596    0.7241 H   0  0  0  0  0  0  0  0  0  0  0  0
    0.1918    1.9506    4.8807 H   0  0  0  0  0  0  0  0  0  0  0  0
    0.1778    0.8864    3.4346 H   0  0  0  0  0  0  0  0  0  0  0  0
    2.3272    0.9059    5.6586 H   0  0  0  0  0  0  0  0  0  0  0  0
    1.0364   -0.3317    5.4174 H   0  0  0  0  0  0  0  0  0  0  0  0
    2.3482   -0.1536    4.1915 H   0  0  0  0  0  0  0  0  0  0  0  0
    9.2811   12.5398    1.1270 H   0  0  0  0  0  0  0  0  0  0  0  0
    9.6696   11.1095    0.1156 H   0  0  0  0  0  0  0  0  0  0  0  0
    8.9661   13.0716   -1.2701 H   0  0  0  0  0  0  0  0  0  0  0  0
    7.3675   13.1014   -0.4354 H   0  0  0  0  0  0  0  0  0  0  0  0
    7.8262   11.6848   -1.4662 H   0  0  0  0  0  0  0  0  0  0  0  0
    7.5493    7.9616    4.0896 H   0  0  0  0  0  0  0  0  0  0  0  0
    7.6923    5.9114    5.6943 H   0  0  0  0  0  0  0  0  0  0  0  0
  1  2  2  0
  2  3  1  0
  3  4  2  0
  4  5  1  0
  5  6  1  0
  6  7  1  0
  7  8  1  0
  8  9  1  0
  7 10  2  0
 10 11  1  0
 10 12  1  0
 12 13  1  0
  4 14  1  0
 14 15  2  0
 15 16  1  0
 16 17  1  0
 17 18  1  0
 18 19  1  0
 19 20  1  0
 20 21  1  0
 19 22  2  0
 22 23  1  0
 23 24  1  0
 22 25  1  0
 16 26  2  0
 26 27  1  0
 15 28  1  0
 28 29  2  0
 29 30  1  0
 29 31  1  0
 31 32  2  0
 32 33  1  0
 33 34  2  0
 34 35  1  0
 35 36  1  0
 36 37  1  0
 37 38  1  0
 38 39  1  0
 37 40  2  0
 40 41  1  0
 40 42  1  0
 42 43  1  0
 34 44  1  0
 44 45  2  0
 45 46  1  0
 46 47  1  0
 47 48  1  0
 48 49  1  0
 49 50  1  0
 50 51  1  0
 49 52  2  0
 52 53  1  0
 53 54  1  0
 52 55  1  0
 46 56  2  0
 56 57  1  0
 45 58  1  0
 58 59  2  0
 59 60  1  0
 59 61  1  0
 61 62  2  0
 62 63  1  0
 63 64  2  0
 64 65  1  0
 65 66  1  0
 66 67  2  0
 67 68  1  0
 68 69  2  0
 69 70  1  0
 70 71  2  3
 71 72  1  0
 72 73  2  0
 73 74  1  0
 74 75  2  0
 75 76  1  0
 76 77  1  0
 77 78  1  0
 78 79  1  0
 79 80  1  0
 78 81  2  0
 81 82  1  0
 81 83  1  0
 83 84  1  0
 75 85  1  0
 85 86  2  0
 86 87  1  0
 87 88  1  0
 88 89  1  0
 89 90  1  0
 90 91  1  0
 91 92  1  0
 90 93  2  0
 93 94  1  0
 94 95  1  0
 93 96  1  0
 87 97  2  0
 97 98  1  0
 86 99  1  0
 99100  2  0
100101  1  0
100102  1  0
102103  2  0
103104  1  0
104105  2  0
105106  1  0
106107  1  0
107108  1  0
108109  1  0
109110  1  0
108111  2  0
111112  1  0
111113  1  0
113114  1  0
105115  1  0
115116  2  0
116117  1  0
117118  1  0
118119  1  0
119120  1  0
120121  1  0
121122  1  0
120123  2  0
123124  1  0
124125  1  0
123126  1  0
117127  2  0
127128  1  0
116129  1  0
129130  2  0
130131  1  0
130132  1  0
132133  2  0
133134  1  0
134135  2  0
135136  1  0
136137  1  0
137138  1  0
138139  1  0
139140  1  0
138141  2  0
141142  1  0
141143  1  0
143144  1  0
135145  1  0
145146  2  0
146147  1  0
147148  1  0
148149  1  0
149150  1  0
150151  1  0
151152  1  0
150153  2  0
153154  1  0
154155  1  0
153156  1  0
147157  2  0
157158  1  0
146159  1  0
159160  2  0
160161  1  0
 27  1  1  0
 57 31  1  0
 69 61  1  0
 98 72  1  0
128102  1  0
158132  1  0
 26  3  1  0
 56 33  1  0
 67 63  1  0
 97 74  1  0
127104  1  0
157134  1  0
 12  5  2  0
 30 14  1  0
 42 35  2  0
 60 44  1  0
 83 76  2  0
101 85  1  0
113106  2  0
131115  1  0
143136  2  0
161145  1  0
 23 17  2  0
 53 47  2  0
 94 88  2  0
124118  2  0
154148  2  0
  1162  1  0
  2163  1  0
  8164  1  0
  8165  1  0
  9166  1  0
  9167  1  0
  9168  1  0
 20169  1  0
 20170  1  0
 21171  1  0
 21172  1  0
 21173  1  0
 28174  1  0
 32175  1  0
 38176  1  0
 38177  1  0
 39178  1  0
 39179  1  0
 39180  1  0
 50181  1  0
 50182  1  0
 51183  1  0
 51184  1  0
 51185  1  0
 58186  1  0
 64187  1  0
 66188  1  0
 70189  1  0
 71190  1  0
 73191  1  0
 79192  1  0
 79193  1  0
 80194  1  0
 80195  1  0
 80196  1  0
 91197  1  0
 91198  1  0
 92199  1  0
 92200  1  0
 92201  1  0
 99202  1  0
103203  1  0
109204  1  0
109205  1  0
110206  1  0
110207  1  0
110208  1  0
121209  1  0
121210  1  0
122211  1  0
122212  1  0
122213  1  0
129214  1  0
133215  1  0
139216  1  0
139217  1  0
140218  1  0
140219  1  0
140220  1  0
151221  1  0
151222  1  0
152223  1  0
152224  1  0
152225  1  0
159226  1  0
160227  1  0
M  END

