
     RDKit          3D

246271  0  0  0  0  0  0  0  0999 V2000
    4.3465   -6.7300    9.6783 C   0  0  0  0  0  0  0  0  0  0  0  0
    3.6454   -5.6082    9.2389 C   0  0  0  0  0  0  0  0  0  0  0  0
    2.7516   -5.8806    8.1900 C   0  0  0  0  0  0  0  0  0  0  0  0
    1.8873   -4.9596    7.5447 C   0  0  0  0  0  0  0  0  0  0  0  0
    1.8637   -3.5251    7.9191 C   0  0  0  0  0  0  0  0  0  0  0  0
    3.0510   -2.7736    7.9187 C   0  0  0  0  0  0  0  0  0  0  0  0
    3.0517   -1.4570    8.3789 C   0  0  0  0  0  0  0  0  0  0  0  0
    1.8594   -0.8607    8.8112 C   0  0  0  0  0  0  0  0  0  0  0  0
    1.8761    0.8341    9.4221 S   0  0  0  0  0  0  0  0  0  0  0  0
    1.7381    1.6053    7.7685 C   0  0  0  0  0  0  0  0  0  0  0  0
    3.1195    1.9891    7.2494 C   0  0  0  0  0  0  0  0  0  0  0  0
    0.6685   -1.5952    8.7947 C   0  0  0  0  0  0  0  0  0  0  0  0
   -0.4936   -1.0308    9.2186 F   0  0  0  0  0  0  0  0  0  0  0  0
    0.6752   -2.9273    8.3610 C   0  0  0  0  0  0  0  0  0  0  0  0
    1.0398   -5.4778    6.5429 C   0  0  0  0  0  0  0  0  0  0  0  0
    1.0342   -6.8350    6.1970 C   0  0  0  0  0  0  0  0  0  0  0  0
    1.8875   -7.7467    6.8477 C   0  0  0  0  0  0  0  0  0  0  0  0
    1.8348   -9.1881    6.5494 C   0  0  0  0  0  0  0  0  0  0  0  0
    2.2452   -9.6741    5.2999 C   0  0  0  0  0  0  0  0  0  0  0  0
    2.0933  -11.0278    4.9865 C   0  0  0  0  0  0  0  0  0  0  0  0
    1.5079  -11.9007    5.9140 C   0  0  0  0  0  0  0  0  0  0  0  0
    1.2521  -13.6246    5.4782 S   0  0  0  0  0  0  0  0  0  0  0  0
   -0.4882  -13.3993    4.9568 C   0  0  0  0  0  0  0  0  0  0  0  0
   -0.5730  -12.9311    3.5091 C   0  0  0  0  0  0  0  0  0  0  0  0
    1.1294  -11.4242    7.1762 C   0  0  0  0  0  0  0  0  0  0  0  0
    1.2870  -10.0727    7.4913 C   0  0  0  0  0  0  0  0  0  0  0  0
    0.5738  -12.2674    8.0855 F   0  0  0  0  0  0  0  0  0  0  0  0
    2.7351   -7.2325    7.8396 C   0  0  0  0  0  0  0  0  0  0  0  0
    3.8412   -8.0716    8.7946 S   0  0  0  0  0  0  0  0  0  0  0  0
    0.0892   -7.1522    5.2100 C   0  0  0  0  0  0  0  0  0  0  0  0
   -0.6370   -6.0504    4.7687 C   0  0  0  0  0  0  0  0  0  0  0  0
   -0.1112   -4.6755    5.6068 S   0  0  0  0  0  0  0  0  0  0  0  0
   -1.7367   -6.1158    3.7853 C   0  0  0  0  0  0  0  0  0  0  0  0
   -2.5120   -5.1004    3.3952 C   0  0  0  0  0  0  0  0  0  0  0  0
   -3.5221   -5.6773    2.5142 C   0  0  0  0  0  0  0  0  0  0  0  0
   -4.6281   -5.0806    1.8855 C   0  0  0  0  0  0  0  0  0  0  0  0
   -5.4760   -5.9432    1.1713 C   0  0  0  0  0  0  0  0  0  0  0  0
   -6.6257   -5.6689    0.5630 C   0  0  0  0  0  0  0  0  0  0  0  0
   -7.1534   -6.9432    0.0358 C   0  0  0  0  0  0  0  0  0  0  0  0
   -6.3221   -7.9256    0.3758 C   0  0  0  0  0  0  0  0  0  0  0  0
   -5.2258   -7.3080    1.0921 C   0  0  0  0  0  0  0  0  0  0  0  0
   -4.1257   -7.9015    1.7168 C   0  0  0  0  0  0  0  0  0  0  0  0
   -3.2804   -7.0405    2.4322 C   0  0  0  0  0  0  0  0  0  0  0  0
   -2.2251   -7.3595    3.1612 C   0  0  0  0  0  0  0  0  0  0  0  0
   -8.5066   -7.1777   -0.5038 C   0  0  0  0  0  0  0  0  0  0  0  0
   -9.1566   -6.3806   -1.3636 C   0  0  0  0  0  0  0  0  0  0  0  0
   -8.5778   -5.2466   -2.0992 C   0  0  0  0  0  0  0  0  0  0  0  0
   -9.3362   -4.2040   -2.6455 C   0  0  0  0  0  0  0  0  0  0  0  0
   -8.5614   -3.2820   -3.3679 C   0  0  0  0  0  0  0  0  0  0  0  0
   -9.0195   -2.0993   -3.9960 C   0  0  0  0  0  0  0  0  0  0  0  0
  -10.4363   -1.6823   -3.9502 C   0  0  0  0  0  0  0  0  0  0  0  0
  -11.1587   -1.5131   -5.1424 C   0  0  0  0  0  0  0  0  0  0  0  0
  -12.4950   -1.1200   -5.1073 C   0  0  0  0  0  0  0  0  0  0  0  0
  -13.1371   -0.9057   -3.8793 C   0  0  0  0  0  0  0  0  0  0  0  0
  -14.8799   -0.4525   -3.8509 S   0  0  0  0  0  0  0  0  0  0  0  0
  -15.4958   -2.1714   -4.0296 C   0  0  0  0  0  0  0  0  0  0  0  0
  -15.4637   -2.9084   -2.6968 C   0  0  0  0  0  0  0  0  0  0  0  0
  -12.4116   -1.0386   -2.6854 C   0  0  0  0  0  0  0  0  0  0  0  0
  -13.0065   -0.7909   -1.4892 F   0  0  0  0  0  0  0  0  0  0  0  0
  -11.0679   -1.4261   -2.7206 C   0  0  0  0  0  0  0  0  0  0  0  0
   -8.0459   -1.2946   -4.6171 C   0  0  0  0  0  0  0  0  0  0  0  0
   -6.6922   -1.6402   -4.6445 C   0  0  0  0  0  0  0  0  0  0  0  0
   -6.2466   -2.8488   -4.0749 C   0  0  0  0  0  0  0  0  0  0  0  0
   -4.8519   -3.3023   -4.2047 C   0  0  0  0  0  0  0  0  0  0  0  0
   -3.8614   -2.8539   -3.3205 C   0  0  0  0  0  0  0  0  0  0  0  0
   -2.5433   -3.2970   -3.4599 C   0  0  0  0  0  0  0  0  0  0  0  0
   -2.2028   -4.1821   -4.4958 C   0  0  0  0  0  0  0  0  0  0  0  0
   -0.4890   -4.6831   -4.7167 S   0  0  0  0  0  0  0  0  0  0  0  0
   -0.6102   -6.2012   -3.6980 C   0  0  0  0  0  0  0  0  0  0  0  0
   -0.8740   -7.4173   -4.5807 C   0  0  0  0  0  0  0  0  0  0  0  0
   -3.1895   -4.6141   -5.3914 C   0  0  0  0  0  0  0  0  0  0  0  0
   -4.5104   -4.1841   -5.2387 C   0  0  0  0  0  0  0  0  0  0  0  0
   -2.8693   -5.4427   -6.4174 F   0  0  0  0  0  0  0  0  0  0  0  0
   -7.2101   -3.6365   -3.4268 C   0  0  0  0  0  0  0  0  0  0  0  0
   -6.9700   -5.0723   -2.5919 S   0  0  0  0  0  0  0  0  0  0  0  0
   -5.8720   -0.6265   -5.1597 C   0  0  0  0  0  0  0  0  0  0  0  0
   -6.5886    0.5052   -5.5472 C   0  0  0  0  0  0  0  0  0  0  0  0
   -8.2277    0.2594   -5.2342 S   0  0  0  0  0  0  0  0  0  0  0  0
   -5.9898    1.8398   -5.6462 C   0  0  0  0  0  0  0  0  0  0  0  0
   -5.3786    2.4345   -4.6219 C   0  0  0  0  0  0  0  0  0  0  0  0
   -4.8457    3.6728   -5.1393 C   0  0  0  0  0  0  0  0  0  0  0  0
   -4.0838    4.6422   -4.4888 C   0  0  0  0  0  0  0  0  0  0  0  0
   -3.6217    5.6918   -5.2856 C   0  0  0  0  0  0  0  0  0  0  0  0
   -2.7760    6.6444   -4.9512 C   0  0  0  0  0  0  0  0  0  0  0  0
   -2.4303    7.3705   -6.1833 C   0  0  0  0  0  0  0  0  0  0  0  0
   -3.1321    6.8695   -7.2024 C   0  0  0  0  0  0  0  0  0  0  0  0
   -3.9167    5.7776   -6.6424 C   0  0  0  0  0  0  0  0  0  0  0  0
   -4.7023    4.8079   -7.2922 C   0  0  0  0  0  0  0  0  0  0  0  0
   -5.1703    3.7512   -6.4895 C   0  0  0  0  0  0  0  0  0  0  0  0
   -5.8649    2.6763   -6.8497 C   0  0  0  0  0  0  0  0  0  0  0  0
   -1.1603    8.1078   -6.2761 C   0  0  0  0  0  0  0  0  0  0  0  0
   -0.2213    7.6957   -7.1438 C   0  0  0  0  0  0  0  0  0  0  0  0
    1.1698    7.5298   -6.6802 C   0  0  0  0  0  0  0  0  0  0  0  0
    1.7252    8.1726   -5.5763 C   0  0  0  0  0  0  0  0  0  0  0  0
    2.7251    7.4247   -4.9397 C   0  0  0  0  0  0  0  0  0  0  0  0
    3.2438    7.6862   -3.6561 C   0  0  0  0  0  0  0  0  0  0  0  0
    2.7210    8.7815   -2.8213 C   0  0  0  0  0  0  0  0  0  0  0  0
    3.5592    9.8253   -2.3969 C   0  0  0  0  0  0  0  0  0  0  0  0
    3.0731   10.8079   -1.5306 C   0  0  0  0  0  0  0  0  0  0  0  0
    1.7451   10.7617   -1.0837 C   0  0  0  0  0  0  0  0  0  0  0  0
    1.1503   11.9883    0.0842 S   0  0  0  0  0  0  0  0  0  0  0  0
    0.7347   13.2534   -1.1659 C   0  0  0  0  0  0  0  0  0  0  0  0
   -0.5725   12.9178   -1.8738 C   0  0  0  0  0  0  0  0  0  0  0  0
    0.9038    9.7231   -1.5036 C   0  0  0  0  0  0  0  0  0  0  0  0
   -0.3746    9.6469   -1.0615 F   0  0  0  0  0  0  0  0  0  0  0  0
    1.3934    8.7386   -2.3671 C   0  0  0  0  0  0  0  0  0  0  0  0
    4.0693    6.7036   -3.0898 C   0  0  0  0  0  0  0  0  0  0  0  0
    4.3635    5.5002   -3.7383 C   0  0  0  0  0  0  0  0  0  0  0  0
    3.8575    5.2407   -5.0303 C   0  0  0  0  0  0  0  0  0  0  0  0
    4.0083    3.9236   -5.6757 C   0  0  0  0  0  0  0  0  0  0  0  0
    4.6884    3.8047   -6.8927 C   0  0  0  0  0  0  0  0  0  0  0  0
    4.8628    2.5507   -7.4834 C   0  0  0  0  0  0  0  0  0  0  0  0
    4.3474    1.4055   -6.8647 C   0  0  0  0  0  0  0  0  0  0  0  0
    4.6055   -0.2151   -7.5988 S   0  0  0  0  0  0  0  0  0  0  0  0
    6.2420   -0.5092   -6.8213 C   0  0  0  0  0  0  0  0  0  0  0  0
    7.3581   -0.2745   -7.8271 C   0  0  0  0  0  0  0  0  0  0  0  0
    3.6395    1.5211   -5.6551 C   0  0  0  0  0  0  0  0  0  0  0  0
    3.4601    2.7798   -5.0760 C   0  0  0  0  0  0  0  0  0  0  0  0
    3.1035    0.4230   -5.0612 F   0  0  0  0  0  0  0  0  0  0  0  0
    3.0346    6.2324   -5.6009 C   0  0  0  0  0  0  0  0  0  0  0  0
    2.0105    6.0818   -6.9235 S   0  0  0  0  0  0  0  0  0  0  0  0
    5.0538    4.5878   -2.9119 C   0  0  0  0  0  0  0  0  0  0  0  0
    5.2468    5.0666   -1.6167 C   0  0  0  0  0  0  0  0  0  0  0  0
    4.6191    6.6287   -1.5060 S   0  0  0  0  0  0  0  0  0  0  0  0
    5.6927    4.2742   -0.4606 C   0  0  0  0  0  0  0  0  0  0  0  0
    6.1834    2.9669   -0.4873 C   0  0  0  0  0  0  0  0  0  0  0  0
    6.3598    2.4209    0.7970 C   0  0  0  0  0  0  0  0  0  0  0  0
    6.8217    1.1195    1.1043 C   0  0  0  0  0  0  0  0  0  0  0  0
    7.2427    0.1654    0.0543 C   0  0  0  0  0  0  0  0  0  0  0  0
    8.3422    0.4594   -0.7644 C   0  0  0  0  0  0  0  0  0  0  0  0
    8.7457   -0.4426   -1.7560 C   0  0  0  0  0  0  0  0  0  0  0  0
    8.0707   -1.6557   -1.9252 C   0  0  0  0  0  0  0  0  0  0  0  0
    8.5841   -2.8033   -3.2144 S   0  0  0  0  0  0  0  0  0  0  0  0
    9.8708   -3.6394   -2.2072 C   0  0  0  0  0  0  0  0  0  0  0  0
   11.2570   -3.1513   -2.6108 C   0  0  0  0  0  0  0  0  0  0  0  0
    6.9737   -1.9602   -1.1022 C   0  0  0  0  0  0  0  0  0  0  0  0
    6.2980   -3.1279   -1.2646 F   0  0  0  0  0  0  0  0  0  0  0  0
    6.5631   -1.0513   -0.1161 C   0  0  0  0  0  0  0  0  0  0  0  0
    6.8685    0.7706    2.4716 C   0  0  0  0  0  0  0  0  0  0  0  0
    6.4758    1.6512    3.4883 C   0  0  0  0  0  0  0  0  0  0  0  0
    6.0111    2.9457    3.1809 C   0  0  0  0  0  0  0  0  0  0  0  0
    5.5344    3.8870    4.2123 C   0  0  0  0  0  0  0  0  0  0  0  0
    4.1761    4.2514    4.2529 C   0  0  0  0  0  0  0  0  0  0  0  0
    3.7256    5.1810    5.1868 C   0  0  0  0  0  0  0  0  0  0  0  0
    4.6184    5.7717    6.0870 C   0  0  0  0  0  0  0  0  0  0  0  0
    4.0381    7.0517    7.2143 S   0  0  0  0  0  0  0  0  0  0  0  0
    3.6907    5.9226    8.6083 C   0  0  0  0  0  0  0  0  0  0  0  0
    2.2082    5.5634    8.6562 C   0  0  0  0  0  0  0  0  0  0  0  0
    5.9770    5.4092    6.0556 C   0  0  0  0  0  0  0  0  0  0  0  0
    6.4221    4.4564    5.1344 C   0  0  0  0  0  0  0  0  0  0  0  0
    6.8581    5.9656    6.9234 F   0  0  0  0  0  0  0  0  0  0  0  0
    5.9820    3.2948    1.8211 C   0  0  0  0  0  0  0  0  0  0  0  0
    5.4622    4.7422    1.1491 S   0  0  0  0  0  0  0  0  0  0  0  0
    6.5750    1.0859    4.7733 C   0  0  0  0  0  0  0  0  0  0  0  0
    7.0700   -0.2160    4.7578 C   0  0  0  0  0  0  0  0  0  0  0  0
    7.3750   -0.6756    3.1625 S   0  0  0  0  0  0  0  0  0  0  0  0
    5.0847   -6.7362   10.4598 H   0  0  0  0  0  0  0  0  0  0  0  0
    3.7852   -4.6309    9.6798 H   0  0  0  0  0  0  0  0  0  0  0  0
    3.9793   -3.2214    7.5870 H   0  0  0  0  0  0  0  0  0  0  0  0
    3.9842   -0.9089    8.4210 H   0  0  0  0  0  0  0  0  0  0  0  0
    1.2378    0.9313    7.0402 H   0  0  0  0  0  0  0  0  0  0  0  0
    1.1195    2.5221    7.8674 H   0  0  0  0  0  0  0  0  0  0  0  0
    3.0101    2.5391    6.2942 H   0  0  0  0  0  0  0  0  0  0  0  0
    3.6354    2.6469    7.9797 H   0  0  0  0  0  0  0  0  0  0  0  0
    3.7329    1.0835    7.0593 H   0  0  0  0  0  0  0  0  0  0  0  0
   -0.2464   -3.4951    8.3886 H   0  0  0  0  0  0  0  0  0  0  0  0
    2.6583   -8.9989    4.5629 H   0  0  0  0  0  0  0  0  0  0  0  0
    2.4017  -11.3888    4.0124 H   0  0  0  0  0  0  0  0  0  0  0  0
   -1.0044  -14.3781    5.0463 H   0  0  0  0  0  0  0  0  0  0  0  0
   -1.0164  -12.6785    5.6207 H   0  0  0  0  0  0  0  0  0  0  0  0
   -1.6389  -12.8769    3.1996 H   0  0  0  0  0  0  0  0  0  0  0  0
   -0.1195  -11.9223    3.4024 H   0  0  0  0  0  0  0  0  0  0  0  0
   -0.0476  -13.6500    2.8431 H   0  0  0  0  0  0  0  0  0  0  0  0
    0.9566   -9.7066    8.4552 H   0  0  0  0  0  0  0  0  0  0  0  0
   -0.0788   -8.1574    4.8469 H   0  0  0  0  0  0  0  0  0  0  0  0
   -2.4330   -4.0748    3.7232 H   0  0  0  0  0  0  0  0  0  0  0  0
   -4.8279   -4.0174    1.9681 H   0  0  0  0  0  0  0  0  0  0  0  0
   -7.1060   -4.6992    0.5221 H   0  0  0  0  0  0  0  0  0  0  0  0
   -6.4750   -8.9827    0.2005 H   0  0  0  0  0  0  0  0  0  0  0  0
   -3.9488   -8.9676    1.6717 H   0  0  0  0  0  0  0  0  0  0  0  0
   -1.8377   -8.3619    3.3040 H   0  0  0  0  0  0  0  0  0  0  0  0
   -9.0366   -8.0530   -0.1393 H   0  0  0  0  0  0  0  0  0  0  0  0
  -10.1947   -6.6093   -1.5704 H   0  0  0  0  0  0  0  0  0  0  0  0
  -10.4095   -4.1195   -2.5123 H   0  0  0  0  0  0  0  0  0  0  0  0
  -10.6914   -1.7110   -6.0973 H   0  0  0  0  0  0  0  0  0  0  0  0
  -13.0478   -1.0057   -6.0317 H   0  0  0  0  0  0  0  0  0  0  0  0
  -14.8972   -2.7246   -4.7853 H   0  0  0  0  0  0  0  0  0  0  0  0
  -16.5440   -2.1272   -4.3880 H   0  0  0  0  0  0  0  0  0  0  0  0
  -15.8848   -3.9284   -2.8268 H   0  0  0  0  0  0  0  0  0  0  0  0
  -16.0730   -2.3676   -1.9433 H   0  0  0  0  0  0  0  0  0  0  0  0
  -14.4219   -3.0055   -2.3304 H   0  0  0  0  0  0  0  0  0  0  0  0
  -10.5183   -1.5324   -1.7936 H   0  0  0  0  0  0  0  0  0  0  0  0
   -4.1143   -2.1600   -2.5296 H   0  0  0  0  0  0  0  0  0  0  0  0
   -1.7827   -2.9404   -2.7730 H   0  0  0  0  0  0  0  0  0  0  0  0
    0.3590   -6.3424   -3.1765 H   0  0  0  0  0  0  0  0  0  0  0  0
   -1.4022   -6.1149   -2.9192 H   0  0  0  0  0  0  0  0  0  0  0  0
   -0.7658   -8.3449   -3.9806 H   0  0  0  0  0  0  0  0  0  0  0  0
   -1.9047   -7.3801   -4.9946 H   0  0  0  0  0  0  0  0  0  0  0  0
   -0.1386   -7.4592   -5.4120 H   0  0  0  0  0  0  0  0  0  0  0  0
   -5.2664   -4.5314   -5.9302 H   0  0  0  0  0  0  0  0  0  0  0  0
   -4.7924   -0.6688   -5.1544 H   0  0  0  0  0  0  0  0  0  0  0  0
   -5.2880    2.0463   -3.6135 H   0  0  0  0  0  0  0  0  0  0  0  0
   -3.8005    4.5484   -3.4489 H   0  0  0  0  0  0  0  0  0  0  0  0
   -2.3102    6.7651   -3.9847 H   0  0  0  0  0  0  0  0  0  0  0  0
   -2.9801    7.0910   -8.2485 H   0  0  0  0  0  0  0  0  0  0  0  0
   -4.9141    4.8637   -8.3571 H   0  0  0  0  0  0  0  0  0  0  0  0
   -6.2153    2.4450   -7.8504 H   0  0  0  0  0  0  0  0  0  0  0  0
   -0.8597    8.5815   -5.3575 H   0  0  0  0  0  0  0  0  0  0  0  0
   -0.5372    7.0925   -7.9917 H   0  0  0  0  0  0  0  0  0  0  0  0
    1.3178    9.0904   -5.1675 H   0  0  0  0  0  0  0  0  0  0  0  0
    4.5931    9.8656   -2.7247 H   0  0  0  0  0  0  0  0  0  0  0  0
    3.7320   11.6005   -1.2003 H   0  0  0  0  0  0  0  0  0  0  0  0
    0.6199   14.2240   -0.6384 H   0  0  0  0  0  0  0  0  0  0  0  0
    1.5612   13.3516   -1.9010 H   0  0  0  0  0  0  0  0  0  0  0  0
   -1.3938   12.8112   -1.1328 H   0  0  0  0  0  0  0  0  0  0  0  0
   -0.4709   11.9800   -2.4578 H   0  0  0  0  0  0  0  0  0  0  0  0
   -0.8273   13.7363   -2.5761 H   0  0  0  0  0  0  0  0  0  0  0  0
    0.7444    7.9277   -2.6740 H   0  0  0  0  0  0  0  0  0  0  0  0
    5.1012    4.6768   -7.3763 H   0  0  0  0  0  0  0  0  0  0  0  0
    5.3982    2.4746   -8.4276 H   0  0  0  0  0  0  0  0  0  0  0  0
    6.3970    0.1389   -5.9312 H   0  0  0  0  0  0  0  0  0  0  0  0
    6.2782   -1.5631   -6.4756 H   0  0  0  0  0  0  0  0  0  0  0  0
    7.3397    0.7743   -8.1831 H   0  0  0  0  0  0  0  0  0  0  0  0
    8.3374   -0.4673   -7.3414 H   0  0  0  0  0  0  0  0  0  0  0  0
    7.2497   -0.9600   -8.6941 H   0  0  0  0  0  0  0  0  0  0  0  0
    2.9082    2.8705   -4.1504 H   0  0  0  0  0  0  0  0  0  0  0  0
    5.3133    3.5845   -3.2130 H   0  0  0  0  0  0  0  0  0  0  0  0
    6.3839    2.4215   -1.4033 H   0  0  0  0  0  0  0  0  0  0  0  0
    8.8779    1.3878   -0.6438 H   0  0  0  0  0  0  0  0  0  0  0  0
    9.5927   -0.2039   -2.3905 H   0  0  0  0  0  0  0  0  0  0  0  0
    9.7996   -4.7294   -2.4011 H   0  0  0  0  0  0  0  0  0  0  0  0
    9.7195   -3.4742   -1.1152 H   0  0  0  0  0  0  0  0  0  0  0  0
   11.3491   -2.0627   -2.4168 H   0  0  0  0  0  0  0  0  0  0  0  0
   11.4403   -3.3555   -3.6915 H   0  0  0  0  0  0  0  0  0  0  0  0
   12.0275   -3.6838   -2.0093 H   0  0  0  0  0  0  0  0  0  0  0  0
    5.7116   -1.2979    0.5044 H   0  0  0  0  0  0  0  0  0  0  0  0
    3.4796    3.8250    3.5455 H   0  0  0  0  0  0  0  0  0  0  0  0
    2.6717    5.4423    5.2061 H   0  0  0  0  0  0  0  0  0  0  0  0
    3.9633    6.4512    9.5482 H   0  0  0  0  0  0  0  0  0  0  0  0
    4.3047    4.9969    8.5438 H   0  0  0  0  0  0  0  0  0  0  0  0
    1.5904    6.4832    8.7677 H   0  0  0  0  0  0  0  0  0  0  0  0
    1.9108    5.0291    7.7260 H   0  0  0  0  0  0  0  0  0  0  0  0
    2.0200    4.9041    9.5309 H   0  0  0  0  0  0  0  0  0  0  0  0
    7.4753    4.1940    5.1123 H   0  0  0  0  0  0  0  0  0  0  0  0
    6.2913    1.5976    5.6791 H   0  0  0  0  0  0  0  0  0  0  0  0
    7.2368   -0.8335    5.6259 H   0  0  0  0  0  0  0  0  0  0  0  0
  1  2  2  0
  2  3  1  0
  3  4  2  0
  4  5  1  0
  5  6  2  0
  6  7  1  0
  7  8  2  0
  8  9  1  0
  9 10  1  0
 10 11  1  0
  8 12  1  0
 12 13  1  0
 12 14  2  0
  4 15  1  0
 15 16  2  0
 16 17  1  0
 17 18  1  0
 18 19  2  0
 19 20  1  0
 20 21  2  0
 21 22  1  0
 22 23  1  0
 23 24  1  0
 21 25  1  0
 25 26  2  0
 25 27  1  0
 17 28  2  0
 28 29  1  0
 16 30  1  0
 30 31  2  0
 31 32  1  0
 31 33  1  0
 33 34  2  0
 34 35  1  0
 35 36  2  0
 36 37  1  0
 37 38  2  0
 38 39  1  0
 39 40  2  0
 40 41  1  0
 41 42  2  0
 42 43  1  0
 43 44  2  0
 39 45  1  0
 45 46  2  3
 46 47  1  0
 47 48  2  0
 48 49  1  0
 49 50  2  0
 50 51  1  0
 51 52  2  0
 52 53  1  0
 53 54  2  0
 54 55  1  0
 55 56  1  0
 56 57  1  0
 54 58  1  0
 58 59  1  0
 58 60  2  0
 50 61  1  0
 61 62  2  0
 62 63  1  0
 63 64  1  0
 64 65  2  0
 65 66  1  0
 66 67  2  0
 67 68  1  0
 68 69  1  0
 69 70  1  0
 67 71  1  0
 71 72  2  0
 71 73  1  0
 63 74  2  0
 74 75  1  0
 62 76  1  0
 76 77  2  0
 77 78  1  0
 77 79  1  0
 79 80  2  0
 80 81  1  0
 81 82  2  0
 82 83  1  0
 83 84  2  0
 84 85  1  0
 85 86  2  0
 86 87  1  0
 87 88  2  0
 88 89  1  0
 89 90  2  0
 85 91  1  0
 91 92  2  3
 92 93  1  0
 93 94  2  0
 94 95  1  0
 95 96  2  0
 96 97  1  0
 97 98  2  0
 98 99  1  0
 99100  2  0
100101  1  0
101102  1  0
102103  1  0
100104  1  0
104105  1  0
104106  2  0
 96107  1  0
107108  2  0
108109  1  0
109110  1  0
110111  2  0
111112  1  0
112113  2  0
113114  1  0
114115  1  0
115116  1  0
113117  1  0
117118  2  0
117119  1  0
109120  2  0
120121  1  0
108122  1  0
122123  2  0
123124  1  0
123125  1  0
125126  2  0
126127  1  0
127128  2  0
128129  1  0
129130  2  0
130131  1  0
131132  2  0
132133  1  0
133134  1  0
134135  1  0
132136  1  0
136137  1  0
136138  2  0
128139  1  0
139140  2  0
140141  1  0
141142  1  0
142143  2  0
143144  1  0
144145  2  0
145146  1  0
146147  1  0
147148  1  0
145149  1  0
149150  2  0
149151  1  0
141152  2  0
152153  1  0
140154  1  0
154155  2  0
155156  1  0
 29  1  1  0
 44 33  1  0
 75 47  1  0
 90 79  1  0
121 93  1  0
153125  1  0
 28  3  1  0
 43 35  1  0
 74 49  1  0
 89 81  1  0
120 95  1  0
152127  1  0
 14  5  1  0
 32 15  1  0
 41 37  1  0
 60 51  1  0
 78 61  1  0
 87 83  1  0
106 97  1  0
124107  1  0
138129  1  0
156139  1  0
 26 18  1  0
 72 64  1  0
118110  1  0
150142  1  0
  1157  1  0
  2158  1  0
  6159  1  0
  7160  1  0
 10161  1  0
 10162  1  0
 11163  1  0
 11164  1  0
 11165  1  0
 14166  1  0
 19167  1  0
 20168  1  0
 23169  1  0
 23170  1  0
 24171  1  0
 24172  1  0
 24173  1  0
 26174  1  0
 30175  1  0
 34176  1  0
 36177  1  0
 38178  1  0
 40179  1  0
 42180  1  0
 44181  1  0
 45182  1  0
 46183  1  0
 48184  1  0
 52185  1  0
 53186  1  0
 56187  1  0
 56188  1  0
 57189  1  0
 57190  1  0
 57191  1  0
 60192  1  0
 65193  1  0
 66194  1  0
 69195  1  0
 69196  1  0
 70197  1  0
 70198  1  0
 70199  1  0
 72200  1  0
 76201  1  0
 80202  1  0
 82203  1  0
 84204  1  0
 86205  1  0
 88206  1  0
 90207  1  0
 91208  1  0
 92209  1  0
 94210  1  0
 98211  1  0
 99212  1  0
102213  1  0
102214  1  0
103215  1  0
103216  1  0
103217  1  0
106218  1  0
111219  1  0
112220  1  0
115221  1  0
115222  1  0
116223  1  0
116224  1  0
116225  1  0
118226  1  0
122227  1  0
126228  1  0
130229  1  0
131230  1  0
134231  1  0
134232  1  0
135233  1  0
135234  1  0
135235  1  0
138236  1  0
143237  1  0
144238  1  0
147239  1  0
147240  1  0
148241  1  0
148242  1  0
148243  1  0
150244  1  0
154245  1  0
155246  1  0
M  END

