
     RDKit          3D

236259  0  0  0  0  0  0  0  0999 V2000
    1.6157   -2.7458   10.1609 C   0  0  0  0  0  0  0  0  0  0  0  0
    1.0939   -4.0878    9.2903 S   0  0  0  0  0  0  0  0  0  0  0  0
    0.5135   -3.2361    7.9627 C   0  0  0  0  0  0  0  0  0  0  0  0
    0.7033   -1.8757    8.1843 C   0  0  0  0  0  0  0  0  0  0  0  0
    1.3254   -1.6070    9.4192 C   0  0  0  0  0  0  0  0  0  0  0  0
    1.5493   -0.2136    9.9271 C   0  0  0  0  0  0  0  0  0  0  0  0
    2.1686    0.6726    8.8415 C   0  0  0  0  0  0  0  0  0  0  0  0
    1.1704    0.6725    7.3556 S   0  0  0  0  0  6  0  0  0  0  0  0
    0.2885    1.8881    7.3443 O   0  0  0  0  0  0  0  0  0  0  0  0
    2.0695    0.7023    6.1509 O   0  0  0  0  0  0  0  0  0  0  0  0
    0.1498   -0.7945    7.2943 C   0  0  0  0  0  0  0  0  0  0  0  0
   -0.3093   -3.8103    6.8985 C   0  0  0  0  0  0  0  0  0  0  0  0
    0.2435   -4.1378    5.3523 S   0  0  0  0  0  0  0  0  0  0  0  0
   -1.2664   -4.4475    4.6696 C   0  0  0  0  0  0  0  0  0  0  0  0
   -2.2518   -4.2414    5.6503 C   0  0  0  0  0  0  0  0  0  0  0  0
   -1.7026   -3.8909    6.9083 C   0  0  0  0  0  0  0  0  0  0  0  0
   -2.5353   -3.6088    8.1337 C   0  0  0  0  0  0  0  0  0  0  0  0
   -3.7115   -2.7108    7.7961 C   0  0  0  0  0  0  0  0  0  0  0  0
   -4.7495   -3.5466    6.6226 S   0  0  0  0  0  6  0  0  0  0  0  0
   -5.6892   -2.5544    6.0001 O   0  0  0  0  0  0  0  0  0  0  0  0
   -5.5482   -4.6084    7.3283 O   0  0  0  0  0  0  0  0  0  0  0  0
   -3.7336   -4.3049    5.3560 C   0  0  0  0  0  0  0  0  0  0  0  0
   -1.4628   -4.7380    3.2346 C   0  0  0  0  0  0  0  0  0  0  0  0
   -0.5864   -4.3504    2.2233 C   0  0  0  0  0  0  0  0  0  0  0  0
   -1.0628   -4.6474    0.9345 C   0  0  0  0  0  0  0  0  0  0  0  0
   -0.4359   -4.3077   -0.2782 C   0  0  0  0  0  0  0  0  0  0  0  0
    0.7983   -3.4999   -0.3066 C   0  0  0  0  0  0  0  0  0  0  0  0
    2.0114   -4.0568   -0.7412 C   0  0  0  0  0  0  0  0  0  0  0  0
    3.1865   -3.2965   -0.7092 C   0  0  0  0  0  0  0  0  0  0  0  0
    3.1579   -1.9754   -0.2432 C   0  0  0  0  0  0  0  0  0  0  0  0
    4.6840   -1.0335   -0.1047 S   0  0  0  0  0  0  0  0  0  0  0  0
    4.4671   -0.1127   -1.6674 C   0  0  0  0  0  0  0  0  0  0  0  0
    4.9803   -0.9159   -2.8519 C   0  0  0  0  0  0  0  0  0  0  0  0
    1.9413   -1.4101    0.1648 C   0  0  0  0  0  0  0  0  0  0  0  0
    1.8909   -0.1278    0.5934 F   0  0  0  0  0  0  0  0  0  0  0  0
    0.7673   -2.1674    0.1298 C   0  0  0  0  0  0  0  0  0  0  0  0
   -1.1296   -4.6134   -1.4595 C   0  0  0  0  0  0  0  0  0  0  0  0
   -2.3948   -5.2082   -1.4598 C   0  0  0  0  0  0  0  0  0  0  0  0
   -2.9973   -5.6030   -0.2442 C   0  0  0  0  0  0  0  0  0  0  0  0
   -4.3014   -6.2984   -0.2046 C   0  0  0  0  0  0  0  0  0  0  0  0
   -5.3933   -5.7433    0.4831 C   0  0  0  0  0  0  0  0  0  0  0  0
   -6.5986   -6.4457    0.5744 C   0  0  0  0  0  0  0  0  0  0  0  0
   -6.7277   -7.7030   -0.0292 C   0  0  0  0  0  0  0  0  0  0  0  0
   -8.2563   -8.6301    0.1430 S   0  0  0  0  0  0  0  0  0  0  0  0
   -8.9854   -8.0680   -1.4356 C   0  0  0  0  0  0  0  0  0  0  0  0
   -9.7263   -6.7547   -1.2465 C   0  0  0  0  0  0  0  0  0  0  0  0
   -5.6507   -8.2492   -0.7391 C   0  0  0  0  0  0  0  0  0  0  0  0
   -4.4443   -7.5464   -0.8286 C   0  0  0  0  0  0  0  0  0  0  0  0
   -5.7680   -9.4573   -1.3410 F   0  0  0  0  0  0  0  0  0  0  0  0
   -2.2997   -5.2936    0.9368 C   0  0  0  0  0  0  0  0  0  0  0  0
   -2.7955   -5.5039    2.5319 S   0  0  0  0  0  0  0  0  0  0  0  0
   -3.0190   -5.1764   -2.7230 C   0  0  0  0  0  0  0  0  0  0  0  0
   -2.2469   -4.5422   -3.7074 C   0  0  0  0  0  0  0  0  0  0  0  0
   -0.7869   -4.0689   -3.0021 S   0  0  0  0  0  0  0  0  0  0  0  0
   -2.8019   -3.8135   -4.8648 C   0  0  0  0  0  0  0  0  0  0  0  0
   -4.0299   -3.1497   -4.7766 C   0  0  0  0  0  0  0  0  0  0  0  0
   -4.0380   -1.9000   -5.4221 C   0  0  0  0  0  0  0  0  0  0  0  0
   -4.9792   -0.8711   -5.2022 C   0  0  0  0  0  0  0  0  0  0  0  0
   -6.1922   -1.0622   -4.3793 C   0  0  0  0  0  0  0  0  0  0  0  0
   -7.4528   -0.8548   -4.9546 C   0  0  0  0  0  0  0  0  0  0  0  0
   -8.6070   -0.9812   -4.1797 C   0  0  0  0  0  0  0  0  0  0  0  0
   -8.5158   -1.3352   -2.8280 C   0  0  0  0  0  0  0  0  0  0  0  0
  -10.0106   -1.5416   -1.8517 S   0  0  0  0  0  0  0  0  0  0  0  0
  -10.1968   -3.3237   -2.2147 C   0  0  0  0  0  0  0  0  0  0  0  0
  -10.9634   -3.5402   -3.5134 C   0  0  0  0  0  0  0  0  0  0  0  0
   -7.2559   -1.5174   -2.2399 C   0  0  0  0  0  0  0  0  0  0  0  0
   -7.1511   -1.8385   -0.9263 F   0  0  0  0  0  0  0  0  0  0  0  0
   -6.0971   -1.3688   -3.0097 C   0  0  0  0  0  0  0  0  0  0  0  0
   -4.6042    0.4282   -5.5876 C   0  0  0  0  0  0  0  0  0  0  0  0
   -3.3868    0.7005   -6.2171 C   0  0  0  0  0  0  0  0  0  0  0  0
   -2.5137   -0.3479   -6.5683 C   0  0  0  0  0  0  0  0  0  0  0  0
   -1.1742   -0.0636   -7.1258 C   0  0  0  0  0  0  0  0  0  0  0  0
   -0.0271   -0.1688   -6.3206 C   0  0  0  0  0  0  0  0  0  0  0  0
    1.2306    0.1365   -6.8467 C   0  0  0  0  0  0  0  0  0  0  0  0
    1.3535    0.5593   -8.1748 C   0  0  0  0  0  0  0  0  0  0  0  0
    2.9755    0.9468   -8.8400 S   0  0  0  0  0  0  0  0  0  0  0  0
    3.3959   -0.7781   -9.2805 C   0  0  0  0  0  0  0  0  0  0  0  0
    2.6773   -1.2247  -10.5475 C   0  0  0  0  0  0  0  0  0  0  0  0
    0.2077    0.7014   -8.9716 C   0  0  0  0  0  0  0  0  0  0  0  0
   -1.0516    0.3875   -8.4483 C   0  0  0  0  0  0  0  0  0  0  0  0
    0.3102    1.1448  -10.2487 F   0  0  0  0  0  0  0  0  0  0  0  0
   -2.8555   -1.6372   -6.1223 C   0  0  0  0  0  0  0  0  0  0  0  0
   -1.8066   -2.9271   -5.8975 S   0  0  0  0  0  0  0  0  0  0  0  0
   -3.0036    2.0497   -6.1150 C   0  0  0  0  0  0  0  0  0  0  0  0
   -3.8352    2.8135   -5.2898 C   0  0  0  0  0  0  0  0  0  0  0  0
   -5.1628    1.8481   -4.8818 S   0  0  0  0  0  0  0  0  0  0  0  0
   -3.2301    3.7286   -4.2955 C   0  0  0  0  0  0  0  0  0  0  0  0
   -3.3118    3.4435   -2.9288 C   0  0  0  0  0  0  0  0  0  0  0  0
   -2.1523    3.7706   -2.2082 C   0  0  0  0  0  0  0  0  0  0  0  0
   -1.8356    3.2810   -0.9247 C   0  0  0  0  0  0  0  0  0  0  0  0
   -2.8265    2.5102   -0.1494 C   0  0  0  0  0  0  0  0  0  0  0  0
   -3.9163    3.1734    0.4343 C   0  0  0  0  0  0  0  0  0  0  0  0
   -4.9528    2.4426    1.0218 C   0  0  0  0  0  0  0  0  0  0  0  0
   -4.9081    1.0426    1.0351 C   0  0  0  0  0  0  0  0  0  0  0  0
   -6.2735    0.1187    1.7453 S   0  0  0  0  0  0  0  0  0  0  0  0
   -5.5015   -0.0996    3.3870 C   0  0  0  0  0  0  0  0  0  0  0  0
   -5.6070    1.1672    4.2281 C   0  0  0  0  0  0  0  0  0  0  0  0
   -3.8209    0.3745    0.4521 C   0  0  0  0  0  0  0  0  0  0  0  0
   -3.7852   -0.9824    0.4291 F   0  0  0  0  0  0  0  0  0  0  0  0
   -2.7811    1.1071   -0.1351 C   0  0  0  0  0  0  0  0  0  0  0  0
   -0.5041    3.4333   -0.4976 C   0  0  0  0  0  0  0  0  0  0  0  0
    0.4570    4.0951   -1.2702 C   0  0  0  0  0  0  0  0  0  0  0  0
    0.1253    4.6317   -2.5353 C   0  0  0  0  0  0  0  0  0  0  0  0
    1.1318    5.2478   -3.4309 C   0  0  0  0  0  0  0  0  0  0  0  0
    2.2620    4.5275   -3.8545 C   0  0  0  0  0  0  0  0  0  0  0  0
    3.1735    5.1049   -4.7454 C   0  0  0  0  0  0  0  0  0  0  0  0
    2.9485    6.3923   -5.2440 C   0  0  0  0  0  0  0  0  0  0  0  0
    4.0888    7.1010   -6.4434 S   0  0  0  0  0  0  0  0  0  0  0  0
    5.0611    8.0666   -5.2376 C   0  0  0  0  0  0  0  0  0  0  0  0
    5.0349    9.5385   -5.6136 C   0  0  0  0  0  0  0  0  0  0  0  0
    1.8148    7.1082   -4.8398 C   0  0  0  0  0  0  0  0  0  0  0  0
    0.9173    6.5429   -3.9295 C   0  0  0  0  0  0  0  0  0  0  0  0
    1.5820    8.3569   -5.3216 F   0  0  0  0  0  0  0  0  0  0  0  0
   -1.1910    4.4244   -2.9821 C   0  0  0  0  0  0  0  0  0  0  0  0
   -1.7589    4.5252   -4.5604 S   0  0  0  0  0  0  0  0  0  0  0  0
    1.7370    4.0521   -0.7009 C   0  0  0  0  0  0  0  0  0  0  0  0
    1.7973    3.3076    0.4747 C   0  0  0  0  0  0  0  0  0  0  0  0
    0.2418    2.7587    0.8545 S   0  0  0  0  0  0  0  0  0  0  0  0
    3.0461    2.8882    1.1405 C   0  0  0  0  0  0  0  0  0  0  0  0
    4.3257    3.0989    0.6318 C   0  0  0  0  0  0  0  0  0  0  0  0
    5.3290    2.4800    1.3867 C   0  0  0  0  0  0  0  0  0  0  0  0
    6.7130    2.4950    1.1069 C   0  0  0  0  0  0  0  0  0  0  0  0
    7.2841    3.2243   -0.0456 C   0  0  0  0  0  0  0  0  0  0  0  0
    7.1403    4.6181   -0.1501 C   0  0  0  0  0  0  0  0  0  0  0  0
    7.7502    5.3089   -1.2029 C   0  0  0  0  0  0  0  0  0  0  0  0
    8.5037    4.6155   -2.1556 C   0  0  0  0  0  0  0  0  0  0  0  0
    9.3268    5.5121   -3.4754 S   0  0  0  0  0  0  0  0  0  0  0  0
    7.8655    5.5840   -4.5663 C   0  0  0  0  0  0  0  0  0  0  0  0
    7.5161    4.2232   -5.1506 C   0  0  0  0  0  0  0  0  0  0  0  0
    8.6430    3.2242   -2.0626 C   0  0  0  0  0  0  0  0  0  0  0  0
    9.3907    2.5462   -2.9615 F   0  0  0  0  0  0  0  0  0  0  0  0
    8.0232    2.5313   -1.0184 C   0  0  0  0  0  0  0  0  0  0  0  0
    7.5461    1.7719    1.9761 C   0  0  0  0  0  0  0  0  0  0  0  0
    7.0528    1.0451    3.0599 C   0  0  0  0  0  0  0  0  0  0  0  0
    5.6691    1.0187    3.3351 C   0  0  0  0  0  0  0  0  0  0  0  0
    5.1329    0.2076    4.4406 C   0  0  0  0  0  0  0  0  0  0  0  0
    4.4097   -0.9615    4.1668 C   0  0  0  0  0  0  0  0  0  0  0  0
    4.0981   -1.8497    5.1984 C   0  0  0  0  0  0  0  0  0  0  0  0
    4.5202   -1.5826    6.5060 C   0  0  0  0  0  0  0  0  0  0  0  0
    4.2314   -2.7904    7.8037 S   0  0  0  0  0  0  0  0  0  0  0  0
    5.9230   -3.4848    7.7624 C   0  0  0  0  0  0  0  0  0  0  0  0
    6.1122   -4.4245    6.5788 C   0  0  0  0  0  0  0  0  0  0  0  0
    5.1928   -0.3871    6.7927 C   0  0  0  0  0  0  0  0  0  0  0  0
    5.4911    0.5086    5.7630 C   0  0  0  0  0  0  0  0  0  0  0  0
    5.6222   -0.1189    8.0517 F   0  0  0  0  0  0  0  0  0  0  0  0
    4.8325    1.7576    2.4766 C   0  0  0  0  0  0  0  0  0  0  0  0
    3.1559    1.9153    2.5221 S   0  0  0  0  0  0  0  0  0  0  0  0
    8.0623    0.3770    3.7779 C   0  0  0  0  0  0  0  0  0  0  0  0
    9.3375    0.6008    3.2706 C   0  0  0  0  0  0  0  0  0  0  0  0
    9.2213    1.6140    1.9287 S   0  0  0  0  0  0  0  0  0  0  0  0
    2.0760   -2.7680   11.1435 H   0  0  0  0  0  0  0  0  0  0  0  0
    2.2324   -0.2272   10.8047 H   0  0  0  0  0  0  0  0  0  0  0  0
    0.5773    0.2202   10.2541 H   0  0  0  0  0  0  0  0  0  0  0  0
    2.2760    1.7099    9.2172 H   0  0  0  0  0  0  0  0  0  0  0  0
    3.1753    0.2833    8.5980 H   0  0  0  0  0  0  0  0  0  0  0  0
   -0.8738   -0.5445    7.6354 H   0  0  0  0  0  0  0  0  0  0  0  0
    0.0955   -1.1455    6.2422 H   0  0  0  0  0  0  0  0  0  0  0  0
   -1.9316   -3.1038    8.9222 H   0  0  0  0  0  0  0  0  0  0  0  0
   -2.8972   -4.5721    8.5592 H   0  0  0  0  0  0  0  0  0  0  0  0
   -3.3486   -1.7554    7.3619 H   0  0  0  0  0  0  0  0  0  0  0  0
   -4.2966   -2.4959    8.7160 H   0  0  0  0  0  0  0  0  0  0  0  0
   -4.0379   -5.3650    5.2379 H   0  0  0  0  0  0  0  0  0  0  0  0
   -3.9397   -3.7657    4.4083 H   0  0  0  0  0  0  0  0  0  0  0  0
    0.3402   -3.8218    2.4138 H   0  0  0  0  0  0  0  0  0  0  0  0
    2.0479   -5.0845   -1.0815 H   0  0  0  0  0  0  0  0  0  0  0  0
    4.1223   -3.7428   -1.0263 H   0  0  0  0  0  0  0  0  0  0  0  0
    5.0404    0.8356   -1.5899 H   0  0  0  0  0  0  0  0  0  0  0  0
    3.3988    0.1529   -1.8222 H   0  0  0  0  0  0  0  0  0  0  0  0
    6.0589   -1.1516   -2.7208 H   0  0  0  0  0  0  0  0  0  0  0  0
    4.4083   -1.8588   -2.9589 H   0  0  0  0  0  0  0  0  0  0  0  0
    4.8594   -0.3177   -3.7795 H   0  0  0  0  0  0  0  0  0  0  0  0
   -0.1646   -1.7194    0.4559 H   0  0  0  0  0  0  0  0  0  0  0  0
   -5.3043   -4.7713    0.9547 H   0  0  0  0  0  0  0  0  0  0  0  0
   -7.4262   -6.0151    1.1257 H   0  0  0  0  0  0  0  0  0  0  0  0
   -9.7045   -8.8389   -1.7815 H   0  0  0  0  0  0  0  0  0  0  0  0
   -8.2028   -7.9531   -2.2145 H   0  0  0  0  0  0  0  0  0  0  0  0
  -10.4917   -6.8591   -0.4493 H   0  0  0  0  0  0  0  0  0  0  0  0
  -10.2380   -6.4736   -2.1911 H   0  0  0  0  0  0  0  0  0  0  0  0
   -9.0166   -5.9502   -0.9703 H   0  0  0  0  0  0  0  0  0  0  0  0
   -3.6136   -7.9863   -1.3670 H   0  0  0  0  0  0  0  0  0  0  0  0
   -4.0493   -5.4693   -2.8837 H   0  0  0  0  0  0  0  0  0  0  0  0
   -4.7985   -3.4590   -4.0828 H   0  0  0  0  0  0  0  0  0  0  0  0
   -7.5414   -0.5913   -6.0018 H   0  0  0  0  0  0  0  0  0  0  0  0
   -9.5768   -0.8099   -4.6332 H   0  0  0  0  0  0  0  0  0  0  0  0
   -9.2063   -3.8227   -2.2724 H   0  0  0  0  0  0  0  0  0  0  0  0
  -10.7657   -3.7913   -1.3834 H   0  0  0  0  0  0  0  0  0  0  0  0
  -11.1382   -4.6262   -3.6680 H   0  0  0  0  0  0  0  0  0  0  0  0
  -10.3796   -3.1556   -4.3750 H   0  0  0  0  0  0  0  0  0  0  0  0
  -11.9448   -3.0207   -3.4705 H   0  0  0  0  0  0  0  0  0  0  0  0
   -5.1249   -1.4922   -2.5427 H   0  0  0  0  0  0  0  0  0  0  0  0
   -0.1087   -0.4863   -5.2869 H   0  0  0  0  0  0  0  0  0  0  0  0
    2.1070    0.0429   -6.2191 H   0  0  0  0  0  0  0  0  0  0  0  0
    3.1482   -1.4658   -8.4429 H   0  0  0  0  0  0  0  0  0  0  0  0
    4.4908   -0.8304   -9.4531 H   0  0  0  0  0  0  0  0  0  0  0  0
    1.5869   -1.3153  -10.3666 H   0  0  0  0  0  0  0  0  0  0  0  0
    3.0602   -2.2210  -10.8583 H   0  0  0  0  0  0  0  0  0  0  0  0
    2.8621   -0.5018  -11.3698 H   0  0  0  0  0  0  0  0  0  0  0  0
   -1.9307    0.4982   -9.0714 H   0  0  0  0  0  0  0  0  0  0  0  0
   -2.0162    2.3859   -6.4016 H   0  0  0  0  0  0  0  0  0  0  0  0
   -4.0893    2.8179   -2.5067 H   0  0  0  0  0  0  0  0  0  0  0  0
   -3.9791    4.2547    0.4017 H   0  0  0  0  0  0  0  0  0  0  0  0
   -5.7986    2.9644    1.4521 H   0  0  0  0  0  0  0  0  0  0  0  0
   -6.0413   -0.9156    3.9072 H   0  0  0  0  0  0  0  0  0  0  0  0
   -4.4363   -0.4026    3.2853 H   0  0  0  0  0  0  0  0  0  0  0  0
   -6.6678    1.4908    4.3006 H   0  0  0  0  0  0  0  0  0  0  0  0
   -5.2262    0.9643    5.2504 H   0  0  0  0  0  0  0  0  0  0  0  0
   -5.0034    1.9846    3.7826 H   0  0  0  0  0  0  0  0  0  0  0  0
   -1.9651    0.5815   -0.6128 H   0  0  0  0  0  0  0  0  0  0  0  0
    2.4330    3.5182   -3.5014 H   0  0  0  0  0  0  0  0  0  0  0  0
    4.0391    4.5397   -5.0649 H   0  0  0  0  0  0  0  0  0  0  0  0
    6.1080    7.7141   -5.2730 H   0  0  0  0  0  0  0  0  0  0  0  0
    4.6863    7.9440   -4.1981 H   0  0  0  0  0  0  0  0  0  0  0  0
    3.9924    9.9232   -5.6032 H   0  0  0  0  0  0  0  0  0  0  0  0
    5.4708    9.6745   -6.6279 H   0  0  0  0  0  0  0  0  0  0  0  0
    5.6387   10.1233   -4.8860 H   0  0  0  0  0  0  0  0  0  0  0  0
    0.0436    7.1099   -3.6186 H   0  0  0  0  0  0  0  0  0  0  0  0
    2.6032    4.5027   -1.1638 H   0  0  0  0  0  0  0  0  0  0  0  0
    4.5257    3.6481   -0.2770 H   0  0  0  0  0  0  0  0  0  0  0  0
    6.5760    5.1665    0.5944 H   0  0  0  0  0  0  0  0  0  0  0  0
    7.6391    6.3855   -1.2682 H   0  0  0  0  0  0  0  0  0  0  0  0
    6.9947    5.9807   -4.0069 H   0  0  0  0  0  0  0  0  0  0  0  0
    8.1010    6.2799   -5.3949 H   0  0  0  0  0  0  0  0  0  0  0  0
    6.7993    4.3562   -5.9887 H   0  0  0  0  0  0  0  0  0  0  0  0
    8.4264    3.7190   -5.5332 H   0  0  0  0  0  0  0  0  0  0  0  0
    7.0328    3.5884   -4.3831 H   0  0  0  0  0  0  0  0  0  0  0  0
    8.1309    1.4548   -0.9587 H   0  0  0  0  0  0  0  0  0  0  0  0
    4.1419   -1.2181    3.1463 H   0  0  0  0  0  0  0  0  0  0  0  0
    3.5729   -2.7712    4.9760 H   0  0  0  0  0  0  0  0  0  0  0  0
    6.6792   -2.6718    7.7245 H   0  0  0  0  0  0  0  0  0  0  0  0
    6.0834   -4.0533    8.7003 H   0  0  0  0  0  0  0  0  0  0  0  0
    6.0210   -3.8746    5.6203 H   0  0  0  0  0  0  0  0  0  0  0  0
    7.1254   -4.8796    6.6259 H   0  0  0  0  0  0  0  0  0  0  0  0
    5.3543   -5.2351    6.6122 H   0  0  0  0  0  0  0  0  0  0  0  0
    6.0600    1.4050    5.9838 H   0  0  0  0  0  0  0  0  0  0  0  0
    7.8765   -0.2523    4.6342 H   0  0  0  0  0  0  0  0  0  0  0  0
   10.2543    0.1875    3.6737 H   0  0  0  0  0  0  0  0  0  0  0  0
  1  2  1  0
  2  3  1  0
  3  4  2  0
  4  5  1  0
  5  6  1  0
  6  7  1  0
  7  8  1  0
  8  9  2  0
  8 10  2  0
  8 11  1  0
  3 12  1  0
 12 13  1  0
 13 14  1  0
 14 15  2  0
 15 16  1  0
 16 17  1  0
 17 18  1  0
 18 19  1  0
 19 20  2  0
 19 21  2  0
 19 22  1  0
 14 23  1  0
 23 24  2  0
 24 25  1  0
 25 26  2  0
 26 27  1  0
 27 28  2  0
 28 29  1  0
 29 30  2  0
 30 31  1  0
 31 32  1  0
 32 33  1  0
 30 34  1  0
 34 35  1  0
 34 36  2  0
 26 37  1  0
 37 38  2  0
 38 39  1  0
 39 40  1  0
 40 41  2  0
 41 42  1  0
 42 43  2  0
 43 44  1  0
 44 45  1  0
 45 46  1  0
 43 47  1  0
 47 48  2  0
 47 49  1  0
 39 50  2  0
 50 51  1  0
 38 52  1  0
 52 53  2  0
 53 54  1  0
 53 55  1  0
 55 56  2  0
 56 57  1  0
 57 58  2  0
 58 59  1  0
 59 60  2  0
 60 61  1  0
 61 62  2  0
 62 63  1  0
 63 64  1  0
 64 65  1  0
 62 66  1  0
 66 67  1  0
 66 68  2  0
 58 69  1  0
 69 70  2  0
 70 71  1  0
 71 72  1  0
 72 73  2  0
 73 74  1  0
 74 75  2  0
 75 76  1  0
 76 77  1  0
 77 78  1  0
 75 79  1  0
 79 80  2  0
 79 81  1  0
 71 82  2  0
 82 83  1  0
 70 84  1  0
 84 85  2  0
 85 86  1  0
 85 87  1  0
 87 88  2  0
 88 89  1  0
 89 90  2  0
 90 91  1  0
 91 92  2  0
 92 93  1  0
 93 94  2  0
 94 95  1  0
 95 96  1  0
 96 97  1  0
 94 98  1  0
 98 99  1  0
 98100  2  0
 90101  1  0
101102  2  0
102103  1  0
103104  1  0
104105  2  0
105106  1  0
106107  2  0
107108  1  0
108109  1  0
109110  1  0
107111  1  0
111112  2  0
111113  1  0
103114  2  0
114115  1  0
102116  1  0
116117  2  0
117118  1  0
117119  1  0
119120  2  0
120121  1  0
121122  2  0
122123  1  0
123124  2  0
124125  1  0
125126  2  0
126127  1  0
127128  1  0
128129  1  0
126130  1  0
130131  1  0
130132  2  0
122133  1  0
133134  2  0
134135  1  0
135136  1  0
136137  2  0
137138  1  0
138139  2  0
139140  1  0
140141  1  0
141142  1  0
139143  1  0
143144  2  0
143145  1  0
135146  2  0
146147  1  0
134148  1  0
148149  2  0
149150  1  0
  5  1  2  0
 16 12  2  0
 51 23  1  0
 83 55  1  0
115 87  1  0
147119  1  0
 11  4  1  0
 22 15  1  0
 50 25  1  0
 82 57  1  0
114 89  1  0
146121  1  0
 36 27  1  0
 54 37  1  0
 68 59  1  0
 86 69  1  0
100 91  1  0
118101  1  0
132123  1  0
150133  1  0
 48 40  1  0
 80 72  1  0
112104  1  0
144136  1  0
  1151  1  0
  6152  1  0
  6153  1  0
  7154  1  0
  7155  1  0
 11156  1  0
 11157  1  0
 17158  1  0
 17159  1  0
 18160  1  0
 18161  1  0
 22162  1  0
 22163  1  0
 24164  1  0
 28165  1  0
 29166  1  0
 32167  1  0
 32168  1  0
 33169  1  0
 33170  1  0
 33171  1  0
 36172  1  0
 41173  1  0
 42174  1  0
 45175  1  0
 45176  1  0
 46177  1  0
 46178  1  0
 46179  1  0
 48180  1  0
 52181  1  0
 56182  1  0
 60183  1  0
 61184  1  0
 64185  1  0
 64186  1  0
 65187  1  0
 65188  1  0
 65189  1  0
 68190  1  0
 73191  1  0
 74192  1  0
 77193  1  0
 77194  1  0
 78195  1  0
 78196  1  0
 78197  1  0
 80198  1  0
 84199  1  0
 88200  1  0
 92201  1  0
 93202  1  0
 96203  1  0
 96204  1  0
 97205  1  0
 97206  1  0
 97207  1  0
100208  1  0
105209  1  0
106210  1  0
109211  1  0
109212  1  0
110213  1  0
110214  1  0
110215  1  0
112216  1  0
116217  1  0
120218  1  0
124219  1  0
125220  1  0
128221  1  0
128222  1  0
129223  1  0
129224  1  0
129225  1  0
132226  1  0
137227  1  0
138228  1  0
141229  1  0
141230  1  0
142231  1  0
142232  1  0
142233  1  0
144234  1  0
148235  1  0
149236  1  0
M  END

