
     RDKit          3D

208233  0  0  0  0  0  0  0  0999 V2000
    5.0413   -3.7252  -14.4419 C   0  0  0  0  0  0  0  0  0  0  0  0
    5.3956   -2.4208  -14.1058 C   0  0  0  0  0  0  0  0  0  0  0  0
    5.7729   -2.2822  -12.7603 C   0  0  0  0  0  0  0  0  0  0  0  0
    6.2059   -1.0991  -12.1272 C   0  0  0  0  0  0  0  0  0  0  0  0
    6.2707    0.1909  -12.8367 C   0  0  0  0  0  0  0  0  0  0  0  0
    7.6803    1.0646  -13.1056 S   0  0  0  0  0  0  0  0  0  0  0  0
    6.9399    2.3877  -13.8351 C   0  0  0  0  0  0  0  0  0  0  0  0
    7.6616    3.6295  -14.2626 C   0  0  0  0  0  0  0  0  0  0  0  0
    7.7328    4.6280  -13.1145 C   0  0  0  0  0  0  0  0  0  0  0  0
    5.5617    2.1771  -13.8435 C   0  0  0  0  0  0  0  0  0  0  0  0
    4.4032    3.3520  -14.4514 Cl  0  0  0  0  0  0  0  0  0  0  0  0
    5.1857    0.9406  -13.2893 C   0  0  0  0  0  0  0  0  0  0  0  0
    3.5127    0.4299  -13.1030 Cl  0  0  0  0  0  0  0  0  0  0  0  0
    6.5665   -1.1988  -10.7750 C   0  0  0  0  0  0  0  0  0  0  0  0
    6.5058   -2.3989  -10.0589 C   0  0  0  0  0  0  0  0  0  0  0  0
    6.0789   -3.5820  -10.6931 C   0  0  0  0  0  0  0  0  0  0  0  0
    6.0182   -4.8691   -9.9806 C   0  0  0  0  0  0  0  0  0  0  0  0
    7.3497   -5.8389   -9.6553 S   0  0  0  0  0  0  0  0  0  0  0  0
    6.4811   -7.0926   -8.9421 C   0  0  0  0  0  0  0  0  0  0  0  0
    7.0861   -8.3750   -8.4520 C   0  0  0  0  0  0  0  0  0  0  0  0
    7.0006   -9.4607   -9.5190 C   0  0  0  0  0  0  0  0  0  0  0  0
    5.1234   -6.7723   -8.9706 C   0  0  0  0  0  0  0  0  0  0  0  0
    4.8643   -5.5223   -9.5536 C   0  0  0  0  0  0  0  0  0  0  0  0
    3.2497   -4.8524   -9.7437 Cl  0  0  0  0  0  0  0  0  0  0  0  0
    3.8623   -7.8377   -8.3675 Cl  0  0  0  0  0  0  0  0  0  0  0  0
    5.7176   -3.4840  -12.0476 C   0  0  0  0  0  0  0  0  0  0  0  0
    5.2019   -4.7086  -13.0784 S   0  0  0  0  0  0  0  0  0  0  0  0
    6.8635   -2.2555   -8.7046 C   0  0  0  0  0  0  0  0  0  0  0  0
    7.1892   -0.9389   -8.3692 C   0  0  0  0  0  0  0  0  0  0  0  0
    7.0457    0.0315   -9.7407 S   0  0  0  0  0  0  0  0  0  0  0  0
    7.5037   -0.4215   -7.0292 C   0  0  0  0  0  0  0  0  0  0  0  0
    7.5537   -1.1551   -5.8423 C   0  0  0  0  0  0  0  0  0  0  0  0
    7.7503   -0.3446   -4.7100 C   0  0  0  0  0  0  0  0  0  0  0  0
    7.7689   -0.7724   -3.3650 C   0  0  0  0  0  0  0  0  0  0  0  0
    7.7256   -2.2046   -3.0051 C   0  0  0  0  0  0  0  0  0  0  0  0
    6.4501   -2.9679   -2.2194 S   0  0  0  0  0  0  0  0  0  0  0  0
    7.0854   -4.5240   -2.3046 C   0  0  0  0  0  0  0  0  0  0  0  0
    6.3701   -5.7662   -1.8626 C   0  0  0  0  0  0  0  0  0  0  0  0
    5.5558   -6.3495   -3.0140 C   0  0  0  0  0  0  0  0  0  0  0  0
    8.3081   -4.4674   -2.9687 C   0  0  0  0  0  0  0  0  0  0  0  0
    9.2877   -5.8862   -3.3217 Cl  0  0  0  0  0  0  0  0  0  0  0  0
    8.6674   -3.1680   -3.3601 C   0  0  0  0  0  0  0  0  0  0  0  0
   10.1620   -2.7985   -4.2143 Cl  0  0  0  0  0  0  0  0  0  0  0  0
    7.8262    0.2341   -2.3807 C   0  0  0  0  0  0  0  0  0  0  0  0
    7.9328    1.5906   -2.7035 C   0  0  0  0  0  0  0  0  0  0  0  0
    7.9613    2.0085   -4.0441 C   0  0  0  0  0  0  0  0  0  0  0  0
    8.0285    3.4346   -4.4010 C   0  0  0  0  0  0  0  0  0  0  0  0
    9.4134    4.3787   -4.2765 S   0  0  0  0  0  0  0  0  0  0  0  0
    8.6730    5.8301   -4.7009 C   0  0  0  0  0  0  0  0  0  0  0  0
    9.3640    7.1594   -4.6951 C   0  0  0  0  0  0  0  0  0  0  0  0
    9.1246    7.8802   -3.3724 C   0  0  0  0  0  0  0  0  0  0  0  0
    7.3184    5.5949   -4.9140 C   0  0  0  0  0  0  0  0  0  0  0  0
    6.9573    4.2482   -4.7479 C   0  0  0  0  0  0  0  0  0  0  0  0
    5.3038    3.6622   -4.8813 Cl  0  0  0  0  0  0  0  0  0  0  0  0
    6.1611    6.8599   -5.3103 Cl  0  0  0  0  0  0  0  0  0  0  0  0
    7.8502    1.0153   -5.0212 C   0  0  0  0  0  0  0  0  0  0  0  0
    7.7110    1.2163   -6.6803 S   0  0  0  0  0  0  0  0  0  0  0  0
    7.8997    2.4381   -1.5890 C   0  0  0  0  0  0  0  0  0  0  0  0
    7.7431    1.7537   -0.3835 C   0  0  0  0  0  0  0  0  0  0  0  0
    7.6685    0.0899   -0.7090 S   0  0  0  0  0  0  0  0  0  0  0  0
    7.3815    2.4106    0.8881 C   0  0  0  0  0  0  0  0  0  0  0  0
    7.8542    3.7207    1.1727 C   0  0  0  0  0  0  0  0  0  0  0  0
    7.3076    4.4744    2.2269 C   0  0  0  0  0  0  0  0  0  0  0  0
    6.3040    3.8825    2.9858 C   0  0  0  0  0  0  0  0  0  0  0  0
    5.8775    2.5903    2.7530 C   0  0  0  0  0  0  0  0  0  0  0  0
    6.4170    1.8179    1.7303 C   0  0  0  0  0  0  0  0  0  0  0  0
    4.8671    2.2747    3.5359 O   0  0  0  0  0  0  0  0  0  0  0  0
    4.6044    3.3461    4.2549 C   0  0  0  0  0  0  0  0  0  0  0  0
    5.4699    4.3778    3.9606 C   0  0  0  0  0  0  0  0  0  0  0  0
    5.3156    5.6512    4.5043 C   0  0  0  0  0  0  0  0  0  0  0  0
    4.2201    5.8661    5.3675 C   0  0  0  0  0  0  0  0  0  0  0  0
    3.3356    4.8031    5.6848 C   0  0  0  0  0  0  0  0  0  0  0  0
    3.5501    3.5184    5.1390 C   0  0  0  0  0  0  0  0  0  0  0  0
    2.0794    5.0475    6.3976 C   0  0  0  0  0  0  0  0  0  0  0  0
    1.6084    4.2107    7.4059 C   0  0  0  0  0  0  0  0  0  0  0  0
    0.2077    4.1516    7.4684 C   0  0  0  0  0  0  0  0  0  0  0  0
   -0.5321    3.2442    8.2420 C   0  0  0  0  0  0  0  0  0  0  0  0
    0.1061    2.3956    9.2624 C   0  0  0  0  0  0  0  0  0  0  0  0
    0.6331    2.9542   10.7561 S   0  0  0  0  0  0  0  0  0  0  0  0
    1.1651    1.4615   11.3253 C   0  0  0  0  0  0  0  0  0  0  0  0
    1.7043    1.2248   12.7050 C   0  0  0  0  0  0  0  0  0  0  0  0
    0.5681    1.1441   13.7161 C   0  0  0  0  0  0  0  0  0  0  0  0
    0.9296    0.4988   10.3449 C   0  0  0  0  0  0  0  0  0  0  0  0
    1.2997   -1.2097   10.5472 Cl  0  0  0  0  0  0  0  0  0  0  0  0
    0.3490    1.0267    9.1773 C   0  0  0  0  0  0  0  0  0  0  0  0
   -0.0019    0.0614    7.7491 Cl  0  0  0  0  0  0  0  0  0  0  0  0
   -1.8975    3.1273    7.9473 C   0  0  0  0  0  0  0  0  0  0  0  0
   -2.5337    3.9010    6.9703 C   0  0  0  0  0  0  0  0  0  0  0  0
   -1.8098    4.8874    6.2632 C   0  0  0  0  0  0  0  0  0  0  0  0
   -2.4480    5.7071    5.2131 C   0  0  0  0  0  0  0  0  0  0  0  0
   -2.0091    5.7171    3.5887 S   0  0  0  0  0  0  0  0  0  0  0  0
   -3.1816    6.8171    3.0951 C   0  0  0  0  0  0  0  0  0  0  0  0
   -3.2985    7.3554    1.7014 C   0  0  0  0  0  0  0  0  0  0  0  0
   -2.4309    8.5970    1.5306 C   0  0  0  0  0  0  0  0  0  0  0  0
   -3.9241    7.2097    4.2072 C   0  0  0  0  0  0  0  0  0  0  0  0
   -3.5220    6.5773    5.3929 C   0  0  0  0  0  0  0  0  0  0  0  0
   -4.2715    6.8902    6.9537 Cl  0  0  0  0  0  0  0  0  0  0  0  0
   -5.2153    8.4044    4.1417 Cl  0  0  0  0  0  0  0  0  0  0  0  0
   -0.4261    4.9592    6.5177 C   0  0  0  0  0  0  0  0  0  0  0  0
    0.7560    5.7500    5.6186 S   0  0  0  0  0  0  0  0  0  0  0  0
   -3.8409    3.4595    6.6804 C   0  0  0  0  0  0  0  0  0  0  0  0
   -4.2067    2.3365    7.4194 C   0  0  0  0  0  0  0  0  0  0  0  0
   -2.9388    1.9147    8.4473 S   0  0  0  0  0  0  0  0  0  0  0  0
   -5.2385    1.3760    7.0157 C   0  0  0  0  0  0  0  0  0  0  0  0
   -4.9830    0.0262    6.8044 C   0  0  0  0  0  0  0  0  0  0  0  0
   -6.0948   -0.6738    6.3306 C   0  0  0  0  0  0  0  0  0  0  0  0
   -6.1191   -2.0317    5.9684 C   0  0  0  0  0  0  0  0  0  0  0  0
   -4.9221   -2.8894    6.0608 C   0  0  0  0  0  0  0  0  0  0  0  0
   -4.1536   -3.3167    7.4948 S   0  0  0  0  0  0  0  0  0  0  0  0
   -2.9722   -4.2782    6.7803 C   0  0  0  0  0  0  0  0  0  0  0  0
   -1.8425   -4.9287    7.5221 C   0  0  0  0  0  0  0  0  0  0  0  0
   -0.6462   -3.9864    7.6168 C   0  0  0  0  0  0  0  0  0  0  0  0
   -3.1555   -4.2612    5.3980 C   0  0  0  0  0  0  0  0  0  0  0  0
   -2.1033   -5.1085    4.2685 Cl  0  0  0  0  0  0  0  0  0  0  0  0
   -4.2532   -3.4882    4.9961 C   0  0  0  0  0  0  0  0  0  0  0  0
   -4.6973   -3.2525    3.3114 Cl  0  0  0  0  0  0  0  0  0  0  0  0
   -7.3371   -2.5401    5.5002 C   0  0  0  0  0  0  0  0  0  0  0  0
   -8.4884   -1.7623    5.3735 C   0  0  0  0  0  0  0  0  0  0  0  0
   -8.4552   -0.3877    5.7077 C   0  0  0  0  0  0  0  0  0  0  0  0
   -9.6412    0.4727    5.5667 C   0  0  0  0  0  0  0  0  0  0  0  0
  -10.3687    0.8702    4.1036 S   0  0  0  0  0  0  0  0  0  0  0  0
  -11.6292    1.7692    4.7697 C   0  0  0  0  0  0  0  0  0  0  0  0
  -12.7652    2.3495    3.9747 C   0  0  0  0  0  0  0  0  0  0  0  0
  -13.7862    1.2720    3.6344 C   0  0  0  0  0  0  0  0  0  0  0  0
  -11.5097    1.7427    6.1571 C   0  0  0  0  0  0  0  0  0  0  0  0
  -10.3885    1.0244    6.6022 C   0  0  0  0  0  0  0  0  0  0  0  0
  -10.0070    0.7883    8.3030 Cl  0  0  0  0  0  0  0  0  0  0  0  0
  -12.6643    2.4959    7.2485 Cl  0  0  0  0  0  0  0  0  0  0  0  0
   -7.2326    0.1256    6.1880 C   0  0  0  0  0  0  0  0  0  0  0  0
   -6.8433    1.7184    6.6054 S   0  0  0  0  0  0  0  0  0  0  0  0
   -9.6075   -2.5026    4.9453 C   0  0  0  0  0  0  0  0  0  0  0  0
   -9.3259   -3.8595    4.7377 C   0  0  0  0  0  0  0  0  0  0  0  0
   -7.6935   -4.1240    5.0892 S   0  0  0  0  0  0  0  0  0  0  0  0
  -10.2845   -4.9325    4.3644 C   0  0  0  0  0  0  0  0  0  0  0  0
  -11.6085   -4.6266    3.9429 C   0  0  0  0  0  0  0  0  0  0  0  0
  -12.5264   -5.6492    3.6370 C   0  0  0  0  0  0  0  0  0  0  0  0
  -12.0922   -6.9658    3.7541 C   0  0  0  0  0  0  0  0  0  0  0  0
  -10.8130   -7.2778    4.1508 C   0  0  0  0  0  0  0  0  0  0  0  0
   -9.8883   -6.2899    4.4564 C   0  0  0  0  0  0  0  0  0  0  0  0
  -10.6304   -8.5807    4.2093 O   0  0  0  0  0  0  0  0  0  0  0  0
  -11.7748   -9.1327    3.8637 C   0  0  0  0  0  0  0  0  0  0  0  0
  -12.7215   -8.1725    3.5673 C   0  0  0  0  0  0  0  0  0  0  0  0
  -14.0199   -8.5055    3.1960 C   0  0  0  0  0  0  0  0  0  0  0  0
  -14.3456   -9.8719    3.1278 C   0  0  0  0  0  0  0  0  0  0  0  0
  -13.3776  -10.8592    3.4205 C   0  0  0  0  0  0  0  0  0  0  0  0
  -12.0738  -10.4905    3.7961 C   0  0  0  0  0  0  0  0  0  0  0  0
    4.7259   -4.0551  -15.4232 H   0  0  0  0  0  0  0  0  0  0  0  0
    5.3884   -1.6067  -14.8196 H   0  0  0  0  0  0  0  0  0  0  0  0
    7.1456    4.0941  -15.1304 H   0  0  0  0  0  0  0  0  0  0  0  0
    8.6916    3.3610  -14.5827 H   0  0  0  0  0  0  0  0  0  0  0  0
    6.7106    4.9379  -12.8101 H   0  0  0  0  0  0  0  0  0  0  0  0
    8.2514    4.1783  -12.2430 H   0  0  0  0  0  0  0  0  0  0  0  0
    8.2947    5.5344  -13.4369 H   0  0  0  0  0  0  0  0  0  0  0  0
    6.5591   -8.7091   -7.5331 H   0  0  0  0  0  0  0  0  0  0  0  0
    8.1529   -8.2016   -8.1908 H   0  0  0  0  0  0  0  0  0  0  0  0
    7.5541   -9.1515  -10.4307 H   0  0  0  0  0  0  0  0  0  0  0  0
    7.4449  -10.3987   -9.1250 H   0  0  0  0  0  0  0  0  0  0  0  0
    5.9416   -9.6613   -9.7841 H   0  0  0  0  0  0  0  0  0  0  0  0
    6.8517   -3.0712   -7.9916 H   0  0  0  0  0  0  0  0  0  0  0  0
    7.4109   -2.2262   -5.7974 H   0  0  0  0  0  0  0  0  0  0  0  0
    7.1016   -6.5193   -1.5057 H   0  0  0  0  0  0  0  0  0  0  0  0
    5.6862   -5.5199   -1.0230 H   0  0  0  0  0  0  0  0  0  0  0  0
    6.2206   -6.6363   -3.8600 H   0  0  0  0  0  0  0  0  0  0  0  0
    5.0234   -7.2596   -2.6600 H   0  0  0  0  0  0  0  0  0  0  0  0
    4.8050   -5.6140   -3.3703 H   0  0  0  0  0  0  0  0  0  0  0  0
   10.4568    7.0142   -4.8386 H   0  0  0  0  0  0  0  0  0  0  0  0
    8.9858    7.7832   -5.5333 H   0  0  0  0  0  0  0  0  0  0  0  0
    9.6387    8.8702   -3.3907 H   0  0  0  0  0  0  0  0  0  0  0  0
    8.0381    8.0569   -3.2123 H   0  0  0  0  0  0  0  0  0  0  0  0
    9.5309    7.2848   -2.5231 H   0  0  0  0  0  0  0  0  0  0  0  0
    7.8884    3.5202   -1.6632 H   0  0  0  0  0  0  0  0  0  0  0  0
    8.6052    4.1798    0.5454 H   0  0  0  0  0  0  0  0  0  0  0  0
    7.6261    5.4912    2.4052 H   0  0  0  0  0  0  0  0  0  0  0  0
    6.0051    0.8388    1.5221 H   0  0  0  0  0  0  0  0  0  0  0  0
    5.9770    6.4637    4.2335 H   0  0  0  0  0  0  0  0  0  0  0  0
    4.0408    6.8567    5.7581 H   0  0  0  0  0  0  0  0  0  0  0  0
    2.8588    2.7036    5.3188 H   0  0  0  0  0  0  0  0  0  0  0  0
    2.2587    3.5464    7.9612 H   0  0  0  0  0  0  0  0  0  0  0  0
    2.2913    0.2810   12.7381 H   0  0  0  0  0  0  0  0  0  0  0  0
    2.3876    2.0597   12.9762 H   0  0  0  0  0  0  0  0  0  0  0  0
   -0.1585    0.3568   13.4209 H   0  0  0  0  0  0  0  0  0  0  0  0
    0.0410    2.1207   13.7831 H   0  0  0  0  0  0  0  0  0  0  0  0
    0.9812    0.8942   14.7138 H   0  0  0  0  0  0  0  0  0  0  0  0
   -2.9736    6.5769    0.9764 H   0  0  0  0  0  0  0  0  0  0  0  0
   -4.3565    7.6072    1.4800 H   0  0  0  0  0  0  0  0  0  0  0  0
   -2.7524    9.3944    2.2353 H   0  0  0  0  0  0  0  0  0  0  0  0
   -2.5334    8.9833    0.4936 H   0  0  0  0  0  0  0  0  0  0  0  0
   -1.3631    8.3509    1.7162 H   0  0  0  0  0  0  0  0  0  0  0  0
   -4.4352    3.8454    5.8620 H   0  0  0  0  0  0  0  0  0  0  0  0
   -4.0034   -0.4121    6.9381 H   0  0  0  0  0  0  0  0  0  0  0  0
   -1.5444   -5.8655    7.0046 H   0  0  0  0  0  0  0  0  0  0  0  0
   -2.1795   -5.2025    8.5457 H   0  0  0  0  0  0  0  0  0  0  0  0
   -0.3341   -3.6498    6.6059 H   0  0  0  0  0  0  0  0  0  0  0  0
    0.2039   -4.5167    8.0965 H   0  0  0  0  0  0  0  0  0  0  0  0
   -0.9042   -3.1043    8.2381 H   0  0  0  0  0  0  0  0  0  0  0  0
  -12.3638    2.7789    3.0313 H   0  0  0  0  0  0  0  0  0  0  0  0
  -13.2545    3.1675    4.5459 H   0  0  0  0  0  0  0  0  0  0  0  0
  -14.1809    0.7980    4.5573 H   0  0  0  0  0  0  0  0  0  0  0  0
  -13.3155    0.4888    2.9993 H   0  0  0  0  0  0  0  0  0  0  0  0
  -14.6321    1.7251    3.0711 H   0  0  0  0  0  0  0  0  0  0  0  0
  -10.5944   -2.0734    4.8388 H   0  0  0  0  0  0  0  0  0  0  0  0
  -11.9426   -3.6018    3.8489 H   0  0  0  0  0  0  0  0  0  0  0  0
  -13.5365   -5.4169    3.3251 H   0  0  0  0  0  0  0  0  0  0  0  0
   -8.8974   -6.5779    4.7811 H   0  0  0  0  0  0  0  0  0  0  0  0
  -14.7526   -7.7413    2.9690 H   0  0  0  0  0  0  0  0  0  0  0  0
  -15.3486  -10.1695    2.8488 H   0  0  0  0  0  0  0  0  0  0  0  0
  -13.6410  -11.9089    3.3586 H   0  0  0  0  0  0  0  0  0  0  0  0
  -11.3256  -11.2391    4.0324 H   0  0  0  0  0  0  0  0  0  0  0  0
  1  2  2  0
  2  3  1  0
  3  4  2  0
  4  5  1  0
  5  6  1  0
  6  7  1  0
  7  8  1  0
  8  9  1  0
  7 10  2  0
 10 11  1  0
 10 12  1  0
 12 13  1  0
  4 14  1  0
 14 15  2  0
 15 16  1  0
 16 17  1  0
 17 18  1  0
 18 19  1  0
 19 20  1  0
 20 21  1  0
 19 22  2  0
 22 23  1  0
 23 24  1  0
 22 25  1  0
 16 26  2  0
 26 27  1  0
 15 28  1  0
 28 29  2  0
 29 30  1  0
 29 31  1  0
 31 32  2  0
 32 33  1  0
 33 34  2  0
 34 35  1  0
 35 36  1  0
 36 37  1  0
 37 38  1  0
 38 39  1  0
 37 40  2  0
 40 41  1  0
 40 42  1  0
 42 43  1  0
 34 44  1  0
 44 45  2  0
 45 46  1  0
 46 47  1  0
 47 48  1  0
 48 49  1  0
 49 50  1  0
 50 51  1  0
 49 52  2  0
 52 53  1  0
 53 54  1  0
 52 55  1  0
 46 56  2  0
 56 57  1  0
 45 58  1  0
 58 59  2  0
 59 60  1  0
 59 61  1  0
 61 62  2  0
 62 63  1  0
 63 64  2  0
 64 65  1  0
 65 66  2  0
 65 67  1  0
 67 68  1  0
 68 69  2  0
 69 70  1  0
 70 71  2  0
 71 72  1  0
 72 73  2  0
 72 74  1  0
 74 75  2  0
 75 76  1  0
 76 77  2  0
 77 78  1  0
 78 79  1  0
 79 80  1  0
 80 81  1  0
 81 82  1  0
 80 83  2  0
 83 84  1  0
 83 85  1  0
 85 86  1  0
 77 87  1  0
 87 88  2  0
 88 89  1  0
 89 90  1  0
 90 91  1  0
 91 92  1  0
 92 93  1  0
 93 94  1  0
 92 95  2  0
 95 96  1  0
 96 97  1  0
 95 98  1  0
 89 99  2  0
 99100  1  0
 88101  1  0
101102  2  0
102103  1  0
102104  1  0
104105  2  0
105106  1  0
106107  2  0
107108  1  0
108109  1  0
109110  1  0
110111  1  0
111112  1  0
110113  2  0
113114  1  0
113115  1  0
115116  1  0
107117  1  0
117118  2  0
118119  1  0
119120  1  0
120121  1  0
121122  1  0
122123  1  0
123124  1  0
122125  2  0
125126  1  0
126127  1  0
125128  1  0
119129  2  0
129130  1  0
118131  1  0
131132  2  0
132133  1  0
132134  1  0
134135  2  0
135136  1  0
136137  2  0
137138  1  0
138139  2  0
138140  1  0
140141  1  0
141142  2  0
142143  1  0
143144  2  0
144145  1  0
145146  2  0
 27  1  1  0
 57 31  1  0
 66 61  1  0
 73 68  1  0
100 74  1  0
130104  1  0
139134  1  0
146141  1  0
 26  3  1  0
 56 33  1  0
 69 64  1  0
 99 76  1  0
129106  1  0
142137  1  0
 12  5  2  0
 30 14  1  0
 42 35  2  0
 60 44  1  0
 85 78  2  0
103 87  1  0
115108  2  0
133117  1  0
 23 17  2  0
 53 47  2  0
 96 90  2  0
126120  2  0
  1147  1  0
  2148  1  0
  8149  1  0
  8150  1  0
  9151  1  0
  9152  1  0
  9153  1  0
 20154  1  0
 20155  1  0
 21156  1  0
 21157  1  0
 21158  1  0
 28159  1  0
 32160  1  0
 38161  1  0
 38162  1  0
 39163  1  0
 39164  1  0
 39165  1  0
 50166  1  0
 50167  1  0
 51168  1  0
 51169  1  0
 51170  1  0
 58171  1  0
 62172  1  0
 63173  1  0
 66174  1  0
 70175  1  0
 71176  1  0
 73177  1  0
 75178  1  0
 81179  1  0
 81180  1  0
 82181  1  0
 82182  1  0
 82183  1  0
 93184  1  0
 93185  1  0
 94186  1  0
 94187  1  0
 94188  1  0
101189  1  0
105190  1  0
111191  1  0
111192  1  0
112193  1  0
112194  1  0
112195  1  0
123196  1  0
123197  1  0
124198  1  0
124199  1  0
124200  1  0
131201  1  0
135202  1  0
136203  1  0
139204  1  0
143205  1  0
144206  1  0
145207  1  0
146208  1  0
M  END

