
     RDKit          3D

243270  0  0  0  0  0  0  0  0999 V2000
    2.0227   -5.3380    9.8159 C   0  0  0  0  0  0  0  0  0  0  0  0
    1.2107   -4.2467   10.0927 C   0  0  0  0  0  0  0  0  0  0  0  0
    0.0875   -4.1589    9.2306 C   0  0  0  0  0  0  0  0  0  0  0  0
   -0.8920   -3.1489    9.2396 C   0  0  0  0  0  0  0  0  0  0  0  0
   -0.6570   -1.7895    9.7849 C   0  0  0  0  0  0  0  0  0  0  0  0
   -0.1358   -1.4192   11.3492 S   0  0  0  0  0  0  0  0  0  0  0  0
    0.1790    0.2053   11.0893 C   0  0  0  0  0  0  0  0  0  0  0  0
    0.9480    1.0648   12.0706 C   0  0  0  0  0  0  0  0  0  0  0  0
    2.3489    1.4268   11.5486 C   0  0  0  0  0  0  0  0  0  0  0  0
   -0.0615    0.4843    9.7449 C   0  0  0  0  0  0  0  0  0  0  0  0
    0.2900    2.0329    9.0030 Cl  0  0  0  0  0  0  0  0  0  0  0  0
   -0.4869   -0.6347    9.0061 C   0  0  0  0  0  0  0  0  0  0  0  0
   -0.3873   -0.6682    7.2411 Cl  0  0  0  0  0  0  0  0  0  0  0  0
   -1.9878   -3.3421    8.3712 C   0  0  0  0  0  0  0  0  0  0  0  0
   -2.0805   -4.3880    7.4693 C   0  0  0  0  0  0  0  0  0  0  0  0
   -1.0921   -5.4149    7.4735 C   0  0  0  0  0  0  0  0  0  0  0  0
   -1.4128   -6.7926    7.0422 C   0  0  0  0  0  0  0  0  0  0  0  0
   -2.0292   -7.2604    5.5303 S   0  0  0  0  0  0  0  0  0  0  0  0
   -2.7413   -8.7080    6.0317 C   0  0  0  0  0  0  0  0  0  0  0  0
   -4.0122   -9.2364    5.4059 C   0  0  0  0  0  0  0  0  0  0  0  0
   -5.1005   -8.1770    5.6073 C   0  0  0  0  0  0  0  0  0  0  0  0
   -2.4436   -8.8787    7.3848 C   0  0  0  0  0  0  0  0  0  0  0  0
   -1.7116   -7.8220    7.9489 C   0  0  0  0  0  0  0  0  0  0  0  0
   -1.4604   -7.6785    9.6828 Cl  0  0  0  0  0  0  0  0  0  0  0  0
   -3.1672  -10.1436    8.3753 Cl  0  0  0  0  0  0  0  0  0  0  0  0
    0.0167   -5.2067    8.3158 C   0  0  0  0  0  0  0  0  0  0  0  0
    1.3411   -6.2303    8.5408 S   0  0  0  0  0  0  0  0  0  0  0  0
   -3.2247   -4.3135    6.6507 C   0  0  0  0  0  0  0  0  0  0  0  0
   -4.0319   -3.2139    6.9122 C   0  0  0  0  0  0  0  0  0  0  0  0
   -3.2951   -2.3032    8.1636 S   0  0  0  0  0  0  0  0  0  0  0  0
   -4.8808   -2.5721    5.8811 C   0  0  0  0  0  0  0  0  0  0  0  0
   -4.6835   -1.2642    5.4267 C   0  0  0  0  0  0  0  0  0  0  0  0
   -5.2824   -1.0008    4.1899 C   0  0  0  0  0  0  0  0  0  0  0  0
   -5.1428    0.1743    3.4461 C   0  0  0  0  0  0  0  0  0  0  0  0
   -4.3746    1.3350    3.9403 C   0  0  0  0  0  0  0  0  0  0  0  0
   -2.7061    1.3902    4.1670 S   0  0  0  0  0  0  0  0  0  0  0  0
   -2.6632    2.9842    4.6904 C   0  0  0  0  0  0  0  0  0  0  0  0
   -1.3985    3.7298    5.0172 C   0  0  0  0  0  0  0  0  0  0  0  0
   -0.7293    4.1966    3.7247 C   0  0  0  0  0  0  0  0  0  0  0  0
   -3.9545    3.5045    4.6666 C   0  0  0  0  0  0  0  0  0  0  0  0
   -4.3562    5.1529    5.1244 Cl  0  0  0  0  0  0  0  0  0  0  0  0
   -4.9138    2.5702    4.2562 C   0  0  0  0  0  0  0  0  0  0  0  0
   -6.6271    2.9089    4.2321 Cl  0  0  0  0  0  0  0  0  0  0  0  0
   -5.7313    0.2061    2.1723 C   0  0  0  0  0  0  0  0  0  0  0  0
   -6.4411   -0.8723    1.6415 C   0  0  0  0  0  0  0  0  0  0  0  0
   -6.6387   -2.0364    2.4259 C   0  0  0  0  0  0  0  0  0  0  0  0
   -7.5228   -3.1371    1.9896 C   0  0  0  0  0  0  0  0  0  0  0  0
   -7.3754   -4.0507    0.5704 S   0  0  0  0  0  0  0  0  0  0  0  0
   -8.8056   -4.9127    0.7575 C   0  0  0  0  0  0  0  0  0  0  0  0
   -9.3587   -5.8689   -0.2659 C   0  0  0  0  0  0  0  0  0  0  0  0
   -8.6305   -7.2161   -0.2066 C   0  0  0  0  0  0  0  0  0  0  0  0
   -9.4347   -4.4822    1.9232 C   0  0  0  0  0  0  0  0  0  0  0  0
   -8.7100   -3.4970    2.6198 C   0  0  0  0  0  0  0  0  0  0  0  0
   -9.3262   -2.6567    4.0316 Cl  0  0  0  0  0  0  0  0  0  0  0  0
  -11.0060   -5.0594    2.4525 Cl  0  0  0  0  0  0  0  0  0  0  0  0
   -6.0083   -2.0770    3.6931 C   0  0  0  0  0  0  0  0  0  0  0  0
   -5.8408   -3.3928    4.7486 S   0  0  0  0  0  0  0  0  0  0  0  0
   -6.8321   -0.6733    0.3070 C   0  0  0  0  0  0  0  0  0  0  0  0
   -6.4172    0.5565   -0.1986 C   0  0  0  0  0  0  0  0  0  0  0  0
   -5.5766    1.4004    1.0058 S   0  0  0  0  0  0  0  0  0  0  0  0
   -6.3037    0.9062   -1.6188 C   0  0  0  0  0  0  0  0  0  0  0  0
   -5.7662    0.0453   -2.5781 C   0  0  0  0  0  0  0  0  0  0  0  0
   -5.2957    0.7188   -3.7198 C   0  0  0  0  0  0  0  0  0  0  0  0
   -4.5535    0.1428   -4.7641 C   0  0  0  0  0  0  0  0  0  0  0  0
   -4.2106   -1.2825   -4.7735 C   0  0  0  0  0  0  0  0  0  0  0  0
   -4.7124   -2.3723   -5.9477 S   0  0  0  0  0  0  0  0  0  0  0  0
   -3.6782   -3.6154   -5.4884 C   0  0  0  0  0  0  0  0  0  0  0  0
   -3.5922   -4.9403   -6.1779 C   0  0  0  0  0  0  0  0  0  0  0  0
   -4.6331   -5.9148   -5.6038 C   0  0  0  0  0  0  0  0  0  0  0  0
   -2.9207   -3.1923   -4.3990 C   0  0  0  0  0  0  0  0  0  0  0  0
   -1.6553   -4.1499   -3.6552 Cl  0  0  0  0  0  0  0  0  0  0  0  0
   -3.2112   -1.8687   -4.0142 C   0  0  0  0  0  0  0  0  0  0  0  0
   -2.3308   -1.0288   -2.7483 Cl  0  0  0  0  0  0  0  0  0  0  0  0
   -3.9470    1.0198   -5.6720 C   0  0  0  0  0  0  0  0  0  0  0  0
   -4.1415    2.3969   -5.6310 C   0  0  0  0  0  0  0  0  0  0  0  0
   -5.0005    2.9762   -4.6726 C   0  0  0  0  0  0  0  0  0  0  0  0
   -5.3837    4.3983   -4.7336 C   0  0  0  0  0  0  0  0  0  0  0  0
   -5.4282    5.4617   -3.4251 S   0  0  0  0  0  0  0  0  0  0  0  0
   -6.0864    6.7559   -4.2643 C   0  0  0  0  0  0  0  0  0  0  0  0
   -6.5475    8.0344   -3.6259 C   0  0  0  0  0  0  0  0  0  0  0  0
   -8.0321    7.9418   -3.2862 C   0  0  0  0  0  0  0  0  0  0  0  0
   -6.3056    6.3756   -5.5811 C   0  0  0  0  0  0  0  0  0  0  0  0
   -5.9137    5.0533   -5.8479 C   0  0  0  0  0  0  0  0  0  0  0  0
   -6.1953    4.2746   -7.4086 Cl  0  0  0  0  0  0  0  0  0  0  0  0
   -7.0596    7.3991   -6.7780 Cl  0  0  0  0  0  0  0  0  0  0  0  0
   -5.5076    2.1045   -3.6847 C   0  0  0  0  0  0  0  0  0  0  0  0
   -6.2334    2.4938   -2.2210 S   0  0  0  0  0  0  0  0  0  0  0  0
   -3.2409    3.0841   -6.4715 C   0  0  0  0  0  0  0  0  0  0  0  0
   -2.3176    2.2557   -7.1306 C   0  0  0  0  0  0  0  0  0  0  0  0
   -2.6878    0.6532   -6.7060 S   0  0  0  0  0  0  0  0  0  0  0  0
   -1.0234    2.6832   -7.7182 C   0  0  0  0  0  0  0  0  0  0  0  0
   -0.6685    4.0551   -7.8136 C   0  0  0  0  0  0  0  0  0  0  0  0
    0.6584    4.3973   -8.0922 C   0  0  0  0  0  0  0  0  0  0  0  0
    1.6108    3.4125   -8.2543 C   0  0  0  0  0  0  0  0  0  0  0  0
    1.2857    2.0616   -8.2521 C   0  0  0  0  0  0  0  0  0  0  0  0
   -0.0412    1.7000   -8.0134 C   0  0  0  0  0  0  0  0  0  0  0  0
    2.9208    4.0373   -8.2420 C   0  0  0  0  0  0  0  0  0  0  0  0
    2.7501    5.4032   -8.1094 C   0  0  0  0  0  0  0  0  0  0  0  0
    1.2815    5.7699   -8.0763 C   0  0  0  0  0  0  0  0  0  0  0  0
    0.9325    6.5296   -6.7883 C   0  0  0  0  0  0  0  0  0  0  0  0
    0.8937    6.5464   -9.3357 C   0  0  0  0  0  0  0  0  0  0  0  0
    3.8458    6.2433   -7.8765 C   0  0  0  0  0  0  0  0  0  0  0  0
    5.1264    5.6692   -7.7301 C   0  0  0  0  0  0  0  0  0  0  0  0
    5.2886    4.2780   -7.8964 C   0  0  0  0  0  0  0  0  0  0  0  0
    4.1794    3.4494   -8.1413 C   0  0  0  0  0  0  0  0  0  0  0  0
    6.2557    6.5177   -7.3256 C   0  0  0  0  0  0  0  0  0  0  0  0
    7.0138    6.2919   -6.2452 C   0  0  0  0  0  0  0  0  0  0  0  0
    6.7509    5.2229   -5.2655 C   0  0  0  0  0  0  0  0  0  0  0  0
    5.5011    4.8041   -4.8007 C   0  0  0  0  0  0  0  0  0  0  0  0
    5.5830    3.6808   -3.9608 C   0  0  0  0  0  0  0  0  0  0  0  0
    4.4900    3.0042   -3.3870 C   0  0  0  0  0  0  0  0  0  0  0  0
    3.1282    3.5755   -3.4106 C   0  0  0  0  0  0  0  0  0  0  0  0
    2.7164    5.0373   -2.6723 S   0  0  0  0  0  0  0  0  0  0  0  0
    1.0605    4.8989   -2.9228 C   0  0  0  0  0  0  0  0  0  0  0  0
    0.0468    5.8868   -2.4395 C   0  0  0  0  0  0  0  0  0  0  0  0
   -0.2505    6.9291   -3.5148 C   0  0  0  0  0  0  0  0  0  0  0  0
    0.8091    3.7089   -3.6049 C   0  0  0  0  0  0  0  0  0  0  0  0
   -0.8066    3.1783   -4.0466 Cl  0  0  0  0  0  0  0  0  0  0  0  0
    1.9764    2.9708   -3.8901 C   0  0  0  0  0  0  0  0  0  0  0  0
    1.9673    1.5067   -4.8385 Cl  0  0  0  0  0  0  0  0  0  0  0  0
    4.7873    1.8246   -2.6745 C   0  0  0  0  0  0  0  0  0  0  0  0
    6.0933    1.3668   -2.4716 C   0  0  0  0  0  0  0  0  0  0  0  0
    7.1949    2.0854   -2.9886 C   0  0  0  0  0  0  0  0  0  0  0  0
    8.5913    1.7175   -2.7160 C   0  0  0  0  0  0  0  0  0  0  0  0
    9.7890    1.5381   -3.8979 S   0  0  0  0  0  0  0  0  0  0  0  0
   11.0935    1.4737   -2.8496 C   0  0  0  0  0  0  0  0  0  0  0  0
   12.5297    1.3498   -3.2669 C   0  0  0  0  0  0  0  0  0  0  0  0
   12.9226   -0.1120   -3.4003 C   0  0  0  0  0  0  0  0  0  0  0  0
   10.6125    1.5810   -1.5406 C   0  0  0  0  0  0  0  0  0  0  0  0
    9.2181    1.7388   -1.4773 C   0  0  0  0  0  0  0  0  0  0  0  0
    8.3629    1.9994    0.0480 Cl  0  0  0  0  0  0  0  0  0  0  0  0
   11.6586    1.5857   -0.1285 Cl  0  0  0  0  0  0  0  0  0  0  0  0
    6.8910    3.2276   -3.7605 C   0  0  0  0  0  0  0  0  0  0  0  0
    7.9434    4.2422   -4.5992 S   0  0  0  0  0  0  0  0  0  0  0  0
    6.1397    0.1540   -1.7505 C   0  0  0  0  0  0  0  0  0  0  0  0
    4.8695   -0.3430   -1.4310 C   0  0  0  0  0  0  0  0  0  0  0  0
    3.6918    0.7425   -1.9940 S   0  0  0  0  0  0  0  0  0  0  0  0
    4.5607   -1.6509   -0.8321 C   0  0  0  0  0  0  0  0  0  0  0  0
    5.0941   -2.1601    0.3456 C   0  0  0  0  0  0  0  0  0  0  0  0
    4.5435   -3.4128    0.6783 C   0  0  0  0  0  0  0  0  0  0  0  0
    4.8229   -4.1621    1.8357 C   0  0  0  0  0  0  0  0  0  0  0  0
    5.7584   -3.7119    2.8840 C   0  0  0  0  0  0  0  0  0  0  0  0
    5.3357   -3.4697    4.4995 S   0  0  0  0  0  0  0  0  0  0  0  0
    6.9027   -3.2657    5.0597 C   0  0  0  0  0  0  0  0  0  0  0  0
    7.2578   -3.0477    6.4977 C   0  0  0  0  0  0  0  0  0  0  0  0
    7.1925   -1.5620    6.8620 C   0  0  0  0  0  0  0  0  0  0  0  0
    7.7883   -3.3959    3.9889 C   0  0  0  0  0  0  0  0  0  0  0  0
    9.5328   -3.3167    4.1498 Cl  0  0  0  0  0  0  0  0  0  0  0  0
    7.1418   -3.6520    2.7642 C   0  0  0  0  0  0  0  0  0  0  0  0
    8.0003   -3.9928    1.2706 Cl  0  0  0  0  0  0  0  0  0  0  0  0
    4.1771   -5.4024    1.9687 C   0  0  0  0  0  0  0  0  0  0  0  0
    3.2863   -5.8930    1.0093 C   0  0  0  0  0  0  0  0  0  0  0  0
    2.9771   -5.1255   -0.1319 C   0  0  0  0  0  0  0  0  0  0  0  0
    2.1117   -5.6450   -1.2013 C   0  0  0  0  0  0  0  0  0  0  0  0
    0.5144   -6.1470   -1.0097 S   0  0  0  0  0  0  0  0  0  0  0  0
    0.3147   -6.7314   -2.5770 C   0  0  0  0  0  0  0  0  0  0  0  0
   -0.9026   -7.4602   -3.0523 C   0  0  0  0  0  0  0  0  0  0  0  0
   -0.7771   -8.9624   -2.7640 C   0  0  0  0  0  0  0  0  0  0  0  0
    1.5112   -6.5500   -3.2698 C   0  0  0  0  0  0  0  0  0  0  0  0
    2.5147   -5.9450   -2.5028 C   0  0  0  0  0  0  0  0  0  0  0  0
    4.1495   -5.6996   -3.0791 Cl  0  0  0  0  0  0  0  0  0  0  0  0
    1.7542   -7.1061   -4.9202 Cl  0  0  0  0  0  0  0  0  0  0  0  0
    3.6290   -3.8848   -0.2572 C   0  0  0  0  0  0  0  0  0  0  0  0
    3.4547   -2.7391   -1.4829 S   0  0  0  0  0  0  0  0  0  0  0  0
    2.8197   -7.1872    1.2975 C   0  0  0  0  0  0  0  0  0  0  0  0
    3.3337   -7.7046    2.4763 C   0  0  0  0  0  0  0  0  0  0  0  0
    4.3659   -6.5680    3.1704 S   0  0  0  0  0  0  0  0  0  0  0  0
    2.9093   -5.6233   10.3691 H   0  0  0  0  0  0  0  0  0  0  0  0
    1.3504   -3.6629   10.9950 H   0  0  0  0  0  0  0  0  0  0  0  0
    1.0740    0.5347   13.0456 H   0  0  0  0  0  0  0  0  0  0  0  0
    0.3683    1.9964   12.2745 H   0  0  0  0  0  0  0  0  0  0  0  0
    3.0631    1.5161   12.3911 H   0  0  0  0  0  0  0  0  0  0  0  0
    2.7523    0.6699   10.8373 H   0  0  0  0  0  0  0  0  0  0  0  0
    2.3124    2.4225   11.0523 H   0  0  0  0  0  0  0  0  0  0  0  0
   -4.3587  -10.2022    5.8775 H   0  0  0  0  0  0  0  0  0  0  0  0
   -3.8390   -9.4329    4.3313 H   0  0  0  0  0  0  0  0  0  0  0  0
   -6.1185   -8.6456    5.5996 H   0  0  0  0  0  0  0  0  0  0  0  0
   -4.9991   -7.4506    4.7657 H   0  0  0  0  0  0  0  0  0  0  0  0
   -4.9552   -7.6241    6.5641 H   0  0  0  0  0  0  0  0  0  0  0  0
   -3.4022   -4.9369    5.7885 H   0  0  0  0  0  0  0  0  0  0  0  0
   -4.0474   -0.5542    5.9483 H   0  0  0  0  0  0  0  0  0  0  0  0
   -0.7126    3.0607    5.5773 H   0  0  0  0  0  0  0  0  0  0  0  0
   -1.6203    4.6123    5.6574 H   0  0  0  0  0  0  0  0  0  0  0  0
   -0.5147    3.3275    3.0693 H   0  0  0  0  0  0  0  0  0  0  0  0
    0.2185    4.7259    3.9609 H   0  0  0  0  0  0  0  0  0  0  0  0
   -1.4112    4.8817    3.1761 H   0  0  0  0  0  0  0  0  0  0  0  0
  -10.4415   -6.0289   -0.0862 H   0  0  0  0  0  0  0  0  0  0  0  0
   -9.2464   -5.4311   -1.2806 H   0  0  0  0  0  0  0  0  0  0  0  0
   -8.5570   -7.5806    0.8409 H   0  0  0  0  0  0  0  0  0  0  0  0
   -9.1905   -7.9597   -0.8077 H   0  0  0  0  0  0  0  0  0  0  0  0
   -7.6098   -7.1206   -0.6311 H   0  0  0  0  0  0  0  0  0  0  0  0
   -7.3171   -1.4003   -0.3064 H   0  0  0  0  0  0  0  0  0  0  0  0
   -5.5998   -1.0082   -2.3890 H   0  0  0  0  0  0  0  0  0  0  0  0
   -2.5803   -5.3783   -6.0565 H   0  0  0  0  0  0  0  0  0  0  0  0
   -3.7949   -4.8020   -7.2590 H   0  0  0  0  0  0  0  0  0  0  0  0
   -4.3953   -6.1402   -4.5452 H   0  0  0  0  0  0  0  0  0  0  0  0
   -4.6100   -6.8625   -6.1777 H   0  0  0  0  0  0  0  0  0  0  0  0
   -5.6513   -5.4836   -5.6465 H   0  0  0  0  0  0  0  0  0  0  0  0
   -6.3703    8.8814   -4.3200 H   0  0  0  0  0  0  0  0  0  0  0  0
   -5.9706    8.2237   -2.6953 H   0  0  0  0  0  0  0  0  0  0  0  0
   -8.2032    7.1131   -2.5618 H   0  0  0  0  0  0  0  0  0  0  0  0
   -8.3791    8.9006   -2.8419 H   0  0  0  0  0  0  0  0  0  0  0  0
   -8.6120    7.7511   -4.2153 H   0  0  0  0  0  0  0  0  0  0  0  0
   -3.1906    4.1606   -6.4826 H   0  0  0  0  0  0  0  0  0  0  0  0
   -1.3858    4.8248   -7.6130 H   0  0  0  0  0  0  0  0  0  0  0  0
    2.0434    1.3032   -8.3848 H   0  0  0  0  0  0  0  0  0  0  0  0
   -0.2749    0.6473   -7.9661 H   0  0  0  0  0  0  0  0  0  0  0  0
   -0.1499    6.7306   -6.7394 H   0  0  0  0  0  0  0  0  0  0  0  0
    1.4588    7.5009   -6.7552 H   0  0  0  0  0  0  0  0  0  0  0  0
    1.2357    5.9359   -5.9039 H   0  0  0  0  0  0  0  0  0  0  0  0
    1.2241    5.9792  -10.2445 H   0  0  0  0  0  0  0  0  0  0  0  0
   -0.2124    6.6752   -9.3863 H   0  0  0  0  0  0  0  0  0  0  0  0
    1.3824    7.5442   -9.3487 H   0  0  0  0  0  0  0  0  0  0  0  0
    3.7047    7.3043   -7.7372 H   0  0  0  0  0  0  0  0  0  0  0  0
    6.2665    3.8260   -7.7766 H   0  0  0  0  0  0  0  0  0  0  0  0
    4.3050    2.3767   -8.1871 H   0  0  0  0  0  0  0  0  0  0  0  0
    6.4844    7.3845   -7.9437 H   0  0  0  0  0  0  0  0  0  0  0  0
    7.8872    6.9141   -6.0783 H   0  0  0  0  0  0  0  0  0  0  0  0
    4.5759    5.2747   -5.0937 H   0  0  0  0  0  0  0  0  0  0  0  0
    0.4072    6.3856   -1.5217 H   0  0  0  0  0  0  0  0  0  0  0  0
   -0.8926    5.3536   -2.1840 H   0  0  0  0  0  0  0  0  0  0  0  0
   -0.9666    7.6821   -3.1188 H   0  0  0  0  0  0  0  0  0  0  0  0
   -0.7158    6.4335   -4.3950 H   0  0  0  0  0  0  0  0  0  0  0  0
    0.6834    7.4512   -3.8323 H   0  0  0  0  0  0  0  0  0  0  0  0
   12.6789    1.8685   -4.2411 H   0  0  0  0  0  0  0  0  0  0  0  0
   13.1873    1.8544   -2.5217 H   0  0  0  0  0  0  0  0  0  0  0  0
   12.7775   -0.6377   -2.4306 H   0  0  0  0  0  0  0  0  0  0  0  0
   13.9940   -0.1820   -3.6843 H   0  0  0  0  0  0  0  0  0  0  0  0
   12.3108   -0.6092   -4.1867 H   0  0  0  0  0  0  0  0  0  0  0  0
    7.0576   -0.3701   -1.5247 H   0  0  0  0  0  0  0  0  0  0  0  0
    5.8135   -1.6385    0.9573 H   0  0  0  0  0  0  0  0  0  0  0  0
    6.5638   -3.6122    7.1548 H   0  0  0  0  0  0  0  0  0  0  0  0
    8.2776   -3.4299    6.6991 H   0  0  0  0  0  0  0  0  0  0  0  0
    7.9764   -1.0021    6.3117 H   0  0  0  0  0  0  0  0  0  0  0  0
    7.3536   -1.4367    7.9502 H   0  0  0  0  0  0  0  0  0  0  0  0
    6.1902   -1.1481    6.5971 H   0  0  0  0  0  0  0  0  0  0  0  0
   -1.0283   -7.3146   -4.1449 H   0  0  0  0  0  0  0  0  0  0  0  0
   -1.8008   -7.0496   -2.5465 H   0  0  0  0  0  0  0  0  0  0  0  0
   -1.7031   -9.4750   -3.0862 H   0  0  0  0  0  0  0  0  0  0  0  0
    0.0759   -9.3930   -3.3276 H   0  0  0  0  0  0  0  0  0  0  0  0
   -0.6230   -9.1489   -1.6782 H   0  0  0  0  0  0  0  0  0  0  0  0
    2.1478   -7.7453    0.6590 H   0  0  0  0  0  0  0  0  0  0  0  0
    3.1286   -8.6877    2.8693 H   0  0  0  0  0  0  0  0  0  0  0  0
  1  2  2  0
  2  3  1  0
  3  4  2  0
  4  5  1  0
  5  6  1  0
  6  7  1  0
  7  8  1  0
  8  9  1  0
  7 10  2  0
 10 11  1  0
 10 12  1  0
 12 13  1  0
  4 14  1  0
 14 15  2  0
 15 16  1  0
 16 17  1  0
 17 18  1  0
 18 19  1  0
 19 20  1  0
 20 21  1  0
 19 22  2  0
 22 23  1  0
 23 24  1  0
 22 25  1  0
 16 26  2  0
 26 27  1  0
 15 28  1  0
 28 29  2  0
 29 30  1  0
 29 31  1  0
 31 32  2  0
 32 33  1  0
 33 34  2  0
 34 35  1  0
 35 36  1  0
 36 37  1  0
 37 38  1  0
 38 39  1  0
 37 40  2  0
 40 41  1  0
 40 42  1  0
 42 43  1  0
 34 44  1  0
 44 45  2  0
 45 46  1  0
 46 47  1  0
 47 48  1  0
 48 49  1  0
 49 50  1  0
 50 51  1  0
 49 52  2  0
 52 53  1  0
 53 54  1  0
 52 55  1  0
 46 56  2  0
 56 57  1  0
 45 58  1  0
 58 59  2  0
 59 60  1  0
 59 61  1  0
 61 62  2  0
 62 63  1  0
 63 64  2  0
 64 65  1  0
 65 66  1  0
 66 67  1  0
 67 68  1  0
 68 69  1  0
 67 70  2  0
 70 71  1  0
 70 72  1  0
 72 73  1  0
 64 74  1  0
 74 75  2  0
 75 76  1  0
 76 77  1  0
 77 78  1  0
 78 79  1  0
 79 80  1  0
 80 81  1  0
 79 82  2  0
 82 83  1  0
 83 84  1  0
 82 85  1  0
 76 86  2  0
 86 87  1  0
 75 88  1  0
 88 89  2  0
 89 90  1  0
 89 91  1  0
 91 92  2  0
 92 93  1  0
 93 94  2  0
 94 95  1  0
 95 96  2  0
 94 97  1  0
 97 98  2  0
 98 99  1  0
 99100  1  0
 99101  1  0
 98102  1  0
102103  2  0
103104  1  0
104105  2  0
103106  1  0
106107  2  3
107108  1  0
108109  2  0
109110  1  0
110111  2  0
111112  1  0
112113  1  0
113114  1  0
114115  1  0
115116  1  0
114117  2  0
117118  1  0
117119  1  0
119120  1  0
111121  1  0
121122  2  0
122123  1  0
123124  1  0
124125  1  0
125126  1  0
126127  1  0
127128  1  0
126129  2  0
129130  1  0
130131  1  0
129132  1  0
123133  2  0
133134  1  0
122135  1  0
135136  2  0
136137  1  0
136138  1  0
138139  2  0
139140  1  0
140141  2  0
141142  1  0
142143  1  0
143144  1  0
144145  1  0
145146  1  0
144147  2  0
147148  1  0
147149  1  0
149150  1  0
141151  1  0
151152  2  0
152153  1  0
153154  1  0
154155  1  0
155156  1  0
156157  1  0
157158  1  0
156159  2  0
159160  1  0
160161  1  0
159162  1  0
153163  2  0
163164  1  0
152165  1  0
165166  2  0
166167  1  0
 27  1  1  0
 57 31  1  0
 87 61  1  0
 96 91  1  0
105 97  1  0
134108  1  0
164138  1  0
 26  3  1  0
 56 33  1  0
 86 63  1  0
 99 93  1  0
133110  1  0
163140  1  0
 12  5  2  0
 30 14  1  0
 42 35  2  0
 60 44  1  0
 72 65  2  0
 90 74  1  0
119112  2  0
137121  1  0
149142  2  0
167151  1  0
 23 17  2  0
 53 47  2  0
 83 77  2  0
130124  2  0
160154  2  0
  1168  1  0
  2169  1  0
  8170  1  0
  8171  1  0
  9172  1  0
  9173  1  0
  9174  1  0
 20175  1  0
 20176  1  0
 21177  1  0
 21178  1  0
 21179  1  0
 28180  1  0
 32181  1  0
 38182  1  0
 38183  1  0
 39184  1  0
 39185  1  0
 39186  1  0
 50187  1  0
 50188  1  0
 51189  1  0
 51190  1  0
 51191  1  0
 58192  1  0
 62193  1  0
 68194  1  0
 68195  1  0
 69196  1  0
 69197  1  0
 69198  1  0
 80199  1  0
 80200  1  0
 81201  1  0
 81202  1  0
 81203  1  0
 88204  1  0
 92205  1  0
 95206  1  0
 96207  1  0
100208  1  0
100209  1  0
100210  1  0
101211  1  0
101212  1  0
101213  1  0
102214  1  0
104215  1  0
105216  1  0
106217  1  0
107218  1  0
109219  1  0
115220  1  0
115221  1  0
116222  1  0
116223  1  0
116224  1  0
127225  1  0
127226  1  0
128227  1  0
128228  1  0
128229  1  0
135230  1  0
139231  1  0
145232  1  0
145233  1  0
146234  1  0
146235  1  0
146236  1  0
157237  1  0
157238  1  0
158239  1  0
158240  1  0
158241  1  0
165242  1  0
166243  1  0
M  END

