
     RDKit          3D

232253  0  0  0  0  0  0  0  0999 V2000
    3.9920   -4.4782    9.3089 C   0  0  0  0  0  0  0  0  0  0  0  0
    3.6291   -3.3734    8.5432 C   0  0  0  0  0  0  0  0  0  0  0  0
    2.9070   -3.7204    7.3896 C   0  0  0  0  0  0  0  0  0  0  0  0
    2.4069   -2.8295    6.4249 C   0  0  0  0  0  0  0  0  0  0  0  0
    2.5876   -1.3715    6.5346 C   0  0  0  0  0  0  0  0  0  0  0  0
    3.6433   -0.7391    5.8626 C   0  0  0  0  0  0  0  0  0  0  0  0
    3.7605    0.6533    5.8929 C   0  0  0  0  0  0  0  0  0  0  0  0
    2.8320    1.4219    6.6074 C   0  0  0  0  0  0  0  0  0  0  0  0
    2.9170    3.2156    6.5446 S   0  0  0  0  0  0  0  0  0  0  0  0
    4.0293    3.3926    7.9847 C   0  0  0  0  0  0  0  0  0  0  0  0
    3.6987    4.6832    8.7252 C   0  0  0  0  0  0  0  0  0  0  0  0
    1.7906    0.7893    7.3020 C   0  0  0  0  0  0  0  0  0  0  0  0
    0.8744    1.5244    7.9815 F   0  0  0  0  0  0  0  0  0  0  0  0
    1.6707   -0.6033    7.2661 C   0  0  0  0  0  0  0  0  0  0  0  0
    1.7118   -3.3898    5.3430 C   0  0  0  0  0  0  0  0  0  0  0  0
    1.5358   -4.7684    5.1841 C   0  0  0  0  0  0  0  0  0  0  0  0
    2.0254   -5.6627    6.1603 C   0  0  0  0  0  0  0  0  0  0  0  0
    1.7932   -7.1154    6.0759 C   0  0  0  0  0  0  0  0  0  0  0  0
    0.8832   -7.7273    6.9507 C   0  0  0  0  0  0  0  0  0  0  0  0
    0.6419   -9.1007    6.8622 C   0  0  0  0  0  0  0  0  0  0  0  0
    1.3173   -9.8740    5.9103 C   0  0  0  0  0  0  0  0  0  0  0  0
    0.9668  -11.6328    5.7792 S   0  0  0  0  0  0  0  0  0  0  0  0
    2.3099  -12.1694    6.8960 C   0  0  0  0  0  0  0  0  0  0  0  0
    1.9040  -12.0180    8.3562 C   0  0  0  0  0  0  0  0  0  0  0  0
    2.2300   -9.2647    5.0367 C   0  0  0  0  0  0  0  0  0  0  0  0
    2.4668   -7.8901    5.1233 C   0  0  0  0  0  0  0  0  0  0  0  0
    2.8876  -10.0045    4.1078 F   0  0  0  0  0  0  0  0  0  0  0  0
    2.7075   -5.0986    7.2533 C   0  0  0  0  0  0  0  0  0  0  0  0
    3.4251   -5.8791    8.5559 S   0  0  0  0  0  0  0  0  0  0  0  0
    0.8119   -5.1016    4.0246 C   0  0  0  0  0  0  0  0  0  0  0  0
    0.4017   -3.9770    3.3122 C   0  0  0  0  0  0  0  0  0  0  0  0
    0.9499   -2.5828    4.0863 S   0  0  0  0  0  0  0  0  0  0  0  0
   -0.4470   -3.9502    2.1180 C   0  0  0  0  0  0  0  0  0  0  0  0
   -1.3998   -2.9705    1.8826 C   0  0  0  0  0  0  0  0  0  0  0  0
   -1.8827   -2.9774    0.5722 C   0  0  0  0  0  0  0  0  0  0  0  0
   -2.7847   -2.0457    0.0250 C   0  0  0  0  0  0  0  0  0  0  0  0
   -3.3267   -0.9233    0.8215 C   0  0  0  0  0  0  0  0  0  0  0  0
   -2.4610    0.0450    1.3554 C   0  0  0  0  0  0  0  0  0  0  0  0
   -2.9710    1.1208    2.0811 C   0  0  0  0  0  0  0  0  0  0  0  0
   -4.3486    1.2260    2.3055 C   0  0  0  0  0  0  0  0  0  0  0  0
   -4.9960    2.6124    3.2474 S   0  0  0  0  0  0  0  0  0  0  0  0
   -4.9898    1.7366    4.8521 C   0  0  0  0  0  0  0  0  0  0  0  0
   -3.6072    1.7702    5.4921 C   0  0  0  0  0  0  0  0  0  0  0  0
   -5.2177    0.2619    1.7726 C   0  0  0  0  0  0  0  0  0  0  0  0
   -6.5540    0.3508    1.9837 F   0  0  0  0  0  0  0  0  0  0  0  0
   -4.7088   -0.8019    1.0231 C   0  0  0  0  0  0  0  0  0  0  0  0
   -3.0077   -2.1231   -1.3583 C   0  0  0  0  0  0  0  0  0  0  0  0
   -2.3450   -3.0376   -2.1799 C   0  0  0  0  0  0  0  0  0  0  0  0
   -1.5311   -4.0428   -1.6104 C   0  0  0  0  0  0  0  0  0  0  0  0
   -0.9367   -5.1166   -2.4243 C   0  0  0  0  0  0  0  0  0  0  0  0
   -1.5088   -6.3954   -2.4089 C   0  0  0  0  0  0  0  0  0  0  0  0
   -0.9684   -7.4154   -3.1954 C   0  0  0  0  0  0  0  0  0  0  0  0
    0.1555   -7.1675   -3.9955 C   0  0  0  0  0  0  0  0  0  0  0  0
    0.8535   -8.4910   -4.9924 S   0  0  0  0  0  0  0  0  0  0  0  0
    0.0391   -7.9819   -6.5488 C   0  0  0  0  0  0  0  0  0  0  0  0
   -1.4295   -8.3881   -6.5698 C   0  0  0  0  0  0  0  0  0  0  0  0
    0.7420   -5.8937   -3.9944 C   0  0  0  0  0  0  0  0  0  0  0  0
    0.1892   -4.8688   -3.2207 C   0  0  0  0  0  0  0  0  0  0  0  0
    1.8375   -5.6459   -4.7546 F   0  0  0  0  0  0  0  0  0  0  0  0
   -1.3110   -3.9746   -0.2231 C   0  0  0  0  0  0  0  0  0  0  0  0
   -0.2118   -4.8548    0.7098 S   0  0  0  0  0  0  0  0  0  0  0  0
   -2.4694   -2.7359   -3.5511 C   0  0  0  0  0  0  0  0  0  0  0  0
   -3.2458   -1.5984   -3.7940 C   0  0  0  0  0  0  0  0  0  0  0  0
   -3.7921   -1.0042   -2.3158 S   0  0  0  0  0  0  0  0  0  0  0  0
   -3.0857   -0.7082   -4.9576 C   0  0  0  0  0  0  0  0  0  0  0  0
   -1.8731   -0.4357   -5.4737 N   0  0  0  0  0  0  0  0  0  0  0  0
   -1.9517    0.7539   -6.0963 C   0  0  0  0  0  0  0  0  0  0  0  0
   -3.2421    1.2491   -6.0148 C   0  0  0  0  0  0  0  0  0  0  0  0
   -3.9781    0.2963   -5.3178 C   0  0  0  0  0  0  0  0  0  0  0  0
   -5.3948    0.4246   -4.8498 C   0  0  0  0  0  0  0  0  0  0  0  0
   -3.7018    2.6112   -6.3649 C   0  0  0  0  0  0  0  0  0  0  0  0
   -2.8611    3.6486   -6.4971 C   0  0  0  0  0  0  0  0  0  0  0  0
   -3.3360    5.0555   -6.4880 C   0  0  0  0  0  0  0  0  0  0  0  0
   -4.6152    5.4345   -6.6964 N   0  0  0  0  0  0  0  0  0  0  0  0
   -4.7142    6.7285   -6.3414 C   0  0  0  0  0  0  0  0  0  0  0  0
   -3.4951    7.1897   -5.8828 C   0  0  0  0  0  0  0  0  0  0  0  0
   -2.5959    6.1346   -6.0242 C   0  0  0  0  0  0  0  0  0  0  0  0
   -1.1310    6.1252   -5.7051 C   0  0  0  0  0  0  0  0  0  0  0  0
   -3.2662    8.5287   -5.2925 C   0  0  0  0  0  0  0  0  0  0  0  0
   -2.7486    8.7521   -4.0719 C   0  0  0  0  0  0  0  0  0  0  0  0
   -2.3890    7.6864   -3.1223 C   0  0  0  0  0  0  0  0  0  0  0  0
   -3.1357    6.5396   -2.8605 C   0  0  0  0  0  0  0  0  0  0  0  0
   -2.3961    5.5424   -2.2031 C   0  0  0  0  0  0  0  0  0  0  0  0
   -2.8179    4.2178   -1.9500 C   0  0  0  0  0  0  0  0  0  0  0  0
   -4.2234    3.7748   -2.0981 C   0  0  0  0  0  0  0  0  0  0  0  0
   -4.8992    3.8977   -3.3178 C   0  0  0  0  0  0  0  0  0  0  0  0
   -6.2421    3.5325   -3.4281 C   0  0  0  0  0  0  0  0  0  0  0  0
   -6.9230    3.0197   -2.3192 C   0  0  0  0  0  0  0  0  0  0  0  0
   -8.6554    2.5695   -2.4645 S   0  0  0  0  0  0  0  0  0  0  0  0
   -9.2935    4.1491   -1.8021 C   0  0  0  0  0  0  0  0  0  0  0  0
   -9.2163    5.2602   -2.8436 C   0  0  0  0  0  0  0  0  0  0  0  0
   -6.2464    2.8570   -1.1032 C   0  0  0  0  0  0  0  0  0  0  0  0
   -6.8946    2.3631   -0.0192 F   0  0  0  0  0  0  0  0  0  0  0  0
   -4.9052    3.2358   -0.9927 C   0  0  0  0  0  0  0  0  0  0  0  0
   -1.8262    3.3200   -1.5301 C   0  0  0  0  0  0  0  0  0  0  0  0
   -0.5214    3.7144   -1.2254 C   0  0  0  0  0  0  0  0  0  0  0  0
   -0.1379    5.0679   -1.3361 C   0  0  0  0  0  0  0  0  0  0  0  0
    1.1949    5.5305   -0.8862 C   0  0  0  0  0  0  0  0  0  0  0  0
    2.0524    6.2288   -1.7497 C   0  0  0  0  0  0  0  0  0  0  0  0
    3.2833    6.7033   -1.2842 C   0  0  0  0  0  0  0  0  0  0  0  0
    3.6720    6.4775    0.0428 C   0  0  0  0  0  0  0  0  0  0  0  0
    5.2393    7.1169    0.6389 S   0  0  0  0  0  0  0  0  0  0  0  0
    4.5897    8.7671    1.0827 C   0  0  0  0  0  0  0  0  0  0  0  0
    3.8252    8.7320    2.4017 C   0  0  0  0  0  0  0  0  0  0  0  0
    2.8409    5.7358    0.8923 C   0  0  0  0  0  0  0  0  0  0  0  0
    1.6023    5.2784    0.4339 C   0  0  0  0  0  0  0  0  0  0  0  0
    3.2206    5.4702    2.1674 F   0  0  0  0  0  0  0  0  0  0  0  0
   -1.0904    5.9477   -1.8881 C   0  0  0  0  0  0  0  0  0  0  0  0
   -0.8653    7.5289   -2.4217 S   0  0  0  0  0  0  0  0  0  0  0  0
    0.3425    2.6282   -0.9913 C   0  0  0  0  0  0  0  0  0  0  0  0
   -0.2833    1.3942   -1.1466 C   0  0  0  0  0  0  0  0  0  0  0  0
   -1.8915    1.6463   -1.5709 S   0  0  0  0  0  0  0  0  0  0  0  0
    0.4430    0.1591   -1.4253 C   0  0  0  0  0  0  0  0  0  0  0  0
    0.8243   -0.2309   -2.7031 C   0  0  0  0  0  0  0  0  0  0  0  0
    1.7497   -1.2830   -2.6975 C   0  0  0  0  0  0  0  0  0  0  0  0
    2.3719   -1.8419   -3.8307 C   0  0  0  0  0  0  0  0  0  0  0  0
    2.1166   -1.3416   -5.1964 C   0  0  0  0  0  0  0  0  0  0  0  0
    2.5796   -0.0738   -5.5773 C   0  0  0  0  0  0  0  0  0  0  0  0
    2.4076    0.3747   -6.8894 C   0  0  0  0  0  0  0  0  0  0  0  0
    1.7506   -0.4336   -7.8287 C   0  0  0  0  0  0  0  0  0  0  0  0
    1.6243    0.1122   -9.5409 S   0  0  0  0  0  0  0  0  0  0  0  0
    0.0061    0.9377   -9.3608 C   0  0  0  0  0  0  0  0  0  0  0  0
    0.1742    2.3699   -8.8663 C   0  0  0  0  0  0  0  0  0  0  0  0
    1.2688   -1.6946   -7.4468 C   0  0  0  0  0  0  0  0  0  0  0  0
    0.6372   -2.4906   -8.3478 F   0  0  0  0  0  0  0  0  0  0  0  0
    1.4573   -2.1494   -6.1362 C   0  0  0  0  0  0  0  0  0  0  0  0
    3.3089   -2.8614   -3.5996 C   0  0  0  0  0  0  0  0  0  0  0  0
    3.6300   -3.3167   -2.3173 C   0  0  0  0  0  0  0  0  0  0  0  0
    3.0128   -2.7504   -1.1772 C   0  0  0  0  0  0  0  0  0  0  0  0
    3.3866   -3.1642    0.1933 C   0  0  0  0  0  0  0  0  0  0  0  0
    3.9430   -2.2381    1.0898 C   0  0  0  0  0  0  0  0  0  0  0  0
    4.3881   -2.6557    2.3471 C   0  0  0  0  0  0  0  0  0  0  0  0
    4.2858   -3.9990    2.7205 C   0  0  0  0  0  0  0  0  0  0  0  0
    4.9063   -4.5366    4.3200 S   0  0  0  0  0  0  0  0  0  0  0  0
    6.6223   -4.8094    3.7659 C   0  0  0  0  0  0  0  0  0  0  0  0
    7.5213   -3.7018    4.3017 C   0  0  0  0  0  0  0  0  0  0  0  0
    3.7025   -4.9213    1.8407 C   0  0  0  0  0  0  0  0  0  0  0  0
    3.2555   -4.5054    0.5850 C   0  0  0  0  0  0  0  0  0  0  0  0
    3.5921   -6.2270    2.1854 F   0  0  0  0  0  0  0  0  0  0  0  0
    2.0759   -1.7262   -1.4094 C   0  0  0  0  0  0  0  0  0  0  0  0
    1.2408   -0.7908   -0.2811 S   0  0  0  0  0  0  0  0  0  0  0  0
    4.6414   -4.2949   -2.3253 C   0  0  0  0  0  0  0  0  0  0  0  0
    5.0983   -4.6072   -3.6017 C   0  0  0  0  0  0  0  0  0  0  0  0
    4.2706   -3.6598   -4.7256 S   0  0  0  0  0  0  0  0  0  0  0  0
    4.5533   -4.4452   10.2339 H   0  0  0  0  0  0  0  0  0  0  0  0
    3.8795   -2.3573    8.8224 H   0  0  0  0  0  0  0  0  0  0  0  0
    4.3561   -1.3219    5.2929 H   0  0  0  0  0  0  0  0  0  0  0  0
    4.5624    1.1358    5.3472 H   0  0  0  0  0  0  0  0  0  0  0  0
    5.0791    3.4332    7.6187 H   0  0  0  0  0  0  0  0  0  0  0  0
    3.9310    2.5356    8.6923 H   0  0  0  0  0  0  0  0  0  0  0  0
    2.6901    4.6056    9.1897 H   0  0  0  0  0  0  0  0  0  0  0  0
    4.4516    4.8647    9.5226 H   0  0  0  0  0  0  0  0  0  0  0  0
    3.7073    5.5497    8.0269 H   0  0  0  0  0  0  0  0  0  0  0  0
    0.8471   -1.0829    7.7814 H   0  0  0  0  0  0  0  0  0  0  0  0
    0.3551   -7.1385    7.6911 H   0  0  0  0  0  0  0  0  0  0  0  0
   -0.0748   -9.5614    7.5341 H   0  0  0  0  0  0  0  0  0  0  0  0
    3.2393  -11.5971    6.6976 H   0  0  0  0  0  0  0  0  0  0  0  0
    2.5177  -13.2420    6.6921 H   0  0  0  0  0  0  0  0  0  0  0  0
    1.8366  -10.9448    8.6283 H   0  0  0  0  0  0  0  0  0  0  0  0
    2.6664  -12.4934    9.0057 H   0  0  0  0  0  0  0  0  0  0  0  0
    0.9256  -12.5090    8.5387 H   0  0  0  0  0  0  0  0  0  0  0  0
    3.1823   -7.4302    4.4519 H   0  0  0  0  0  0  0  0  0  0  0  0
    0.5543   -6.1130    3.7378 H   0  0  0  0  0  0  0  0  0  0  0  0
   -1.6930   -2.2480    2.6318 H   0  0  0  0  0  0  0  0  0  0  0  0
   -1.3913   -0.0311    1.2007 H   0  0  0  0  0  0  0  0  0  0  0  0
   -2.2948    1.8699    2.4726 H   0  0  0  0  0  0  0  0  0  0  0  0
   -5.7070    2.2488    5.5268 H   0  0  0  0  0  0  0  0  0  0  0  0
   -5.3274    0.6837    4.7326 H   0  0  0  0  0  0  0  0  0  0  0  0
   -3.2538    2.8203    5.5796 H   0  0  0  0  0  0  0  0  0  0  0  0
   -2.8838    1.1858    4.8862 H   0  0  0  0  0  0  0  0  0  0  0  0
   -3.6562    1.3229    6.5060 H   0  0  0  0  0  0  0  0  0  0  0  0
   -5.3865   -1.5396    0.6107 H   0  0  0  0  0  0  0  0  0  0  0  0
   -2.3816   -6.5980   -1.7975 H   0  0  0  0  0  0  0  0  0  0  0  0
   -1.4249   -8.3979   -3.1867 H   0  0  0  0  0  0  0  0  0  0  0  0
    0.1306   -6.8843   -6.7016 H   0  0  0  0  0  0  0  0  0  0  0  0
    0.5612   -8.4876   -7.3890 H   0  0  0  0  0  0  0  0  0  0  0  0
   -1.5299   -9.4772   -6.3746 H   0  0  0  0  0  0  0  0  0  0  0  0
   -1.9986   -7.8236   -5.8011 H   0  0  0  0  0  0  0  0  0  0  0  0
   -1.8642   -8.1622   -7.5664 H   0  0  0  0  0  0  0  0  0  0  0  0
    0.6291   -3.8832   -3.2398 H   0  0  0  0  0  0  0  0  0  0  0  0
   -1.9140   -3.2451   -4.3262 H   0  0  0  0  0  0  0  0  0  0  0  0
   -0.9925   -0.9733   -5.3041 H   0  0  0  0  0  0  0  0  0  0  0  0
   -1.0924    1.2677   -6.4984 H   0  0  0  0  0  0  0  0  0  0  0  0
   -5.8460   -0.5808   -4.7212 H   0  0  0  0  0  0  0  0  0  0  0  0
   -6.0041    0.9772   -5.5927 H   0  0  0  0  0  0  0  0  0  0  0  0
   -5.4183    0.9559   -3.8816 H   0  0  0  0  0  0  0  0  0  0  0  0
   -4.7658    2.7928   -6.3445 H   0  0  0  0  0  0  0  0  0  0  0  0
   -1.7946    3.4808   -6.4277 H   0  0  0  0  0  0  0  0  0  0  0  0
   -5.4082    4.8403   -7.0213 H   0  0  0  0  0  0  0  0  0  0  0  0
   -5.6389    7.2899   -6.3524 H   0  0  0  0  0  0  0  0  0  0  0  0
   -0.5670    5.7167   -6.5676 H   0  0  0  0  0  0  0  0  0  0  0  0
   -0.9413    5.4869   -4.8203 H   0  0  0  0  0  0  0  0  0  0  0  0
   -0.7597    7.1539   -5.5100 H   0  0  0  0  0  0  0  0  0  0  0  0
   -3.5706    9.3866   -5.8794 H   0  0  0  0  0  0  0  0  0  0  0  0
   -2.5438    9.7751   -3.7778 H   0  0  0  0  0  0  0  0  0  0  0  0
   -4.1511    6.4217   -3.2105 H   0  0  0  0  0  0  0  0  0  0  0  0
   -4.3874    4.2855   -4.1783 H   0  0  0  0  0  0  0  0  0  0  0  0
   -6.7505    3.6439   -4.3785 H   0  0  0  0  0  0  0  0  0  0  0  0
  -10.3575    3.9969   -1.5192 H   0  0  0  0  0  0  0  0  0  0  0  0
   -8.7373    4.4436   -0.8854 H   0  0  0  0  0  0  0  0  0  0  0  0
   -9.7262    4.9434   -3.7799 H   0  0  0  0  0  0  0  0  0  0  0  0
   -9.7186    6.1689   -2.4510 H   0  0  0  0  0  0  0  0  0  0  0  0
   -8.1585    5.5135   -3.0662 H   0  0  0  0  0  0  0  0  0  0  0  0
   -4.4013    3.1298   -0.0389 H   0  0  0  0  0  0  0  0  0  0  0  0
    1.7753    6.3996   -2.7819 H   0  0  0  0  0  0  0  0  0  0  0  0
    3.9332    7.2534   -1.9554 H   0  0  0  0  0  0  0  0  0  0  0  0
    5.4530    9.4568    1.1883 H   0  0  0  0  0  0  0  0  0  0  0  0
    3.9354    9.1604    0.2747 H   0  0  0  0  0  0  0  0  0  0  0  0
    2.8791    8.1660    2.2861 H   0  0  0  0  0  0  0  0  0  0  0  0
    4.4442    8.2596    3.1956 H   0  0  0  0  0  0  0  0  0  0  0  0
    3.5738    9.7670    2.7114 H   0  0  0  0  0  0  0  0  0  0  0  0
    0.9601    4.7268    1.1106 H   0  0  0  0  0  0  0  0  0  0  0  0
    1.4119    2.7302   -0.8598 H   0  0  0  0  0  0  0  0  0  0  0  0
    0.4923    0.2776   -3.5982 H   0  0  0  0  0  0  0  0  0  0  0  0
    3.0991    0.5543   -4.8648 H   0  0  0  0  0  0  0  0  0  0  0  0
    2.7968    1.3413   -7.1797 H   0  0  0  0  0  0  0  0  0  0  0  0
   -0.6564    0.3634   -8.6794 H   0  0  0  0  0  0  0  0  0  0  0  0
   -0.4800    0.9617  -10.3587 H   0  0  0  0  0  0  0  0  0  0  0  0
    0.6358    2.3830   -7.8596 H   0  0  0  0  0  0  0  0  0  0  0  0
    0.8177    2.9435   -9.5670 H   0  0  0  0  0  0  0  0  0  0  0  0
   -0.8193    2.8611   -8.8100 H   0  0  0  0  0  0  0  0  0  0  0  0
    1.0935   -3.1296   -5.8558 H   0  0  0  0  0  0  0  0  0  0  0  0
    4.0718   -1.2021    0.8008 H   0  0  0  0  0  0  0  0  0  0  0  0
    4.8396   -1.9377    3.0165 H   0  0  0  0  0  0  0  0  0  0  0  0
    6.9670   -5.7858    4.1697 H   0  0  0  0  0  0  0  0  0  0  0  0
    6.7098   -4.8467    2.6556 H   0  0  0  0  0  0  0  0  0  0  0  0
    8.5743   -3.9248    4.0359 H   0  0  0  0  0  0  0  0  0  0  0  0
    7.2286   -2.7227    3.8622 H   0  0  0  0  0  0  0  0  0  0  0  0
    7.4348   -3.6469    5.4102 H   0  0  0  0  0  0  0  0  0  0  0  0
    2.8190   -5.2326   -0.0906 H   0  0  0  0  0  0  0  0  0  0  0  0
    5.0557   -4.7507   -1.4357 H   0  0  0  0  0  0  0  0  0  0  0  0
    5.8761   -5.3217   -3.8301 H   0  0  0  0  0  0  0  0  0  0  0  0
  1  2  2  0
  2  3  1  0
  3  4  2  0
  4  5  1  0
  5  6  2  0
  6  7  1  0
  7  8  2  0
  8  9  1  0
  9 10  1  0
 10 11  1  0
  8 12  1  0
 12 13  1  0
 12 14  2  0
  4 15  1  0
 15 16  2  0
 16 17  1  0
 17 18  1  0
 18 19  2  0
 19 20  1  0
 20 21  2  0
 21 22  1  0
 22 23  1  0
 23 24  1  0
 21 25  1  0
 25 26  2  0
 25 27  1  0
 17 28  2  0
 28 29  1  0
 16 30  1  0
 30 31  2  0
 31 32  1  0
 31 33  1  0
 33 34  2  0
 34 35  1  0
 35 36  2  0
 36 37  1  0
 37 38  2  0
 38 39  1  0
 39 40  2  0
 40 41  1  0
 41 42  1  0
 42 43  1  0
 40 44  1  0
 44 45  1  0
 44 46  2  0
 36 47  1  0
 47 48  2  0
 48 49  1  0
 49 50  1  0
 50 51  2  0
 51 52  1  0
 52 53  2  0
 53 54  1  0
 54 55  1  0
 55 56  1  0
 53 57  1  0
 57 58  2  0
 57 59  1  0
 49 60  2  0
 60 61  1  0
 48 62  1  0
 62 63  2  0
 63 64  1  0
 63 65  1  0
 65 66  1  0
 66 67  1  0
 67 68  2  0
 68 69  1  0
 69 70  1  0
 68 71  1  0
 71 72  2  3
 72 73  1  0
 73 74  1  0
 74 75  1  0
 75 76  2  0
 76 77  1  0
 77 78  1  0
 76 79  1  0
 79 80  2  3
 80 81  1  0
 81 82  2  0
 82 83  1  0
 83 84  2  0
 84 85  1  0
 85 86  2  0
 86 87  1  0
 87 88  2  0
 88 89  1  0
 89 90  1  0
 90 91  1  0
 88 92  1  0
 92 93  1  0
 92 94  2  0
 84 95  1  0
 95 96  2  0
 96 97  1  0
 97 98  1  0
 98 99  2  0
 99100  1  0
100101  2  0
101102  1  0
102103  1  0
103104  1  0
101105  1  0
105106  2  0
105107  1  0
 97108  2  0
108109  1  0
 96110  1  0
110111  2  0
111112  1  0
111113  1  0
113114  2  0
114115  1  0
115116  2  0
116117  1  0
117118  2  0
118119  1  0
119120  2  0
120121  1  0
121122  1  0
122123  1  0
120124  1  0
124125  1  0
124126  2  0
116127  1  0
127128  2  0
128129  1  0
129130  1  0
130131  2  0
131132  1  0
132133  2  0
133134  1  0
134135  1  0
135136  1  0
133137  1  0
137138  2  0
137139  1  0
129140  2  0
140141  1  0
128142  1  0
142143  2  0
143144  1  0
 29  1  1  0
 61 33  1  0
 69 65  2  0
 77 73  2  0
109 81  1  0
141113  1  0
 28  3  1  0
 60 35  1  0
108 83  1  0
140115  1  0
 14  5  1  0
 32 15  1  0
 46 37  1  0
 64 47  1  0
 94 85  1  0
112 95  1  0
126117  1  0
144127  1  0
 26 18  1  0
 58 50  1  0
106 98  1  0
138130  1  0
  1145  1  0
  2146  1  0
  6147  1  0
  7148  1  0
 10149  1  0
 10150  1  0
 11151  1  0
 11152  1  0
 11153  1  0
 14154  1  0
 19155  1  0
 20156  1  0
 23157  1  0
 23158  1  0
 24159  1  0
 24160  1  0
 24161  1  0
 26162  1  0
 30163  1  0
 34164  1  0
 38165  1  0
 39166  1  0
 42167  1  0
 42168  1  0
 43169  1  0
 43170  1  0
 43171  1  0
 46172  1  0
 51173  1  0
 52174  1  0
 55175  1  0
 55176  1  0
 56177  1  0
 56178  1  0
 56179  1  0
 58180  1  0
 62181  1  0
 66182  1  0
 67183  1  0
 70184  1  0
 70185  1  0
 70186  1  0
 71187  1  0
 72188  1  0
 74189  1  0
 75190  1  0
 78191  1  0
 78192  1  0
 78193  1  0
 79194  1  0
 80195  1  0
 82196  1  0
 86197  1  0
 87198  1  0
 90199  1  0
 90200  1  0
 91201  1  0
 91202  1  0
 91203  1  0
 94204  1  0
 99205  1  0
100206  1  0
103207  1  0
103208  1  0
104209  1  0
104210  1  0
104211  1  0
106212  1  0
110213  1  0
114214  1  0
118215  1  0
119216  1  0
122217  1  0
122218  1  0
123219  1  0
123220  1  0
123221  1  0
126222  1  0
131223  1  0
132224  1  0
135225  1  0
135226  1  0
136227  1  0
136228  1  0
136229  1  0
138230  1  0
142231  1  0
143232  1  0
M  END

