
     RDKit          3D

280305  0  0  0  0  0  0  0  0999 V2000
    0.0293   -4.0184   10.0799 C   0  0  0  0  0  0  0  0  0  0  0  0
    0.2984   -2.7213    9.6567 C   0  0  0  0  0  0  0  0  0  0  0  0
   -0.4899   -2.3189    8.5637 C   0  0  0  0  0  0  0  0  0  0  0  0
   -0.4606   -1.0574    7.9329 C   0  0  0  0  0  0  0  0  0  0  0  0
    0.5285   -0.0176    8.2996 C   0  0  0  0  0  0  0  0  0  0  0  0
    1.9044   -0.2923    8.2243 C   0  0  0  0  0  0  0  0  0  0  0  0
    2.8397    0.6830    8.5781 C   0  0  0  0  0  0  0  0  0  0  0  0
    2.4124    1.9486    8.9959 C   0  0  0  0  0  0  0  0  0  0  0  0
    3.6261    3.1765    9.4820 S   0  0  0  0  0  0  0  0  0  0  0  0
    3.8161    3.8517    7.7980 C   0  0  0  0  0  0  0  0  0  0  0  0
    4.9539    4.8613    7.7727 C   0  0  0  0  0  0  0  0  0  0  0  0
    1.0412    2.2341    9.0644 C   0  0  0  0  0  0  0  0  0  0  0  0
    0.6118    3.4552    9.4688 F   0  0  0  0  0  0  0  0  0  0  0  0
    0.1058    1.2540    8.7173 C   0  0  0  0  0  0  0  0  0  0  0  0
   -1.4030   -0.8441    6.9103 C   0  0  0  0  0  0  0  0  0  0  0  0
   -2.3115   -1.8278    6.4934 C   0  0  0  0  0  0  0  0  0  0  0  0
   -2.3116   -3.1034    7.0996 C   0  0  0  0  0  0  0  0  0  0  0  0
   -3.2278   -4.1902    6.6706 C   0  0  0  0  0  0  0  0  0  0  0  0
   -4.6177   -4.0083    6.7045 C   0  0  0  0  0  0  0  0  0  0  0  0
   -5.4765   -5.0521    6.3480 C   0  0  0  0  0  0  0  0  0  0  0  0
   -4.9531   -6.2945    5.9691 C   0  0  0  0  0  0  0  0  0  0  0  0
   -6.0754   -7.6532    5.6083 S   0  0  0  0  0  0  0  0  0  0  0  0
   -6.1062   -7.3981    3.7977 C   0  0  0  0  0  0  0  0  0  0  0  0
   -5.3616   -8.5331    3.1098 C   0  0  0  0  0  0  0  0  0  0  0  0
   -3.5651   -6.4833    5.9330 C   0  0  0  0  0  0  0  0  0  0  0  0
   -2.7076   -5.4329    6.2716 C   0  0  0  0  0  0  0  0  0  0  0  0
   -3.0418   -7.6871    5.5898 F   0  0  0  0  0  0  0  0  0  0  0  0
   -1.3871   -3.3052    8.1429 C   0  0  0  0  0  0  0  0  0  0  0  0
   -1.1934   -4.6638    9.1175 S   0  0  0  0  0  0  0  0  0  0  0  0
   -3.1339   -1.4051    5.4338 C   0  0  0  0  0  0  0  0  0  0  0  0
   -2.8739   -0.0936    5.0346 C   0  0  0  0  0  0  0  0  0  0  0  0
   -1.6188    0.5328    5.9716 S   0  0  0  0  0  0  0  0  0  0  0  0
   -3.5525    0.6569    3.9224 C   0  0  0  0  0  0  0  0  0  0  0  0
   -5.0312    1.0076    4.2696 C   0  0  0  0  0  0  0  0  0  0  0  0
   -5.8963    1.1667    2.9943 C   0  0  2  0  0  0  0  0  0  0  0  0
   -5.0542    1.7724    1.8564 C   0  0  1  0  0  0  0  0  0  0  0  0
   -4.0205    0.7187    1.3986 C   0  0  0  0  0  0  0  0  0  0  0  0
   -3.4397   -0.1041    2.5805 C   0  0  0  0  0  0  0  0  0  0  0  0
   -5.7904    2.3225    0.6768 N   0  0  0  0  0  0  0  0  0  0  0  0
   -5.3609    3.7116    0.3558 C   0  0  0  0  0  0  0  0  0  0  0  0
   -3.9463    3.7516   -0.2239 C   0  0  0  0  0  0  0  0  0  0  0  0
   -7.2692    2.1283    0.4928 C   0  0  2  0  0  0  0  0  0  0  0  0
   -8.0585    1.5626    1.6955 C   0  0  1  0  0  0  0  0  0  0  0  0
   -7.3987    2.1589    3.2822 S   0  0  0  0  0  0  0  0  0  0  0  0
   -9.5557    1.8723    1.5124 C   0  0  0  0  0  0  0  0  0  0  0  0
  -10.0040    1.7449    0.0294 C   0  0  0  0  0  0  0  0  0  0  0  0
   -9.0865    0.8333   -0.8235 C   0  0  0  0  0  0  0  0  0  0  0  0
   -7.5673    1.1932   -0.7167 C   0  0  0  0  0  0  0  0  0  0  0  0
   -6.9206    1.6861   -2.0434 C   0  0  0  0  0  0  0  0  0  0  0  0
   -7.5891    2.9297   -2.7182 C   0  0  0  0  0  0  0  0  0  0  0  0
   -7.1517    3.0861   -4.2056 C   0  0  2  0  0  0  0  0  0  0  0  0
   -5.7292    2.5286   -4.4001 C   0  0  1  0  0  0  0  0  0  0  0  0
   -5.7764    0.9883   -4.2172 C   0  0  0  0  0  0  0  0  0  0  0  0
   -6.7271    0.5478   -3.0736 C   0  0  0  0  0  0  0  0  0  0  0  0
   -5.0032    2.8710   -5.6632 N   0  0  0  0  0  0  0  0  0  0  0  0
   -3.6389    3.4054   -5.3644 C   0  0  0  0  0  0  0  0  0  0  0  0
   -2.7180    2.3525   -4.7402 C   0  0  0  0  0  0  0  0  0  0  0  0
   -5.6601    3.6553   -6.7631 C   0  0  2  0  0  0  0  0  0  0  0  0
   -7.0617    4.2419   -6.4909 C   0  0  1  0  0  0  0  0  0  0  0  0
   -7.2396    4.8133   -4.7724 S   0  0  0  0  0  0  0  0  0  0  0  0
   -7.3722    5.3506   -7.5198 C   0  0  0  0  0  0  0  0  0  0  0  0
   -6.7020    5.1206   -8.9041 C   0  0  0  0  0  0  0  0  0  0  0  0
   -6.3308    3.6502   -9.2484 C   0  0  0  0  0  0  0  0  0  0  0  0
   -5.8089    2.8037   -8.0515 C   0  0  0  0  0  0  0  0  0  0  0  0
   -4.5669    2.0054   -8.3669 C   0  0  0  0  0  0  0  0  0  0  0  0
   -3.2880    2.5253   -8.5778 C   0  0  0  0  0  0  0  0  0  0  0  0
   -2.2635    1.6088   -8.2674 C   0  0  0  0  0  0  0  0  0  0  0  0
   -0.9021    1.9294   -8.0698 C   0  0  0  0  0  0  0  0  0  0  0  0
   -0.3694    3.2727   -8.3700 C   0  0  0  0  0  0  0  0  0  0  0  0
   -0.2761    3.7071   -9.6984 C   0  0  0  0  0  0  0  0  0  0  0  0
    0.2821    4.9542   -9.9919 C   0  0  0  0  0  0  0  0  0  0  0  0
    0.7550    5.7753   -8.9601 C   0  0  0  0  0  0  0  0  0  0  0  0
    1.5191    7.3555   -9.3558 S   0  0  0  0  0  0  0  0  0  0  0  0
    3.2426    6.7486   -9.2448 C   0  0  0  0  0  0  0  0  0  0  0  0
    3.6185    5.8971  -10.4522 C   0  0  0  0  0  0  0  0  0  0  0  0
    0.6238    5.3629   -7.6268 C   0  0  0  0  0  0  0  0  0  0  0  0
    1.0556    6.1579   -6.6159 F   0  0  0  0  0  0  0  0  0  0  0  0
    0.0698    4.1125   -7.3344 C   0  0  0  0  0  0  0  0  0  0  0  0
   -0.0996    0.9516   -7.4517 C   0  0  0  0  0  0  0  0  0  0  0  0
   -0.6011   -0.2945   -7.0700 C   0  0  0  0  0  0  0  0  0  0  0  0
   -1.9485   -0.6316   -7.2967 C   0  0  0  0  0  0  0  0  0  0  0  0
   -2.5507   -1.8447   -6.7060 C   0  0  0  0  0  0  0  0  0  0  0  0
   -2.6227   -1.9852   -5.3108 C   0  0  0  0  0  0  0  0  0  0  0  0
   -3.1457   -3.1503   -4.7471 C   0  0  0  0  0  0  0  0  0  0  0  0
   -3.6165   -4.1796   -5.5702 C   0  0  0  0  0  0  0  0  0  0  0  0
   -4.2234   -5.7000   -4.8311 S   0  0  0  0  0  0  0  0  0  0  0  0
   -5.9430   -5.1207   -4.6009 C   0  0  0  0  0  0  0  0  0  0  0  0
   -6.3552   -5.3013   -3.1472 C   0  0  0  0  0  0  0  0  0  0  0  0
   -3.5744   -4.0299   -6.9667 C   0  0  0  0  0  0  0  0  0  0  0  0
   -3.0498   -2.8647   -7.5298 C   0  0  0  0  0  0  0  0  0  0  0  0
   -4.0185   -5.0230   -7.7781 F   0  0  0  0  0  0  0  0  0  0  0  0
   -2.7504    0.3494   -7.8959 C   0  0  0  0  0  0  0  0  0  0  0  0
   -4.4210    0.3925   -7.8990 S   0  0  0  0  0  0  0  0  0  0  0  0
    0.3120   -1.0606   -6.3349 C   0  0  0  0  0  0  0  0  0  0  0  0
    1.5088   -0.3968   -6.0815 C   0  0  0  0  0  0  0  0  0  0  0  0
    1.4641    1.1138   -6.8398 S   0  0  0  0  0  0  0  0  0  0  0  0
    2.4803   -0.8026   -5.0504 C   0  0  0  0  0  0  0  0  0  0  0  0
    2.2533   -1.7921   -4.0965 C   0  0  0  0  0  0  0  0  0  0  0  0
    3.2098   -1.8071   -3.0699 C   0  0  0  0  0  0  0  0  0  0  0  0
    3.1764   -2.6196   -1.9145 C   0  0  0  0  0  0  0  0  0  0  0  0
    2.0332   -3.5180   -1.6234 C   0  0  0  0  0  0  0  0  0  0  0  0
    2.2369   -4.8869   -1.3908 C   0  0  0  0  0  0  0  0  0  0  0  0
    1.1505   -5.7272   -1.1173 C   0  0  0  0  0  0  0  0  0  0  0  0
   -0.1488   -5.2076   -1.0879 C   0  0  0  0  0  0  0  0  0  0  0  0
   -1.5482   -6.2909   -0.7702 S   0  0  0  0  0  0  0  0  0  0  0  0
   -1.5289   -5.9932    1.0300 C   0  0  0  0  0  0  0  0  0  0  0  0
   -2.7820   -6.5787    1.6614 C   0  0  0  0  0  0  0  0  0  0  0  0
   -0.3584   -3.8416   -1.3119 C   0  0  0  0  0  0  0  0  0  0  0  0
   -1.6126   -3.3227   -1.2677 F   0  0  0  0  0  0  0  0  0  0  0  0
    0.7284   -2.9976   -1.5595 C   0  0  0  0  0  0  0  0  0  0  0  0
    4.2274   -2.4526   -0.9968 C   0  0  0  0  0  0  0  0  0  0  0  0
    5.2416   -1.5034   -1.1790 C   0  0  0  0  0  0  0  0  0  0  0  0
    5.2614   -0.6738   -2.3235 C   0  0  0  0  0  0  0  0  0  0  0  0
    6.3001    0.3634   -2.5326 C   0  0  0  0  0  0  0  0  0  0  0  0
    7.0777    0.3533   -3.7027 C   0  0  0  0  0  0  0  0  0  0  0  0
    8.0527    1.3332   -3.9087 C   0  0  0  0  0  0  0  0  0  0  0  0
    8.2610    2.3278   -2.9506 C   0  0  0  0  0  0  0  0  0  0  0  0
    9.5200    3.5808   -3.2242 S   0  0  0  0  0  0  0  0  0  0  0  0
    8.3813    4.7902   -3.9896 C   0  0  0  0  0  0  0  0  0  0  0  0
    8.2695    4.5534   -5.4901 C   0  0  0  0  0  0  0  0  0  0  0  0
    7.5026    2.3348   -1.7731 C   0  0  0  0  0  0  0  0  0  0  0  0
    6.5137    1.3661   -1.5723 C   0  0  0  0  0  0  0  0  0  0  0  0
    7.7133    3.2806   -0.8243 F   0  0  0  0  0  0  0  0  0  0  0  0
    4.2224   -0.8602   -3.2523 C   0  0  0  0  0  0  0  0  0  0  0  0
    3.8895    0.0339   -4.6427 S   0  0  0  0  0  0  0  0  0  0  0  0
    6.1592   -1.4783   -0.1193 C   0  0  0  0  0  0  0  0  0  0  0  0
    5.8585   -2.3875    0.8886 C   0  0  0  0  0  0  0  0  0  0  0  0
    4.4608   -3.2373    0.4780 S   0  0  0  0  0  0  0  0  0  0  0  0
    6.5973   -2.5037    2.1485 C   0  0  0  0  0  0  0  0  0  0  0  0
    6.7825   -3.6651    2.9015 C   0  0  0  0  0  0  0  0  0  0  0  0
    7.6140   -3.4549    4.0211 C   0  0  0  0  0  0  0  0  0  0  0  0
    8.0660   -4.4316    4.9386 C   0  0  0  0  0  0  0  0  0  0  0  0
    7.7301   -5.8675    4.8014 C   0  0  0  0  0  0  0  0  0  0  0  0
    6.4017   -6.3097    4.8986 C   0  0  0  0  0  0  0  0  0  0  0  0
    6.1104   -7.6777    4.8623 C   0  0  0  0  0  0  0  0  0  0  0  0
    7.1428   -8.6161    4.7344 C   0  0  0  0  0  0  0  0  0  0  0  0
    6.7769  -10.3754    4.8032 S   0  0  0  0  0  0  0  0  0  0  0  0
    6.7646  -10.6285    2.9936 C   0  0  0  0  0  0  0  0  0  0  0  0
    5.3869  -10.3363    2.4164 C   0  0  0  0  0  0  0  0  0  0  0  0
    8.4691   -8.1769    4.6183 C   0  0  0  0  0  0  0  0  0  0  0  0
    9.4827   -9.0717    4.5005 F   0  0  0  0  0  0  0  0  0  0  0  0
    8.7584   -6.8114    4.6436 C   0  0  0  0  0  0  0  0  0  0  0  0
    8.9292   -3.9873    5.9596 C   0  0  0  0  0  0  0  0  0  0  0  0
    9.3340   -2.6557    6.0835 C   0  0  0  0  0  0  0  0  0  0  0  0
    8.8949   -1.6871    5.1636 C   0  0  0  0  0  0  0  0  0  0  0  0
    9.2938   -0.2676    5.2565 C   0  0  0  0  0  0  0  0  0  0  0  0
    8.8042    0.5341    6.2994 C   0  0  0  0  0  0  0  0  0  0  0  0
    9.0824    1.9043    6.3202 C   0  0  0  0  0  0  0  0  0  0  0  0
    9.8506    2.4822    5.3001 C   0  0  0  0  0  0  0  0  0  0  0  0
   10.1633    4.2516    5.3069 S   0  0  0  0  0  0  0  0  0  0  0  0
    8.8046    4.6718    4.1559 C   0  0  0  0  0  0  0  0  0  0  0  0
    7.4623    4.7048    4.8765 C   0  0  0  0  0  0  0  0  0  0  0  0
   10.3720    1.6762    4.2796 C   0  0  0  0  0  0  0  0  0  0  0  0
   10.0882    0.3076    4.2559 C   0  0  0  0  0  0  0  0  0  0  0  0
   11.1311    2.2169    3.2949 F   0  0  0  0  0  0  0  0  0  0  0  0
    8.0423   -2.1270    4.1408 C   0  0  0  0  0  0  0  0  0  0  0  0
    7.4270   -1.2276    2.8668 S   0  0  0  0  0  0  0  0  0  0  0  0
   10.2239   -2.4469    7.1493 C   0  0  0  0  0  0  0  0  0  0  0  0
   10.5000   -3.6041    7.8708 C   0  0  0  0  0  0  0  0  0  0  0  0
    9.6503   -4.8882    7.1827 S   0  0  0  0  0  0  0  0  0  0  0  0
    0.5158   -4.5231   10.9030 H   0  0  0  0  0  0  0  0  0  0  0  0
    1.0287   -2.0924   10.1437 H   0  0  0  0  0  0  0  0  0  0  0  0
    2.2523   -1.2622    7.8900 H   0  0  0  0  0  0  0  0  0  0  0  0
    3.8983    0.4563    8.5257 H   0  0  0  0  0  0  0  0  0  0  0  0
    2.8717    4.3520    7.4931 H   0  0  0  0  0  0  0  0  0  0  0  0
    4.0411    3.0312    7.0831 H   0  0  0  0  0  0  0  0  0  0  0  0
    5.0670    5.2751    6.7476 H   0  0  0  0  0  0  0  0  0  0  0  0
    5.9065    4.3698    8.0666 H   0  0  0  0  0  0  0  0  0  0  0  0
    4.7405    5.6952    8.4748 H   0  0  0  0  0  0  0  0  0  0  0  0
   -0.9489    1.4836    8.7892 H   0  0  0  0  0  0  0  0  0  0  0  0
   -5.0403   -3.0660    7.0273 H   0  0  0  0  0  0  0  0  0  0  0  0
   -6.5502   -4.9039    6.3871 H   0  0  0  0  0  0  0  0  0  0  0  0
   -5.6594   -6.4242    3.5042 H   0  0  0  0  0  0  0  0  0  0  0  0
   -7.1642   -7.4037    3.4590 H   0  0  0  0  0  0  0  0  0  0  0  0
   -5.8236   -9.5081    3.3733 H   0  0  0  0  0  0  0  0  0  0  0  0
   -4.2974   -8.5405    3.4257 H   0  0  0  0  0  0  0  0  0  0  0  0
   -5.4082   -8.4001    2.0081 H   0  0  0  0  0  0  0  0  0  0  0  0
   -1.6377   -5.5915    6.2373 H   0  0  0  0  0  0  0  0  0  0  0  0
   -3.8754   -2.0281    4.9565 H   0  0  0  0  0  0  0  0  0  0  0  0
   -2.9961    1.6143    3.7977 H   0  0  0  0  0  0  0  0  0  0  0  0
   -5.4812    0.2111    4.9032 H   0  0  0  0  0  0  0  0  0  0  0  0
   -5.0412    1.9492    4.8587 H   0  0  0  0  0  0  0  0  0  0  0  0
   -6.1852    0.1286    2.7195 H   0  0  0  0  0  0  0  0  0  0  0  0
   -4.4747    2.5966    2.3322 H   0  0  0  0  0  0  0  0  0  0  0  0
   -3.1836    1.2212    0.8687 H   0  0  0  0  0  0  0  0  0  0  0  0
   -4.4976    0.0203    0.6742 H   0  0  0  0  0  0  0  0  0  0  0  0
   -3.9977   -1.0636    2.6596 H   0  0  0  0  0  0  0  0  0  0  0  0
   -2.3774   -0.3558    2.3723 H   0  0  0  0  0  0  0  0  0  0  0  0
   -6.0071    4.1771   -0.4112 H   0  0  0  0  0  0  0  0  0  0  0  0
   -5.4283    4.3660    1.2549 H   0  0  0  0  0  0  0  0  0  0  0  0
   -3.1904    3.5812    0.5687 H   0  0  0  0  0  0  0  0  0  0  0  0
   -3.7483    4.7513   -0.6668 H   0  0  0  0  0  0  0  0  0  0  0  0
   -3.8299    2.9859   -1.0193 H   0  0  0  0  0  0  0  0  0  0  0  0
   -7.7403    3.1128    0.2677 H   0  0  0  0  0  0  0  0  0  0  0  0
   -8.0050    0.4501    1.6935 H   0  0  0  0  0  0  0  0  0  0  0  0
  -10.1500    1.1749    2.1401 H   0  0  0  0  0  0  0  0  0  0  0  0
   -9.7721    2.9036    1.8630 H   0  0  0  0  0  0  0  0  0  0  0  0
  -11.0433    1.3552   -0.0084 H   0  0  0  0  0  0  0  0  0  0  0  0
  -10.0199    2.7551   -0.4360 H   0  0  0  0  0  0  0  0  0  0  0  0
   -9.4378    0.8415   -1.8751 H   0  0  0  0  0  0  0  0  0  0  0  0
   -9.2291   -0.2109   -0.4674 H   0  0  0  0  0  0  0  0  0  0  0  0
   -7.0401    0.2430   -0.4701 H   0  0  0  0  0  0  0  0  0  0  0  0
   -5.8901    1.9764   -1.7612 H   0  0  0  0  0  0  0  0  0  0  0  0
   -7.3139    3.8409   -2.1570 H   0  0  0  0  0  0  0  0  0  0  0  0
   -8.6946    2.8536   -2.6838 H   0  0  0  0  0  0  0  0  0  0  0  0
   -7.8668    2.4652   -4.7914 H   0  0  0  0  0  0  0  0  0  0  0  0
   -5.1517    2.9458   -3.5449 H   0  0  0  0  0  0  0  0  0  0  0  0
   -4.7562    0.6070   -4.0018 H   0  0  0  0  0  0  0  0  0  0  0  0
   -6.1134    0.5155   -5.1650 H   0  0  0  0  0  0  0  0  0  0  0  0
   -7.7149    0.2605   -3.4964 H   0  0  0  0  0  0  0  0  0  0  0  0
   -6.2982   -0.3546   -2.5885 H   0  0  0  0  0  0  0  0  0  0  0  0
   -3.7037    4.2919   -4.6934 H   0  0  0  0  0  0  0  0  0  0  0  0
   -3.1259    3.7491   -6.2846 H   0  0  0  0  0  0  0  0  0  0  0  0
   -2.9706    2.1765   -3.6744 H   0  0  0  0  0  0  0  0  0  0  0  0
   -1.6657    2.7042   -4.7804 H   0  0  0  0  0  0  0  0  0  0  0  0
   -2.7862    1.3982   -5.2936 H   0  0  0  0  0  0  0  0  0  0  0  0
   -5.0118    4.5276   -7.0140 H   0  0  0  0  0  0  0  0  0  0  0  0
   -7.8452    3.4733   -6.6699 H   0  0  0  0  0  0  0  0  0  0  0  0
   -8.4754    5.4285   -7.6467 H   0  0  0  0  0  0  0  0  0  0  0  0
   -7.0233    6.3289   -7.1261 H   0  0  0  0  0  0  0  0  0  0  0  0
   -5.7695    5.7223   -8.9441 H   0  0  0  0  0  0  0  0  0  0  0  0
   -7.3650    5.5186   -9.7031 H   0  0  0  0  0  0  0  0  0  0  0  0
   -5.5811    3.6682  -10.0704 H   0  0  0  0  0  0  0  0  0  0  0  0
   -7.2351    3.1516   -9.6644 H   0  0  0  0  0  0  0  0  0  0  0  0
   -6.5910    2.0363   -7.8449 H   0  0  0  0  0  0  0  0  0  0  0  0
   -3.1095    3.5770   -8.7687 H   0  0  0  0  0  0  0  0  0  0  0  0
   -0.6158    3.0712  -10.5072 H   0  0  0  0  0  0  0  0  0  0  0  0
    0.3652    5.2714  -11.0228 H   0  0  0  0  0  0  0  0  0  0  0  0
    3.3899    6.1652   -8.3105 H   0  0  0  0  0  0  0  0  0  0  0  0
    3.9166    7.6311   -9.2050 H   0  0  0  0  0  0  0  0  0  0  0  0
    3.4207    6.4520  -11.3945 H   0  0  0  0  0  0  0  0  0  0  0  0
    4.6990    5.6449  -10.4047 H   0  0  0  0  0  0  0  0  0  0  0  0
    3.0432    4.9484  -10.4531 H   0  0  0  0  0  0  0  0  0  0  0  0
   -0.0108    3.7949   -6.3027 H   0  0  0  0  0  0  0  0  0  0  0  0
   -2.2549   -1.2013   -4.6600 H   0  0  0  0  0  0  0  0  0  0  0  0
   -3.1807   -3.2580   -3.6681 H   0  0  0  0  0  0  0  0  0  0  0  0
   -6.0677   -4.0530   -4.8840 H   0  0  0  0  0  0  0  0  0  0  0  0
   -6.6070   -5.7315   -5.2478 H   0  0  0  0  0  0  0  0  0  0  0  0
   -6.2217   -6.3594   -2.8344 H   0  0  0  0  0  0  0  0  0  0  0  0
   -5.7406   -4.6464   -2.4940 H   0  0  0  0  0  0  0  0  0  0  0  0
   -7.4244   -5.0256   -3.0261 H   0  0  0  0  0  0  0  0  0  0  0  0
   -3.0064   -2.7635   -8.6082 H   0  0  0  0  0  0  0  0  0  0  0  0
    0.0788   -2.0347   -5.9268 H   0  0  0  0  0  0  0  0  0  0  0  0
    1.3924   -2.4443   -4.1132 H   0  0  0  0  0  0  0  0  0  0  0  0
    3.2353   -5.3061   -1.4267 H   0  0  0  0  0  0  0  0  0  0  0  0
    1.3199   -6.7840   -0.9453 H   0  0  0  0  0  0  0  0  0  0  0  0
   -1.5026   -4.9023    1.2388 H   0  0  0  0  0  0  0  0  0  0  0  0
   -0.6319   -6.4733    1.4763 H   0  0  0  0  0  0  0  0  0  0  0  0
   -2.8225   -7.6746    1.4815 H   0  0  0  0  0  0  0  0  0  0  0  0
   -3.6875   -6.1020    1.2275 H   0  0  0  0  0  0  0  0  0  0  0  0
   -2.7750   -6.3924    2.7575 H   0  0  0  0  0  0  0  0  0  0  0  0
    0.5516   -1.9413   -1.7142 H   0  0  0  0  0  0  0  0  0  0  0  0
    6.9370   -0.4172   -4.4479 H   0  0  0  0  0  0  0  0  0  0  0  0
    8.6470    1.3124   -4.8136 H   0  0  0  0  0  0  0  0  0  0  0  0
    7.3737    4.7481   -3.5208 H   0  0  0  0  0  0  0  0  0  0  0  0
    8.7940    5.8080   -3.8189 H   0  0  0  0  0  0  0  0  0  0  0  0
    9.2763    4.5884   -5.9579 H   0  0  0  0  0  0  0  0  0  0  0  0
    7.6384    5.3462   -5.9435 H   0  0  0  0  0  0  0  0  0  0  0  0
    7.8006    3.5679   -5.6959 H   0  0  0  0  0  0  0  0  0  0  0  0
    5.9185    1.3945   -0.6694 H   0  0  0  0  0  0  0  0  0  0  0  0
    7.0185   -0.8250   -0.0764 H   0  0  0  0  0  0  0  0  0  0  0  0
    6.3702   -4.6261    2.6217 H   0  0  0  0  0  0  0  0  0  0  0  0
    5.5973   -5.5956    5.0322 H   0  0  0  0  0  0  0  0  0  0  0  0
    5.0854   -8.0090    4.9675 H   0  0  0  0  0  0  0  0  0  0  0  0
    7.0186  -11.6915    2.7908 H   0  0  0  0  0  0  0  0  0  0  0  0
    7.5291   -9.9955    2.4951 H   0  0  0  0  0  0  0  0  0  0  0  0
    5.1162   -9.2729    2.5810 H   0  0  0  0  0  0  0  0  0  0  0  0
    4.6256  -10.9883    2.8960 H   0  0  0  0  0  0  0  0  0  0  0  0
    5.3913  -10.5346    1.3239 H   0  0  0  0  0  0  0  0  0  0  0  0
    9.7895   -6.4866    4.5608 H   0  0  0  0  0  0  0  0  0  0  0  0
    8.1848    0.1047    7.0766 H   0  0  0  0  0  0  0  0  0  0  0  0
    8.6841    2.5211    7.1159 H   0  0  0  0  0  0  0  0  0  0  0  0
    9.0079    5.6786    3.7331 H   0  0  0  0  0  0  0  0  0  0  0  0
    8.7662    3.9498    3.3121 H   0  0  0  0  0  0  0  0  0  0  0  0
    7.1915    3.6951    5.2456 H   0  0  0  0  0  0  0  0  0  0  0  0
    6.6714    5.0440    4.1742 H   0  0  0  0  0  0  0  0  0  0  0  0
    7.5060    5.4091    5.7343 H   0  0  0  0  0  0  0  0  0  0  0  0
   10.4749   -0.3020    3.4494 H   0  0  0  0  0  0  0  0  0  0  0  0
   10.6705   -1.4897    7.3857 H   0  0  0  0  0  0  0  0  0  0  0  0
   11.1649   -3.6714    8.7207 H   0  0  0  0  0  0  0  0  0  0  0  0
  1  2  2  0
  2  3  1  0
  3  4  2  0
  4  5  1  0
  5  6  2  0
  6  7  1  0
  7  8  2  0
  8  9  1  0
  9 10  1  0
 10 11  1  0
  8 12  1  0
 12 13  1  0
 12 14  2  0
  4 15  1  0
 15 16  2  0
 16 17  1  0
 17 18  1  0
 18 19  2  0
 19 20  1  0
 20 21  2  0
 21 22  1  0
 22 23  1  0
 23 24  1  0
 21 25  1  0
 25 26  2  0
 25 27  1  0
 17 28  2  0
 28 29  1  0
 16 30  1  0
 30 31  2  0
 31 32  1  0
 31 33  1  0
 33 34  1  0
 34 35  1  0
 35 36  1  0
 36 37  1  0
 37 38  1  0
 36 39  1  0
 39 40  1  0
 40 41  1  0
 39 42  1  0
 42 43  1  0
 43 44  1  0
 43 45  1  0
 45 46  1  0
 46 47  1  0
 47 48  1  0
 48 49  1  0
 49 50  1  0
 50 51  1  0
 51 52  1  0
 52 53  1  0
 53 54  1  0
 52 55  1  0
 55 56  1  0
 56 57  1  0
 55 58  1  0
 58 59  1  0
 59 60  1  0
 59 61  1  0
 61 62  1  0
 62 63  1  0
 63 64  1  0
 64 65  1  0
 65 66  2  0
 66 67  1  0
 67 68  2  0
 68 69  1  0
 69 70  2  0
 70 71  1  0
 71 72  2  0
 72 73  1  0
 73 74  1  0
 74 75  1  0
 72 76  1  0
 76 77  1  0
 76 78  2  0
 68 79  1  0
 79 80  2  0
 80 81  1  0
 81 82  1  0
 82 83  2  0
 83 84  1  0
 84 85  2  0
 85 86  1  0
 86 87  1  0
 87 88  1  0
 85 89  1  0
 89 90  2  0
 89 91  1  0
 81 92  2  0
 92 93  1  0
 80 94  1  0
 94 95  2  0
 95 96  1  0
 95 97  1  0
 97 98  2  0
 98 99  1  0
 99100  2  0
100101  1  0
101102  2  0
102103  1  0
103104  2  0
104105  1  0
105106  1  0
106107  1  0
104108  1  0
108109  1  0
108110  2  0
100111  1  0
111112  2  0
112113  1  0
113114  1  0
114115  2  0
115116  1  0
116117  2  0
117118  1  0
118119  1  0
119120  1  0
117121  1  0
121122  2  0
121123  1  0
113124  2  0
124125  1  0
112126  1  0
126127  2  0
127128  1  0
127129  1  0
129130  2  0
130131  1  0
131132  2  0
132133  1  0
133134  2  0
134135  1  0
135136  2  0
136137  1  0
137138  1  0
138139  1  0
136140  1  0
140141  1  0
140142  2  0
132143  1  0
143144  2  0
144145  1  0
145146  1  0
146147  2  0
147148  1  0
148149  2  0
149150  1  0
150151  1  0
151152  1  0
149153  1  0
153154  2  0
153155  1  0
145156  2  0
156157  1  0
144158  1  0
158159  2  0
159160  1  0
 29  1  1  0
 38 33  1  0
 48 42  1  0
 54 49  1  0
 64 58  1  0
 93 65  1  0
125 97  1  0
157129  1  0
 28  3  1  0
 44 35  1  0
 60 51  1  0
 92 67  1  0
124 99  1  0
156131  1  0
 14  5  1  0
 32 15  1  0
 78 69  1  0
 96 79  1  0
110101  1  0
128111  1  0
142133  1  0
160143  1  0
 26 18  1  0
 90 82  1  0
122114  1  0
154146  1  0
  1161  1  0
  2162  1  0
  6163  1  0
  7164  1  0
 10165  1  0
 10166  1  0
 11167  1  0
 11168  1  0
 11169  1  0
 14170  1  0
 19171  1  0
 20172  1  0
 23173  1  0
 23174  1  0
 24175  1  0
 24176  1  0
 24177  1  0
 26178  1  0
 30179  1  0
 33180  1  0
 34181  1  0
 34182  1  0
 35183  1  6
 36184  1  1
 37185  1  0
 37186  1  0
 38187  1  0
 38188  1  0
 40189  1  0
 40190  1  0
 41191  1  0
 41192  1  0
 41193  1  0
 42194  1  6
 43195  1  1
 45196  1  0
 45197  1  0
 46198  1  0
 46199  1  0
 47200  1  0
 47201  1  0
 48202  1  0
 49203  1  0
 50204  1  0
 50205  1  0
 51206  1  6
 52207  1  1
 53208  1  0
 53209  1  0
 54210  1  0
 54211  1  0
 56212  1  0
 56213  1  0
 57214  1  0
 57215  1  0
 57216  1  0
 58217  1  6
 59218  1  6
 61219  1  0
 61220  1  0
 62221  1  0
 62222  1  0
 63223  1  0
 63224  1  0
 64225  1  0
 66226  1  0
 70227  1  0
 71228  1  0
 74229  1  0
 74230  1  0
 75231  1  0
 75232  1  0
 75233  1  0
 78234  1  0
 83235  1  0
 84236  1  0
 87237  1  0
 87238  1  0
 88239  1  0
 88240  1  0
 88241  1  0
 90242  1  0
 94243  1  0
 98244  1  0
102245  1  0
103246  1  0
106247  1  0
106248  1  0
107249  1  0
107250  1  0
107251  1  0
110252  1  0
115253  1  0
116254  1  0
119255  1  0
119256  1  0
120257  1  0
120258  1  0
120259  1  0
122260  1  0
126261  1  0
130262  1  0
134263  1  0
135264  1  0
138265  1  0
138266  1  0
139267  1  0
139268  1  0
139269  1  0
142270  1  0
147271  1  0
148272  1  0
151273  1  0
151274  1  0
152275  1  0
152276  1  0
152277  1  0
154278  1  0
158279  1  0
159280  1  0
M  END

