
     RDKit          3D

254277  0  0  0  0  0  0  0  0999 V2000
    4.8614   -8.1280   -0.9894 C   0  0  0  0  0  0  0  0  0  0  0  0
    3.3404   -8.8515   -0.9844 S   0  0  0  0  0  0  0  0  0  0  0  0
    2.4543   -7.4320   -0.8050 C   0  0  0  0  0  0  0  0  0  0  0  0
    3.3479   -6.3636   -0.7502 C   0  0  0  0  0  0  0  0  0  0  0  0
    4.6956   -6.7502   -0.8429 C   0  0  0  0  0  0  0  0  0  0  0  0
    5.8410   -5.7628   -0.8836 C   0  0  2  0  0  0  0  0  0  0  0  0
    6.7901   -5.9858    0.2775 C   0  0  0  0  0  0  0  0  0  0  0  0
    6.3596   -6.3352    1.3668 O   0  0  0  0  0  0  0  0  0  0  0  0
    8.2499   -5.6598    0.1489 C   0  0  0  0  0  0  0  0  0  0  0  0
    5.3732   -4.2749   -0.8959 C   0  0  0  0  0  0  0  0  0  0  0  0
    3.9600   -4.0764   -1.4622 C   0  0  0  0  0  0  0  0  0  0  0  0
    2.9516   -4.9209   -0.6793 C   0  0  0  0  0  0  0  0  0  0  0  0
    1.0027   -7.3359   -0.6138 C   0  0  0  0  0  0  0  0  0  0  0  0
    0.1300   -8.0715   -1.3011 C   0  0  0  0  0  0  0  0  0  0  0  0
   -1.3401   -8.0487   -1.1079 C   0  0  0  0  0  0  0  0  0  0  0  0
   -2.2953   -9.3288   -1.6367 S   0  0  0  0  0  0  0  0  0  0  0  0
   -3.7769   -8.7032   -1.1709 C   0  0  0  0  0  0  0  0  0  0  0  0
   -3.5506   -7.4619   -0.5711 C   0  0  0  0  0  0  0  0  0  0  0  0
   -2.1981   -7.0695   -0.5510 C   0  0  0  0  0  0  0  0  0  0  0  0
   -1.8022   -5.7178    0.0337 C   0  0  2  0  0  0  0  0  0  0  0  0
   -1.3334   -5.8730    1.4707 C   0  0  0  0  0  0  0  0  0  0  0  0
   -1.8852   -6.6641    2.2185 O   0  0  0  0  0  0  0  0  0  0  0  0
   -0.2642   -4.9734    2.0226 C   0  0  0  0  0  0  0  0  0  0  0  0
   -2.9373   -4.6432   -0.0182 C   0  0  0  0  0  0  0  0  0  0  0  0
   -4.3388   -5.1446   -0.4297 C   0  0  0  0  0  0  0  0  0  0  0  0
   -4.6019   -6.5777    0.0258 C   0  0  0  0  0  0  0  0  0  0  0  0
   -5.0668   -9.3536   -1.4594 C   0  0  0  0  0  0  0  0  0  0  0  0
   -6.0334   -8.8239   -2.2287 C   0  0  0  0  0  0  0  0  0  0  0  0
   -5.9151   -7.5602   -2.9816 C   0  0  0  0  0  0  0  0  0  0  0  0
   -4.7625   -7.0338   -3.5611 C   0  0  0  0  0  0  0  0  0  0  0  0
   -4.9481   -5.7464   -4.0868 C   0  0  0  0  0  0  0  0  0  0  0  0
   -3.9331   -4.8945   -4.5772 C   0  0  0  0  0  0  0  0  0  0  0  0
   -2.5005   -5.2797   -4.5338 C   0  0  0  0  0  0  0  0  0  0  0  0
   -2.0368   -6.4153   -5.2154 C   0  0  0  0  0  0  0  0  0  0  0  0
   -0.6903   -6.7878   -5.1312 C   0  0  0  0  0  0  0  0  0  0  0  0
    0.2100   -6.0075   -4.3983 C   0  0  0  0  0  0  0  0  0  0  0  0
    1.9423   -6.4774   -4.3056 S   0  0  0  0  0  0  0  0  0  0  0  0
    2.4797   -5.4449   -5.7145 C   0  0  0  0  0  0  0  0  0  0  0  0
    2.9594   -6.3368   -6.8505 C   0  0  0  0  0  0  0  0  0  0  0  0
   -0.2436   -4.8595   -3.7361 C   0  0  0  0  0  0  0  0  0  0  0  0
    0.6222   -4.0670   -3.0606 F   0  0  0  0  0  0  0  0  0  0  0  0
   -1.5945   -4.5123   -3.7834 C   0  0  0  0  0  0  0  0  0  0  0  0
   -4.3248   -3.5874   -4.9320 C   0  0  0  0  0  0  0  0  0  0  0  0
   -5.6308   -3.1136   -4.7602 C   0  0  0  0  0  0  0  0  0  0  0  0
   -6.6407   -3.9743   -4.2901 C   0  0  0  0  0  0  0  0  0  0  0  0
   -8.0362   -3.5297   -4.1397 C   0  0  0  0  0  0  0  0  0  0  0  0
   -8.4476   -2.8310   -2.9939 C   0  0  0  0  0  0  0  0  0  0  0  0
   -9.7862   -2.4540   -2.8467 C   0  0  0  0  0  0  0  0  0  0  0  0
  -10.7176   -2.7639   -3.8472 C   0  0  0  0  0  0  0  0  0  0  0  0
  -12.4417   -2.3062   -3.6483 S   0  0  0  0  0  0  0  0  0  0  0  0
  -12.9033   -3.9162   -2.9243 C   0  0  0  0  0  0  0  0  0  0  0  0
  -14.4179   -4.0421   -2.8491 C   0  0  0  0  0  0  0  0  0  0  0  0
  -10.2994   -3.4368   -5.0057 C   0  0  0  0  0  0  0  0  0  0  0  0
   -8.9655   -3.8248   -5.1435 C   0  0  0  0  0  0  0  0  0  0  0  0
  -11.1922   -3.7417   -5.9819 F   0  0  0  0  0  0  0  0  0  0  0  0
   -6.2619   -5.2886   -3.9625 C   0  0  0  0  0  0  0  0  0  0  0  0
   -7.1842   -6.4659   -3.1897 S   0  0  0  0  0  0  0  0  0  0  0  0
   -5.7627   -1.7355   -5.0194 C   0  0  0  0  0  0  0  0  0  0  0  0
   -4.5654   -1.1489   -5.4277 C   0  0  0  0  0  0  0  0  0  0  0  0
   -3.3560   -2.3243   -5.4604 S   0  0  0  0  0  0  0  0  0  0  0  0
   -4.2760    0.2899   -5.4782 C   0  0  0  0  0  0  0  0  0  0  0  0
   -4.6747    1.1985   -4.4932 C   0  0  0  0  0  0  0  0  0  0  0  0
   -3.8634    2.3446   -4.4388 C   0  0  0  0  0  0  0  0  0  0  0  0
   -3.8490    3.2921   -3.3921 C   0  0  0  0  0  0  0  0  0  0  0  0
   -4.8593    3.2696   -2.3176 C   0  0  0  0  0  0  0  0  0  0  0  0
   -6.1830    3.6359   -2.5995 C   0  0  0  0  0  0  0  0  0  0  0  0
   -7.1453    3.6193   -1.5888 C   0  0  0  0  0  0  0  0  0  0  0  0
   -6.8020    3.2104   -0.2950 C   0  0  0  0  0  0  0  0  0  0  0  0
   -8.0484    3.2007    0.9974 S   0  0  0  0  0  0  0  0  0  0  0  0
   -8.7798    1.5969    0.5181 C   0  0  0  0  0  0  0  0  0  0  0  0
   -7.9269    0.4328    1.0046 C   0  0  0  0  0  0  0  0  0  0  0  0
   -5.4782    2.8437   -0.0088 C   0  0  0  0  0  0  0  0  0  0  0  0
   -5.1241    2.4682    1.2457 F   0  0  0  0  0  0  0  0  0  0  0  0
   -4.5118    2.8705   -1.0187 C   0  0  0  0  0  0  0  0  0  0  0  0
   -2.7485    4.1691   -3.3448 C   0  0  0  0  0  0  0  0  0  0  0  0
   -1.7302    4.1536   -4.3018 C   0  0  0  0  0  0  0  0  0  0  0  0
   -1.7895    3.2612   -5.3949 C   0  0  0  0  0  0  0  0  0  0  0  0
   -0.7107    3.1736   -6.4007 C   0  0  0  0  0  0  0  0  0  0  0  0
   -0.9839    3.4856   -7.7408 C   0  0  0  0  0  0  0  0  0  0  0  0
    0.0236    3.4008   -8.7050 C   0  0  0  0  0  0  0  0  0  0  0  0
    1.3188    3.0184   -8.3375 C   0  0  0  0  0  0  0  0  0  0  0  0
    2.6089    2.9350   -9.5890 S   0  0  0  0  0  0  0  0  0  0  0  0
    3.2045    4.6443   -9.3454 C   0  0  0  0  0  0  0  0  0  0  0  0
    2.3079    5.6510  -10.0563 C   0  0  0  0  0  0  0  0  0  0  0  0
    1.5940    2.6828   -7.0055 C   0  0  0  0  0  0  0  0  0  0  0  0
    0.5817    2.7564   -6.0415 C   0  0  0  0  0  0  0  0  0  0  0  0
    2.8404    2.2873   -6.6386 F   0  0  0  0  0  0  0  0  0  0  0  0
   -2.8598    2.3548   -5.4150 C   0  0  0  0  0  0  0  0  0  0  0  0
   -2.9520    0.9337   -6.3031 S   0  0  0  0  0  0  0  0  0  0  0  0
   -0.6181    4.9308   -3.9370 C   0  0  0  0  0  0  0  0  0  0  0  0
   -0.7185    5.4769   -2.6581 C   0  0  0  0  0  0  0  0  0  0  0  0
   -2.2467    5.1090   -2.0432 S   0  0  0  0  0  0  0  0  0  0  0  0
    0.4510    5.5793   -1.7747 C   0  0  0  0  0  0  0  0  0  0  0  0
    0.4539    6.1566   -0.4983 C   0  0  0  0  0  0  0  0  0  0  0  0
    1.4630    5.6332    0.3351 C   0  0  0  0  0  0  0  0  0  0  0  0
    1.6711    5.9209    1.7040 C   0  0  0  0  0  0  0  0  0  0  0  0
    0.9320    6.9777    2.4190 C   0  0  0  0  0  0  0  0  0  0  0  0
   -0.4597    6.9074    2.5749 C   0  0  0  0  0  0  0  0  0  0  0  0
   -1.1397    7.9107    3.2765 C   0  0  0  0  0  0  0  0  0  0  0  0
   -0.4318    8.9856    3.8303 C   0  0  0  0  0  0  0  0  0  0  0  0
   -1.3084   10.2975    4.6878 S   0  0  0  0  0  0  0  0  0  0  0  0
   -1.3423   11.4243    3.2474 C   0  0  0  0  0  0  0  0  0  0  0  0
   -2.5206   11.1077    2.3368 C   0  0  0  0  0  0  0  0  0  0  0  0
    0.9641    9.0353    3.7108 C   0  0  0  0  0  0  0  0  0  0  0  0
    1.6671   10.0578    4.2582 F   0  0  0  0  0  0  0  0  0  0  0  0
    1.6377    8.0394    3.0012 C   0  0  0  0  0  0  0  0  0  0  0  0
    2.6091    5.1229    2.3871 C   0  0  0  0  0  0  0  0  0  0  0  0
    3.3125    4.0870    1.7643 C   0  0  0  0  0  0  0  0  0  0  0  0
    3.1589    3.8483    0.3901 C   0  0  0  0  0  0  0  0  0  0  0  0
    3.7954    2.6959   -0.2769 C   0  0  0  0  0  0  0  0  0  0  0  0
    3.1511    1.4497   -0.2790 C   0  0  0  0  0  0  0  0  0  0  0  0
    3.7306    0.3641   -0.9397 C   0  0  0  0  0  0  0  0  0  0  0  0
    4.9464    0.5198   -1.6172 C   0  0  0  0  0  0  0  0  0  0  0  0
    5.6738   -0.8744   -2.4878 S   0  0  0  0  0  0  0  0  0  0  0  0
    4.9039   -0.4912   -4.1011 C   0  0  0  0  0  0  0  0  0  0  0  0
    3.5086   -1.0955   -4.1953 C   0  0  0  0  0  0  0  0  0  0  0  0
    5.6004    1.7616   -1.5993 C   0  0  0  0  0  0  0  0  0  0  0  0
    5.0216    2.8479   -0.9347 C   0  0  0  0  0  0  0  0  0  0  0  0
    6.7916    1.9188   -2.2304 F   0  0  0  0  0  0  0  0  0  0  0  0
    2.2320    4.6480   -0.2963 C   0  0  0  0  0  0  0  0  0  0  0  0
    1.7010    4.4487   -1.8693 S   0  0  0  0  0  0  0  0  0  0  0  0
    4.0643    3.3114    2.6541 C   0  0  0  0  0  0  0  0  0  0  0  0
    3.9544    3.7474    3.9693 C   0  0  0  0  0  0  0  0  0  0  0  0
    2.9366    5.0923    4.0374 S   0  0  0  0  0  0  0  0  0  0  0  0
    4.4738    3.0332    5.1393 C   0  0  0  0  0  0  0  0  0  0  0  0
    4.6787    1.6580    5.2076 C   0  0  0  0  0  0  0  0  0  0  0  0
    5.1043    1.2382    6.4736 C   0  0  0  0  0  0  0  0  0  0  0  0
    5.3602   -0.0893    6.8634 C   0  0  0  0  0  0  0  0  0  0  0  0
    5.0210   -1.2236    5.9797 C   0  0  0  0  0  0  0  0  0  0  0  0
    3.6740   -1.5127    5.7128 C   0  0  0  0  0  0  0  0  0  0  0  0
    3.3318   -2.5531    4.8441 C   0  0  0  0  0  0  0  0  0  0  0  0
    4.3341   -3.3087    4.2274 C   0  0  0  0  0  0  0  0  0  0  0  0
    3.8769   -4.6130    3.0818 S   0  0  0  0  0  0  0  0  0  0  0  0
    3.8015   -5.8981    4.3705 C   0  0  0  0  0  0  0  0  0  0  0  0
    3.3268   -7.2119    3.7658 C   0  0  0  0  0  0  0  0  0  0  0  0
    5.6829   -3.0247    4.4883 C   0  0  0  0  0  0  0  0  0  0  0  0
    6.6635   -3.7343    3.8761 F   0  0  0  0  0  0  0  0  0  0  0  0
    6.0242   -1.9904    5.3708 C   0  0  0  0  0  0  0  0  0  0  0  0
    5.8356   -0.2875    8.1712 C   0  0  0  0  0  0  0  0  0  0  0  0
    6.0020    0.7669    9.0783 C   0  0  0  0  0  0  0  0  0  0  0  0
    5.6851    2.0902    8.7032 C   0  0  0  0  0  0  0  0  0  0  0  0
    5.7618    3.2232    9.6478 C   0  0  0  0  0  0  0  0  0  0  0  0
    7.0021    3.6766   10.1151 C   0  0  0  0  0  0  0  0  0  0  0  0
    7.0687    4.7737   10.9802 C   0  0  0  0  0  0  0  0  0  0  0  0
    5.8966    5.4304   11.3771 C   0  0  0  0  0  0  0  0  0  0  0  0
    5.9895    6.8135   12.5208 S   0  0  0  0  0  0  0  0  0  0  0  0
    6.2508    8.0960   11.2448 C   0  0  0  0  0  0  0  0  0  0  0  0
    4.9366    8.4911   10.5824 C   0  0  0  0  0  0  0  0  0  0  0  0
    4.6520    4.9693   10.9202 C   0  0  0  0  0  0  0  0  0  0  0  0
    4.5887    3.8783   10.0501 C   0  0  0  0  0  0  0  0  0  0  0  0
    3.5040    5.5708   11.3229 F   0  0  0  0  0  0  0  0  0  0  0  0
    5.2474    2.2889    7.3843 C   0  0  0  0  0  0  0  0  0  0  0  0
    4.8128    3.7340    6.6366 S   0  0  0  0  0  0  0  0  0  0  0  0
    6.4402    0.3405   10.3405 C   0  0  0  0  0  0  0  0  0  0  0  0
    6.6156   -1.0375   10.4223 C   0  0  0  0  0  0  0  0  0  0  0  0
    6.2190   -1.7374    8.9371 S   0  0  0  0  0  0  0  0  0  0  0  0
    5.8050   -8.6435   -1.0973 H   0  0  0  0  0  0  0  0  0  0  0  0
    6.3942   -5.9598   -1.8328 H   0  0  0  0  0  0  0  0  0  0  0  0
    8.5050   -5.3451   -0.8857 H   0  0  0  0  0  0  0  0  0  0  0  0
    8.8594   -6.5482    0.4182 H   0  0  0  0  0  0  0  0  0  0  0  0
    8.4935   -4.8243    0.8406 H   0  0  0  0  0  0  0  0  0  0  0  0
    6.0899   -3.6867   -1.5133 H   0  0  0  0  0  0  0  0  0  0  0  0
    5.3982   -3.8402    0.1319 H   0  0  0  0  0  0  0  0  0  0  0  0
    3.6773   -3.0050   -1.3881 H   0  0  0  0  0  0  0  0  0  0  0  0
    3.9360   -4.3658   -2.5393 H   0  0  0  0  0  0  0  0  0  0  0  0
    2.9192   -4.5992    0.3818 H   0  0  0  0  0  0  0  0  0  0  0  0
    1.9355   -4.7746   -1.1055 H   0  0  0  0  0  0  0  0  0  0  0  0
    0.6787   -6.6299    0.1141 H   0  0  0  0  0  0  0  0  0  0  0  0
    0.5152   -8.7872   -2.0164 H   0  0  0  0  0  0  0  0  0  0  0  0
   -0.9681   -5.3192   -0.5858 H   0  0  0  0  0  0  0  0  0  0  0  0
    0.5904   -5.5826    2.3814 H   0  0  0  0  0  0  0  0  0  0  0  0
   -0.6725   -4.3850    2.8715 H   0  0  0  0  0  0  0  0  0  0  0  0
    0.1044   -4.2625    1.2506 H   0  0  0  0  0  0  0  0  0  0  0  0
   -3.0400   -4.1349    0.9674 H   0  0  0  0  0  0  0  0  0  0  0  0
   -2.6421   -3.8367   -0.7278 H   0  0  0  0  0  0  0  0  0  0  0  0
   -4.4289   -5.0891   -1.5315 H   0  0  0  0  0  0  0  0  0  0  0  0
   -5.1158   -4.4709   -0.0041 H   0  0  0  0  0  0  0  0  0  0  0  0
   -5.6195   -6.8846   -0.2792 H   0  0  0  0  0  0  0  0  0  0  0  0
   -4.5489   -6.6395    1.1330 H   0  0  0  0  0  0  0  0  0  0  0  0
   -5.2363  -10.3310   -1.0252 H   0  0  0  0  0  0  0  0  0  0  0  0
   -6.9803   -9.3455   -2.2880 H   0  0  0  0  0  0  0  0  0  0  0  0
   -3.8112   -7.5439   -3.5544 H   0  0  0  0  0  0  0  0  0  0  0  0
   -2.7228   -7.0213   -5.7989 H   0  0  0  0  0  0  0  0  0  0  0  0
   -0.3502   -7.6780   -5.6438 H   0  0  0  0  0  0  0  0  0  0  0  0
    3.3188   -4.8000   -5.3768 H   0  0  0  0  0  0  0  0  0  0  0  0
    1.6645   -4.7867   -6.0893 H   0  0  0  0  0  0  0  0  0  0  0  0
    3.2967   -5.7097   -7.6999 H   0  0  0  0  0  0  0  0  0  0  0  0
    3.8111   -6.9622   -6.5084 H   0  0  0  0  0  0  0  0  0  0  0  0
    2.1331   -6.9964   -7.1946 H   0  0  0  0  0  0  0  0  0  0  0  0
   -1.9320   -3.6411   -3.2357 H   0  0  0  0  0  0  0  0  0  0  0  0
   -7.7360   -2.5924   -2.2120 H   0  0  0  0  0  0  0  0  0  0  0  0
  -10.1017   -1.9341   -1.9502 H   0  0  0  0  0  0  0  0  0  0  0  0
  -12.4724   -3.9943   -1.9028 H   0  0  0  0  0  0  0  0  0  0  0  0
  -12.5079   -4.7461   -3.5501 H   0  0  0  0  0  0  0  0  0  0  0  0
  -14.8403   -3.2266   -2.2260 H   0  0  0  0  0  0  0  0  0  0  0  0
  -14.6890   -5.0199   -2.3973 H   0  0  0  0  0  0  0  0  0  0  0  0
  -14.8545   -3.9910   -3.8694 H   0  0  0  0  0  0  0  0  0  0  0  0
   -8.6586   -4.3615   -6.0318 H   0  0  0  0  0  0  0  0  0  0  0  0
   -6.6717   -1.1737   -4.8509 H   0  0  0  0  0  0  0  0  0  0  0  0
   -5.4199    0.9585   -3.7422 H   0  0  0  0  0  0  0  0  0  0  0  0
   -6.4654    3.9444   -3.5996 H   0  0  0  0  0  0  0  0  0  0  0  0
   -8.1619    3.9141   -1.8129 H   0  0  0  0  0  0  0  0  0  0  0  0
   -9.7830    1.5239    0.9859 H   0  0  0  0  0  0  0  0  0  0  0  0
   -8.9121    1.5393   -0.5840 H   0  0  0  0  0  0  0  0  0  0  0  0
   -7.7730    0.5010    2.1014 H   0  0  0  0  0  0  0  0  0  0  0  0
   -6.9431    0.4280    0.4916 H   0  0  0  0  0  0  0  0  0  0  0  0
   -8.4395   -0.5232    0.7745 H   0  0  0  0  0  0  0  0  0  0  0  0
   -3.4955    2.5813   -0.7900 H   0  0  0  0  0  0  0  0  0  0  0  0
   -1.9775    3.8019   -8.0378 H   0  0  0  0  0  0  0  0  0  0  0  0
   -0.2024    3.6433   -9.7366 H   0  0  0  0  0  0  0  0  0  0  0  0
    3.2667    4.8847   -8.2637 H   0  0  0  0  0  0  0  0  0  0  0  0
    4.2262    4.7151   -9.7731 H   0  0  0  0  0  0  0  0  0  0  0  0
    2.1663    5.3631  -11.1212 H   0  0  0  0  0  0  0  0  0  0  0  0
    1.3200    5.7175   -9.5540 H   0  0  0  0  0  0  0  0  0  0  0  0
    2.7789    6.6556  -10.0201 H   0  0  0  0  0  0  0  0  0  0  0  0
    0.8014    2.4921   -5.0159 H   0  0  0  0  0  0  0  0  0  0  0  0
    0.3083    4.9451   -4.4937 H   0  0  0  0  0  0  0  0  0  0  0  0
   -0.3079    6.8471   -0.1641 H   0  0  0  0  0  0  0  0  0  0  0  0
   -1.0185    6.0772    2.1637 H   0  0  0  0  0  0  0  0  0  0  0  0
   -2.2170    7.8548    3.3861 H   0  0  0  0  0  0  0  0  0  0  0  0
   -0.3918   11.3659    2.6735 H   0  0  0  0  0  0  0  0  0  0  0  0
   -1.4426   12.4647    3.6232 H   0  0  0  0  0  0  0  0  0  0  0  0
   -2.4529   10.0690    1.9582 H   0  0  0  0  0  0  0  0  0  0  0  0
   -2.5139   11.8008    1.4702 H   0  0  0  0  0  0  0  0  0  0  0  0
   -3.4743   11.2339    2.8917 H   0  0  0  0  0  0  0  0  0  0  0  0
    2.7146    8.0970    2.9036 H   0  0  0  0  0  0  0  0  0  0  0  0
    2.2008    1.3228    0.2232 H   0  0  0  0  0  0  0  0  0  0  0  0
    3.2288   -0.5960   -0.9319 H   0  0  0  0  0  0  0  0  0  0  0  0
    4.8561    0.6066   -4.2703 H   0  0  0  0  0  0  0  0  0  0  0  0
    5.5353   -0.9331   -4.8991 H   0  0  0  0  0  0  0  0  0  0  0  0
    3.5531   -2.1936   -4.0428 H   0  0  0  0  0  0  0  0  0  0  0  0
    2.8344   -0.6466   -3.4367 H   0  0  0  0  0  0  0  0  0  0  0  0
    3.0822   -0.8945   -5.2001 H   0  0  0  0  0  0  0  0  0  0  0  0
    5.5253    3.8045   -0.9352 H   0  0  0  0  0  0  0  0  0  0  0  0
    4.6351    2.4414    2.3592 H   0  0  0  0  0  0  0  0  0  0  0  0
    4.5095    0.9907    4.3755 H   0  0  0  0  0  0  0  0  0  0  0  0
    2.8881   -0.9224    6.1682 H   0  0  0  0  0  0  0  0  0  0  0  0
    2.2857   -2.7648    4.6466 H   0  0  0  0  0  0  0  0  0  0  0  0
    4.8118   -6.0416    4.8111 H   0  0  0  0  0  0  0  0  0  0  0  0
    3.0936   -5.5913    5.1712 H   0  0  0  0  0  0  0  0  0  0  0  0
    3.9984   -7.5201    2.9346 H   0  0  0  0  0  0  0  0  0  0  0  0
    2.2916   -7.1010    3.3802 H   0  0  0  0  0  0  0  0  0  0  0  0
    3.3293   -8.0074    4.5428 H   0  0  0  0  0  0  0  0  0  0  0  0
    7.0677   -1.7717    5.5581 H   0  0  0  0  0  0  0  0  0  0  0  0
    7.9186    3.1892    9.8028 H   0  0  0  0  0  0  0  0  0  0  0  0
    8.0292    5.1151   11.3385 H   0  0  0  0  0  0  0  0  0  0  0  0
    6.9793    7.7522   10.4795 H   0  0  0  0  0  0  0  0  0  0  0  0
    6.6774    8.9918   11.7444 H   0  0  0  0  0  0  0  0  0  0  0  0
    5.0928    9.3884    9.9476 H   0  0  0  0  0  0  0  0  0  0  0  0
    4.1737    8.7301   11.3519 H   0  0  0  0  0  0  0  0  0  0  0  0
    4.5682    7.6677    9.9354 H   0  0  0  0  0  0  0  0  0  0  0  0
    3.6250    3.5372    9.6945 H   0  0  0  0  0  0  0  0  0  0  0  0
    6.6086    1.0017   11.1808 H   0  0  0  0  0  0  0  0  0  0  0  0
    6.9403   -1.5784   11.3015 H   0  0  0  0  0  0  0  0  0  0  0  0
  1  2  1  0
  2  3  1  0
  3  4  2  0
  4  5  1  0
  5  6  1  0
  6  7  1  0
  7  8  2  0
  7  9  1  0
  6 10  1  0
 10 11  1  0
 11 12  1  0
  3 13  1  0
 13 14  2  3
 14 15  1  0
 15 16  1  0
 16 17  1  0
 17 18  2  0
 18 19  1  0
 19 20  1  0
 20 21  1  0
 21 22  2  0
 21 23  1  0
 20 24  1  0
 24 25  1  0
 25 26  1  0
 17 27  1  0
 27 28  2  3
 28 29  1  0
 29 30  2  0
 30 31  1  0
 31 32  2  0
 32 33  1  0
 33 34  2  0
 34 35  1  0
 35 36  2  0
 36 37  1  0
 37 38  1  0
 38 39  1  0
 36 40  1  0
 40 41  1  0
 40 42  2  0
 32 43  1  0
 43 44  2  0
 44 45  1  0
 45 46  1  0
 46 47  2  0
 47 48  1  0
 48 49  2  0
 49 50  1  0
 50 51  1  0
 51 52  1  0
 49 53  1  0
 53 54  2  0
 53 55  1  0
 45 56  2  0
 56 57  1  0
 44 58  1  0
 58 59  2  0
 59 60  1  0
 59 61  1  0
 61 62  2  0
 62 63  1  0
 63 64  2  0
 64 65  1  0
 65 66  2  0
 66 67  1  0
 67 68  2  0
 68 69  1  0
 69 70  1  0
 70 71  1  0
 68 72  1  0
 72 73  1  0
 72 74  2  0
 64 75  1  0
 75 76  2  0
 76 77  1  0
 77 78  1  0
 78 79  2  0
 79 80  1  0
 80 81  2  0
 81 82  1  0
 82 83  1  0
 83 84  1  0
 81 85  1  0
 85 86  2  0
 85 87  1  0
 77 88  2  0
 88 89  1  0
 76 90  1  0
 90 91  2  0
 91 92  1  0
 91 93  1  0
 93 94  2  0
 94 95  1  0
 95 96  2  0
 96 97  1  0
 97 98  2  0
 98 99  1  0
 99100  2  0
100101  1  0
101102  1  0
102103  1  0
100104  1  0
104105  1  0
104106  2  0
 96107  1  0
107108  2  0
108109  1  0
109110  1  0
110111  2  0
111112  1  0
112113  2  0
113114  1  0
114115  1  0
115116  1  0
113117  1  0
117118  2  0
117119  1  0
109120  2  0
120121  1  0
108122  1  0
122123  2  0
123124  1  0
123125  1  0
125126  2  0
126127  1  0
127128  2  0
128129  1  0
129130  2  0
130131  1  0
131132  2  0
132133  1  0
133134  1  0
134135  1  0
132136  1  0
136137  1  0
136138  2  0
128139  1  0
139140  2  0
140141  1  0
141142  1  0
142143  2  0
143144  1  0
144145  2  0
145146  1  0
146147  1  0
147148  1  0
145149  1  0
149150  2  0
149151  1  0
141152  2  0
152153  1  0
140154  1  0
154155  2  0
155156  1  0
  5  1  2  0
 19 15  2  0
 57 29  1  0
 89 61  1  0
121 93  1  0
153125  1  0
 12  4  1  0
 26 18  1  0
 56 31  1  0
 88 63  1  0
120 95  1  0
152127  1  0
 42 33  1  0
 60 43  1  0
 74 65  1  0
 92 75  1  0
106 97  1  0
124107  1  0
138129  1  0
156139  1  0
 54 46  1  0
 86 78  1  0
118110  1  0
150142  1  0
  1157  1  0
  6158  1  6
  9159  1  0
  9160  1  0
  9161  1  0
 10162  1  0
 10163  1  0
 11164  1  0
 11165  1  0
 12166  1  0
 12167  1  0
 13168  1  0
 14169  1  0
 20170  1  6
 23171  1  0
 23172  1  0
 23173  1  0
 24174  1  0
 24175  1  0
 25176  1  0
 25177  1  0
 26178  1  0
 26179  1  0
 27180  1  0
 28181  1  0
 30182  1  0
 34183  1  0
 35184  1  0
 38185  1  0
 38186  1  0
 39187  1  0
 39188  1  0
 39189  1  0
 42190  1  0
 47191  1  0
 48192  1  0
 51193  1  0
 51194  1  0
 52195  1  0
 52196  1  0
 52197  1  0
 54198  1  0
 58199  1  0
 62200  1  0
 66201  1  0
 67202  1  0
 70203  1  0
 70204  1  0
 71205  1  0
 71206  1  0
 71207  1  0
 74208  1  0
 79209  1  0
 80210  1  0
 83211  1  0
 83212  1  0
 84213  1  0
 84214  1  0
 84215  1  0
 86216  1  0
 90217  1  0
 94218  1  0
 98219  1  0
 99220  1  0
102221  1  0
102222  1  0
103223  1  0
103224  1  0
103225  1  0
106226  1  0
111227  1  0
112228  1  0
115229  1  0
115230  1  0
116231  1  0
116232  1  0
116233  1  0
118234  1  0
122235  1  0
126236  1  0
130237  1  0
131238  1  0
134239  1  0
134240  1  0
135241  1  0
135242  1  0
135243  1  0
138244  1  0
143245  1  0
144246  1  0
147247  1  0
147248  1  0
148249  1  0
148250  1  0
148251  1  0
150252  1  0
154253  1  0
155254  1  0
M  END

