
     RDKit          3D

252275  0  0  0  0  0  0  0  0999 V2000
    1.8037   -1.1639    9.5737 C   0  0  0  0  0  0  0  0  0  0  0  0
    1.8906   -0.4348    8.3907 C   0  0  0  0  0  0  0  0  0  0  0  0
    0.6844   -0.4021    7.6695 C   0  0  0  0  0  0  0  0  0  0  0  0
    0.4480    0.2662    6.4485 C   0  0  0  0  0  0  0  0  0  0  0  0
    1.5162    0.9994    5.7354 C   0  0  0  0  0  0  0  0  0  0  0  0
    2.6586    0.3132    5.3153 C   0  0  0  0  0  0  0  0  0  0  0  0
    3.6928    0.9876    4.6662 C   0  0  0  0  0  0  0  0  0  0  0  0
    3.5858    2.3542    4.4032 C   0  0  0  0  0  0  0  0  0  0  0  0
    4.9496    3.1978    3.5890 S   0  0  0  0  0  0  0  0  0  0  0  0
    4.2755    3.0511    1.8962 C   0  0  0  0  0  0  0  0  0  0  0  0
    4.3256    1.6186    1.3752 C   0  0  0  0  0  0  0  0  0  0  0  0
    2.4395    3.0530    4.8142 C   0  0  0  0  0  0  0  0  0  0  0  0
    2.3343    4.3858    4.5896 F   0  0  0  0  0  0  0  0  0  0  0  0
    1.4025    2.3737    5.4717 C   0  0  0  0  0  0  0  0  0  0  0  0
   -0.8340    0.1259    5.8895 C   0  0  0  0  0  0  0  0  0  0  0  0
   -1.8564   -0.6042    6.5093 C   0  0  0  0  0  0  0  0  0  0  0  0
   -1.6421   -1.1992    7.7690 C   0  0  0  0  0  0  0  0  0  0  0  0
   -2.7406   -1.7935    8.5535 C   0  0  0  0  0  0  0  0  0  0  0  0
   -3.6858   -0.9557    9.1610 C   0  0  0  0  0  0  0  0  0  0  0  0
   -4.6640   -1.4929   10.0022 C   0  0  0  0  0  0  0  0  0  0  0  0
   -4.7137   -2.8727   10.2274 C   0  0  0  0  0  0  0  0  0  0  0  0
   -5.9318   -3.5464   11.3613 S   0  0  0  0  0  0  0  0  0  0  0  0
   -7.2332   -3.6780   10.0906 C   0  0  0  0  0  0  0  0  0  0  0  0
   -8.4544   -4.3734   10.6741 C   0  0  0  0  0  0  0  0  0  0  0  0
   -3.7850   -3.7164    9.6023 C   0  0  0  0  0  0  0  0  0  0  0  0
   -2.7928   -3.1756    8.7767 C   0  0  0  0  0  0  0  0  0  0  0  0
   -3.8208   -5.0568    9.8158 F   0  0  0  0  0  0  0  0  0  0  0  0
   -0.3459   -1.1049    8.3030 C   0  0  0  0  0  0  0  0  0  0  0  0
    0.2336   -1.7527    9.7435 S   0  0  0  0  0  0  0  0  0  0  0  0
   -3.0185   -0.7087    5.7246 C   0  0  0  0  0  0  0  0  0  0  0  0
   -2.8945   -0.0446    4.5057 C   0  0  0  0  0  0  0  0  0  0  0  0
   -1.3688    0.6616    4.3901 S   0  0  0  0  0  0  0  0  0  0  0  0
   -3.8500   -0.0741    3.4009 C   0  0  0  0  0  0  0  0  0  0  0  0
   -4.3665    1.0644    2.7942 C   0  0  0  0  0  0  0  0  0  0  0  0
   -4.9338    0.8103    1.5381 C   0  0  0  0  0  0  0  0  0  0  0  0
   -5.4431    1.7770    0.6483 C   0  0  0  0  0  0  0  0  0  0  0  0
   -5.4307    3.2167    0.9736 C   0  0  0  0  0  0  0  0  0  0  0  0
   -4.2117    3.8978    1.1237 C   0  0  0  0  0  0  0  0  0  0  0  0
   -4.2029    5.2585    1.4335 C   0  0  0  0  0  0  0  0  0  0  0  0
   -5.4086    5.9496    1.6048 C   0  0  0  0  0  0  0  0  0  0  0  0
   -5.3866    7.7015    2.0111 S   0  0  0  0  0  0  0  0  0  0  0  0
   -5.5113    7.4556    3.8187 C   0  0  0  0  0  0  0  0  0  0  0  0
   -4.1527    7.1227    4.4244 C   0  0  0  0  0  0  0  0  0  0  0  0
   -6.6279    5.2770    1.4339 C   0  0  0  0  0  0  0  0  0  0  0  0
   -7.8029    5.9391    1.5790 F   0  0  0  0  0  0  0  0  0  0  0  0
   -6.6380    3.9163    1.1163 C   0  0  0  0  0  0  0  0  0  0  0  0
   -5.8222    1.3302   -0.6267 C   0  0  0  0  0  0  0  0  0  0  0  0
   -5.7014   -0.0020   -1.0251 C   0  0  0  0  0  0  0  0  0  0  0  0
   -5.2271   -0.9782   -0.1227 C   0  0  0  0  0  0  0  0  0  0  0  0
   -4.9632   -2.3587   -0.5736 C   0  0  0  0  0  0  0  0  0  0  0  0
   -6.0233   -3.2617   -0.7303 C   0  0  0  0  0  0  0  0  0  0  0  0
   -5.7927   -4.5235   -1.2849 C   0  0  0  0  0  0  0  0  0  0  0  0
   -4.5016   -4.8927   -1.6896 C   0  0  0  0  0  0  0  0  0  0  0  0
   -4.2310   -6.4904   -2.4722 S   0  0  0  0  0  0  0  0  0  0  0  0
   -3.7033   -7.3451   -0.9463 C   0  0  0  0  0  0  0  0  0  0  0  0
   -4.9033   -7.7709   -0.1106 C   0  0  0  0  0  0  0  0  0  0  0  0
   -3.4408   -3.9891   -1.5371 C   0  0  0  0  0  0  0  0  0  0  0  0
   -3.6692   -2.7289   -0.9755 C   0  0  0  0  0  0  0  0  0  0  0  0
   -2.1910   -4.3249   -1.9426 F   0  0  0  0  0  0  0  0  0  0  0  0
   -4.8508   -0.5337    1.1565 C   0  0  0  0  0  0  0  0  0  0  0  0
   -4.0725   -1.3990    2.3762 S   0  0  0  0  0  0  0  0  0  0  0  0
   -5.8871   -0.1873   -2.4053 C   0  0  0  0  0  0  0  0  0  0  0  0
   -6.0970    1.0067   -3.1016 C   0  0  0  0  0  0  0  0  0  0  0  0
   -6.1286    2.2742   -1.9814 S   0  0  0  0  0  0  0  0  0  0  0  0
   -5.7313    1.2031   -4.5192 C   0  0  0  0  0  0  0  0  0  0  0  0
   -5.2215    0.1864   -5.3338 C   0  0  0  0  0  0  0  0  0  0  0  0
   -4.3020    0.6496   -6.2931 C   0  0  0  0  0  0  0  0  0  0  0  0
   -3.4024   -0.1587   -7.0163 C   0  0  0  0  0  0  0  0  0  0  0  0
   -3.4588   -1.6319   -6.9457 C   0  0  0  0  0  0  0  0  0  0  0  0
   -3.0561   -2.3057   -5.7817 C   0  0  0  0  0  0  0  0  0  0  0  0
   -3.1284   -3.7006   -5.7181 C   0  0  0  0  0  0  0  0  0  0  0  0
   -3.5926   -4.4329   -6.8186 C   0  0  0  0  0  0  0  0  0  0  0  0
   -3.7105   -6.2217   -6.7142 S   0  0  0  0  0  0  0  0  0  0  0  0
   -2.0997   -6.5459   -7.5165 C   0  0  0  0  0  0  0  0  0  0  0  0
   -0.9513   -6.3836   -6.5288 C   0  0  0  0  0  0  0  0  0  0  0  0
   -4.0004   -3.7611   -7.9812 C   0  0  0  0  0  0  0  0  0  0  0  0
   -4.4627   -4.4579   -9.0494 F   0  0  0  0  0  0  0  0  0  0  0  0
   -3.9243   -2.3642   -8.0465 C   0  0  0  0  0  0  0  0  0  0  0  0
   -2.3144    0.4883   -7.6231 C   0  0  0  0  0  0  0  0  0  0  0  0
   -2.1393    1.8747   -7.5712 C   0  0  0  0  0  0  0  0  0  0  0  0
   -3.1087    2.6956   -6.9537 C   0  0  0  0  0  0  0  0  0  0  0  0
   -2.9607    4.1620   -6.8268 C   0  0  0  0  0  0  0  0  0  0  0  0
   -1.9243    4.7240   -6.0620 C   0  0  0  0  0  0  0  0  0  0  0  0
   -1.8428    6.1115   -5.9006 C   0  0  0  0  0  0  0  0  0  0  0  0
   -2.8041    6.9478   -6.4804 C   0  0  0  0  0  0  0  0  0  0  0  0
   -2.7296    8.7257   -6.2144 S   0  0  0  0  0  0  0  0  0  0  0  0
   -1.5853    9.0695   -7.5996 C   0  0  0  0  0  0  0  0  0  0  0  0
   -2.3080    9.0486   -8.9426 C   0  0  0  0  0  0  0  0  0  0  0  0
   -3.8527    6.3876   -7.2223 C   0  0  0  0  0  0  0  0  0  0  0  0
   -3.9265    5.0028   -7.4011 C   0  0  0  0  0  0  0  0  0  0  0  0
   -4.8123    7.1811   -7.7643 F   0  0  0  0  0  0  0  0  0  0  0  0
   -4.1647    2.0420   -6.2992 C   0  0  0  0  0  0  0  0  0  0  0  0
   -5.1416    2.6792   -5.0932 S   0  0  0  0  0  0  0  0  0  0  0  0
   -0.8498    2.2762   -7.9546 C   0  0  0  0  0  0  0  0  0  0  0  0
    0.0149    1.2105   -8.2168 C   0  0  0  0  0  0  0  0  0  0  0  0
   -0.8695   -0.2216   -8.0940 S   0  0  0  0  0  0  0  0  0  0  0  0
    1.4038    1.2403   -7.7454 C   0  0  0  0  0  0  0  0  0  0  0  0
    1.7093    1.6351   -6.4447 C   0  0  0  0  0  0  0  0  0  0  0  0
    2.9421    1.1562   -5.9917 C   0  0  0  0  0  0  0  0  0  0  0  0
    3.4098    1.2310   -4.6627 C   0  0  0  0  0  0  0  0  0  0  0  0
    2.6143    1.8954   -3.6042 C   0  0  0  0  0  0  0  0  0  0  0  0
    2.3496    3.2716   -3.6776 C   0  0  0  0  0  0  0  0  0  0  0  0
    1.4652    3.8678   -2.7729 C   0  0  0  0  0  0  0  0  0  0  0  0
    0.8341    3.0934   -1.7923 C   0  0  0  0  0  0  0  0  0  0  0  0
   -0.4004    3.8493   -0.7268 S   0  0  0  0  0  0  0  0  0  0  0  0
    0.7566    4.1050    0.6536 C   0  0  0  0  0  0  0  0  0  0  0  0
    0.1016    4.9511    1.7332 C   0  0  0  0  0  0  0  0  0  0  0  0
    1.1213    1.7239   -1.6921 C   0  0  0  0  0  0  0  0  0  0  0  0
    0.5155    0.9644   -0.7454 F   0  0  0  0  0  0  0  0  0  0  0  0
    2.0123    1.1289   -2.5931 C   0  0  0  0  0  0  0  0  0  0  0  0
    4.5975    0.5380   -4.3722 C   0  0  0  0  0  0  0  0  0  0  0  0
    5.3182   -0.1590   -5.3484 C   0  0  0  0  0  0  0  0  0  0  0  0
    4.8461   -0.2359   -6.6751 C   0  0  0  0  0  0  0  0  0  0  0  0
    5.5596   -1.0193   -7.6982 C   0  0  0  0  0  0  0  0  0  0  0  0
    5.2752   -2.3796   -7.8701 C   0  0  0  0  0  0  0  0  0  0  0  0
    6.0293   -3.1454   -8.7645 C   0  0  0  0  0  0  0  0  0  0  0  0
    7.0702   -2.5562   -9.4976 C   0  0  0  0  0  0  0  0  0  0  0  0
    8.0867   -3.5735  -10.5788 S   0  0  0  0  0  0  0  0  0  0  0  0
    6.9816   -3.4537  -12.0260 C   0  0  0  0  0  0  0  0  0  0  0  0
    7.2191   -2.1633  -12.7972 C   0  0  0  0  0  0  0  0  0  0  0  0
    7.3517   -1.1919   -9.3290 C   0  0  0  0  0  0  0  0  0  0  0  0
    6.5951   -0.4249   -8.4340 C   0  0  0  0  0  0  0  0  0  0  0  0
    8.3750   -0.6146  -10.0053 F   0  0  0  0  0  0  0  0  0  0  0  0
    3.6335    0.4165   -6.9582 C   0  0  0  0  0  0  0  0  0  0  0  0
    2.6752    0.2985   -8.3429 S   0  0  0  0  0  0  0  0  0  0  0  0
    6.4582   -0.8020   -4.8398 C   0  0  0  0  0  0  0  0  0  0  0  0
    6.6009   -0.6333   -3.4636 C   0  0  0  0  0  0  0  0  0  0  0  0
    5.3426    0.3307   -2.8773 S   0  0  0  0  0  0  0  0  0  0  0  0
    7.6405   -1.2667   -2.6447 C   0  0  0  0  0  0  0  0  0  0  0  0
    9.1969   -1.6741   -3.1658 S   0  0  0  0  0  0  0  0  0  0  0  0
    9.7189   -2.4125   -1.7389 C   0  0  0  0  0  0  0  0  0  0  0  0
    8.6559   -2.3594   -0.8506 C   0  0  0  0  0  0  0  0  0  0  0  0
    7.5128   -1.7308   -1.3398 C   0  0  0  0  0  0  0  0  0  0  0  0
    6.3878   -1.6764   -0.5896 N   0  0  0  0  0  0  0  0  0  0  0  0
    6.3575   -2.2314    0.6599 C   0  0  0  0  0  0  0  0  0  0  0  0
    7.5246   -2.8966    1.1510 C   0  0  0  0  0  0  0  0  0  0  0  0
    7.5208   -3.6120    2.3935 N   0  0  0  0  0  0  0  0  0  0  0  0
    8.7364   -3.7420    3.1905 C   0  0  0  0  0  0  0  0  0  0  0  0
    8.6489   -2.9287    0.3767 N   0  0  0  0  0  0  0  0  0  0  0  0
    5.1457   -2.1249    1.4393 N   0  0  0  0  0  0  0  0  0  0  0  0
    3.8563   -2.0371    0.7439 C   0  0  0  0  0  0  0  0  0  0  0  0
    5.2277   -1.9154    2.8589 C   0  0  0  0  0  0  0  0  0  0  0  0
    4.4209   -2.5710    3.7003 C   0  0  0  0  0  0  0  0  0  0  0  0
    4.6218   -2.5522    5.1615 C   0  0  0  0  0  0  0  0  0  0  0  0
    5.8245   -1.7376    6.0324 S   0  0  0  0  0  0  0  0  0  0  0  0
    5.3542   -2.2297    7.5789 C   0  0  0  0  0  0  0  0  0  0  0  0
    4.2482   -3.0499    7.4125 C   0  0  0  0  0  0  0  0  0  0  0  0
    3.8417   -3.2199    6.0916 C   0  0  0  0  0  0  0  0  0  0  0  0
    2.7648   -3.9850    5.7985 N   0  0  0  0  0  0  0  0  0  0  0  0
    2.0800   -4.6103    6.7972 C   0  0  0  0  0  0  0  0  0  0  0  0
    2.5054   -4.4630    8.1443 C   0  0  0  0  0  0  0  0  0  0  0  0
    1.8209   -5.1413    9.2090 N   0  0  0  0  0  0  0  0  0  0  0  0
    2.3424   -5.1336   10.5722 C   0  0  0  0  0  0  0  0  0  0  0  0
    3.5862   -3.6746    8.4181 N   0  0  0  0  0  0  0  0  0  0  0  0
    0.9681   -5.4463    6.4591 N   0  0  0  0  0  0  0  0  0  0  0  0
    1.1977   -6.8757    6.2418 C   0  0  0  0  0  0  0  0  0  0  0  0
   -0.3152   -4.8217    6.2491 C   0  0  0  0  0  0  0  0  0  0  0  0
   -1.4284   -5.5186    6.0056 C   0  0  0  0  0  0  0  0  0  0  0  0
    2.6152   -1.3224   10.2721 H   0  0  0  0  0  0  0  0  0  0  0  0
    2.8040    0.0548    8.0706 H   0  0  0  0  0  0  0  0  0  0  0  0
    2.7373   -0.7463    5.5011 H   0  0  0  0  0  0  0  0  0  0  0  0
    4.5784    0.4505    4.3602 H   0  0  0  0  0  0  0  0  0  0  0  0
    3.2360    3.4324    1.8749 H   0  0  0  0  0  0  0  0  0  0  0  0
    4.8875    3.6971    1.2297 H   0  0  0  0  0  0  0  0  0  0  0  0
    4.0645    1.6058    0.2983 H   0  0  0  0  0  0  0  0  0  0  0  0
    5.3456    1.1975    1.4986 H   0  0  0  0  0  0  0  0  0  0  0  0
    3.5945    0.9840    1.9163 H   0  0  0  0  0  0  0  0  0  0  0  0
    0.5223    2.9208    5.7910 H   0  0  0  0  0  0  0  0  0  0  0  0
   -3.6432    0.1190    9.0119 H   0  0  0  0  0  0  0  0  0  0  0  0
   -5.3718   -0.8354   10.4913 H   0  0  0  0  0  0  0  0  0  0  0  0
   -7.5173   -2.6580    9.7500 H   0  0  0  0  0  0  0  0  0  0  0  0
   -6.8584   -4.2612    9.2212 H   0  0  0  0  0  0  0  0  0  0  0  0
   -8.1817   -5.3942   11.0169 H   0  0  0  0  0  0  0  0  0  0  0  0
   -9.2420   -4.4559    9.8965 H   0  0  0  0  0  0  0  0  0  0  0  0
   -8.8527   -3.7921   11.5332 H   0  0  0  0  0  0  0  0  0  0  0  0
   -2.0556   -3.8288    8.3286 H   0  0  0  0  0  0  0  0  0  0  0  0
   -3.8971   -1.2723    6.0105 H   0  0  0  0  0  0  0  0  0  0  0  0
   -4.2639    2.0517    3.2262 H   0  0  0  0  0  0  0  0  0  0  0  0
   -3.2718    3.3725    1.0031 H   0  0  0  0  0  0  0  0  0  0  0  0
   -3.2581    5.7762    1.5442 H   0  0  0  0  0  0  0  0  0  0  0  0
   -5.8819    8.4013    4.2712 H   0  0  0  0  0  0  0  0  0  0  0  0
   -6.2420    6.6528    4.0599 H   0  0  0  0  0  0  0  0  0  0  0  0
   -3.7977    6.1358    4.0632 H   0  0  0  0  0  0  0  0  0  0  0  0
   -3.4125    7.9052    4.1564 H   0  0  0  0  0  0  0  0  0  0  0  0
   -4.2417    7.0792    5.5286 H   0  0  0  0  0  0  0  0  0  0  0  0
   -7.5851    3.4015    0.9946 H   0  0  0  0  0  0  0  0  0  0  0  0
   -7.0290   -2.9785   -0.4469 H   0  0  0  0  0  0  0  0  0  0  0  0
   -6.6203   -5.2102   -1.4155 H   0  0  0  0  0  0  0  0  0  0  0  0
   -3.0278   -6.7003   -0.3448 H   0  0  0  0  0  0  0  0  0  0  0  0
   -3.1352   -8.2529   -1.2426 H   0  0  0  0  0  0  0  0  0  0  0  0
   -4.5578   -8.3747    0.7528 H   0  0  0  0  0  0  0  0  0  0  0  0
   -5.5979   -8.3868   -0.7209 H   0  0  0  0  0  0  0  0  0  0  0  0
   -5.4423   -6.8803    0.2749 H   0  0  0  0  0  0  0  0  0  0  0  0
   -2.8488   -2.0259   -0.8835 H   0  0  0  0  0  0  0  0  0  0  0  0
   -5.7179   -1.1384   -2.8917 H   0  0  0  0  0  0  0  0  0  0  0  0
   -5.3740   -0.8621   -5.1253 H   0  0  0  0  0  0  0  0  0  0  0  0
   -2.6957   -1.7500   -4.9247 H   0  0  0  0  0  0  0  0  0  0  0  0
   -2.8248   -4.2103   -4.8131 H   0  0  0  0  0  0  0  0  0  0  0  0
   -1.9505   -5.8765   -8.3908 H   0  0  0  0  0  0  0  0  0  0  0  0
   -2.1058   -7.5927   -7.8894 H   0  0  0  0  0  0  0  0  0  0  0  0
   -1.1255   -7.0131   -5.6300 H   0  0  0  0  0  0  0  0  0  0  0  0
   -0.8512   -5.3223   -6.2229 H   0  0  0  0  0  0  0  0  0  0  0  0
   -0.0025   -6.7017   -7.0073 H   0  0  0  0  0  0  0  0  0  0  0  0
   -4.2412   -1.8512   -8.9489 H   0  0  0  0  0  0  0  0  0  0  0  0
   -1.1896    4.0879   -5.5804 H   0  0  0  0  0  0  0  0  0  0  0  0
   -1.0411    6.5350   -5.3105 H   0  0  0  0  0  0  0  0  0  0  0  0
   -1.1601   10.0855   -7.4409 H   0  0  0  0  0  0  0  0  0  0  0  0
   -0.7463    8.3397   -7.6001 H   0  0  0  0  0  0  0  0  0  0  0  0
   -1.6187    9.3866   -9.7437 H   0  0  0  0  0  0  0  0  0  0  0  0
   -2.6527    8.0237   -9.1852 H   0  0  0  0  0  0  0  0  0  0  0  0
   -3.1861    9.7291   -8.9150 H   0  0  0  0  0  0  0  0  0  0  0  0
   -4.7440    4.5787   -7.9740 H   0  0  0  0  0  0  0  0  0  0  0  0
   -0.4893    3.2906   -7.8458 H   0  0  0  0  0  0  0  0  0  0  0  0
    0.9932    2.1417   -5.8084 H   0  0  0  0  0  0  0  0  0  0  0  0
    2.7983    3.8732   -4.4591 H   0  0  0  0  0  0  0  0  0  0  0  0
    1.2434    4.9225   -2.8591 H   0  0  0  0  0  0  0  0  0  0  0  0
    1.0322    3.1158    1.0783 H   0  0  0  0  0  0  0  0  0  0  0  0
    1.6732    4.6196    0.2931 H   0  0  0  0  0  0  0  0  0  0  0  0
   -0.1491    5.9553    1.3280 H   0  0  0  0  0  0  0  0  0  0  0  0
   -0.8277    4.4637    2.0920 H   0  0  0  0  0  0  0  0  0  0  0  0
    0.7970    5.0648    2.5880 H   0  0  0  0  0  0  0  0  0  0  0  0
    2.1956    0.0623   -2.5341 H   0  0  0  0  0  0  0  0  0  0  0  0
    4.4870   -2.8508   -7.2965 H   0  0  0  0  0  0  0  0  0  0  0  0
    5.8173   -4.2005   -8.8798 H   0  0  0  0  0  0  0  0  0  0  0  0
    7.2000   -4.3147  -12.6917 H   0  0  0  0  0  0  0  0  0  0  0  0
    5.9169   -3.5246  -11.7161 H   0  0  0  0  0  0  0  0  0  0  0  0
    6.5896   -2.1560  -13.7095 H   0  0  0  0  0  0  0  0  0  0  0  0
    6.9500   -1.2846  -12.1779 H   0  0  0  0  0  0  0  0  0  0  0  0
    8.2877   -2.0872  -13.0933 H   0  0  0  0  0  0  0  0  0  0  0  0
    6.8335    0.6246   -8.2946 H   0  0  0  0  0  0  0  0  0  0  0  0
    7.1259   -1.4114   -5.4368 H   0  0  0  0  0  0  0  0  0  0  0  0
   10.6824   -2.8764   -1.5651 H   0  0  0  0  0  0  0  0  0  0  0  0
    6.6489   -4.0699    2.7388 H   0  0  0  0  0  0  0  0  0  0  0  0
    9.1098   -2.7333    3.4544 H   0  0  0  0  0  0  0  0  0  0  0  0
    8.5202   -4.3005    4.1256 H   0  0  0  0  0  0  0  0  0  0  0  0
    9.5080   -4.2888    2.6063 H   0  0  0  0  0  0  0  0  0  0  0  0
    3.0115   -1.9379    1.4523 H   0  0  0  0  0  0  0  0  0  0  0  0
    3.8467   -1.1481    0.0739 H   0  0  0  0  0  0  0  0  0  0  0  0
    3.6965   -2.9519    0.1323 H   0  0  0  0  0  0  0  0  0  0  0  0
    6.0631   -1.3467    3.2495 H   0  0  0  0  0  0  0  0  0  0  0  0
    3.6354   -3.1991    3.3079 H   0  0  0  0  0  0  0  0  0  0  0  0
    5.8290   -1.9680    8.5162 H   0  0  0  0  0  0  0  0  0  0  0  0
    0.9507   -5.6791    9.0183 H   0  0  0  0  0  0  0  0  0  0  0  0
    2.3925   -4.0919   10.9550 H   0  0  0  0  0  0  0  0  0  0  0  0
    1.6808   -5.7299   11.2324 H   0  0  0  0  0  0  0  0  0  0  0  0
    3.3582   -5.5848   10.5842 H   0  0  0  0  0  0  0  0  0  0  0  0
    0.6573   -7.4678    7.0153 H   0  0  0  0  0  0  0  0  0  0  0  0
    2.2827   -7.1175    6.3058 H   0  0  0  0  0  0  0  0  0  0  0  0
    0.8436   -7.1641    5.2294 H   0  0  0  0  0  0  0  0  0  0  0  0
   -0.3909   -3.7407    6.3173 H   0  0  0  0  0  0  0  0  0  0  0  0
   -2.3661   -4.9977    5.8641 H   0  0  0  0  0  0  0  0  0  0  0  0
   -1.4271   -6.5994    5.9479 H   0  0  0  0  0  0  0  0  0  0  0  0
  1  2  2  0
  2  3  1  0
  3  4  2  0
  4  5  1  0
  5  6  2  0
  6  7  1  0
  7  8  2  0
  8  9  1  0
  9 10  1  0
 10 11  1  0
  8 12  1  0
 12 13  1  0
 12 14  2  0
  4 15  1  0
 15 16  2  0
 16 17  1  0
 17 18  1  0
 18 19  2  0
 19 20  1  0
 20 21  2  0
 21 22  1  0
 22 23  1  0
 23 24  1  0
 21 25  1  0
 25 26  2  0
 25 27  1  0
 17 28  2  0
 28 29  1  0
 16 30  1  0
 30 31  2  0
 31 32  1  0
 31 33  1  0
 33 34  2  0
 34 35  1  0
 35 36  2  0
 36 37  1  0
 37 38  2  0
 38 39  1  0
 39 40  2  0
 40 41  1  0
 41 42  1  0
 42 43  1  0
 40 44  1  0
 44 45  1  0
 44 46  2  0
 36 47  1  0
 47 48  2  0
 48 49  1  0
 49 50  1  0
 50 51  2  0
 51 52  1  0
 52 53  2  0
 53 54  1  0
 54 55  1  0
 55 56  1  0
 53 57  1  0
 57 58  2  0
 57 59  1  0
 49 60  2  0
 60 61  1  0
 48 62  1  0
 62 63  2  0
 63 64  1  0
 63 65  1  0
 65 66  2  0
 66 67  1  0
 67 68  2  0
 68 69  1  0
 69 70  2  0
 70 71  1  0
 71 72  2  0
 72 73  1  0
 73 74  1  0
 74 75  1  0
 72 76  1  0
 76 77  1  0
 76 78  2  0
 68 79  1  0
 79 80  2  0
 80 81  1  0
 81 82  1  0
 82 83  2  0
 83 84  1  0
 84 85  2  0
 85 86  1  0
 86 87  1  0
 87 88  1  0
 85 89  1  0
 89 90  2  0
 89 91  1  0
 81 92  2  0
 92 93  1  0
 80 94  1  0
 94 95  2  0
 95 96  1  0
 95 97  1  0
 97 98  2  0
 98 99  1  0
 99100  2  0
100101  1  0
101102  2  0
102103  1  0
103104  2  0
104105  1  0
105106  1  0
106107  1  0
104108  1  0
108109  1  0
108110  2  0
100111  1  0
111112  2  0
112113  1  0
113114  1  0
114115  2  0
115116  1  0
116117  2  0
117118  1  0
118119  1  0
119120  1  0
117121  1  0
121122  2  0
121123  1  0
113124  2  0
124125  1  0
112126  1  0
126127  2  0
127128  1  0
127129  1  0
129130  1  0
130131  1  0
131132  2  0
132133  1  0
133134  1  0
134135  2  0
135136  1  0
136137  1  0
137138  1  0
136139  2  0
135140  1  0
140141  1  0
140142  1  0
142143  2  3
143144  1  0
144145  1  0
145146  1  0
146147  2  0
147148  1  0
148149  1  0
149150  2  0
150151  1  0
151152  1  0
152153  1  0
151154  2  0
150155  1  0
155156  1  0
155157  1  0
157158  2  3
 29  1  1  0
 61 33  1  0
 93 65  1  0
125 97  1  0
133129  2  0
148144  2  0
 28  3  1  0
 60 35  1  0
 92 67  1  0
124 99  1  0
139132  1  0
154147  1  0
 14  5  1  0
 32 15  1  0
 46 37  1  0
 64 47  1  0
 78 69  1  0
 96 79  1  0
110101  1  0
128111  1  0
 26 18  1  0
 58 50  1  0
 90 82  1  0
122114  1  0
  1159  1  0
  2160  1  0
  6161  1  0
  7162  1  0
 10163  1  0
 10164  1  0
 11165  1  0
 11166  1  0
 11167  1  0
 14168  1  0
 19169  1  0
 20170  1  0
 23171  1  0
 23172  1  0
 24173  1  0
 24174  1  0
 24175  1  0
 26176  1  0
 30177  1  0
 34178  1  0
 38179  1  0
 39180  1  0
 42181  1  0
 42182  1  0
 43183  1  0
 43184  1  0
 43185  1  0
 46186  1  0
 51187  1  0
 52188  1  0
 55189  1  0
 55190  1  0
 56191  1  0
 56192  1  0
 56193  1  0
 58194  1  0
 62195  1  0
 66196  1  0
 70197  1  0
 71198  1  0
 74199  1  0
 74200  1  0
 75201  1  0
 75202  1  0
 75203  1  0
 78204  1  0
 83205  1  0
 84206  1  0
 87207  1  0
 87208  1  0
 88209  1  0
 88210  1  0
 88211  1  0
 90212  1  0
 94213  1  0
 98214  1  0
102215  1  0
103216  1  0
106217  1  0
106218  1  0
107219  1  0
107220  1  0
107221  1  0
110222  1  0
115223  1  0
116224  1  0
119225  1  0
119226  1  0
120227  1  0
120228  1  0
120229  1  0
122230  1  0
126231  1  0
131232  1  0
137233  1  0
138234  1  0
138235  1  0
138236  1  0
141237  1  0
141238  1  0
141239  1  0
142240  1  0
143241  1  0
146242  1  0
152243  1  0
153244  1  0
153245  1  0
153246  1  0
156247  1  0
156248  1  0
156249  1  0
157250  1  0
158251  1  0
158252  1  0
M  END

