
     RDKit          3D

220243  0  0  0  0  0  0  0  0999 V2000
    5.5120   -4.2744    8.3257 C   0  0  0  0  0  0  0  0  0  0  0  0
    6.0766   -3.0024    8.3172 C   0  0  0  0  0  0  0  0  0  0  0  0
    5.1397   -1.9852    8.0655 C   0  0  0  0  0  0  0  0  0  0  0  0
    5.4109   -0.6028    7.9705 C   0  0  0  0  0  0  0  0  0  0  0  0
    6.7823   -0.0638    8.0347 C   0  0  0  0  0  0  0  0  0  0  0  0
    7.3051    1.1076    9.1259 S   0  0  0  0  0  0  0  0  0  0  0  0
    8.8393    1.3016    8.4580 C   0  0  0  0  0  0  0  0  0  0  0  0
    9.8424    2.3171    8.9191 C   0  0  0  0  0  0  0  0  0  0  0  0
    9.6193    3.6490    8.2097 C   0  0  0  0  0  0  0  0  0  0  0  0
    8.9496    0.4719    7.3407 C   0  0  0  0  0  0  0  0  0  0  0  0
   10.3599    0.4326    6.2911 Cl  0  0  0  0  0  0  0  0  0  0  0  0
    7.7972   -0.2952    7.1052 C   0  0  0  0  0  0  0  0  0  0  0  0
    7.6141   -1.3621    5.7139 Cl  0  0  0  0  0  0  0  0  0  0  0  0
    4.3170    0.2449    7.7206 C   0  0  0  0  0  0  0  0  0  0  0  0
    3.0191   -0.2447    7.5216 C   0  0  0  0  0  0  0  0  0  0  0  0
    2.7476   -1.6273    7.6118 C   0  0  0  0  0  0  0  0  0  0  0  0
    1.3951   -2.1692    7.3837 C   0  0  0  0  0  0  0  0  0  0  0  0
    0.5396   -2.0302    5.9380 S   0  0  0  0  0  0  0  0  0  0  0  0
   -0.8954   -2.6925    6.5092 C   0  0  0  0  0  0  0  0  0  0  0  0
   -2.1618   -2.7949    5.7127 C   0  0  0  0  0  0  0  0  0  0  0  0
   -2.3979   -4.2182    5.2297 C   0  0  0  0  0  0  0  0  0  0  0  0
   -0.7172   -3.0565    7.8459 C   0  0  0  0  0  0  0  0  0  0  0  0
    0.5654   -2.7589    8.3359 C   0  0  0  0  0  0  0  0  0  0  0  0
    1.0407   -3.0110   10.0115 Cl  0  0  0  0  0  0  0  0  0  0  0  0
   -1.9838   -3.7638    8.8405 Cl  0  0  0  0  0  0  0  0  0  0  0  0
    3.8377   -2.4701    7.8943 C   0  0  0  0  0  0  0  0  0  0  0  0
    3.8572   -4.1479    8.0241 S   0  0  0  0  0  0  0  0  0  0  0  0
    2.0978    0.7626    7.2114 C   0  0  0  0  0  0  0  0  0  0  0  0
    2.6709    2.0304    7.1671 C   0  0  0  0  0  0  0  0  0  0  0  0
    4.3151    1.9186    7.5148 S   0  0  0  0  0  0  0  0  0  0  0  0
    1.9800    3.2464    6.7347 C   0  0  0  0  0  0  0  0  0  0  0  0
    2.1684    4.8000    7.3688 S   0  0  0  0  0  0  0  0  0  0  0  0
    1.0857    5.5864    6.3287 C   0  0  0  0  0  0  0  0  0  0  0  0
    0.5961    4.6216    5.4582 C   0  0  0  0  0  0  0  0  0  0  0  0
    1.0889    3.3385    5.6805 C   0  0  0  0  0  0  0  0  0  0  0  0
    0.7856    2.3304    4.8319 N   0  0  0  0  0  0  0  0  0  0  0  0
   -0.0333    2.5535    3.7677 C   0  0  0  0  0  0  0  0  0  0  0  0
   -0.5988    3.8463    3.5784 C   0  0  0  0  0  0  0  0  0  0  0  0
   -1.5360    4.0949    2.5163 N   0  0  0  0  0  0  0  0  0  0  0  0
   -2.0110    5.4378    2.2085 C   0  0  0  0  0  0  0  0  0  0  0  0
   -0.2498    4.8618    4.4273 N   0  0  0  0  0  0  0  0  0  0  0  0
   -0.1967    1.5127    2.7907 N   0  0  0  0  0  0  0  0  0  0  0  0
   -0.5462    0.1652    3.2474 C   0  0  0  0  0  0  0  0  0  0  0  0
    0.3167    1.7626    1.4654 C   0  0  0  0  0  0  0  0  0  0  0  0
    0.5955    0.7886    0.5880 C   0  0  0  0  0  0  0  0  0  0  0  0
    1.0750    1.0798   -0.7748 C   0  0  0  0  0  0  0  0  0  0  0  0
    1.2357    0.1205   -1.7667 C   0  0  0  0  0  0  0  0  0  0  0  0
    1.5157    0.6729   -3.0293 C   0  0  0  0  0  0  0  0  0  0  0  0
    1.5586   -0.0263   -4.2527 C   0  0  0  0  0  0  0  0  0  0  0  0
    1.3432   -1.4852   -4.3218 C   0  0  0  0  0  0  0  0  0  0  0  0
   -0.0342   -2.2847   -3.7730 S   0  0  0  0  0  0  0  0  0  0  0  0
    0.4722   -3.8282   -4.2033 C   0  0  0  0  0  0  0  0  0  0  0  0
   -0.3334   -5.0724   -3.9969 C   0  0  0  0  0  0  0  0  0  0  0  0
   -1.0780   -5.4479   -5.2714 C   0  0  0  0  0  0  0  0  0  0  0  0
    1.7211   -3.7355   -4.8178 C   0  0  0  0  0  0  0  0  0  0  0  0
    2.6104   -5.1222   -5.4316 Cl  0  0  0  0  0  0  0  0  0  0  0  0
    2.2090   -2.4211   -4.8878 C   0  0  0  0  0  0  0  0  0  0  0  0
    3.7822   -2.0022   -5.5590 Cl  0  0  0  0  0  0  0  0  0  0  0  0
    1.6133    0.7498   -5.4258 C   0  0  0  0  0  0  0  0  0  0  0  0
    1.6600    2.1470   -5.4065 C   0  0  0  0  0  0  0  0  0  0  0  0
    1.7319    2.8378   -4.1797 C   0  0  0  0  0  0  0  0  0  0  0  0
    1.7250    4.3098   -4.1030 C   0  0  0  0  0  0  0  0  0  0  0  0
    0.4163    5.2927   -4.4972 S   0  0  0  0  0  0  0  0  0  0  0  0
    1.1343    6.7424   -4.0333 C   0  0  0  0  0  0  0  0  0  0  0  0
    0.4577    8.0767   -4.0784 C   0  0  0  0  0  0  0  0  0  0  0  0
   -0.1583    8.4211   -2.7284 C   0  0  0  0  0  0  0  0  0  0  0  0
    2.4031    6.4695   -3.5241 C   0  0  0  0  0  0  0  0  0  0  0  0
    2.7289    5.1048   -3.5543 C   0  0  0  0  0  0  0  0  0  0  0  0
    4.2572    4.4600   -2.9669 Cl  0  0  0  0  0  0  0  0  0  0  0  0
    3.4753    7.7042   -2.8812 Cl  0  0  0  0  0  0  0  0  0  0  0  0
    1.6235    2.0664   -3.0090 C   0  0  0  0  0  0  0  0  0  0  0  0
    1.3264    2.6146   -1.4458 S   0  0  0  0  0  0  0  0  0  0  0  0
    1.3691    2.7275   -6.6558 C   0  0  0  0  0  0  0  0  0  0  0  0
    0.9168    1.8099   -7.6146 C   0  0  0  0  0  0  0  0  0  0  0  0
    1.1490    0.2624   -6.9595 S   0  0  0  0  0  0  0  0  0  0  0  0
   -0.2761    2.1038   -8.4551 C   0  0  0  0  0  0  0  0  0  0  0  0
   -1.2249    1.0980   -8.6861 C   0  0  0  0  0  0  0  0  0  0  0  0
   -2.5425    1.4846   -8.3929 C   0  0  0  0  0  0  0  0  0  0  0  0
   -3.5711    0.5807   -8.0578 C   0  0  0  0  0  0  0  0  0  0  0  0
   -3.4868   -0.8544   -8.4207 C   0  0  0  0  0  0  0  0  0  0  0  0
   -3.6383   -2.1637   -7.3647 S   0  0  0  0  0  0  0  0  0  0  0  0
   -3.5050   -3.3685   -8.5276 C   0  0  0  0  0  0  0  0  0  0  0  0
   -3.7201   -4.8280   -8.2656 C   0  0  0  0  0  0  0  0  0  0  0  0
   -5.1735   -5.2125   -8.5342 C   0  0  0  0  0  0  0  0  0  0  0  0
   -3.3442   -2.7616   -9.7744 C   0  0  0  0  0  0  0  0  0  0  0  0
   -3.2282   -3.6633  -11.2787 Cl  0  0  0  0  0  0  0  0  0  0  0  0
   -3.3258   -1.3591   -9.7126 C   0  0  0  0  0  0  0  0  0  0  0  0
   -3.2018   -0.3416  -11.1437 Cl  0  0  0  0  0  0  0  0  0  0  0  0
   -4.5963    1.0823   -7.2361 C   0  0  0  0  0  0  0  0  0  0  0  0
   -4.6998    2.4382   -6.9043 C   0  0  0  0  0  0  0  0  0  0  0  0
   -3.7876    3.3779   -7.4270 C   0  0  0  0  0  0  0  0  0  0  0  0
   -3.9308    4.8197   -7.1285 C   0  0  0  0  0  0  0  0  0  0  0  0
   -2.7817    5.8091   -6.3908 S   0  0  0  0  0  0  0  0  0  0  0  0
   -3.7073    7.2127   -6.3929 C   0  0  0  0  0  0  0  0  0  0  0  0
   -3.2226    8.5574   -5.9440 C   0  0  0  0  0  0  0  0  0  0  0  0
   -2.5094    9.2818   -7.0855 C   0  0  0  0  0  0  0  0  0  0  0  0
   -4.9364    6.9285   -6.9851 C   0  0  0  0  0  0  0  0  0  0  0  0
   -5.0645    5.5922   -7.3883 C   0  0  0  0  0  0  0  0  0  0  0  0
   -6.4928    4.9745   -8.2050 Cl  0  0  0  0  0  0  0  0  0  0  0  0
   -6.1934    8.1308   -7.2280 Cl  0  0  0  0  0  0  0  0  0  0  0  0
   -2.6708    2.8494   -8.1067 C   0  0  0  0  0  0  0  0  0  0  0  0
   -1.1466    3.5354   -8.2001 S   0  0  0  0  0  0  0  0  0  0  0  0
   -5.5971    2.6837   -5.8488 C   0  0  0  0  0  0  0  0  0  0  0  0
   -6.1606    1.5198   -5.3358 C   0  0  0  0  0  0  0  0  0  0  0  0
   -5.6141    0.2032   -6.2309 S   0  0  0  0  0  0  0  0  0  0  0  0
   -6.7131    1.4117   -3.9817 C   0  0  0  0  0  0  0  0  0  0  0  0
   -7.7652    2.5060   -3.2415 S   0  0  0  0  0  0  0  0  0  0  0  0
   -7.7465    1.8145   -1.6987 C   0  0  0  0  0  0  0  0  0  0  0  0
   -6.8799    0.7333   -1.7513 C   0  0  0  0  0  0  0  0  0  0  0  0
   -6.3049    0.5135   -2.9994 C   0  0  0  0  0  0  0  0  0  0  0  0
   -5.3811   -0.4641   -3.1613 N   0  0  0  0  0  0  0  0  0  0  0  0
   -5.0211   -1.2683   -2.1160 C   0  0  0  0  0  0  0  0  0  0  0  0
   -5.6516   -1.0749   -0.8472 C   0  0  0  0  0  0  0  0  0  0  0  0
   -5.4165   -1.9595    0.2566 N   0  0  0  0  0  0  0  0  0  0  0  0
   -5.7084   -1.5645    1.6310 C   0  0  0  0  0  0  0  0  0  0  0  0
   -6.5542   -0.0560   -0.7001 N   0  0  0  0  0  0  0  0  0  0  0  0
   -4.0383   -2.3035   -2.3470 N   0  0  0  0  0  0  0  0  0  0  0  0
   -4.0779   -3.0737   -3.6001 C   0  0  0  0  0  0  0  0  0  0  0  0
   -3.0037   -2.5824   -1.3832 C   0  0  0  0  0  0  0  0  0  0  0  0
   -2.7298   -3.8421   -1.0338 C   0  0  0  0  0  0  0  0  0  0  0  0
   -1.7670   -4.2152    0.0153 C   0  0  0  0  0  0  0  0  0  0  0  0
   -0.5724   -3.5758    0.3580 C   0  0  0  0  0  0  0  0  0  0  0  0
    0.1799   -4.3047    1.3071 C   0  0  0  0  0  0  0  0  0  0  0  0
    1.4532   -3.9637    1.8153 C   0  0  0  0  0  0  0  0  0  0  0  0
    2.2322   -2.8160    1.3049 C   0  0  0  0  0  0  0  0  0  0  0  0
    2.9086   -1.6093    2.2677 S   0  0  0  0  0  0  0  0  0  0  0  0
    3.8403   -0.9055    1.0594 C   0  0  0  0  0  0  0  0  0  0  0  0
    4.7916    0.2340    1.2653 C   0  0  0  0  0  0  0  0  0  0  0  0
    4.2351    1.5363    0.6968 C   0  0  0  0  0  0  0  0  0  0  0  0
    3.6433   -1.6155   -0.1253 C   0  0  0  0  0  0  0  0  0  0  0  0
    4.4753   -1.2525   -1.6295 Cl  0  0  0  0  0  0  0  0  0  0  0  0
    2.7472   -2.6895    0.0165 C   0  0  0  0  0  0  0  0  0  0  0  0
    2.4261   -3.8422   -1.2734 Cl  0  0  0  0  0  0  0  0  0  0  0  0
    2.0238   -4.8551    2.7442 C   0  0  0  0  0  0  0  0  0  0  0  0
    1.3985   -6.0428    3.1438 C   0  0  0  0  0  0  0  0  0  0  0  0
    0.1223   -6.3806    2.6448 C   0  0  0  0  0  0  0  0  0  0  0  0
   -0.5761   -7.6272    3.0320 C   0  0  0  0  0  0  0  0  0  0  0  0
   -1.1180   -8.7958    1.9441 S   0  0  0  0  0  0  0  0  0  0  0  0
   -1.7997   -9.8189    3.0902 C   0  0  0  0  0  0  0  0  0  0  0  0
   -2.4503  -11.1322    2.7790 C   0  0  0  0  0  0  0  0  0  0  0  0
   -1.4325  -12.2676    2.8329 C   0  0  0  0  0  0  0  0  0  0  0  0
   -1.5925   -9.2701    4.3544 C   0  0  0  0  0  0  0  0  0  0  0  0
   -0.9096   -8.0422    4.3254 C   0  0  0  0  0  0  0  0  0  0  0  0
   -0.5652   -7.1113    5.7785 Cl  0  0  0  0  0  0  0  0  0  0  0  0
   -2.1340  -10.0326    5.8434 Cl  0  0  0  0  0  0  0  0  0  0  0  0
   -0.4486   -5.4878    1.7163 C   0  0  0  0  0  0  0  0  0  0  0  0
   -1.9042   -5.6439    0.8925 S   0  0  0  0  0  0  0  0  0  0  0  0
    2.1993   -6.8311    3.9874 C   0  0  0  0  0  0  0  0  0  0  0  0
    3.4326   -6.2531    4.2695 C   0  0  0  0  0  0  0  0  0  0  0  0
    3.5495   -4.7845    3.4548 S   0  0  0  0  0  0  0  0  0  0  0  0
    6.0514   -5.1955    8.4931 H   0  0  0  0  0  0  0  0  0  0  0  0
    7.1351   -2.8268    8.4826 H   0  0  0  0  0  0  0  0  0  0  0  0
   10.8766    1.9519    8.7240 H   0  0  0  0  0  0  0  0  0  0  0  0
    9.7345    2.4652   10.0148 H   0  0  0  0  0  0  0  0  0  0  0  0
   10.3717    4.3832    8.5648 H   0  0  0  0  0  0  0  0  0  0  0  0
    8.6030    4.0391    8.4363 H   0  0  0  0  0  0  0  0  0  0  0  0
    9.7275    3.5250    7.1124 H   0  0  0  0  0  0  0  0  0  0  0  0
   -2.1066   -2.1220    4.8323 H   0  0  0  0  0  0  0  0  0  0  0  0
   -3.0168   -2.4634    6.3353 H   0  0  0  0  0  0  0  0  0  0  0  0
   -2.5169   -4.9064    6.0929 H   0  0  0  0  0  0  0  0  0  0  0  0
   -3.3295   -4.2562    4.6247 H   0  0  0  0  0  0  0  0  0  0  0  0
   -1.5505   -4.5551    4.5962 H   0  0  0  0  0  0  0  0  0  0  0  0
    1.0451    0.5868    7.0233 H   0  0  0  0  0  0  0  0  0  0  0  0
    0.8587    6.6443    6.3107 H   0  0  0  0  0  0  0  0  0  0  0  0
   -1.9221    3.2969    1.9632 H   0  0  0  0  0  0  0  0  0  0  0  0
   -1.1590    6.0733    1.8854 H   0  0  0  0  0  0  0  0  0  0  0  0
   -2.4918    5.8895    3.1033 H   0  0  0  0  0  0  0  0  0  0  0  0
   -2.7601    5.3968    1.3878 H   0  0  0  0  0  0  0  0  0  0  0  0
   -1.0884    0.2088    4.2155 H   0  0  0  0  0  0  0  0  0  0  0  0
   -1.2122   -0.3295    2.5111 H   0  0  0  0  0  0  0  0  0  0  0  0
    0.3775   -0.4361    3.3809 H   0  0  0  0  0  0  0  0  0  0  0  0
    0.5108    2.7888    1.1803 H   0  0  0  0  0  0  0  0  0  0  0  0
    0.4537   -0.2518    0.8526 H   0  0  0  0  0  0  0  0  0  0  0  0
    1.0791   -0.9316   -1.5851 H   0  0  0  0  0  0  0  0  0  0  0  0
   -1.0666   -4.9079   -3.1824 H   0  0  0  0  0  0  0  0  0  0  0  0
    0.3322   -5.9066   -3.6877 H   0  0  0  0  0  0  0  0  0  0  0  0
   -1.6984   -4.5950   -5.6184 H   0  0  0  0  0  0  0  0  0  0  0  0
   -0.3576   -5.7236   -6.0686 H   0  0  0  0  0  0  0  0  0  0  0  0
   -1.7376   -6.3193   -5.0708 H   0  0  0  0  0  0  0  0  0  0  0  0
   -0.3354    8.0502   -4.8481 H   0  0  0  0  0  0  0  0  0  0  0  0
    1.1853    8.8623   -4.3709 H   0  0  0  0  0  0  0  0  0  0  0  0
    0.6365    8.5314   -1.9632 H   0  0  0  0  0  0  0  0  0  0  0  0
   -0.8683    7.6299   -2.4064 H   0  0  0  0  0  0  0  0  0  0  0  0
   -0.7060    9.3850   -2.8046 H   0  0  0  0  0  0  0  0  0  0  0  0
    1.2459    3.7943   -6.7836 H   0  0  0  0  0  0  0  0  0  0  0  0
   -0.9448    0.0571   -8.7718 H   0  0  0  0  0  0  0  0  0  0  0  0
   -3.0426   -5.4329   -8.9079 H   0  0  0  0  0  0  0  0  0  0  0  0
   -3.4788   -5.0537   -7.2053 H   0  0  0  0  0  0  0  0  0  0  0  0
   -5.4130   -5.0703   -9.6084 H   0  0  0  0  0  0  0  0  0  0  0  0
   -5.3310   -6.2800   -8.2707 H   0  0  0  0  0  0  0  0  0  0  0  0
   -5.8589   -4.5900   -7.9197 H   0  0  0  0  0  0  0  0  0  0  0  0
   -2.5308    8.4333   -5.0863 H   0  0  0  0  0  0  0  0  0  0  0  0
   -4.0765    9.1762   -5.5864 H   0  0  0  0  0  0  0  0  0  0  0  0
   -2.0682   10.2295   -6.7079 H   0  0  0  0  0  0  0  0  0  0  0  0
   -1.6896    8.6528   -7.4975 H   0  0  0  0  0  0  0  0  0  0  0  0
   -3.2306    9.5205   -7.8980 H   0  0  0  0  0  0  0  0  0  0  0  0
   -5.7033    3.6448   -5.3629 H   0  0  0  0  0  0  0  0  0  0  0  0
   -8.2788    2.1697   -0.8270 H   0  0  0  0  0  0  0  0  0  0  0  0
   -5.0787   -2.9308    0.0957 H   0  0  0  0  0  0  0  0  0  0  0  0
   -6.8036   -1.4612    1.7668 H   0  0  0  0  0  0  0  0  0  0  0  0
   -5.2094   -0.5989    1.8560 H   0  0  0  0  0  0  0  0  0  0  0  0
   -5.3287   -2.3366    2.3293 H   0  0  0  0  0  0  0  0  0  0  0  0
   -4.6266   -2.5331   -4.3942 H   0  0  0  0  0  0  0  0  0  0  0  0
   -4.5834   -4.0474   -3.4291 H   0  0  0  0  0  0  0  0  0  0  0  0
   -3.0494   -3.2532   -3.9714 H   0  0  0  0  0  0  0  0  0  0  0  0
   -2.5226   -1.7593   -0.8695 H   0  0  0  0  0  0  0  0  0  0  0  0
   -3.3173   -4.6433   -1.4599 H   0  0  0  0  0  0  0  0  0  0  0  0
   -0.2386   -2.6503   -0.0899 H   0  0  0  0  0  0  0  0  0  0  0  0
    5.7581   -0.0011    0.7725 H   0  0  0  0  0  0  0  0  0  0  0  0
    4.9879    0.3658    2.3526 H   0  0  0  0  0  0  0  0  0  0  0  0
    4.0256    1.4301   -0.3884 H   0  0  0  0  0  0  0  0  0  0  0  0
    3.3022    1.8182    1.2267 H   0  0  0  0  0  0  0  0  0  0  0  0
    4.9784    2.3486    0.8323 H   0  0  0  0  0  0  0  0  0  0  0  0
   -3.2693  -11.3330    3.5007 H   0  0  0  0  0  0  0  0  0  0  0  0
   -2.8989  -11.0919    1.7649 H   0  0  0  0  0  0  0  0  0  0  0  0
   -0.6171  -12.0894    2.0996 H   0  0  0  0  0  0  0  0  0  0  0  0
   -1.9371  -13.2239    2.5762 H   0  0  0  0  0  0  0  0  0  0  0  0
   -0.9993  -12.3521    3.8531 H   0  0  0  0  0  0  0  0  0  0  0  0
    1.9107   -7.8003    4.3670 H   0  0  0  0  0  0  0  0  0  0  0  0
    4.1997   -6.6904    4.8909 H   0  0  0  0  0  0  0  0  0  0  0  0
  1  2  2  0
  2  3  1  0
  3  4  2  0
  4  5  1  0
  5  6  1  0
  6  7  1  0
  7  8  1  0
  8  9  1  0
  7 10  2  0
 10 11  1  0
 10 12  1  0
 12 13  1  0
  4 14  1  0
 14 15  2  0
 15 16  1  0
 16 17  1  0
 17 18  1  0
 18 19  1  0
 19 20  1  0
 20 21  1  0
 19 22  2  0
 22 23  1  0
 23 24  1  0
 22 25  1  0
 16 26  2  0
 26 27  1  0
 15 28  1  0
 28 29  2  0
 29 30  1  0
 29 31  1  0
 31 32  1  0
 32 33  1  0
 33 34  2  0
 34 35  1  0
 35 36  1  0
 36 37  2  0
 37 38  1  0
 38 39  1  0
 39 40  1  0
 38 41  2  0
 37 42  1  0
 42 43  1  0
 42 44  1  0
 44 45  2  3
 45 46  1  0
 46 47  2  0
 47 48  1  0
 48 49  2  0
 49 50  1  0
 50 51  1  0
 51 52  1  0
 52 53  1  0
 53 54  1  0
 52 55  2  0
 55 56  1  0
 55 57  1  0
 57 58  1  0
 49 59  1  0
 59 60  2  0
 60 61  1  0
 61 62  1  0
 62 63  1  0
 63 64  1  0
 64 65  1  0
 65 66  1  0
 64 67  2  0
 67 68  1  0
 68 69  1  0
 67 70  1  0
 61 71  2  0
 71 72  1  0
 60 73  1  0
 73 74  2  0
 74 75  1  0
 74 76  1  0
 76 77  2  0
 77 78  1  0
 78 79  2  0
 79 80  1  0
 80 81  1  0
 81 82  1  0
 82 83  1  0
 83 84  1  0
 82 85  2  0
 85 86  1  0
 85 87  1  0
 87 88  1  0
 79 89  1  0
 89 90  2  0
 90 91  1  0
 91 92  1  0
 92 93  1  0
 93 94  1  0
 94 95  1  0
 95 96  1  0
 94 97  2  0
 97 98  1  0
 98 99  1  0
 97100  1  0
 91101  2  0
101102  1  0
 90103  1  0
103104  2  0
104105  1  0
104106  1  0
106107  1  0
107108  1  0
108109  2  0
109110  1  0
110111  1  0
111112  2  0
112113  1  0
113114  1  0
114115  1  0
113116  2  0
112117  1  0
117118  1  0
117119  1  0
119120  2  3
120121  1  0
121122  2  0
122123  1  0
123124  2  0
124125  1  0
125126  1  0
126127  1  0
127128  1  0
128129  1  0
127130  2  0
130131  1  0
130132  1  0
132133  1  0
124134  1  0
134135  2  0
135136  1  0
136137  1  0
137138  1  0
138139  1  0
139140  1  0
140141  1  0
139142  2  0
142143  1  0
143144  1  0
142145  1  0
136146  2  0
146147  1  0
135148  1  0
148149  2  0
149150  1  0
 27  1  1  0
 35 31  2  0
 72 46  1  0
102 76  1  0
110106  2  0
147121  1  0
 26  3  1  0
 41 34  1  0
 71 48  1  0
101 78  1  0
116109  1  0
146123  1  0
 12  5  2  0
 30 14  1  0
 57 50  2  0
 75 59  1  0
 87 80  2  0
105 89  1  0
132125  2  0
150134  1  0
 23 17  2  0
 68 62  2  0
 98 92  2  0
143137  2  0
  1151  1  0
  2152  1  0
  8153  1  0
  8154  1  0
  9155  1  0
  9156  1  0
  9157  1  0
 20158  1  0
 20159  1  0
 21160  1  0
 21161  1  0
 21162  1  0
 28163  1  0
 33164  1  0
 39165  1  0
 40166  1  0
 40167  1  0
 40168  1  0
 43169  1  0
 43170  1  0
 43171  1  0
 44172  1  0
 45173  1  0
 47174  1  0
 53175  1  0
 53176  1  0
 54177  1  0
 54178  1  0
 54179  1  0
 65180  1  0
 65181  1  0
 66182  1  0
 66183  1  0
 66184  1  0
 73185  1  0
 77186  1  0
 83187  1  0
 83188  1  0
 84189  1  0
 84190  1  0
 84191  1  0
 95192  1  0
 95193  1  0
 96194  1  0
 96195  1  0
 96196  1  0
103197  1  0
108198  1  0
114199  1  0
115200  1  0
115201  1  0
115202  1  0
118203  1  0
118204  1  0
118205  1  0
119206  1  0
120207  1  0
122208  1  0
128209  1  0
128210  1  0
129211  1  0
129212  1  0
129213  1  0
140214  1  0
140215  1  0
141216  1  0
141217  1  0
141218  1  0
148219  1  0
149220  1  0
M  END

