
     RDKit          3D

286315  0  0  0  0  0  0  0  0999 V2000
   -3.6610  -11.3301    8.1984 C   0  0  0  0  0  0  0  0  0  0  0  0
   -3.4688  -10.0512    7.6849 C   0  0  0  0  0  0  0  0  0  0  0  0
   -3.3881  -10.0210    6.2788 C   0  0  0  0  0  0  0  0  0  0  0  0
   -3.2006   -8.8801    5.4815 C   0  0  0  0  0  0  0  0  0  0  0  0
   -3.0344   -7.5442    6.0853 C   0  0  0  0  0  0  0  0  0  0  0  0
   -1.7503   -7.0129    6.2753 C   0  0  0  0  0  0  0  0  0  0  0  0
   -1.5873   -5.7982    6.9414 C   0  0  0  0  0  0  0  0  0  0  0  0
   -2.7037   -5.0989    7.4128 C   0  0  0  0  0  0  0  0  0  0  0  0
   -2.4709   -3.5918    8.3626 S   0  0  0  0  0  0  0  0  0  0  0  0
   -2.3546   -4.4885    9.9485 C   0  0  0  0  0  0  0  0  0  0  0  0
   -2.0641   -3.5187   11.0836 C   0  0  0  0  0  0  0  0  0  0  0  0
   -3.9920   -5.6066    7.1900 C   0  0  0  0  0  0  0  0  0  0  0  0
   -5.0827   -4.9406    7.6473 F   0  0  0  0  0  0  0  0  0  0  0  0
   -4.1571   -6.8268    6.5292 C   0  0  0  0  0  0  0  0  0  0  0  0
   -3.1664   -9.0735    4.0922 C   0  0  0  0  0  0  0  0  0  0  0  0
   -3.2987  -10.3317    3.4930 C   0  0  0  0  0  0  0  0  0  0  0  0
   -3.4593  -11.4860    4.2975 C   0  0  0  0  0  0  0  0  0  0  0  0
   -3.5627  -12.8529    3.7366 C   0  0  0  0  0  0  0  0  0  0  0  0
   -4.5955  -13.1952    2.8430 C   0  0  0  0  0  0  0  0  0  0  0  0
   -4.7667  -14.5214    2.4329 C   0  0  0  0  0  0  0  0  0  0  0  0
   -3.9145  -15.5254    2.9190 C   0  0  0  0  0  0  0  0  0  0  0  0
   -4.2312  -17.2449    2.5121 S   0  0  0  0  0  0  0  0  0  0  0  0
   -2.9992  -17.3480    1.1611 C   0  0  0  0  0  0  0  0  0  0  0  0
   -2.1878  -18.6263    1.3110 C   0  0  0  0  0  0  0  0  0  0  0  0
   -2.8592  -15.1871    3.7752 C   0  0  0  0  0  0  0  0  0  0  0  0
   -2.6826  -13.8579    4.1764 C   0  0  0  0  0  0  0  0  0  0  0  0
   -2.0286  -16.1443    4.2578 F   0  0  0  0  0  0  0  0  0  0  0  0
   -3.5091  -11.2835    5.6925 C   0  0  0  0  0  0  0  0  0  0  0  0
   -3.7325  -12.4240    6.9147 S   0  0  0  0  0  0  0  0  0  0  0  0
   -3.2261  -10.2784    2.0861 C   0  0  0  0  0  0  0  0  0  0  0  0
   -3.0516   -8.9792    1.5998 C   0  0  0  0  0  0  0  0  0  0  0  0
   -2.9691   -7.9079    2.9066 S   0  0  0  0  0  0  0  0  0  0  0  0
   -2.9022   -8.5696    0.1918 C   0  0  0  0  0  0  0  0  0  0  0  0
   -2.4562   -7.3131   -0.2055 C   0  0  0  0  0  0  0  0  0  0  0  0
   -2.3747   -7.1693   -1.5960 C   0  0  0  0  0  0  0  0  0  0  0  0
   -1.9280   -6.0256   -2.2812 C   0  0  0  0  0  0  0  0  0  0  0  0
   -1.5011   -4.8009   -1.5681 C   0  0  0  0  0  0  0  0  0  0  0  0
   -0.2159   -4.7083   -0.4812 S   0  0  0  0  0  0  0  0  0  0  0  0
   -0.4278   -3.0836   -0.0947 C   0  0  0  0  0  0  0  0  0  0  0  0
    0.3411   -2.3516    0.9703 C   0  0  0  0  0  0  0  0  0  0  0  0
   -0.4060   -2.4084    2.3022 C   0  0  0  0  0  0  0  0  0  0  0  0
   -1.5305   -2.5959   -0.7966 C   0  0  0  0  0  0  0  0  0  0  0  0
   -2.1373   -0.9551   -0.6306 Cl  0  0  0  0  0  0  0  0  0  0  0  0
   -2.1303   -3.5565   -1.6227 C   0  0  0  0  0  0  0  0  0  0  0  0
   -3.6028   -3.2384   -2.5392 Cl  0  0  0  0  0  0  0  0  0  0  0  0
   -1.9098   -6.0948   -3.6819 C   0  0  0  0  0  0  0  0  0  0  0  0
   -2.3791   -7.2053   -4.3969 C   0  0  0  0  0  0  0  0  0  0  0  0
   -2.8306   -8.3521   -3.7074 C   0  0  0  0  0  0  0  0  0  0  0  0
   -3.2766   -9.5621   -4.4150 C   0  0  0  0  0  0  0  0  0  0  0  0
   -4.5550  -10.1065   -4.3622 C   0  0  0  0  0  0  0  0  0  0  0  0
   -4.6811  -11.2966   -5.0895 C   0  0  0  0  0  0  0  0  0  0  0  0
   -3.4908  -11.6948   -5.6960 C   0  0  0  0  0  0  0  0  0  0  0  0
   -3.3073  -12.9035   -6.5600 C   0  0  0  0  0  0  0  0  0  0  0  0
   -3.3991  -12.5397   -8.0398 C   0  0  0  0  0  0  0  0  0  0  0  0
   -2.2966  -10.5617   -5.3510 S   0  0  0  0  0  0  0  0  0  0  0  0
   -2.8085   -8.3009   -2.2956 C   0  0  0  0  0  0  0  0  0  0  0  0
   -3.2275   -9.4988   -1.1820 S   0  0  0  0  0  0  0  0  0  0  0  0
   -2.3566   -7.0087   -5.7958 C   0  0  0  0  0  0  0  0  0  0  0  0
   -1.7996   -5.7762   -6.1514 C   0  0  0  0  0  0  0  0  0  0  0  0
   -1.3918   -4.9235   -4.7612 S   0  0  0  0  0  0  0  0  0  0  0  0
   -1.7832   -5.1447   -7.4752 C   0  0  0  0  0  0  0  0  0  0  0  0
   -2.9365   -4.5842   -8.0361 C   0  0  0  0  0  0  0  0  0  0  0  0
   -2.6853   -3.4149   -8.7801 C   0  0  0  0  0  0  0  0  0  0  0  0
   -3.6631   -2.4994   -9.2130 C   0  0  0  0  0  0  0  0  0  0  0  0
   -5.0863   -2.8868   -9.3382 C   0  0  0  0  0  0  0  0  0  0  0  0
   -6.3950   -2.0999   -8.6370 S   0  0  0  0  0  0  0  0  0  0  0  0
   -7.5858   -3.0379   -9.3689 C   0  0  0  0  0  0  0  0  0  0  0  0
   -9.0576   -2.7817   -9.2683 C   0  0  0  0  0  0  0  0  0  0  0  0
   -9.5257   -1.8861  -10.4154 C   0  0  0  0  0  0  0  0  0  0  0  0
   -6.9699   -3.9693  -10.2018 C   0  0  0  0  0  0  0  0  0  0  0  0
   -7.8522   -5.0866  -11.2309 Cl  0  0  0  0  0  0  0  0  0  0  0  0
   -5.5716   -3.8931  -10.1751 C   0  0  0  0  0  0  0  0  0  0  0  0
   -4.5431   -4.8915  -11.1895 Cl  0  0  0  0  0  0  0  0  0  0  0  0
   -3.2173   -1.1944   -9.5066 C   0  0  0  0  0  0  0  0  0  0  0  0
   -1.8593   -0.8476   -9.5303 C   0  0  0  0  0  0  0  0  0  0  0  0
   -0.8702   -1.8279   -9.2890 C   0  0  0  0  0  0  0  0  0  0  0  0
    0.5831   -1.5828   -9.4336 C   0  0  0  0  0  0  0  0  0  0  0  0
    1.4435   -2.3953  -10.1716 C   0  0  0  0  0  0  0  0  0  0  0  0
    2.7749   -1.9668  -10.1456 C   0  0  0  0  0  0  0  0  0  0  0  0
    2.9674   -0.8260   -9.3764 C   0  0  0  0  0  0  0  0  0  0  0  0
    4.2541   -0.0730   -9.2424 C   0  0  0  0  0  0  0  0  0  0  0  0
    4.3236    1.0604  -10.2615 C   0  0  0  0  0  0  0  0  0  0  0  0
    1.4917   -0.3467   -8.7304 S   0  0  0  0  0  0  0  0  0  0  0  0
   -1.3282   -3.0854   -8.8545 C   0  0  0  0  0  0  0  0  0  0  0  0
   -0.4604   -4.2188   -7.9697 S   0  0  0  0  0  0  0  0  0  0  0  0
   -1.6527    0.5450   -9.6042 C   0  0  0  0  0  0  0  0  0  0  0  0
   -2.8314    1.2955   -9.5141 C   0  0  0  0  0  0  0  0  0  0  0  0
   -4.1278    0.2143   -9.5314 S   0  0  0  0  0  0  0  0  0  0  0  0
   -2.8649    2.5318   -8.7143 C   0  0  0  0  0  0  0  0  0  0  0  0
   -3.5395    2.5739   -7.4932 C   0  0  0  0  0  0  0  0  0  0  0  0
   -2.9473    3.4264   -6.5520 C   0  0  0  0  0  0  0  0  0  0  0  0
   -3.2381    3.4409   -5.1751 C   0  0  0  0  0  0  0  0  0  0  0  0
   -4.3108    2.6159   -4.5843 C   0  0  0  0  0  0  0  0  0  0  0  0
   -3.9838    1.4820   -3.8243 C   0  0  0  0  0  0  0  0  0  0  0  0
   -4.9824    0.7659   -3.1645 C   0  0  0  0  0  0  0  0  0  0  0  0
   -6.3179    1.1762   -3.2608 C   0  0  0  0  0  0  0  0  0  0  0  0
   -7.5843    0.2859   -2.3451 S   0  0  0  0  0  0  0  0  0  0  0  0
   -7.8508   -0.9439   -3.6695 C   0  0  0  0  0  0  0  0  0  0  0  0
   -8.8007   -2.0293   -3.1826 C   0  0  0  0  0  0  0  0  0  0  0  0
   -6.6533    2.2949   -4.0377 C   0  0  0  0  0  0  0  0  0  0  0  0
   -7.9443    2.7005   -4.1318 F   0  0  0  0  0  0  0  0  0  0  0  0
   -5.6541    3.0023   -4.7092 C   0  0  0  0  0  0  0  0  0  0  0  0
   -2.3632    4.1634   -4.3486 C   0  0  0  0  0  0  0  0  0  0  0  0
   -1.2574    4.8596   -4.8413 C   0  0  0  0  0  0  0  0  0  0  0  0
   -0.9960    4.8922   -6.2285 C   0  0  0  0  0  0  0  0  0  0  0  0
    0.1341    5.6553   -6.7957 C   0  0  0  0  0  0  0  0  0  0  0  0
   -0.1178    6.7486   -7.6367 C   0  0  0  0  0  0  0  0  0  0  0  0
    0.9438    7.4912   -8.1648 C   0  0  0  0  0  0  0  0  0  0  0  0
    2.2656    7.1258   -7.8845 C   0  0  0  0  0  0  0  0  0  0  0  0
    3.6153    8.0663   -8.6073 S   0  0  0  0  0  0  0  0  0  0  0  0
    3.6621    9.3302   -7.2881 C   0  0  0  0  0  0  0  0  0  0  0  0
    4.5115    8.8620   -6.1160 C   0  0  0  0  0  0  0  0  0  0  0  0
    2.5227    6.0092   -7.0733 C   0  0  0  0  0  0  0  0  0  0  0  0
    1.4609    5.2841   -6.5228 C   0  0  0  0  0  0  0  0  0  0  0  0
    3.7999    5.6247   -6.8215 F   0  0  0  0  0  0  0  0  0  0  0  0
   -1.8513    4.1339   -7.0545 C   0  0  0  0  0  0  0  0  0  0  0  0
   -1.5790    3.6344   -8.6419 S   0  0  0  0  0  0  0  0  0  0  0  0
   -0.4588    5.4035   -3.8202 C   0  0  0  0  0  0  0  0  0  0  0  0
   -0.9453    5.1184   -2.5387 C   0  0  0  0  0  0  0  0  0  0  0  0
   -2.3643    4.2233   -2.6721 S   0  0  0  0  0  0  0  0  0  0  0  0
   -0.2431    5.3488   -1.2651 C   0  0  0  0  0  0  0  0  0  0  0  0
    1.0559    5.8240   -1.1250 C   0  0  0  0  0  0  0  0  0  0  0  0
    1.5213    5.7620    0.2014 C   0  0  0  0  0  0  0  0  0  0  0  0
    2.8058    6.1405    0.6520 C   0  0  0  0  0  0  0  0  0  0  0  0
    3.8636    6.5657   -0.2926 C   0  0  0  0  0  0  0  0  0  0  0  0
    4.2471    5.7064   -1.3369 C   0  0  0  0  0  0  0  0  0  0  0  0
    5.1743    6.1294   -2.2902 C   0  0  0  0  0  0  0  0  0  0  0  0
    5.7477    7.4031   -2.1982 C   0  0  0  0  0  0  0  0  0  0  0  0
    6.8946    7.9550   -3.4641 S   0  0  0  0  0  0  0  0  0  0  0  0
    8.3184    7.0606   -2.7547 C   0  0  0  0  0  0  0  0  0  0  0  0
    9.4549    7.0206   -3.7687 C   0  0  0  0  0  0  0  0  0  0  0  0
    5.3914    8.2524   -1.1422 C   0  0  0  0  0  0  0  0  0  0  0  0
    5.9356    9.4912   -1.0440 F   0  0  0  0  0  0  0  0  0  0  0  0
    4.4465    7.8376   -0.1944 C   0  0  0  0  0  0  0  0  0  0  0  0
    3.0469    6.0419    2.0352 C   0  0  0  0  0  0  0  0  0  0  0  0
    2.0886    5.5579    2.9356 C   0  0  0  0  0  0  0  0  0  0  0  0
    0.8304    5.1133    2.4758 C   0  0  0  0  0  0  0  0  0  0  0  0
   -0.1346    4.4093    3.3583 C   0  0  0  0  0  0  0  0  0  0  0  0
   -0.6695    5.0411    4.4906 C   0  0  0  0  0  0  0  0  0  0  0  0
   -1.5183    4.3389    5.3516 C   0  0  0  0  0  0  0  0  0  0  0  0
   -1.8638    3.0102    5.0755 C   0  0  0  0  0  0  0  0  0  0  0  0
   -2.9376    2.1203    6.2087 S   0  0  0  0  0  0  0  0  0  0  0  0
   -1.5752    1.4742    7.2530 C   0  0  0  0  0  0  0  0  0  0  0  0
   -1.1535    0.0847    6.7899 C   0  0  0  0  0  0  0  0  0  0  0  0
   -1.3804    2.3937    3.9145 C   0  0  0  0  0  0  0  0  0  0  0  0
   -0.5108    3.0858    3.0680 C   0  0  0  0  0  0  0  0  0  0  0  0
   -1.7504    1.1235    3.5995 F   0  0  0  0  0  0  0  0  0  0  0  0
    0.5752    5.2581    1.0984 C   0  0  0  0  0  0  0  0  0  0  0  0
   -0.8226    4.8679    0.2473 S   0  0  0  0  0  0  0  0  0  0  0  0
    2.5453    5.5385    4.2641 C   0  0  0  0  0  0  0  0  0  0  0  0
    3.8541    5.9932    4.3976 C   0  0  0  0  0  0  0  0  0  0  0  0
    4.4612    6.4088    2.8800 S   0  0  0  0  0  0  0  0  0  0  0  0
    4.5455    6.2116    5.6731 C   0  0  0  0  0  0  0  0  0  0  0  0
    5.9270    6.2066    5.8720 C   0  0  0  0  0  0  0  0  0  0  0  0
    6.2939    6.5622    7.1849 C   0  0  0  0  0  0  0  0  0  0  0  0
    7.6049    6.6356    7.6996 C   0  0  0  0  0  0  0  0  0  0  0  0
    8.7823    6.2102    6.9191 C   0  0  0  0  0  0  0  0  0  0  0  0
    9.1814    6.9193    5.7732 C   0  0  0  0  0  0  0  0  0  0  0  0
   10.2760    6.4783    5.0210 C   0  0  0  0  0  0  0  0  0  0  0  0
   10.9866    5.3360    5.4147 C   0  0  0  0  0  0  0  0  0  0  0  0
   12.3851    4.7682    4.4390 S   0  0  0  0  0  0  0  0  0  0  0  0
   13.6016    5.9146    5.1898 C   0  0  0  0  0  0  0  0  0  0  0  0
   14.1808    6.8200    4.1143 C   0  0  0  0  0  0  0  0  0  0  0  0
   10.5939    4.6297    6.5595 C   0  0  0  0  0  0  0  0  0  0  0  0
   11.2588    3.5088    6.9340 F   0  0  0  0  0  0  0  0  0  0  0  0
    9.4972    5.0664    7.3056 C   0  0  0  0  0  0  0  0  0  0  0  0
    7.7379    7.0703    9.0322 C   0  0  0  0  0  0  0  0  0  0  0  0
    6.6395    7.4082    9.8317 C   0  0  0  0  0  0  0  0  0  0  0  0
    5.3268    7.2898    9.3317 C   0  0  0  0  0  0  0  0  0  0  0  0
    4.1397    7.6312   10.1439 C   0  0  0  0  0  0  0  0  0  0  0  0
    3.9210    8.9537   10.5614 C   0  0  0  0  0  0  0  0  0  0  0  0
    2.7676    9.2828   11.2754 C   0  0  0  0  0  0  0  0  0  0  0  0
    1.8174    8.3001   11.5743 C   0  0  0  0  0  0  0  0  0  0  0  0
    0.3184    8.7477   12.4594 S   0  0  0  0  0  0  0  0  0  0  0  0
   -0.5969    9.2905   10.9686 C   0  0  0  0  0  0  0  0  0  0  0  0
   -1.2806    8.1166   10.2831 C   0  0  0  0  0  0  0  0  0  0  0  0
    2.0495    6.9677   11.1972 C   0  0  0  0  0  0  0  0  0  0  0  0
    3.1997    6.6404   10.4700 C   0  0  0  0  0  0  0  0  0  0  0  0
    1.1547    5.9975   11.5106 F   0  0  0  0  0  0  0  0  0  0  0  0
    5.1925    6.8577    8.0000 C   0  0  0  0  0  0  0  0  0  0  0  0
    3.7802    6.6603    7.1064 S   0  0  0  0  0  0  0  0  0  0  0  0
    7.0091    7.8348   11.1200 C   0  0  0  0  0  0  0  0  0  0  0  0
    8.3875    7.8388   11.3259 C   0  0  0  0  0  0  0  0  0  0  0  0
    9.1480    7.3088    9.9184 S   0  0  0  0  0  0  0  0  0  0  0  0
   -3.7576  -11.5773    9.2455 H   0  0  0  0  0  0  0  0  0  0  0  0
   -3.3875   -9.1771    8.3189 H   0  0  0  0  0  0  0  0  0  0  0  0
   -0.8767   -7.5677    5.9505 H   0  0  0  0  0  0  0  0  0  0  0  0
   -0.5940   -5.4102    7.1211 H   0  0  0  0  0  0  0  0  0  0  0  0
   -1.5380   -5.2397    9.9029 H   0  0  0  0  0  0  0  0  0  0  0  0
   -3.3133   -5.0136   10.1505 H   0  0  0  0  0  0  0  0  0  0  0  0
   -2.9123   -2.8130   11.2113 H   0  0  0  0  0  0  0  0  0  0  0  0
   -1.1342   -2.9439   10.8720 H   0  0  0  0  0  0  0  0  0  0  0  0
   -1.9273   -4.0835   12.0332 H   0  0  0  0  0  0  0  0  0  0  0  0
   -5.1516   -7.2345    6.3921 H   0  0  0  0  0  0  0  0  0  0  0  0
   -5.2851  -12.4365    2.4941 H   0  0  0  0  0  0  0  0  0  0  0  0
   -5.5812  -14.7738    1.7657 H   0  0  0  0  0  0  0  0  0  0  0  0
   -3.5393  -17.3654    0.1882 H   0  0  0  0  0  0  0  0  0  0  0  0
   -2.3073  -16.4800    1.1633 H   0  0  0  0  0  0  0  0  0  0  0  0
   -1.4675  -18.7152    0.4714 H   0  0  0  0  0  0  0  0  0  0  0  0
   -2.8584  -19.5101    1.3077 H   0  0  0  0  0  0  0  0  0  0  0  0
   -1.6263  -18.6016    2.2739 H   0  0  0  0  0  0  0  0  0  0  0  0
   -1.8729  -13.6142    4.8473 H   0  0  0  0  0  0  0  0  0  0  0  0
   -3.2879  -11.1422    1.4439 H   0  0  0  0  0  0  0  0  0  0  0  0
   -2.1912   -6.5338    0.4942 H   0  0  0  0  0  0  0  0  0  0  0  0
    0.4960   -1.2978    0.6683 H   0  0  0  0  0  0  0  0  0  0  0  0
    1.3434   -2.8188    1.1005 H   0  0  0  0  0  0  0  0  0  0  0  0
    0.0786   -1.7256    3.0229 H   0  0  0  0  0  0  0  0  0  0  0  0
   -0.3891   -3.4438    2.7143 H   0  0  0  0  0  0  0  0  0  0  0  0
   -1.4640   -2.0896    2.1691 H   0  0  0  0  0  0  0  0  0  0  0  0
   -5.3760   -9.6569   -3.8248 H   0  0  0  0  0  0  0  0  0  0  0  0
   -5.6106  -11.8422   -5.1744 H   0  0  0  0  0  0  0  0  0  0  0  0
   -2.3158  -13.3572   -6.3505 H   0  0  0  0  0  0  0  0  0  0  0  0
   -4.0863  -13.6649   -6.3232 H   0  0  0  0  0  0  0  0  0  0  0  0
   -2.6196  -11.7949   -8.2986 H   0  0  0  0  0  0  0  0  0  0  0  0
   -4.4031  -12.1205   -8.2631 H   0  0  0  0  0  0  0  0  0  0  0  0
   -3.2447  -13.4516   -8.6537 H   0  0  0  0  0  0  0  0  0  0  0  0
   -2.7478   -7.7068   -6.5234 H   0  0  0  0  0  0  0  0  0  0  0  0
   -3.9305   -4.8974   -7.7439 H   0  0  0  0  0  0  0  0  0  0  0  0
   -9.6100   -3.7475   -9.3056 H   0  0  0  0  0  0  0  0  0  0  0  0
   -9.2862   -2.2926   -8.2947 H   0  0  0  0  0  0  0  0  0  0  0  0
   -8.9600   -0.9298  -10.4174 H   0  0  0  0  0  0  0  0  0  0  0  0
  -10.6071   -1.6616  -10.2988 H   0  0  0  0  0  0  0  0  0  0  0  0
   -9.3749   -2.3982  -11.3900 H   0  0  0  0  0  0  0  0  0  0  0  0
    1.1155   -3.2608  -10.7307 H   0  0  0  0  0  0  0  0  0  0  0  0
    3.5697   -2.4635  -10.6836 H   0  0  0  0  0  0  0  0  0  0  0  0
    5.1143   -0.7607   -9.3954 H   0  0  0  0  0  0  0  0  0  0  0  0
    4.3325    0.3508   -8.2163 H   0  0  0  0  0  0  0  0  0  0  0  0
    5.3137    1.5603  -10.2053 H   0  0  0  0  0  0  0  0  0  0  0  0
    3.5347    1.8153  -10.0425 H   0  0  0  0  0  0  0  0  0  0  0  0
    4.1783    0.6698  -11.2918 H   0  0  0  0  0  0  0  0  0  0  0  0
   -0.6842    1.0032   -9.5083 H   0  0  0  0  0  0  0  0  0  0  0  0
   -4.3175    1.8694   -7.2270 H   0  0  0  0  0  0  0  0  0  0  0  0
   -2.9509    1.1653   -3.7257 H   0  0  0  0  0  0  0  0  0  0  0  0
   -4.7208   -0.1078   -2.5769 H   0  0  0  0  0  0  0  0  0  0  0  0
   -6.8791   -1.4090   -3.9504 H   0  0  0  0  0  0  0  0  0  0  0  0
   -8.2763   -0.4400   -4.5614 H   0  0  0  0  0  0  0  0  0  0  0  0
   -9.7777   -1.5825   -2.8970 H   0  0  0  0  0  0  0  0  0  0  0  0
   -8.9661   -2.7713   -3.9911 H   0  0  0  0  0  0  0  0  0  0  0  0
   -8.3579   -2.5466   -2.3029 H   0  0  0  0  0  0  0  0  0  0  0  0
   -5.9176    3.8724   -5.2981 H   0  0  0  0  0  0  0  0  0  0  0  0
   -1.1322    7.0414   -7.8724 H   0  0  0  0  0  0  0  0  0  0  0  0
    0.7407    8.3472   -8.8000 H   0  0  0  0  0  0  0  0  0  0  0  0
    4.1153   10.2514   -7.7119 H   0  0  0  0  0  0  0  0  0  0  0  0
    2.6354    9.5885   -6.9426 H   0  0  0  0  0  0  0  0  0  0  0  0
    3.9861    8.0484   -5.5672 H   0  0  0  0  0  0  0  0  0  0  0  0
    4.6899    9.7074   -5.4142 H   0  0  0  0  0  0  0  0  0  0  0  0
    5.4975    8.4938   -6.4731 H   0  0  0  0  0  0  0  0  0  0  0  0
    1.6666    4.4418   -5.8787 H   0  0  0  0  0  0  0  0  0  0  0  0
    0.4673    5.9331   -4.0030 H   0  0  0  0  0  0  0  0  0  0  0  0
    1.6522    6.1776   -1.9559 H   0  0  0  0  0  0  0  0  0  0  0  0
    3.8103    4.7167   -1.4197 H   0  0  0  0  0  0  0  0  0  0  0  0
    5.4378    5.4687   -3.1080 H   0  0  0  0  0  0  0  0  0  0  0  0
    8.0296    6.0175   -2.5067 H   0  0  0  0  0  0  0  0  0  0  0  0
    8.6636    7.5761   -1.8314 H   0  0  0  0  0  0  0  0  0  0  0  0
   10.2690    6.3658   -3.3899 H   0  0  0  0  0  0  0  0  0  0  0  0
    9.0878    6.5998   -4.7296 H   0  0  0  0  0  0  0  0  0  0  0  0
    9.8578    8.0411   -3.9398 H   0  0  0  0  0  0  0  0  0  0  0  0
    4.1510    8.5144    0.5941 H   0  0  0  0  0  0  0  0  0  0  0  0
   -0.4143    6.0655    4.7182 H   0  0  0  0  0  0  0  0  0  0  0  0
   -1.9151    4.8281    6.2355 H   0  0  0  0  0  0  0  0  0  0  0  0
   -1.9395    1.4124    8.2943 H   0  0  0  0  0  0  0  0  0  0  0  0
   -0.6958    2.1549    7.2431 H   0  0  0  0  0  0  0  0  0  0  0  0
   -0.3604   -0.3053    7.4633 H   0  0  0  0  0  0  0  0  0  0  0  0
   -2.0239   -0.6095    6.8312 H   0  0  0  0  0  0  0  0  0  0  0  0
   -0.7559    0.1241    5.7526 H   0  0  0  0  0  0  0  0  0  0  0  0
   -0.1113    2.5861    2.1935 H   0  0  0  0  0  0  0  0  0  0  0  0
    1.9535    5.2085    5.1051 H   0  0  0  0  0  0  0  0  0  0  0  0
    6.6346    5.9555    5.0911 H   0  0  0  0  0  0  0  0  0  0  0  0
    8.6433    7.8057    5.4661 H   0  0  0  0  0  0  0  0  0  0  0  0
   10.5730    7.0251    4.1336 H   0  0  0  0  0  0  0  0  0  0  0  0
   14.4148    5.3144    5.6463 H   0  0  0  0  0  0  0  0  0  0  0  0
   13.1525    6.5420    5.9908 H   0  0  0  0  0  0  0  0  0  0  0  0
   14.7114    6.2118    3.3495 H   0  0  0  0  0  0  0  0  0  0  0  0
   14.9007    7.5304    4.5707 H   0  0  0  0  0  0  0  0  0  0  0  0
   13.3685    7.3986    3.6251 H   0  0  0  0  0  0  0  0  0  0  0  0
    9.1961    4.5069    8.1821 H   0  0  0  0  0  0  0  0  0  0  0  0
    4.6427    9.7253   10.3290 H   0  0  0  0  0  0  0  0  0  0  0  0
    2.5997   10.3096   11.5771 H   0  0  0  0  0  0  0  0  0  0  0  0
    0.0811    9.8014   10.2508 H   0  0  0  0  0  0  0  0  0  0  0  0
   -1.3716   10.0236   11.2817 H   0  0  0  0  0  0  0  0  0  0  0  0
   -1.9589    7.5937   10.9934 H   0  0  0  0  0  0  0  0  0  0  0  0
   -0.5272    7.3977    9.8981 H   0  0  0  0  0  0  0  0  0  0  0  0
   -1.8821    8.4900    9.4242 H   0  0  0  0  0  0  0  0  0  0  0  0
    3.3633    5.6131   10.1684 H   0  0  0  0  0  0  0  0  0  0  0  0
    6.3064    8.1370   11.8857 H   0  0  0  0  0  0  0  0  0  0  0  0
    8.8836    8.1453   12.2343 H   0  0  0  0  0  0  0  0  0  0  0  0
  1  2  2  0
  2  3  1  0
  3  4  2  0
  4  5  1  0
  5  6  2  0
  6  7  1  0
  7  8  2  0
  8  9  1  0
  9 10  1  0
 10 11  1  0
  8 12  1  0
 12 13  1  0
 12 14  2  0
  4 15  1  0
 15 16  2  0
 16 17  1  0
 17 18  1  0
 18 19  2  0
 19 20  1  0
 20 21  2  0
 21 22  1  0
 22 23  1  0
 23 24  1  0
 21 25  1  0
 25 26  2  0
 25 27  1  0
 17 28  2  0
 28 29  1  0
 16 30  1  0
 30 31  2  0
 31 32  1  0
 31 33  1  0
 33 34  2  0
 34 35  1  0
 35 36  2  0
 36 37  1  0
 37 38  1  0
 38 39  1  0
 39 40  1  0
 40 41  1  0
 39 42  2  0
 42 43  1  0
 42 44  1  0
 44 45  1  0
 36 46  1  0
 46 47  2  0
 47 48  1  0
 48 49  1  0
 49 50  2  0
 50 51  1  0
 51 52  2  0
 52 53  1  0
 53 54  1  0
 52 55  1  0
 48 56  2  0
 56 57  1  0
 47 58  1  0
 58 59  2  0
 59 60  1  0
 59 61  1  0
 61 62  2  0
 62 63  1  0
 63 64  2  0
 64 65  1  0
 65 66  1  0
 66 67  1  0
 67 68  1  0
 68 69  1  0
 67 70  2  0
 70 71  1  0
 70 72  1  0
 72 73  1  0
 64 74  1  0
 74 75  2  0
 75 76  1  0
 76 77  1  0
 77 78  2  0
 78 79  1  0
 79 80  2  0
 80 81  1  0
 81 82  1  0
 80 83  1  0
 76 84  2  0
 84 85  1  0
 75 86  1  0
 86 87  2  0
 87 88  1  0
 87 89  1  0
 89 90  2  0
 90 91  1  0
 91 92  2  0
 92 93  1  0
 93 94  2  0
 94 95  1  0
 95 96  2  0
 96 97  1  0
 97 98  1  0
 98 99  1  0
 96100  1  0
100101  1  0
100102  2  0
 92103  1  0
103104  2  0
104105  1  0
105106  1  0
106107  2  0
107108  1  0
108109  2  0
109110  1  0
110111  1  0
111112  1  0
109113  1  0
113114  2  0
113115  1  0
105116  2  0
116117  1  0
104118  1  0
118119  2  0
119120  1  0
119121  1  0
121122  2  0
122123  1  0
123124  2  0
124125  1  0
125126  2  0
126127  1  0
127128  2  0
128129  1  0
129130  1  0
130131  1  0
128132  1  0
132133  1  0
132134  2  0
124135  1  0
135136  2  0
136137  1  0
137138  1  0
138139  2  0
139140  1  0
140141  2  0
141142  1  0
142143  1  0
143144  1  0
141145  1  0
145146  2  0
145147  1  0
137148  2  0
148149  1  0
136150  1  0
150151  2  0
151152  1  0
151153  1  0
153154  2  0
154155  1  0
155156  2  0
156157  1  0
157158  2  0
158159  1  0
159160  2  0
160161  1  0
161162  1  0
162163  1  0
160164  1  0
164165  1  0
164166  2  0
156167  1  0
167168  2  0
168169  1  0
169170  1  0
170171  2  0
171172  1  0
172173  2  0
173174  1  0
174175  1  0
175176  1  0
173177  1  0
177178  2  0
177179  1  0
169180  2  0
180181  1  0
168182  1  0
182183  2  0
183184  1  0
 29  1  1  0
 57 33  1  0
 85 61  1  0
117 89  1  0
149121  1  0
181153  1  0
 28  3  1  0
 56 35  1  0
 84 63  1  0
116 91  1  0
148123  1  0
180155  1  0
 14  5  1  0
 32 15  1  0
 44 37  2  0
 60 46  1  0
 72 65  2  0
 88 74  1  0
102 93  1  0
120103  1  0
134125  1  0
152135  1  0
166157  1  0
184167  1  0
 26 18  1  0
 55 49  1  0
 83 77  1  0
114106  1  0
146138  1  0
178170  1  0
  1185  1  0
  2186  1  0
  6187  1  0
  7188  1  0
 10189  1  0
 10190  1  0
 11191  1  0
 11192  1  0
 11193  1  0
 14194  1  0
 19195  1  0
 20196  1  0
 23197  1  0
 23198  1  0
 24199  1  0
 24200  1  0
 24201  1  0
 26202  1  0
 30203  1  0
 34204  1  0
 40205  1  0
 40206  1  0
 41207  1  0
 41208  1  0
 41209  1  0
 50210  1  0
 51211  1  0
 53212  1  0
 53213  1  0
 54214  1  0
 54215  1  0
 54216  1  0
 58217  1  0
 62218  1  0
 68219  1  0
 68220  1  0
 69221  1  0
 69222  1  0
 69223  1  0
 78224  1  0
 79225  1  0
 81226  1  0
 81227  1  0
 82228  1  0
 82229  1  0
 82230  1  0
 86231  1  0
 90232  1  0
 94233  1  0
 95234  1  0
 98235  1  0
 98236  1  0
 99237  1  0
 99238  1  0
 99239  1  0
102240  1  0
107241  1  0
108242  1  0
111243  1  0
111244  1  0
112245  1  0
112246  1  0
112247  1  0
114248  1  0
118249  1  0
122250  1  0
126251  1  0
127252  1  0
130253  1  0
130254  1  0
131255  1  0
131256  1  0
131257  1  0
134258  1  0
139259  1  0
140260  1  0
143261  1  0
143262  1  0
144263  1  0
144264  1  0
144265  1  0
146266  1  0
150267  1  0
154268  1  0
158269  1  0
159270  1  0
162271  1  0
162272  1  0
163273  1  0
163274  1  0
163275  1  0
166276  1  0
171277  1  0
172278  1  0
175279  1  0
175280  1  0
176281  1  0
176282  1  0
176283  1  0
178284  1  0
182285  1  0
183286  1  0
M  END

