
     RDKit          3D

204225  0  0  0  0  0  0  0  0999 V2000
    3.8646   -5.5836    6.9332 C   0  0  0  0  0  0  0  0  0  0  0  0
    5.0651   -5.0598    6.4589 C   0  0  0  0  0  0  0  0  0  0  0  0
    4.9678   -3.7102    6.0757 C   0  0  0  0  0  0  0  0  0  0  0  0
    6.0022   -2.9212    5.5301 C   0  0  0  0  0  0  0  0  0  0  0  0
    7.4004   -3.3965    5.4833 C   0  0  0  0  0  0  0  0  0  0  0  0
    8.3389   -3.5311    4.0935 S   0  0  0  0  0  0  0  0  0  0  0  0
    9.7426   -4.0512    4.8747 C   0  0  0  0  0  0  0  0  0  0  0  0
   11.0535   -4.3067    4.1977 C   0  0  0  0  0  0  0  0  0  0  0  0
   11.9776   -3.0981    4.3323 C   0  0  0  0  0  0  0  0  0  0  0  0
    9.4973   -4.0969    6.2456 C   0  0  0  0  0  0  0  0  0  0  0  0
   10.7169   -4.5322    7.4340 Cl  0  0  0  0  0  0  0  0  0  0  0  0
    8.1876   -3.7310    6.5885 C   0  0  0  0  0  0  0  0  0  0  0  0
    7.6317   -3.6051    8.2526 Cl  0  0  0  0  0  0  0  0  0  0  0  0
    5.6652   -1.6124    5.1448 C   0  0  0  0  0  0  0  0  0  0  0  0
    4.3916   -1.0711    5.3602 C   0  0  0  0  0  0  0  0  0  0  0  0
    3.3618   -1.8492    5.9294 C   0  0  0  0  0  0  0  0  0  0  0  0
    2.0059   -1.3005    6.1600 C   0  0  0  0  0  0  0  0  0  0  0  0
    1.0552   -0.5686    4.9766 S   0  0  0  0  0  0  0  0  0  0  0  0
   -0.2326   -0.1739    5.9798 C   0  0  0  0  0  0  0  0  0  0  0  0
   -1.4736    0.5331    5.5264 C   0  0  0  0  0  0  0  0  0  0  0  0
   -2.4782   -0.4553    4.9419 C   0  0  0  0  0  0  0  0  0  0  0  0
    0.0591   -0.6188    7.2680 C   0  0  0  0  0  0  0  0  0  0  0  0
    1.3211   -1.2308    7.3741 C   0  0  0  0  0  0  0  0  0  0  0  0
    2.0029   -1.7441    8.9123 Cl  0  0  0  0  0  0  0  0  0  0  0  0
   -1.0259   -0.4050    8.6374 Cl  0  0  0  0  0  0  0  0  0  0  0  0
    3.6852   -3.1784    6.2524 C   0  0  0  0  0  0  0  0  0  0  0  0
    2.6876   -4.3838    6.8724 S   0  0  0  0  0  0  0  0  0  0  0  0
    4.3096    0.2845    5.0177 C   0  0  0  0  0  0  0  0  0  0  0  0
    5.4950    0.7782    4.4900 C   0  0  0  0  0  0  0  0  0  0  0  0
    6.6696   -0.4284    4.4929 S   0  0  0  0  0  0  0  0  0  0  0  0
    5.7231    2.1814    4.1563 C   0  0  0  0  0  0  0  0  0  0  0  0
    5.6388    3.4140    5.2953 S   0  0  0  0  0  0  0  0  0  0  0  0
    6.0016    4.6673    4.2481 C   0  0  0  0  0  0  0  0  0  0  0  0
    6.1723    4.1451    2.9661 C   0  0  0  0  0  0  0  0  0  0  0  0
    6.3646    5.0315    1.7997 C   0  0  0  0  0  0  0  0  0  0  0  0
    6.8927    6.1661    1.9585 O   0  0  0  0  0  0  0  0  0  0  0  0
    5.9105    4.6316    0.5354 O   0  0  0  0  0  0  0  0  0  0  0  0
    6.0644    5.4333   -0.6313 C   0  0  0  0  0  0  0  0  0  0  0  0
    6.0346    2.7329    2.9070 C   0  0  0  0  0  0  0  0  0  0  0  0
    6.2015    1.9726    1.6458 C   0  0  0  0  0  0  0  0  0  0  0  0
    5.4113    0.9549    1.2782 C   0  0  0  0  0  0  0  0  0  0  0  0
    5.2769    0.5811   -0.1443 C   0  0  0  0  0  0  0  0  0  0  0  0
    4.5236   -0.4908   -0.6286 C   0  0  0  0  0  0  0  0  0  0  0  0
    4.2029   -0.3663   -1.9951 C   0  0  0  0  0  0  0  0  0  0  0  0
    3.3038   -1.1845   -2.7153 C   0  0  0  0  0  0  0  0  0  0  0  0
    2.8499   -2.4930   -2.1957 C   0  0  0  0  0  0  0  0  0  0  0  0
    3.8612   -3.8242   -2.0469 S   0  0  0  0  0  0  0  0  0  0  0  0
    2.6592   -4.9332   -1.6571 C   0  0  0  0  0  0  0  0  0  0  0  0
    2.8890   -6.3992   -1.4494 C   0  0  0  0  0  0  0  0  0  0  0  0
    2.7306   -7.1615   -2.7648 C   0  0  0  0  0  0  0  0  0  0  0  0
    1.4311   -4.2754   -1.6666 C   0  0  0  0  0  0  0  0  0  0  0  0
   -0.1023   -5.1011   -1.4187 Cl  0  0  0  0  0  0  0  0  0  0  0  0
    1.5380   -2.9001   -1.9358 C   0  0  0  0  0  0  0  0  0  0  0  0
    0.1593   -1.8079   -1.8821 Cl  0  0  0  0  0  0  0  0  0  0  0  0
    2.8411   -0.6795   -3.9483 C   0  0  0  0  0  0  0  0  0  0  0  0
    3.2647    0.5510   -4.4632 C   0  0  0  0  0  0  0  0  0  0  0  0
    4.2708    1.2890   -3.8127 C   0  0  0  0  0  0  0  0  0  0  0  0
    4.6912    2.6184   -4.2836 C   0  0  0  0  0  0  0  0  0  0  0  0
    3.7773    4.0213   -4.1326 S   0  0  0  0  0  0  0  0  0  0  0  0
    4.9229    5.0501   -4.8151 C   0  0  0  0  0  0  0  0  0  0  0  0
    4.7422    6.5268   -4.9894 C   0  0  0  0  0  0  0  0  0  0  0  0
    5.4361    7.3048   -3.8757 C   0  0  0  0  0  0  0  0  0  0  0  0
    6.0509    4.3018   -5.1536 C   0  0  0  0  0  0  0  0  0  0  0  0
    5.9203    2.9386   -4.8553 C   0  0  0  0  0  0  0  0  0  0  0  0
    7.1647    1.7503   -5.2003 Cl  0  0  0  0  0  0  0  0  0  0  0  0
    7.4905    4.9938   -5.8921 Cl  0  0  0  0  0  0  0  0  0  0  0  0
    4.6990    0.8073   -2.5685 C   0  0  0  0  0  0  0  0  0  0  0  0
    5.5553    1.6564   -1.4135 S   0  0  0  0  0  0  0  0  0  0  0  0
    2.4570    1.0269   -5.5080 C   0  0  0  0  0  0  0  0  0  0  0  0
    1.3413    0.2246   -5.7620 C   0  0  0  0  0  0  0  0  0  0  0  0
    1.4905   -1.1669   -4.8140 S   0  0  0  0  0  0  0  0  0  0  0  0
    0.0088    0.8031   -6.0032 C   0  0  0  0  0  0  0  0  0  0  0  0
   -0.3257    2.0815   -5.5460 C   0  0  0  0  0  0  0  0  0  0  0  0
   -1.6732    2.2116   -5.1858 C   0  0  0  0  0  0  0  0  0  0  0  0
   -2.2338    3.2906   -4.4715 C   0  0  0  0  0  0  0  0  0  0  0  0
   -1.4434    4.4711   -4.0813 C   0  0  0  0  0  0  0  0  0  0  0  0
   -0.3603    4.5087   -2.7895 S   0  0  0  0  0  0  0  0  0  0  0  0
   -0.1178    6.1739   -2.8086 C   0  0  0  0  0  0  0  0  0  0  0  0
    0.7191    6.9285   -1.8199 C   0  0  0  0  0  0  0  0  0  0  0  0
    2.1181    7.1713   -2.3593 C   0  0  0  0  0  0  0  0  0  0  0  0
   -0.8742    6.7245   -3.8454 C   0  0  0  0  0  0  0  0  0  0  0  0
   -0.9034    8.4440   -4.2168 Cl  0  0  0  0  0  0  0  0  0  0  0  0
   -1.6320    5.7728   -4.5440 C   0  0  0  0  0  0  0  0  0  0  0  0
   -2.7346    6.1798   -5.8518 Cl  0  0  0  0  0  0  0  0  0  0  0  0
   -3.5469    3.1240   -4.0014 C   0  0  0  0  0  0  0  0  0  0  0  0
   -4.2900    1.9630   -4.2296 C   0  0  0  0  0  0  0  0  0  0  0  0
   -3.7501    0.9137   -4.9980 C   0  0  0  0  0  0  0  0  0  0  0  0
   -4.5142   -0.3141   -5.2631 C   0  0  0  0  0  0  0  0  0  0  0  0
   -5.4483   -0.5687   -6.6352 S   0  0  0  0  0  0  0  0  0  0  0  0
   -6.0001   -2.0963   -6.1892 C   0  0  0  0  0  0  0  0  0  0  0  0
   -6.9526   -2.9224   -7.0065 C   0  0  0  0  0  0  0  0  0  0  0  0
   -8.3955   -2.4850   -6.7657 C   0  0  0  0  0  0  0  0  0  0  0  0
   -5.4698   -2.4164   -4.9403 C   0  0  0  0  0  0  0  0  0  0  0  0
   -4.6322   -1.4152   -4.4230 C   0  0  0  0  0  0  0  0  0  0  0  0
   -3.7957   -1.5436   -2.8877 Cl  0  0  0  0  0  0  0  0  0  0  0  0
   -5.8062   -3.9223   -4.0967 Cl  0  0  0  0  0  0  0  0  0  0  0  0
   -2.4266    1.0613   -5.4430 C   0  0  0  0  0  0  0  0  0  0  0  0
   -1.4049   -0.1263   -6.0526 S   0  0  0  0  0  0  0  0  0  0  0  0
   -5.5280    1.9629   -3.5666 C   0  0  0  0  0  0  0  0  0  0  0  0
   -5.7373    3.1213   -2.8151 C   0  0  0  0  0  0  0  0  0  0  0  0
   -4.4156    4.1529   -2.9915 S   0  0  0  0  0  0  0  0  0  0  0  0
   -6.9311    3.4398   -2.0162 C   0  0  0  0  0  0  0  0  0  0  0  0
   -7.6032    4.9753   -1.9325 S   0  0  0  0  0  0  0  0  0  0  0  0
   -8.9036    4.5689   -0.9504 C   0  0  0  0  0  0  0  0  0  0  0  0
   -8.8279    3.2088   -0.6516 C   0  0  0  0  0  0  0  0  0  0  0  0
   -9.8087    2.5589    0.2484 C   0  0  0  0  0  0  0  0  0  0  0  0
  -10.8488    3.1877    0.5907 O   0  0  0  0  0  0  0  0  0  0  0  0
   -9.5851    1.2662    0.7351 O   0  0  0  0  0  0  0  0  0  0  0  0
  -10.4922    0.5990    1.6033 C   0  0  0  0  0  0  0  0  0  0  0  0
   -7.7132    2.5668   -1.2489 C   0  0  0  0  0  0  0  0  0  0  0  0
   -7.3958    1.1416   -1.0402 C   0  0  0  0  0  0  0  0  0  0  0  0
   -6.2452    0.7632   -0.4708 C   0  0  0  0  0  0  0  0  0  0  0  0
   -5.9648   -0.6325   -0.0740 C   0  0  0  0  0  0  0  0  0  0  0  0
   -6.8152   -1.7331   -0.1810 C   0  0  0  0  0  0  0  0  0  0  0  0
   -6.2453   -2.9188    0.3115 C   0  0  0  0  0  0  0  0  0  0  0  0
   -6.8525   -4.1921    0.3332 C   0  0  0  0  0  0  0  0  0  0  0  0
   -8.2045   -4.4248   -0.2116 C   0  0  0  0  0  0  0  0  0  0  0  0
   -8.6462   -4.1782   -1.8189 S   0  0  0  0  0  0  0  0  0  0  0  0
  -10.2410   -4.6732   -1.6485 C   0  0  0  0  0  0  0  0  0  0  0  0
  -11.2290   -4.7514   -2.7743 C   0  0  0  0  0  0  0  0  0  0  0  0
  -11.0929   -6.0753   -3.5189 C   0  0  0  0  0  0  0  0  0  0  0  0
  -10.4476   -5.0622   -0.3243 C   0  0  0  0  0  0  0  0  0  0  0  0
  -11.9880   -5.6545    0.2827 Cl  0  0  0  0  0  0  0  0  0  0  0  0
   -9.3096   -4.9152    0.4827 C   0  0  0  0  0  0  0  0  0  0  0  0
   -9.3103   -5.2547    2.2066 Cl  0  0  0  0  0  0  0  0  0  0  0  0
   -6.0863   -5.2502    0.8538 C   0  0  0  0  0  0  0  0  0  0  0  0
   -4.7972   -5.0697    1.3611 C   0  0  0  0  0  0  0  0  0  0  0  0
   -4.2073   -3.7884    1.3787 C   0  0  0  0  0  0  0  0  0  0  0  0
   -2.8493   -3.5671    1.9084 C   0  0  0  0  0  0  0  0  0  0  0  0
   -1.5366   -3.0829    0.9814 S   0  0  0  0  0  0  0  0  0  0  0  0
   -0.3877   -3.2001    2.2054 C   0  0  0  0  0  0  0  0  0  0  0  0
    1.0821   -2.9858    2.0075 C   0  0  0  0  0  0  0  0  0  0  0  0
    1.8249   -4.3146    1.9140 C   0  0  0  0  0  0  0  0  0  0  0  0
   -1.0263   -3.6319    3.3692 C   0  0  0  0  0  0  0  0  0  0  0  0
   -2.4054   -3.8245    3.2034 C   0  0  0  0  0  0  0  0  0  0  0  0
   -3.4746   -4.3215    4.5095 Cl  0  0  0  0  0  0  0  0  0  0  0  0
   -0.2026   -3.9084    4.8911 Cl  0  0  0  0  0  0  0  0  0  0  0  0
   -4.9569   -2.7373    0.8217 C   0  0  0  0  0  0  0  0  0  0  0  0
   -4.5245   -1.1188    0.6611 S   0  0  0  0  0  0  0  0  0  0  0  0
   -4.1920   -6.2741    1.7637 C   0  0  0  0  0  0  0  0  0  0  0  0
   -5.0065   -7.3860    1.5820 C   0  0  0  0  0  0  0  0  0  0  0  0
   -6.4668   -6.8884    0.9033 S   0  0  0  0  0  0  0  0  0  0  0  0
    3.7160   -6.5985    7.2748 H   0  0  0  0  0  0  0  0  0  0  0  0
    5.9736   -5.6479    6.3891 H   0  0  0  0  0  0  0  0  0  0  0  0
   10.8910   -4.5189    3.1171 H   0  0  0  0  0  0  0  0  0  0  0  0
   11.5437   -5.1974    4.6532 H   0  0  0  0  0  0  0  0  0  0  0  0
   11.5218   -2.2057    3.8546 H   0  0  0  0  0  0  0  0  0  0  0  0
   12.9453   -3.3134    3.8331 H   0  0  0  0  0  0  0  0  0  0  0  0
   12.1763   -2.8731    5.4014 H   0  0  0  0  0  0  0  0  0  0  0  0
   -1.9415    1.0808    6.3712 H   0  0  0  0  0  0  0  0  0  0  0  0
   -1.1987    1.2794    4.7523 H   0  0  0  0  0  0  0  0  0  0  0  0
   -2.8210   -1.1604    5.7262 H   0  0  0  0  0  0  0  0  0  0  0  0
   -2.0167   -1.0212    4.1066 H   0  0  0  0  0  0  0  0  0  0  0  0
   -3.3532    0.0989    4.5454 H   0  0  0  0  0  0  0  0  0  0  0  0
    3.4363    0.9037    5.1655 H   0  0  0  0  0  0  0  0  0  0  0  0
    6.0438    5.7151    4.5193 H   0  0  0  0  0  0  0  0  0  0  0  0
    5.5601    6.4129   -0.4880 H   0  0  0  0  0  0  0  0  0  0  0  0
    7.1432    5.5874   -0.8434 H   0  0  0  0  0  0  0  0  0  0  0  0
    5.6032    4.9060   -1.4916 H   0  0  0  0  0  0  0  0  0  0  0  0
    6.8852    2.3909    0.9198 H   0  0  0  0  0  0  0  0  0  0  0  0
    4.7176    0.5124    1.9798 H   0  0  0  0  0  0  0  0  0  0  0  0
    4.1173   -1.2650    0.0124 H   0  0  0  0  0  0  0  0  0  0  0  0
    3.9152   -6.5633   -1.0557 H   0  0  0  0  0  0  0  0  0  0  0  0
    2.1681   -6.7945   -0.7008 H   0  0  0  0  0  0  0  0  0  0  0  0
    1.7353   -6.9558   -3.2164 H   0  0  0  0  0  0  0  0  0  0  0  0
    2.8068   -8.2528   -2.5741 H   0  0  0  0  0  0  0  0  0  0  0  0
    3.5257   -6.8669   -3.4824 H   0  0  0  0  0  0  0  0  0  0  0  0
    5.1546    6.8412   -5.9702 H   0  0  0  0  0  0  0  0  0  0  0  0
    3.6594    6.7712   -4.9854 H   0  0  0  0  0  0  0  0  0  0  0  0
    6.5295    7.1127   -3.8951 H   0  0  0  0  0  0  0  0  0  0  0  0
    5.0305    7.0072   -2.8884 H   0  0  0  0  0  0  0  0  0  0  0  0
    5.2671    8.3931   -4.0198 H   0  0  0  0  0  0  0  0  0  0  0  0
    2.5613    2.0216   -5.9217 H   0  0  0  0  0  0  0  0  0  0  0  0
    0.4104    2.8387   -5.3090 H   0  0  0  0  0  0  0  0  0  0  0  0
    0.7857    6.3509   -0.8731 H   0  0  0  0  0  0  0  0  0  0  0  0
    0.2408    7.9036   -1.5827 H   0  0  0  0  0  0  0  0  0  0  0  0
    2.7197    7.7162   -1.6033 H   0  0  0  0  0  0  0  0  0  0  0  0
    2.6165    6.2059   -2.5739 H   0  0  0  0  0  0  0  0  0  0  0  0
    2.0727    7.7805   -3.2864 H   0  0  0  0  0  0  0  0  0  0  0  0
   -6.7095   -2.7983   -8.0860 H   0  0  0  0  0  0  0  0  0  0  0  0
   -6.8449   -4.0002   -6.7530 H   0  0  0  0  0  0  0  0  0  0  0  0
   -8.6419   -2.5440   -5.6847 H   0  0  0  0  0  0  0  0  0  0  0  0
   -9.0863   -3.1553   -7.3196 H   0  0  0  0  0  0  0  0  0  0  0  0
   -8.5434   -1.4420   -7.1192 H   0  0  0  0  0  0  0  0  0  0  0  0
   -6.2380    1.1493   -3.6247 H   0  0  0  0  0  0  0  0  0  0  0  0
   -9.6535    5.2626   -0.5974 H   0  0  0  0  0  0  0  0  0  0  0  0
  -11.4779    0.4861    1.1069 H   0  0  0  0  0  0  0  0  0  0  0  0
  -10.0938   -0.4089    1.8435 H   0  0  0  0  0  0  0  0  0  0  0  0
  -10.6105    1.1752    2.5471 H   0  0  0  0  0  0  0  0  0  0  0  0
   -8.1770    0.4240   -1.2433 H   0  0  0  0  0  0  0  0  0  0  0  0
   -5.4954    1.5146   -0.2419 H   0  0  0  0  0  0  0  0  0  0  0  0
   -7.8161   -1.6791   -0.5843 H   0  0  0  0  0  0  0  0  0  0  0  0
  -11.0397   -3.9133   -3.4817 H   0  0  0  0  0  0  0  0  0  0  0  0
  -12.2651   -4.6449   -2.3898 H   0  0  0  0  0  0  0  0  0  0  0  0
  -11.3102   -6.9258   -2.8390 H   0  0  0  0  0  0  0  0  0  0  0  0
  -10.0659   -6.1882   -3.9284 H   0  0  0  0  0  0  0  0  0  0  0  0
  -11.8132   -6.1016   -4.3632 H   0  0  0  0  0  0  0  0  0  0  0  0
    1.4973   -2.3948    2.8506 H   0  0  0  0  0  0  0  0  0  0  0  0
    1.2507   -2.4072    1.0728 H   0  0  0  0  0  0  0  0  0  0  0  0
    1.3489   -4.9719    1.1578 H   0  0  0  0  0  0  0  0  0  0  0  0
    1.8171   -4.8324    2.8965 H   0  0  0  0  0  0  0  0  0  0  0  0
    2.8807   -4.1296    1.6157 H   0  0  0  0  0  0  0  0  0  0  0  0
   -3.1849   -6.3478    2.1600 H   0  0  0  0  0  0  0  0  0  0  0  0
   -4.7377   -8.4077    1.8184 H   0  0  0  0  0  0  0  0  0  0  0  0
  1  2  2  0
  2  3  1  0
  3  4  2  0
  4  5  1  0
  5  6  1  0
  6  7  1  0
  7  8  1  0
  8  9  1  0
  7 10  2  0
 10 11  1  0
 10 12  1  0
 12 13  1  0
  4 14  1  0
 14 15  2  0
 15 16  1  0
 16 17  1  0
 17 18  1  0
 18 19  1  0
 19 20  1  0
 20 21  1  0
 19 22  2  0
 22 23  1  0
 23 24  1  0
 22 25  1  0
 16 26  2  0
 26 27  1  0
 15 28  1  0
 28 29  2  0
 29 30  1  0
 29 31  1  0
 31 32  1  0
 32 33  1  0
 33 34  2  0
 34 35  1  0
 35 36  2  0
 35 37  1  0
 37 38  1  0
 34 39  1  0
 39 40  1  0
 40 41  2  3
 41 42  1  0
 42 43  2  0
 43 44  1  0
 44 45  2  0
 45 46  1  0
 46 47  1  0
 47 48  1  0
 48 49  1  0
 49 50  1  0
 48 51  2  0
 51 52  1  0
 51 53  1  0
 53 54  1  0
 45 55  1  0
 55 56  2  0
 56 57  1  0
 57 58  1  0
 58 59  1  0
 59 60  1  0
 60 61  1  0
 61 62  1  0
 60 63  2  0
 63 64  1  0
 64 65  1  0
 63 66  1  0
 57 67  2  0
 67 68  1  0
 56 69  1  0
 69 70  2  0
 70 71  1  0
 70 72  1  0
 72 73  2  0
 73 74  1  0
 74 75  2  0
 75 76  1  0
 76 77  1  0
 77 78  1  0
 78 79  1  0
 79 80  1  0
 78 81  2  0
 81 82  1  0
 81 83  1  0
 83 84  1  0
 75 85  1  0
 85 86  2  0
 86 87  1  0
 87 88  1  0
 88 89  1  0
 89 90  1  0
 90 91  1  0
 91 92  1  0
 90 93  2  0
 93 94  1  0
 94 95  1  0
 93 96  1  0
 87 97  2  0
 97 98  1  0
 86 99  1  0
 99100  2  0
100101  1  0
100102  1  0
102103  1  0
103104  1  0
104105  2  0
105106  1  0
106107  2  0
106108  1  0
108109  1  0
105110  1  0
110111  1  0
111112  2  3
112113  1  0
113114  2  0
114115  1  0
115116  2  0
116117  1  0
117118  1  0
118119  1  0
119120  1  0
120121  1  0
119122  2  0
122123  1  0
122124  1  0
124125  1  0
116126  1  0
126127  2  0
127128  1  0
128129  1  0
129130  1  0
130131  1  0
131132  1  0
132133  1  0
131134  2  0
134135  1  0
135136  1  0
134137  1  0
128138  2  0
138139  1  0
127140  1  0
140141  2  0
141142  1  0
 27  1  1  0
 39 31  2  0
 68 42  1  0
 98 72  1  0
110102  2  0
139113  1  0
 26  3  1  0
 67 44  1  0
 97 74  1  0
138115  1  0
 12  5  2  0
 30 14  1  0
 53 46  2  0
 71 55  1  0
 83 76  2  0
101 85  1  0
124117  2  0
142126  1  0
 23 17  2  0
 64 58  2  0
 94 88  2  0
135129  2  0
  1143  1  0
  2144  1  0
  8145  1  0
  8146  1  0
  9147  1  0
  9148  1  0
  9149  1  0
 20150  1  0
 20151  1  0
 21152  1  0
 21153  1  0
 21154  1  0
 28155  1  0
 33156  1  0
 38157  1  0
 38158  1  0
 38159  1  0
 40160  1  0
 41161  1  0
 43162  1  0
 49163  1  0
 49164  1  0
 50165  1  0
 50166  1  0
 50167  1  0
 61168  1  0
 61169  1  0
 62170  1  0
 62171  1  0
 62172  1  0
 69173  1  0
 73174  1  0
 79175  1  0
 79176  1  0
 80177  1  0
 80178  1  0
 80179  1  0
 91180  1  0
 91181  1  0
 92182  1  0
 92183  1  0
 92184  1  0
 99185  1  0
104186  1  0
109187  1  0
109188  1  0
109189  1  0
111190  1  0
112191  1  0
114192  1  0
120193  1  0
120194  1  0
121195  1  0
121196  1  0
121197  1  0
132198  1  0
132199  1  0
133200  1  0
133201  1  0
133202  1  0
140203  1  0
141204  1  0
M  END

