
     RDKit          3D

227252  0  0  0  0  0  0  0  0999 V2000
   -0.5705   -4.7738   10.7876 C   0  0  0  0  0  0  0  0  0  0  0  0
   -1.6519   -4.5683    9.9306 C   0  0  0  0  0  0  0  0  0  0  0  0
   -1.4424   -5.0322    8.6041 C   0  0  0  0  0  0  0  0  0  0  0  0
   -2.3379   -4.9372    7.4934 C   0  0  0  0  0  0  0  0  0  0  0  0
   -3.5645   -4.1266    7.5440 C   0  0  0  0  0  0  0  0  0  0  0  0
   -5.0347   -4.5373    6.8132 S   0  0  0  0  0  0  0  0  0  0  0  0
   -5.7768   -3.0367    6.9932 C   0  0  0  0  0  0  0  0  0  0  0  0
   -7.0992   -2.6567    6.4284 C   0  0  0  0  0  0  0  0  0  0  0  0
   -6.9205   -1.9059    5.1222 C   0  0  0  0  0  0  0  0  0  0  0  0
   -4.8902   -2.1856    7.6362 C   0  0  0  0  0  0  0  0  0  0  0  0
   -5.2515   -0.5137    7.9927 Cl  0  0  0  0  0  0  0  0  0  0  0  0
   -3.6515   -2.7758    7.9423 C   0  0  0  0  0  0  0  0  0  0  0  0
   -2.3243   -1.8391    8.5741 Cl  0  0  0  0  0  0  0  0  0  0  0  0
   -1.9503   -5.5315    6.3054 C   0  0  0  0  0  0  0  0  0  0  0  0
   -0.6892   -6.1415    6.1329 C   0  0  0  0  0  0  0  0  0  0  0  0
    0.2345   -6.2043    7.2112 C   0  0  0  0  0  0  0  0  0  0  0  0
    1.5616   -6.7568    6.9564 C   0  0  0  0  0  0  0  0  0  0  0  0
    2.6003   -6.4392    5.6911 S   0  0  0  0  0  0  0  0  0  0  0  0
    3.8231   -7.4539    6.1381 C   0  0  0  0  0  0  0  0  0  0  0  0
    5.0729   -7.7212    5.3650 C   0  0  0  0  0  0  0  0  0  0  0  0
    6.1878   -6.7256    5.7092 C   0  0  0  0  0  0  0  0  0  0  0  0
    3.4896   -8.0030    7.3857 C   0  0  0  0  0  0  0  0  0  0  0  0
    2.2078   -7.6276    7.8528 C   0  0  0  0  0  0  0  0  0  0  0  0
    1.4802   -8.4287    9.2178 Cl  0  0  0  0  0  0  0  0  0  0  0  0
    4.4938   -9.1208    8.2520 Cl  0  0  0  0  0  0  0  0  0  0  0  0
   -0.1791   -5.6493    8.4311 C   0  0  0  0  0  0  0  0  0  0  0  0
    0.6350   -5.5032    9.8933 S   0  0  0  0  0  0  0  0  0  0  0  0
   -0.4899   -6.6221    4.7965 C   0  0  0  0  0  0  0  0  0  0  0  0
   -1.5920   -6.3751    3.9499 C   0  0  0  0  0  0  0  0  0  0  0  0
   -2.7518   -5.6091    4.8291 S   0  0  0  0  0  0  0  0  0  0  0  0
   -1.6634   -6.6098    2.4975 C   0  0  0  0  0  0  0  0  0  0  0  0
   -0.5870   -6.6967    1.5910 C   0  0  0  0  0  0  0  0  0  0  0  0
   -0.9978   -6.5803    0.2169 C   0  0  0  0  0  0  0  0  0  0  0  0
   -0.1577   -6.4810   -0.9509 C   0  0  0  0  0  0  0  0  0  0  0  0
    1.3156   -6.5470   -0.8773 C   0  0  0  0  0  0  0  0  0  0  0  0
    2.2665   -7.4119   -1.9465 S   0  0  0  0  0  0  0  0  0  0  0  0
    3.7509   -6.8457   -1.4013 C   0  0  0  0  0  0  0  0  0  0  0  0
    5.0764   -7.2288   -1.9429 C   0  0  0  0  0  0  0  0  0  0  0  0
    5.7984   -8.2188   -1.0417 C   0  0  0  0  0  0  0  0  0  0  0  0
    3.5276   -5.9685   -0.3125 C   0  0  0  0  0  0  0  0  0  0  0  0
    4.7766   -5.2031    0.5749 Cl  0  0  0  0  0  0  0  0  0  0  0  0
    2.1435   -5.7853   -0.0339 C   0  0  0  0  0  0  0  0  0  0  0  0
    1.6108   -4.5219    1.0470 Cl  0  0  0  0  0  0  0  0  0  0  0  0
   -0.7826   -6.2324   -2.1653 C   0  0  0  0  0  0  0  0  0  0  0  0
   -2.1730   -6.1030   -2.3015 C   0  0  0  0  0  0  0  0  0  0  0  0
   -3.0351   -6.2378   -1.1333 C   0  0  0  0  0  0  0  0  0  0  0  0
   -4.4758   -6.1039   -1.2001 C   0  0  0  0  0  0  0  0  0  0  0  0
   -5.4102   -5.2371   -0.1093 S   0  0  0  0  0  0  0  0  0  0  0  0
   -6.9138   -5.8402   -0.5628 C   0  0  0  0  0  0  0  0  0  0  0  0
   -8.2099   -5.5021    0.0448 C   0  0  0  0  0  0  0  0  0  0  0  0
   -9.0316   -4.5467   -0.8389 C   0  0  0  0  0  0  0  0  0  0  0  0
   -6.6953   -6.7248   -1.6536 C   0  0  0  0  0  0  0  0  0  0  0  0
   -5.3395   -6.8688   -2.0208 C   0  0  0  0  0  0  0  0  0  0  0  0
   -4.7988   -8.0344   -3.2111 Cl  0  0  0  0  0  0  0  0  0  0  0  0
   -7.9711   -7.6199   -2.3997 Cl  0  0  0  0  0  0  0  0  0  0  0  0
   -2.3888   -6.4438    0.0711 C   0  0  0  0  0  0  0  0  0  0  0  0
   -3.0696   -6.4720    1.6277 S   0  0  0  0  0  0  0  0  0  0  0  0
   -2.5755   -5.6263   -3.5809 C   0  0  0  0  0  0  0  0  0  0  0  0
   -1.4922   -5.3125   -4.4390 C   0  0  0  0  0  0  0  0  0  0  0  0
   -0.0615   -5.7295   -3.6219 S   0  0  0  0  0  0  0  0  0  0  0  0
   -1.5878   -4.3645   -5.5582 C   0  0  0  0  0  0  0  0  0  0  0  0
   -2.8041   -3.7813   -5.9711 C   0  0  0  0  0  0  0  0  0  0  0  0
   -2.6514   -2.5323   -6.6324 C   0  0  0  0  0  0  0  0  0  0  0  0
   -3.6707   -1.5848   -6.9029 C   0  0  0  0  0  0  0  0  0  0  0  0
   -5.0968   -1.9137   -6.6809 C   0  0  0  0  0  0  0  0  0  0  0  0
   -5.8253   -2.7435   -5.4041 S   0  0  0  0  0  0  0  0  0  0  0  0
   -7.3849   -2.7044   -6.0230 C   0  0  0  0  0  0  0  0  0  0  0  0
   -8.5716   -3.3566   -5.4118 C   0  0  0  0  0  0  0  0  0  0  0  0
   -9.4801   -2.3716   -4.6712 C   0  0  0  0  0  0  0  0  0  0  0  0
   -7.3746   -1.9762   -7.1973 C   0  0  0  0  0  0  0  0  0  0  0  0
   -8.7634   -1.7258   -8.1939 Cl  0  0  0  0  0  0  0  0  0  0  0  0
   -6.0895   -1.4961   -7.5662 C   0  0  0  0  0  0  0  0  0  0  0  0
   -5.8391   -0.6720   -9.0893 Cl  0  0  0  0  0  0  0  0  0  0  0  0
   -3.2516   -0.2887   -7.2654 C   0  0  0  0  0  0  0  0  0  0  0  0
   -1.9432    0.0665   -7.4559 C   0  0  0  0  0  0  0  0  0  0  0  0
   -0.8936   -0.9315   -7.3212 C   0  0  0  0  0  0  0  0  0  0  0  0
    0.5030   -0.5937   -7.4286 C   0  0  0  0  0  0  0  0  0  0  0  0
    1.6045   -1.3384   -8.4646 S   0  0  0  0  0  0  0  0  0  0  0  0
    2.9610   -0.4473   -7.9824 C   0  0  0  0  0  0  0  0  0  0  0  0
    4.3302   -0.5838   -8.5403 C   0  0  0  0  0  0  0  0  0  0  0  0
    5.2917   -1.2453   -7.5342 C   0  0  0  0  0  0  0  0  0  0  0  0
    2.5684    0.4396   -6.9796 C   0  0  0  0  0  0  0  0  0  0  0  0
    1.1976    0.3526   -6.6371 C   0  0  0  0  0  0  0  0  0  0  0  0
    0.5115    1.2609   -5.3290 Cl  0  0  0  0  0  0  0  0  0  0  0  0
    3.6686    1.5511   -6.2006 Cl  0  0  0  0  0  0  0  0  0  0  0  0
   -1.3112   -2.1855   -6.8469 C   0  0  0  0  0  0  0  0  0  0  0  0
   -0.3393   -3.3988   -6.1492 S   0  0  0  0  0  0  0  0  0  0  0  0
   -1.7013    1.4683   -7.5549 C   0  0  0  0  0  0  0  0  0  0  0  0
   -2.8468    2.2898   -7.3088 C   0  0  0  0  0  0  0  0  0  0  0  0
   -4.1101    1.1618   -7.1197 S   0  0  0  0  0  0  0  0  0  0  0  0
   -2.8096    3.4106   -6.3719 C   0  0  0  0  0  0  0  0  0  0  0  0
   -3.1643    3.2322   -5.0578 C   0  0  0  0  0  0  0  0  0  0  0  0
   -2.6987    4.1858   -4.1749 C   0  0  0  0  0  0  0  0  0  0  0  0
   -2.7877    4.1002   -2.7403 C   0  0  0  0  0  0  0  0  0  0  0  0
   -3.7120    3.1563   -2.0764 C   0  0  0  0  0  0  0  0  0  0  0  0
   -3.3796    2.2704   -0.6868 S   0  0  0  0  0  0  0  0  0  0  0  0
   -4.9099    1.6377   -0.4622 C   0  0  0  0  0  0  0  0  0  0  0  0
   -5.3515    0.6967    0.6261 C   0  0  0  0  0  0  0  0  0  0  0  0
   -6.1444    1.4062    1.7140 C   0  0  0  0  0  0  0  0  0  0  0  0
   -5.7298    2.0961   -1.5052 C   0  0  0  0  0  0  0  0  0  0  0  0
   -7.4217    1.7762   -1.6098 Cl  0  0  0  0  0  0  0  0  0  0  0  0
   -5.0733    2.9549   -2.4107 C   0  0  0  0  0  0  0  0  0  0  0  0
   -5.9266    3.8289   -3.6698 Cl  0  0  0  0  0  0  0  0  0  0  0  0
   -2.0673    5.0085   -2.0021 C   0  0  0  0  0  0  0  0  0  0  0  0
   -1.3414    6.0717   -2.5745 C   0  0  0  0  0  0  0  0  0  0  0  0
   -1.3091    6.2157   -3.9868 C   0  0  0  0  0  0  0  0  0  0  0  0
   -0.4840    7.2746   -4.5826 C   0  0  0  0  0  0  0  0  0  0  0  0
    1.0351    7.7423   -4.1052 S   0  0  0  0  0  0  0  0  0  0  0  0
    1.2939    8.9066   -5.2603 C   0  0  0  0  0  0  0  0  0  0  0  0
    2.4807    9.7802   -5.3853 C   0  0  0  0  0  0  0  0  0  0  0  0
    2.1633   11.2135   -4.9984 C   0  0  0  0  0  0  0  0  0  0  0  0
    0.1827    8.8919   -6.1366 C   0  0  0  0  0  0  0  0  0  0  0  0
   -0.8210    7.9748   -5.7788 C   0  0  0  0  0  0  0  0  0  0  0  0
   -2.3606    7.8985   -6.6041 Cl  0  0  0  0  0  0  0  0  0  0  0  0
    0.0162    9.9463   -7.4845 Cl  0  0  0  0  0  0  0  0  0  0  0  0
   -1.9819    5.2250   -4.7420 C   0  0  0  0  0  0  0  0  0  0  0  0
   -1.8284    4.8172   -6.4305 S   0  0  0  0  0  0  0  0  0  0  0  0
   -0.7055    6.9079   -1.5860 C   0  0  0  0  0  0  0  0  0  0  0  0
   -0.9212    6.4353   -0.2773 C   0  0  0  0  0  0  0  0  0  0  0  0
   -1.9024    5.0925   -0.3441 S   0  0  0  0  0  0  0  0  0  0  0  0
   -0.2290    6.9010    0.9605 C   0  0  0  0  0  0  0  0  0  0  0  0
   -0.1837    8.3009    1.3116 C   0  0  0  0  0  0  0  0  0  0  0  0
    0.4204    8.4973    2.5633 C   0  0  0  0  0  0  0  0  0  0  0  0
    0.4535   10.1104    3.4208 S   0  0  0  0  0  0  0  0  0  0  0  0
    2.1477   10.7090    3.0081 C   0  0  0  0  0  0  0  0  0  0  0  0
    0.6633    7.0212    3.3091 S   0  0  0  0  0  0  0  0  0  0  0  0
    0.1428    6.0772    2.0049 C   0  0  0  0  0  0  0  0  0  0  0  0
    0.6600    4.6675    1.7878 C   0  0  0  0  0  0  0  0  0  0  0  0
    1.2832    4.4411    0.6588 C   0  0  0  0  0  0  0  0  0  0  0  0
    2.7108    4.0866    0.8831 C   0  0  0  0  0  0  0  0  0  0  0  0
    3.3161    2.9198    0.4840 C   0  0  0  0  0  0  0  0  0  0  0  0
    4.6021    2.7208    1.0471 C   0  0  0  0  0  0  0  0  0  0  0  0
    5.4754    1.6138    0.8637 C   0  0  0  0  0  0  0  0  0  0  0  0
    5.0480    0.5283   -0.0380 C   0  0  0  0  0  0  0  0  0  0  0  0
    4.4351    0.7014   -1.5664 S   0  0  0  0  0  0  0  0  0  0  0  0
    4.5935   -0.8442   -2.0830 C   0  0  0  0  0  0  0  0  0  0  0  0
    4.2337   -1.3614   -3.4309 C   0  0  0  0  0  0  0  0  0  0  0  0
    3.2733   -2.5412   -3.3024 C   0  0  0  0  0  0  0  0  0  0  0  0
    5.3637   -1.5305   -1.1208 C   0  0  0  0  0  0  0  0  0  0  0  0
    6.2082   -2.9912   -1.4267 Cl  0  0  0  0  0  0  0  0  0  0  0  0
    5.5645   -0.7992    0.0622 C   0  0  0  0  0  0  0  0  0  0  0  0
    6.0745   -1.6264    1.5249 Cl  0  0  0  0  0  0  0  0  0  0  0  0
    6.7303    1.6618    1.5029 C   0  0  0  0  0  0  0  0  0  0  0  0
    7.0984    2.6994    2.3988 C   0  0  0  0  0  0  0  0  0  0  0  0
    6.1622    3.7322    2.6803 C   0  0  0  0  0  0  0  0  0  0  0  0
    6.3955    4.6647    3.8155 C   0  0  0  0  0  0  0  0  0  0  0  0
    6.0245    6.3117    3.8362 S   0  0  0  0  0  0  0  0  0  0  0  0
    6.2652    6.5344    5.4941 C   0  0  0  0  0  0  0  0  0  0  0  0
    6.0701    7.8271    6.2542 C   0  0  0  0  0  0  0  0  0  0  0  0
    7.3610    8.6419    6.2615 C   0  0  0  0  0  0  0  0  0  0  0  0
    6.6596    5.3270    6.0357 C   0  0  0  0  0  0  0  0  0  0  0  0
    6.7429    4.2780    5.1109 C   0  0  0  0  0  0  0  0  0  0  0  0
    7.0079    2.6203    5.6272 Cl  0  0  0  0  0  0  0  0  0  0  0  0
    6.9861    5.1064    7.7417 Cl  0  0  0  0  0  0  0  0  0  0  0  0
    4.9801    3.7589    1.9402 C   0  0  0  0  0  0  0  0  0  0  0  0
    3.7136    4.8613    2.0041 S   0  0  0  0  0  0  0  0  0  0  0  0
    8.4348    2.5607    2.8539 C   0  0  0  0  0  0  0  0  0  0  0  0
    9.1316    1.4858    2.3662 C   0  0  0  0  0  0  0  0  0  0  0  0
    8.1071    0.7237    1.3334 S   0  0  0  0  0  0  0  0  0  0  0  0
   -0.5365   -4.4875   11.8254 H   0  0  0  0  0  0  0  0  0  0  0  0
   -2.5568   -4.1099   10.2605 H   0  0  0  0  0  0  0  0  0  0  0  0
   -7.7162   -3.5637    6.2704 H   0  0  0  0  0  0  0  0  0  0  0  0
   -7.6848   -2.0190    7.1624 H   0  0  0  0  0  0  0  0  0  0  0  0
   -7.8950   -1.8393    4.5661 H   0  0  0  0  0  0  0  0  0  0  0  0
   -6.2268   -2.4947    4.5068 H   0  0  0  0  0  0  0  0  0  0  0  0
   -6.4966   -0.8908    5.2941 H   0  0  0  0  0  0  0  0  0  0  0  0
    4.8824   -7.6443    4.2764 H   0  0  0  0  0  0  0  0  0  0  0  0
    5.4272   -8.7694    5.5748 H   0  0  0  0  0  0  0  0  0  0  0  0
    7.1290   -7.0775    5.2559 H   0  0  0  0  0  0  0  0  0  0  0  0
    6.3013   -6.6060    6.8097 H   0  0  0  0  0  0  0  0  0  0  0  0
    5.9478   -5.7446    5.2566 H   0  0  0  0  0  0  0  0  0  0  0  0
    0.3984   -7.0862    4.4709 H   0  0  0  0  0  0  0  0  0  0  0  0
    0.4183   -6.7804    1.8995 H   0  0  0  0  0  0  0  0  0  0  0  0
    4.9684   -7.6549   -2.9517 H   0  0  0  0  0  0  0  0  0  0  0  0
    5.7187   -6.2930   -2.0619 H   0  0  0  0  0  0  0  0  0  0  0  0
    5.5701   -9.2624   -1.3960 H   0  0  0  0  0  0  0  0  0  0  0  0
    5.4665   -8.1082    0.0066 H   0  0  0  0  0  0  0  0  0  0  0  0
    6.8885   -8.0509   -1.0887 H   0  0  0  0  0  0  0  0  0  0  0  0
   -8.7955   -6.4387    0.2128 H   0  0  0  0  0  0  0  0  0  0  0  0
   -8.0554   -5.0076    1.0216 H   0  0  0  0  0  0  0  0  0  0  0  0
   -9.5616   -5.1095   -1.6294 H   0  0  0  0  0  0  0  0  0  0  0  0
   -8.3377   -3.7986   -1.2716 H   0  0  0  0  0  0  0  0  0  0  0  0
   -9.7715   -4.0173   -0.2052 H   0  0  0  0  0  0  0  0  0  0  0  0
   -3.5717   -5.3832   -3.8173 H   0  0  0  0  0  0  0  0  0  0  0  0
   -3.7394   -4.1979   -5.7485 H   0  0  0  0  0  0  0  0  0  0  0  0
   -9.1992   -3.8426   -6.2236 H   0  0  0  0  0  0  0  0  0  0  0  0
   -8.2603   -4.1406   -4.7188 H   0  0  0  0  0  0  0  0  0  0  0  0
   -9.6180   -1.4276   -5.2356 H   0  0  0  0  0  0  0  0  0  0  0  0
  -10.4673   -2.8379   -4.4926 H   0  0  0  0  0  0  0  0  0  0  0  0
   -9.0446   -2.1789   -3.6472 H   0  0  0  0  0  0  0  0  0  0  0  0
    4.3169   -1.1603   -9.4760 H   0  0  0  0  0  0  0  0  0  0  0  0
    4.7493    0.4287   -8.7943 H   0  0  0  0  0  0  0  0  0  0  0  0
    5.2835   -0.7126   -6.5662 H   0  0  0  0  0  0  0  0  0  0  0  0
    6.3171   -1.2569   -7.9453 H   0  0  0  0  0  0  0  0  0  0  0  0
    4.9784   -2.2962   -7.3594 H   0  0  0  0  0  0  0  0  0  0  0  0
   -0.7372    1.9058   -7.6050 H   0  0  0  0  0  0  0  0  0  0  0  0
   -3.6302    2.3332   -4.7390 H   0  0  0  0  0  0  0  0  0  0  0  0
   -5.9695   -0.1118    0.1899 H   0  0  0  0  0  0  0  0  0  0  0  0
   -4.4450    0.2443    1.0929 H   0  0  0  0  0  0  0  0  0  0  0  0
   -6.6149    0.6390    2.3773 H   0  0  0  0  0  0  0  0  0  0  0  0
   -5.4579    2.0306    2.3334 H   0  0  0  0  0  0  0  0  0  0  0  0
   -6.9506    2.0309    1.2786 H   0  0  0  0  0  0  0  0  0  0  0  0
    2.8963    9.7552   -6.4380 H   0  0  0  0  0  0  0  0  0  0  0  0
    3.2837    9.3940   -4.7169 H   0  0  0  0  0  0  0  0  0  0  0  0
    3.1055   11.7459   -4.7116 H   0  0  0  0  0  0  0  0  0  0  0  0
    1.6992   11.7634   -5.8533 H   0  0  0  0  0  0  0  0  0  0  0  0
    1.4902   11.2070   -4.1236 H   0  0  0  0  0  0  0  0  0  0  0  0
   -0.2988    7.8342   -1.8109 H   0  0  0  0  0  0  0  0  0  0  0  0
   -0.4234    9.0803    0.6350 H   0  0  0  0  0  0  0  0  0  0  0  0
    2.5718   10.2017    2.1289 H   0  0  0  0  0  0  0  0  0  0  0  0
    2.0667   11.8098    2.7916 H   0  0  0  0  0  0  0  0  0  0  0  0
    2.7912   10.5966    3.9278 H   0  0  0  0  0  0  0  0  0  0  0  0
    0.4188    3.8193    2.4542 H   0  0  0  0  0  0  0  0  0  0  0  0
    0.7370    3.8303   -0.0488 H   0  0  0  0  0  0  0  0  0  0  0  0
    2.8037    2.2081   -0.0998 H   0  0  0  0  0  0  0  0  0  0  0  0
    3.8078   -0.5713   -4.0527 H   0  0  0  0  0  0  0  0  0  0  0  0
    5.1618   -1.7384   -3.9463 H   0  0  0  0  0  0  0  0  0  0  0  0
    2.2363   -2.1799   -2.9718 H   0  0  0  0  0  0  0  0  0  0  0  0
    3.6296   -3.2893   -2.6003 H   0  0  0  0  0  0  0  0  0  0  0  0
    3.1643   -3.0291   -4.2959 H   0  0  0  0  0  0  0  0  0  0  0  0
    5.2401    8.4087    5.8014 H   0  0  0  0  0  0  0  0  0  0  0  0
    5.7730    7.6036    7.3018 H   0  0  0  0  0  0  0  0  0  0  0  0
    7.1567    9.6486    6.7099 H   0  0  0  0  0  0  0  0  0  0  0  0
    8.1572    8.1371    6.8489 H   0  0  0  0  0  0  0  0  0  0  0  0
    7.6987    8.8191    5.2366 H   0  0  0  0  0  0  0  0  0  0  0  0
    8.8852    3.2650    3.5629 H   0  0  0  0  0  0  0  0  0  0  0  0
   10.1606    1.2369    2.5708 H   0  0  0  0  0  0  0  0  0  0  0  0
  1  2  2  0
  2  3  1  0
  3  4  2  0
  4  5  1  0
  5  6  1  0
  6  7  1  0
  7  8  1  0
  8  9  1  0
  7 10  2  0
 10 11  1  0
 10 12  1  0
 12 13  1  0
  4 14  1  0
 14 15  2  0
 15 16  1  0
 16 17  1  0
 17 18  1  0
 18 19  1  0
 19 20  1  0
 20 21  1  0
 19 22  2  0
 22 23  1  0
 23 24  1  0
 22 25  1  0
 16 26  2  0
 26 27  1  0
 15 28  1  0
 28 29  2  0
 29 30  1  0
 29 31  1  0
 31 32  2  0
 32 33  1  0
 33 34  2  0
 34 35  1  0
 35 36  1  0
 36 37  1  0
 37 38  1  0
 38 39  1  0
 37 40  2  0
 40 41  1  0
 40 42  1  0
 42 43  1  0
 34 44  1  0
 44 45  2  0
 45 46  1  0
 46 47  1  0
 47 48  1  0
 48 49  1  0
 49 50  1  0
 50 51  1  0
 49 52  2  0
 52 53  1  0
 53 54  1  0
 52 55  1  0
 46 56  2  0
 56 57  1  0
 45 58  1  0
 58 59  2  0
 59 60  1  0
 59 61  1  0
 61 62  2  0
 62 63  1  0
 63 64  2  0
 64 65  1  0
 65 66  1  0
 66 67  1  0
 67 68  1  0
 68 69  1  0
 67 70  2  0
 70 71  1  0
 70 72  1  0
 72 73  1  0
 64 74  1  0
 74 75  2  0
 75 76  1  0
 76 77  1  0
 77 78  1  0
 78 79  1  0
 79 80  1  0
 80 81  1  0
 79 82  2  0
 82 83  1  0
 83 84  1  0
 82 85  1  0
 76 86  2  0
 86 87  1  0
 75 88  1  0
 88 89  2  0
 89 90  1  0
 89 91  1  0
 91 92  2  0
 92 93  1  0
 93 94  2  0
 94 95  1  0
 95 96  1  0
 96 97  1  0
 97 98  1  0
 98 99  1  0
 97100  2  0
100101  1  0
100102  1  0
102103  1  0
 94104  1  0
104105  2  0
105106  1  0
106107  1  0
107108  1  0
108109  1  0
109110  1  0
110111  1  0
109112  2  0
112113  1  0
113114  1  0
112115  1  0
106116  2  0
116117  1  0
105118  1  0
118119  2  0
119120  1  0
119121  1  0
121122  1  0
122123  2  0
123124  1  0
124125  1  0
123126  1  0
126127  1  0
127128  1  0
128129  2  3
129130  1  0
130131  2  0
131132  1  0
132133  2  0
133134  1  0
134135  1  0
135136  1  0
136137  1  0
137138  1  0
136139  2  0
139140  1  0
139141  1  0
141142  1  0
133143  1  0
143144  2  0
144145  1  0
145146  1  0
146147  1  0
147148  1  0
148149  1  0
149150  1  0
148151  2  0
151152  1  0
152153  1  0
151154  1  0
145155  2  0
155156  1  0
144157  1  0
157158  2  0
158159  1  0
 27  1  1  0
 57 31  1  0
 87 61  1  0
117 91  1  0
127121  2  0
156130  1  0
 26  3  1  0
 56 33  1  0
 86 63  1  0
116 93  1  0
155132  1  0
 12  5  2  0
 30 14  1  0
 42 35  2  0
 60 44  1  0
 72 65  2  0
 90 74  1  0
102 95  2  0
120104  1  0
141134  2  0
159143  1  0
 23 17  2  0
 53 47  2  0
 83 77  2  0
113107  2  0
152146  2  0
  1160  1  0
  2161  1  0
  8162  1  0
  8163  1  0
  9164  1  0
  9165  1  0
  9166  1  0
 20167  1  0
 20168  1  0
 21169  1  0
 21170  1  0
 21171  1  0
 28172  1  0
 32173  1  0
 38174  1  0
 38175  1  0
 39176  1  0
 39177  1  0
 39178  1  0
 50179  1  0
 50180  1  0
 51181  1  0
 51182  1  0
 51183  1  0
 58184  1  0
 62185  1  0
 68186  1  0
 68187  1  0
 69188  1  0
 69189  1  0
 69190  1  0
 80191  1  0
 80192  1  0
 81193  1  0
 81194  1  0
 81195  1  0
 88196  1  0
 92197  1  0
 98198  1  0
 98199  1  0
 99200  1  0
 99201  1  0
 99202  1  0
110203  1  0
110204  1  0
111205  1  0
111206  1  0
111207  1  0
118208  1  0
122209  1  0
125210  1  0
125211  1  0
125212  1  0
128213  1  0
129214  1  0
131215  1  0
137216  1  0
137217  1  0
138218  1  0
138219  1  0
138220  1  0
149221  1  0
149222  1  0
150223  1  0
150224  1  0
150225  1  0
157226  1  0
158227  1  0
M  END

