
     RDKit          3D

102117  0  0  0  0  0  0  0  0999 V2000
    0.8254    7.2454   -2.5305 C   0  0  0  0  0  0  0  0  0  0  0  0
    1.1840    7.9657   -1.4022 C   0  0  0  0  0  0  0  0  0  0  0  0
    0.6817    7.4595   -0.1998 C   0  0  0  0  0  0  0  0  0  0  0  0
    1.0059    8.0542    0.9753 N   0  0  0  0  0  0  0  0  0  0  0  0
    1.7971    9.1637    0.9816 C   0  0  0  0  0  0  0  0  0  0  0  0
    2.2864    9.6866   -0.2324 C   0  0  0  0  0  0  0  0  0  0  0  0
    3.1495   10.9069   -0.2361 C   0  0  0  0  0  0  0  0  0  0  0  0
    1.9708    9.0699   -1.4078 N   0  0  0  0  0  0  0  0  0  0  0  0
   -0.1052    6.3198   -0.3494 C   0  0  0  0  0  0  0  0  0  0  0  0
   -0.1305    5.9609   -1.9998 S   0  0  0  0  0  0  0  0  0  0  0  0
   -0.8328    5.5599    0.6848 C   0  0  0  0  0  0  0  0  0  0  0  0
   -1.3984    6.0344    1.8676 C   0  0  0  0  0  0  0  0  0  0  0  0
   -2.1520    5.0849    2.5668 C   0  0  0  0  0  0  0  0  0  0  0  0
   -2.7722    5.4227    3.7252 N   0  0  0  0  0  0  0  0  0  0  0  0
   -2.6725    6.6944    4.2039 C   0  0  0  0  0  0  0  0  0  0  0  0
   -1.9388    7.6604    3.4869 C   0  0  0  0  0  0  0  0  0  0  0  0
   -1.8259    9.0610    3.9955 C   0  0  0  0  0  0  0  0  0  0  0  0
   -1.3169    7.3076    2.3270 N   0  0  0  0  0  0  0  0  0  0  0  0
   -2.2045    3.8359    1.9555 C   0  0  0  0  0  0  0  0  0  0  0  0
   -1.3026    3.9433    0.5328 S   0  0  0  0  0  0  0  0  0  0  0  0
   -2.9981    2.6629    2.3555 C   0  0  0  0  0  0  0  0  0  0  0  0
   -4.1306    2.7445    3.1067 N   0  0  0  0  0  0  0  0  0  0  0  0
   -4.5900    1.4907    3.1097 C   0  0  0  0  0  0  0  0  0  0  0  0
   -5.7685    1.0411    3.6274 N   0  0  0  0  0  0  0  0  0  0  0  0
   -6.0218   -0.2805    3.4021 C   0  0  0  0  0  0  0  0  0  0  0  0
   -7.1075   -0.9743    3.7518 N   0  0  0  0  0  0  0  0  0  0  0  0
   -6.8797   -2.2103    3.2280 C   0  0  0  0  0  0  0  0  0  0  0  0
   -5.6808   -2.3268    2.5871 N   0  0  0  0  0  0  0  0  0  0  0  0
   -5.1686   -1.0915    2.6996 C   0  0  0  0  0  0  0  0  0  0  0  0
   -4.0064   -0.6311    2.1571 N   0  0  0  0  0  0  0  0  0  0  0  0
   -3.7425    0.6874    2.3892 C   0  0  0  0  0  0  0  0  0  0  0  0
   -2.7288    1.4081    1.8876 N   0  0  0  0  0  0  0  0  0  0  0  0
   -7.8276   -3.3261    3.4224 C   0  0  0  0  0  0  0  0  0  0  0  0
   -7.9445   -4.4205    2.6529 C   0  0  0  0  0  0  0  0  0  0  0  0
   -7.2770   -4.6637    1.3578 C   0  0  0  0  0  0  0  0  0  0  0  0
   -7.1400   -5.9178    0.8442 N   0  0  0  0  0  0  0  0  0  0  0  0
   -6.5339   -5.7127   -0.3273 C   0  0  0  0  0  0  0  0  0  0  0  0
   -6.1374   -6.6496   -1.2368 N   0  0  0  0  0  0  0  0  0  0  0  0
   -5.5080   -6.1437   -2.3360 C   0  0  0  0  0  0  0  0  0  0  0  0
   -5.0161   -6.8197   -3.3767 N   0  0  0  0  0  0  0  0  0  0  0  0
   -4.4618   -5.8437   -4.1472 C   0  0  0  0  0  0  0  0  0  0  0  0
   -4.6050   -4.5797   -3.6509 N   0  0  0  0  0  0  0  0  0  0  0  0
   -5.2719   -4.8018   -2.5064 C   0  0  0  0  0  0  0  0  0  0  0  0
   -5.6819   -3.8673   -1.5989 N   0  0  0  0  0  0  0  0  0  0  0  0
   -6.3269   -4.3688   -0.5059 C   0  0  0  0  0  0  0  0  0  0  0  0
   -6.8045   -3.6760    0.5399 N   0  0  0  0  0  0  0  0  0  0  0  0
   -3.8136   -6.1168   -5.4328 C   0  0  0  0  0  0  0  0  0  0  0  0
   -2.4868   -6.1461   -5.6207 C   0  0  0  0  0  0  0  0  0  0  0  0
   -1.4520   -6.0756   -4.5649 C   0  0  0  0  0  0  0  0  0  0  0  0
   -1.6322   -6.4771   -3.2741 N   0  0  0  0  0  0  0  0  0  0  0  0
   -0.4093   -6.3949   -2.7451 C   0  0  0  0  0  0  0  0  0  0  0  0
   -0.0099   -6.8391   -1.5198 N   0  0  0  0  0  0  0  0  0  0  0  0
    1.3328   -6.7654   -1.2917 C   0  0  0  0  0  0  0  0  0  0  0  0
    2.0021   -7.2381   -0.2381 N   0  0  0  0  0  0  0  0  0  0  0  0
    3.3071   -7.0643   -0.5815 C   0  0  0  0  0  0  0  0  0  0  0  0
    3.4856   -6.5256   -1.8236 N   0  0  0  0  0  0  0  0  0  0  0  0
    2.2232   -6.3311   -2.2410 C   0  0  0  0  0  0  0  0  0  0  0  0
    1.8240   -5.9390   -3.4851 N   0  0  0  0  0  0  0  0  0  0  0  0
    0.4755   -5.9630   -3.6995 C   0  0  0  0  0  0  0  0  0  0  0  0
   -0.1567   -5.7670   -4.8676 N   0  0  0  0  0  0  0  0  0  0  0  0
    4.4033   -7.6215    0.2337 C   0  0  0  0  0  0  0  0  0  0  0  0
    5.6853   -7.2328    0.1923 C   0  0  0  0  0  0  0  0  0  0  0  0
    6.1912   -6.0144   -0.4655 C   0  0  0  0  0  0  0  0  0  0  0  0
    7.5017   -5.8699   -0.7984 N   0  0  0  0  0  0  0  0  0  0  0  0
    7.5858   -4.6000   -1.2010 C   0  0  0  0  0  0  0  0  0  0  0  0
    8.7148   -3.9075   -1.5294 N   0  0  0  0  0  0  0  0  0  0  0  0
    8.5172   -2.5823   -1.7850 C   0  0  0  0  0  0  0  0  0  0  0  0
    9.4441   -1.6600   -2.0561 N   0  0  0  0  0  0  0  0  0  0  0  0
    8.7336   -0.5014   -2.1016 C   0  0  0  0  0  0  0  0  0  0  0  0
    7.3961   -0.6573   -1.8659 N   0  0  0  0  0  0  0  0  0  0  0  0
    7.2893   -1.9812   -1.6772 C   0  0  0  0  0  0  0  0  0  0  0  0
    6.1703   -2.6700   -1.3114 N   0  0  0  0  0  0  0  0  0  0  0  0
    6.3538   -4.0043   -1.0949 C   0  0  0  0  0  0  0  0  0  0  0  0
    5.4513   -4.8754   -0.6166 N   0  0  0  0  0  0  0  0  0  0  0  0
    9.3706    0.8042   -2.3393 C   0  0  0  0  0  0  0  0  0  0  0  0
    8.6836    1.9434   -2.3260 C   0  0  0  0  0  0  0  0  0  0  0  0
    1.1081    7.4618   -3.5509 H   0  0  0  0  0  0  0  0  0  0  0  0
    2.0462    9.6372    1.9234 H   0  0  0  0  0  0  0  0  0  0  0  0
    3.4637   11.1590   -1.2706 H   0  0  0  0  0  0  0  0  0  0  0  0
    2.5848   11.7653    0.1845 H   0  0  0  0  0  0  0  0  0  0  0  0
    4.0560   10.7268    0.3787 H   0  0  0  0  0  0  0  0  0  0  0  0
   -3.1675    6.9561    5.1291 H   0  0  0  0  0  0  0  0  0  0  0  0
   -2.8382    9.4910    4.1440 H   0  0  0  0  0  0  0  0  0  0  0  0
   -1.2747    9.6951    3.2692 H   0  0  0  0  0  0  0  0  0  0  0  0
   -1.2777    9.0658    4.9612 H   0  0  0  0  0  0  0  0  0  0  0  0
   -4.5868    3.5884    3.5196 H   0  0  0  0  0  0  0  0  0  0  0  0
   -7.9388   -0.6416    4.2898 H   0  0  0  0  0  0  0  0  0  0  0  0
   -8.4717   -3.2613    4.2906 H   0  0  0  0  0  0  0  0  0  0  0  0
   -8.6185   -5.1947    2.9973 H   0  0  0  0  0  0  0  0  0  0  0  0
   -7.4302   -6.8281    1.2672 H   0  0  0  0  0  0  0  0  0  0  0  0
   -5.0365   -7.8503   -3.5464 H   0  0  0  0  0  0  0  0  0  0  0  0
   -4.4574   -6.2298   -6.2959 H   0  0  0  0  0  0  0  0  0  0  0  0
   -2.1321   -6.2385   -6.6391 H   0  0  0  0  0  0  0  0  0  0  0  0
   -2.4764   -6.8790   -2.8145 H   0  0  0  0  0  0  0  0  0  0  0  0
    1.6122   -7.7020    0.6132 H   0  0  0  0  0  0  0  0  0  0  0  0
    4.1555   -8.4592    0.8745 H   0  0  0  0  0  0  0  0  0  0  0  0
    6.4078   -7.8277    0.7391 H   0  0  0  0  0  0  0  0  0  0  0  0
    8.2752   -6.5647   -0.6966 H   0  0  0  0  0  0  0  0  0  0  0  0
   10.4756   -1.7951   -2.1617 H   0  0  0  0  0  0  0  0  0  0  0  0
   10.4378    0.8378   -2.5215 H   0  0  0  0  0  0  0  0  0  0  0  0
    7.6155    1.9586   -2.1465 H   0  0  0  0  0  0  0  0  0  0  0  0
    9.1929    2.8818   -2.4972 H   0  0  0  0  0  0  0  0  0  0  0  0
  1  2  2  0
  2  3  1  0
  3  4  1  0
  4  5  2  0
  5  6  1  0
  6  7  1  0
  6  8  2  0
  3  9  2  0
  9 10  1  0
  9 11  1  0
 11 12  2  0
 12 13  1  0
 13 14  1  0
 14 15  2  0
 15 16  1  0
 16 17  1  0
 16 18  2  0
 13 19  2  0
 19 20  1  0
 19 21  1  0
 21 22  1  0
 22 23  1  0
 23 24  2  0
 24 25  1  0
 25 26  1  0
 26 27  1  0
 27 28  2  0
 28 29  1  0
 29 30  1  0
 30 31  2  0
 31 32  1  0
 27 33  1  0
 33 34  2  3
 34 35  1  0
 35 36  1  0
 36 37  1  0
 37 38  2  0
 38 39  1  0
 39 40  1  0
 40 41  1  0
 41 42  2  0
 42 43  1  0
 43 44  1  0
 44 45  2  0
 45 46  1  0
 41 47  1  0
 47 48  2  3
 48 49  1  0
 49 50  1  0
 50 51  1  0
 51 52  2  0
 52 53  1  0
 53 54  1  0
 54 55  1  0
 55 56  2  0
 56 57  1  0
 57 58  1  0
 58 59  2  0
 59 60  1  0
 55 61  1  0
 61 62  2  3
 62 63  1  0
 63 64  1  0
 64 65  1  0
 65 66  2  0
 66 67  1  0
 67 68  1  0
 68 69  1  0
 69 70  2  0
 70 71  1  0
 71 72  1  0
 72 73  2  0
 73 74  1  0
 69 75  1  0
 75 76  2  3
 10  1  1  0
 20 11  1  0
 32 21  2  0
 46 35  2  0
 60 49  2  0
 74 63  2  0
  8  2  1  0
 18 12  1  0
 31 23  1  0
 45 37  1  0
 59 51  1  0
 73 65  1  0
 29 25  2  0
 43 39  2  0
 57 53  2  0
 71 67  2  0
  1 77  1  0
  5 78  1  0
  7 79  1  0
  7 80  1  0
  7 81  1  0
 15 82  1  0
 17 83  1  0
 17 84  1  0
 17 85  1  0
 22 86  1  0
 26 87  1  0
 33 88  1  0
 34 89  1  0
 36 90  1  0
 40 91  1  0
 47 92  1  0
 48 93  1  0
 50 94  1  0
 54 95  1  0
 61 96  1  0
 62 97  1  0
 64 98  1  0
 68 99  1  0
 75100  1  0
 76101  1  0
 76102  1  0
M  END

