
     RDKit          3D

194214  0  0  0  0  0  0  0  0999 V2000
    5.6590   -6.9466   11.2817 C   0  0  0  0  0  0  0  0  0  0  0  0
    6.6121   -6.1095   10.7107 C   0  0  0  0  0  0  0  0  0  0  0  0
    6.2633   -5.6720    9.4213 C   0  0  0  0  0  0  0  0  0  0  0  0
    7.0394   -4.8484    8.5783 C   0  0  0  0  0  0  0  0  0  0  0  0
    8.3436   -4.3048    9.0030 C   0  0  0  0  0  0  0  0  0  0  0  0
    9.5209   -4.7090    8.3551 C   0  0  0  0  0  0  0  0  0  0  0  0
   10.7574   -4.2061    8.7661 C   0  0  0  0  0  0  0  0  0  0  0  0
   10.8273   -3.2805    9.8132 C   0  0  0  0  0  0  0  0  0  0  0  0
   12.4241   -2.6359   10.3282 S   0  0  0  0  0  0  0  0  0  0  0  0
   12.5115   -1.3494    9.0312 C   0  0  0  0  0  0  0  0  0  0  0  0
   11.6556   -0.1407    9.3874 C   0  0  0  0  0  0  0  0  0  0  0  0
    9.6547   -2.8770   10.4685 C   0  0  0  0  0  0  0  0  0  0  0  0
    9.7106   -1.9933   11.4971 F   0  0  0  0  0  0  0  0  0  0  0  0
    8.4172   -3.3857   10.0612 C   0  0  0  0  0  0  0  0  0  0  0  0
    6.5176   -4.5766    7.3004 C   0  0  0  0  0  0  0  0  0  0  0  0
    5.2895   -5.0879    6.8648 C   0  0  0  0  0  0  0  0  0  0  0  0
    4.5095   -5.9043    7.7097 C   0  0  0  0  0  0  0  0  0  0  0  0
    3.2092   -6.4640    7.2809 C   0  0  0  0  0  0  0  0  0  0  0  0
    2.0350   -6.1463    7.9816 C   0  0  0  0  0  0  0  0  0  0  0  0
    0.8059   -6.6685    7.5720 C   0  0  0  0  0  0  0  0  0  0  0  0
    0.7380   -7.5220    6.4650 C   0  0  0  0  0  0  0  0  0  0  0  0
   -0.8510   -8.1653    5.9272 S   0  0  0  0  0  0  0  0  0  0  0  0
   -0.7253   -9.7349    6.8519 C   0  0  0  0  0  0  0  0  0  0  0  0
   -1.1299   -9.5468    8.3074 C   0  0  0  0  0  0  0  0  0  0  0  0
    1.9054   -7.8377    5.7581 C   0  0  0  0  0  0  0  0  0  0  0  0
    3.1360   -7.3197    6.1688 C   0  0  0  0  0  0  0  0  0  0  0  0
    1.8514   -8.6491    4.6714 F   0  0  0  0  0  0  0  0  0  0  0  0
    5.0316   -6.1737    8.9869 C   0  0  0  0  0  0  0  0  0  0  0  0
    4.3868   -7.1534   10.1923 S   0  0  0  0  0  0  0  0  0  0  0  0
    4.9475   -4.6656    5.5701 C   0  0  0  0  0  0  0  0  0  0  0  0
    5.9083   -3.8342    5.0057 C   0  0  0  0  0  0  0  0  0  0  0  0
    7.1744   -3.5973    6.0946 S   0  0  0  0  0  0  0  0  0  0  0  0
    5.7906   -3.2031    3.6939 C   0  0  0  0  0  0  0  0  0  0  0  0
    5.2226   -1.9537    3.4674 C   0  0  0  0  0  0  0  0  0  0  0  0
    4.9917   -1.7041    2.1059 C   0  0  0  0  0  0  0  0  0  0  0  0
    4.3370   -0.5796    1.5691 C   0  0  0  0  0  0  0  0  0  0  0  0
    3.8028    0.4877    2.4297 C   0  0  0  0  0  0  0  0  0  0  0  0
    2.6215    0.2758    3.1529 C   0  0  0  0  0  0  0  0  0  0  0  0
    2.1062    1.2861    3.9678 C   0  0  0  0  0  0  0  0  0  0  0  0
    2.7633    2.5174    4.0621 C   0  0  0  0  0  0  0  0  0  0  0  0
    2.0884    3.8017    5.1232 S   0  0  0  0  0  0  0  0  0  0  0  0
    0.9756    4.5101    3.8582 C   0  0  0  0  0  0  0  0  0  0  0  0
    1.7366    5.4418    2.9245 C   0  0  0  0  0  0  0  0  0  0  0  0
    3.9592    2.7255    3.3565 C   0  0  0  0  0  0  0  0  0  0  0  0
    4.6325    3.8985    3.4752 F   0  0  0  0  0  0  0  0  0  0  0  0
    4.4712    1.7157    2.5337 C   0  0  0  0  0  0  0  0  0  0  0  0
    4.1005   -0.5781    0.1865 C   0  0  0  0  0  0  0  0  0  0  0  0
    4.4946   -1.6302   -0.6452 C   0  0  0  0  0  0  0  0  0  0  0  0
    5.1689   -2.7505   -0.1144 C   0  0  0  0  0  0  0  0  0  0  0  0
    5.5376   -3.9106   -0.9504 C   0  0  0  0  0  0  0  0  0  0  0  0
    4.5427   -4.6769   -1.5797 C   0  0  0  0  0  0  0  0  0  0  0  0
    4.8948   -5.7588   -2.3907 C   0  0  0  0  0  0  0  0  0  0  0  0
    6.2407   -6.0957   -2.5678 C   0  0  0  0  0  0  0  0  0  0  0  0
    6.6814   -7.4772   -3.6289 S   0  0  0  0  0  0  0  0  0  0  0  0
    6.4442   -8.7626   -2.3496 C   0  0  0  0  0  0  0  0  0  0  0  0
    7.6249   -8.8119   -1.3881 C   0  0  0  0  0  0  0  0  0  0  0  0
    7.2390   -5.3311   -1.9466 C   0  0  0  0  0  0  0  0  0  0  0  0
    6.8873   -4.2472   -1.1358 C   0  0  0  0  0  0  0  0  0  0  0  0
    8.5502   -5.6262   -2.1360 F   0  0  0  0  0  0  0  0  0  0  0  0
    5.3986   -2.7538    1.2733 C   0  0  0  0  0  0  0  0  0  0  0  0
    6.0003   -4.0064    2.2241 S   0  0  0  0  0  0  0  0  0  0  0  0
    4.0672   -1.4709   -1.9737 C   0  0  0  0  0  0  0  0  0  0  0  0
    3.2966   -0.3218   -2.1686 C   0  0  0  0  0  0  0  0  0  0  0  0
    3.1972    0.5199   -0.7074 S   0  0  0  0  0  0  0  0  0  0  0  0
    2.4758   -0.0108   -3.3569 C   0  0  0  0  0  0  0  0  0  0  0  0
    2.0725   -0.8932   -4.3598 C   0  0  0  0  0  0  0  0  0  0  0  0
    1.0501   -0.4038   -5.1817 C   0  0  0  0  0  0  0  0  0  0  0  0
    0.5139   -1.1894   -6.1507 N   0  0  0  0  0  0  0  0  0  0  0  0
    0.9794   -2.4585   -6.3306 C   0  0  0  0  0  0  0  0  0  0  0  0
    2.0111   -2.9543   -5.5060 C   0  0  0  0  0  0  0  0  0  0  0  0
    2.5063   -4.3551   -5.6584 C   0  0  0  0  0  0  0  0  0  0  0  0
    2.5243   -2.1617   -4.5228 N   0  0  0  0  0  0  0  0  0  0  0  0
    0.6312    0.8836   -4.8683 C   0  0  0  0  0  0  0  0  0  0  0  0
    1.5333    1.3837   -3.5336 S   0  0  0  0  0  0  0  0  0  0  0  0
   -0.6008    1.5380   -5.3263 C   0  0  0  0  0  0  0  0  0  0  0  0
   -1.8385    0.9034   -5.4215 C   0  0  0  0  0  0  0  0  0  0  0  0
   -2.8968    1.8030   -5.6122 C   0  0  0  0  0  0  0  0  0  0  0  0
   -4.2639    1.4767   -5.6341 C   0  0  0  0  0  0  0  0  0  0  0  0
   -4.7327    0.0881   -5.5001 C   0  0  0  0  0  0  0  0  0  0  0  0
   -4.9071   -0.4749   -4.2275 C   0  0  0  0  0  0  0  0  0  0  0  0
   -5.3314   -1.8000   -4.1017 C   0  0  0  0  0  0  0  0  0  0  0  0
   -5.5834   -2.5702   -5.2464 C   0  0  0  0  0  0  0  0  0  0  0  0
   -6.1155   -4.2768   -5.0752 S   0  0  0  0  0  0  0  0  0  0  0  0
   -7.8851   -3.8508   -5.0172 C   0  0  0  0  0  0  0  0  0  0  0  0
   -8.7155   -5.1148   -4.8593 C   0  0  0  0  0  0  0  0  0  0  0  0
   -5.4082   -2.0075   -6.5184 C   0  0  0  0  0  0  0  0  0  0  0  0
   -5.6419   -2.7440   -7.6328 F   0  0  0  0  0  0  0  0  0  0  0  0
   -4.9832   -0.6813   -6.6436 C   0  0  0  0  0  0  0  0  0  0  0  0
   -5.1725    2.5411   -5.7293 C   0  0  0  0  0  0  0  0  0  0  0  0
   -4.7651    3.8728   -5.8370 C   0  0  0  0  0  0  0  0  0  0  0  0
   -3.3931    4.1968   -5.8501 C   0  0  0  0  0  0  0  0  0  0  0  0
   -2.9201    5.5809   -6.0119 C   0  0  0  0  0  0  0  0  0  0  0  0
   -2.6882    6.0890   -7.2975 C   0  0  0  0  0  0  0  0  0  0  0  0
   -2.2087    7.3920   -7.4606 C   0  0  0  0  0  0  0  0  0  0  0  0
   -1.9687    8.1982   -6.3408 C   0  0  0  0  0  0  0  0  0  0  0  0
   -1.3188    9.8595   -6.5619 S   0  0  0  0  0  0  0  0  0  0  0  0
   -2.9481   10.6903   -6.5457 C   0  0  0  0  0  0  0  0  0  0  0  0
   -3.6022   10.6360   -7.9204 C   0  0  0  0  0  0  0  0  0  0  0  0
   -2.1967    7.6894   -5.0539 C   0  0  0  0  0  0  0  0  0  0  0  0
   -2.6740    6.3844   -4.8907 C   0  0  0  0  0  0  0  0  0  0  0  0
   -1.9550    8.4548   -3.9596 F   0  0  0  0  0  0  0  0  0  0  0  0
   -2.4835    3.1345   -5.7034 C   0  0  0  0  0  0  0  0  0  0  0  0
   -0.8139    3.2073   -5.4925 S   0  0  0  0  0  0  0  0  0  0  0  0
   -5.8386    4.7813   -5.8557 C   0  0  0  0  0  0  0  0  0  0  0  0
   -7.0809    4.1529   -5.7317 C   0  0  0  0  0  0  0  0  0  0  0  0
   -6.8465    2.4819   -5.6373 S   0  0  0  0  0  0  0  0  0  0  0  0
   -8.3808    4.8386   -5.5914 C   0  0  0  0  0  0  0  0  0  0  0  0
   -9.5989    4.2701   -5.2280 C   0  0  0  0  0  0  0  0  0  0  0  0
  -10.6534    5.1828   -5.1119 C   0  0  0  0  0  0  0  0  0  0  0  0
  -11.8964    4.7473   -4.7884 N   0  0  0  0  0  0  0  0  0  0  0  0
  -12.1155    3.4252   -4.5408 C   0  0  0  0  0  0  0  0  0  0  0  0
  -11.0508    2.5088   -4.6322 C   0  0  0  0  0  0  0  0  0  0  0  0
  -11.2660    1.0587   -4.3385 C   0  0  0  0  0  0  0  0  0  0  0  0
   -9.8087    2.9530   -4.9789 N   0  0  0  0  0  0  0  0  0  0  0  0
  -10.2963    6.5045   -5.3727 C   0  0  0  0  0  0  0  0  0  0  0  0
   -8.6507    6.4990   -5.7628 S   0  0  0  0  0  0  0  0  0  0  0  0
  -11.1444    7.7148   -5.3203 C   0  0  0  0  0  0  0  0  0  0  0  0
  -12.2872    7.9434   -4.5549 C   0  0  0  0  0  0  0  0  0  0  0  0
  -12.8319    9.2232   -4.7072 C   0  0  0  0  0  0  0  0  0  0  0  0
  -13.9277    9.5908   -4.0003 N   0  0  0  0  0  0  0  0  0  0  0  0
  -14.5055    8.7077   -3.1367 C   0  0  0  0  0  0  0  0  0  0  0  0
  -13.9595    7.4181   -2.9787 C   0  0  0  0  0  0  0  0  0  0  0  0
  -14.5572    6.4495   -2.0084 C   0  0  0  0  0  0  0  0  0  0  0  0
  -12.8436    7.0693   -3.6807 N   0  0  0  0  0  0  0  0  0  0  0  0
  -12.1443   10.0470   -5.5835 C   0  0  0  0  0  0  0  0  0  0  0  0
  -10.8351    9.1503   -6.1609 S   0  0  0  0  0  0  0  0  0  0  0  0
    5.7302   -7.4049   12.2583 H   0  0  0  0  0  0  0  0  0  0  0  0
    7.5337   -5.8460   11.2128 H   0  0  0  0  0  0  0  0  0  0  0  0
    9.4797   -5.4208    7.5410 H   0  0  0  0  0  0  0  0  0  0  0  0
   11.6599   -4.5268    8.2620 H   0  0  0  0  0  0  0  0  0  0  0  0
   12.1956   -1.7635    8.0499 H   0  0  0  0  0  0  0  0  0  0  0  0
   13.5698   -1.0264    8.9404 H   0  0  0  0  0  0  0  0  0  0  0  0
   11.9422    0.2528   10.3843 H   0  0  0  0  0  0  0  0  0  0  0  0
   10.5797   -0.4112    9.3917 H   0  0  0  0  0  0  0  0  0  0  0  0
   11.8123    0.6554    8.6310 H   0  0  0  0  0  0  0  0  0  0  0  0
    7.5166   -3.0642   10.5692 H   0  0  0  0  0  0  0  0  0  0  0  0
    2.0704   -5.4749    8.8328 H   0  0  0  0  0  0  0  0  0  0  0  0
   -0.0963   -6.4020    8.1109 H   0  0  0  0  0  0  0  0  0  0  0  0
    0.3040  -10.1483    6.7960 H   0  0  0  0  0  0  0  0  0  0  0  0
   -1.4177  -10.4676    6.3817 H   0  0  0  0  0  0  0  0  0  0  0  0
   -2.1361   -9.0769    8.3716 H   0  0  0  0  0  0  0  0  0  0  0  0
   -1.1627  -10.5361    8.8144 H   0  0  0  0  0  0  0  0  0  0  0  0
   -0.3904   -8.9103    8.8361 H   0  0  0  0  0  0  0  0  0  0  0  0
    4.0321   -7.5771    5.6187 H   0  0  0  0  0  0  0  0  0  0  0  0
    4.0264   -4.9255    5.0680 H   0  0  0  0  0  0  0  0  0  0  0  0
    4.9312   -1.2821    4.2640 H   0  0  0  0  0  0  0  0  0  0  0  0
    2.1009   -0.6719    3.0843 H   0  0  0  0  0  0  0  0  0  0  0  0
    1.1946    1.1109    4.5241 H   0  0  0  0  0  0  0  0  0  0  0  0
    0.4750    3.7084    3.2736 H   0  0  0  0  0  0  0  0  0  0  0  0
    0.1893    5.0945    4.3838 H   0  0  0  0  0  0  0  0  0  0  0  0
    2.3210    6.1833    3.5092 H   0  0  0  0  0  0  0  0  0  0  0  0
    1.0174    5.9863    2.2767 H   0  0  0  0  0  0  0  0  0  0  0  0
    2.4238    4.8605    2.2752 H   0  0  0  0  0  0  0  0  0  0  0  0
    5.3916    1.8822    1.9868 H   0  0  0  0  0  0  0  0  0  0  0  0
    3.4966   -4.4295   -1.4488 H   0  0  0  0  0  0  0  0  0  0  0  0
    4.1195   -6.3362   -2.8769 H   0  0  0  0  0  0  0  0  0  0  0  0
    6.3592   -9.7441   -2.8615 H   0  0  0  0  0  0  0  0  0  0  0  0
    5.5024   -8.5849   -1.7876 H   0  0  0  0  0  0  0  0  0  0  0  0
    8.5742   -8.9288   -1.9519 H   0  0  0  0  0  0  0  0  0  0  0  0
    7.5082   -9.6776   -0.7026 H   0  0  0  0  0  0  0  0  0  0  0  0
    7.6696   -7.8865   -0.7780 H   0  0  0  0  0  0  0  0  0  0  0  0
    7.6653   -3.6575   -0.6668 H   0  0  0  0  0  0  0  0  0  0  0  0
    4.2792   -2.1901   -2.7492 H   0  0  0  0  0  0  0  0  0  0  0  0
    0.5462   -3.0818   -7.1017 H   0  0  0  0  0  0  0  0  0  0  0  0
    3.4578   -4.4922   -5.1016 H   0  0  0  0  0  0  0  0  0  0  0  0
    2.6871   -4.5831   -6.7310 H   0  0  0  0  0  0  0  0  0  0  0  0
    1.7504   -5.0607   -5.2548 H   0  0  0  0  0  0  0  0  0  0  0  0
   -1.9734   -0.1593   -5.2726 H   0  0  0  0  0  0  0  0  0  0  0  0
   -4.7137    0.1123   -3.3384 H   0  0  0  0  0  0  0  0  0  0  0  0
   -5.4631   -2.2301   -3.1164 H   0  0  0  0  0  0  0  0  0  0  0  0
   -8.1796   -3.3370   -5.9570 H   0  0  0  0  0  0  0  0  0  0  0  0
   -8.0757   -3.1753   -4.1550 H   0  0  0  0  0  0  0  0  0  0  0  0
   -8.5723   -5.7780   -5.7387 H   0  0  0  0  0  0  0  0  0  0  0  0
   -8.4192   -5.6569   -3.9363 H   0  0  0  0  0  0  0  0  0  0  0  0
   -9.7909   -4.8480   -4.7829 H   0  0  0  0  0  0  0  0  0  0  0  0
   -4.8436   -0.2552   -7.6288 H   0  0  0  0  0  0  0  0  0  0  0  0
   -2.8698    5.4746   -8.1700 H   0  0  0  0  0  0  0  0  0  0  0  0
   -2.0202    7.7715   -8.4567 H   0  0  0  0  0  0  0  0  0  0  0  0
   -2.7879   11.7540   -6.2691 H   0  0  0  0  0  0  0  0  0  0  0  0
   -3.6165   10.2346   -5.7850 H   0  0  0  0  0  0  0  0  0  0  0  0
   -4.5381   11.2344   -7.9076 H   0  0  0  0  0  0  0  0  0  0  0  0
   -3.8572    9.5917   -8.1888 H   0  0  0  0  0  0  0  0  0  0  0  0
   -2.9189   11.0601   -8.6855 H   0  0  0  0  0  0  0  0  0  0  0  0
   -2.8466    5.9964   -3.8943 H   0  0  0  0  0  0  0  0  0  0  0  0
   -5.7151    5.8539   -5.9093 H   0  0  0  0  0  0  0  0  0  0  0  0
  -13.1086    3.0889   -4.2719 H   0  0  0  0  0  0  0  0  0  0  0  0
  -10.3350    0.4826   -4.5266 H   0  0  0  0  0  0  0  0  0  0  0  0
  -12.0719    0.6575   -4.9873 H   0  0  0  0  0  0  0  0  0  0  0  0
  -11.5548    0.9332   -3.2744 H   0  0  0  0  0  0  0  0  0  0  0  0
  -15.3804    9.0079   -2.5724 H   0  0  0  0  0  0  0  0  0  0  0  0
  -15.6671    6.5218   -2.0208 H   0  0  0  0  0  0  0  0  0  0  0  0
  -14.2697    5.4102   -2.2766 H   0  0  0  0  0  0  0  0  0  0  0  0
  -14.1885    6.6751   -0.9855 H   0  0  0  0  0  0  0  0  0  0  0  0
  -12.3871   11.0721   -5.8296 H   0  0  0  0  0  0  0  0  0  0  0  0
  1  2  2  0
  2  3  1  0
  3  4  2  0
  4  5  1  0
  5  6  2  0
  6  7  1  0
  7  8  2  0
  8  9  1  0
  9 10  1  0
 10 11  1  0
  8 12  1  0
 12 13  1  0
 12 14  2  0
  4 15  1  0
 15 16  2  0
 16 17  1  0
 17 18  1  0
 18 19  2  0
 19 20  1  0
 20 21  2  0
 21 22  1  0
 22 23  1  0
 23 24  1  0
 21 25  1  0
 25 26  2  0
 25 27  1  0
 17 28  2  0
 28 29  1  0
 16 30  1  0
 30 31  2  0
 31 32  1  0
 31 33  1  0
 33 34  2  0
 34 35  1  0
 35 36  2  0
 36 37  1  0
 37 38  2  0
 38 39  1  0
 39 40  2  0
 40 41  1  0
 41 42  1  0
 42 43  1  0
 40 44  1  0
 44 45  1  0
 44 46  2  0
 36 47  1  0
 47 48  2  0
 48 49  1  0
 49 50  1  0
 50 51  2  0
 51 52  1  0
 52 53  2  0
 53 54  1  0
 54 55  1  0
 55 56  1  0
 53 57  1  0
 57 58  2  0
 57 59  1  0
 49 60  2  0
 60 61  1  0
 48 62  1  0
 62 63  2  0
 63 64  1  0
 63 65  1  0
 65 66  2  0
 66 67  1  0
 67 68  1  0
 68 69  2  0
 69 70  1  0
 70 71  1  0
 70 72  2  0
 67 73  2  0
 73 74  1  0
 73 75  1  0
 75 76  2  0
 76 77  1  0
 77 78  2  0
 78 79  1  0
 79 80  2  0
 80 81  1  0
 81 82  2  0
 82 83  1  0
 83 84  1  0
 84 85  1  0
 82 86  1  0
 86 87  1  0
 86 88  2  0
 78 89  1  0
 89 90  2  0
 90 91  1  0
 91 92  1  0
 92 93  2  0
 93 94  1  0
 94 95  2  0
 95 96  1  0
 96 97  1  0
 97 98  1  0
 95 99  1  0
 99100  2  0
 99101  1  0
 91102  2  0
102103  1  0
 90104  1  0
104105  2  0
105106  1  0
105107  1  0
107108  2  0
108109  1  0
109110  1  0
110111  2  0
111112  1  0
112113  1  0
112114  2  0
109115  2  0
115116  1  0
115117  1  0
117118  2  0
118119  1  0
119120  1  0
120121  2  0
121122  1  0
122123  1  0
122124  2  0
119125  2  0
125126  1  0
 29  1  1  0
 61 33  1  0
 74 65  1  0
103 75  1  0
116107  1  0
126117  1  0
 28  3  1  0
 60 35  1  0
 72 66  1  0
102 77  1  0
114108  1  0
124118  1  0
 14  5  1  0
 32 15  1  0
 46 37  1  0
 64 47  1  0
 88 79  1  0
106 89  1  0
 26 18  1  0
 58 50  1  0
100 92  1  0
  1127  1  0
  2128  1  0
  6129  1  0
  7130  1  0
 10131  1  0
 10132  1  0
 11133  1  0
 11134  1  0
 11135  1  0
 14136  1  0
 19137  1  0
 20138  1  0
 23139  1  0
 23140  1  0
 24141  1  0
 24142  1  0
 24143  1  0
 26144  1  0
 30145  1  0
 34146  1  0
 38147  1  0
 39148  1  0
 42149  1  0
 42150  1  0
 43151  1  0
 43152  1  0
 43153  1  0
 46154  1  0
 51155  1  0
 52156  1  0
 55157  1  0
 55158  1  0
 56159  1  0
 56160  1  0
 56161  1  0
 58162  1  0
 62163  1  0
 69164  1  0
 71165  1  0
 71166  1  0
 71167  1  0
 76168  1  0
 80169  1  0
 81170  1  0
 84171  1  0
 84172  1  0
 85173  1  0
 85174  1  0
 85175  1  0
 88176  1  0
 93177  1  0
 94178  1  0
 97179  1  0
 97180  1  0
 98181  1  0
 98182  1  0
 98183  1  0
100184  1  0
104185  1  0
111186  1  0
113187  1  0
113188  1  0
113189  1  0
121190  1  0
123191  1  0
123192  1  0
123193  1  0
125194  1  0
M  END

