
     RDKit          3D

230253  0  0  0  0  0  0  0  0999 V2000
    2.8580   -1.5295   12.7662 C   0  0  0  0  0  0  0  0  0  0  0  0
    3.1876   -1.4147   11.4182 C   0  0  0  0  0  0  0  0  0  0  0  0
    2.3178   -2.1255   10.5745 C   0  0  0  0  0  0  0  0  0  0  0  0
    2.3796   -2.1935    9.1674 C   0  0  0  0  0  0  0  0  0  0  0  0
    3.3757   -1.4493    8.3648 C   0  0  0  0  0  0  0  0  0  0  0  0
    4.7493   -1.7126    8.4844 C   0  0  0  0  0  0  0  0  0  0  0  0
    5.6591   -1.1198    7.5985 C   0  0  0  0  0  0  0  0  0  0  0  0
    5.2014   -0.2723    6.5804 C   0  0  0  0  0  0  0  0  0  0  0  0
    6.3379    0.3304    5.3237 S   0  0  0  0  0  0  0  0  0  0  0  0
    6.3832    2.0677    5.8947 C   0  0  0  0  0  0  0  0  0  0  0  0
    6.0439    2.9895    4.7269 C   0  0  0  0  0  0  0  0  0  0  0  0
    3.8354    0.0319    6.4942 C   0  0  0  0  0  0  0  0  0  0  0  0
    3.3820    0.8744    5.5387 F   0  0  0  0  0  0  0  0  0  0  0  0
    2.9320   -0.5440    7.3890 C   0  0  0  0  0  0  0  0  0  0  0  0
    1.3898   -2.9653    8.5291 C   0  0  0  0  0  0  0  0  0  0  0  0
    0.3528   -3.5968    9.2200 C   0  0  0  0  0  0  0  0  0  0  0  0
    0.2863   -3.5179   10.6251 C   0  0  0  0  0  0  0  0  0  0  0  0
   -0.7865   -4.1784   11.3881 C   0  0  0  0  0  0  0  0  0  0  0  0
   -0.5051   -5.3189   12.1539 C   0  0  0  0  0  0  0  0  0  0  0  0
   -1.5307   -5.9649   12.8515 C   0  0  0  0  0  0  0  0  0  0  0  0
   -2.8424   -5.4748   12.7875 C   0  0  0  0  0  0  0  0  0  0  0  0
   -4.1561   -6.3212   13.6756 S   0  0  0  0  0  0  0  0  0  0  0  0
   -4.7327   -7.2984   12.2419 C   0  0  0  0  0  0  0  0  0  0  0  0
   -3.8320   -8.5020   11.9897 C   0  0  0  0  0  0  0  0  0  0  0  0
   -3.1200   -4.3185   12.0418 C   0  0  0  0  0  0  0  0  0  0  0  0
   -2.0957   -3.6787   11.3371 C   0  0  0  0  0  0  0  0  0  0  0  0
   -4.3833   -3.8239   11.9863 F   0  0  0  0  0  0  0  0  0  0  0  0
    1.2962   -2.7827   11.2709 C   0  0  0  0  0  0  0  0  0  0  0  0
    1.4812   -2.4935   12.9179 S   0  0  0  0  0  0  0  0  0  0  0  0
   -0.5325   -4.2913    8.3733 C   0  0  0  0  0  0  0  0  0  0  0  0
   -0.1507   -4.2297    7.0340 C   0  0  0  0  0  0  0  0  0  0  0  0
    1.2469   -3.3026    6.8912 S   0  0  0  0  0  0  0  0  0  0  0  0
   -0.8642   -4.7892    5.8834 C   0  0  0  0  0  0  0  0  0  0  0  0
   -0.2688   -5.3258    4.7506 C   0  0  0  0  0  0  0  0  0  0  0  0
   -1.1239   -5.4599    3.6538 C   0  0  0  0  0  0  0  0  0  0  0  0
   -0.6327   -5.8965    2.4670 N   0  0  0  0  0  0  0  0  0  0  0  0
    0.6814   -6.2338    2.3462 C   0  0  0  0  0  0  0  0  0  0  0  0
    1.5424   -6.1042    3.4546 C   0  0  0  0  0  0  0  0  0  0  0  0
    2.9860   -6.4788    3.3413 C   0  0  0  0  0  0  0  0  0  0  0  0
    1.0459   -5.6474    4.6408 N   0  0  0  0  0  0  0  0  0  0  0  0
   -2.4288   -5.0171    3.8839 C   0  0  0  0  0  0  0  0  0  0  0  0
   -2.4714   -4.4613    5.4851 S   0  0  0  0  0  0  0  0  0  0  0  0
   -3.4692   -4.7404    2.8697 C   0  0  0  0  0  0  0  0  0  0  0  0
   -3.3866   -5.0296    1.5059 C   0  0  0  0  0  0  0  0  0  0  0  0
   -4.3257   -4.3312    0.7312 C   0  0  0  0  0  0  0  0  0  0  0  0
   -4.3299   -4.2530   -0.6747 C   0  0  0  0  0  0  0  0  0  0  0  0
   -3.3394   -4.9805   -1.4884 C   0  0  0  0  0  0  0  0  0  0  0  0
   -2.1792   -4.3280   -1.9276 C   0  0  0  0  0  0  0  0  0  0  0  0
   -1.2298   -5.0213   -2.6835 C   0  0  0  0  0  0  0  0  0  0  0  0
   -1.4409   -6.3629   -3.0204 C   0  0  0  0  0  0  0  0  0  0  0  0
   -0.2208   -7.2288   -4.0124 S   0  0  0  0  0  0  0  0  0  0  0  0
   -0.9974   -6.8344   -5.6198 C   0  0  0  0  0  0  0  0  0  0  0  0
   -0.6732   -5.4123   -6.0637 C   0  0  0  0  0  0  0  0  0  0  0  0
   -2.5919   -7.0244   -2.5665 C   0  0  0  0  0  0  0  0  0  0  0  0
   -2.8022   -8.3305   -2.8708 F   0  0  0  0  0  0  0  0  0  0  0  0
   -3.5357   -6.3344   -1.7963 C   0  0  0  0  0  0  0  0  0  0  0  0
   -5.1797   -3.3003   -1.2568 C   0  0  0  0  0  0  0  0  0  0  0  0
   -6.0263   -2.4853   -0.5027 C   0  0  0  0  0  0  0  0  0  0  0  0
   -6.0696   -2.6074    0.9054 C   0  0  0  0  0  0  0  0  0  0  0  0
   -6.8877   -1.7104    1.7448 C   0  0  0  0  0  0  0  0  0  0  0  0
   -6.5975   -0.3394    1.8070 C   0  0  0  0  0  0  0  0  0  0  0  0
   -7.3840    0.5094    2.5880 C   0  0  0  0  0  0  0  0  0  0  0  0
   -8.4665   -0.0028    3.3132 C   0  0  0  0  0  0  0  0  0  0  0  0
   -9.4714    1.1018    4.3104 S   0  0  0  0  0  0  0  0  0  0  0  0
  -10.5413    1.6512    2.9324 C   0  0  0  0  0  0  0  0  0  0  0  0
  -11.5871    0.5968    2.5911 C   0  0  0  0  0  0  0  0  0  0  0  0
   -8.7406   -1.3781    3.2762 C   0  0  0  0  0  0  0  0  0  0  0  0
   -7.9552   -2.2281    2.4915 C   0  0  0  0  0  0  0  0  0  0  0  0
   -9.7638   -1.8953    4.0020 F   0  0  0  0  0  0  0  0  0  0  0  0
   -5.1913   -3.5364    1.4886 C   0  0  0  0  0  0  0  0  0  0  0  0
   -4.7623   -3.6752    3.1120 S   0  0  0  0  0  0  0  0  0  0  0  0
   -6.6579   -1.4880   -1.2640 C   0  0  0  0  0  0  0  0  0  0  0  0
   -6.2601   -1.4780   -2.6045 C   0  0  0  0  0  0  0  0  0  0  0  0
   -5.1880   -2.7628   -2.8478 S   0  0  0  0  0  0  0  0  0  0  0  0
   -6.3477   -0.3233   -3.5256 C   0  0  0  0  0  0  0  0  0  0  0  0
   -6.9253    0.9226   -3.2660 C   0  0  0  0  0  0  0  0  0  0  0  0
   -6.4335    1.9703   -4.0576 C   0  0  0  0  0  0  0  0  0  0  0  0
   -6.8259    3.2476   -3.8195 N   0  0  0  0  0  0  0  0  0  0  0  0
   -7.7275    3.5131   -2.8323 C   0  0  0  0  0  0  0  0  0  0  0  0
   -8.2417    2.4591   -2.0493 C   0  0  0  0  0  0  0  0  0  0  0  0
   -9.1821    2.7328   -0.9191 C   0  0  0  0  0  0  0  0  0  0  0  0
   -7.8109    1.1846   -2.2714 N   0  0  0  0  0  0  0  0  0  0  0  0
   -5.4713    1.5886   -4.9877 C   0  0  0  0  0  0  0  0  0  0  0  0
   -5.2532   -0.0716   -4.7856 S   0  0  0  0  0  0  0  0  0  0  0  0
   -4.4270    2.4509   -5.5617 C   0  0  0  0  0  0  0  0  0  0  0  0
   -3.5702    2.0646   -6.5936 C   0  0  0  0  0  0  0  0  0  0  0  0
   -2.3489    2.7601   -6.5898 C   0  0  0  0  0  0  0  0  0  0  0  0
   -1.2275    2.4816   -7.4005 C   0  0  0  0  0  0  0  0  0  0  0  0
   -1.2598    1.4682   -8.4739 C   0  0  0  0  0  0  0  0  0  0  0  0
   -1.0828    1.8653   -9.8077 C   0  0  0  0  0  0  0  0  0  0  0  0
   -1.0829    0.9134  -10.8284 C   0  0  0  0  0  0  0  0  0  0  0  0
   -1.2658   -0.4428  -10.5279 C   0  0  0  0  0  0  0  0  0  0  0  0
   -1.2797   -1.6505  -11.8552 S   0  0  0  0  0  0  0  0  0  0  0  0
   -3.0725   -1.4761  -12.1490 C   0  0  0  0  0  0  0  0  0  0  0  0
   -3.4938   -2.3383  -13.3285 C   0  0  0  0  0  0  0  0  0  0  0  0
   -1.4291   -0.8449   -9.1941 C   0  0  0  0  0  0  0  0  0  0  0  0
   -1.5926   -2.1574   -8.8868 F   0  0  0  0  0  0  0  0  0  0  0  0
   -1.4211    0.1072   -8.1693 C   0  0  0  0  0  0  0  0  0  0  0  0
   -0.0256    3.1412   -7.0805 C   0  0  0  0  0  0  0  0  0  0  0  0
    0.0683    4.0412   -6.0173 C   0  0  0  0  0  0  0  0  0  0  0  0
   -1.0613    4.3632   -5.2381 C   0  0  0  0  0  0  0  0  0  0  0  0
   -0.9320    5.1820   -4.0158 C   0  0  0  0  0  0  0  0  0  0  0  0
   -0.5566    6.5329   -4.1081 C   0  0  0  0  0  0  0  0  0  0  0  0
   -0.3160    7.2748   -2.9473 C   0  0  0  0  0  0  0  0  0  0  0  0
   -0.4462    6.6734   -1.6869 C   0  0  0  0  0  0  0  0  0  0  0  0
   -0.0961    7.6245   -0.2083 S   0  0  0  0  0  0  0  0  0  0  0  0
   -1.8335    8.1166    0.0344 C   0  0  0  0  0  0  0  0  0  0  0  0
   -1.9512    9.0221    1.2504 C   0  0  0  0  0  0  0  0  0  0  0  0
   -0.8167    5.3259   -1.5910 C   0  0  0  0  0  0  0  0  0  0  0  0
   -1.0588    4.5831   -2.7520 C   0  0  0  0  0  0  0  0  0  0  0  0
   -0.9261    4.7274   -0.3777 F   0  0  0  0  0  0  0  0  0  0  0  0
   -2.2586    3.6998   -5.5566 C   0  0  0  0  0  0  0  0  0  0  0  0
   -3.6841    3.6732   -4.6705 S   0  0  0  0  0  0  0  0  0  0  0  0
    1.3896    4.3777   -5.6995 C   0  0  0  0  0  0  0  0  0  0  0  0
    2.3366    3.7249   -6.4859 C   0  0  0  0  0  0  0  0  0  0  0  0
    1.5309    2.7553   -7.6068 S   0  0  0  0  0  0  0  0  0  0  0  0
    3.6937    3.4490   -6.0064 C   0  0  0  0  0  0  0  0  0  0  0  0
    3.9696    3.1372   -4.6811 C   0  0  0  0  0  0  0  0  0  0  0  0
    5.2992    2.7658   -4.4685 C   0  0  0  0  0  0  0  0  0  0  0  0
    5.8452    2.3402   -3.2422 C   0  0  0  0  0  0  0  0  0  0  0  0
    4.9848    2.1405   -2.0579 C   0  0  0  0  0  0  0  0  0  0  0  0
    3.9671    1.1754   -2.1054 C   0  0  0  0  0  0  0  0  0  0  0  0
    3.0149    1.1050   -1.0902 C   0  0  0  0  0  0  0  0  0  0  0  0
    3.0832    1.9817   -0.0013 C   0  0  0  0  0  0  0  0  0  0  0  0
    1.7929    1.9463    1.2502 S   0  0  0  0  0  0  0  0  0  0  0  0
    2.5280    0.5947    2.2333 C   0  0  0  0  0  0  0  0  0  0  0  0
    1.7804   -0.7096    1.9834 C   0  0  0  0  0  0  0  0  0  0  0  0
    4.1284    2.9169    0.0785 C   0  0  0  0  0  0  0  0  0  0  0  0
    4.2047    3.7745    1.1276 F   0  0  0  0  0  0  0  0  0  0  0  0
    5.0750    2.9976   -0.9519 C   0  0  0  0  0  0  0  0  0  0  0  0
    7.2174    2.0381   -3.2327 C   0  0  0  0  0  0  0  0  0  0  0  0
    8.0115    2.1255   -4.3803 C   0  0  0  0  0  0  0  0  0  0  0  0
    7.4523    2.5235   -5.6145 C   0  0  0  0  0  0  0  0  0  0  0  0
    8.2697    2.6390   -6.8339 C   0  0  0  0  0  0  0  0  0  0  0  0
    9.1407    3.7260   -6.9924 C   0  0  0  0  0  0  0  0  0  0  0  0
    9.9345    3.8264   -8.1396 C   0  0  0  0  0  0  0  0  0  0  0  0
    9.8741    2.8315   -9.1257 C   0  0  0  0  0  0  0  0  0  0  0  0
   10.9246    2.9520  -10.5769 S   0  0  0  0  0  0  0  0  0  0  0  0
   12.3328    2.1242   -9.7663 C   0  0  0  0  0  0  0  0  0  0  0  0
   13.4857    1.9750  -10.7434 C   0  0  0  0  0  0  0  0  0  0  0  0
    8.9995    1.7452   -8.9693 C   0  0  0  0  0  0  0  0  0  0  0  0
    8.1955    1.6556   -7.8288 C   0  0  0  0  0  0  0  0  0  0  0  0
    8.9291    0.7774   -9.9188 F   0  0  0  0  0  0  0  0  0  0  0  0
    6.0785    2.8251   -5.6253 C   0  0  0  0  0  0  0  0  0  0  0  0
    5.0985    3.2764   -6.9294 S   0  0  0  0  0  0  0  0  0  0  0  0
    9.3421    1.7369   -4.1578 C   0  0  0  0  0  0  0  0  0  0  0  0
    9.5867    1.3484   -2.8451 C   0  0  0  0  0  0  0  0  0  0  0  0
    8.1591    1.4794   -1.9549 S   0  0  0  0  0  0  0  0  0  0  0  0
    3.3956   -1.0663   13.5843 H   0  0  0  0  0  0  0  0  0  0  0  0
    4.0297   -0.8284   11.0690 H   0  0  0  0  0  0  0  0  0  0  0  0
    5.1101   -2.4099    9.2286 H   0  0  0  0  0  0  0  0  0  0  0  0
    6.7100   -1.3614    7.6701 H   0  0  0  0  0  0  0  0  0  0  0  0
    7.4039    2.2987    6.2621 H   0  0  0  0  0  0  0  0  0  0  0  0
    5.6626    2.2529    6.7182 H   0  0  0  0  0  0  0  0  0  0  0  0
    6.7780    2.8512    3.9023 H   0  0  0  0  0  0  0  0  0  0  0  0
    6.0658    4.0502    5.0576 H   0  0  0  0  0  0  0  0  0  0  0  0
    5.0250    2.7588    4.3428 H   0  0  0  0  0  0  0  0  0  0  0  0
    1.8741   -0.3152    7.3008 H   0  0  0  0  0  0  0  0  0  0  0  0
    0.5044   -5.7116   12.1999 H   0  0  0  0  0  0  0  0  0  0  0  0
   -1.3064   -6.8465   13.4345 H   0  0  0  0  0  0  0  0  0  0  0  0
   -5.7609   -7.6582   12.4560 H   0  0  0  0  0  0  0  0  0  0  0  0
   -4.7810   -6.6631   11.3300 H   0  0  0  0  0  0  0  0  0  0  0  0
   -3.7479   -9.1165   12.9077 H   0  0  0  0  0  0  0  0  0  0  0  0
   -4.2628   -9.1267   11.1782 H   0  0  0  0  0  0  0  0  0  0  0  0
   -2.8207   -8.1684   11.6755 H   0  0  0  0  0  0  0  0  0  0  0  0
   -2.3183   -2.7938   10.7531 H   0  0  0  0  0  0  0  0  0  0  0  0
   -1.4077   -4.8270    8.7161 H   0  0  0  0  0  0  0  0  0  0  0  0
    1.0582   -6.5896    1.3963 H   0  0  0  0  0  0  0  0  0  0  0  0
    3.4418   -5.9746    2.4627 H   0  0  0  0  0  0  0  0  0  0  0  0
    3.5390   -6.1716    4.2547 H   0  0  0  0  0  0  0  0  0  0  0  0
    3.0749   -7.5790    3.2170 H   0  0  0  0  0  0  0  0  0  0  0  0
   -2.6153   -5.6415    1.0632 H   0  0  0  0  0  0  0  0  0  0  0  0
   -2.0119   -3.2841   -1.6838 H   0  0  0  0  0  0  0  0  0  0  0  0
   -0.3355   -4.5064   -3.0160 H   0  0  0  0  0  0  0  0  0  0  0  0
   -0.5926   -7.5422   -6.3753 H   0  0  0  0  0  0  0  0  0  0  0  0
   -2.0995   -6.9727   -5.5680 H   0  0  0  0  0  0  0  0  0  0  0  0
   -1.2157   -4.6745   -5.4343 H   0  0  0  0  0  0  0  0  0  0  0  0
   -0.9988   -5.2708   -7.1147 H   0  0  0  0  0  0  0  0  0  0  0  0
    0.4189   -5.2232   -5.9988 H   0  0  0  0  0  0  0  0  0  0  0  0
   -4.4239   -6.8501   -1.4468 H   0  0  0  0  0  0  0  0  0  0  0  0
   -5.7624    0.0703    1.2504 H   0  0  0  0  0  0  0  0  0  0  0  0
   -7.1529    1.5671    2.6314 H   0  0  0  0  0  0  0  0  0  0  0  0
   -9.9315    1.8919    2.0350 H   0  0  0  0  0  0  0  0  0  0  0  0
  -11.0598    2.5807    3.2510 H   0  0  0  0  0  0  0  0  0  0  0  0
  -12.2958    1.0021    1.8391 H   0  0  0  0  0  0  0  0  0  0  0  0
  -12.1578    0.3179    3.5028 H   0  0  0  0  0  0  0  0  0  0  0  0
  -11.1063   -0.3081    2.1644 H   0  0  0  0  0  0  0  0  0  0  0  0
   -8.1818   -3.2888    2.4595 H   0  0  0  0  0  0  0  0  0  0  0  0
   -7.2933   -0.7370   -0.8223 H   0  0  0  0  0  0  0  0  0  0  0  0
   -8.0342    4.5356   -2.6521 H   0  0  0  0  0  0  0  0  0  0  0  0
   -9.7822    1.8259   -0.6880 H   0  0  0  0  0  0  0  0  0  0  0  0
   -8.6003    3.0231   -0.0182 H   0  0  0  0  0  0  0  0  0  0  0  0
   -9.8787    3.5562   -1.1850 H   0  0  0  0  0  0  0  0  0  0  0  0
   -3.7861    1.2288   -7.2469 H   0  0  0  0  0  0  0  0  0  0  0  0
   -0.9456    2.9129  -10.0527 H   0  0  0  0  0  0  0  0  0  0  0  0
   -0.9469    1.2302  -11.8554 H   0  0  0  0  0  0  0  0  0  0  0  0
   -3.3167   -0.4126  -12.3716 H   0  0  0  0  0  0  0  0  0  0  0  0
   -3.6315   -1.7953  -11.2421 H   0  0  0  0  0  0  0  0  0  0  0  0
   -3.2721   -3.4088  -13.1225 H   0  0  0  0  0  0  0  0  0  0  0  0
   -2.9503   -2.0219  -14.2450 H   0  0  0  0  0  0  0  0  0  0  0  0
   -4.5857   -2.2241  -13.5008 H   0  0  0  0  0  0  0  0  0  0  0  0
   -1.5348   -0.2114   -7.1405 H   0  0  0  0  0  0  0  0  0  0  0  0
   -0.4228    6.9958   -5.0775 H   0  0  0  0  0  0  0  0  0  0  0  0
   -0.0094    8.3094   -3.0308 H   0  0  0  0  0  0  0  0  0  0  0  0
   -2.1995    8.6624   -0.8630 H   0  0  0  0  0  0  0  0  0  0  0  0
   -2.4571    7.2091    0.1910 H   0  0  0  0  0  0  0  0  0  0  0  0
   -1.5684    8.4983    2.1533 H   0  0  0  0  0  0  0  0  0  0  0  0
   -3.0170    9.2854    1.4148 H   0  0  0  0  0  0  0  0  0  0  0  0
   -1.3660    9.9543    1.0891 H   0  0  0  0  0  0  0  0  0  0  0  0
   -1.3094    3.5336   -2.6666 H   0  0  0  0  0  0  0  0  0  0  0  0
    1.6627    4.9574   -4.8262 H   0  0  0  0  0  0  0  0  0  0  0  0
    3.2142    3.1469   -3.9030 H   0  0  0  0  0  0  0  0  0  0  0  0
    3.8850    0.5110   -2.9589 H   0  0  0  0  0  0  0  0  0  0  0  0
    2.2115    0.3822   -1.1648 H   0  0  0  0  0  0  0  0  0  0  0  0
    3.6090    0.4543    2.0054 H   0  0  0  0  0  0  0  0  0  0  0  0
    2.4285    0.8609    3.3024 H   0  0  0  0  0  0  0  0  0  0  0  0
    1.8000   -0.9673    0.9024 H   0  0  0  0  0  0  0  0  0  0  0  0
    0.7245   -0.6151    2.3174 H   0  0  0  0  0  0  0  0  0  0  0  0
    2.2568   -1.5340    2.5549 H   0  0  0  0  0  0  0  0  0  0  0  0
    5.8490    3.7545   -0.9113 H   0  0  0  0  0  0  0  0  0  0  0  0
    9.2035    4.4932   -6.2290 H   0  0  0  0  0  0  0  0  0  0  0  0
   10.6027    4.6716   -8.2543 H   0  0  0  0  0  0  0  0  0  0  0  0
   12.0204    1.1175   -9.4121 H   0  0  0  0  0  0  0  0  0  0  0  0
   12.6690    2.7326   -8.8979 H   0  0  0  0  0  0  0  0  0  0  0  0
   13.8173    2.9729  -11.1051 H   0  0  0  0  0  0  0  0  0  0  0  0
   14.3375    1.4764  -10.2344 H   0  0  0  0  0  0  0  0  0  0  0  0
   13.1775    1.3524  -11.6109 H   0  0  0  0  0  0  0  0  0  0  0  0
    7.5256    0.8124   -7.7125 H   0  0  0  0  0  0  0  0  0  0  0  0
   10.1031    1.7164   -4.9251 H   0  0  0  0  0  0  0  0  0  0  0  0
   10.5399    1.0068   -2.4603 H   0  0  0  0  0  0  0  0  0  0  0  0
  1  2  2  0
  2  3  1  0
  3  4  2  0
  4  5  1  0
  5  6  2  0
  6  7  1  0
  7  8  2  0
  8  9  1  0
  9 10  1  0
 10 11  1  0
  8 12  1  0
 12 13  1  0
 12 14  2  0
  4 15  1  0
 15 16  2  0
 16 17  1  0
 17 18  1  0
 18 19  2  0
 19 20  1  0
 20 21  2  0
 21 22  1  0
 22 23  1  0
 23 24  1  0
 21 25  1  0
 25 26  2  0
 25 27  1  0
 17 28  2  0
 28 29  1  0
 16 30  1  0
 30 31  2  0
 31 32  1  0
 31 33  1  0
 33 34  2  0
 34 35  1  0
 35 36  1  0
 36 37  2  0
 37 38  1  0
 38 39  1  0
 38 40  2  0
 35 41  2  0
 41 42  1  0
 41 43  1  0
 43 44  2  0
 44 45  1  0
 45 46  2  0
 46 47  1  0
 47 48  2  0
 48 49  1  0
 49 50  2  0
 50 51  1  0
 51 52  1  0
 52 53  1  0
 50 54  1  0
 54 55  1  0
 54 56  2  0
 46 57  1  0
 57 58  2  0
 58 59  1  0
 59 60  1  0
 60 61  2  0
 61 62  1  0
 62 63  2  0
 63 64  1  0
 64 65  1  0
 65 66  1  0
 63 67  1  0
 67 68  2  0
 67 69  1  0
 59 70  2  0
 70 71  1  0
 58 72  1  0
 72 73  2  0
 73 74  1  0
 73 75  1  0
 75 76  2  0
 76 77  1  0
 77 78  1  0
 78 79  2  0
 79 80  1  0
 80 81  1  0
 80 82  2  0
 77 83  2  0
 83 84  1  0
 83 85  1  0
 85 86  2  0
 86 87  1  0
 87 88  2  0
 88 89  1  0
 89 90  2  0
 90 91  1  0
 91 92  2  0
 92 93  1  0
 93 94  1  0
 94 95  1  0
 92 96  1  0
 96 97  1  0
 96 98  2  0
 88 99  1  0
 99100  2  0
100101  1  0
101102  1  0
102103  2  0
103104  1  0
104105  2  0
105106  1  0
106107  1  0
107108  1  0
105109  1  0
109110  2  0
109111  1  0
101112  2  0
112113  1  0
100114  1  0
114115  2  0
115116  1  0
115117  1  0
117118  2  0
118119  1  0
119120  2  0
120121  1  0
121122  2  0
122123  1  0
123124  2  0
124125  1  0
125126  1  0
126127  1  0
124128  1  0
128129  1  0
128130  2  0
120131  1  0
131132  2  0
132133  1  0
133134  1  0
134135  2  0
135136  1  0
136137  2  0
137138  1  0
138139  1  0
139140  1  0
137141  1  0
141142  2  0
141143  1  0
133144  2  0
144145  1  0
132146  1  0
146147  2  0
147148  1  0
 29  1  1  0
 42 33  1  0
 71 43  1  0
 84 75  1  0
113 85  1  0
145117  1  0
 28  3  1  0
 40 34  1  0
 70 45  1  0
 82 76  1  0
112 87  1  0
144119  1  0
 14  5  1  0
 32 15  1  0
 56 47  1  0
 74 57  1  0
 98 89  1  0
116 99  1  0
130121  1  0
148131  1  0
 26 18  1  0
 68 60  1  0
110102  1  0
142134  1  0
  1149  1  0
  2150  1  0
  6151  1  0
  7152  1  0
 10153  1  0
 10154  1  0
 11155  1  0
 11156  1  0
 11157  1  0
 14158  1  0
 19159  1  0
 20160  1  0
 23161  1  0
 23162  1  0
 24163  1  0
 24164  1  0
 24165  1  0
 26166  1  0
 30167  1  0
 37168  1  0
 39169  1  0
 39170  1  0
 39171  1  0
 44172  1  0
 48173  1  0
 49174  1  0
 52175  1  0
 52176  1  0
 53177  1  0
 53178  1  0
 53179  1  0
 56180  1  0
 61181  1  0
 62182  1  0
 65183  1  0
 65184  1  0
 66185  1  0
 66186  1  0
 66187  1  0
 68188  1  0
 72189  1  0
 79190  1  0
 81191  1  0
 81192  1  0
 81193  1  0
 86194  1  0
 90195  1  0
 91196  1  0
 94197  1  0
 94198  1  0
 95199  1  0
 95200  1  0
 95201  1  0
 98202  1  0
103203  1  0
104204  1  0
107205  1  0
107206  1  0
108207  1  0
108208  1  0
108209  1  0
110210  1  0
114211  1  0
118212  1  0
122213  1  0
123214  1  0
126215  1  0
126216  1  0
127217  1  0
127218  1  0
127219  1  0
130220  1  0
135221  1  0
136222  1  0
139223  1  0
139224  1  0
140225  1  0
140226  1  0
140227  1  0
142228  1  0
146229  1  0
147230  1  0
M  END

