
     RDKit          3D

122136  0  0  0  0  0  0  0  0999 V2000
    0.5577    7.3184   10.2820 C   0  0  0  0  0  0  0  0  0  0  0  0
    1.2297    7.1789    9.0791 C   0  0  0  0  0  0  0  0  0  0  0  0
    0.8092    6.1014    8.2945 C   0  0  0  0  0  0  0  0  0  0  0  0
    1.3906    5.8686    7.0912 N   0  0  0  0  0  0  0  0  0  0  0  0
    2.3857    6.6864    6.6465 C   0  0  0  0  0  0  0  0  0  0  0  0
    2.8109    7.7734    7.4379 C   0  0  0  0  0  0  0  0  0  0  0  0
    3.8767    8.6986    6.9437 C   0  0  0  0  0  0  0  0  0  0  0  0
    2.2157    8.0021    8.6439 N   0  0  0  0  0  0  0  0  0  0  0  0
   -0.2211    5.3524    8.8579 C   0  0  0  0  0  0  0  0  0  0  0  0
   -0.5772    6.0714   10.3472 S   0  0  0  0  0  0  0  0  0  0  0  0
   -0.9108    4.1879    8.2629 C   0  0  0  0  0  0  0  0  0  0  0  0
   -1.9522    3.4436    8.8130 C   0  0  0  0  0  0  0  0  0  0  0  0
   -2.4286    2.4141    7.9887 C   0  0  0  0  0  0  0  0  0  0  0  0
   -3.4214    1.5994    8.4259 N   0  0  0  0  0  0  0  0  0  0  0  0
   -3.9741    1.7950    9.6558 C   0  0  0  0  0  0  0  0  0  0  0  0
   -3.5054    2.8377   10.4804 C   0  0  0  0  0  0  0  0  0  0  0  0
   -4.1206    3.0806   11.8207 C   0  0  0  0  0  0  0  0  0  0  0  0
   -2.4988    3.6446   10.0390 N   0  0  0  0  0  0  0  0  0  0  0  0
   -1.7818    2.3212    6.7560 C   0  0  0  0  0  0  0  0  0  0  0  0
   -0.6032    3.5300    6.7380 S   0  0  0  0  0  0  0  0  0  0  0  0
   -2.0343    1.3967    5.6322 C   0  0  0  0  0  0  0  0  0  0  0  0
   -3.2137    0.7372    5.2867 C   0  0  0  0  0  0  0  0  0  0  0  0
   -3.1401    0.0150    4.0883 C   0  0  0  0  0  0  0  0  0  0  0  0
   -4.2269   -0.6529    3.6263 N   0  0  0  0  0  0  0  0  0  0  0  0
   -5.3961   -0.6176    4.3247 C   0  0  0  0  0  0  0  0  0  0  0  0
   -5.4800    0.1261    5.5187 C   0  0  0  0  0  0  0  0  0  0  0  0
   -6.7549    0.1700    6.2982 C   0  0  0  0  0  0  0  0  0  0  0  0
   -4.3816    0.7933    5.9735 N   0  0  0  0  0  0  0  0  0  0  0  0
   -1.9050    0.0866    3.4499 C   0  0  0  0  0  0  0  0  0  0  0  0
   -0.9204    1.0693    4.4054 S   0  0  0  0  0  0  0  0  0  0  0  0
   -1.5154   -0.4991    2.1539 C   0  0  0  0  0  0  0  0  0  0  0  0
   -0.2403   -0.4223    1.5932 C   0  0  0  0  0  0  0  0  0  0  0  0
   -0.1550   -1.0306    0.3299 C   0  0  0  0  0  0  0  0  0  0  0  0
    0.9963   -1.1132   -0.4835 C   0  0  0  0  0  0  0  0  0  0  0  0
    2.3058   -0.5853   -0.0437 C   0  0  0  0  0  0  0  0  0  0  0  0
    2.9294   -1.1113    1.0979 C   0  0  0  0  0  0  0  0  0  0  0  0
    4.1672   -0.6156    1.5145 C   0  0  0  0  0  0  0  0  0  0  0  0
    4.7969    0.4037    0.7919 C   0  0  0  0  0  0  0  0  0  0  0  0
    6.3848    1.0378    1.3480 S   0  0  0  0  0  0  0  0  0  0  0  0
    7.3848   -0.2400    0.5038 C   0  0  0  0  0  0  0  0  0  0  0  0
    7.5625    0.0874   -0.9741 C   0  0  0  0  0  0  0  0  0  0  0  0
    4.1707    0.9433   -0.3404 C   0  0  0  0  0  0  0  0  0  0  0  0
    4.7551    1.9516   -1.0335 F   0  0  0  0  0  0  0  0  0  0  0  0
    2.9331    0.4458   -0.7601 C   0  0  0  0  0  0  0  0  0  0  0  0
    0.8412   -1.7297   -1.7380 C   0  0  0  0  0  0  0  0  0  0  0  0
   -0.3785   -2.2554   -2.1743 C   0  0  0  0  0  0  0  0  0  0  0  0
   -1.5223   -2.1922   -1.3529 C   0  0  0  0  0  0  0  0  0  0  0  0
   -2.8151   -2.7625   -1.7817 C   0  0  0  0  0  0  0  0  0  0  0  0
   -2.9421   -4.1461   -1.9736 C   0  0  0  0  0  0  0  0  0  0  0  0
   -4.1444   -4.6837   -2.4384 C   0  0  0  0  0  0  0  0  0  0  0  0
   -5.2258   -3.8435   -2.7278 C   0  0  0  0  0  0  0  0  0  0  0  0
   -6.7532   -4.5480   -3.3596 S   0  0  0  0  0  0  0  0  0  0  0  0
   -6.1967   -4.6245   -5.0998 C   0  0  0  0  0  0  0  0  0  0  0  0
   -6.3737   -3.2792   -5.7932 C   0  0  0  0  0  0  0  0  0  0  0  0
   -5.1118   -2.4620   -2.5144 C   0  0  0  0  0  0  0  0  0  0  0  0
   -3.9097   -1.9241   -2.0423 C   0  0  0  0  0  0  0  0  0  0  0  0
   -6.1601   -1.6386   -2.7693 F   0  0  0  0  0  0  0  0  0  0  0  0
   -1.3734   -1.5633   -0.1053 C   0  0  0  0  0  0  0  0  0  0  0  0
   -2.5397   -1.3101    1.0804 S   0  0  0  0  0  0  0  0  0  0  0  0
   -0.3171   -2.7985   -3.4680 C   0  0  0  0  0  0  0  0  0  0  0  0
    0.9544   -2.7132   -4.0375 C   0  0  0  0  0  0  0  0  0  0  0  0
    1.9984   -1.9701   -2.9361 S   0  0  0  0  0  0  0  0  0  0  0  0
    1.3437   -3.1577   -5.3889 C   0  0  0  0  0  0  0  0  0  0  0  0
    0.5128   -3.4811   -6.4596 C   0  0  0  0  0  0  0  0  0  0  0  0
    1.1930   -3.8342   -7.6310 C   0  0  0  0  0  0  0  0  0  0  0  0
    0.4976   -4.2008   -8.7376 N   0  0  0  0  0  0  0  0  0  0  0  0
   -0.8650   -4.1957   -8.7205 C   0  0  0  0  0  0  0  0  0  0  0  0
   -1.5518   -3.8074   -7.5521 C   0  0  0  0  0  0  0  0  0  0  0  0
   -3.0455   -3.8176   -7.5065 C   0  0  0  0  0  0  0  0  0  0  0  0
   -0.8435   -3.4677   -6.4375 N   0  0  0  0  0  0  0  0  0  0  0  0
    2.5815   -3.7929   -7.5207 C   0  0  0  0  0  0  0  0  0  0  0  0
    2.9337   -3.3238   -5.9364 S   0  0  0  0  0  0  0  0  0  0  0  0
    3.5914   -4.1038   -8.5487 C   0  0  0  0  0  0  0  0  0  0  0  0
    3.5041   -3.9259   -9.9270 C   0  0  0  0  0  0  0  0  0  0  0  0
    4.6624   -4.2864  -10.6230 C   0  0  0  0  0  0  0  0  0  0  0  0
    4.7293   -4.1414  -11.9698 N   0  0  0  0  0  0  0  0  0  0  0  0
    3.6623   -3.6334  -12.6489 C   0  0  0  0  0  0  0  0  0  0  0  0
    2.4998   -3.2481  -11.9485 C   0  0  0  0  0  0  0  0  0  0  0  0
    1.3220   -2.6912  -12.6812 C   0  0  0  0  0  0  0  0  0  0  0  0
    2.4459   -3.4018  -10.5943 N   0  0  0  0  0  0  0  0  0  0  0  0
    5.6963   -4.7515   -9.8260 C   0  0  0  0  0  0  0  0  0  0  0  0
    5.1441   -4.6918   -8.2315 S   0  0  0  0  0  0  0  0  0  0  0  0
    0.7246    8.0820   11.0291 H   0  0  0  0  0  0  0  0  0  0  0  0
    2.8402    6.4974    5.6827 H   0  0  0  0  0  0  0  0  0  0  0  0
    4.7536    8.1153    6.5897 H   0  0  0  0  0  0  0  0  0  0  0  0
    3.4798    9.3076    6.1042 H   0  0  0  0  0  0  0  0  0  0  0  0
    4.2070    9.3788    7.7568 H   0  0  0  0  0  0  0  0  0  0  0  0
   -4.7738    1.1467    9.9905 H   0  0  0  0  0  0  0  0  0  0  0  0
   -4.1370    2.1365   12.4074 H   0  0  0  0  0  0  0  0  0  0  0  0
   -5.1596    3.4493   11.6926 H   0  0  0  0  0  0  0  0  0  0  0  0
   -3.5371    3.8395   12.3846 H   0  0  0  0  0  0  0  0  0  0  0  0
   -6.2565   -1.1569    3.9509 H   0  0  0  0  0  0  0  0  0  0  0  0
   -6.9855   -0.8406    6.6950 H   0  0  0  0  0  0  0  0  0  0  0  0
   -7.5867    0.5067    5.6436 H   0  0  0  0  0  0  0  0  0  0  0  0
   -6.6660    0.8766    7.1508 H   0  0  0  0  0  0  0  0  0  0  0  0
    0.5917    0.0700    2.0804 H   0  0  0  0  0  0  0  0  0  0  0  0
    2.4578   -1.9076    1.6618 H   0  0  0  0  0  0  0  0  0  0  0  0
    4.6396   -1.0303    2.3961 H   0  0  0  0  0  0  0  0  0  0  0  0
    8.3860   -0.2670    0.9859 H   0  0  0  0  0  0  0  0  0  0  0  0
    6.9217   -1.2445    0.6199 H   0  0  0  0  0  0  0  0  0  0  0  0
    7.9721    1.1135   -1.0923 H   0  0  0  0  0  0  0  0  0  0  0  0
    8.2701   -0.6349   -1.4319 H   0  0  0  0  0  0  0  0  0  0  0  0
    6.5925    0.0121   -1.5070 H   0  0  0  0  0  0  0  0  0  0  0  0
    2.4578    0.8698   -1.6368 H   0  0  0  0  0  0  0  0  0  0  0  0
   -2.1067   -4.8049   -1.7719 H   0  0  0  0  0  0  0  0  0  0  0  0
   -4.2282   -5.7524   -2.5900 H   0  0  0  0  0  0  0  0  0  0  0  0
   -6.8138   -5.3822   -5.6265 H   0  0  0  0  0  0  0  0  0  0  0  0
   -5.1364   -4.9487   -5.1621 H   0  0  0  0  0  0  0  0  0  0  0  0
   -6.1082   -3.3781   -6.8681 H   0  0  0  0  0  0  0  0  0  0  0  0
   -5.7113   -2.5181   -5.3355 H   0  0  0  0  0  0  0  0  0  0  0  0
   -7.4297   -2.9446   -5.7157 H   0  0  0  0  0  0  0  0  0  0  0  0
   -3.8249   -0.8534   -1.8987 H   0  0  0  0  0  0  0  0  0  0  0  0
   -1.1691   -3.2403   -3.9635 H   0  0  0  0  0  0  0  0  0  0  0  0
   -1.4102   -4.4881   -9.6092 H   0  0  0  0  0  0  0  0  0  0  0  0
   -3.4062   -3.2413   -6.6285 H   0  0  0  0  0  0  0  0  0  0  0  0
   -3.4074   -4.8631   -7.4257 H   0  0  0  0  0  0  0  0  0  0  0  0
   -3.4606   -3.3547   -8.4274 H   0  0  0  0  0  0  0  0  0  0  0  0
    3.7179   -3.5215  -13.7240 H   0  0  0  0  0  0  0  0  0  0  0  0
    0.5487   -2.3381  -11.9667 H   0  0  0  0  0  0  0  0  0  0  0  0
    0.8789   -3.4782  -13.3273 H   0  0  0  0  0  0  0  0  0  0  0  0
    1.6405   -1.8349  -13.3131 H   0  0  0  0  0  0  0  0  0  0  0  0
    6.6746   -5.0706  -10.1600 H   0  0  0  0  0  0  0  0  0  0  0  0
  1  2  2  0
  2  3  1  0
  3  4  1  0
  4  5  2  0
  5  6  1  0
  6  7  1  0
  6  8  2  0
  3  9  2  0
  9 10  1  0
  9 11  1  0
 11 12  2  0
 12 13  1  0
 13 14  1  0
 14 15  2  0
 15 16  1  0
 16 17  1  0
 16 18  2  0
 13 19  2  0
 19 20  1  0
 19 21  1  0
 21 22  2  0
 22 23  1  0
 23 24  1  0
 24 25  2  0
 25 26  1  0
 26 27  1  0
 26 28  2  0
 23 29  2  0
 29 30  1  0
 29 31  1  0
 31 32  2  0
 32 33  1  0
 33 34  2  0
 34 35  1  0
 35 36  2  0
 36 37  1  0
 37 38  2  0
 38 39  1  0
 39 40  1  0
 40 41  1  0
 38 42  1  0
 42 43  1  0
 42 44  2  0
 34 45  1  0
 45 46  2  0
 46 47  1  0
 47 48  1  0
 48 49  2  0
 49 50  1  0
 50 51  2  0
 51 52  1  0
 52 53  1  0
 53 54  1  0
 51 55  1  0
 55 56  2  0
 55 57  1  0
 47 58  2  0
 58 59  1  0
 46 60  1  0
 60 61  2  0
 61 62  1  0
 61 63  1  0
 63 64  2  0
 64 65  1  0
 65 66  1  0
 66 67  2  0
 67 68  1  0
 68 69  1  0
 68 70  2  0
 65 71  2  0
 71 72  1  0
 71 73  1  0
 73 74  2  0
 74 75  1  0
 75 76  1  0
 76 77  2  0
 77 78  1  0
 78 79  1  0
 78 80  2  0
 75 81  2  0
 81 82  1  0
 10  1  1  0
 20 11  1  0
 30 21  1  0
 59 31  1  0
 72 63  1  0
 82 73  1  0
  8  2  1  0
 18 12  1  0
 28 22  1  0
 58 33  1  0
 70 64  1  0
 80 74  1  0
 44 35  1  0
 62 45  1  0
 56 48  1  0
  1 83  1  0
  5 84  1  0
  7 85  1  0
  7 86  1  0
  7 87  1  0
 15 88  1  0
 17 89  1  0
 17 90  1  0
 17 91  1  0
 25 92  1  0
 27 93  1  0
 27 94  1  0
 27 95  1  0
 32 96  1  0
 36 97  1  0
 37 98  1  0
 40 99  1  0
 40100  1  0
 41101  1  0
 41102  1  0
 41103  1  0
 44104  1  0
 49105  1  0
 50106  1  0
 53107  1  0
 53108  1  0
 54109  1  0
 54110  1  0
 54111  1  0
 56112  1  0
 60113  1  0
 67114  1  0
 69115  1  0
 69116  1  0
 69117  1  0
 77118  1  0
 79119  1  0
 79120  1  0
 79121  1  0
 81122  1  0
M  END

