
     RDKit          3D

116127  0  0  0  0  0  0  0  0999 V2000
    4.6041   -1.6061    3.7459 C   0  0  0  0  0  0  0  0  0  0  0  0
    3.3247   -2.1628    4.6999 S   0  0  0  0  0  0  0  0  0  0  0  0
    2.3084   -2.7236    3.4545 C   0  0  0  0  0  0  0  0  0  0  0  0
    2.9858   -2.4616    2.2674 C   0  0  0  0  0  0  0  0  0  0  0  0
    4.2163   -1.8649    2.4447 C   0  0  0  0  0  0  0  0  0  0  0  0
    4.9476   -1.5749    0.9687 S   0  0  0  0  0  0  0  0  0  0  0  0
    3.6668   -2.2317    0.0545 C   0  0  0  0  0  0  0  0  0  0  0  0
    3.6691   -2.2988   -1.4215 C   0  0  0  0  0  0  0  0  0  0  0  0
    4.6273   -1.7693   -2.0501 O   0  0  0  0  0  0  0  0  0  0  0  0
    2.5455   -2.9603   -2.1785 C   0  0  0  0  0  0  0  0  0  0  0  0
    2.8402   -3.1146   -3.6715 C   0  0  0  0  0  0  0  0  0  0  0  0
    2.6552   -2.6754    0.9244 C   0  0  0  0  0  0  0  0  0  0  0  0
    1.4864   -3.2252    0.5173 F   0  0  0  0  0  0  0  0  0  0  0  0
    0.9713   -3.3282    3.6058 C   0  0  0  0  0  0  0  0  0  0  0  0
    0.3782   -3.4449    4.7988 C   0  0  0  0  0  0  0  0  0  0  0  0
   -0.9931   -3.9532    4.9651 C   0  0  0  0  0  0  0  0  0  0  0  0
   -2.0537   -3.4625    6.1896 S   0  0  0  0  0  0  0  0  0  0  0  0
   -3.4119   -4.3443    5.6859 C   0  0  0  0  0  0  0  0  0  0  0  0
   -3.0327   -5.0420    4.5480 C   0  0  0  0  0  0  0  0  0  0  0  0
   -1.7253   -4.8244    4.1632 C   0  0  0  0  0  0  0  0  0  0  0  0
   -1.4038   -5.6787    2.7538 S   0  0  0  0  0  0  0  0  0  0  0  0
   -2.9761   -6.3198    2.6098 C   0  0  0  0  0  0  0  0  0  0  0  0
   -3.4066   -7.1825    1.4918 C   0  0  0  0  0  0  0  0  0  0  0  0
   -2.5363   -7.5974    0.6768 O   0  0  0  0  0  0  0  0  0  0  0  0
   -4.8507   -7.5855    1.3249 C   0  0  0  0  0  0  0  0  0  0  0  0
   -5.1382   -8.2054   -0.0420 C   0  0  0  0  0  0  0  0  0  0  0  0
   -3.7579   -5.8665    3.6858 C   0  0  0  0  0  0  0  0  0  0  0  0
   -5.0629   -6.1793    3.8767 F   0  0  0  0  0  0  0  0  0  0  0  0
   -4.7673   -4.2157    6.2402 C   0  0  0  0  0  0  0  0  0  0  0  0
   -5.5098   -3.1045    6.1145 C   0  0  0  0  0  0  0  0  0  0  0  0
   -5.1674   -1.9687    5.2267 C   0  0  0  0  0  0  0  0  0  0  0  0
   -5.5092   -0.6259    5.4061 C   0  0  0  0  0  0  0  0  0  0  0  0
   -5.1049    0.2129    4.3436 C   0  0  0  0  0  0  0  0  0  0  0  0
   -5.3793    1.5848    4.3816 C   0  0  0  0  0  0  0  0  0  0  0  0
   -6.0483    2.1162    5.4923 C   0  0  0  0  0  0  0  0  0  0  0  0
   -6.4420    1.2844    6.5525 C   0  0  0  0  0  0  0  0  0  0  0  0
   -6.1770   -0.0902    6.5145 C   0  0  0  0  0  0  0  0  0  0  0  0
   -4.4761   -0.4695    3.3000 C   0  0  0  0  0  0  0  0  0  0  0  0
   -4.4133   -2.0930    3.7243 S   0  0  0  0  0  0  0  0  0  0  0  0
   -3.8534    0.0890    2.0878 C   0  0  0  0  0  0  0  0  0  0  0  0
   -3.8789   -0.4609    0.8043 C   0  0  0  0  0  0  0  0  0  0  0  0
   -3.0159    0.1829   -0.1108 C   0  0  0  0  0  0  0  0  0  0  0  0
   -2.9742   -0.2423   -1.4491 C   0  0  0  0  0  0  0  0  0  0  0  0
   -3.7757   -1.3162   -1.8547 C   0  0  0  0  0  0  0  0  0  0  0  0
   -4.6273   -1.9551   -0.9419 C   0  0  0  0  0  0  0  0  0  0  0  0
   -4.6923   -1.5238    0.3878 C   0  0  0  0  0  0  0  0  0  0  0  0
   -2.2898    1.2400    0.4535 C   0  0  0  0  0  0  0  0  0  0  0  0
   -2.7496    1.3580    2.0744 S   0  0  0  0  0  0  0  0  0  0  0  0
   -1.2419    2.0735   -0.1720 C   0  0  0  0  0  0  0  0  0  0  0  0
   -0.1656    1.6230   -1.4020 S   0  0  0  0  0  0  0  0  0  0  0  0
    0.7283    3.0650   -1.4857 C   0  0  0  0  0  0  0  0  0  0  0  0
    0.1847    3.9099   -0.5227 C   0  0  0  0  0  0  0  0  0  0  0  0
   -0.8669    3.3619    0.1831 C   0  0  0  0  0  0  0  0  0  0  0  0
   -1.4544    4.4716    1.2965 S   0  0  0  0  0  0  0  0  0  0  0  0
   -0.3391    5.6897    0.8805 C   0  0  0  0  0  0  0  0  0  0  0  0
   -0.2988    7.0220    1.5161 C   0  0  0  0  0  0  0  0  0  0  0  0
   -1.1084    7.2747    2.4515 O   0  0  0  0  0  0  0  0  0  0  0  0
    0.6933    8.0671    1.0712 C   0  0  0  0  0  0  0  0  0  0  0  0
    0.5426    9.3963    1.8083 C   0  0  0  0  0  0  0  0  0  0  0  0
    0.4988    5.2198   -0.1447 C   0  0  0  0  0  0  0  0  0  0  0  0
    1.5006    5.9434   -0.7015 F   0  0  0  0  0  0  0  0  0  0  0  0
    1.8208    3.3817   -2.4254 C   0  0  0  0  0  0  0  0  0  0  0  0
    2.2024    2.5443   -3.3962 C   0  0  0  0  0  0  0  0  0  0  0  0
    3.2386    2.9176   -4.3766 C   0  0  0  0  0  0  0  0  0  0  0  0
    4.1666    4.3374   -4.4181 S   0  0  0  0  0  0  0  0  0  0  0  0
    5.0203    4.0197   -5.8459 C   0  0  0  0  0  0  0  0  0  0  0  0
    4.5880    2.7700   -6.2933 C   0  0  0  0  0  0  0  0  0  0  0  0
    3.6232    2.1934   -5.4907 C   0  0  0  0  0  0  0  0  0  0  0  0
    3.1766    0.6930   -6.0915 S   0  0  0  0  0  0  0  0  0  0  0  0
    4.2520    0.7579   -7.4113 C   0  0  0  0  0  0  0  0  0  0  0  0
    4.4123   -0.2981   -8.4331 C   0  0  0  0  0  0  0  0  0  0  0  0
    5.2707   -0.1577   -9.3444 O   0  0  0  0  0  0  0  0  0  0  0  0
    3.6026   -1.5627   -8.3906 C   0  0  0  0  0  0  0  0  0  0  0  0
    4.2785   -2.6073   -7.5110 C   0  0  0  0  0  0  0  0  0  0  0  0
    4.9711    1.9625   -7.3696 C   0  0  0  0  0  0  0  0  0  0  0  0
    5.9615    2.2715   -8.2408 F   0  0  0  0  0  0  0  0  0  0  0  0
    5.9895    4.9485   -6.4482 C   0  0  0  0  0  0  0  0  0  0  0  0
    6.0540    5.1631   -7.7598 C   0  0  0  0  0  0  0  0  0  0  0  0
    5.5207   -1.1379    4.0797 H   0  0  0  0  0  0  0  0  0  0  0  0
    1.6186   -2.3591   -2.0534 H   0  0  0  0  0  0  0  0  0  0  0  0
    2.3716   -3.9742   -1.7561 H   0  0  0  0  0  0  0  0  0  0  0  0
    2.9754   -2.1191   -4.1441 H   0  0  0  0  0  0  0  0  0  0  0  0
    1.9914   -3.6274   -4.1687 H   0  0  0  0  0  0  0  0  0  0  0  0
    3.7588   -3.7220   -3.8213 H   0  0  0  0  0  0  0  0  0  0  0  0
    0.4461   -3.6308    2.7139 H   0  0  0  0  0  0  0  0  0  0  0  0
    0.8692   -3.0678    5.6867 H   0  0  0  0  0  0  0  0  0  0  0  0
   -5.4947   -6.6871    1.4361 H   0  0  0  0  0  0  0  0  0  0  0  0
   -5.1170   -8.3162    2.1194 H   0  0  0  0  0  0  0  0  0  0  0  0
   -6.2191   -8.4462   -0.1222 H   0  0  0  0  0  0  0  0  0  0  0  0
   -4.5593   -9.1440   -0.1737 H   0  0  0  0  0  0  0  0  0  0  0  0
   -4.8734   -7.4937   -0.8543 H   0  0  0  0  0  0  0  0  0  0  0  0
   -5.1453   -5.0320    6.8431 H   0  0  0  0  0  0  0  0  0  0  0  0
   -6.4355   -3.0504    6.6730 H   0  0  0  0  0  0  0  0  0  0  0  0
   -5.1001    2.2378    3.5649 H   0  0  0  0  0  0  0  0  0  0  0  0
   -6.2675    3.1743    5.5324 H   0  0  0  0  0  0  0  0  0  0  0  0
   -6.9595    1.7078    7.4034 H   0  0  0  0  0  0  0  0  0  0  0  0
   -6.4840   -0.7188    7.3399 H   0  0  0  0  0  0  0  0  0  0  0  0
   -2.3588    0.2534   -2.1840 H   0  0  0  0  0  0  0  0  0  0  0  0
   -3.7497   -1.6495   -2.8852 H   0  0  0  0  0  0  0  0  0  0  0  0
   -5.2545   -2.7722   -1.2710 H   0  0  0  0  0  0  0  0  0  0  0  0
   -5.3833   -2.0041    1.0668 H   0  0  0  0  0  0  0  0  0  0  0  0
    1.7214    7.6825    1.2447 H   0  0  0  0  0  0  0  0  0  0  0  0
    0.5620    8.2538   -0.0178 H   0  0  0  0  0  0  0  0  0  0  0  0
   -0.4633    9.8318    1.6233 H   0  0  0  0  0  0  0  0  0  0  0  0
    1.3079   10.1100    1.4398 H   0  0  0  0  0  0  0  0  0  0  0  0
    0.6915    9.2535    2.8995 H   0  0  0  0  0  0  0  0  0  0  0  0
    2.2968    4.3476   -2.3430 H   0  0  0  0  0  0  0  0  0  0  0  0
    1.7211    1.5805   -3.5026 H   0  0  0  0  0  0  0  0  0  0  0  0
    3.4933   -1.9667   -9.4202 H   0  0  0  0  0  0  0  0  0  0  0  0
    2.5812   -1.3567   -8.0056 H   0  0  0  0  0  0  0  0  0  0  0  0
    4.4074   -2.2205   -6.4744 H   0  0  0  0  0  0  0  0  0  0  0  0
    3.6516   -3.5250   -7.4730 H   0  0  0  0  0  0  0  0  0  0  0  0
    5.2763   -2.8745   -7.9271 H   0  0  0  0  0  0  0  0  0  0  0  0
    6.5937    5.5594   -5.7910 H   0  0  0  0  0  0  0  0  0  0  0  0
    5.3903    4.6571   -8.4466 H   0  0  0  0  0  0  0  0  0  0  0  0
    6.7475    5.8927   -8.1539 H   0  0  0  0  0  0  0  0  0  0  0  0
  1  2  1  0
  2  3  1  0
  3  4  2  0
  4  5  1  0
  5  6  1  0
  6  7  1  0
  7  8  1  0
  8  9  2  0
  8 10  1  0
 10 11  1  0
  7 12  2  0
 12 13  1  0
  3 14  1  0
 14 15  2  3
 15 16  1  0
 16 17  1  0
 17 18  1  0
 18 19  2  0
 19 20  1  0
 20 21  1  0
 21 22  1  0
 22 23  1  0
 23 24  2  0
 23 25  1  0
 25 26  1  0
 22 27  2  0
 27 28  1  0
 18 29  1  0
 29 30  2  3
 30 31  1  0
 31 32  2  0
 32 33  1  0
 33 34  1  0
 34 35  2  0
 35 36  1  0
 36 37  2  0
 33 38  2  0
 38 39  1  0
 38 40  1  0
 40 41  2  0
 41 42  1  0
 42 43  1  0
 43 44  2  0
 44 45  1  0
 45 46  2  0
 42 47  2  0
 47 48  1  0
 47 49  1  0
 49 50  1  0
 50 51  1  0
 51 52  2  0
 52 53  1  0
 53 54  1  0
 54 55  1  0
 55 56  1  0
 56 57  2  0
 56 58  1  0
 58 59  1  0
 55 60  2  0
 60 61  1  0
 51 62  1  0
 62 63  2  3
 63 64  1  0
 64 65  1  0
 65 66  1  0
 66 67  2  0
 67 68  1  0
 68 69  1  0
 69 70  1  0
 70 71  1  0
 71 72  2  0
 71 73  1  0
 73 74  1  0
 70 75  2  0
 75 76  1  0
 66 77  1  0
 77 78  2  3
  5  1  2  0
 20 16  2  0
 39 31  1  0
 48 40  1  0
 53 49  2  0
 68 64  2  0
 12  4  1  0
 27 19  1  0
 37 32  1  0
 46 41  1  0
 60 52  1  0
 75 67  1  0
  1 79  1  0
 10 80  1  0
 10 81  1  0
 11 82  1  0
 11 83  1  0
 11 84  1  0
 14 85  1  0
 15 86  1  0
 25 87  1  0
 25 88  1  0
 26 89  1  0
 26 90  1  0
 26 91  1  0
 29 92  1  0
 30 93  1  0
 34 94  1  0
 35 95  1  0
 36 96  1  0
 37 97  1  0
 43 98  1  0
 44 99  1  0
 45100  1  0
 46101  1  0
 58102  1  0
 58103  1  0
 59104  1  0
 59105  1  0
 59106  1  0
 62107  1  0
 63108  1  0
 73109  1  0
 73110  1  0
 74111  1  0
 74112  1  0
 74113  1  0
 77114  1  0
 78115  1  0
 78116  1  0
M  END

