
     RDKit          3D

167187  0  0  0  0  0  0  0  0999 V2000
    3.2700  -11.2765   12.4628 C   0  0  0  0  0  0  0  0  0  0  0  0
    2.7072  -10.0099   12.5955 C   0  0  0  0  0  0  0  0  0  0  0  0
    2.2674   -9.4695   11.3754 C   0  0  0  0  0  0  0  0  0  0  0  0
    1.6696   -8.2067   11.1870 C   0  0  0  0  0  0  0  0  0  0  0  0
    1.5318   -7.2425   12.2929 C   0  0  0  0  0  0  0  0  0  0  0  0
    2.8286   -6.5581   13.1188 S   0  0  0  0  0  0  0  0  0  0  0  0
    1.9092   -5.5652   14.1157 C   0  0  0  0  0  0  0  0  0  0  0  0
    2.4802   -4.5797   15.0887 C   0  0  0  0  0  0  0  0  0  0  0  0
    2.5634   -3.1921   14.4652 C   0  0  0  0  0  0  0  0  0  0  0  0
    0.5627   -5.7412   13.7992 C   0  0  0  0  0  0  0  0  0  0  0  0
   -0.7409   -4.8554   14.5777 Cl  0  0  0  0  0  0  0  0  0  0  0  0
    0.3503   -6.6874   12.7810 C   0  0  0  0  0  0  0  0  0  0  0  0
   -1.2491   -7.1382   12.2035 Cl  0  0  0  0  0  0  0  0  0  0  0  0
    1.3087   -7.8652    9.8709 C   0  0  0  0  0  0  0  0  0  0  0  0
    1.5557   -8.7084    8.7815 C   0  0  0  0  0  0  0  0  0  0  0  0
    2.1380   -9.9766    8.9727 C   0  0  0  0  0  0  0  0  0  0  0  0
    2.3856  -10.8919    7.8460 C   0  0  0  0  0  0  0  0  0  0  0  0
    3.4568  -10.5911    6.5829 S   0  0  0  0  0  0  0  0  0  0  0  0
    3.0913  -11.9799    5.7073 C   0  0  0  0  0  0  0  0  0  0  0  0
    3.7515  -12.3699    4.4213 C   0  0  0  0  0  0  0  0  0  0  0  0
    4.8438  -13.4054    4.6660 C   0  0  0  0  0  0  0  0  0  0  0  0
    2.1279  -12.7097    6.4051 C   0  0  0  0  0  0  0  0  0  0  0  0
    1.7275  -12.0943    7.6002 C   0  0  0  0  0  0  0  0  0  0  0  0
    0.4836  -12.7518    8.6564 Cl  0  0  0  0  0  0  0  0  0  0  0  0
    1.4532  -14.2257    5.8270 Cl  0  0  0  0  0  0  0  0  0  0  0  0
    2.4761  -10.3263   10.2906 C   0  0  0  0  0  0  0  0  0  0  0  0
    3.2205  -11.7329   10.8399 S   0  0  0  0  0  0  0  0  0  0  0  0
    1.1813   -8.1458    7.5515 C   0  0  0  0  0  0  0  0  0  0  0  0
    0.6331   -6.8737    7.6835 C   0  0  0  0  0  0  0  0  0  0  0  0
    0.6262   -6.4287    9.3114 S   0  0  0  0  0  0  0  0  0  0  0  0
    0.2514   -6.0012    6.5725 C   0  0  0  0  0  0  0  0  0  0  0  0
    0.9631   -5.8708    5.3837 C   0  0  0  0  0  0  0  0  0  0  0  0
    0.4136   -4.9074    4.5257 C   0  0  0  0  0  0  0  0  0  0  0  0
    0.9325   -4.5191    3.2751 C   0  0  0  0  0  0  0  0  0  0  0  0
    2.1736   -5.0982    2.7365 C   0  0  0  0  0  0  0  0  0  0  0  0
    3.6961   -4.9306    3.4357 S   0  0  0  0  0  0  0  0  0  0  0  0
    4.5163   -5.8638    2.3012 C   0  0  0  0  0  0  0  0  0  0  0  0
    5.9980   -6.0835    2.2959 C   0  0  0  0  0  0  0  0  0  0  0  0
    6.6818   -5.1255    1.3269 C   0  0  0  0  0  0  0  0  0  0  0  0
    3.6050   -6.3070    1.3448 C   0  0  0  0  0  0  0  0  0  0  0  0
    4.0507   -7.3064   -0.0303 Cl  0  0  0  0  0  0  0  0  0  0  0  0
    2.2913   -5.8835    1.5920 C   0  0  0  0  0  0  0  0  0  0  0  0
    0.9260   -6.3245    0.5773 Cl  0  0  0  0  0  0  0  0  0  0  0  0
    0.2254   -3.5277    2.5758 C   0  0  0  0  0  0  0  0  0  0  0  0
   -0.9616   -2.9682    3.0585 C   0  0  0  0  0  0  0  0  0  0  0  0
   -1.4976   -3.3785    4.2989 C   0  0  0  0  0  0  0  0  0  0  0  0
   -2.7821   -2.8555    4.8055 C   0  0  0  0  0  0  0  0  0  0  0  0
   -2.9870   -2.0280    6.2588 S   0  0  0  0  0  0  0  0  0  0  0  0
   -4.6523   -1.8307    6.1190 C   0  0  0  0  0  0  0  0  0  0  0  0
   -5.5273   -1.2194    7.1724 C   0  0  0  0  0  0  0  0  0  0  0  0
   -6.0438   -2.2877    8.1300 C   0  0  0  0  0  0  0  0  0  0  0  0
   -5.0764   -2.4376    4.9382 C   0  0  0  0  0  0  0  0  0  0  0  0
   -4.0291   -3.0087    4.1998 C   0  0  0  0  0  0  0  0  0  0  0  0
   -4.2807   -3.9052    2.7049 Cl  0  0  0  0  0  0  0  0  0  0  0  0
   -6.7607   -2.5149    4.4389 Cl  0  0  0  0  0  0  0  0  0  0  0  0
   -0.7550   -4.3240    5.0268 C   0  0  0  0  0  0  0  0  0  0  0  0
   -1.0776   -4.9616    6.5536 S   0  0  0  0  0  0  0  0  0  0  0  0
   -1.4846   -1.9737    2.2139 C   0  0  0  0  0  0  0  0  0  0  0  0
   -0.6824   -1.7232    1.0980 C   0  0  0  0  0  0  0  0  0  0  0  0
    0.6395   -2.7753    1.1285 S   0  0  0  0  0  0  0  0  0  0  0  0
   -0.9446   -0.7517    0.0190 C   0  0  0  0  0  0  0  0  0  0  0  0
   -1.6286    0.4698    0.0811 C   0  0  0  0  0  0  0  0  0  0  0  0
   -1.7348    1.1205   -1.1686 C   0  0  0  0  0  0  0  0  0  0  0  0
   -2.4362    2.3293   -1.2801 C   0  0  0  0  0  0  0  0  0  0  0  0
   -2.9854    2.9128   -0.1317 C   0  0  0  0  0  0  0  0  0  0  0  0
   -2.8224    2.3024    1.1200 C   0  0  0  0  0  0  0  0  0  0  0  0
   -2.1374    1.0881    1.2356 C   0  0  0  0  0  0  0  0  0  0  0  0
   -1.1052    0.4371   -2.2157 C   0  0  0  0  0  0  0  0  0  0  0  0
   -0.4387   -0.9705   -1.5750 S   0  0  0  0  0  0  0  0  0  0  0  0
   -0.9198    0.8997   -3.6056 C   0  0  0  0  0  0  0  0  0  0  0  0
   -1.0521    0.1507   -4.7791 C   0  0  0  0  0  0  0  0  0  0  0  0
   -0.8215    0.8951   -5.9563 C   0  0  0  0  0  0  0  0  0  0  0  0
   -1.0307    0.3108   -7.2143 C   0  0  0  0  0  0  0  0  0  0  0  0
   -1.4238   -1.0293   -7.2896 C   0  0  0  0  0  0  0  0  0  0  0  0
   -1.6327   -1.7767   -6.1221 C   0  0  0  0  0  0  0  0  0  0  0  0
   -1.4610   -1.1883   -4.8617 C   0  0  0  0  0  0  0  0  0  0  0  0
   -0.4684    2.2263   -5.7135 C   0  0  0  0  0  0  0  0  0  0  0  0
   -0.5043    2.4730   -4.0498 S   0  0  0  0  0  0  0  0  0  0  0  0
   -0.3277    3.3102   -6.6999 C   0  0  0  0  0  0  0  0  0  0  0  0
    0.4382    3.3306   -7.8656 C   0  0  0  0  0  0  0  0  0  0  0  0
    0.2135    4.4656   -8.6773 C   0  0  0  0  0  0  0  0  0  0  0  0
    0.8275    4.5542   -9.9341 C   0  0  0  0  0  0  0  0  0  0  0  0
    1.7366    3.5611  -10.3271 C   0  0  0  0  0  0  0  0  0  0  0  0
    2.0236    2.4817   -9.4797 C   0  0  0  0  0  0  0  0  0  0  0  0
    1.3700    2.3564   -8.2490 C   0  0  0  0  0  0  0  0  0  0  0  0
   -0.6944    5.3784   -8.1174 C   0  0  0  0  0  0  0  0  0  0  0  0
   -1.2293    4.7261   -6.6585 S   0  0  0  0  0  0  0  0  0  0  0  0
   -1.1607    6.6832   -8.6296 C   0  0  0  0  0  0  0  0  0  0  0  0
   -0.4818    7.5597   -9.4831 C   0  0  0  0  0  0  0  0  0  0  0  0
   -1.1863    8.7549   -9.7184 C   0  0  0  0  0  0  0  0  0  0  0  0
   -0.7794    9.8157  -10.5515 C   0  0  0  0  0  0  0  0  0  0  0  0
    0.4529    9.7480  -11.3518 C   0  0  0  0  0  0  0  0  0  0  0  0
    2.0148    9.8107  -10.7289 S   0  0  0  0  0  0  0  0  0  0  0  0
    2.7989    9.6765  -12.2138 C   0  0  0  0  0  0  0  0  0  0  0  0
    4.2848    9.6130  -12.3878 C   0  0  0  0  0  0  0  0  0  0  0  0
    4.7828    8.1775  -12.2721 C   0  0  0  0  0  0  0  0  0  0  0  0
    1.8384    9.5517  -13.2168 C   0  0  0  0  0  0  0  0  0  0  0  0
    2.2306    9.3299  -14.9151 Cl  0  0  0  0  0  0  0  0  0  0  0  0
    0.5236    9.5987  -12.7329 C   0  0  0  0  0  0  0  0  0  0  0  0
   -0.8940    9.4465  -13.7639 Cl  0  0  0  0  0  0  0  0  0  0  0  0
   -1.6325   10.9295  -10.6259 C   0  0  0  0  0  0  0  0  0  0  0  0
   -2.8288   11.0129   -9.9082 C   0  0  0  0  0  0  0  0  0  0  0  0
   -3.2386    9.9515   -9.0770 C   0  0  0  0  0  0  0  0  0  0  0  0
   -4.4712   10.0150   -8.2725 C   0  0  0  0  0  0  0  0  0  0  0  0
   -5.7735    8.9595   -8.4181 S   0  0  0  0  0  0  0  0  0  0  0  0
   -6.6777    9.6147   -7.1604 C   0  0  0  0  0  0  0  0  0  0  0  0
   -7.9837    9.0607   -6.6750 C   0  0  0  0  0  0  0  0  0  0  0  0
   -7.7518    7.9419   -5.6638 C   0  0  0  0  0  0  0  0  0  0  0  0
   -5.9497   10.6553   -6.5831 C   0  0  0  0  0  0  0  0  0  0  0  0
   -4.7164   10.8846   -7.2110 C   0  0  0  0  0  0  0  0  0  0  0  0
   -3.5618   12.0925   -6.6589 Cl  0  0  0  0  0  0  0  0  0  0  0  0
   -6.5019   11.5656   -5.1822 Cl  0  0  0  0  0  0  0  0  0  0  0  0
   -2.3972    8.8280   -9.0221 C   0  0  0  0  0  0  0  0  0  0  0  0
   -2.5977    7.4200   -8.1287 S   0  0  0  0  0  0  0  0  0  0  0  0
   -3.5259   12.2099  -10.1387 C   0  0  0  0  0  0  0  0  0  0  0  0
   -2.8697   13.0666  -11.0178 C   0  0  0  0  0  0  0  0  0  0  0  0
   -1.4307   12.3411  -11.5193 S   0  0  0  0  0  0  0  0  0  0  0  0
    3.6777  -11.8683   13.2715 H   0  0  0  0  0  0  0  0  0  0  0  0
    2.6247   -9.5040   13.5472 H   0  0  0  0  0  0  0  0  0  0  0  0
    1.8490   -4.5420   16.0025 H   0  0  0  0  0  0  0  0  0  0  0  0
    3.4985   -4.9036   15.3883 H   0  0  0  0  0  0  0  0  0  0  0  0
    3.0164   -2.4832   15.1912 H   0  0  0  0  0  0  0  0  0  0  0  0
    3.1969   -3.2175   13.5521 H   0  0  0  0  0  0  0  0  0  0  0  0
    1.5504   -2.8251   14.1984 H   0  0  0  0  0  0  0  0  0  0  0  0
    4.2000  -11.4687    3.9495 H   0  0  0  0  0  0  0  0  0  0  0  0
    2.9962  -12.7846    3.7207 H   0  0  0  0  0  0  0  0  0  0  0  0
    5.3459  -13.6465    3.7057 H   0  0  0  0  0  0  0  0  0  0  0  0
    4.4071  -14.3369    5.0824 H   0  0  0  0  0  0  0  0  0  0  0  0
    5.5995  -13.0097    5.3750 H   0  0  0  0  0  0  0  0  0  0  0  0
    1.2979   -8.6408    6.5962 H   0  0  0  0  0  0  0  0  0  0  0  0
    1.8604   -6.4346    5.1681 H   0  0  0  0  0  0  0  0  0  0  0  0
    6.3998   -5.9201    3.3176 H   0  0  0  0  0  0  0  0  0  0  0  0
    6.2211   -7.1322    2.0025 H   0  0  0  0  0  0  0  0  0  0  0  0
    6.3504   -5.3290    0.2887 H   0  0  0  0  0  0  0  0  0  0  0  0
    6.4374   -4.0760    1.5893 H   0  0  0  0  0  0  0  0  0  0  0  0
    7.7808   -5.2616    1.3830 H   0  0  0  0  0  0  0  0  0  0  0  0
   -4.9452   -0.4645    7.7436 H   0  0  0  0  0  0  0  0  0  0  0  0
   -6.3876   -0.7007    6.6966 H   0  0  0  0  0  0  0  0  0  0  0  0
   -6.6382   -3.0465    7.5763 H   0  0  0  0  0  0  0  0  0  0  0  0
   -6.6950   -1.8173    8.8968 H   0  0  0  0  0  0  0  0  0  0  0  0
   -5.1931   -2.7899    8.6393 H   0  0  0  0  0  0  0  0  0  0  0  0
   -2.4229   -1.4748    2.4008 H   0  0  0  0  0  0  0  0  0  0  0  0
   -2.5745    2.8160   -2.2348 H   0  0  0  0  0  0  0  0  0  0  0  0
   -3.5321    3.8433   -0.2088 H   0  0  0  0  0  0  0  0  0  0  0  0
   -3.2248    2.7790    2.0050 H   0  0  0  0  0  0  0  0  0  0  0  0
   -1.9865    0.6700    2.2183 H   0  0  0  0  0  0  0  0  0  0  0  0
   -0.9162    0.8783   -8.1267 H   0  0  0  0  0  0  0  0  0  0  0  0
   -1.5812   -1.4900   -8.2560 H   0  0  0  0  0  0  0  0  0  0  0  0
   -1.9504   -2.8078   -6.1936 H   0  0  0  0  0  0  0  0  0  0  0  0
   -1.6785   -1.7643   -3.9738 H   0  0  0  0  0  0  0  0  0  0  0  0
    0.5904    5.3399  -10.6310 H   0  0  0  0  0  0  0  0  0  0  0  0
    2.2177    3.6259  -11.2945 H   0  0  0  0  0  0  0  0  0  0  0  0
    2.7377    1.7293   -9.7878 H   0  0  0  0  0  0  0  0  0  0  0  0
    1.5860    1.5088   -7.6104 H   0  0  0  0  0  0  0  0  0  0  0  0
    0.5036    7.3744   -9.8799 H   0  0  0  0  0  0  0  0  0  0  0  0
    4.5680   10.0243  -13.3804 H   0  0  0  0  0  0  0  0  0  0  0  0
    4.7726   10.2395  -11.6117 H   0  0  0  0  0  0  0  0  0  0  0  0
    4.5509    7.7719  -11.2648 H   0  0  0  0  0  0  0  0  0  0  0  0
    4.3076    7.5369  -13.0436 H   0  0  0  0  0  0  0  0  0  0  0  0
    5.8826    8.1549  -12.4177 H   0  0  0  0  0  0  0  0  0  0  0  0
   -8.5582    8.6666   -7.5381 H   0  0  0  0  0  0  0  0  0  0  0  0
   -8.5867    9.8631   -6.2031 H   0  0  0  0  0  0  0  0  0  0  0  0
   -8.7301    7.5639   -5.2966 H   0  0  0  0  0  0  0  0  0  0  0  0
   -7.1657    8.3172   -4.7977 H   0  0  0  0  0  0  0  0  0  0  0  0
   -7.2042    7.1007   -6.1416 H   0  0  0  0  0  0  0  0  0  0  0  0
   -4.4812   12.4521   -9.6910 H   0  0  0  0  0  0  0  0  0  0  0  0
   -3.2289   14.0394  -11.3296 H   0  0  0  0  0  0  0  0  0  0  0  0
  1  2  2  0
  2  3  1  0
  3  4  2  0
  4  5  1  0
  5  6  1  0
  6  7  1  0
  7  8  1  0
  8  9  1  0
  7 10  2  0
 10 11  1  0
 10 12  1  0
 12 13  1  0
  4 14  1  0
 14 15  2  0
 15 16  1  0
 16 17  1  0
 17 18  1  0
 18 19  1  0
 19 20  1  0
 20 21  1  0
 19 22  2  0
 22 23  1  0
 23 24  1  0
 22 25  1  0
 16 26  2  0
 26 27  1  0
 15 28  1  0
 28 29  2  0
 29 30  1  0
 29 31  1  0
 31 32  2  0
 32 33  1  0
 33 34  2  0
 34 35  1  0
 35 36  1  0
 36 37  1  0
 37 38  1  0
 38 39  1  0
 37 40  2  0
 40 41  1  0
 40 42  1  0
 42 43  1  0
 34 44  1  0
 44 45  2  0
 45 46  1  0
 46 47  1  0
 47 48  1  0
 48 49  1  0
 49 50  1  0
 50 51  1  0
 49 52  2  0
 52 53  1  0
 53 54  1  0
 52 55  1  0
 46 56  2  0
 56 57  1  0
 45 58  1  0
 58 59  2  0
 59 60  1  0
 59 61  1  0
 61 62  2  0
 62 63  1  0
 63 64  1  0
 64 65  2  0
 65 66  1  0
 66 67  2  0
 63 68  2  0
 68 69  1  0
 68 70  1  0
 70 71  2  0
 71 72  1  0
 72 73  1  0
 73 74  2  0
 74 75  1  0
 75 76  2  0
 72 77  2  0
 77 78  1  0
 77 79  1  0
 79 80  2  0
 80 81  1  0
 81 82  1  0
 82 83  2  0
 83 84  1  0
 84 85  2  0
 81 86  2  0
 86 87  1  0
 86 88  1  0
 88 89  2  0
 89 90  1  0
 90 91  2  0
 91 92  1  0
 92 93  1  0
 93 94  1  0
 94 95  1  0
 95 96  1  0
 94 97  2  0
 97 98  1  0
 97 99  1  0
 99100  1  0
 91101  1  0
101102  2  0
102103  1  0
103104  1  0
104105  1  0
105106  1  0
106107  1  0
107108  1  0
106109  2  0
109110  1  0
110111  1  0
109112  1  0
103113  2  0
113114  1  0
102115  1  0
115116  2  0
116117  1  0
 27  1  1  0
 57 31  1  0
 69 61  1  0
 78 70  1  0
 87 79  1  0
114 88  1  0
 26  3  1  0
 56 33  1  0
 67 62  1  0
 76 71  1  0
 85 80  1  0
113 90  1  0
 12  5  2  0
 30 14  1  0
 42 35  2  0
 60 44  1  0
 99 92  2  0
117101  1  0
 23 17  2  0
 53 47  2  0
110104  2  0
  1118  1  0
  2119  1  0
  8120  1  0
  8121  1  0
  9122  1  0
  9123  1  0
  9124  1  0
 20125  1  0
 20126  1  0
 21127  1  0
 21128  1  0
 21129  1  0
 28130  1  0
 32131  1  0
 38132  1  0
 38133  1  0
 39134  1  0
 39135  1  0
 39136  1  0
 50137  1  0
 50138  1  0
 51139  1  0
 51140  1  0
 51141  1  0
 58142  1  0
 64143  1  0
 65144  1  0
 66145  1  0
 67146  1  0
 73147  1  0
 74148  1  0
 75149  1  0
 76150  1  0
 82151  1  0
 83152  1  0
 84153  1  0
 85154  1  0
 89155  1  0
 95156  1  0
 95157  1  0
 96158  1  0
 96159  1  0
 96160  1  0
107161  1  0
107162  1  0
108163  1  0
108164  1  0
108165  1  0
115166  1  0
116167  1  0
M  END

