
     RDKit          3D

167187  0  0  0  0  0  0  0  0999 V2000
    2.8707   -7.2197   10.7709 C   0  0  0  0  0  0  0  0  0  0  0  0
    2.6669   -5.8437   10.7676 C   0  0  0  0  0  0  0  0  0  0  0  0
    1.6633   -5.4360    9.8746 C   0  0  0  0  0  0  0  0  0  0  0  0
    1.2483   -4.1125    9.6333 C   0  0  0  0  0  0  0  0  0  0  0  0
    1.8737   -2.9631   10.3080 C   0  0  0  0  0  0  0  0  0  0  0  0
    2.8432   -1.8173    9.5468 S   0  0  0  0  0  0  0  0  0  0  0  0
    3.1285   -0.8846   10.9161 C   0  0  0  0  0  0  0  0  0  0  0  0
    3.9770    0.3507   10.9358 C   0  0  0  0  0  0  0  0  0  0  0  0
    3.2930    1.4967   10.1977 C   0  0  0  0  0  0  0  0  0  0  0  0
    2.4528   -1.4608   11.9961 C   0  0  0  0  0  0  0  0  0  0  0  0
    2.4483   -0.7828   13.6193 Cl  0  0  0  0  0  0  0  0  0  0  0  0
    1.7511   -2.6285   11.6533 C   0  0  0  0  0  0  0  0  0  0  0  0
    0.7814   -3.5503   12.7922 Cl  0  0  0  0  0  0  0  0  0  0  0  0
    0.2406   -3.9270    8.6739 C   0  0  0  0  0  0  0  0  0  0  0  0
   -0.3397   -4.9880    7.9709 C   0  0  0  0  0  0  0  0  0  0  0  0
    0.0801   -6.3144    8.2086 C   0  0  0  0  0  0  0  0  0  0  0  0
   -0.4499   -7.4533    7.4392 C   0  0  0  0  0  0  0  0  0  0  0  0
    0.4577   -8.3871    6.3745 S   0  0  0  0  0  0  0  0  0  0  0  0
   -0.8011   -9.3944    5.8970 C   0  0  0  0  0  0  0  0  0  0  0  0
   -0.6875  -10.4413    4.8300 C   0  0  0  0  0  0  0  0  0  0  0  0
   -0.9939   -9.8476    3.4580 C   0  0  0  0  0  0  0  0  0  0  0  0
   -1.9637   -8.9984    6.5583 C   0  0  0  0  0  0  0  0  0  0  0  0
   -1.7652   -7.9155    7.4327 C   0  0  0  0  0  0  0  0  0  0  0  0
   -3.0397   -7.2311    8.4314 Cl  0  0  0  0  0  0  0  0  0  0  0  0
   -3.5290   -9.7640    6.3144 Cl  0  0  0  0  0  0  0  0  0  0  0  0
    1.0895   -6.4989    9.1694 C   0  0  0  0  0  0  0  0  0  0  0  0
    1.8148   -7.9339    9.6655 S   0  0  0  0  0  0  0  0  0  0  0  0
   -1.2844   -4.5654    7.0190 C   0  0  0  0  0  0  0  0  0  0  0  0
   -1.4484   -3.1797    6.9951 C   0  0  0  0  0  0  0  0  0  0  0  0
   -0.4203   -2.4777    8.1375 S   0  0  0  0  0  0  0  0  0  0  0  0
   -2.2648   -2.4274    6.0329 C   0  0  0  0  0  0  0  0  0  0  0  0
   -2.2015   -1.0497    5.8382 C   0  0  0  0  0  0  0  0  0  0  0  0
   -2.9292   -0.6164    4.7203 C   0  0  0  0  0  0  0  0  0  0  0  0
   -2.9393    0.6879    4.1881 C   0  0  0  0  0  0  0  0  0  0  0  0
   -2.1407    1.7749    4.7816 C   0  0  0  0  0  0  0  0  0  0  0  0
   -0.4699    1.7425    4.9831 S   0  0  0  0  0  0  0  0  0  0  0  0
   -0.3508    3.2439    5.7337 C   0  0  0  0  0  0  0  0  0  0  0  0
    0.9109    3.7912    6.3302 C   0  0  0  0  0  0  0  0  0  0  0  0
    1.0977    3.2677    7.7494 C   0  0  0  0  0  0  0  0  0  0  0  0
   -1.6301    3.7893    5.8484 C   0  0  0  0  0  0  0  0  0  0  0  0
   -1.9678    5.3050    6.6658 Cl  0  0  0  0  0  0  0  0  0  0  0  0
   -2.6308    2.9711    5.3018 C   0  0  0  0  0  0  0  0  0  0  0  0
   -4.3418    3.3717    5.3596 Cl  0  0  0  0  0  0  0  0  0  0  0  0
   -3.6304    0.8739    2.9784 C   0  0  0  0  0  0  0  0  0  0  0  0
   -4.2992   -0.1650    2.3243 C   0  0  0  0  0  0  0  0  0  0  0  0
   -4.3258   -1.4626    2.8772 C   0  0  0  0  0  0  0  0  0  0  0  0
   -4.9616   -2.5980    2.1844 C   0  0  0  0  0  0  0  0  0  0  0  0
   -4.4563   -3.2372    0.7112 S   0  0  0  0  0  0  0  0  0  0  0  0
   -5.6231   -4.4469    0.6353 C   0  0  0  0  0  0  0  0  0  0  0  0
   -5.7276   -5.4632   -0.4601 C   0  0  0  0  0  0  0  0  0  0  0  0
   -5.0311   -6.7602   -0.0641 C   0  0  0  0  0  0  0  0  0  0  0  0
   -6.4113   -4.3812    1.7833 C   0  0  0  0  0  0  0  0  0  0  0  0
   -6.0419   -3.3427    2.6498 C   0  0  0  0  0  0  0  0  0  0  0  0
   -6.8898   -2.9922    4.1500 Cl  0  0  0  0  0  0  0  0  0  0  0  0
   -7.7479   -5.4778    2.1089 Cl  0  0  0  0  0  0  0  0  0  0  0  0
   -3.6120   -1.6543    4.0743 C   0  0  0  0  0  0  0  0  0  0  0  0
   -3.2633   -3.1073    4.8525 S   0  0  0  0  0  0  0  0  0  0  0  0
   -4.7773    0.2016    1.0553 C   0  0  0  0  0  0  0  0  0  0  0  0
   -4.4203    1.5006    0.6859 C   0  0  0  0  0  0  0  0  0  0  0  0
   -3.5787    2.2146    1.9662 S   0  0  0  0  0  0  0  0  0  0  0  0
   -4.3436    1.9726   -0.7068 C   0  0  0  0  0  0  0  0  0  0  0  0
   -3.5098    3.0055   -1.1334 C   0  0  0  0  0  0  0  0  0  0  0  0
   -3.1929    2.9342   -2.4991 C   0  0  0  0  0  0  0  0  0  0  0  0
   -2.2367    3.7229   -3.1680 C   0  0  0  0  0  0  0  0  0  0  0  0
   -1.4877    4.7945   -2.4869 C   0  0  0  0  0  0  0  0  0  0  0  0
   -0.4503    4.5657   -1.1808 S   0  0  0  0  0  0  0  0  0  0  0  0
    0.0361    6.1749   -1.0544 C   0  0  0  0  0  0  0  0  0  0  0  0
    0.9558    6.7025    0.0008 C   0  0  0  0  0  0  0  0  0  0  0  0
    0.1716    7.1903    1.2121 C   0  0  0  0  0  0  0  0  0  0  0  0
   -0.6165    6.9147   -2.0396 C   0  0  0  0  0  0  0  0  0  0  0  0
   -0.4196    8.6486   -2.2417 Cl  0  0  0  0  0  0  0  0  0  0  0  0
   -1.4640    6.1409   -2.8482 C   0  0  0  0  0  0  0  0  0  0  0  0
   -2.4382    6.8168   -4.1476 Cl  0  0  0  0  0  0  0  0  0  0  0  0
   -1.9202    3.3489   -4.4852 C   0  0  0  0  0  0  0  0  0  0  0  0
   -2.5413    2.2803   -5.1422 C   0  0  0  0  0  0  0  0  0  0  0  0
   -3.5557    1.5413   -4.4988 C   0  0  0  0  0  0  0  0  0  0  0  0
   -4.2416    0.4142   -5.1683 C   0  0  0  0  0  0  0  0  0  0  0  0
   -4.3360   -1.1602   -4.5787 S   0  0  0  0  0  0  0  0  0  0  0  0
   -5.3000   -1.7678   -5.8183 C   0  0  0  0  0  0  0  0  0  0  0  0
   -5.8754   -3.1520   -5.8416 C   0  0  0  0  0  0  0  0  0  0  0  0
   -7.2274   -3.1892   -5.1348 C   0  0  0  0  0  0  0  0  0  0  0  0
   -5.5773   -0.7346   -6.7121 C   0  0  0  0  0  0  0  0  0  0  0  0
   -4.9813    0.4840   -6.3522 C   0  0  0  0  0  0  0  0  0  0  0  0
   -5.2223    1.9749   -7.2591 Cl  0  0  0  0  0  0  0  0  0  0  0  0
   -6.6144   -0.9228   -8.1182 Cl  0  0  0  0  0  0  0  0  0  0  0  0
   -3.8329    1.8797   -3.1602 C   0  0  0  0  0  0  0  0  0  0  0  0
   -4.7594    1.0270   -2.0443 S   0  0  0  0  0  0  0  0  0  0  0  0
   -1.9325    1.9605   -6.3700 C   0  0  0  0  0  0  0  0  0  0  0  0
   -0.8463    2.7839   -6.6734 C   0  0  0  0  0  0  0  0  0  0  0  0
   -0.6264    3.8839   -5.4131 S   0  0  0  0  0  0  0  0  0  0  0  0
    0.1537    2.5458   -7.7301 C   0  0  0  0  0  0  0  0  0  0  0  0
   -0.0349    2.0191   -9.0119 C   0  0  0  0  0  0  0  0  0  0  0  0
    1.1706    1.7954   -9.7103 C   0  0  0  0  0  0  0  0  0  0  0  0
    1.1550    1.2064  -10.9805 C   0  0  0  0  0  0  0  0  0  0  0  0
   -0.0755    0.8891  -11.5710 C   0  0  0  0  0  0  0  0  0  0  0  0
   -1.2782    1.1522  -10.8961 C   0  0  0  0  0  0  0  0  0  0  0  0
   -1.2649    1.7214   -9.6146 C   0  0  0  0  0  0  0  0  0  0  0  0
    2.3094    2.1699   -8.9932 C   0  0  0  0  0  0  0  0  0  0  0  0
    1.8111    2.7330   -7.4929 S   0  0  0  0  0  0  0  0  0  0  0  0
    3.7188    2.0072   -9.3838 C   0  0  0  0  0  0  0  0  0  0  0  0
    4.3534    2.4980  -10.5273 C   0  0  0  0  0  0  0  0  0  0  0  0
    5.7289    2.1899  -10.5828 C   0  0  0  0  0  0  0  0  0  0  0  0
    6.5132    2.6399  -11.6510 C   0  0  0  0  0  0  0  0  0  0  0  0
    5.9152    3.3978  -12.6679 C   0  0  0  0  0  0  0  0  0  0  0  0
    4.5483    3.7135  -12.6066 C   0  0  0  0  0  0  0  0  0  0  0  0
    3.7618    3.2733  -11.5345 C   0  0  0  0  0  0  0  0  0  0  0  0
    6.1868    1.4734   -9.4775 C   0  0  0  0  0  0  0  0  0  0  0  0
    4.8791    1.2331   -8.4420 S   0  0  0  0  0  0  0  0  0  0  0  0
    7.5358    0.9213   -9.2743 C   0  0  0  0  0  0  0  0  0  0  0  0
    8.3436    1.0406   -8.1460 C   0  0  0  0  0  0  0  0  0  0  0  0
    9.5723    0.3630   -8.2636 C   0  0  0  0  0  0  0  0  0  0  0  0
   10.5081    0.3935   -7.2250 C   0  0  0  0  0  0  0  0  0  0  0  0
   10.2131    1.1227   -6.0671 C   0  0  0  0  0  0  0  0  0  0  0  0
    8.9866    1.7986   -5.9432 C   0  0  0  0  0  0  0  0  0  0  0  0
    8.0456    1.7622   -6.9822 C   0  0  0  0  0  0  0  0  0  0  0  0
    9.7470   -0.2973   -9.4732 C   0  0  0  0  0  0  0  0  0  0  0  0
    8.3604   -0.0343  -10.3920 S   0  0  0  0  0  0  0  0  0  0  0  0
    3.5954   -7.7441   11.3773 H   0  0  0  0  0  0  0  0  0  0  0  0
    3.2349   -5.1679   11.3914 H   0  0  0  0  0  0  0  0  0  0  0  0
    4.1960    0.6673   11.9770 H   0  0  0  0  0  0  0  0  0  0  0  0
    4.9464    0.1278   10.4410 H   0  0  0  0  0  0  0  0  0  0  0  0
    2.3217    1.7433   10.6814 H   0  0  0  0  0  0  0  0  0  0  0  0
    3.9466    2.3919   10.2178 H   0  0  0  0  0  0  0  0  0  0  0  0
    3.1179    1.2208    9.1351 H   0  0  0  0  0  0  0  0  0  0  0  0
   -1.3871  -11.2795    5.0373 H   0  0  0  0  0  0  0  0  0  0  0  0
    0.3428  -10.8542    4.8305 H   0  0  0  0  0  0  0  0  0  0  0  0
   -0.3320   -8.9794    3.2587 H   0  0  0  0  0  0  0  0  0  0  0  0
   -2.0543   -9.5200    3.4083 H   0  0  0  0  0  0  0  0  0  0  0  0
   -0.8192  -10.6133    2.6752 H   0  0  0  0  0  0  0  0  0  0  0  0
   -1.8032   -5.2352    6.3472 H   0  0  0  0  0  0  0  0  0  0  0  0
   -1.5996   -0.3979    6.4538 H   0  0  0  0  0  0  0  0  0  0  0  0
    1.7780    3.4841    5.7051 H   0  0  0  0  0  0  0  0  0  0  0  0
    0.8760    4.8997    6.3458 H   0  0  0  0  0  0  0  0  0  0  0  0
    1.1479    2.1573    7.7473 H   0  0  0  0  0  0  0  0  0  0  0  0
    2.0407    3.6694    8.1772 H   0  0  0  0  0  0  0  0  0  0  0  0
    0.2445    3.5876    8.3875 H   0  0  0  0  0  0  0  0  0  0  0  0
   -5.2548   -5.0613   -1.3809 H   0  0  0  0  0  0  0  0  0  0  0  0
   -6.7955   -5.6638   -0.6864 H   0  0  0  0  0  0  0  0  0  0  0  0
   -5.4801   -7.1748    0.8629 H   0  0  0  0  0  0  0  0  0  0  0  0
   -5.1498   -7.5076   -0.8803 H   0  0  0  0  0  0  0  0  0  0  0  0
   -3.9488   -6.5804    0.1044 H   0  0  0  0  0  0  0  0  0  0  0  0
   -5.2564   -0.4904    0.3771 H   0  0  0  0  0  0  0  0  0  0  0  0
   -3.0610    3.7131   -0.4519 H   0  0  0  0  0  0  0  0  0  0  0  0
    1.5604    7.5372   -0.4101 H   0  0  0  0  0  0  0  0  0  0  0  0
    1.6571    5.8992    0.3135 H   0  0  0  0  0  0  0  0  0  0  0  0
    0.8773    7.5511    1.9871 H   0  0  0  0  0  0  0  0  0  0  0  0
   -0.4979    8.0309    0.9257 H   0  0  0  0  0  0  0  0  0  0  0  0
   -0.4380    6.3634    1.6379 H   0  0  0  0  0  0  0  0  0  0  0  0
   -5.9928   -3.4968   -6.8875 H   0  0  0  0  0  0  0  0  0  0  0  0
   -5.1771   -3.8451   -5.3294 H   0  0  0  0  0  0  0  0  0  0  0  0
   -7.1268   -2.8256   -4.0885 H   0  0  0  0  0  0  0  0  0  0  0  0
   -7.5996   -4.2329   -5.1123 H   0  0  0  0  0  0  0  0  0  0  0  0
   -7.9645   -2.5565   -5.6747 H   0  0  0  0  0  0  0  0  0  0  0  0
   -2.2023    1.0932   -6.9540 H   0  0  0  0  0  0  0  0  0  0  0  0
    2.0716    0.9873  -11.5100 H   0  0  0  0  0  0  0  0  0  0  0  0
   -0.0997    0.4409  -12.5551 H   0  0  0  0  0  0  0  0  0  0  0  0
   -2.2239    0.9082  -11.3657 H   0  0  0  0  0  0  0  0  0  0  0  0
   -2.2044    1.9337   -9.1197 H   0  0  0  0  0  0  0  0  0  0  0  0
    7.5744    2.4320  -11.6988 H   0  0  0  0  0  0  0  0  0  0  0  0
    6.5119    3.7543  -13.4970 H   0  0  0  0  0  0  0  0  0  0  0  0
    4.1015    4.3116  -13.3876 H   0  0  0  0  0  0  0  0  0  0  0  0
    2.7150    3.5462  -11.4891 H   0  0  0  0  0  0  0  0  0  0  0  0
   11.4571   -0.1254   -7.3180 H   0  0  0  0  0  0  0  0  0  0  0  0
   10.9321    1.1632   -5.2603 H   0  0  0  0  0  0  0  0  0  0  0  0
    8.7684    2.3553   -5.0402 H   0  0  0  0  0  0  0  0  0  0  0  0
    7.1095    2.2970   -6.8761 H   0  0  0  0  0  0  0  0  0  0  0  0
   10.6127   -0.8707   -9.7732 H   0  0  0  0  0  0  0  0  0  0  0  0
  1  2  2  0
  2  3  1  0
  3  4  2  0
  4  5  1  0
  5  6  1  0
  6  7  1  0
  7  8  1  0
  8  9  1  0
  7 10  2  0
 10 11  1  0
 10 12  1  0
 12 13  1  0
  4 14  1  0
 14 15  2  0
 15 16  1  0
 16 17  1  0
 17 18  1  0
 18 19  1  0
 19 20  1  0
 20 21  1  0
 19 22  2  0
 22 23  1  0
 23 24  1  0
 22 25  1  0
 16 26  2  0
 26 27  1  0
 15 28  1  0
 28 29  2  0
 29 30  1  0
 29 31  1  0
 31 32  2  0
 32 33  1  0
 33 34  2  0
 34 35  1  0
 35 36  1  0
 36 37  1  0
 37 38  1  0
 38 39  1  0
 37 40  2  0
 40 41  1  0
 40 42  1  0
 42 43  1  0
 34 44  1  0
 44 45  2  0
 45 46  1  0
 46 47  1  0
 47 48  1  0
 48 49  1  0
 49 50  1  0
 50 51  1  0
 49 52  2  0
 52 53  1  0
 53 54  1  0
 52 55  1  0
 46 56  2  0
 56 57  1  0
 45 58  1  0
 58 59  2  0
 59 60  1  0
 59 61  1  0
 61 62  2  0
 62 63  1  0
 63 64  2  0
 64 65  1  0
 65 66  1  0
 66 67  1  0
 67 68  1  0
 68 69  1  0
 67 70  2  0
 70 71  1  0
 70 72  1  0
 72 73  1  0
 64 74  1  0
 74 75  2  0
 75 76  1  0
 76 77  1  0
 77 78  1  0
 78 79  1  0
 79 80  1  0
 80 81  1  0
 79 82  2  0
 82 83  1  0
 83 84  1  0
 82 85  1  0
 76 86  2  0
 86 87  1  0
 75 88  1  0
 88 89  2  0
 89 90  1  0
 89 91  1  0
 91 92  2  0
 92 93  1  0
 93 94  1  0
 94 95  2  0
 95 96  1  0
 96 97  2  0
 93 98  2  0
 98 99  1  0
 98100  1  0
100101  2  0
101102  1  0
102103  1  0
103104  2  0
104105  1  0
105106  2  0
102107  2  0
107108  1  0
107109  1  0
109110  2  0
110111  1  0
111112  1  0
112113  2  0
113114  1  0
114115  2  0
111116  2  0
116117  1  0
 27  1  1  0
 57 31  1  0
 87 61  1  0
 99 91  1  0
108100  1  0
117109  1  0
 26  3  1  0
 56 33  1  0
 86 63  1  0
 97 92  1  0
106101  1  0
115110  1  0
 12  5  2  0
 30 14  1  0
 42 35  2  0
 60 44  1  0
 72 65  2  0
 90 74  1  0
 23 17  2  0
 53 47  2  0
 83 77  2  0
  1118  1  0
  2119  1  0
  8120  1  0
  8121  1  0
  9122  1  0
  9123  1  0
  9124  1  0
 20125  1  0
 20126  1  0
 21127  1  0
 21128  1  0
 21129  1  0
 28130  1  0
 32131  1  0
 38132  1  0
 38133  1  0
 39134  1  0
 39135  1  0
 39136  1  0
 50137  1  0
 50138  1  0
 51139  1  0
 51140  1  0
 51141  1  0
 58142  1  0
 62143  1  0
 68144  1  0
 68145  1  0
 69146  1  0
 69147  1  0
 69148  1  0
 80149  1  0
 80150  1  0
 81151  1  0
 81152  1  0
 81153  1  0
 88154  1  0
 94155  1  0
 95156  1  0
 96157  1  0
 97158  1  0
103159  1  0
104160  1  0
105161  1  0
106162  1  0
112163  1  0
113164  1  0
114165  1  0
115166  1  0
116167  1  0
M  END

