
     RDKit          3D

 77 85  0  0  0  0  0  0  0  0999 V2000
    4.4970    1.8479    9.3704 C   0  0  0  0  0  0  0  0  0  0  0  0
    3.8675    0.6573    9.3756 N   0  0  0  0  0  0  0  0  0  0  0  0
    3.1004    0.6044    8.2654 C   0  0  0  0  0  0  0  0  0  0  0  0
    2.1302   -0.4773    7.9824 C   0  0  0  0  0  0  0  0  0  0  0  0
    2.2184   -1.6830    8.5381 C   0  0  0  0  0  0  0  0  0  0  0  0
    3.2571    1.7808    7.5352 C   0  0  0  0  0  0  0  0  0  0  0  0
    4.1414    2.5696    8.2501 C   0  0  0  0  0  0  0  0  0  0  0  0
    2.6201    2.1678    6.2587 C   0  0  0  0  0  0  0  0  0  0  0  0
    2.4007    3.4471    5.8938 N   0  0  0  0  0  0  0  0  0  0  0  0
    1.7938    3.4229    4.6910 C   0  0  0  0  0  0  0  0  0  0  0  0
    1.4242    4.6600    3.9704 C   0  0  0  0  0  0  0  0  0  0  0  0
    1.3427    4.7391    2.6421 C   0  0  0  0  0  0  0  0  0  0  0  0
    1.6172    2.1005    4.2860 C   0  0  0  0  0  0  0  0  0  0  0  0
    2.1712    1.3070    5.2714 C   0  0  0  0  0  0  0  0  0  0  0  0
    0.8543    1.5816    3.1394 C   0  0  0  0  0  0  0  0  0  0  0  0
   -0.4656    1.8836    2.7986 C   0  0  0  0  0  0  0  0  0  0  0  0
   -0.9417    1.1468    1.6973 C   0  0  0  0  0  0  0  0  0  0  0  0
   -2.2660    1.3035    1.2639 C   0  0  0  0  0  0  0  0  0  0  0  0
   -3.1053    2.2056    1.9312 C   0  0  0  0  0  0  0  0  0  0  0  0
   -2.6346    2.9290    3.0363 C   0  0  0  0  0  0  0  0  0  0  0  0
   -1.3168    2.7653    3.4823 C   0  0  0  0  0  0  0  0  0  0  0  0
   -0.0080    0.2419    1.1831 C   0  0  0  0  0  0  0  0  0  0  0  0
    1.3976    0.3685    2.1025 S   0  0  0  0  0  0  0  0  0  0  0  0
   -0.1925   -0.6647    0.0367 C   0  0  0  0  0  0  0  0  0  0  0  0
    0.0241   -2.0447   -0.0034 C   0  0  0  0  0  0  0  0  0  0  0  0
   -0.3268   -2.6354   -1.2364 C   0  0  0  0  0  0  0  0  0  0  0  0
   -0.2315   -4.0223   -1.4075 C   0  0  0  0  0  0  0  0  0  0  0  0
    0.2405   -4.8105   -0.3503 C   0  0  0  0  0  0  0  0  0  0  0  0
    0.6001   -4.2221    0.8722 C   0  0  0  0  0  0  0  0  0  0  0  0
    0.4848   -2.8387    1.0563 C   0  0  0  0  0  0  0  0  0  0  0  0
   -0.8190   -1.7224   -2.1744 C   0  0  0  0  0  0  0  0  0  0  0  0
   -0.7980   -0.1974   -1.4616 S   0  0  0  0  0  0  0  0  0  0  0  0
   -1.2659   -1.9964   -3.5531 C   0  0  0  0  0  0  0  0  0  0  0  0
   -2.3935   -1.4786   -4.1974 C   0  0  0  0  0  0  0  0  0  0  0  0
   -2.5074   -1.8746   -5.5472 C   0  0  0  0  0  0  0  0  0  0  0  0
   -3.6331   -1.4986   -6.2949 C   0  0  0  0  0  0  0  0  0  0  0  0
   -4.6108   -0.6877   -5.7047 C   0  0  0  0  0  0  0  0  0  0  0  0
   -4.4871   -0.2801   -4.3711 C   0  0  0  0  0  0  0  0  0  0  0  0
   -3.3890   -0.6861   -3.6057 C   0  0  0  0  0  0  0  0  0  0  0  0
   -1.4557   -2.6901   -5.9810 C   0  0  0  0  0  0  0  0  0  0  0  0
   -0.4198   -2.9275   -4.6733 S   0  0  0  0  0  0  0  0  0  0  0  0
   -1.2191   -3.2456   -7.3279 C   0  0  0  0  0  0  0  0  0  0  0  0
   -0.5831   -4.4122   -7.5508 N   0  0  0  0  0  0  0  0  0  0  0  0
   -0.5103   -4.5656   -8.8897 C   0  0  0  0  0  0  0  0  0  0  0  0
    0.0982   -5.7108   -9.5957 C   0  0  0  0  0  0  0  0  0  0  0  0
    0.6233   -6.7617   -8.9692 C   0  0  0  0  0  0  0  0  0  0  0  0
   -1.0838   -3.4817   -9.5249 C   0  0  0  0  0  0  0  0  0  0  0  0
   -1.5286   -2.6343   -8.5317 C   0  0  0  0  0  0  0  0  0  0  0  0
    5.1654    2.1881   10.1530 H   0  0  0  0  0  0  0  0  0  0  0  0
    3.9260   -0.0519   10.1406 H   0  0  0  0  0  0  0  0  0  0  0  0
    1.2950   -0.2810    7.3201 H   0  0  0  0  0  0  0  0  0  0  0  0
    3.0326   -1.9526    9.2022 H   0  0  0  0  0  0  0  0  0  0  0  0
    1.4713   -2.4346    8.3111 H   0  0  0  0  0  0  0  0  0  0  0  0
    4.4920    3.5597    7.9906 H   0  0  0  0  0  0  0  0  0  0  0  0
    2.6438    4.3021    6.4441 H   0  0  0  0  0  0  0  0  0  0  0  0
    1.2825    5.5656    4.5482 H   0  0  0  0  0  0  0  0  0  0  0  0
    1.5551    3.8911    2.0056 H   0  0  0  0  0  0  0  0  0  0  0  0
    1.0917    5.6829    2.1750 H   0  0  0  0  0  0  0  0  0  0  0  0
    2.2208    0.2264    5.2694 H   0  0  0  0  0  0  0  0  0  0  0  0
   -2.6618    0.7258    0.4416 H   0  0  0  0  0  0  0  0  0  0  0  0
   -4.1261    2.3388    1.5971 H   0  0  0  0  0  0  0  0  0  0  0  0
   -3.2980    3.6131    3.5526 H   0  0  0  0  0  0  0  0  0  0  0  0
   -0.9821    3.3076    4.3560 H   0  0  0  0  0  0  0  0  0  0  0  0
   -0.5411   -4.5008   -2.3271 H   0  0  0  0  0  0  0  0  0  0  0  0
    0.3098   -5.8837   -0.4702 H   0  0  0  0  0  0  0  0  0  0  0  0
    0.9515   -4.8462    1.6855 H   0  0  0  0  0  0  0  0  0  0  0  0
    0.7369   -2.4053    2.0152 H   0  0  0  0  0  0  0  0  0  0  0  0
   -3.7833   -1.8396   -7.3077 H   0  0  0  0  0  0  0  0  0  0  0  0
   -5.4735   -0.3816   -6.2800 H   0  0  0  0  0  0  0  0  0  0  0  0
   -5.2554    0.3381   -3.9226 H   0  0  0  0  0  0  0  0  0  0  0  0
   -3.3408   -0.3986   -2.5660 H   0  0  0  0  0  0  0  0  0  0  0  0
   -0.2244   -5.0611   -6.8161 H   0  0  0  0  0  0  0  0  0  0  0  0
    0.1075   -5.7007  -10.6766 H   0  0  0  0  0  0  0  0  0  0  0  0
    1.0521   -7.5701   -9.5457 H   0  0  0  0  0  0  0  0  0  0  0  0
    0.6337   -6.8464   -7.8931 H   0  0  0  0  0  0  0  0  0  0  0  0
   -1.1535   -3.3157  -10.5928 H   0  0  0  0  0  0  0  0  0  0  0  0
   -1.9776   -1.6627   -8.6829 H   0  0  0  0  0  0  0  0  0  0  0  0
  1  2  1  0
  2  3  1  0
  3  4  1  0
  4  5  2  3
  3  6  2  0
  6  7  1  0
  6  8  1  0
  8  9  1  0
  9 10  1  0
 10 11  1  0
 11 12  2  3
 10 13  2  0
 13 14  1  0
 13 15  1  0
 15 16  2  0
 16 17  1  0
 17 18  1  0
 18 19  2  0
 19 20  1  0
 20 21  2  0
 17 22  2  0
 22 23  1  0
 22 24  1  0
 24 25  2  0
 25 26  1  0
 26 27  1  0
 27 28  2  0
 28 29  1  0
 29 30  2  0
 26 31  2  0
 31 32  1  0
 31 33  1  0
 33 34  2  0
 34 35  1  0
 35 36  1  0
 36 37  2  0
 37 38  1  0
 38 39  2  0
 35 40  2  0
 40 41  1  0
 40 42  1  0
 42 43  1  0
 43 44  1  0
 44 45  1  0
 45 46  2  3
 44 47  2  0
 47 48  1  0
  7  1  2  0
 14  8  2  0
 23 15  1  0
 32 24  1  0
 41 33  1  0
 48 42  2  0
 21 16  1  0
 30 25  1  0
 39 34  1  0
  1 49  1  0
  2 50  1  0
  4 51  1  0
  5 52  1  0
  5 53  1  0
  7 54  1  0
  9 55  1  0
 11 56  1  0
 12 57  1  0
 12 58  1  0
 14 59  1  0
 18 60  1  0
 19 61  1  0
 20 62  1  0
 21 63  1  0
 27 64  1  0
 28 65  1  0
 29 66  1  0
 30 67  1  0
 36 68  1  0
 37 69  1  0
 38 70  1  0
 39 71  1  0
 43 72  1  0
 45 73  1  0
 46 74  1  0
 46 75  1  0
 47 76  1  0
 48 77  1  0
M  END

