
     RDKit          3D

138155  0  0  0  0  0  0  0  0999 V2000
   -0.2816   -2.7602   15.1595 C   0  0  0  0  0  0  0  0  0  0  0  0
    0.8042   -3.2527   14.4465 C   0  0  0  0  0  0  0  0  0  0  0  0
    0.9047   -2.7653   13.1287 C   0  0  0  0  0  0  0  0  0  0  0  0
    1.9692   -3.1662   12.3114 C   0  0  0  0  0  0  0  0  0  0  0  0
    2.9155   -4.0709   12.8164 C   0  0  0  0  0  0  0  0  0  0  0  0
    2.8043   -4.5615   14.1272 C   0  0  0  0  0  0  0  0  0  0  0  0
    1.7485   -4.1490   14.9521 C   0  0  0  0  0  0  0  0  0  0  0  0
   -0.1097   -1.8666   12.7918 C   0  0  0  0  0  0  0  0  0  0  0  0
   -1.1174   -1.7162   14.1369 S   0  0  0  0  0  0  0  0  0  0  0  0
   -0.3571   -1.2341   11.4808 C   0  0  0  0  0  0  0  0  0  0  0  0
   -0.7887    0.0708   11.2346 C   0  0  0  0  0  0  0  0  0  0  0  0
   -1.0807    0.3321    9.8750 C   0  0  0  0  0  0  0  0  0  0  0  0
   -1.5773    1.5919    9.5021 C   0  0  0  0  0  0  0  0  0  0  0  0
   -1.7297    2.5900   10.4726 C   0  0  0  0  0  0  0  0  0  0  0  0
   -1.3917    2.3409   11.8093 C   0  0  0  0  0  0  0  0  0  0  0  0
   -0.9237    1.0809   12.1976 C   0  0  0  0  0  0  0  0  0  0  0  0
   -0.8600   -0.7707    9.0323 C   0  0  0  0  0  0  0  0  0  0  0  0
   -0.3422   -2.0470   10.0076 S   0  0  0  0  0  0  0  0  0  0  0  0
   -1.0138   -0.8796    7.5642 C   0  0  0  0  0  0  0  0  0  0  0  0
   -1.1252   -2.0843    6.8664 C   0  0  0  0  0  0  0  0  0  0  0  0
   -1.1959   -1.9151    5.4733 C   0  0  0  0  0  0  0  0  0  0  0  0
   -1.3075   -2.9394    4.5112 C   0  0  0  0  0  0  0  0  0  0  0  0
   -1.2799   -4.3624    4.8867 C   0  0  0  0  0  0  0  0  0  0  0  0
    0.0492   -5.1414    5.5598 S   0  0  0  0  0  0  0  0  0  0  0  0
   -0.6725   -6.6561    5.6819 C   0  0  0  0  0  0  0  0  0  0  0  0
   -0.0130   -7.8622    6.2773 C   0  0  0  0  0  0  0  0  0  0  0  0
   -0.1886   -7.8814    7.7903 C   0  0  0  0  0  0  0  0  0  0  0  0
   -1.9849   -6.5636    5.2158 C   0  0  0  0  0  0  0  0  0  0  0  0
   -3.1139   -7.9109    5.2122 Cl  0  0  0  0  0  0  0  0  0  0  0  0
   -2.3212   -5.2783    4.7597 C   0  0  0  0  0  0  0  0  0  0  0  0
   -3.9132   -4.8557    4.1412 Cl  0  0  0  0  0  0  0  0  0  0  0  0
   -1.3802   -2.5429    3.1645 C   0  0  0  0  0  0  0  0  0  0  0  0
   -1.3256   -1.2027    2.7727 C   0  0  0  0  0  0  0  0  0  0  0  0
   -1.1831   -0.1802    3.7314 C   0  0  0  0  0  0  0  0  0  0  0  0
   -1.0543    1.2347    3.3428 C   0  0  0  0  0  0  0  0  0  0  0  0
   -2.2080    2.4220    3.6417 S   0  0  0  0  0  0  0  0  0  0  0  0
   -1.4014    3.6624    2.8375 C   0  0  0  0  0  0  0  0  0  0  0  0
   -1.9546    5.0382    2.6208 C   0  0  0  0  0  0  0  0  0  0  0  0
   -2.6665    5.1257    1.2743 C   0  0  0  0  0  0  0  0  0  0  0  0
   -0.2160    3.1537    2.3065 C   0  0  0  0  0  0  0  0  0  0  0  0
   -0.0195    1.7931    2.5936 C   0  0  0  0  0  0  0  0  0  0  0  0
    1.3960    0.8905    2.0662 Cl  0  0  0  0  0  0  0  0  0  0  0  0
    0.9083    4.1060    1.3453 Cl  0  0  0  0  0  0  0  0  0  0  0  0
   -1.1395   -0.5757    5.0779 C   0  0  0  0  0  0  0  0  0  0  0  0
   -0.9709    0.3876    6.4441 S   0  0  0  0  0  0  0  0  0  0  0  0
   -1.3991   -1.0303    1.3828 C   0  0  0  0  0  0  0  0  0  0  0  0
   -1.4904   -2.2313    0.6801 C   0  0  0  0  0  0  0  0  0  0  0  0
   -1.4715   -3.5092    1.7883 S   0  0  0  0  0  0  0  0  0  0  0  0
   -1.4236   -2.3309   -0.7924 C   0  0  0  0  0  0  0  0  0  0  0  0
   -1.8296   -3.3685   -1.6419 C   0  0  0  0  0  0  0  0  0  0  0  0
   -1.5243   -3.1369   -3.0062 C   0  0  0  0  0  0  0  0  0  0  0  0
   -1.8207   -4.1114   -3.9687 C   0  0  0  0  0  0  0  0  0  0  0  0
   -2.4609   -5.2927   -3.5749 C   0  0  0  0  0  0  0  0  0  0  0  0
   -2.8048   -5.5022   -2.2329 C   0  0  0  0  0  0  0  0  0  0  0  0
   -2.4951   -4.5428   -1.2624 C   0  0  0  0  0  0  0  0  0  0  0  0
   -0.8927   -1.9094   -3.2396 C   0  0  0  0  0  0  0  0  0  0  0  0
   -0.7108   -1.1493   -1.7531 S   0  0  0  0  0  0  0  0  0  0  0  0
   -0.4336   -1.3114   -4.5070 C   0  0  0  0  0  0  0  0  0  0  0  0
    0.5943   -0.3767   -4.5940 C   0  0  0  0  0  0  0  0  0  0  0  0
    0.7625    0.1478   -5.8829 C   0  0  0  0  0  0  0  0  0  0  0  0
    1.7029    1.1265   -6.2652 C   0  0  0  0  0  0  0  0  0  0  0  0
    2.6003    1.7593   -5.2808 C   0  0  0  0  0  0  0  0  0  0  0  0
    2.0778    2.6537   -3.9535 S   0  0  0  0  0  0  0  0  0  0  0  0
    3.6044    2.9271   -3.3064 C   0  0  0  0  0  0  0  0  0  0  0  0
    3.8705    3.7226   -2.0641 C   0  0  0  0  0  0  0  0  0  0  0  0
    4.0799    5.1938   -2.3987 C   0  0  0  0  0  0  0  0  0  0  0  0
    4.5541    2.3372   -4.1397 C   0  0  0  0  0  0  0  0  0  0  0  0
    6.2859    2.4000   -3.8365 Cl  0  0  0  0  0  0  0  0  0  0  0  0
    3.9906    1.6731   -5.2426 C   0  0  0  0  0  0  0  0  0  0  0  0
    4.9428    0.7617   -6.4068 Cl  0  0  0  0  0  0  0  0  0  0  0  0
    1.7048    1.5082   -7.6178 C   0  0  0  0  0  0  0  0  0  0  0  0
    0.8103    0.9752   -8.5518 C   0  0  0  0  0  0  0  0  0  0  0  0
   -0.1517    0.0202   -8.1602 C   0  0  0  0  0  0  0  0  0  0  0  0
   -1.1833   -0.4710   -9.0925 C   0  0  0  0  0  0  0  0  0  0  0  0
   -1.3868   -2.0755   -9.5565 S   0  0  0  0  0  0  0  0  0  0  0  0
   -2.7220   -1.8060  -10.5467 C   0  0  0  0  0  0  0  0  0  0  0  0
   -3.4238   -2.8623  -11.3453 C   0  0  0  0  0  0  0  0  0  0  0  0
   -2.9008   -2.8954  -12.7767 C   0  0  0  0  0  0  0  0  0  0  0  0
   -3.0233   -0.4451  -10.5325 C   0  0  0  0  0  0  0  0  0  0  0  0
   -2.1633    0.3032   -9.7137 C   0  0  0  0  0  0  0  0  0  0  0  0
   -2.3508    2.0328   -9.4500 Cl  0  0  0  0  0  0  0  0  0  0  0  0
   -4.3495    0.2687  -11.4413 Cl  0  0  0  0  0  0  0  0  0  0  0  0
   -0.1317   -0.3871   -6.8147 C   0  0  0  0  0  0  0  0  0  0  0  0
   -1.1482   -1.4787   -6.0301 S   0  0  0  0  0  0  0  0  0  0  0  0
    0.9996    1.4821   -9.8474 C   0  0  0  0  0  0  0  0  0  0  0  0
    2.0105    2.4409   -9.9165 C   0  0  0  0  0  0  0  0  0  0  0  0
    2.6970    2.6294   -8.3854 S   0  0  0  0  0  0  0  0  0  0  0  0
    2.5039    3.1018  -11.1356 C   0  0  0  0  0  0  0  0  0  0  0  0
    1.7837    3.4756  -12.2756 C   0  0  0  0  0  0  0  0  0  0  0  0
    2.5976    4.0063  -13.2957 C   0  0  0  0  0  0  0  0  0  0  0  0
    2.0433    4.4281  -14.5068 C   0  0  0  0  0  0  0  0  0  0  0  0
    0.6574    4.3300  -14.6921 C   0  0  0  0  0  0  0  0  0  0  0  0
   -0.1633    3.8404  -13.6646 C   0  0  0  0  0  0  0  0  0  0  0  0
    0.3928    3.4173  -12.4484 C   0  0  0  0  0  0  0  0  0  0  0  0
    3.9482    4.0775  -12.9756 C   0  0  0  0  0  0  0  0  0  0  0  0
    4.1243    3.4697  -11.4174 S   0  0  0  0  0  0  0  0  0  0  0  0
   -0.5445   -3.0044   16.1802 H   0  0  0  0  0  0  0  0  0  0  0  0
    2.0833   -2.7817   11.3076 H   0  0  0  0  0  0  0  0  0  0  0  0
    3.7401   -4.3912   12.1918 H   0  0  0  0  0  0  0  0  0  0  0  0
    3.5429   -5.2562   14.5071 H   0  0  0  0  0  0  0  0  0  0  0  0
    1.6726   -4.5241   15.9653 H   0  0  0  0  0  0  0  0  0  0  0  0
   -1.8737    1.8141    8.4902 H   0  0  0  0  0  0  0  0  0  0  0  0
   -2.1104    3.5631   10.1877 H   0  0  0  0  0  0  0  0  0  0  0  0
   -1.4987    3.1262   12.5455 H   0  0  0  0  0  0  0  0  0  0  0  0
   -0.6609    0.9117   13.2335 H   0  0  0  0  0  0  0  0  0  0  0  0
   -1.1612   -3.0484    7.3554 H   0  0  0  0  0  0  0  0  0  0  0  0
    1.0703   -7.8430    6.0339 H   0  0  0  0  0  0  0  0  0  0  0  0
   -0.4393   -8.7899    5.8393 H   0  0  0  0  0  0  0  0  0  0  0  0
    0.3334   -8.7633    8.2153 H   0  0  0  0  0  0  0  0  0  0  0  0
    0.2436   -6.9601    8.2408 H   0  0  0  0  0  0  0  0  0  0  0  0
   -1.2664   -7.9433    8.0526 H   0  0  0  0  0  0  0  0  0  0  0  0
   -2.6754    5.2777    3.4319 H   0  0  0  0  0  0  0  0  0  0  0  0
   -1.1339    5.7852    2.6577 H   0  0  0  0  0  0  0  0  0  0  0  0
   -1.9610    4.9012    0.4470 H   0  0  0  0  0  0  0  0  0  0  0  0
   -3.5130    4.4062    1.2364 H   0  0  0  0  0  0  0  0  0  0  0  0
   -3.0647    6.1524    1.1309 H   0  0  0  0  0  0  0  0  0  0  0  0
   -1.3658   -0.0631    0.8988 H   0  0  0  0  0  0  0  0  0  0  0  0
   -1.5528   -3.9831   -5.0062 H   0  0  0  0  0  0  0  0  0  0  0  0
   -2.6953   -6.0489   -4.3142 H   0  0  0  0  0  0  0  0  0  0  0  0
   -3.3114   -6.4130   -1.9451 H   0  0  0  0  0  0  0  0  0  0  0  0
   -2.7910   -4.7227   -0.2415 H   0  0  0  0  0  0  0  0  0  0  0  0
    1.1954   -0.0855   -3.7433 H   0  0  0  0  0  0  0  0  0  0  0  0
    3.0074    3.6246   -1.3717 H   0  0  0  0  0  0  0  0  0  0  0  0
    4.7674    3.3262   -1.5432 H   0  0  0  0  0  0  0  0  0  0  0  0
    3.1705    5.6112   -2.8820 H   0  0  0  0  0  0  0  0  0  0  0  0
    4.2804    5.7618   -1.4656 H   0  0  0  0  0  0  0  0  0  0  0  0
    4.9467    5.3157   -3.0844 H   0  0  0  0  0  0  0  0  0  0  0  0
   -4.5184   -2.6646  -11.3552 H   0  0  0  0  0  0  0  0  0  0  0  0
   -3.2632   -3.8555  -10.8727 H   0  0  0  0  0  0  0  0  0  0  0  0
   -3.0443   -1.9068  -13.2654 H   0  0  0  0  0  0  0  0  0  0  0  0
   -3.4568   -3.6610  -13.3586 H   0  0  0  0  0  0  0  0  0  0  0  0
   -1.8201   -3.1552  -12.7871 H   0  0  0  0  0  0  0  0  0  0  0  0
    0.4513    1.1304  -10.7104 H   0  0  0  0  0  0  0  0  0  0  0  0
    2.6694    4.8282  -15.2943 H   0  0  0  0  0  0  0  0  0  0  0  0
    0.2172    4.6543  -15.6266 H   0  0  0  0  0  0  0  0  0  0  0  0
   -1.2351    3.7963  -13.8077 H   0  0  0  0  0  0  0  0  0  0  0  0
   -0.2626    3.0853  -11.6579 H   0  0  0  0  0  0  0  0  0  0  0  0
    4.7401    4.4573  -13.6081 H   0  0  0  0  0  0  0  0  0  0  0  0
  1  2  2  0
  2  3  1  0
  3  4  1  0
  4  5  2  0
  5  6  1  0
  6  7  2  0
  3  8  2  0
  8  9  1  0
  8 10  1  0
 10 11  2  0
 11 12  1  0
 12 13  1  0
 13 14  2  0
 14 15  1  0
 15 16  2  0
 12 17  2  0
 17 18  1  0
 17 19  1  0
 19 20  2  0
 20 21  1  0
 21 22  2  0
 22 23  1  0
 23 24  1  0
 24 25  1  0
 25 26  1  0
 26 27  1  0
 25 28  2  0
 28 29  1  0
 28 30  1  0
 30 31  1  0
 22 32  1  0
 32 33  2  0
 33 34  1  0
 34 35  1  0
 35 36  1  0
 36 37  1  0
 37 38  1  0
 38 39  1  0
 37 40  2  0
 40 41  1  0
 41 42  1  0
 40 43  1  0
 34 44  2  0
 44 45  1  0
 33 46  1  0
 46 47  2  0
 47 48  1  0
 47 49  1  0
 49 50  2  0
 50 51  1  0
 51 52  1  0
 52 53  2  0
 53 54  1  0
 54 55  2  0
 51 56  2  0
 56 57  1  0
 56 58  1  0
 58 59  2  0
 59 60  1  0
 60 61  2  0
 61 62  1  0
 62 63  1  0
 63 64  1  0
 64 65  1  0
 65 66  1  0
 64 67  2  0
 67 68  1  0
 67 69  1  0
 69 70  1  0
 61 71  1  0
 71 72  2  0
 72 73  1  0
 73 74  1  0
 74 75  1  0
 75 76  1  0
 76 77  1  0
 77 78  1  0
 76 79  2  0
 79 80  1  0
 80 81  1  0
 79 82  1  0
 73 83  2  0
 83 84  1  0
 72 85  1  0
 85 86  2  0
 86 87  1  0
 86 88  1  0
 88 89  2  0
 89 90  1  0
 90 91  1  0
 91 92  2  0
 92 93  1  0
 93 94  2  0
 90 95  2  0
 95 96  1  0
  9  1  1  0
 18 10  1  0
 45 19  1  0
 57 49  1  0
 84 58  1  0
 96 88  1  0
  7  2  1  0
 16 11  1  0
 44 21  1  0
 55 50  1  0
 83 60  1  0
 94 89  1  0
 30 23  2  0
 48 32  1  0
 69 62  2  0
 87 71  1  0
 41 35  2  0
 80 74  2  0
  1 97  1  0
  4 98  1  0
  5 99  1  0
  6100  1  0
  7101  1  0
 13102  1  0
 14103  1  0
 15104  1  0
 16105  1  0
 20106  1  0
 26107  1  0
 26108  1  0
 27109  1  0
 27110  1  0
 27111  1  0
 38112  1  0
 38113  1  0
 39114  1  0
 39115  1  0
 39116  1  0
 46117  1  0
 52118  1  0
 53119  1  0
 54120  1  0
 55121  1  0
 59122  1  0
 65123  1  0
 65124  1  0
 66125  1  0
 66126  1  0
 66127  1  0
 77128  1  0
 77129  1  0
 78130  1  0
 78131  1  0
 78132  1  0
 85133  1  0
 91134  1  0
 92135  1  0
 93136  1  0
 94137  1  0
 95138  1  0
M  END

