
     RDKit          3D

196219  0  0  0  0  0  0  0  0999 V2000
    9.6265   -3.2010   13.8989 C   0  0  0  0  0  0  0  0  0  0  0  0
   10.1548   -2.7147   12.7060 C   0  0  0  0  0  0  0  0  0  0  0  0
    9.1965   -2.1043   11.8820 C   0  0  0  0  0  0  0  0  0  0  0  0
    9.4239   -1.5259   10.6171 C   0  0  0  0  0  0  0  0  0  0  0  0
   10.7516   -1.5490    9.9790 C   0  0  0  0  0  0  0  0  0  0  0  0
   11.5608   -2.9468    9.5093 S   0  0  0  0  0  0  0  0  0  0  0  0
   12.9077   -2.1700    8.8681 C   0  0  0  0  0  0  0  0  0  0  0  0
   14.0507   -2.8671    8.1945 C   0  0  0  0  0  0  0  0  0  0  0  0
   13.7351   -3.1252    6.7254 C   0  0  0  0  0  0  0  0  0  0  0  0
   12.7317   -0.7933    8.9964 C   0  0  0  0  0  0  0  0  0  0  0  0
   13.8946    0.3956    8.4186 Cl  0  0  0  0  0  0  0  0  0  0  0  0
   11.5279   -0.4454    9.6264 C   0  0  0  0  0  0  0  0  0  0  0  0
   11.0788    1.2183    9.9777 Cl  0  0  0  0  0  0  0  0  0  0  0  0
    8.3097   -0.9629    9.9696 C   0  0  0  0  0  0  0  0  0  0  0  0
    7.0281   -0.9667   10.5306 C   0  0  0  0  0  0  0  0  0  0  0  0
    6.8023   -1.5461   11.7941 C   0  0  0  0  0  0  0  0  0  0  0  0
    5.4625   -1.5822   12.4044 C   0  0  0  0  0  0  0  0  0  0  0  0
    4.1946   -2.5577   11.8830 S   0  0  0  0  0  0  0  0  0  0  0  0
    3.0940   -2.0582   13.0553 C   0  0  0  0  0  0  0  0  0  0  0  0
    1.7107   -2.6138   13.2213 C   0  0  0  0  0  0  0  0  0  0  0  0
    1.6994   -3.7432   14.2459 C   0  0  0  0  0  0  0  0  0  0  0  0
    3.7173   -1.1263   13.8846 C   0  0  0  0  0  0  0  0  0  0  0  0
    5.0456   -0.8613   13.5191 C   0  0  0  0  0  0  0  0  0  0  0  0
    6.0685    0.2886   14.3687 Cl  0  0  0  0  0  0  0  0  0  0  0  0
    2.9239   -0.3678   15.2598 Cl  0  0  0  0  0  0  0  0  0  0  0  0
    7.9146   -2.1029   12.4432 C   0  0  0  0  0  0  0  0  0  0  0  0
    7.9708   -2.8714   13.9382 S   0  0  0  0  0  0  0  0  0  0  0  0
    6.0637   -0.3585    9.7128 C   0  0  0  0  0  0  0  0  0  0  0  0
    6.5914    0.1262    8.5150 C   0  0  0  0  0  0  0  0  0  0  0  0
    8.2378   -0.2389    8.4503 S   0  0  0  0  0  0  0  0  0  0  0  0
    5.8390    0.7763    7.4300 C   0  0  0  0  0  0  0  0  0  0  0  0
    4.7294    1.6206    7.5279 C   0  0  0  0  0  0  0  0  0  0  0  0
    4.1796    1.9858    6.2757 C   0  0  0  0  0  0  0  0  0  0  0  0
    3.0145    2.7690    6.2329 C   0  0  0  0  0  0  0  0  0  0  0  0
    2.4531    3.2375    7.4262 C   0  0  0  0  0  0  0  0  0  0  0  0
    3.0405    2.9314    8.6591 C   0  0  0  0  0  0  0  0  0  0  0  0
    4.1814    2.1247    8.7162 C   0  0  0  0  0  0  0  0  0  0  0  0
    4.8864    1.4643    5.1786 C   0  0  0  0  0  0  0  0  0  0  0  0
    6.1495    0.5345    5.7960 S   0  0  0  0  0  0  0  0  0  0  0  0
    4.6266    1.6221    3.7285 C   0  0  0  0  0  0  0  0  0  0  0  0
    5.0710    0.7390    2.7414 C   0  0  0  0  0  0  0  0  0  0  0  0
    4.6172    1.0714    1.4542 C   0  0  0  0  0  0  0  0  0  0  0  0
    4.7875    0.3020    0.2863 C   0  0  0  0  0  0  0  0  0  0  0  0
    5.6038   -0.9205    0.2738 C   0  0  0  0  0  0  0  0  0  0  0  0
    7.2832   -0.9435    0.2764 S   0  0  0  0  0  0  0  0  0  0  0  0
    7.4373   -2.6179    0.1988 C   0  0  0  0  0  0  0  0  0  0  0  0
    8.7435   -3.3522    0.2157 C   0  0  0  0  0  0  0  0  0  0  0  0
    9.1976   -3.6051    1.6466 C   0  0  0  0  0  0  0  0  0  0  0  0
    6.1641   -3.1837    0.1983 C   0  0  0  0  0  0  0  0  0  0  0  0
    5.8713   -4.9187    0.1622 Cl  0  0  0  0  0  0  0  0  0  0  0  0
    5.1348   -2.2299    0.2260 C   0  0  0  0  0  0  0  0  0  0  0  0
    3.4262   -2.6481    0.2279 Cl  0  0  0  0  0  0  0  0  0  0  0  0
    4.1185    0.7406   -0.8688 C   0  0  0  0  0  0  0  0  0  0  0  0
    3.3469    1.9052   -0.8935 C   0  0  0  0  0  0  0  0  0  0  0  0
    3.1952    2.6879    0.2665 C   0  0  0  0  0  0  0  0  0  0  0  0
    2.2888    3.8457    0.3032 C   0  0  0  0  0  0  0  0  0  0  0  0
    0.6216    3.7551    0.0986 S   0  0  0  0  0  0  0  0  0  0  0  0
    0.3435    5.4116    0.1705 C   0  0  0  0  0  0  0  0  0  0  0  0
   -0.9920    6.0513   -0.0533 C   0  0  0  0  0  0  0  0  0  0  0  0
   -1.2613    6.2390   -1.5416 C   0  0  0  0  0  0  0  0  0  0  0  0
    1.5661    6.0630    0.3378 C   0  0  0  0  0  0  0  0  0  0  0  0
    2.6576    5.1820    0.4228 C   0  0  0  0  0  0  0  0  0  0  0  0
    4.3241    5.7152    0.5929 Cl  0  0  0  0  0  0  0  0  0  0  0  0
    1.7331    7.8132    0.4012 Cl  0  0  0  0  0  0  0  0  0  0  0  0
    3.8479    2.2374    1.4261 C   0  0  0  0  0  0  0  0  0  0  0  0
    3.7251    2.8456    2.9866 S   0  0  0  0  0  0  0  0  0  0  0  0
    2.7147    2.1234   -2.1263 C   0  0  0  0  0  0  0  0  0  0  0  0
    2.9496    1.1039   -3.0468 C   0  0  0  0  0  0  0  0  0  0  0  0
    3.9789   -0.0426   -2.3533 S   0  0  0  0  0  0  0  0  0  0  0  0
    2.1755    0.9029   -4.2785 C   0  0  0  0  0  0  0  0  0  0  0  0
    1.3968    1.8734   -4.9093 C   0  0  0  0  0  0  0  0  0  0  0  0
    0.4899    1.3332   -5.8375 C   0  0  0  0  0  0  0  0  0  0  0  0
   -0.5300    2.0415   -6.5005 C   0  0  0  0  0  0  0  0  0  0  0  0
   -0.6347    3.5075   -6.3974 C   0  0  0  0  0  0  0  0  0  0  0  0
    0.4689    4.5853   -7.0666 S   0  0  0  0  0  0  0  0  0  0  0  0
   -0.2637    5.9802   -6.4735 C   0  0  0  0  0  0  0  0  0  0  0  0
    0.1981    7.3750   -6.7705 C   0  0  0  0  0  0  0  0  0  0  0  0
   -0.4978    7.9177   -8.0144 C   0  0  0  0  0  0  0  0  0  0  0  0
   -1.3951    5.6162   -5.7470 C   0  0  0  0  0  0  0  0  0  0  0  0
   -2.4725    6.7746   -4.9780 Cl  0  0  0  0  0  0  0  0  0  0  0  0
   -1.5965    4.2269   -5.6908 C   0  0  0  0  0  0  0  0  0  0  0  0
   -2.8918    3.4777   -4.7686 Cl  0  0  0  0  0  0  0  0  0  0  0  0
   -1.4820    1.2790   -7.1990 C   0  0  0  0  0  0  0  0  0  0  0  0
   -1.4276   -0.1168   -7.2619 C   0  0  0  0  0  0  0  0  0  0  0  0
   -0.3797   -0.8220   -6.6374 C   0  0  0  0  0  0  0  0  0  0  0  0
   -0.3715   -2.2937   -6.5586 C   0  0  0  0  0  0  0  0  0  0  0  0
   -1.5253   -3.2101   -5.7431 S   0  0  0  0  0  0  0  0  0  0  0  0
   -0.7943   -4.6992   -6.0151 C   0  0  0  0  0  0  0  0  0  0  0  0
   -1.2906   -6.0024   -5.4610 C   0  0  0  0  0  0  0  0  0  0  0  0
   -0.6151   -6.3117   -4.1289 C   0  0  0  0  0  0  0  0  0  0  0  0
    0.3875   -4.4937   -6.7270 C   0  0  0  0  0  0  0  0  0  0  0  0
    0.6237   -3.1438   -7.0344 C   0  0  0  0  0  0  0  0  0  0  0  0
    2.0288   -2.5889   -7.9337 Cl  0  0  0  0  0  0  0  0  0  0  0  0
    1.4938   -5.7853   -7.1651 Cl  0  0  0  0  0  0  0  0  0  0  0  0
    0.5666   -0.0594   -5.9339 C   0  0  0  0  0  0  0  0  0  0  0  0
    1.7509   -0.6159   -4.8772 S   0  0  0  0  0  0  0  0  0  0  0  0
   -2.5542   -0.6857   -7.8751 C   0  0  0  0  0  0  0  0  0  0  0  0
   -3.5079    0.2550   -8.2631 C   0  0  0  0  0  0  0  0  0  0  0  0
   -2.9292    1.7972   -7.8841 S   0  0  0  0  0  0  0  0  0  0  0  0
   -4.9369   -0.0677   -8.4313 C   0  0  0  0  0  0  0  0  0  0  0  0
   -5.9548    0.7600   -8.9096 C   0  0  0  0  0  0  0  0  0  0  0  0
   -7.2575    0.3685   -8.5082 C   0  0  0  0  0  0  0  0  0  0  0  0
   -8.3511    1.1943   -8.8123 C   0  0  0  0  0  0  0  0  0  0  0  0
   -8.1529    2.3447   -9.5883 C   0  0  0  0  0  0  0  0  0  0  0  0
   -6.8718    2.6900  -10.0345 C   0  0  0  0  0  0  0  0  0  0  0  0
   -5.7659    1.9075   -9.6893 C   0  0  0  0  0  0  0  0  0  0  0  0
   -7.2733   -0.8068   -7.7353 C   0  0  0  0  0  0  0  0  0  0  0  0
   -5.6750   -1.2935   -7.5531 S   0  0  0  0  0  0  0  0  0  0  0  0
   -8.3765   -1.4509   -6.9862 C   0  0  0  0  0  0  0  0  0  0  0  0
   -9.7526   -1.4115   -7.2403 C   0  0  0  0  0  0  0  0  0  0  0  0
  -10.5053   -2.1219   -6.2877 C   0  0  0  0  0  0  0  0  0  0  0  0
  -11.9094   -2.2422   -6.2457 C   0  0  0  0  0  0  0  0  0  0  0  0
  -12.7811   -1.5738   -7.2245 C   0  0  0  0  0  0  0  0  0  0  0  0
  -13.0050   -2.0767   -8.8129 S   0  0  0  0  0  0  0  0  0  0  0  0
  -14.1944   -0.9446   -9.1889 C   0  0  0  0  0  0  0  0  0  0  0  0
  -14.9324   -0.8872  -10.4919 C   0  0  0  0  0  0  0  0  0  0  0  0
  -16.2476   -1.6572  -10.4037 C   0  0  0  0  0  0  0  0  0  0  0  0
  -14.4471   -0.1692   -8.0590 C   0  0  0  0  0  0  0  0  0  0  0  0
  -15.6668    1.0964   -7.9998 Cl  0  0  0  0  0  0  0  0  0  0  0  0
  -13.6563   -0.5233   -6.9565 C   0  0  0  0  0  0  0  0  0  0  0  0
  -13.7593    0.2762   -5.3922 Cl  0  0  0  0  0  0  0  0  0  0  0  0
  -12.4531   -3.0103   -5.2001 C   0  0  0  0  0  0  0  0  0  0  0  0
  -11.6632   -3.6446   -4.2394 C   0  0  0  0  0  0  0  0  0  0  0  0
  -10.2621   -3.5230   -4.2763 C   0  0  0  0  0  0  0  0  0  0  0  0
   -9.3884   -4.2265   -3.3202 C   0  0  0  0  0  0  0  0  0  0  0  0
   -8.3488   -3.4796   -2.2277 S   0  0  0  0  0  0  0  0  0  0  0  0
   -7.6910   -4.9003   -1.6079 C   0  0  0  0  0  0  0  0  0  0  0  0
   -6.5823   -4.9600   -0.6003 C   0  0  0  0  0  0  0  0  0  0  0  0
   -5.2232   -4.8868   -1.2873 C   0  0  0  0  0  0  0  0  0  0  0  0
   -8.2585   -5.9846   -2.2777 C   0  0  0  0  0  0  0  0  0  0  0  0
   -9.2175   -5.6060   -3.2309 C   0  0  0  0  0  0  0  0  0  0  0  0
  -10.0540   -6.7535   -4.2674 Cl  0  0  0  0  0  0  0  0  0  0  0  0
   -7.7934   -7.6543   -1.9929 Cl  0  0  0  0  0  0  0  0  0  0  0  0
   -9.7212   -2.7376   -5.3079 C   0  0  0  0  0  0  0  0  0  0  0  0
   -8.1116   -2.4017   -5.6151 S   0  0  0  0  0  0  0  0  0  0  0  0
  -12.4113   -4.3569   -3.2880 C   0  0  0  0  0  0  0  0  0  0  0  0
  -13.7818   -4.2901   -3.5111 C   0  0  0  0  0  0  0  0  0  0  0  0
  -14.0702   -3.3495   -4.8826 S   0  0  0  0  0  0  0  0  0  0  0  0
   10.1852   -3.7094   14.6732 H   0  0  0  0  0  0  0  0  0  0  0  0
   11.2027   -2.8050   12.4569 H   0  0  0  0  0  0  0  0  0  0  0  0
   14.2423   -3.8348    8.7061 H   0  0  0  0  0  0  0  0  0  0  0  0
   14.9737   -2.2537    8.2720 H   0  0  0  0  0  0  0  0  0  0  0  0
   12.8327   -3.7669    6.6349 H   0  0  0  0  0  0  0  0  0  0  0  0
   14.5890   -3.6472    6.2474 H   0  0  0  0  0  0  0  0  0  0  0  0
   13.5584   -2.1652    6.1938 H   0  0  0  0  0  0  0  0  0  0  0  0
    1.0182   -1.8094   13.5476 H   0  0  0  0  0  0  0  0  0  0  0  0
    1.3505   -3.0019   12.2443 H   0  0  0  0  0  0  0  0  0  0  0  0
    0.6687   -4.1397   14.3517 H   0  0  0  0  0  0  0  0  0  0  0  0
    2.3666   -4.5690   13.9141 H   0  0  0  0  0  0  0  0  0  0  0  0
    2.0404   -3.3727   15.2357 H   0  0  0  0  0  0  0  0  0  0  0  0
    5.0137   -0.3037    9.9697 H   0  0  0  0  0  0  0  0  0  0  0  0
    2.5164    3.0111    5.3113 H   0  0  0  0  0  0  0  0  0  0  0  0
    1.5576    3.8483    7.3948 H   0  0  0  0  0  0  0  0  0  0  0  0
    2.6043    3.3173    9.5719 H   0  0  0  0  0  0  0  0  0  0  0  0
    4.6307    1.9268    9.6776 H   0  0  0  0  0  0  0  0  0  0  0  0
    5.6526   -0.1486    2.9574 H   0  0  0  0  0  0  0  0  0  0  0  0
    9.5085   -2.7400   -0.3071 H   0  0  0  0  0  0  0  0  0  0  0  0
    8.6499   -4.3175   -0.3253 H   0  0  0  0  0  0  0  0  0  0  0  0
    9.3223   -2.6434    2.1900 H   0  0  0  0  0  0  0  0  0  0  0  0
   10.1739   -4.1380    1.6409 H   0  0  0  0  0  0  0  0  0  0  0  0
    8.4540   -4.2326    2.1831 H   0  0  0  0  0  0  0  0  0  0  0  0
   -1.0386    7.0318    0.4655 H   0  0  0  0  0  0  0  0  0  0  0  0
   -1.7824    5.4035    0.3840 H   0  0  0  0  0  0  0  0  0  0  0  0
   -0.4993    6.9047   -1.9961 H   0  0  0  0  0  0  0  0  0  0  0  0
   -1.2468    5.2570   -2.0636 H   0  0  0  0  0  0  0  0  0  0  0  0
   -2.2620    6.6952   -1.6773 H   0  0  0  0  0  0  0  0  0  0  0  0
    2.0397    2.9482   -2.3163 H   0  0  0  0  0  0  0  0  0  0  0  0
    1.4203    2.9207   -4.6399 H   0  0  0  0  0  0  0  0  0  0  0  0
    1.2960    7.3703   -6.9372 H   0  0  0  0  0  0  0  0  0  0  0  0
   -0.0140    8.0369   -5.9036 H   0  0  0  0  0  0  0  0  0  0  0  0
   -0.1721    8.9624   -8.1965 H   0  0  0  0  0  0  0  0  0  0  0  0
   -1.5992    7.9085   -7.8711 H   0  0  0  0  0  0  0  0  0  0  0  0
   -0.2398    7.2998   -8.9009 H   0  0  0  0  0  0  0  0  0  0  0  0
   -2.3900   -5.9458   -5.3095 H   0  0  0  0  0  0  0  0  0  0  0  0
   -1.0853   -6.8210   -6.1843 H   0  0  0  0  0  0  0  0  0  0  0  0
   -0.8143   -5.4988   -3.3992 H   0  0  0  0  0  0  0  0  0  0  0  0
    0.4794   -6.4154   -4.2736 H   0  0  0  0  0  0  0  0  0  0  0  0
   -1.0122   -7.2645   -3.7216 H   0  0  0  0  0  0  0  0  0  0  0  0
   -2.7280   -1.7519   -7.9407 H   0  0  0  0  0  0  0  0  0  0  0  0
   -9.3406    0.9947   -8.4421 H   0  0  0  0  0  0  0  0  0  0  0  0
   -8.9951    2.9791   -9.8305 H   0  0  0  0  0  0  0  0  0  0  0  0
   -6.7374    3.5767  -10.6408 H   0  0  0  0  0  0  0  0  0  0  0  0
   -4.7828    2.1918  -10.0373 H   0  0  0  0  0  0  0  0  0  0  0  0
  -10.1979   -0.9387   -8.1008 H   0  0  0  0  0  0  0  0  0  0  0  0
  -14.3042   -1.3317  -11.2918 H   0  0  0  0  0  0  0  0  0  0  0  0
  -15.1362    0.1688  -10.7635 H   0  0  0  0  0  0  0  0  0  0  0  0
  -16.0659   -2.7004  -10.0693 H   0  0  0  0  0  0  0  0  0  0  0  0
  -16.7307   -1.6835  -11.4034 H   0  0  0  0  0  0  0  0  0  0  0  0
  -16.9385   -1.1595   -9.6899 H   0  0  0  0  0  0  0  0  0  0  0  0
   -6.6828   -4.1126    0.1112 H   0  0  0  0  0  0  0  0  0  0  0  0
   -6.6547   -5.9035   -0.0184 H   0  0  0  0  0  0  0  0  0  0  0  0
   -5.0854   -3.8844   -1.7472 H   0  0  0  0  0  0  0  0  0  0  0  0
   -5.1347   -5.6709   -2.0683 H   0  0  0  0  0  0  0  0  0  0  0  0
   -4.4245   -5.0429   -0.5345 H   0  0  0  0  0  0  0  0  0  0  0  0
  -11.9792   -4.9012   -2.4575 H   0  0  0  0  0  0  0  0  0  0  0  0
  -14.5396   -4.7664   -2.9042 H   0  0  0  0  0  0  0  0  0  0  0  0
  1  2  2  0
  2  3  1  0
  3  4  2  0
  4  5  1  0
  5  6  1  0
  6  7  1  0
  7  8  1  0
  8  9  1  0
  7 10  2  0
 10 11  1  0
 10 12  1  0
 12 13  1  0
  4 14  1  0
 14 15  2  0
 15 16  1  0
 16 17  1  0
 17 18  1  0
 18 19  1  0
 19 20  1  0
 20 21  1  0
 19 22  2  0
 22 23  1  0
 23 24  1  0
 22 25  1  0
 16 26  2  0
 26 27  1  0
 15 28  1  0
 28 29  2  0
 29 30  1  0
 29 31  1  0
 31 32  2  0
 32 33  1  0
 33 34  1  0
 34 35  2  0
 35 36  1  0
 36 37  2  0
 33 38  2  0
 38 39  1  0
 38 40  1  0
 40 41  2  0
 41 42  1  0
 42 43  2  0
 43 44  1  0
 44 45  1  0
 45 46  1  0
 46 47  1  0
 47 48  1  0
 46 49  2  0
 49 50  1  0
 49 51  1  0
 51 52  1  0
 43 53  1  0
 53 54  2  0
 54 55  1  0
 55 56  1  0
 56 57  1  0
 57 58  1  0
 58 59  1  0
 59 60  1  0
 58 61  2  0
 61 62  1  0
 62 63  1  0
 61 64  1  0
 55 65  2  0
 65 66  1  0
 54 67  1  0
 67 68  2  0
 68 69  1  0
 68 70  1  0
 70 71  2  0
 71 72  1  0
 72 73  2  0
 73 74  1  0
 74 75  1  0
 75 76  1  0
 76 77  1  0
 77 78  1  0
 76 79  2  0
 79 80  1  0
 79 81  1  0
 81 82  1  0
 73 83  1  0
 83 84  2  0
 84 85  1  0
 85 86  1  0
 86 87  1  0
 87 88  1  0
 88 89  1  0
 89 90  1  0
 88 91  2  0
 91 92  1  0
 92 93  1  0
 91 94  1  0
 85 95  2  0
 95 96  1  0
 84 97  1  0
 97 98  2  0
 98 99  1  0
 98100  1  0
100101  2  0
101102  1  0
102103  1  0
103104  2  0
104105  1  0
105106  2  0
102107  2  0
107108  1  0
107109  1  0
109110  2  0
110111  1  0
111112  2  0
112113  1  0
113114  1  0
114115  1  0
115116  1  0
116117  1  0
115118  2  0
118119  1  0
118120  1  0
120121  1  0
112122  1  0
122123  2  0
123124  1  0
124125  1  0
125126  1  0
126127  1  0
127128  1  0
128129  1  0
127130  2  0
130131  1  0
131132  1  0
130133  1  0
124134  2  0
134135  1  0
123136  1  0
136137  2  0
137138  1  0
 27  1  1  0
 39 31  1  0
 66 40  1  0
 96 70  1  0
108100  1  0
135109  1  0
 26  3  1  0
 37 32  1  0
 65 42  1  0
 95 72  1  0
106101  1  0
134111  1  0
 12  5  2  0
 30 14  1  0
 51 44  2  0
 69 53  1  0
 81 74  2  0
 99 83  1  0
120113  2  0
138122  1  0
 23 17  2  0
 62 56  2  0
 92 86  2  0
131125  2  0
  1139  1  0
  2140  1  0
  8141  1  0
  8142  1  0
  9143  1  0
  9144  1  0
  9145  1  0
 20146  1  0
 20147  1  0
 21148  1  0
 21149  1  0
 21150  1  0
 28151  1  0
 34152  1  0
 35153  1  0
 36154  1  0
 37155  1  0
 41156  1  0
 47157  1  0
 47158  1  0
 48159  1  0
 48160  1  0
 48161  1  0
 59162  1  0
 59163  1  0
 60164  1  0
 60165  1  0
 60166  1  0
 67167  1  0
 71168  1  0
 77169  1  0
 77170  1  0
 78171  1  0
 78172  1  0
 78173  1  0
 89174  1  0
 89175  1  0
 90176  1  0
 90177  1  0
 90178  1  0
 97179  1  0
103180  1  0
104181  1  0
105182  1  0
106183  1  0
110184  1  0
116185  1  0
116186  1  0
117187  1  0
117188  1  0
117189  1  0
128190  1  0
128191  1  0
129192  1  0
129193  1  0
129194  1  0
136195  1  0
137196  1  0
M  END

