
     RDKit          3D

167187  0  0  0  0  0  0  0  0999 V2000
   10.4159   -9.2566    6.7509 C   0  0  0  0  0  0  0  0  0  0  0  0
    9.9057   -8.2587    7.5729 C   0  0  0  0  0  0  0  0  0  0  0  0
    8.6950   -7.7152    7.1045 C   0  0  0  0  0  0  0  0  0  0  0  0
    7.9271   -6.7186    7.7342 C   0  0  0  0  0  0  0  0  0  0  0  0
    8.3407   -6.1056    9.0026 C   0  0  0  0  0  0  0  0  0  0  0  0
    9.7383   -5.1912    9.2266 S   0  0  0  0  0  0  0  0  0  0  0  0
    9.5269   -4.9425   10.8767 C   0  0  0  0  0  0  0  0  0  0  0  0
   10.4273   -4.1055   11.7341 C   0  0  0  0  0  0  0  0  0  0  0  0
    9.9814   -2.6508   11.7317 C   0  0  0  0  0  0  0  0  0  0  0  0
    8.3441   -5.5670   11.2741 C   0  0  0  0  0  0  0  0  0  0  0  0
    7.7359   -5.5353   12.9222 Cl  0  0  0  0  0  0  0  0  0  0  0  0
    7.6867   -6.2275   10.2200 C   0  0  0  0  0  0  0  0  0  0  0  0
    6.2032   -7.1502   10.4310 Cl  0  0  0  0  0  0  0  0  0  0  0  0
    6.7213   -6.3512    7.1078 C   0  0  0  0  0  0  0  0  0  0  0  0
    6.2880   -6.9357    5.9141 C   0  0  0  0  0  0  0  0  0  0  0  0
    7.0543   -7.9382    5.2887 C   0  0  0  0  0  0  0  0  0  0  0  0
    6.6206   -8.5768    4.0342 C   0  0  0  0  0  0  0  0  0  0  0  0
    5.1962   -9.4563    3.8487 S   0  0  0  0  0  0  0  0  0  0  0  0
    5.4250   -9.8216    2.2243 C   0  0  0  0  0  0  0  0  0  0  0  0
    4.4378  -10.5670    1.3727 C   0  0  0  0  0  0  0  0  0  0  0  0
    3.4845   -9.5975    0.6836 C   0  0  0  0  0  0  0  0  0  0  0  0
    6.6161   -9.2339    1.7965 C   0  0  0  0  0  0  0  0  0  0  0  0
    7.2877   -8.5373    2.8150 C   0  0  0  0  0  0  0  0  0  0  0  0
    8.7780   -7.6410    2.5520 Cl  0  0  0  0  0  0  0  0  0  0  0  0
    7.2021   -9.3146    0.1423 Cl  0  0  0  0  0  0  0  0  0  0  0  0
    8.2613   -8.3007    5.9144 C   0  0  0  0  0  0  0  0  0  0  0  0
    9.3665   -9.4812    5.4516 S   0  0  0  0  0  0  0  0  0  0  0  0
    5.0844   -6.3893    5.4377 C   0  0  0  0  0  0  0  0  0  0  0  0
    4.5669   -5.3836    6.2560 C   0  0  0  0  0  0  0  0  0  0  0  0
    5.6217   -5.1558    7.5549 S   0  0  0  0  0  0  0  0  0  0  0  0
    3.3690   -4.5752    5.9268 C   0  0  0  0  0  0  0  0  0  0  0  0
    2.5599   -3.7955    6.7629 C   0  0  0  0  0  0  0  0  0  0  0  0
    1.5167   -3.1219    6.0822 C   0  0  0  0  0  0  0  0  0  0  0  0
    0.5987   -2.3377    6.7965 C   0  0  0  0  0  0  0  0  0  0  0  0
    0.7197   -2.2280    8.1845 C   0  0  0  0  0  0  0  0  0  0  0  0
    1.7392   -2.9082    8.8609 C   0  0  0  0  0  0  0  0  0  0  0  0
    2.6514   -3.6998    8.1597 C   0  0  0  0  0  0  0  0  0  0  0  0
    1.4801   -3.3834    4.7105 C   0  0  0  0  0  0  0  0  0  0  0  0
    2.7441   -4.4416    4.3675 S   0  0  0  0  0  0  0  0  0  0  0  0
    0.5193   -2.8987    3.7033 C   0  0  0  0  0  0  0  0  0  0  0  0
    0.0851   -3.6404    2.6062 C   0  0  0  0  0  0  0  0  0  0  0  0
   -0.7626   -2.9190    1.7511 C   0  0  0  0  0  0  0  0  0  0  0  0
   -1.3762   -3.4037    0.5797 C   0  0  0  0  0  0  0  0  0  0  0  0
   -1.3384   -4.8204    0.1960 C   0  0  0  0  0  0  0  0  0  0  0  0
    0.0416   -5.6978   -0.1956 S   0  0  0  0  0  0  0  0  0  0  0  0
   -0.7432   -7.1779   -0.3869 C   0  0  0  0  0  0  0  0  0  0  0  0
   -0.0623   -8.4547   -0.7697 C   0  0  0  0  0  0  0  0  0  0  0  0
    0.2057   -8.4942   -2.2662 C   0  0  0  0  0  0  0  0  0  0  0  0
   -2.1098   -6.9933   -0.1649 C   0  0  0  0  0  0  0  0  0  0  0  0
   -3.3012   -8.2800   -0.2748 Cl  0  0  0  0  0  0  0  0  0  0  0  0
   -2.4380   -5.6715    0.1706 C   0  0  0  0  0  0  0  0  0  0  0  0
   -4.0680   -5.1429    0.5516 Cl  0  0  0  0  0  0  0  0  0  0  0  0
   -2.1405   -2.4875   -0.1611 C   0  0  0  0  0  0  0  0  0  0  0  0
   -2.3655   -1.1803    0.2684 C   0  0  0  0  0  0  0  0  0  0  0  0
   -1.8301   -0.7228    1.4868 C   0  0  0  0  0  0  0  0  0  0  0  0
   -2.1823    0.5947    2.0389 C   0  0  0  0  0  0  0  0  0  0  0  0
   -1.1021    1.8409    2.3723 S   0  0  0  0  0  0  0  0  0  0  0  0
   -2.2553    2.9191    2.9642 C   0  0  0  0  0  0  0  0  0  0  0  0
   -1.9553    4.2711    3.5317 C   0  0  0  0  0  0  0  0  0  0  0  0
   -1.7736    4.1976    5.0429 C   0  0  0  0  0  0  0  0  0  0  0  0
   -3.5023    2.3018    2.9287 C   0  0  0  0  0  0  0  0  0  0  0  0
   -3.4611    1.0021    2.4056 C   0  0  0  0  0  0  0  0  0  0  0  0
   -4.8785   -0.0271    2.2854 Cl  0  0  0  0  0  0  0  0  0  0  0  0
   -4.9787    3.0587    3.5072 Cl  0  0  0  0  0  0  0  0  0  0  0  0
   -0.9953   -1.6110    2.1850 C   0  0  0  0  0  0  0  0  0  0  0  0
   -0.1518   -1.3512    3.6188 S   0  0  0  0  0  0  0  0  0  0  0  0
   -3.0448   -0.3978   -0.6756 C   0  0  0  0  0  0  0  0  0  0  0  0
   -3.3265   -1.0793   -1.8567 C   0  0  0  0  0  0  0  0  0  0  0  0
   -2.7562   -2.6612   -1.7193 S   0  0  0  0  0  0  0  0  0  0  0  0
   -3.5019   -0.3728   -3.1246 C   0  0  0  0  0  0  0  0  0  0  0  0
   -2.4756    0.3841   -3.6876 C   0  0  0  0  0  0  0  0  0  0  0  0
   -2.9399    1.3637   -4.5760 C   0  0  0  0  0  0  0  0  0  0  0  0
   -2.1504    2.3613   -5.1723 C   0  0  0  0  0  0  0  0  0  0  0  0
   -0.6824    2.2511   -5.2236 C   0  0  0  0  0  0  0  0  0  0  0  0
    0.4211    3.3538   -4.5893 S   0  0  0  0  0  0  0  0  0  0  0  0
    1.8054    2.5398   -5.1092 C   0  0  0  0  0  0  0  0  0  0  0  0
    3.2088    2.9401   -4.7895 C   0  0  0  0  0  0  0  0  0  0  0  0
    3.6226    2.3798   -3.4318 C   0  0  0  0  0  0  0  0  0  0  0  0
    1.4101    1.3839   -5.7821 C   0  0  0  0  0  0  0  0  0  0  0  0
    2.5348    0.2241   -6.4731 Cl  0  0  0  0  0  0  0  0  0  0  0  0
    0.0195    1.2295   -5.8508 C   0  0  0  0  0  0  0  0  0  0  0  0
   -0.7605   -0.0965   -6.6933 Cl  0  0  0  0  0  0  0  0  0  0  0  0
   -2.8328    3.3935   -5.8330 C   0  0  0  0  0  0  0  0  0  0  0  0
   -4.2166    3.3865   -6.0076 C   0  0  0  0  0  0  0  0  0  0  0  0
   -4.9969    2.3286   -5.4913 C   0  0  0  0  0  0  0  0  0  0  0  0
   -6.4191    2.1549   -5.8369 C   0  0  0  0  0  0  0  0  0  0  0  0
   -7.6419    3.2863   -5.5902 S   0  0  0  0  0  0  0  0  0  0  0  0
   -8.8206    2.4682   -6.4682 C   0  0  0  0  0  0  0  0  0  0  0  0
  -10.2052    2.9903   -6.7228 C   0  0  0  0  0  0  0  0  0  0  0  0
  -11.2305    2.2522   -5.8641 C   0  0  0  0  0  0  0  0  0  0  0  0
   -8.2764    1.2822   -6.9569 C   0  0  0  0  0  0  0  0  0  0  0  0
   -6.9289    1.1101   -6.6027 C   0  0  0  0  0  0  0  0  0  0  0  0
   -5.9435   -0.2403   -7.1526 Cl  0  0  0  0  0  0  0  0  0  0  0  0
   -9.1482    0.1618   -7.9901 Cl  0  0  0  0  0  0  0  0  0  0  0  0
   -4.3228    1.3592   -4.7344 C   0  0  0  0  0  0  0  0  0  0  0  0
   -4.9815    0.1605   -3.7466 S   0  0  0  0  0  0  0  0  0  0  0  0
   -4.6897    4.5236   -6.6936 C   0  0  0  0  0  0  0  0  0  0  0  0
   -3.6895    5.4525   -6.9975 C   0  0  0  0  0  0  0  0  0  0  0  0
   -2.2127    4.8120   -6.4877 S   0  0  0  0  0  0  0  0  0  0  0  0
   -3.9541    6.8220   -7.5018 C   0  0  0  0  0  0  0  0  0  0  0  0
   -3.0647    7.8857   -7.7614 C   0  0  0  0  0  0  0  0  0  0  0  0
   -3.7158    9.1048   -8.0651 C   0  0  0  0  0  0  0  0  0  0  0  0
   -2.9777   10.2724   -8.2900 C   0  0  0  0  0  0  0  0  0  0  0  0
   -1.5833   10.2224   -8.2408 C   0  0  0  0  0  0  0  0  0  0  0  0
   -0.9285    9.0160   -7.9708 C   0  0  0  0  0  0  0  0  0  0  0  0
   -1.6612    7.8456   -7.7317 C   0  0  0  0  0  0  0  0  0  0  0  0
   -5.1046    9.0183   -8.0596 C   0  0  0  0  0  0  0  0  0  0  0  0
   -5.5163    7.4391   -7.6724 S   0  0  0  0  0  0  0  0  0  0  0  0
   -6.0670   10.0981   -8.3357 C   0  0  0  0  0  0  0  0  0  0  0  0
   -7.1272   10.5143   -7.5299 C   0  0  0  0  0  0  0  0  0  0  0  0
   -7.8526   11.5916   -8.0774 C   0  0  0  0  0  0  0  0  0  0  0  0
   -8.9293   12.1458   -7.3881 C   0  0  0  0  0  0  0  0  0  0  0  0
   -9.2805   11.6278   -6.1357 C   0  0  0  0  0  0  0  0  0  0  0  0
   -8.5505   10.5671   -5.5757 C   0  0  0  0  0  0  0  0  0  0  0  0
   -7.4699   10.0036   -6.2732 C   0  0  0  0  0  0  0  0  0  0  0  0
   -7.3819   12.0305   -9.3051 C   0  0  0  0  0  0  0  0  0  0  0  0
   -6.0540   11.0769   -9.7115 S   0  0  0  0  0  0  0  0  0  0  0  0
   11.3296   -9.8073    6.9289 H   0  0  0  0  0  0  0  0  0  0  0  0
   10.3990   -7.9534    8.4870 H   0  0  0  0  0  0  0  0  0  0  0  0
   11.4700   -4.1726   11.3495 H   0  0  0  0  0  0  0  0  0  0  0  0
   10.4288   -4.4923   12.7763 H   0  0  0  0  0  0  0  0  0  0  0  0
    9.9681   -2.2474   10.6982 H   0  0  0  0  0  0  0  0  0  0  0  0
    8.9550   -2.5664   12.1530 H   0  0  0  0  0  0  0  0  0  0  0  0
   10.6753   -2.0435   12.3483 H   0  0  0  0  0  0  0  0  0  0  0  0
    4.9693  -11.1708    0.6113 H   0  0  0  0  0  0  0  0  0  0  0  0
    3.8493  -11.2575    2.0126 H   0  0  0  0  0  0  0  0  0  0  0  0
    4.0424   -8.9417   -0.0196 H   0  0  0  0  0  0  0  0  0  0  0  0
    2.9644   -8.9561    1.4295 H   0  0  0  0  0  0  0  0  0  0  0  0
    2.7242  -10.1652    0.1090 H   0  0  0  0  0  0  0  0  0  0  0  0
    4.6125   -6.6976    4.5132 H   0  0  0  0  0  0  0  0  0  0  0  0
   -0.2142   -1.8284    6.3073 H   0  0  0  0  0  0  0  0  0  0  0  0
    0.0109   -1.6292    8.7394 H   0  0  0  0  0  0  0  0  0  0  0  0
    1.8086   -2.8387    9.9392 H   0  0  0  0  0  0  0  0  0  0  0  0
    3.3847   -4.2553    8.7148 H   0  0  0  0  0  0  0  0  0  0  0  0
    0.3782   -4.6714    2.4407 H   0  0  0  0  0  0  0  0  0  0  0  0
    0.9014   -8.5285   -0.2219 H   0  0  0  0  0  0  0  0  0  0  0  0
   -0.6863   -9.3297   -0.4826 H   0  0  0  0  0  0  0  0  0  0  0  0
    0.7487   -9.4312   -2.5240 H   0  0  0  0  0  0  0  0  0  0  0  0
    0.8342   -7.6271   -2.5655 H   0  0  0  0  0  0  0  0  0  0  0  0
   -0.7549   -8.4632   -2.8323 H   0  0  0  0  0  0  0  0  0  0  0  0
   -2.7856    4.9686    3.2893 H   0  0  0  0  0  0  0  0  0  0  0  0
   -1.0239    4.6728    3.0723 H   0  0  0  0  0  0  0  0  0  0  0  0
   -0.8905    3.5737    5.2935 H   0  0  0  0  0  0  0  0  0  0  0  0
   -2.6754    3.7555    5.5223 H   0  0  0  0  0  0  0  0  0  0  0  0
   -1.6201    5.2186    5.4480 H   0  0  0  0  0  0  0  0  0  0  0  0
   -3.2183    0.6663   -0.5587 H   0  0  0  0  0  0  0  0  0  0  0  0
   -1.4464    0.3125   -3.3675 H   0  0  0  0  0  0  0  0  0  0  0  0
    3.2817    4.0506   -4.7736 H   0  0  0  0  0  0  0  0  0  0  0  0
    3.9043    2.5662   -5.5725 H   0  0  0  0  0  0  0  0  0  0  0  0
    4.6745    2.6518   -3.2161 H   0  0  0  0  0  0  0  0  0  0  0  0
    3.5328    1.2718   -3.4284 H   0  0  0  0  0  0  0  0  0  0  0  0
    2.9653    2.7938   -2.6338 H   0  0  0  0  0  0  0  0  0  0  0  0
  -10.2396    4.0718   -6.4746 H   0  0  0  0  0  0  0  0  0  0  0  0
  -10.4607    2.8753   -7.8000 H   0  0  0  0  0  0  0  0  0  0  0  0
  -11.2888    1.1855   -6.1620 H   0  0  0  0  0  0  0  0  0  0  0  0
  -12.2284    2.7172   -5.9986 H   0  0  0  0  0  0  0  0  0  0  0  0
  -10.9459    2.3212   -4.7945 H   0  0  0  0  0  0  0  0  0  0  0  0
   -5.7339    4.6924   -6.9190 H   0  0  0  0  0  0  0  0  0  0  0  0
   -3.4704   11.2188   -8.4786 H   0  0  0  0  0  0  0  0  0  0  0  0
   -1.0130   11.1186   -8.4173 H   0  0  0  0  0  0  0  0  0  0  0  0
    0.1528    8.9880   -7.9479 H   0  0  0  0  0  0  0  0  0  0  0  0
   -1.1147    6.9394   -7.5418 H   0  0  0  0  0  0  0  0  0  0  0  0
   -9.4886   12.9717   -7.8080 H   0  0  0  0  0  0  0  0  0  0  0  0
  -10.1171   12.0504   -5.5886 H   0  0  0  0  0  0  0  0  0  0  0  0
   -8.8170   10.1841   -4.5996 H   0  0  0  0  0  0  0  0  0  0  0  0
   -6.9104    9.1942   -5.8256 H   0  0  0  0  0  0  0  0  0  0  0  0
   -7.7805   12.8549   -9.8915 H   0  0  0  0  0  0  0  0  0  0  0  0
  1  2  2  0
  2  3  1  0
  3  4  2  0
  4  5  1  0
  5  6  1  0
  6  7  1  0
  7  8  1  0
  8  9  1  0
  7 10  2  0
 10 11  1  0
 10 12  1  0
 12 13  1  0
  4 14  1  0
 14 15  2  0
 15 16  1  0
 16 17  1  0
 17 18  1  0
 18 19  1  0
 19 20  1  0
 20 21  1  0
 19 22  2  0
 22 23  1  0
 23 24  1  0
 22 25  1  0
 16 26  2  0
 26 27  1  0
 15 28  1  0
 28 29  2  0
 29 30  1  0
 29 31  1  0
 31 32  2  0
 32 33  1  0
 33 34  1  0
 34 35  2  0
 35 36  1  0
 36 37  2  0
 33 38  2  0
 38 39  1  0
 38 40  1  0
 40 41  2  0
 41 42  1  0
 42 43  2  0
 43 44  1  0
 44 45  1  0
 45 46  1  0
 46 47  1  0
 47 48  1  0
 46 49  2  0
 49 50  1  0
 49 51  1  0
 51 52  1  0
 43 53  1  0
 53 54  2  0
 54 55  1  0
 55 56  1  0
 56 57  1  0
 57 58  1  0
 58 59  1  0
 59 60  1  0
 58 61  2  0
 61 62  1  0
 62 63  1  0
 61 64  1  0
 55 65  2  0
 65 66  1  0
 54 67  1  0
 67 68  2  0
 68 69  1  0
 68 70  1  0
 70 71  2  0
 71 72  1  0
 72 73  2  0
 73 74  1  0
 74 75  1  0
 75 76  1  0
 76 77  1  0
 77 78  1  0
 76 79  2  0
 79 80  1  0
 79 81  1  0
 81 82  1  0
 73 83  1  0
 83 84  2  0
 84 85  1  0
 85 86  1  0
 86 87  1  0
 87 88  1  0
 88 89  1  0
 89 90  1  0
 88 91  2  0
 91 92  1  0
 92 93  1  0
 91 94  1  0
 85 95  2  0
 95 96  1  0
 84 97  1  0
 97 98  2  0
 98 99  1  0
 98100  1  0
100101  2  0
101102  1  0
102103  1  0
103104  2  0
104105  1  0
105106  2  0
102107  2  0
107108  1  0
107109  1  0
109110  2  0
110111  1  0
111112  1  0
112113  2  0
113114  1  0
114115  2  0
111116  2  0
116117  1  0
 27  1  1  0
 39 31  1  0
 66 40  1  0
 96 70  1  0
108100  1  0
117109  1  0
 26  3  1  0
 37 32  1  0
 65 42  1  0
 95 72  1  0
106101  1  0
115110  1  0
 12  5  2  0
 30 14  1  0
 51 44  2  0
 69 53  1  0
 81 74  2  0
 99 83  1  0
 23 17  2  0
 62 56  2  0
 92 86  2  0
  1118  1  0
  2119  1  0
  8120  1  0
  8121  1  0
  9122  1  0
  9123  1  0
  9124  1  0
 20125  1  0
 20126  1  0
 21127  1  0
 21128  1  0
 21129  1  0
 28130  1  0
 34131  1  0
 35132  1  0
 36133  1  0
 37134  1  0
 41135  1  0
 47136  1  0
 47137  1  0
 48138  1  0
 48139  1  0
 48140  1  0
 59141  1  0
 59142  1  0
 60143  1  0
 60144  1  0
 60145  1  0
 67146  1  0
 71147  1  0
 77148  1  0
 77149  1  0
 78150  1  0
 78151  1  0
 78152  1  0
 89153  1  0
 89154  1  0
 90155  1  0
 90156  1  0
 90157  1  0
 97158  1  0
103159  1  0
104160  1  0
105161  1  0
106162  1  0
112163  1  0
113164  1  0
114165  1  0
115166  1  0
116167  1  0
M  END

