
     RDKit          3D

167187  0  0  0  0  0  0  0  0999 V2000
   12.8675   -9.7154    2.1924 C   0  0  0  0  0  0  0  0  0  0  0  0
   12.5215   -8.3712    2.3081 C   0  0  0  0  0  0  0  0  0  0  0  0
   11.2283   -8.1750    2.8182 C   0  0  0  0  0  0  0  0  0  0  0  0
   10.5756   -6.9368    2.9899 C   0  0  0  0  0  0  0  0  0  0  0  0
   11.2421   -5.6553    2.6993 C   0  0  0  0  0  0  0  0  0  0  0  0
   10.7936   -4.5966    1.4739 S   0  0  0  0  0  0  0  0  0  0  0  0
   11.9678   -3.4363    1.8044 C   0  0  0  0  0  0  0  0  0  0  0  0
   12.1770   -2.1887    1.0039 C   0  0  0  0  0  0  0  0  0  0  0  0
   13.1706   -2.4315   -0.1227 C   0  0  0  0  0  0  0  0  0  0  0  0
   12.7417   -3.8771    2.8753 C   0  0  0  0  0  0  0  0  0  0  0  0
   14.1051   -2.9739    3.5232 Cl  0  0  0  0  0  0  0  0  0  0  0  0
   12.3295   -5.1182    3.3845 C   0  0  0  0  0  0  0  0  0  0  0  0
   13.0854   -5.8932    4.7687 Cl  0  0  0  0  0  0  0  0  0  0  0  0
    9.2430   -6.9778    3.4322 C   0  0  0  0  0  0  0  0  0  0  0  0
    8.5847   -8.1773    3.7295 C   0  0  0  0  0  0  0  0  0  0  0  0
    9.2352   -9.4138    3.5554 C   0  0  0  0  0  0  0  0  0  0  0  0
    8.5243  -10.6924    3.7347 C   0  0  0  0  0  0  0  0  0  0  0  0
    7.2903  -11.2351    2.7316 S   0  0  0  0  0  0  0  0  0  0  0  0
    7.0328  -12.6913    3.5336 C   0  0  0  0  0  0  0  0  0  0  0  0
    6.0641  -13.7451    3.0873 C   0  0  0  0  0  0  0  0  0  0  0  0
    6.7487  -14.7524    2.1719 C   0  0  0  0  0  0  0  0  0  0  0  0
    7.9349  -12.7831    4.5933 C   0  0  0  0  0  0  0  0  0  0  0  0
    8.7708  -11.6587    4.7076 C   0  0  0  0  0  0  0  0  0  0  0  0
    9.9795  -11.4756    5.9709 Cl  0  0  0  0  0  0  0  0  0  0  0  0
    8.0321  -14.1697    5.6689 Cl  0  0  0  0  0  0  0  0  0  0  0  0
   10.5614   -9.3727    3.0953 C   0  0  0  0  0  0  0  0  0  0  0  0
   11.5698  -10.6619    2.7066 S   0  0  0  0  0  0  0  0  0  0  0  0
    7.2664   -7.9890    4.1703 C   0  0  0  0  0  0  0  0  0  0  0  0
    6.8920   -6.6484    4.1900 C   0  0  0  0  0  0  0  0  0  0  0  0
    8.1800   -5.6918    3.6698 S   0  0  0  0  0  0  0  0  0  0  0  0
    5.5352   -6.1639    4.4555 C   0  0  0  0  0  0  0  0  0  0  0  0
    4.7013   -6.5236    5.5143 C   0  0  0  0  0  0  0  0  0  0  0  0
    3.3927   -6.0197    5.3926 C   0  0  0  0  0  0  0  0  0  0  0  0
    2.4513   -6.2449    6.4039 C   0  0  0  0  0  0  0  0  0  0  0  0
    2.8213   -6.9977    7.5261 C   0  0  0  0  0  0  0  0  0  0  0  0
    4.1217   -7.5129    7.6397 C   0  0  0  0  0  0  0  0  0  0  0  0
    5.0698   -7.2767    6.6353 C   0  0  0  0  0  0  0  0  0  0  0  0
    3.1849   -5.2863    4.2231 C   0  0  0  0  0  0  0  0  0  0  0  0
    4.6415   -5.2301    3.3769 S   0  0  0  0  0  0  0  0  0  0  0  0
    1.9206   -4.7419    3.7098 C   0  0  0  0  0  0  0  0  0  0  0  0
    0.7255   -5.4309    3.4919 C   0  0  0  0  0  0  0  0  0  0  0  0
   -0.2656   -4.6568    2.8495 C   0  0  0  0  0  0  0  0  0  0  0  0
   -1.4891   -5.2437    2.4899 C   0  0  0  0  0  0  0  0  0  0  0  0
   -1.7197   -6.5920    2.7907 C   0  0  0  0  0  0  0  0  0  0  0  0
   -0.7333   -7.3584    3.4249 C   0  0  0  0  0  0  0  0  0  0  0  0
    0.5007   -6.7877    3.7612 C   0  0  0  0  0  0  0  0  0  0  0  0
    0.1512   -3.3552    2.5523 C   0  0  0  0  0  0  0  0  0  0  0  0
    1.7535   -3.2034    3.0528 S   0  0  0  0  0  0  0  0  0  0  0  0
   -0.5767   -2.3082    1.8161 C   0  0  0  0  0  0  0  0  0  0  0  0
   -1.9397   -2.0222    1.8998 C   0  0  0  0  0  0  0  0  0  0  0  0
   -2.3274   -0.9574    1.0697 C   0  0  0  0  0  0  0  0  0  0  0  0
   -3.6259   -0.4228    0.9493 C   0  0  0  0  0  0  0  0  0  0  0  0
   -4.7855   -1.0542    1.6064 C   0  0  0  0  0  0  0  0  0  0  0  0
   -5.3348   -2.6069    1.2665 S   0  0  0  0  0  0  0  0  0  0  0  0
   -6.6464   -2.5716    2.3177 C   0  0  0  0  0  0  0  0  0  0  0  0
   -7.6543   -3.6719    2.4567 C   0  0  0  0  0  0  0  0  0  0  0  0
   -8.7798   -3.5006    1.4432 C   0  0  0  0  0  0  0  0  0  0  0  0
   -6.6874   -1.3213    2.9352 C   0  0  0  0  0  0  0  0  0  0  0  0
   -7.9342   -0.8466    4.0828 Cl  0  0  0  0  0  0  0  0  0  0  0  0
   -5.6391   -0.4736    2.5445 C   0  0  0  0  0  0  0  0  0  0  0  0
   -5.3998    1.1343    3.2164 Cl  0  0  0  0  0  0  0  0  0  0  0  0
   -3.7818    0.6805    0.0913 C   0  0  0  0  0  0  0  0  0  0  0  0
   -2.7172    1.2214   -0.6401 C   0  0  0  0  0  0  0  0  0  0  0  0
   -1.4172    0.6945   -0.5081 C   0  0  0  0  0  0  0  0  0  0  0  0
   -0.2618    1.2967   -1.1927 C   0  0  0  0  0  0  0  0  0  0  0  0
    0.3398    2.8311   -0.8646 S   0  0  0  0  0  0  0  0  0  0  0  0
    1.5982    2.7721   -1.9805 C   0  0  0  0  0  0  0  0  0  0  0  0
    2.5267    3.9124   -2.2738 C   0  0  0  0  0  0  0  0  0  0  0  0
    1.9455    4.8143   -3.3555 C   0  0  0  0  0  0  0  0  0  0  0  0
    1.5486    1.5462   -2.6433 C   0  0  0  0  0  0  0  0  0  0  0  0
    0.5096    0.7142   -2.1958 C   0  0  0  0  0  0  0  0  0  0  0  0
    0.1815   -0.8736   -2.8771 Cl  0  0  0  0  0  0  0  0  0  0  0  0
    2.6578    1.0938   -3.9310 Cl  0  0  0  0  0  0  0  0  0  0  0  0
   -1.2606   -0.3973    0.3594 C   0  0  0  0  0  0  0  0  0  0  0  0
    0.1544   -1.2124    0.7597 S   0  0  0  0  0  0  0  0  0  0  0  0
   -3.1028    2.2725   -1.4864 C   0  0  0  0  0  0  0  0  0  0  0  0
   -4.4581    2.5747   -1.3853 C   0  0  0  0  0  0  0  0  0  0  0  0
   -5.1886    1.5289   -0.2796 S   0  0  0  0  0  0  0  0  0  0  0  0
   -5.1477    3.6403   -2.1154 C   0  0  0  0  0  0  0  0  0  0  0  0
   -4.9130    3.9974   -3.4402 C   0  0  0  0  0  0  0  0  0  0  0  0
   -5.6976    5.0847   -3.8556 C   0  0  0  0  0  0  0  0  0  0  0  0
   -5.6891    5.6776   -5.1327 C   0  0  0  0  0  0  0  0  0  0  0  0
   -4.9231    5.1021   -6.2517 C   0  0  0  0  0  0  0  0  0  0  0  0
   -3.6225    5.8446   -7.0174 S   0  0  0  0  0  0  0  0  0  0  0  0
   -3.3223    4.5955   -8.1080 C   0  0  0  0  0  0  0  0  0  0  0  0
   -2.1801    4.5673   -9.0755 C   0  0  0  0  0  0  0  0  0  0  0  0
   -0.9696    3.8801   -8.4569 C   0  0  0  0  0  0  0  0  0  0  0  0
   -4.2331    3.5659   -7.8704 C   0  0  0  0  0  0  0  0  0  0  0  0
   -4.2467    2.0535   -8.7648 Cl  0  0  0  0  0  0  0  0  0  0  0  0
   -5.1363    3.8548   -6.8360 C   0  0  0  0  0  0  0  0  0  0  0  0
   -6.4259    2.7633   -6.3473 Cl  0  0  0  0  0  0  0  0  0  0  0  0
   -6.4783    6.8262   -5.3037 C   0  0  0  0  0  0  0  0  0  0  0  0
   -7.2704    7.3578   -4.2801 C   0  0  0  0  0  0  0  0  0  0  0  0
   -7.3162    6.7353   -3.0161 C   0  0  0  0  0  0  0  0  0  0  0  0
   -8.1039    7.2919   -1.9021 C   0  0  0  0  0  0  0  0  0  0  0  0
   -7.7675    8.7498   -1.1336 S   0  0  0  0  0  0  0  0  0  0  0  0
   -8.9983    8.6381    0.0079 C   0  0  0  0  0  0  0  0  0  0  0  0
   -9.2276    9.6287    1.1094 C   0  0  0  0  0  0  0  0  0  0  0  0
   -8.5386    9.1791    2.3934 C   0  0  0  0  0  0  0  0  0  0  0  0
   -9.6802    7.4379   -0.1857 C   0  0  0  0  0  0  0  0  0  0  0  0
   -9.1806    6.6843   -1.2597 C   0  0  0  0  0  0  0  0  0  0  0  0
   -9.8676    5.1451   -1.7616 Cl  0  0  0  0  0  0  0  0  0  0  0  0
  -11.0198    6.9079    0.8228 Cl  0  0  0  0  0  0  0  0  0  0  0  0
   -6.5154    5.5954   -2.8406 C   0  0  0  0  0  0  0  0  0  0  0  0
   -6.2985    4.6767   -1.4460 S   0  0  0  0  0  0  0  0  0  0  0  0
   -7.9953    8.4937   -4.6746 C   0  0  0  0  0  0  0  0  0  0  0  0
   -7.7494    8.8602   -5.9974 C   0  0  0  0  0  0  0  0  0  0  0  0
   -6.6810    7.7541   -6.6927 S   0  0  0  0  0  0  0  0  0  0  0  0
   -8.3642    9.9875   -6.7167 C   0  0  0  0  0  0  0  0  0  0  0  0
   -8.6645   11.2630   -6.2320 C   0  0  0  0  0  0  0  0  0  0  0  0
   -9.2601   12.0979   -7.1961 C   0  0  0  0  0  0  0  0  0  0  0  0
   -9.6055   13.4158   -6.8858 C   0  0  0  0  0  0  0  0  0  0  0  0
   -9.3421   13.9040   -5.5992 C   0  0  0  0  0  0  0  0  0  0  0  0
   -8.7281   13.0831   -4.6399 C   0  0  0  0  0  0  0  0  0  0  0  0
   -8.3779   11.7630   -4.9538 C   0  0  0  0  0  0  0  0  0  0  0  0
   -9.4269   11.5079   -8.4428 C   0  0  0  0  0  0  0  0  0  0  0  0
   -8.8201    9.9415   -8.3401 S   0  0  0  0  0  0  0  0  0  0  0  0
   13.8060  -10.0906    1.8124 H   0  0  0  0  0  0  0  0  0  0  0  0
   13.1858   -7.5685    2.0118 H   0  0  0  0  0  0  0  0  0  0  0  0
   12.5509   -1.3748    1.6607 H   0  0  0  0  0  0  0  0  0  0  0  0
   11.2059   -1.8582    0.5742 H   0  0  0  0  0  0  0  0  0  0  0  0
   14.1460   -2.7808    0.2833 H   0  0  0  0  0  0  0  0  0  0  0  0
   12.7768   -3.1933   -0.8319 H   0  0  0  0  0  0  0  0  0  0  0  0
   13.3398   -1.4850   -0.6787 H   0  0  0  0  0  0  0  0  0  0  0  0
    5.6403  -14.2696    3.9692 H   0  0  0  0  0  0  0  0  0  0  0  0
    5.2217  -13.2654    2.5420 H   0  0  0  0  0  0  0  0  0  0  0  0
    6.0094  -15.5050    1.8275 H   0  0  0  0  0  0  0  0  0  0  0  0
    7.5624  -15.2781    2.7155 H   0  0  0  0  0  0  0  0  0  0  0  0
    7.1726  -14.2393    1.2825 H   0  0  0  0  0  0  0  0  0  0  0  0
    6.5913   -8.7955    4.4283 H   0  0  0  0  0  0  0  0  0  0  0  0
    1.4499   -5.8402    6.3354 H   0  0  0  0  0  0  0  0  0  0  0  0
    2.1014   -7.1790    8.3132 H   0  0  0  0  0  0  0  0  0  0  0  0
    4.3994   -8.0836    8.5159 H   0  0  0  0  0  0  0  0  0  0  0  0
    6.0767   -7.6578    6.7479 H   0  0  0  0  0  0  0  0  0  0  0  0
   -2.2461   -4.6964    1.9504 H   0  0  0  0  0  0  0  0  0  0  0  0
   -2.6585   -7.0509    2.5116 H   0  0  0  0  0  0  0  0  0  0  0  0
   -0.9160   -8.4041    3.6362 H   0  0  0  0  0  0  0  0  0  0  0  0
    1.2657   -7.4100    4.2013 H   0  0  0  0  0  0  0  0  0  0  0  0
   -2.6176   -2.5323    2.5712 H   0  0  0  0  0  0  0  0  0  0  0  0
   -7.1532   -4.6521    2.2919 H   0  0  0  0  0  0  0  0  0  0  0  0
   -8.0756   -3.6755    3.4850 H   0  0  0  0  0  0  0  0  0  0  0  0
   -8.3784   -3.5385    0.4079 H   0  0  0  0  0  0  0  0  0  0  0  0
   -9.5177   -4.3196    1.5679 H   0  0  0  0  0  0  0  0  0  0  0  0
   -9.2991   -2.5300    1.5986 H   0  0  0  0  0  0  0  0  0  0  0  0
    2.6847    4.5051   -1.3468 H   0  0  0  0  0  0  0  0  0  0  0  0
    3.5145    3.5232   -2.6028 H   0  0  0  0  0  0  0  0  0  0  0  0
    0.9736    5.2387   -3.0241 H   0  0  0  0  0  0  0  0  0  0  0  0
    1.7953    4.2427   -4.2957 H   0  0  0  0  0  0  0  0  0  0  0  0
    2.6485    5.6488   -3.5566 H   0  0  0  0  0  0  0  0  0  0  0  0
   -2.4245    2.8031   -2.1437 H   0  0  0  0  0  0  0  0  0  0  0  0
   -4.1996    3.4853   -4.0737 H   0  0  0  0  0  0  0  0  0  0  0  0
   -1.9068    5.6070   -9.3551 H   0  0  0  0  0  0  0  0  0  0  0  0
   -2.4792    4.0315  -10.0006 H   0  0  0  0  0  0  0  0  0  0  0  0
   -0.6460    4.4206   -7.5404 H   0  0  0  0  0  0  0  0  0  0  0  0
   -0.1301    3.8791   -9.1825 H   0  0  0  0  0  0  0  0  0  0  0  0
   -1.2128    2.8278   -8.1934 H   0  0  0  0  0  0  0  0  0  0  0  0
   -8.8269   10.6200    0.8054 H   0  0  0  0  0  0  0  0  0  0  0  0
  -10.3176    9.7462    1.2913 H   0  0  0  0  0  0  0  0  0  0  0  0
   -8.7073    9.9364    3.1875 H   0  0  0  0  0  0  0  0  0  0  0  0
   -8.9522    8.2066    2.7381 H   0  0  0  0  0  0  0  0  0  0  0  0
   -7.4453    9.0751    2.2276 H   0  0  0  0  0  0  0  0  0  0  0  0
   -8.7032    9.0057   -4.0360 H   0  0  0  0  0  0  0  0  0  0  0  0
  -10.0617   14.0584   -7.6273 H   0  0  0  0  0  0  0  0  0  0  0  0
   -9.6005   14.9240   -5.3469 H   0  0  0  0  0  0  0  0  0  0  0  0
   -8.5124   13.4751   -3.6550 H   0  0  0  0  0  0  0  0  0  0  0  0
   -7.8692   11.1636   -4.2117 H   0  0  0  0  0  0  0  0  0  0  0  0
   -9.8491   11.9735   -9.3242 H   0  0  0  0  0  0  0  0  0  0  0  0
  1  2  2  0
  2  3  1  0
  3  4  2  0
  4  5  1  0
  5  6  1  0
  6  7  1  0
  7  8  1  0
  8  9  1  0
  7 10  2  0
 10 11  1  0
 10 12  1  0
 12 13  1  0
  4 14  1  0
 14 15  2  0
 15 16  1  0
 16 17  1  0
 17 18  1  0
 18 19  1  0
 19 20  1  0
 20 21  1  0
 19 22  2  0
 22 23  1  0
 23 24  1  0
 22 25  1  0
 16 26  2  0
 26 27  1  0
 15 28  1  0
 28 29  2  0
 29 30  1  0
 29 31  1  0
 31 32  2  0
 32 33  1  0
 33 34  1  0
 34 35  2  0
 35 36  1  0
 36 37  2  0
 33 38  2  0
 38 39  1  0
 38 40  1  0
 40 41  2  0
 41 42  1  0
 42 43  1  0
 43 44  2  0
 44 45  1  0
 45 46  2  0
 42 47  2  0
 47 48  1  0
 47 49  1  0
 49 50  2  0
 50 51  1  0
 51 52  2  0
 52 53  1  0
 53 54  1  0
 54 55  1  0
 55 56  1  0
 56 57  1  0
 55 58  2  0
 58 59  1  0
 58 60  1  0
 60 61  1  0
 52 62  1  0
 62 63  2  0
 63 64  1  0
 64 65  1  0
 65 66  1  0
 66 67  1  0
 67 68  1  0
 68 69  1  0
 67 70  2  0
 70 71  1  0
 71 72  1  0
 70 73  1  0
 64 74  2  0
 74 75  1  0
 63 76  1  0
 76 77  2  0
 77 78  1  0
 77 79  1  0
 79 80  2  0
 80 81  1  0
 81 82  2  0
 82 83  1  0
 83 84  1  0
 84 85  1  0
 85 86  1  0
 86 87  1  0
 85 88  2  0
 88 89  1  0
 88 90  1  0
 90 91  1  0
 82 92  1  0
 92 93  2  0
 93 94  1  0
 94 95  1  0
 95 96  1  0
 96 97  1  0
 97 98  1  0
 98 99  1  0
 97100  2  0
100101  1  0
101102  1  0
100103  1  0
 94104  2  0
104105  1  0
 93106  1  0
106107  2  0
107108  1  0
107109  1  0
109110  2  0
110111  1  0
111112  1  0
112113  2  0
113114  1  0
114115  2  0
111116  2  0
116117  1  0
 27  1  1  0
 39 31  1  0
 48 40  1  0
 75 49  1  0
105 79  1  0
117109  1  0
 26  3  1  0
 37 32  1  0
 46 41  1  0
 74 51  1  0
104 81  1  0
115110  1  0
 12  5  2  0
 30 14  1  0
 60 53  2  0
 78 62  1  0
 90 83  2  0
108 92  1  0
 23 17  2  0
 71 65  2  0
101 95  2  0
  1118  1  0
  2119  1  0
  8120  1  0
  8121  1  0
  9122  1  0
  9123  1  0
  9124  1  0
 20125  1  0
 20126  1  0
 21127  1  0
 21128  1  0
 21129  1  0
 28130  1  0
 34131  1  0
 35132  1  0
 36133  1  0
 37134  1  0
 43135  1  0
 44136  1  0
 45137  1  0
 46138  1  0
 50139  1  0
 56140  1  0
 56141  1  0
 57142  1  0
 57143  1  0
 57144  1  0
 68145  1  0
 68146  1  0
 69147  1  0
 69148  1  0
 69149  1  0
 76150  1  0
 80151  1  0
 86152  1  0
 86153  1  0
 87154  1  0
 87155  1  0
 87156  1  0
 98157  1  0
 98158  1  0
 99159  1  0
 99160  1  0
 99161  1  0
106162  1  0
112163  1  0
113164  1  0
114165  1  0
115166  1  0
116167  1  0
M  END

