
     RDKit          3D

196219  0  0  0  0  0  0  0  0999 V2000
    3.2810   -8.1070   10.8986 C   0  0  0  0  0  0  0  0  0  0  0  0
    3.6443   -7.8672    9.5763 C   0  0  0  0  0  0  0  0  0  0  0  0
    3.2957   -6.5799    9.1343 C   0  0  0  0  0  0  0  0  0  0  0  0
    3.5136   -6.0502    7.8463 C   0  0  0  0  0  0  0  0  0  0  0  0
    4.1944   -6.8147    6.7843 C   0  0  0  0  0  0  0  0  0  0  0  0
    3.5076   -7.2239    5.3002 S   0  0  0  0  0  0  0  0  0  0  0  0
    4.8848   -7.9419    4.6546 C   0  0  0  0  0  0  0  0  0  0  0  0
    4.9788   -8.5104    3.2712 C   0  0  0  0  0  0  0  0  0  0  0  0
    5.1756   -7.4051    2.2383 C   0  0  0  0  0  0  0  0  0  0  0  0
    5.9172   -7.8467    5.5901 C   0  0  0  0  0  0  0  0  0  0  0  0
    7.5497   -8.4301    5.3015 Cl  0  0  0  0  0  0  0  0  0  0  0  0
    5.5271   -7.2192    6.7851 C   0  0  0  0  0  0  0  0  0  0  0  0
    6.6345   -6.9080    8.1154 Cl  0  0  0  0  0  0  0  0  0  0  0  0
    3.0596   -4.7406    7.6113 C   0  0  0  0  0  0  0  0  0  0  0  0
    2.4392   -3.9650    8.5987 C   0  0  0  0  0  0  0  0  0  0  0  0
    2.1983   -4.5037    9.8775 C   0  0  0  0  0  0  0  0  0  0  0  0
    1.4615   -3.7551   10.9106 C   0  0  0  0  0  0  0  0  0  0  0  0
    2.0384   -2.3966   11.7188 S   0  0  0  0  0  0  0  0  0  0  0  0
    0.6698   -2.1674   12.6741 C   0  0  0  0  0  0  0  0  0  0  0  0
    0.4953   -1.0644   13.6735 C   0  0  0  0  0  0  0  0  0  0  0  0
   -0.1338    0.1652   13.0321 C   0  0  0  0  0  0  0  0  0  0  0  0
   -0.2715   -3.1411   12.3463 C   0  0  0  0  0  0  0  0  0  0  0  0
    0.1755   -4.0370   11.3619 C   0  0  0  0  0  0  0  0  0  0  0  0
   -0.8094   -5.3498   10.7294 Cl  0  0  0  0  0  0  0  0  0  0  0  0
   -1.8714   -3.2285   13.0724 Cl  0  0  0  0  0  0  0  0  0  0  0  0
    2.6464   -5.8162   10.1115 C   0  0  0  0  0  0  0  0  0  0  0  0
    2.5165   -6.7342   11.5173 S   0  0  0  0  0  0  0  0  0  0  0  0
    2.0748   -2.6836    8.1437 C   0  0  0  0  0  0  0  0  0  0  0  0
    2.3961   -2.4819    6.8015 C   0  0  0  0  0  0  0  0  0  0  0  0
    3.1263   -3.8663    6.1792 S   0  0  0  0  0  0  0  0  0  0  0  0
    2.0463   -1.3118    5.9977 C   0  0  0  0  0  0  0  0  0  0  0  0
    2.1856    0.0261    6.3733 C   0  0  0  0  0  0  0  0  0  0  0  0
    1.7951    0.9157    5.3533 C   0  0  0  0  0  0  0  0  0  0  0  0
    1.8380    2.3293    5.3975 C   0  0  0  0  0  0  0  0  0  0  0  0
    2.4334    3.0591    6.5343 C   0  0  0  0  0  0  0  0  0  0  0  0
    1.6378    4.2100    7.4695 S   0  0  0  0  0  0  0  0  0  0  0  0
    2.9444    4.5609    8.4709 C   0  0  0  0  0  0  0  0  0  0  0  0
    2.9334    5.5951    9.5545 C   0  0  0  0  0  0  0  0  0  0  0  0
    3.3671    6.9546    9.0165 C   0  0  0  0  0  0  0  0  0  0  0  0
    4.0380    3.8019    8.0588 C   0  0  0  0  0  0  0  0  0  0  0  0
    5.6269    3.9050    8.8021 Cl  0  0  0  0  0  0  0  0  0  0  0  0
    3.7506    2.9546    6.9764 C   0  0  0  0  0  0  0  0  0  0  0  0
    4.9634    1.9378    6.2025 Cl  0  0  0  0  0  0  0  0  0  0  0  0
    1.3216    3.0141    4.2797 C   0  0  0  0  0  0  0  0  0  0  0  0
    0.8112    2.3432    3.1642 C   0  0  0  0  0  0  0  0  0  0  0  0
    0.7930    0.9367    3.1090 C   0  0  0  0  0  0  0  0  0  0  0  0
    0.2220    0.2110    1.9580 C   0  0  0  0  0  0  0  0  0  0  0  0
    1.1024   -0.7295    0.8721 S   0  0  0  0  0  0  0  0  0  0  0  0
   -0.1924   -1.0886   -0.1437 C   0  0  0  0  0  0  0  0  0  0  0  0
   -0.1031   -1.9186   -1.3899 C   0  0  0  0  0  0  0  0  0  0  0  0
   -0.5822   -3.3442   -1.1361 C   0  0  0  0  0  0  0  0  0  0  0  0
   -1.3408   -0.4892    0.3717 C   0  0  0  0  0  0  0  0  0  0  0  0
   -1.1081    0.2414    1.5480 C   0  0  0  0  0  0  0  0  0  0  0  0
   -2.3764    1.0994    2.4173 Cl  0  0  0  0  0  0  0  0  0  0  0  0
   -2.9245   -0.6124   -0.3875 Cl  0  0  0  0  0  0  0  0  0  0  0  0
    1.3100    0.2560    4.2175 C   0  0  0  0  0  0  0  0  0  0  0  0
    1.4144   -1.4043    4.4382 S   0  0  0  0  0  0  0  0  0  0  0  0
    0.3704    3.2046    2.1550 C   0  0  0  0  0  0  0  0  0  0  0  0
    0.5136    4.5583    2.4630 C   0  0  0  0  0  0  0  0  0  0  0  0
    1.2227    4.6777    3.9955 S   0  0  0  0  0  0  0  0  0  0  0  0
    0.0716    5.6427    1.5523 C   0  0  0  0  0  0  0  0  0  0  0  0
   -0.0180    7.0352    1.7303 C   0  0  0  0  0  0  0  0  0  0  0  0
   -0.5933    7.7095    0.6211 C   0  0  0  0  0  0  0  0  0  0  0  0
   -0.8108    9.0901    0.6592 C   0  0  0  0  0  0  0  0  0  0  0  0
   -0.4226    9.8088    1.7957 C   0  0  0  0  0  0  0  0  0  0  0  0
    0.1582    9.1523    2.8900 C   0  0  0  0  0  0  0  0  0  0  0  0
    0.3578    7.7651    2.8694 C   0  0  0  0  0  0  0  0  0  0  0  0
   -0.9451    6.8631   -0.4300 C   0  0  0  0  0  0  0  0  0  0  0  0
   -0.5628    5.3034    0.0318 S   0  0  0  0  0  0  0  0  0  0  0  0
   -1.6606    7.1552   -1.6817 C   0  0  0  0  0  0  0  0  0  0  0  0
   -1.1594    7.8373   -2.7954 C   0  0  0  0  0  0  0  0  0  0  0  0
   -1.7929    7.4881   -4.0140 C   0  0  0  0  0  0  0  0  0  0  0  0
   -1.3799    8.0797   -5.2173 C   0  0  0  0  0  0  0  0  0  0  0  0
   -0.3225    8.9988   -5.1998 C   0  0  0  0  0  0  0  0  0  0  0  0
    0.3312    9.3117   -3.9981 C   0  0  0  0  0  0  0  0  0  0  0  0
   -0.0753    8.7232   -2.7934 C   0  0  0  0  0  0  0  0  0  0  0  0
   -2.7759    6.4976   -3.8835 C   0  0  0  0  0  0  0  0  0  0  0  0
   -2.8508    6.1207   -2.2483 S   0  0  0  0  0  0  0  0  0  0  0  0
   -3.2425    5.5305   -4.8985 C   0  0  0  0  0  0  0  0  0  0  0  0
   -2.4563    5.0525   -5.9543 C   0  0  0  0  0  0  0  0  0  0  0  0
   -2.8181    3.7633   -6.3864 C   0  0  0  0  0  0  0  0  0  0  0  0
   -2.0744    2.9568   -7.2731 C   0  0  0  0  0  0  0  0  0  0  0  0
   -0.9631    3.5067   -8.0779 C   0  0  0  0  0  0  0  0  0  0  0  0
    0.6408    2.9934   -8.0067 S   0  0  0  0  0  0  0  0  0  0  0  0
    1.2236    4.0520   -9.1754 C   0  0  0  0  0  0  0  0  0  0  0  0
    2.6637    4.1749   -9.5756 C   0  0  0  0  0  0  0  0  0  0  0  0
    3.3345    5.3163   -8.8207 C   0  0  0  0  0  0  0  0  0  0  0  0
    0.1668    4.8377   -9.6316 C   0  0  0  0  0  0  0  0  0  0  0  0
    0.3490    6.0914  -10.8517 Cl  0  0  0  0  0  0  0  0  0  0  0  0
   -1.0584    4.5362   -9.0147 C   0  0  0  0  0  0  0  0  0  0  0  0
   -2.5694    5.3427   -9.4262 Cl  0  0  0  0  0  0  0  0  0  0  0  0
   -2.4061    1.5896   -7.3170 C   0  0  0  0  0  0  0  0  0  0  0  0
   -3.4581    1.0430   -6.5702 C   0  0  0  0  0  0  0  0  0  0  0  0
   -4.2436    1.8653   -5.7375 C   0  0  0  0  0  0  0  0  0  0  0  0
   -5.2248    1.2992   -4.7967 C   0  0  0  0  0  0  0  0  0  0  0  0
   -4.8317    0.3117   -3.4906 S   0  0  0  0  0  0  0  0  0  0  0  0
   -6.3879    0.2232   -2.8587 C   0  0  0  0  0  0  0  0  0  0  0  0
   -6.7466   -0.4640   -1.5733 C   0  0  0  0  0  0  0  0  0  0  0  0
   -6.7752    0.5278   -0.4140 C   0  0  0  0  0  0  0  0  0  0  0  0
   -7.2378    0.9924   -3.6575 C   0  0  0  0  0  0  0  0  0  0  0  0
   -6.5839    1.5982   -4.7409 C   0  0  0  0  0  0  0  0  0  0  0  0
   -7.3923    2.6355   -5.9139 Cl  0  0  0  0  0  0  0  0  0  0  0  0
   -8.9583    1.1848   -3.3414 Cl  0  0  0  0  0  0  0  0  0  0  0  0
   -3.8943    3.2266   -5.6736 C   0  0  0  0  0  0  0  0  0  0  0  0
   -4.3971    4.3500   -4.5323 S   0  0  0  0  0  0  0  0  0  0  0  0
   -3.5345   -0.3568   -6.6557 C   0  0  0  0  0  0  0  0  0  0  0  0
   -2.5281   -0.9029   -7.4488 C   0  0  0  0  0  0  0  0  0  0  0  0
   -1.5562    0.3368   -8.0519 S   0  0  0  0  0  0  0  0  0  0  0  0
   -2.1355   -2.3125   -7.4184 C   0  0  0  0  0  0  0  0  0  0  0  0
   -2.9215   -3.3960   -7.8076 C   0  0  0  0  0  0  0  0  0  0  0  0
   -2.3170   -4.6330   -7.5104 C   0  0  0  0  0  0  0  0  0  0  0  0
   -2.8565   -5.9107   -7.7619 C   0  0  0  0  0  0  0  0  0  0  0  0
   -4.1181   -6.0947   -8.5043 C   0  0  0  0  0  0  0  0  0  0  0  0
   -5.4944   -6.8437   -7.8913 S   0  0  0  0  0  0  0  0  0  0  0  0
   -6.4255   -6.6776   -9.2813 C   0  0  0  0  0  0  0  0  0  0  0  0
   -7.8343   -7.1672   -9.4327 C   0  0  0  0  0  0  0  0  0  0  0  0
   -7.8718   -8.5178  -10.1382 C   0  0  0  0  0  0  0  0  0  0  0  0
   -5.6542   -6.0514  -10.2626 C   0  0  0  0  0  0  0  0  0  0  0  0
   -6.2316   -5.7140  -11.8872 Cl  0  0  0  0  0  0  0  0  0  0  0  0
   -4.3606   -5.7184   -9.8246 C   0  0  0  0  0  0  0  0  0  0  0  0
   -3.1562   -4.9641  -10.8638 Cl  0  0  0  0  0  0  0  0  0  0  0  0
   -2.1284   -7.0148   -7.2819 C   0  0  0  0  0  0  0  0  0  0  0  0
   -0.9146   -6.8804   -6.6041 C   0  0  0  0  0  0  0  0  0  0  0  0
   -0.3559   -5.6048   -6.3794 C   0  0  0  0  0  0  0  0  0  0  0  0
    0.8926   -5.4268   -5.6127 C   0  0  0  0  0  0  0  0  0  0  0  0
    1.1007   -5.8928   -4.0083 S   0  0  0  0  0  0  0  0  0  0  0  0
    2.7036   -5.3959   -3.8803 C   0  0  0  0  0  0  0  0  0  0  0  0
    3.5384   -5.5090   -2.6403 C   0  0  0  0  0  0  0  0  0  0  0  0
    3.3388   -4.3014   -1.7324 C   0  0  0  0  0  0  0  0  0  0  0  0
    3.0919   -4.8287   -5.0963 C   0  0  0  0  0  0  0  0  0  0  0  0
    2.0790   -4.8552   -6.0703 C   0  0  0  0  0  0  0  0  0  0  0  0
    2.3191   -4.2942   -7.7222 Cl  0  0  0  0  0  0  0  0  0  0  0  0
    4.7001   -4.1825   -5.3956 Cl  0  0  0  0  0  0  0  0  0  0  0  0
   -1.0834   -4.5026   -6.8568 C   0  0  0  0  0  0  0  0  0  0  0  0
   -0.7318   -2.8693   -6.6718 S   0  0  0  0  0  0  0  0  0  0  0  0
   -0.3530   -8.1132   -6.2344 C   0  0  0  0  0  0  0  0  0  0  0  0
   -1.1237   -9.2068   -6.6224 C   0  0  0  0  0  0  0  0  0  0  0  0
   -2.4950   -8.6505   -7.4293 S   0  0  0  0  0  0  0  0  0  0  0  0
    3.4534   -9.0279   11.4383 H   0  0  0  0  0  0  0  0  0  0  0  0
    4.1449   -8.6065    8.9626 H   0  0  0  0  0  0  0  0  0  0  0  0
    4.0436   -9.0636    3.0436 H   0  0  0  0  0  0  0  0  0  0  0  0
    5.8217   -9.2286    3.2029 H   0  0  0  0  0  0  0  0  0  0  0  0
    4.3033   -6.7185    2.2383 H   0  0  0  0  0  0  0  0  0  0  0  0
    5.2703   -7.8537    1.2275 H   0  0  0  0  0  0  0  0  0  0  0  0
    6.1005   -6.8307    2.4589 H   0  0  0  0  0  0  0  0  0  0  0  0
    1.4856   -0.7967   14.0964 H   0  0  0  0  0  0  0  0  0  0  0  0
   -0.1485   -1.4109   14.5102 H   0  0  0  0  0  0  0  0  0  0  0  0
    0.5294    0.5628   12.2350 H   0  0  0  0  0  0  0  0  0  0  0  0
   -1.1213   -0.0868   12.5920 H   0  0  0  0  0  0  0  0  0  0  0  0
   -0.2832    0.9487   13.8019 H   0  0  0  0  0  0  0  0  0  0  0  0
    1.5621   -1.9498    8.7487 H   0  0  0  0  0  0  0  0  0  0  0  0
    2.5706    0.3362    7.3369 H   0  0  0  0  0  0  0  0  0  0  0  0
    1.9086    5.6789    9.9752 H   0  0  0  0  0  0  0  0  0  0  0  0
    3.6130    5.2914   10.3783 H   0  0  0  0  0  0  0  0  0  0  0  0
    4.3762    6.8866    8.5573 H   0  0  0  0  0  0  0  0  0  0  0  0
    3.4067    7.6876    9.8488 H   0  0  0  0  0  0  0  0  0  0  0  0
    2.6391    7.3149    8.2583 H   0  0  0  0  0  0  0  0  0  0  0  0
    0.9472   -1.9411   -1.7480 H   0  0  0  0  0  0  0  0  0  0  0  0
   -0.7236   -1.4591   -2.1873 H   0  0  0  0  0  0  0  0  0  0  0  0
   -1.6463   -3.3480   -0.8159 H   0  0  0  0  0  0  0  0  0  0  0  0
   -0.4990   -3.9335   -2.0732 H   0  0  0  0  0  0  0  0  0  0  0  0
    0.0378   -3.8262   -0.3517 H   0  0  0  0  0  0  0  0  0  0  0  0
   -0.0510    2.8500    1.2237 H   0  0  0  0  0  0  0  0  0  0  0  0
   -1.2774    9.6035   -0.1716 H   0  0  0  0  0  0  0  0  0  0  0  0
   -0.5795   10.8808    1.8309 H   0  0  0  0  0  0  0  0  0  0  0  0
    0.4456    9.7227    3.7636 H   0  0  0  0  0  0  0  0  0  0  0  0
    0.7946    7.2934    3.7327 H   0  0  0  0  0  0  0  0  0  0  0  0
   -1.8742    7.8549   -6.1530 H   0  0  0  0  0  0  0  0  0  0  0  0
    0.0022    9.4641   -6.1217 H   0  0  0  0  0  0  0  0  0  0  0  0
    1.1548   10.0143   -4.0010 H   0  0  0  0  0  0  0  0  0  0  0  0
    0.4525    8.9621   -1.8776 H   0  0  0  0  0  0  0  0  0  0  0  0
   -1.5476    5.5351   -6.2828 H   0  0  0  0  0  0  0  0  0  0  0  0
    2.7371    4.3581  -10.6685 H   0  0  0  0  0  0  0  0  0  0  0  0
    3.1929    3.2250   -9.3508 H   0  0  0  0  0  0  0  0  0  0  0  0
    4.4003    5.3890   -9.1209 H   0  0  0  0  0  0  0  0  0  0  0  0
    2.8355    6.2797   -9.0565 H   0  0  0  0  0  0  0  0  0  0  0  0
    3.2870    5.1316   -7.7260 H   0  0  0  0  0  0  0  0  0  0  0  0
   -5.9961   -1.2516   -1.3570 H   0  0  0  0  0  0  0  0  0  0  0  0
   -7.7402   -0.9505   -1.6700 H   0  0  0  0  0  0  0  0  0  0  0  0
   -7.5761    1.2777   -0.5724 H   0  0  0  0  0  0  0  0  0  0  0  0
   -6.9813   -0.0133    0.5329 H   0  0  0  0  0  0  0  0  0  0  0  0
   -5.7977    1.0486   -0.3238 H   0  0  0  0  0  0  0  0  0  0  0  0
   -4.2354   -0.9609   -6.0967 H   0  0  0  0  0  0  0  0  0  0  0  0
   -3.8945   -3.2920   -8.2707 H   0  0  0  0  0  0  0  0  0  0  0  0
   -8.4253   -6.4268  -10.0092 H   0  0  0  0  0  0  0  0  0  0  0  0
   -8.3029   -7.2656   -8.4294 H   0  0  0  0  0  0  0  0  0  0  0  0
   -7.4266   -8.4400  -11.1521 H   0  0  0  0  0  0  0  0  0  0  0  0
   -7.3149   -9.2747   -9.5492 H   0  0  0  0  0  0  0  0  0  0  0  0
   -8.9263   -8.8509  -10.2447 H   0  0  0  0  0  0  0  0  0  0  0  0
    4.6113   -5.5968   -2.9068 H   0  0  0  0  0  0  0  0  0  0  0  0
    3.2521   -6.4300   -2.0921 H   0  0  0  0  0  0  0  0  0  0  0  0
    2.2873   -4.2604   -1.3809 H   0  0  0  0  0  0  0  0  0  0  0  0
    4.0071   -4.3823   -0.8489 H   0  0  0  0  0  0  0  0  0  0  0  0
    3.5852   -3.3642   -2.2742 H   0  0  0  0  0  0  0  0  0  0  0  0
    0.5866   -8.2188   -5.7115 H   0  0  0  0  0  0  0  0  0  0  0  0
   -0.8751  -10.2416   -6.4401 H   0  0  0  0  0  0  0  0  0  0  0  0
  1  2  2  0
  2  3  1  0
  3  4  2  0
  4  5  1  0
  5  6  1  0
  6  7  1  0
  7  8  1  0
  8  9  1  0
  7 10  2  0
 10 11  1  0
 10 12  1  0
 12 13  1  0
  4 14  1  0
 14 15  2  0
 15 16  1  0
 16 17  1  0
 17 18  1  0
 18 19  1  0
 19 20  1  0
 20 21  1  0
 19 22  2  0
 22 23  1  0
 23 24  1  0
 22 25  1  0
 16 26  2  0
 26 27  1  0
 15 28  1  0
 28 29  2  0
 29 30  1  0
 29 31  1  0
 31 32  2  0
 32 33  1  0
 33 34  2  0
 34 35  1  0
 35 36  1  0
 36 37  1  0
 37 38  1  0
 38 39  1  0
 37 40  2  0
 40 41  1  0
 40 42  1  0
 42 43  1  0
 34 44  1  0
 44 45  2  0
 45 46  1  0
 46 47  1  0
 47 48  1  0
 48 49  1  0
 49 50  1  0
 50 51  1  0
 49 52  2  0
 52 53  1  0
 53 54  1  0
 52 55  1  0
 46 56  2  0
 56 57  1  0
 45 58  1  0
 58 59  2  0
 59 60  1  0
 59 61  1  0
 61 62  2  0
 62 63  1  0
 63 64  1  0
 64 65  2  0
 65 66  1  0
 66 67  2  0
 63 68  2  0
 68 69  1  0
 68 70  1  0
 70 71  2  0
 71 72  1  0
 72 73  1  0
 73 74  2  0
 74 75  1  0
 75 76  2  0
 72 77  2  0
 77 78  1  0
 77 79  1  0
 79 80  2  0
 80 81  1  0
 81 82  2  0
 82 83  1  0
 83 84  1  0
 84 85  1  0
 85 86  1  0
 86 87  1  0
 85 88  2  0
 88 89  1  0
 88 90  1  0
 90 91  1  0
 82 92  1  0
 92 93  2  0
 93 94  1  0
 94 95  1  0
 95 96  1  0
 96 97  1  0
 97 98  1  0
 98 99  1  0
 97100  2  0
100101  1  0
101102  1  0
100103  1  0
 94104  2  0
104105  1  0
 93106  1  0
106107  2  0
107108  1  0
107109  1  0
109110  2  0
110111  1  0
111112  2  0
112113  1  0
113114  1  0
114115  1  0
115116  1  0
116117  1  0
115118  2  0
118119  1  0
118120  1  0
120121  1  0
112122  1  0
122123  2  0
123124  1  0
124125  1  0
125126  1  0
126127  1  0
127128  1  0
128129  1  0
127130  2  0
130131  1  0
131132  1  0
130133  1  0
124134  2  0
134135  1  0
123136  1  0
136137  2  0
137138  1  0
 27  1  1  0
 57 31  1  0
 69 61  1  0
 78 70  1  0
105 79  1  0
135109  1  0
 26  3  1  0
 56 33  1  0
 67 62  1  0
 76 71  1  0
104 81  1  0
134111  1  0
 12  5  2  0
 30 14  1  0
 42 35  2  0
 60 44  1  0
 90 83  2  0
108 92  1  0
120113  2  0
138122  1  0
 23 17  2  0
 53 47  2  0
101 95  2  0
131125  2  0
  1139  1  0
  2140  1  0
  8141  1  0
  8142  1  0
  9143  1  0
  9144  1  0
  9145  1  0
 20146  1  0
 20147  1  0
 21148  1  0
 21149  1  0
 21150  1  0
 28151  1  0
 32152  1  0
 38153  1  0
 38154  1  0
 39155  1  0
 39156  1  0
 39157  1  0
 50158  1  0
 50159  1  0
 51160  1  0
 51161  1  0
 51162  1  0
 58163  1  0
 64164  1  0
 65165  1  0
 66166  1  0
 67167  1  0
 73168  1  0
 74169  1  0
 75170  1  0
 76171  1  0
 80172  1  0
 86173  1  0
 86174  1  0
 87175  1  0
 87176  1  0
 87177  1  0
 98178  1  0
 98179  1  0
 99180  1  0
 99181  1  0
 99182  1  0
106183  1  0
110184  1  0
116185  1  0
116186  1  0
117187  1  0
117188  1  0
117189  1  0
128190  1  0
128191  1  0
129192  1  0
129193  1  0
129194  1  0
136195  1  0
137196  1  0
M  END

