
     RDKit          3D

138155  0  0  0  0  0  0  0  0999 V2000
    4.1071   -0.5969   11.0506 C   0  0  0  0  0  0  0  0  0  0  0  0
    4.1457    0.6855   10.5081 C   0  0  0  0  0  0  0  0  0  0  0  0
    2.9324    1.0765    9.9140 C   0  0  0  0  0  0  0  0  0  0  0  0
    2.7109    2.2604    9.1899 C   0  0  0  0  0  0  0  0  0  0  0  0
    3.8424    3.0349    8.6700 C   0  0  0  0  0  0  0  0  0  0  0  0
    4.3756    4.5282    9.2271 S   0  0  0  0  0  0  0  0  0  0  0  0
    5.6936    4.6312    8.1764 C   0  0  0  0  0  0  0  0  0  0  0  0
    6.6626    5.7746    8.1263 C   0  0  0  0  0  0  0  0  0  0  0  0
    6.3885    6.6689    6.9202 C   0  0  0  0  0  0  0  0  0  0  0  0
    5.7215    3.4934    7.3693 C   0  0  0  0  0  0  0  0  0  0  0  0
    6.9315    3.1996    6.1272 Cl  0  0  0  0  0  0  0  0  0  0  0  0
    4.6760    2.6063    7.6420 C   0  0  0  0  0  0  0  0  0  0  0  0
    4.4233    1.1116    6.7596 Cl  0  0  0  0  0  0  0  0  0  0  0  0
    1.4243    2.4362    8.6479 C   0  0  0  0  0  0  0  0  0  0  0  0
    0.4473    1.4332    8.7041 C   0  0  0  0  0  0  0  0  0  0  0  0
    0.7130    0.2053    9.3359 C   0  0  0  0  0  0  0  0  0  0  0  0
   -0.0538   -1.0033    9.0047 C   0  0  0  0  0  0  0  0  0  0  0  0
   -1.6764   -1.2708    9.3422 S   0  0  0  0  0  0  0  0  0  0  0  0
   -1.8387   -2.6528    8.3925 C   0  0  0  0  0  0  0  0  0  0  0  0
   -3.1338   -3.4068    8.2344 C   0  0  0  0  0  0  0  0  0  0  0  0
   -3.5280   -3.6067    6.7665 C   0  0  0  0  0  0  0  0  0  0  0  0
   -0.6013   -2.9270    7.7954 C   0  0  0  0  0  0  0  0  0  0  0  0
    0.3808   -1.9723    8.1110 C   0  0  0  0  0  0  0  0  0  0  0  0
    1.9518   -1.9136    7.3347 Cl  0  0  0  0  0  0  0  0  0  0  0  0
   -0.2976   -4.2678    6.7070 Cl  0  0  0  0  0  0  0  0  0  0  0  0
    1.9482    0.0886    9.9897 C   0  0  0  0  0  0  0  0  0  0  0  0
    2.5878   -1.2621   10.7596 S   0  0  0  0  0  0  0  0  0  0  0  0
   -0.6757    1.7122    7.9054 C   0  0  0  0  0  0  0  0  0  0  0  0
   -0.5849    2.9251    7.2319 C   0  0  0  0  0  0  0  0  0  0  0  0
    0.9009    3.6447    7.5964 S   0  0  0  0  0  0  0  0  0  0  0  0
   -1.4404    3.2789    6.0881 C   0  0  0  0  0  0  0  0  0  0  0  0
   -1.7812    4.5500    5.6184 C   0  0  0  0  0  0  0  0  0  0  0  0
   -2.4270    4.5311    4.3675 C   0  0  0  0  0  0  0  0  0  0  0  0
   -2.7576    5.7238    3.7227 C   0  0  0  0  0  0  0  0  0  0  0  0
   -2.5012    6.9417    4.3648 C   0  0  0  0  0  0  0  0  0  0  0  0
   -1.9194    6.9611    5.6386 C   0  0  0  0  0  0  0  0  0  0  0  0
   -1.5486    5.7645    6.2694 C   0  0  0  0  0  0  0  0  0  0  0  0
   -2.6196    3.2464    3.8616 C   0  0  0  0  0  0  0  0  0  0  0  0
   -1.9632    2.1537    4.9506 S   0  0  0  0  0  0  0  0  0  0  0  0
   -3.2348    2.8593    2.5852 C   0  0  0  0  0  0  0  0  0  0  0  0
   -4.5529    3.0695    2.1860 C   0  0  0  0  0  0  0  0  0  0  0  0
   -4.8725    2.4540    0.9612 C   0  0  0  0  0  0  0  0  0  0  0  0
   -6.1852    2.4847    0.4827 C   0  0  0  0  0  0  0  0  0  0  0  0
   -7.1706    3.1613    1.2153 C   0  0  0  0  0  0  0  0  0  0  0  0
   -6.8484    3.7851    2.4276 C   0  0  0  0  0  0  0  0  0  0  0  0
   -5.5394    3.7327    2.9239 C   0  0  0  0  0  0  0  0  0  0  0  0
   -3.7961    1.7744    0.3801 C   0  0  0  0  0  0  0  0  0  0  0  0
   -2.4877    1.8901    1.4328 S   0  0  0  0  0  0  0  0  0  0  0  0
   -3.7787    0.9926   -0.8708 C   0  0  0  0  0  0  0  0  0  0  0  0
   -4.2367    1.3804   -2.1309 C   0  0  0  0  0  0  0  0  0  0  0  0
   -4.0737    0.3909   -3.1187 C   0  0  0  0  0  0  0  0  0  0  0  0
   -4.5182    0.6240   -4.4285 C   0  0  0  0  0  0  0  0  0  0  0  0
   -5.0532    1.8722   -4.7584 C   0  0  0  0  0  0  0  0  0  0  0  0
   -5.1450    2.8836   -3.7919 C   0  0  0  0  0  0  0  0  0  0  0  0
   -4.7359    2.6423   -2.4742 C   0  0  0  0  0  0  0  0  0  0  0  0
   -3.4263   -0.7643   -2.6607 C   0  0  0  0  0  0  0  0  0  0  0  0
   -3.0889   -0.5333   -1.0263 S   0  0  0  0  0  0  0  0  0  0  0  0
   -2.8223   -1.8296   -3.4871 C   0  0  0  0  0  0  0  0  0  0  0  0
   -2.5402   -3.1494   -3.1155 C   0  0  0  0  0  0  0  0  0  0  0  0
   -1.7747   -3.8621   -4.0700 C   0  0  0  0  0  0  0  0  0  0  0  0
   -1.4604   -5.2114   -3.8555 C   0  0  0  0  0  0  0  0  0  0  0  0
   -1.8576   -5.8332   -2.6658 C   0  0  0  0  0  0  0  0  0  0  0  0
   -2.5826   -5.1189   -1.7014 C   0  0  0  0  0  0  0  0  0  0  0  0
   -2.9417   -3.7814   -1.9300 C   0  0  0  0  0  0  0  0  0  0  0  0
   -1.4261   -3.1010   -5.1882 C   0  0  0  0  0  0  0  0  0  0  0  0
   -2.0967   -1.5725   -4.9850 S   0  0  0  0  0  0  0  0  0  0  0  0
   -0.5406   -3.4513   -6.3095 C   0  0  0  0  0  0  0  0  0  0  0  0
    0.6102   -4.2343   -6.2299 C   0  0  0  0  0  0  0  0  0  0  0  0
    1.3208   -4.2854   -7.4398 C   0  0  0  0  0  0  0  0  0  0  0  0
    2.5268   -4.9791   -7.6624 C   0  0  0  0  0  0  0  0  0  0  0  0
    3.1506   -5.8204   -6.6267 C   0  0  0  0  0  0  0  0  0  0  0  0
    2.4593   -7.2038   -5.9792 S   0  0  0  0  0  0  0  0  0  0  0  0
    3.7953   -7.6697   -5.0684 C   0  0  0  0  0  0  0  0  0  0  0  0
    3.8570   -8.8945   -4.2058 C   0  0  0  0  0  0  0  0  0  0  0  0
    3.6562   -8.5382   -2.7366 C   0  0  0  0  0  0  0  0  0  0  0  0
    4.8134   -6.7344   -5.2605 C   0  0  0  0  0  0  0  0  0  0  0  0
    6.3960   -6.8444   -4.5016 Cl  0  0  0  0  0  0  0  0  0  0  0  0
    4.4541   -5.7017   -6.1423 C   0  0  0  0  0  0  0  0  0  0  0  0
    5.5218   -4.3651   -6.5513 Cl  0  0  0  0  0  0  0  0  0  0  0  0
    3.0847   -4.8811   -8.9501 C   0  0  0  0  0  0  0  0  0  0  0  0
    2.4955   -4.1294   -9.9675 C   0  0  0  0  0  0  0  0  0  0  0  0
    1.3028   -3.4177   -9.7377 C   0  0  0  0  0  0  0  0  0  0  0  0
    0.6536   -2.6226  -10.7966 C   0  0  0  0  0  0  0  0  0  0  0  0
    1.3547   -1.3185  -11.5931 S   0  0  0  0  0  0  0  0  0  0  0  0
    0.0762   -1.0399  -12.6483 C   0  0  0  0  0  0  0  0  0  0  0  0
    0.0476    0.0323  -13.6961 C   0  0  0  0  0  0  0  0  0  0  0  0
   -0.7451    1.2418  -13.2160 C   0  0  0  0  0  0  0  0  0  0  0  0
   -0.9295   -1.9649  -12.3800 C   0  0  0  0  0  0  0  0  0  0  0  0
   -0.6037   -2.8555  -11.3437 C   0  0  0  0  0  0  0  0  0  0  0  0
   -1.6533   -4.1730  -10.8422 Cl  0  0  0  0  0  0  0  0  0  0  0  0
   -2.4519   -2.0160  -13.2540 Cl  0  0  0  0  0  0  0  0  0  0  0  0
    0.7354   -3.5247   -8.4550 C   0  0  0  0  0  0  0  0  0  0  0  0
   -0.6528   -2.7858   -7.8586 S   0  0  0  0  0  0  0  0  0  0  0  0
    3.1853   -4.2242  -11.1918 C   0  0  0  0  0  0  0  0  0  0  0  0
    4.3116   -5.0423  -11.1250 C   0  0  0  0  0  0  0  0  0  0  0  0
    4.4454   -5.6603   -9.5641 S   0  0  0  0  0  0  0  0  0  0  0  0
    4.9282   -1.0854   11.5561 H   0  0  0  0  0  0  0  0  0  0  0  0
    5.0327    1.3043   10.5381 H   0  0  0  0  0  0  0  0  0  0  0  0
    7.7014    5.3784    8.0645 H   0  0  0  0  0  0  0  0  0  0  0  0
    6.5833    6.3768    9.0533 H   0  0  0  0  0  0  0  0  0  0  0  0
    7.0785    7.5382    6.9398 H   0  0  0  0  0  0  0  0  0  0  0  0
    5.3438    7.0398    6.9391 H   0  0  0  0  0  0  0  0  0  0  0  0
    6.5565    6.1115    5.9775 H   0  0  0  0  0  0  0  0  0  0  0  0
   -3.0704   -4.3935    8.7501 H   0  0  0  0  0  0  0  0  0  0  0  0
   -3.9456   -2.8173    8.7156 H   0  0  0  0  0  0  0  0  0  0  0  0
   -4.6237   -3.7783    6.6954 H   0  0  0  0  0  0  0  0  0  0  0  0
   -3.2676   -2.7151    6.1481 H   0  0  0  0  0  0  0  0  0  0  0  0
   -3.0203   -4.5012    6.3438 H   0  0  0  0  0  0  0  0  0  0  0  0
   -1.4900    1.0200    7.7510 H   0  0  0  0  0  0  0  0  0  0  0  0
   -3.1980    5.7184    2.7396 H   0  0  0  0  0  0  0  0  0  0  0  0
   -2.7615    7.8716    3.8762 H   0  0  0  0  0  0  0  0  0  0  0  0
   -1.7387    7.9087    6.1365 H   0  0  0  0  0  0  0  0  0  0  0  0
   -1.1119    5.7972    7.2533 H   0  0  0  0  0  0  0  0  0  0  0  0
   -6.4672    1.9742   -0.4262 H   0  0  0  0  0  0  0  0  0  0  0  0
   -8.1910    3.1858    0.8529 H   0  0  0  0  0  0  0  0  0  0  0  0
   -7.6162    4.2968    2.9939 H   0  0  0  0  0  0  0  0  0  0  0  0
   -5.3109    4.1883    3.8768 H   0  0  0  0  0  0  0  0  0  0  0  0
   -4.4719   -0.1450   -5.1875 H   0  0  0  0  0  0  0  0  0  0  0  0
   -5.3887    2.0640   -5.7725 H   0  0  0  0  0  0  0  0  0  0  0  0
   -5.5366    3.8543   -4.0620 H   0  0  0  0  0  0  0  0  0  0  0  0
   -4.7876    3.4348   -1.7488 H   0  0  0  0  0  0  0  0  0  0  0  0
   -0.9438   -5.7953   -4.6028 H   0  0  0  0  0  0  0  0  0  0  0  0
   -1.6125   -6.8740   -2.5003 H   0  0  0  0  0  0  0  0  0  0  0  0
   -2.8824   -5.6115   -0.7861 H   0  0  0  0  0  0  0  0  0  0  0  0
   -3.5335   -3.2668   -1.1904 H   0  0  0  0  0  0  0  0  0  0  0  0
    0.9481   -4.7036   -5.3146 H   0  0  0  0  0  0  0  0  0  0  0  0
    4.8399   -9.4016   -4.3359 H   0  0  0  0  0  0  0  0  0  0  0  0
    3.0588   -9.6046   -4.5167 H   0  0  0  0  0  0  0  0  0  0  0  0
    3.6814   -9.4637   -2.1243 H   0  0  0  0  0  0  0  0  0  0  0  0
    2.6770   -8.0351   -2.5881 H   0  0  0  0  0  0  0  0  0  0  0  0
    4.4669   -7.8602   -2.3880 H   0  0  0  0  0  0  0  0  0  0  0  0
   -0.4134   -0.3651  -14.6245 H   0  0  0  0  0  0  0  0  0  0  0  0
    1.0867    0.3473  -13.9382 H   0  0  0  0  0  0  0  0  0  0  0  0
   -0.7724    2.0118  -14.0182 H   0  0  0  0  0  0  0  0  0  0  0  0
   -1.7853    0.9453  -12.9737 H   0  0  0  0  0  0  0  0  0  0  0  0
   -0.2665    1.6849  -12.3150 H   0  0  0  0  0  0  0  0  0  0  0  0
    2.8810   -3.7300  -12.1053 H   0  0  0  0  0  0  0  0  0  0  0  0
    4.9819   -5.2501  -11.9475 H   0  0  0  0  0  0  0  0  0  0  0  0
  1  2  2  0
  2  3  1  0
  3  4  2  0
  4  5  1  0
  5  6  1  0
  6  7  1  0
  7  8  1  0
  8  9  1  0
  7 10  2  0
 10 11  1  0
 10 12  1  0
 12 13  1  0
  4 14  1  0
 14 15  2  0
 15 16  1  0
 16 17  1  0
 17 18  1  0
 18 19  1  0
 19 20  1  0
 20 21  1  0
 19 22  2  0
 22 23  1  0
 23 24  1  0
 22 25  1  0
 16 26  2  0
 26 27  1  0
 15 28  1  0
 28 29  2  0
 29 30  1  0
 29 31  1  0
 31 32  2  0
 32 33  1  0
 33 34  1  0
 34 35  2  0
 35 36  1  0
 36 37  2  0
 33 38  2  0
 38 39  1  0
 38 40  1  0
 40 41  2  0
 41 42  1  0
 42 43  1  0
 43 44  2  0
 44 45  1  0
 45 46  2  0
 42 47  2  0
 47 48  1  0
 47 49  1  0
 49 50  2  0
 50 51  1  0
 51 52  1  0
 52 53  2  0
 53 54  1  0
 54 55  2  0
 51 56  2  0
 56 57  1  0
 56 58  1  0
 58 59  2  0
 59 60  1  0
 60 61  1  0
 61 62  2  0
 62 63  1  0
 63 64  2  0
 60 65  2  0
 65 66  1  0
 65 67  1  0
 67 68  2  0
 68 69  1  0
 69 70  2  0
 70 71  1  0
 71 72  1  0
 72 73  1  0
 73 74  1  0
 74 75  1  0
 73 76  2  0
 76 77  1  0
 76 78  1  0
 78 79  1  0
 70 80  1  0
 80 81  2  0
 81 82  1  0
 82 83  1  0
 83 84  1  0
 84 85  1  0
 85 86  1  0
 86 87  1  0
 85 88  2  0
 88 89  1  0
 89 90  1  0
 88 91  1  0
 82 92  2  0
 92 93  1  0
 81 94  1  0
 94 95  2  0
 95 96  1  0
 27  1  1  0
 39 31  1  0
 48 40  1  0
 57 49  1  0
 66 58  1  0
 93 67  1  0
 26  3  1  0
 37 32  1  0
 46 41  1  0
 55 50  1  0
 64 59  1  0
 92 69  1  0
 12  5  2  0
 30 14  1  0
 78 71  2  0
 96 80  1  0
 23 17  2  0
 89 83  2  0
  1 97  1  0
  2 98  1  0
  8 99  1  0
  8100  1  0
  9101  1  0
  9102  1  0
  9103  1  0
 20104  1  0
 20105  1  0
 21106  1  0
 21107  1  0
 21108  1  0
 28109  1  0
 34110  1  0
 35111  1  0
 36112  1  0
 37113  1  0
 43114  1  0
 44115  1  0
 45116  1  0
 46117  1  0
 52118  1  0
 53119  1  0
 54120  1  0
 55121  1  0
 61122  1  0
 62123  1  0
 63124  1  0
 64125  1  0
 68126  1  0
 74127  1  0
 74128  1  0
 75129  1  0
 75130  1  0
 75131  1  0
 86132  1  0
 86133  1  0
 87134  1  0
 87135  1  0
 87136  1  0
 94137  1  0
 95138  1  0
M  END

