
     RDKit          3D

125141  0  0  0  0  0  0  0  0999 V2000
   10.1763    0.1930   -2.3456 C   0  0  0  0  0  0  0  0  0  0  0  0
   11.3639    0.3092   -1.4350 C   0  0  0  0  0  0  0  0  0  0  0  0
   12.5519    0.4349   -1.8378 O   0  0  0  0  0  0  0  0  0  0  0  0
   11.0140    0.3659   -0.0911 O   0  0  0  0  0  0  0  0  0  0  0  0
    9.6348    0.3265   -0.0547 C   0  0  0  0  0  0  0  0  0  0  0  0
    9.0891    0.2135   -1.3291 C   0  0  0  0  0  0  0  0  0  0  0  0
    7.7071    0.3199   -1.5464 C   0  0  0  0  0  0  0  0  0  0  0  0
    6.9077    0.5336   -0.4163 C   0  0  0  0  0  0  0  0  0  0  0  0
    7.4468    0.5816    0.8663 C   0  0  0  0  0  0  0  0  0  0  0  0
    8.8336    0.5207    1.0746 C   0  0  0  0  0  0  0  0  0  0  0  0
    6.3865    0.9930    1.8438 C   0  0  0  0  0  0  0  0  0  0  0  0
    5.2173    1.1235    0.8915 C   0  0  0  0  0  0  0  0  0  0  0  0
    4.0473    1.4044    1.2434 O   0  0  0  0  0  0  0  0  0  0  0  0
    5.5619    0.8282   -0.4218 O   0  0  0  0  0  0  0  0  0  0  0  0
    6.0553   -0.0238    2.9050 C   0  0  0  0  0  0  0  0  0  0  0  0
    6.9392   -0.8178    3.5378 C   0  0  0  0  0  0  0  0  0  0  0  0
    6.5254   -1.6664    4.7360 C   0  0  0  0  0  0  0  0  0  0  0  0
    6.2646   -0.7698    5.9147 C   0  0  0  0  0  0  0  0  0  0  0  0
    7.1624   -0.1948    6.5801 O   0  0  0  0  0  0  0  0  0  0  0  0
    4.9093   -0.6557    6.2139 O   0  0  0  0  0  0  0  0  0  0  0  0
    4.2556   -1.5249    5.3576 C   0  0  0  0  0  0  0  0  0  0  0  0
    5.1513   -2.2297    4.5578 C   0  0  0  0  0  0  0  0  0  0  0  0
    4.7177   -3.2055    3.6481 C   0  0  0  0  0  0  0  0  0  0  0  0
    3.3351   -3.4051    3.5650 C   0  0  0  0  0  0  0  0  0  0  0  0
    2.4378   -2.5948    4.2340 C   0  0  0  0  0  0  0  0  0  0  0  0
    2.8732   -1.6726    5.2033 C   0  0  0  0  0  0  0  0  0  0  0  0
    1.0352   -3.0458    3.9875 C   0  0  0  0  0  0  0  0  0  0  0  0
    1.3370   -4.2698    3.1638 C   0  0  0  0  0  0  0  0  0  0  0  0
    0.4639   -5.0729    2.7221 O   0  0  0  0  0  0  0  0  0  0  0  0
    2.6916   -4.4273    2.8973 O   0  0  0  0  0  0  0  0  0  0  0  0
    0.2678   -2.0575    3.1415 C   0  0  0  0  0  0  0  0  0  0  0  0
   -0.6630   -1.2022    3.5924 C   0  0  0  0  0  0  0  0  0  0  0  0
   -1.0795   -1.0045    5.0444 C   0  0  0  0  0  0  0  0  0  0  0  0
   -2.0200   -2.0840    5.5331 C   0  0  0  0  0  0  0  0  0  0  0  0
   -1.6916   -3.2736    5.7910 O   0  0  0  0  0  0  0  0  0  0  0  0
   -3.3135   -1.6201    5.7450 O   0  0  0  0  0  0  0  0  0  0  0  0
   -3.2854   -0.2694    5.4796 C   0  0  0  0  0  0  0  0  0  0  0  0
   -2.0043    0.1710    5.1473 C   0  0  0  0  0  0  0  0  0  0  0  0
   -1.7545    1.5200    4.8315 C   0  0  0  0  0  0  0  0  0  0  0  0
   -2.8725    2.3579    4.7622 C   0  0  0  0  0  0  0  0  0  0  0  0
   -4.1610    1.8935    5.0281 C   0  0  0  0  0  0  0  0  0  0  0  0
   -4.3959    0.5772    5.4419 C   0  0  0  0  0  0  0  0  0  0  0  0
   -5.1676    2.9008    4.5612 C   0  0  0  0  0  0  0  0  0  0  0  0
   -4.2360    4.0596    4.3251 C   0  0  0  0  0  0  0  0  0  0  0  0
   -4.6081    5.2222    4.0202 O   0  0  0  0  0  0  0  0  0  0  0  0
   -2.8950    3.6844    4.3782 O   0  0  0  0  0  0  0  0  0  0  0  0
   -5.7161    2.4084    3.2462 C   0  0  0  0  0  0  0  0  0  0  0  0
   -6.6246    1.4240    3.1939 C   0  0  0  0  0  0  0  0  0  0  0  0
   -6.6880    0.5206    2.0281 C   0  0  0  0  0  0  0  0  0  0  0  0
   -7.7037   -0.3982    1.7280 C   0  0  0  0  0  0  0  0  0  0  0  0
   -7.3743   -1.2828    0.6787 C   0  0  0  0  0  0  0  0  0  0  0  0
   -8.3015   -2.2357    0.2431 C   0  0  0  0  0  0  0  0  0  0  0  0
   -9.5554   -2.2982    0.8588 C   0  0  0  0  0  0  0  0  0  0  0  0
   -9.8788   -1.4238    1.9114 C   0  0  0  0  0  0  0  0  0  0  0  0
   -8.9540   -0.4637    2.3427 C   0  0  0  0  0  0  0  0  0  0  0  0
   -6.0830   -1.1042    0.1672 C   0  0  0  0  0  0  0  0  0  0  0  0
   -5.3665    0.1429    1.0464 S   0  0  0  0  0  0  0  0  0  0  0  0
   -5.4046   -1.9682   -0.8798 C   0  0  0  0  0  0  0  0  0  0  0  0
   -4.7892   -3.1934   -0.2470 C   0  0  0  0  0  0  0  0  0  0  0  0
   -5.4143   -4.0081    0.4715 O   0  0  0  0  0  0  0  0  0  0  0  0
   -3.4107   -3.2714   -0.4708 O   0  0  0  0  0  0  0  0  0  0  0  0
   -3.0642   -2.1460   -1.1974 C   0  0  0  0  0  0  0  0  0  0  0  0
   -4.1659   -1.3466   -1.4580 C   0  0  0  0  0  0  0  0  0  0  0  0
   -4.0244   -0.0768   -2.0281 C   0  0  0  0  0  0  0  0  0  0  0  0
   -2.7257    0.3251   -2.3540 C   0  0  0  0  0  0  0  0  0  0  0  0
   -1.6285   -0.5136   -2.1885 C   0  0  0  0  0  0  0  0  0  0  0  0
   -1.7679   -1.7689   -1.5710 C   0  0  0  0  0  0  0  0  0  0  0  0
   -0.3669    0.2329   -2.4784 C   0  0  0  0  0  0  0  0  0  0  0  0
   -0.9554    1.5851   -2.7897 C   0  0  0  0  0  0  0  0  0  0  0  0
   -0.2766    2.5961   -3.0945 O   0  0  0  0  0  0  0  0  0  0  0  0
   -2.3404    1.5937   -2.7474 O   0  0  0  0  0  0  0  0  0  0  0  0
    0.4103   -0.2547   -3.6767 C   0  0  0  0  0  0  0  0  0  0  0  0
   -0.1634   -0.4580   -4.8625 C   0  0  0  0  0  0  0  0  0  0  0  0
    0.5545   -0.1723   -6.1490 C   0  0  0  0  0  0  0  0  0  0  0  0
    1.0094   -1.4045   -6.8807 C   0  0  0  0  0  0  0  0  0  0  0  0
    1.8887   -2.2046   -6.4646 O   0  0  0  0  0  0  0  0  0  0  0  0
    0.4115   -1.5274   -8.1304 O   0  0  0  0  0  0  0  0  0  0  0  0
   -0.4706   -0.4768   -8.2546 C   0  0  0  0  0  0  0  0  0  0  0  0
   -0.4242    0.3558   -7.1475 C   0  0  0  0  0  0  0  0  0  0  0  0
   -1.3530    1.3942   -6.9771 C   0  0  0  0  0  0  0  0  0  0  0  0
   -2.3110    1.5566   -7.9878 C   0  0  0  0  0  0  0  0  0  0  0  0
   -2.3171    0.7604   -9.1296 C   0  0  0  0  0  0  0  0  0  0  0  0
   -1.3880   -0.2733   -9.2951 C   0  0  0  0  0  0  0  0  0  0  0  0
   -3.4777    1.1362  -10.0084 C   0  0  0  0  0  0  0  0  0  0  0  0
   -4.0975    2.2000   -9.1444 C   0  0  0  0  0  0  0  0  0  0  0  0
   -5.1398    2.8422   -9.4420 O   0  0  0  0  0  0  0  0  0  0  0  0
   -3.3740    2.4417   -7.9848 O   0  0  0  0  0  0  0  0  0  0  0  0
   -4.4297   -0.0060  -10.2739 C   0  0  0  0  0  0  0  0  0  0  0  0
   -4.8010   -0.8794   -9.3372 C   0  0  0  0  0  0  0  0  0  0  0  0
   10.1151    1.0739   -3.0052 H   0  0  0  0  0  0  0  0  0  0  0  0
   10.1892   -0.7708   -2.8993 H   0  0  0  0  0  0  0  0  0  0  0  0
    7.2868    0.3445   -2.5425 H   0  0  0  0  0  0  0  0  0  0  0  0
    9.2683    0.6804    2.0501 H   0  0  0  0  0  0  0  0  0  0  0  0
    6.6291    1.9699    2.3013 H   0  0  0  0  0  0  0  0  0  0  0  0
    5.0494    0.0407    3.3008 H   0  0  0  0  0  0  0  0  0  0  0  0
    7.9757   -0.8415    3.2304 H   0  0  0  0  0  0  0  0  0  0  0  0
    7.2683   -2.4554    4.9657 H   0  0  0  0  0  0  0  0  0  0  0  0
    5.3928   -3.8347    3.1027 H   0  0  0  0  0  0  0  0  0  0  0  0
    2.1666   -1.1158    5.8149 H   0  0  0  0  0  0  0  0  0  0  0  0
    0.5444   -3.3103    4.9305 H   0  0  0  0  0  0  0  0  0  0  0  0
    0.5263   -2.0138    2.0828 H   0  0  0  0  0  0  0  0  0  0  0  0
   -1.1202   -0.5622    2.8408 H   0  0  0  0  0  0  0  0  0  0  0  0
   -0.2141   -0.8769    5.7180 H   0  0  0  0  0  0  0  0  0  0  0  0
   -0.7739    1.8808    4.6080 H   0  0  0  0  0  0  0  0  0  0  0  0
   -5.3899    0.2120    5.6429 H   0  0  0  0  0  0  0  0  0  0  0  0
   -5.9531    3.1209    5.3157 H   0  0  0  0  0  0  0  0  0  0  0  0
   -5.1876    2.6650    2.3309 H   0  0  0  0  0  0  0  0  0  0  0  0
   -7.1792    1.1622    4.0896 H   0  0  0  0  0  0  0  0  0  0  0  0
   -8.0692   -2.9326   -0.5531 H   0  0  0  0  0  0  0  0  0  0  0  0
  -10.2815   -3.0442    0.5462 H   0  0  0  0  0  0  0  0  0  0  0  0
  -10.8527   -1.4954    2.4004 H   0  0  0  0  0  0  0  0  0  0  0  0
   -9.2169    0.2069    3.1540 H   0  0  0  0  0  0  0  0  0  0  0  0
   -6.1063   -2.2495   -1.6956 H   0  0  0  0  0  0  0  0  0  0  0  0
   -4.8709    0.5860   -2.1458 H   0  0  0  0  0  0  0  0  0  0  0  0
   -0.8991   -2.3643   -1.2963 H   0  0  0  0  0  0  0  0  0  0  0  0
    0.2771    0.2898   -1.5775 H   0  0  0  0  0  0  0  0  0  0  0  0
    1.5022   -0.2595   -3.5661 H   0  0  0  0  0  0  0  0  0  0  0  0
   -1.2361   -0.6747   -4.8982 H   0  0  0  0  0  0  0  0  0  0  0  0
    1.3930    0.5538   -6.0146 H   0  0  0  0  0  0  0  0  0  0  0  0
   -1.3659    2.0054   -6.0850 H   0  0  0  0  0  0  0  0  0  0  0  0
   -1.4233   -0.9367  -10.1605 H   0  0  0  0  0  0  0  0  0  0  0  0
   -3.1153    1.5914  -10.9447 H   0  0  0  0  0  0  0  0  0  0  0  0
   -4.8326   -0.1051  -11.2787 H   0  0  0  0  0  0  0  0  0  0  0  0
   -5.4873   -1.6900   -9.5988 H   0  0  0  0  0  0  0  0  0  0  0  0
   -4.3908   -0.8647   -8.3394 H   0  0  0  0  0  0  0  0  0  0  0  0
  1  2  1  0
  2  3  2  0
  2  4  1  0
  4  5  1  0
  5  6  2  0
  6  7  1  0
  7  8  2  0
  8  9  1  0
  9 10  2  0
  9 11  1  0
 11 12  1  0
 12 13  2  0
 12 14  1  0
 11 15  1  0
 15 16  2  3
 16 17  1  0
 17 18  1  0
 18 19  2  0
 18 20  1  0
 20 21  1  0
 21 22  2  0
 22 23  1  0
 23 24  2  0
 24 25  1  0
 25 26  2  0
 25 27  1  0
 27 28  1  0
 28 29  2  0
 28 30  1  0
 27 31  1  0
 31 32  2  3
 32 33  1  0
 33 34  1  0
 34 35  2  0
 34 36  1  0
 36 37  1  0
 37 38  2  0
 38 39  1  0
 39 40  2  0
 40 41  1  0
 41 42  2  0
 41 43  1  0
 43 44  1  0
 44 45  2  0
 44 46  1  0
 43 47  1  0
 47 48  2  3
 48 49  1  0
 49 50  2  0
 50 51  1  0
 51 52  1  0
 52 53  2  0
 53 54  1  0
 54 55  2  0
 51 56  2  0
 56 57  1  0
 56 58  1  0
 58 59  1  0
 59 60  2  0
 59 61  1  0
 61 62  1  0
 62 63  2  0
 63 64  1  0
 64 65  2  0
 65 66  1  0
 66 67  2  0
 66 68  1  0
 68 69  1  0
 69 70  2  0
 69 71  1  0
 68 72  1  0
 72 73  2  3
 73 74  1  0
 74 75  1  0
 75 76  2  0
 75 77  1  0
 77 78  1  0
 78 79  2  0
 79 80  1  0
 80 81  2  0
 81 82  1  0
 82 83  2  0
 82 84  1  0
 84 85  1  0
 85 86  2  0
 85 87  1  0
 84 88  1  0
 88 89  2  3
  6  1  1  0
 14  8  1  0
 22 17  1  0
 30 24  1  0
 38 33  1  0
 46 40  1  0
 57 49  1  0
 63 58  1  0
 71 65  1  0
 79 74  1  0
 87 81  1  0
 10  5  1  0
 26 21  1  0
 42 37  1  0
 55 50  1  0
 67 62  1  0
 83 78  1  0
  1 90  1  0
  1 91  1  0
  7 92  1  0
 10 93  1  0
 11 94  1  0
 15 95  1  0
 16 96  1  0
 17 97  1  0
 23 98  1  0
 26 99  1  0
 27100  1  0
 31101  1  0
 32102  1  0
 33103  1  0
 39104  1  0
 42105  1  0
 43106  1  0
 47107  1  0
 48108  1  0
 52109  1  0
 53110  1  0
 54111  1  0
 55112  1  0
 58113  1  0
 64114  1  0
 67115  1  0
 68116  1  0
 72117  1  0
 73118  1  0
 74119  1  0
 80120  1  0
 83121  1  0
 84122  1  0
 88123  1  0
 89124  1  0
 89125  1  0
M  END

