
     RDKit          3D

138155  0  0  0  0  0  0  0  0999 V2000
    6.7664    5.5401   11.0589 C   0  0  0  0  0  0  0  0  0  0  0  0
    7.1500    4.5860   10.1252 C   0  0  0  0  0  0  0  0  0  0  0  0
    6.1160    3.7215    9.7201 C   0  0  0  0  0  0  0  0  0  0  0  0
    6.3762    2.6949    8.8028 C   0  0  0  0  0  0  0  0  0  0  0  0
    7.6717    2.5541    8.2856 C   0  0  0  0  0  0  0  0  0  0  0  0
    8.6976    3.4270    8.6836 C   0  0  0  0  0  0  0  0  0  0  0  0
    8.4409    4.4480    9.6095 C   0  0  0  0  0  0  0  0  0  0  0  0
    4.8956    3.9887   10.3445 C   0  0  0  0  0  0  0  0  0  0  0  0
    5.1311    5.3022   11.3760 S   0  0  0  0  0  0  0  0  0  0  0  0
    3.5986    3.3335   10.0964 C   0  0  0  0  0  0  0  0  0  0  0  0
    2.6589    2.9179   11.0440 C   0  0  0  0  0  0  0  0  0  0  0  0
    1.4893    2.3710   10.4767 C   0  0  0  0  0  0  0  0  0  0  0  0
    0.4909    1.8318   11.2992 C   0  0  0  0  0  0  0  0  0  0  0  0
    0.6508    1.8802   12.6899 C   0  0  0  0  0  0  0  0  0  0  0  0
    1.8068    2.4409   13.2552 C   0  0  0  0  0  0  0  0  0  0  0  0
    2.8207    2.9528   12.4355 C   0  0  0  0  0  0  0  0  0  0  0  0
    1.4865    2.3851    9.0806 C   0  0  0  0  0  0  0  0  0  0  0  0
    2.9550    3.0311    8.5694 S   0  0  0  0  0  0  0  0  0  0  0  0
    0.4410    1.8951    8.1685 C   0  0  0  0  0  0  0  0  0  0  0  0
   -0.9145    2.2292    8.1506 C   0  0  0  0  0  0  0  0  0  0  0  0
   -1.6390    1.6233    7.0976 C   0  0  0  0  0  0  0  0  0  0  0  0
   -3.0221    1.8436    6.9903 C   0  0  0  0  0  0  0  0  0  0  0  0
   -3.6552    2.7100    7.8908 C   0  0  0  0  0  0  0  0  0  0  0  0
   -2.9195    3.3585    8.8923 C   0  0  0  0  0  0  0  0  0  0  0  0
   -1.5465    3.1250    9.0248 C   0  0  0  0  0  0  0  0  0  0  0  0
   -0.8385    0.8421    6.2446 C   0  0  0  0  0  0  0  0  0  0  0  0
    0.7379    0.9054    6.8458 S   0  0  0  0  0  0  0  0  0  0  0  0
   -1.1796    0.1963    4.9554 C   0  0  0  0  0  0  0  0  0  0  0  0
   -0.3269   -0.6618    4.2552 C   0  0  0  0  0  0  0  0  0  0  0  0
   -0.7925   -0.9884    2.9711 C   0  0  0  0  0  0  0  0  0  0  0  0
   -0.1344   -1.7975    2.0222 C   0  0  0  0  0  0  0  0  0  0  0  0
    1.1808   -2.4022    2.2930 C   0  0  0  0  0  0  0  0  0  0  0  0
    2.6016   -1.5367    2.5425 S   0  0  0  0  0  0  0  0  0  0  0  0
    3.5912   -2.8797    2.7636 C   0  0  0  0  0  0  0  0  0  0  0  0
    5.0741   -2.8171    2.9729 C   0  0  0  0  0  0  0  0  0  0  0  0
    5.8101   -2.8909    1.6394 C   0  0  0  0  0  0  0  0  0  0  0  0
    2.8177   -4.0318    2.6253 C   0  0  0  0  0  0  0  0  0  0  0  0
    3.4694   -5.6597    2.7513 Cl  0  0  0  0  0  0  0  0  0  0  0  0
    1.4648   -3.7629    2.3665 C   0  0  0  0  0  0  0  0  0  0  0  0
    0.2460   -5.0173    2.1794 Cl  0  0  0  0  0  0  0  0  0  0  0  0
   -0.7536   -1.9398    0.7684 C   0  0  0  0  0  0  0  0  0  0  0  0
   -1.9745   -1.3309    0.4635 C   0  0  0  0  0  0  0  0  0  0  0  0
   -2.6599   -0.5706    1.4306 C   0  0  0  0  0  0  0  0  0  0  0  0
   -3.9852    0.0113    1.1592 C   0  0  0  0  0  0  0  0  0  0  0  0
   -4.3200    1.6577    1.0553 S   0  0  0  0  0  0  0  0  0  0  0  0
   -5.9476    1.4825    0.6576 C   0  0  0  0  0  0  0  0  0  0  0  0
   -6.8668    2.6160    0.3148 C   0  0  0  0  0  0  0  0  0  0  0  0
   -6.8786    2.8635   -1.1898 C   0  0  0  0  0  0  0  0  0  0  0  0
   -6.2463    0.1232    0.5866 C   0  0  0  0  0  0  0  0  0  0  0  0
   -5.1475   -0.7021    0.8718 C   0  0  0  0  0  0  0  0  0  0  0  0
   -5.2348   -2.4588    0.8749 Cl  0  0  0  0  0  0  0  0  0  0  0  0
   -7.8345   -0.5023    0.1638 Cl  0  0  0  0  0  0  0  0  0  0  0  0
   -2.0230   -0.3991    2.6686 C   0  0  0  0  0  0  0  0  0  0  0  0
   -2.5163    0.5339    3.9743 S   0  0  0  0  0  0  0  0  0  0  0  0
   -2.3509   -1.4862   -0.8782 C   0  0  0  0  0  0  0  0  0  0  0  0
   -1.4290   -2.2208   -1.6202 C   0  0  0  0  0  0  0  0  0  0  0  0
   -0.1498   -2.6854   -0.6181 S   0  0  0  0  0  0  0  0  0  0  0  0
   -1.4723   -2.3956   -3.0779 C   0  0  0  0  0  0  0  0  0  0  0  0
   -2.1140   -1.5318   -3.9636 C   0  0  0  0  0  0  0  0  0  0  0  0
   -1.9214   -1.8828   -5.3067 C   0  0  0  0  0  0  0  0  0  0  0  0
   -2.3975   -1.1733   -6.4277 C   0  0  0  0  0  0  0  0  0  0  0  0
   -3.1014    0.1156   -6.2860 C   0  0  0  0  0  0  0  0  0  0  0  0
   -2.4366    1.4881   -5.5699 S   0  0  0  0  0  0  0  0  0  0  0  0
   -3.7948    2.4647   -5.7496 C   0  0  0  0  0  0  0  0  0  0  0  0
   -3.8747    3.9007   -5.3232 C   0  0  0  0  0  0  0  0  0  0  0  0
   -3.5120    4.8294   -6.4769 C   0  0  0  0  0  0  0  0  0  0  0  0
   -4.7874    1.7300   -6.3942 C   0  0  0  0  0  0  0  0  0  0  0  0
   -6.3635    2.3897   -6.8086 Cl  0  0  0  0  0  0  0  0  0  0  0  0
   -4.4031    0.4108   -6.6860 C   0  0  0  0  0  0  0  0  0  0  0  0
   -5.4864   -0.7658   -7.4171 Cl  0  0  0  0  0  0  0  0  0  0  0  0
   -2.1029   -1.7157   -7.6917 C   0  0  0  0  0  0  0  0  0  0  0  0
   -1.3638   -2.8925   -7.8531 C   0  0  0  0  0  0  0  0  0  0  0  0
   -0.8643   -3.5841   -6.7307 C   0  0  0  0  0  0  0  0  0  0  0  0
   -0.0526   -4.8056   -6.8705 C   0  0  0  0  0  0  0  0  0  0  0  0
   -0.5196   -6.3324   -6.3421 S   0  0  0  0  0  0  0  0  0  0  0  0
    0.8460   -7.1389   -6.9062 C   0  0  0  0  0  0  0  0  0  0  0  0
    1.1137   -8.5994   -6.7032 C   0  0  0  0  0  0  0  0  0  0  0  0
    1.9115   -8.8282   -5.4255 C   0  0  0  0  0  0  0  0  0  0  0  0
    1.7021   -6.2116   -7.4964 C   0  0  0  0  0  0  0  0  0  0  0  0
    1.1941   -4.9035   -7.4840 C   0  0  0  0  0  0  0  0  0  0  0  0
    2.0706   -3.5196   -8.1242 Cl  0  0  0  0  0  0  0  0  0  0  0  0
    3.2700   -6.6285   -8.1761 Cl  0  0  0  0  0  0  0  0  0  0  0  0
   -1.1664   -3.0491   -5.4669 C   0  0  0  0  0  0  0  0  0  0  0  0
   -0.6812   -3.6057   -3.9519 S   0  0  0  0  0  0  0  0  0  0  0  0
   -1.2104   -3.2682   -9.1969 C   0  0  0  0  0  0  0  0  0  0  0  0
   -1.7896   -2.3625  -10.0845 C   0  0  0  0  0  0  0  0  0  0  0  0
   -2.5265   -1.1216   -9.2088 S   0  0  0  0  0  0  0  0  0  0  0  0
   -1.8622   -2.5060  -11.5463 C   0  0  0  0  0  0  0  0  0  0  0  0
   -0.9025   -3.0346  -12.4150 C   0  0  0  0  0  0  0  0  0  0  0  0
   -1.3284   -3.0684  -13.7572 C   0  0  0  0  0  0  0  0  0  0  0  0
   -0.4899   -3.5576  -14.7626 C   0  0  0  0  0  0  0  0  0  0  0  0
    0.7942   -4.0037  -14.4208 C   0  0  0  0  0  0  0  0  0  0  0  0
    1.2349   -3.9450  -13.0890 C   0  0  0  0  0  0  0  0  0  0  0  0
    0.3936   -3.4529  -12.0814 C   0  0  0  0  0  0  0  0  0  0  0  0
   -2.6044   -2.5617  -13.9673 C   0  0  0  0  0  0  0  0  0  0  0  0
   -3.2009   -2.0689  -12.4735 S   0  0  0  0  0  0  0  0  0  0  0  0
    7.4013    6.2972   11.4997 H   0  0  0  0  0  0  0  0  0  0  0  0
    5.6044    2.0001    8.5004 H   0  0  0  0  0  0  0  0  0  0  0  0
    7.8848    1.7628    7.5794 H   0  0  0  0  0  0  0  0  0  0  0  0
    9.6939    3.3083    8.2772 H   0  0  0  0  0  0  0  0  0  0  0  0
    9.2367    5.1141    9.9194 H   0  0  0  0  0  0  0  0  0  0  0  0
   -0.3917    1.3678   10.8798 H   0  0  0  0  0  0  0  0  0  0  0  0
   -0.1201    1.4753   13.3336 H   0  0  0  0  0  0  0  0  0  0  0  0
    1.9217    2.4647   14.3304 H   0  0  0  0  0  0  0  0  0  0  0  0
    3.7206    3.3470   12.8880 H   0  0  0  0  0  0  0  0  0  0  0  0
   -3.6241    1.3502    6.2454 H   0  0  0  0  0  0  0  0  0  0  0  0
   -4.7210    2.8848    7.8103 H   0  0  0  0  0  0  0  0  0  0  0  0
   -3.4169    4.0398    9.5697 H   0  0  0  0  0  0  0  0  0  0  0  0
   -0.9925    3.6451    9.7945 H   0  0  0  0  0  0  0  0  0  0  0  0
    0.6142   -1.0149    4.6561 H   0  0  0  0  0  0  0  0  0  0  0  0
    5.3329   -1.8632    3.4803 H   0  0  0  0  0  0  0  0  0  0  0  0
    5.4000   -3.6531    3.6280 H   0  0  0  0  0  0  0  0  0  0  0  0
    6.9034   -2.8172    1.8131 H   0  0  0  0  0  0  0  0  0  0  0  0
    5.5935   -3.8563    1.1342 H   0  0  0  0  0  0  0  0  0  0  0  0
    5.4975   -2.0551    0.9785 H   0  0  0  0  0  0  0  0  0  0  0  0
   -7.8973    2.3849    0.6613 H   0  0  0  0  0  0  0  0  0  0  0  0
   -6.5304    3.5371    0.8356 H   0  0  0  0  0  0  0  0  0  0  0  0
   -5.8594    3.1212   -1.5473 H   0  0  0  0  0  0  0  0  0  0  0  0
   -7.5622    3.7081   -1.4216 H   0  0  0  0  0  0  0  0  0  0  0  0
   -7.2365    1.9594   -1.7271 H   0  0  0  0  0  0  0  0  0  0  0  0
   -3.2387   -1.0398   -1.3076 H   0  0  0  0  0  0  0  0  0  0  0  0
   -2.6755   -0.6632   -3.6442 H   0  0  0  0  0  0  0  0  0  0  0  0
   -3.1726    4.0754   -4.4800 H   0  0  0  0  0  0  0  0  0  0  0  0
   -4.9008    4.1318   -4.9657 H   0  0  0  0  0  0  0  0  0  0  0  0
   -2.4844    4.6156   -6.8376 H   0  0  0  0  0  0  0  0  0  0  0  0
   -3.5589    5.8835   -6.1336 H   0  0  0  0  0  0  0  0  0  0  0  0
   -4.2310    4.6986   -7.3132 H   0  0  0  0  0  0  0  0  0  0  0  0
    1.6720   -9.0076   -7.5716 H   0  0  0  0  0  0  0  0  0  0  0  0
    0.1482   -9.1450   -6.6349 H   0  0  0  0  0  0  0  0  0  0  0  0
    1.3544   -8.4383   -4.5479 H   0  0  0  0  0  0  0  0  0  0  0  0
    2.8975   -8.3199   -5.4901 H   0  0  0  0  0  0  0  0  0  0  0  0
    2.0827   -9.9174   -5.2818 H   0  0  0  0  0  0  0  0  0  0  0  0
   -0.7319   -4.1876   -9.5078 H   0  0  0  0  0  0  0  0  0  0  0  0
   -0.8190   -3.5820  -15.7945 H   0  0  0  0  0  0  0  0  0  0  0  0
    1.4545   -4.3813  -15.1908 H   0  0  0  0  0  0  0  0  0  0  0  0
    2.2353   -4.2768  -12.8385 H   0  0  0  0  0  0  0  0  0  0  0  0
    0.7683   -3.3884  -11.0691 H   0  0  0  0  0  0  0  0  0  0  0  0
   -3.1173   -2.4831  -14.9179 H   0  0  0  0  0  0  0  0  0  0  0  0
  1  2  2  0
  2  3  1  0
  3  4  1  0
  4  5  2  0
  5  6  1  0
  6  7  2  0
  3  8  2  0
  8  9  1  0
  8 10  1  0
 10 11  2  0
 11 12  1  0
 12 13  1  0
 13 14  2  0
 14 15  1  0
 15 16  2  0
 12 17  2  0
 17 18  1  0
 17 19  1  0
 19 20  2  0
 20 21  1  0
 21 22  1  0
 22 23  2  0
 23 24  1  0
 24 25  2  0
 21 26  2  0
 26 27  1  0
 26 28  1  0
 28 29  2  0
 29 30  1  0
 30 31  2  0
 31 32  1  0
 32 33  1  0
 33 34  1  0
 34 35  1  0
 35 36  1  0
 34 37  2  0
 37 38  1  0
 37 39  1  0
 39 40  1  0
 31 41  1  0
 41 42  2  0
 42 43  1  0
 43 44  1  0
 44 45  1  0
 45 46  1  0
 46 47  1  0
 47 48  1  0
 46 49  2  0
 49 50  1  0
 50 51  1  0
 49 52  1  0
 43 53  2  0
 53 54  1  0
 42 55  1  0
 55 56  2  0
 56 57  1  0
 56 58  1  0
 58 59  2  0
 59 60  1  0
 60 61  2  0
 61 62  1  0
 62 63  1  0
 63 64  1  0
 64 65  1  0
 65 66  1  0
 64 67  2  0
 67 68  1  0
 67 69  1  0
 69 70  1  0
 61 71  1  0
 71 72  2  0
 72 73  1  0
 73 74  1  0
 74 75  1  0
 75 76  1  0
 76 77  1  0
 77 78  1  0
 76 79  2  0
 79 80  1  0
 80 81  1  0
 79 82  1  0
 73 83  2  0
 83 84  1  0
 72 85  1  0
 85 86  2  0
 86 87  1  0
 86 88  1  0
 88 89  2  0
 89 90  1  0
 90 91  1  0
 91 92  2  0
 92 93  1  0
 93 94  2  0
 90 95  2  0
 95 96  1  0
  9  1  1  0
 18 10  1  0
 27 19  1  0
 54 28  1  0
 84 58  1  0
 96 88  1  0
  7  2  1  0
 16 11  1  0
 25 20  1  0
 53 30  1  0
 83 60  1  0
 94 89  1  0
 39 32  2  0
 57 41  1  0
 69 62  2  0
 87 71  1  0
 50 44  2  0
 80 74  2  0
  1 97  1  0
  4 98  1  0
  5 99  1  0
  6100  1  0
  7101  1  0
 13102  1  0
 14103  1  0
 15104  1  0
 16105  1  0
 22106  1  0
 23107  1  0
 24108  1  0
 25109  1  0
 29110  1  0
 35111  1  0
 35112  1  0
 36113  1  0
 36114  1  0
 36115  1  0
 47116  1  0
 47117  1  0
 48118  1  0
 48119  1  0
 48120  1  0
 55121  1  0
 59122  1  0
 65123  1  0
 65124  1  0
 66125  1  0
 66126  1  0
 66127  1  0
 77128  1  0
 77129  1  0
 78130  1  0
 78131  1  0
 78132  1  0
 85133  1  0
 91134  1  0
 92135  1  0
 93136  1  0
 94137  1  0
 95138  1  0
M  END

