
     RDKit          3D

167187  0  0  0  0  0  0  0  0999 V2000
   -9.8003    5.3331    2.0286 C   0  0  0  0  0  0  0  0  0  0  0  0
  -10.0638    3.9719    1.9485 C   0  0  0  0  0  0  0  0  0  0  0  0
   -8.9488    3.1444    2.1835 C   0  0  0  0  0  0  0  0  0  0  0  0
   -9.0749    1.7528    2.1070 C   0  0  0  0  0  0  0  0  0  0  0  0
  -10.3284    1.1976    1.8123 C   0  0  0  0  0  0  0  0  0  0  0  0
  -11.4419    2.0252    1.5957 C   0  0  0  0  0  0  0  0  0  0  0  0
  -11.3143    3.4202    1.6580 C   0  0  0  0  0  0  0  0  0  0  0  0
   -7.7776    3.8610    2.4396 C   0  0  0  0  0  0  0  0  0  0  0  0
   -8.1686    5.5005    2.3930 S   0  0  0  0  0  0  0  0  0  0  0  0
   -6.4610    3.3303    2.8346 C   0  0  0  0  0  0  0  0  0  0  0  0
   -5.2110    3.8131    2.4468 C   0  0  0  0  0  0  0  0  0  0  0  0
   -4.1320    3.2412    3.1566 C   0  0  0  0  0  0  0  0  0  0  0  0
   -2.8202    3.6733    2.8958 C   0  0  0  0  0  0  0  0  0  0  0  0
   -2.5927    4.6163    1.8843 C   0  0  0  0  0  0  0  0  0  0  0  0
   -3.6644    5.1410    1.1472 C   0  0  0  0  0  0  0  0  0  0  0  0
   -4.9774    4.7468    1.4273 C   0  0  0  0  0  0  0  0  0  0  0  0
   -4.5247    2.2846    4.1087 C   0  0  0  0  0  0  0  0  0  0  0  0
   -6.2079    2.1811    4.0405 S   0  0  0  0  0  0  0  0  0  0  0  0
   -3.6531    1.3898    4.9092 C   0  0  0  0  0  0  0  0  0  0  0  0
   -3.9319    0.7591    6.1333 C   0  0  0  0  0  0  0  0  0  0  0  0
   -2.9254   -0.1441    6.5503 C   0  0  0  0  0  0  0  0  0  0  0  0
   -3.0454   -0.8454    7.7546 C   0  0  0  0  0  0  0  0  0  0  0  0
   -4.1751   -0.6338    8.5547 C   0  0  0  0  0  0  0  0  0  0  0  0
   -5.1661    0.2769    8.1592 C   0  0  0  0  0  0  0  0  0  0  0  0
   -5.0486    0.9800    6.9515 C   0  0  0  0  0  0  0  0  0  0  0  0
   -1.8452   -0.2152    5.6785 C   0  0  0  0  0  0  0  0  0  0  0  0
   -2.1616    0.8066    4.3884 S   0  0  0  0  0  0  0  0  0  0  0  0
   -0.6344   -1.0332    5.7834 C   0  0  0  0  0  0  0  0  0  0  0  0
   -0.6093   -2.4212    5.6452 C   0  0  0  0  0  0  0  0  0  0  0  0
    0.6537   -2.9092    5.2597 C   0  0  0  0  0  0  0  0  0  0  0  0
    0.9258   -4.2110    4.7976 C   0  0  0  0  0  0  0  0  0  0  0  0
   -0.1035   -5.2579    4.8048 C   0  0  0  0  0  0  0  0  0  0  0  0
   -0.3986   -6.2951    6.0930 S   0  0  0  0  0  0  0  0  0  0  0  0
   -1.6797   -7.1117    5.3650 C   0  0  0  0  0  0  0  0  0  0  0  0
   -2.4916   -8.1802    6.0338 C   0  0  0  0  0  0  0  0  0  0  0  0
   -3.6158   -7.5660    6.8599 C   0  0  0  0  0  0  0  0  0  0  0  0
   -1.9145   -6.5480    4.1101 C   0  0  0  0  0  0  0  0  0  0  0  0
   -3.2201   -7.0502    3.0457 Cl  0  0  0  0  0  0  0  0  0  0  0  0
   -1.0196   -5.5169    3.7924 C   0  0  0  0  0  0  0  0  0  0  0  0
   -1.0754   -4.6080    2.2900 Cl  0  0  0  0  0  0  0  0  0  0  0  0
    2.1502   -4.4091    4.1341 C   0  0  0  0  0  0  0  0  0  0  0  0
    3.1008   -3.3938    3.9933 C   0  0  0  0  0  0  0  0  0  0  0  0
    2.8682   -2.1159    4.5381 C   0  0  0  0  0  0  0  0  0  0  0  0
    3.7749   -0.9807    4.2980 C   0  0  0  0  0  0  0  0  0  0  0  0
    3.8490   -0.1018    2.8623 S   0  0  0  0  0  0  0  0  0  0  0  0
    4.8427    1.1232    3.4547 C   0  0  0  0  0  0  0  0  0  0  0  0
    5.2987    2.3151    2.6662 C   0  0  0  0  0  0  0  0  0  0  0  0
    6.6474    2.0481    2.0145 C   0  0  0  0  0  0  0  0  0  0  0  0
    5.1379    0.8496    4.7904 C   0  0  0  0  0  0  0  0  0  0  0  0
    4.5227   -0.3182    5.2652 C   0  0  0  0  0  0  0  0  0  0  0  0
    4.6519   -0.8756    6.9280 Cl  0  0  0  0  0  0  0  0  0  0  0  0
    6.1462    1.8854    5.7924 Cl  0  0  0  0  0  0  0  0  0  0  0  0
    1.6185   -1.9036    5.1394 C   0  0  0  0  0  0  0  0  0  0  0  0
    0.9022   -0.4203    5.4626 S   0  0  0  0  0  0  0  0  0  0  0  0
    4.1230   -3.7180    3.0909 C   0  0  0  0  0  0  0  0  0  0  0  0
    3.9327   -4.9430    2.4407 C   0  0  0  0  0  0  0  0  0  0  0  0
    2.5515   -5.6677    3.0940 S   0  0  0  0  0  0  0  0  0  0  0  0
    4.3496   -5.1396    1.0394 C   0  0  0  0  0  0  0  0  0  0  0  0
    5.3715   -4.3848    0.4582 C   0  0  0  0  0  0  0  0  0  0  0  0
    5.0861   -3.9700   -0.8537 C   0  0  0  0  0  0  0  0  0  0  0  0
    5.7346   -2.9245   -1.5458 C   0  0  0  0  0  0  0  0  0  0  0  0
    6.9830   -2.3053   -1.0604 C   0  0  0  0  0  0  0  0  0  0  0  0
    7.1771   -1.5034    0.4087 S   0  0  0  0  0  0  0  0  0  0  0  0
    8.7883   -1.0766    0.1677 C   0  0  0  0  0  0  0  0  0  0  0  0
    9.6464   -0.3793    1.1762 C   0  0  0  0  0  0  0  0  0  0  0  0
   10.3331   -1.3904    2.0893 C   0  0  0  0  0  0  0  0  0  0  0  0
    9.2001   -1.5706   -1.0699 C   0  0  0  0  0  0  0  0  0  0  0  0
   10.8311   -1.3778   -1.6990 Cl  0  0  0  0  0  0  0  0  0  0  0  0
    8.1845   -2.2453   -1.7637 C   0  0  0  0  0  0  0  0  0  0  0  0
    8.4228   -2.9890   -3.3402 Cl  0  0  0  0  0  0  0  0  0  0  0  0
    5.0587   -2.3882   -2.6544 C   0  0  0  0  0  0  0  0  0  0  0  0
    3.8505   -2.9099   -3.1320 C   0  0  0  0  0  0  0  0  0  0  0  0
    3.2747   -4.0418   -2.5185 C   0  0  0  0  0  0  0  0  0  0  0  0
    1.9658   -4.5848   -2.9287 C   0  0  0  0  0  0  0  0  0  0  0  0
    0.4910   -3.7887   -2.7587 S   0  0  0  0  0  0  0  0  0  0  0  0
   -0.4650   -5.0713   -3.2817 C   0  0  0  0  0  0  0  0  0  0  0  0
   -1.9668   -5.0503   -3.3333 C   0  0  0  0  0  0  0  0  0  0  0  0
   -2.5675   -5.8102   -2.1540 C   0  0  0  0  0  0  0  0  0  0  0  0
    0.3631   -6.1548   -3.5756 C   0  0  0  0  0  0  0  0  0  0  0  0
    1.7233   -5.8833   -3.3667 C   0  0  0  0  0  0  0  0  0  0  0  0
    3.0002   -7.0666   -3.6213 Cl  0  0  0  0  0  0  0  0  0  0  0  0
   -0.2322   -7.7097   -4.1408 Cl  0  0  0  0  0  0  0  0  0  0  0  0
    3.9024   -4.5192   -1.3559 C   0  0  0  0  0  0  0  0  0  0  0  0
    3.1928   -5.4463   -0.1514 S   0  0  0  0  0  0  0  0  0  0  0  0
    3.2345   -2.0878   -4.0931 C   0  0  0  0  0  0  0  0  0  0  0  0
    3.9174   -0.8891   -4.3016 C   0  0  0  0  0  0  0  0  0  0  0  0
    5.3163   -0.8836   -3.3598 S   0  0  0  0  0  0  0  0  0  0  0  0
    3.2837    0.3287   -4.8150 C   0  0  0  0  0  0  0  0  0  0  0  0
    2.3430    0.3920   -5.8428 C   0  0  0  0  0  0  0  0  0  0  0  0
    1.7027    1.6425   -5.9191 C   0  0  0  0  0  0  0  0  0  0  0  0
    0.6880    2.0102   -6.8263 C   0  0  0  0  0  0  0  0  0  0  0  0
    0.2524    1.1124   -7.9055 C   0  0  0  0  0  0  0  0  0  0  0  0
   -1.2670    0.3975   -8.0075 S   0  0  0  0  0  0  0  0  0  0  0  0
   -0.9738   -0.4383   -9.4393 C   0  0  0  0  0  0  0  0  0  0  0  0
   -1.9283   -1.4057  -10.0673 C   0  0  0  0  0  0  0  0  0  0  0  0
   -1.7024   -2.8095   -9.5164 C   0  0  0  0  0  0  0  0  0  0  0  0
    0.3350   -0.1803   -9.8467 C   0  0  0  0  0  0  0  0  0  0  0  0
    1.0579   -0.8738  -11.2941 Cl  0  0  0  0  0  0  0  0  0  0  0  0
    1.0203    0.6948   -8.9920 C   0  0  0  0  0  0  0  0  0  0  0  0
    2.6709    1.2324   -9.2734 Cl  0  0  0  0  0  0  0  0  0  0  0  0
    0.0980    3.2747   -6.6474 C   0  0  0  0  0  0  0  0  0  0  0  0
    0.4863    4.1505   -5.6299 C   0  0  0  0  0  0  0  0  0  0  0  0
    1.5099    3.7903   -4.7329 C   0  0  0  0  0  0  0  0  0  0  0  0
    1.8802    4.6471   -3.5948 C   0  0  0  0  0  0  0  0  0  0  0  0
    2.7141    6.1027   -3.7141 S   0  0  0  0  0  0  0  0  0  0  0  0
    2.7439    6.4246   -2.0602 C   0  0  0  0  0  0  0  0  0  0  0  0
    3.3336    7.6562   -1.4424 C   0  0  0  0  0  0  0  0  0  0  0  0
    2.3136    8.7895   -1.4228 C   0  0  0  0  0  0  0  0  0  0  0  0
    2.0745    5.3987   -1.3931 C   0  0  0  0  0  0  0  0  0  0  0  0
    1.5988    4.3973   -2.2533 C   0  0  0  0  0  0  0  0  0  0  0  0
    0.6945    2.9935   -1.6994 Cl  0  0  0  0  0  0  0  0  0  0  0  0
    1.8363    5.3593    0.3490 Cl  0  0  0  0  0  0  0  0  0  0  0  0
    2.1070    2.5299   -4.9171 C   0  0  0  0  0  0  0  0  0  0  0  0
    3.2961    1.7968   -3.9818 S   0  0  0  0  0  0  0  0  0  0  0  0
   -0.2613    5.3381   -5.6076 C   0  0  0  0  0  0  0  0  0  0  0  0
   -1.2174    5.4006   -6.6158 C   0  0  0  0  0  0  0  0  0  0  0  0
   -1.1491    3.9822   -7.5244 S   0  0  0  0  0  0  0  0  0  0  0  0
  -10.5075    6.1414    1.8819 H   0  0  0  0  0  0  0  0  0  0  0  0
   -8.2250    1.1032    2.2568 H   0  0  0  0  0  0  0  0  0  0  0  0
  -10.4389    0.1234    1.7445 H   0  0  0  0  0  0  0  0  0  0  0  0
  -12.4039    1.5846    1.3679 H   0  0  0  0  0  0  0  0  0  0  0  0
  -12.1719    4.0563    1.4749 H   0  0  0  0  0  0  0  0  0  0  0  0
   -1.9773    3.3148    3.4660 H   0  0  0  0  0  0  0  0  0  0  0  0
   -1.5825    4.9423    1.6701 H   0  0  0  0  0  0  0  0  0  0  0  0
   -3.4730    5.8585    0.3600 H   0  0  0  0  0  0  0  0  0  0  0  0
   -5.7883    5.1526    0.8392 H   0  0  0  0  0  0  0  0  0  0  0  0
   -2.2766   -1.5332    8.0754 H   0  0  0  0  0  0  0  0  0  0  0  0
   -4.2771   -1.1677    9.4884 H   0  0  0  0  0  0  0  0  0  0  0  0
   -6.0239    0.4458    8.7958 H   0  0  0  0  0  0  0  0  0  0  0  0
   -5.8112    1.6972    6.6905 H   0  0  0  0  0  0  0  0  0  0  0  0
   -1.5056   -3.0304    5.6751 H   0  0  0  0  0  0  0  0  0  0  0  0
   -1.8318   -8.7825    6.6937 H   0  0  0  0  0  0  0  0  0  0  0  0
   -2.9212   -8.8648    5.2717 H   0  0  0  0  0  0  0  0  0  0  0  0
   -3.2029   -6.8839    7.6335 H   0  0  0  0  0  0  0  0  0  0  0  0
   -4.3075   -6.9908    6.2080 H   0  0  0  0  0  0  0  0  0  0  0  0
   -4.1878   -8.3715    7.3633 H   0  0  0  0  0  0  0  0  0  0  0  0
    4.5493    2.5451    1.8785 H   0  0  0  0  0  0  0  0  0  0  0  0
    5.3739    3.2050    3.3267 H   0  0  0  0  0  0  0  0  0  0  0  0
    6.9889    2.9530    1.4676 H   0  0  0  0  0  0  0  0  0  0  0  0
    7.4038    1.7845    2.7843 H   0  0  0  0  0  0  0  0  0  0  0  0
    6.5599    1.2134    1.2886 H   0  0  0  0  0  0  0  0  0  0  0  0
    4.8627   -2.9947    2.7750 H   0  0  0  0  0  0  0  0  0  0  0  0
    6.1875   -3.9877    1.0401 H   0  0  0  0  0  0  0  0  0  0  0  0
    9.0209    0.2998    1.7886 H   0  0  0  0  0  0  0  0  0  0  0  0
   10.4113    0.2414    0.6617 H   0  0  0  0  0  0  0  0  0  0  0  0
    9.5752   -1.9525    2.6746 H   0  0  0  0  0  0  0  0  0  0  0  0
   11.0027   -0.8584    2.7973 H   0  0  0  0  0  0  0  0  0  0  0  0
   10.9388   -2.1065    1.4956 H   0  0  0  0  0  0  0  0  0  0  0  0
   -2.3151   -5.5007   -4.2877 H   0  0  0  0  0  0  0  0  0  0  0  0
   -2.3193   -3.9998   -3.2981 H   0  0  0  0  0  0  0  0  0  0  0  0
   -3.6750   -5.7425   -2.1994 H   0  0  0  0  0  0  0  0  0  0  0  0
   -2.2824   -6.8801   -2.1958 H   0  0  0  0  0  0  0  0  0  0  0  0
   -2.2232   -5.3675   -1.1934 H   0  0  0  0  0  0  0  0  0  0  0  0
    2.2534   -2.2796   -4.5019 H   0  0  0  0  0  0  0  0  0  0  0  0
    2.1004   -0.4514   -6.4780 H   0  0  0  0  0  0  0  0  0  0  0  0
   -2.9688   -1.0900   -9.8486 H   0  0  0  0  0  0  0  0  0  0  0  0
   -1.7969   -1.4078  -11.1697 H   0  0  0  0  0  0  0  0  0  0  0  0
   -1.8677   -2.8194   -8.4169 H   0  0  0  0  0  0  0  0  0  0  0  0
   -0.6680   -3.1457   -9.7353 H   0  0  0  0  0  0  0  0  0  0  0  0
   -2.4169   -3.5162   -9.9877 H   0  0  0  0  0  0  0  0  0  0  0  0
    3.6685    7.4420   -0.4069 H   0  0  0  0  0  0  0  0  0  0  0  0
    4.2205    7.9705   -2.0285 H   0  0  0  0  0  0  0  0  0  0  0  0
    2.7704    9.6915   -0.9622 H   0  0  0  0  0  0  0  0  0  0  0  0
    1.4219    8.5014   -0.8282 H   0  0  0  0  0  0  0  0  0  0  0  0
    1.9945    9.0422   -2.4578 H   0  0  0  0  0  0  0  0  0  0  0  0
   -0.1272    6.1277   -4.8824 H   0  0  0  0  0  0  0  0  0  0  0  0
   -1.9029    6.2188   -6.7813 H   0  0  0  0  0  0  0  0  0  0  0  0
  1  2  2  0
  2  3  1  0
  3  4  1  0
  4  5  2  0
  5  6  1  0
  6  7  2  0
  3  8  2  0
  8  9  1  0
  8 10  1  0
 10 11  2  0
 11 12  1  0
 12 13  1  0
 13 14  2  0
 14 15  1  0
 15 16  2  0
 12 17  2  0
 17 18  1  0
 17 19  1  0
 19 20  2  0
 20 21  1  0
 21 22  1  0
 22 23  2  0
 23 24  1  0
 24 25  2  0
 21 26  2  0
 26 27  1  0
 26 28  1  0
 28 29  2  0
 29 30  1  0
 30 31  2  0
 31 32  1  0
 32 33  1  0
 33 34  1  0
 34 35  1  0
 35 36  1  0
 34 37  2  0
 37 38  1  0
 37 39  1  0
 39 40  1  0
 31 41  1  0
 41 42  2  0
 42 43  1  0
 43 44  1  0
 44 45  1  0
 45 46  1  0
 46 47  1  0
 47 48  1  0
 46 49  2  0
 49 50  1  0
 50 51  1  0
 49 52  1  0
 43 53  2  0
 53 54  1  0
 42 55  1  0
 55 56  2  0
 56 57  1  0
 56 58  1  0
 58 59  2  0
 59 60  1  0
 60 61  2  0
 61 62  1  0
 62 63  1  0
 63 64  1  0
 64 65  1  0
 65 66  1  0
 64 67  2  0
 67 68  1  0
 67 69  1  0
 69 70  1  0
 61 71  1  0
 71 72  2  0
 72 73  1  0
 73 74  1  0
 74 75  1  0
 75 76  1  0
 76 77  1  0
 77 78  1  0
 76 79  2  0
 79 80  1  0
 80 81  1  0
 79 82  1  0
 73 83  2  0
 83 84  1  0
 72 85  1  0
 85 86  2  0
 86 87  1  0
 86 88  1  0
 88 89  2  0
 89 90  1  0
 90 91  2  0
 91 92  1  0
 92 93  1  0
 93 94  1  0
 94 95  1  0
 95 96  1  0
 94 97  2  0
 97 98  1  0
 97 99  1  0
 99100  1  0
 91101  1  0
101102  2  0
102103  1  0
103104  1  0
104105  1  0
105106  1  0
106107  1  0
107108  1  0
106109  2  0
109110  1  0
110111  1  0
109112  1  0
103113  2  0
113114  1  0
102115  1  0
115116  2  0
116117  1  0
  9  1  1  0
 18 10  1  0
 27 19  1  0
 54 28  1  0
 84 58  1  0
114 88  1  0
  7  2  1  0
 16 11  1  0
 25 20  1  0
 53 30  1  0
 83 60  1  0
113 90  1  0
 39 32  2  0
 57 41  1  0
 69 62  2  0
 87 71  1  0
 99 92  2  0
117101  1  0
 50 44  2  0
 80 74  2  0
110104  2  0
  1118  1  0
  4119  1  0
  5120  1  0
  6121  1  0
  7122  1  0
 13123  1  0
 14124  1  0
 15125  1  0
 16126  1  0
 22127  1  0
 23128  1  0
 24129  1  0
 25130  1  0
 29131  1  0
 35132  1  0
 35133  1  0
 36134  1  0
 36135  1  0
 36136  1  0
 47137  1  0
 47138  1  0
 48139  1  0
 48140  1  0
 48141  1  0
 55142  1  0
 59143  1  0
 65144  1  0
 65145  1  0
 66146  1  0
 66147  1  0
 66148  1  0
 77149  1  0
 77150  1  0
 78151  1  0
 78152  1  0
 78153  1  0
 85154  1  0
 89155  1  0
 95156  1  0
 95157  1  0
 96158  1  0
 96159  1  0
 96160  1  0
107161  1  0
107162  1  0
108163  1  0
108164  1  0
108165  1  0
115166  1  0
116167  1  0
M  END

