
     RDKit          3D

234259  0  0  0  0  0  0  0  0999 V2000
   -3.8429    3.4518   11.1753 C   0  0  0  0  0  0  0  0  0  0  0  0
   -4.5584    3.6918   10.0073 C   0  0  0  0  0  0  0  0  0  0  0  0
   -4.3967    2.6877    9.0424 C   0  0  0  0  0  0  0  0  0  0  0  0
   -5.0348    2.6313    7.7883 C   0  0  0  0  0  0  0  0  0  0  0  0
   -5.8286    3.7631    7.2544 C   0  0  0  0  0  0  0  0  0  0  0  0
   -5.2222    5.0149    7.0699 C   0  0  0  0  0  0  0  0  0  0  0  0
   -5.9290    6.0634    6.4757 C   0  0  0  0  0  0  0  0  0  0  0  0
   -7.2538    5.8736    6.0686 C   0  0  0  0  0  0  0  0  0  0  0  0
   -8.1468    7.2219    5.2819 S   0  0  0  0  0  0  0  0  0  0  0  0
   -7.5781    6.8379    3.5866 C   0  0  0  0  0  0  0  0  0  0  0  0
   -6.8699    8.0491    2.9972 C   0  0  0  0  0  0  0  0  0  0  0  0
   -7.8730    4.6314    6.2636 C   0  0  0  0  0  0  0  0  0  0  0  0
   -9.1551    4.4342    5.8658 F   0  0  0  0  0  0  0  0  0  0  0  0
   -7.1629    3.5793    6.8492 C   0  0  0  0  0  0  0  0  0  0  0  0
   -4.8019    1.4834    7.0151 C   0  0  0  0  0  0  0  0  0  0  0  0
   -3.9275    0.4615    7.4088 C   0  0  0  0  0  0  0  0  0  0  0  0
   -3.2606    0.5319    8.6537 C   0  0  0  0  0  0  0  0  0  0  0  0
   -2.3372   -0.5303    9.1252 C   0  0  0  0  0  0  0  0  0  0  0  0
   -2.7762   -1.8619    9.2214 C   0  0  0  0  0  0  0  0  0  0  0  0
   -1.9346   -2.8394    9.7597 C   0  0  0  0  0  0  0  0  0  0  0  0
   -0.6523   -2.5007   10.2073 C   0  0  0  0  0  0  0  0  0  0  0  0
    0.3610   -3.7404   11.0198 S   0  0  0  0  0  0  0  0  0  0  0  0
    1.1772   -4.3491    9.5006 C   0  0  0  0  0  0  0  0  0  0  0  0
    2.6881   -4.2947    9.6772 C   0  0  0  0  0  0  0  0  0  0  0  0
   -0.2014   -1.1811   10.0905 C   0  0  0  0  0  0  0  0  0  0  0  0
   -1.0429   -0.2002    9.5531 C   0  0  0  0  0  0  0  0  0  0  0  0
    1.0363   -0.8373   10.5260 F   0  0  0  0  0  0  0  0  0  0  0  0
   -3.5406    1.6614    9.4524 C   0  0  0  0  0  0  0  0  0  0  0  0
   -3.0029    2.0013   11.0105 S   0  0  0  0  0  0  0  0  0  0  0  0
   -3.7804   -0.5412    6.4315 C   0  0  0  0  0  0  0  0  0  0  0  0
   -4.5752   -0.3193    5.3053 C   0  0  0  0  0  0  0  0  0  0  0  0
   -5.4105    1.1318    5.4900 S   0  0  0  0  0  0  0  0  0  0  0  0
   -4.5712   -1.1049    4.0654 C   0  0  0  0  0  0  0  0  0  0  0  0
   -3.5224   -1.9045    3.6172 C   0  0  0  0  0  0  0  0  0  0  0  0
   -3.6445   -2.2557    2.2619 C   0  0  0  0  0  0  0  0  0  0  0  0
   -2.6540   -2.8764    1.4647 C   0  0  0  0  0  0  0  0  0  0  0  0
   -1.3353   -3.2724    2.0113 C   0  0  0  0  0  0  0  0  0  0  0  0
   -0.5271   -2.3307    2.6690 C   0  0  0  0  0  0  0  0  0  0  0  0
    0.6418   -2.7324    3.3113 C   0  0  0  0  0  0  0  0  0  0  0  0
    1.0420   -4.0725    3.2715 C   0  0  0  0  0  0  0  0  0  0  0  0
    2.4328   -4.6094    4.2707 S   0  0  0  0  0  0  0  0  0  0  0  0
    3.6950   -4.0920    3.0669 C   0  0  0  0  0  0  0  0  0  0  0  0
    5.0612   -4.1160    3.7363 C   0  0  0  0  0  0  0  0  0  0  0  0
    0.2904   -5.0024    2.5401 C   0  0  0  0  0  0  0  0  0  0  0  0
    0.6749   -6.3010    2.4757 F   0  0  0  0  0  0  0  0  0  0  0  0
   -0.9006   -4.6042    1.9212 C   0  0  0  0  0  0  0  0  0  0  0  0
   -2.9253   -2.9781    0.0883 C   0  0  0  0  0  0  0  0  0  0  0  0
   -4.1153   -2.5133   -0.4845 C   0  0  0  0  0  0  0  0  0  0  0  0
   -5.1106   -1.9181    0.3161 C   0  0  0  0  0  0  0  0  0  0  0  0
   -6.3415   -1.3431   -0.2626 C   0  0  0  0  0  0  0  0  0  0  0  0
   -7.5901   -1.8995    0.0462 C   0  0  0  0  0  0  0  0  0  0  0  0
   -8.7515   -1.3887   -0.5371 C   0  0  0  0  0  0  0  0  0  0  0  0
   -8.6779   -0.3121   -1.4288 C   0  0  0  0  0  0  0  0  0  0  0  0
  -10.1734    0.2893   -2.2224 S   0  0  0  0  0  0  0  0  0  0  0  0
  -10.1232   -0.9154   -3.5990 C   0  0  0  0  0  0  0  0  0  0  0  0
   -9.2173   -0.4223   -4.7194 C   0  0  0  0  0  0  0  0  0  0  0  0
   -7.4372    0.2862   -1.6963 C   0  0  0  0  0  0  0  0  0  0  0  0
   -6.2736   -0.2299   -1.1163 C   0  0  0  0  0  0  0  0  0  0  0  0
   -7.3536    1.3630   -2.5159 F   0  0  0  0  0  0  0  0  0  0  0  0
   -4.8314   -1.7925    1.6846 C   0  0  0  0  0  0  0  0  0  0  0  0
   -5.6820   -0.8916    2.8154 S   0  0  0  0  0  0  0  0  0  0  0  0
   -4.1098   -2.5537   -1.8864 C   0  0  0  0  0  0  0  0  0  0  0  0
   -2.8935   -2.9754   -2.4174 C   0  0  0  0  0  0  0  0  0  0  0  0
   -1.8546   -3.3681   -1.1464 S   0  0  0  0  0  0  0  0  0  0  0  0
   -2.4369   -2.6462   -3.7713 C   0  0  0  0  0  0  0  0  0  0  0  0
   -1.1635   -2.9208   -4.2709 C   0  0  0  0  0  0  0  0  0  0  0  0
   -0.8175   -2.0984   -5.3555 C   0  0  0  0  0  0  0  0  0  0  0  0
    0.4497   -2.0195   -5.9589 C   0  0  0  0  0  0  0  0  0  0  0  0
    1.5786   -2.8648   -5.5427 C   0  0  0  0  0  0  0  0  0  0  0  0
    1.7922   -4.0924   -6.1783 C   0  0  0  0  0  0  0  0  0  0  0  0
    3.0108   -4.7556   -6.0185 C   0  0  0  0  0  0  0  0  0  0  0  0
    4.0173   -4.1983   -5.2234 C   0  0  0  0  0  0  0  0  0  0  0  0
    5.6393   -4.9596   -5.1917 S   0  0  0  0  0  0  0  0  0  0  0  0
    6.2796   -3.8893   -6.5240 C   0  0  0  0  0  0  0  0  0  0  0  0
    7.6870   -4.3216   -6.9052 C   0  0  0  0  0  0  0  0  0  0  0  0
    3.7754   -3.0110   -4.5222 C   0  0  0  0  0  0  0  0  0  0  0  0
    4.7419   -2.4624   -3.7458 F   0  0  0  0  0  0  0  0  0  0  0  0
    2.5563   -2.3475   -4.6806 C   0  0  0  0  0  0  0  0  0  0  0  0
    0.6655   -0.9640   -6.8569 C   0  0  0  0  0  0  0  0  0  0  0  0
   -0.3038    0.0003   -7.1367 C   0  0  0  0  0  0  0  0  0  0  0  0
   -1.6010   -0.1213   -6.5984 C   0  0  0  0  0  0  0  0  0  0  0  0
   -2.6503    0.8905   -6.8408 C   0  0  0  0  0  0  0  0  0  0  0  0
   -3.2724    0.9738   -8.0928 C   0  0  0  0  0  0  0  0  0  0  0  0
   -4.3286    1.8663   -8.2960 C   0  0  0  0  0  0  0  0  0  0  0  0
   -4.7717    2.6831   -7.2480 C   0  0  0  0  0  0  0  0  0  0  0  0
   -6.1645    3.7870   -7.5003 S   0  0  0  0  0  0  0  0  0  0  0  0
   -7.4108    2.6302   -6.8181 C   0  0  0  0  0  0  0  0  0  0  0  0
   -7.8310    1.5984   -7.8592 C   0  0  0  0  0  0  0  0  0  0  0  0
   -4.1146    2.6401   -6.0083 C   0  0  0  0  0  0  0  0  0  0  0  0
   -3.0572    1.7476   -5.8065 C   0  0  0  0  0  0  0  0  0  0  0  0
   -4.5065    3.4522   -4.9966 F   0  0  0  0  0  0  0  0  0  0  0  0
   -1.8217   -1.1881   -5.7071 C   0  0  0  0  0  0  0  0  0  0  0  0
   -3.1387   -1.4185   -4.6924 S   0  0  0  0  0  0  0  0  0  0  0  0
    0.2242    1.1434   -7.7649 C   0  0  0  0  0  0  0  0  0  0  0  0
    1.6055    1.0709   -7.9773 C   0  0  0  0  0  0  0  0  0  0  0  0
    2.1444   -0.4228   -7.4266 S   0  0  0  0  0  0  0  0  0  0  0  0
    2.4769    2.2301   -7.7922 C   0  0  0  0  0  0  0  0  0  0  0  0
    2.5388    2.8086   -6.5181 C   0  0  0  0  0  0  0  0  0  0  0  0
    3.5241    3.7365   -6.1745 C   0  0  0  0  0  0  0  0  0  0  0  0
    4.5643    4.2549   -7.0833 C   0  0  0  0  0  0  0  0  0  0  0  0
    4.7408    3.8647   -8.4045 C   0  0  0  0  0  0  0  0  0  0  0  0
    3.6468    2.6810   -8.9591 S   0  0  0  0  0  0  0  0  0  0  0  0
    5.2884    5.1254   -6.3021 C   0  0  0  0  0  0  0  0  0  0  0  0
    4.8004    5.1662   -5.0361 C   0  0  0  0  0  0  0  0  0  0  0  0
    5.4720    6.0326   -4.1803 C   0  0  0  0  0  0  0  0  0  0  0  0
    6.5301    6.6690   -4.8473 C   0  0  0  0  0  0  0  0  0  0  0  0
    6.6047    6.1438   -6.4768 S   0  0  0  0  0  0  0  0  0  0  0  0
    3.7176    4.3114   -4.9155 C   0  0  0  0  0  0  0  0  0  0  0  0
    2.8837    4.0563   -3.7342 C   0  0  0  0  0  0  0  0  0  0  0  0
    3.0846    2.8995   -2.9554 C   0  0  0  0  0  0  0  0  0  0  0  0
    2.0860    2.4095   -2.0935 C   0  0  0  0  0  0  0  0  0  0  0  0
    0.7361    3.0008   -1.9495 C   0  0  0  0  0  0  0  0  0  0  0  0
    0.2990    4.1733   -2.5381 C   0  0  0  0  0  0  0  0  0  0  0  0
    1.3995    4.8945   -3.6062 S   0  0  0  0  0  0  0  0  0  0  0  0
    0.0303    2.1025   -1.1946 C   0  0  0  0  0  0  0  0  0  0  0  0
    0.8001    1.0453   -0.8633 C   0  0  0  0  0  0  0  0  0  0  0  0
    0.1462    0.0683   -0.1159 C   0  0  0  0  0  0  0  0  0  0  0  0
   -1.1927    0.4168    0.0999 C   0  0  0  0  0  0  0  0  0  0  0  0
   -1.5313    1.9217   -0.6294 S   0  0  0  0  0  0  0  0  0  0  0  0
    2.0834    1.1999   -1.3769 C   0  0  0  0  0  0  0  0  0  0  0  0
    3.2162    0.2885   -1.1427 C   0  0  0  0  0  0  0  0  0  0  0  0
    3.1319   -1.1030   -1.1195 C   0  0  0  0  0  0  0  0  0  0  0  0
    4.2896   -1.7181   -0.6117 C   0  0  0  0  0  0  0  0  0  0  0  0
    4.5193   -3.1068   -0.4725 C   0  0  0  0  0  0  0  0  0  0  0  0
    3.5575   -4.1197   -0.9564 C   0  0  0  0  0  0  0  0  0  0  0  0
    2.2330   -4.1525   -0.4874 C   0  0  0  0  0  0  0  0  0  0  0  0
    1.3295   -5.0807   -1.0087 C   0  0  0  0  0  0  0  0  0  0  0  0
    1.7388   -5.9859   -1.9933 C   0  0  0  0  0  0  0  0  0  0  0  0
    0.5570   -7.1433   -2.6936 S   0  0  0  0  0  0  0  0  0  0  0  0
    0.8201   -8.4098   -1.4078 C   0  0  0  0  0  0  0  0  0  0  0  0
    0.5547   -9.7935   -1.9858 C   0  0  0  0  0  0  0  0  0  0  0  0
    3.0653   -5.9883   -2.4305 C   0  0  0  0  0  0  0  0  0  0  0  0
    3.4808   -6.8778   -3.3662 F   0  0  0  0  0  0  0  0  0  0  0  0
    3.9686   -5.0607   -1.9104 C   0  0  0  0  0  0  0  0  0  0  0  0
    5.7579   -3.4878    0.0778 C   0  0  0  0  0  0  0  0  0  0  0  0
    6.7313   -2.5668    0.4675 C   0  0  0  0  0  0  0  0  0  0  0  0
    6.5140   -1.1827    0.3041 C   0  0  0  0  0  0  0  0  0  0  0  0
    7.5707   -0.1930    0.5955 C   0  0  0  0  0  0  0  0  0  0  0  0
    8.2048    0.4638   -0.4646 C   0  0  0  0  0  0  0  0  0  0  0  0
    9.2694    1.3339   -0.2158 C   0  0  0  0  0  0  0  0  0  0  0  0
    9.6879    1.5798    1.0955 C   0  0  0  0  0  0  0  0  0  0  0  0
   11.0886    2.6622    1.3973 S   0  0  0  0  0  0  0  0  0  0  0  0
   10.1097    4.2052    1.4626 C   0  0  0  0  0  0  0  0  0  0  0  0
    9.8622    4.7545    0.0596 C   0  0  0  0  0  0  0  0  0  0  0  0
    9.0502    0.9300    2.1612 C   0  0  0  0  0  0  0  0  0  0  0  0
    7.9988    0.0391    1.9114 C   0  0  0  0  0  0  0  0  0  0  0  0
    9.4570    1.1407    3.4402 F   0  0  0  0  0  0  0  0  0  0  0  0
    5.2799   -0.7957   -0.2448 C   0  0  0  0  0  0  0  0  0  0  0  0
    4.7187    0.7643   -0.5405 S   0  0  0  0  0  0  0  0  0  0  0  0
    7.8881   -3.1740    0.9857 C   0  0  0  0  0  0  0  0  0  0  0  0
    7.8169   -4.5642    1.0090 C   0  0  0  0  0  0  0  0  0  0  0  0
    6.3313   -5.0435    0.3840 S   0  0  0  0  0  0  0  0  0  0  0  0
   -3.8394    4.0847   12.0539 H   0  0  0  0  0  0  0  0  0  0  0  0
   -5.2013    4.5561    9.8847 H   0  0  0  0  0  0  0  0  0  0  0  0
   -4.1923    5.1690    7.3661 H   0  0  0  0  0  0  0  0  0  0  0  0
   -5.4350    7.0133    6.3143 H   0  0  0  0  0  0  0  0  0  0  0  0
   -8.4636    6.5929    2.9645 H   0  0  0  0  0  0  0  0  0  0  0  0
   -6.8868    5.9685    3.5592 H   0  0  0  0  0  0  0  0  0  0  0  0
   -6.5469    7.8281    1.9585 H   0  0  0  0  0  0  0  0  0  0  0  0
   -5.9773    8.3003    3.6088 H   0  0  0  0  0  0  0  0  0  0  0  0
   -7.5549    8.9234    2.9764 H   0  0  0  0  0  0  0  0  0  0  0  0
   -7.6415    2.6166    6.9696 H   0  0  0  0  0  0  0  0  0  0  0  0
   -3.7734   -2.1394    8.9091 H   0  0  0  0  0  0  0  0  0  0  0  0
   -2.2905   -3.8560    9.8511 H   0  0  0  0  0  0  0  0  0  0  0  0
    0.8955   -3.7561    8.6022 H   0  0  0  0  0  0  0  0  0  0  0  0
    0.8694   -5.4054    9.3369 H   0  0  0  0  0  0  0  0  0  0  0  0
    2.9931   -4.9125   10.5495 H   0  0  0  0  0  0  0  0  0  0  0  0
    3.1853   -4.6918    8.7671 H   0  0  0  0  0  0  0  0  0  0  0  0
    3.0108   -3.2427    9.8387 H   0  0  0  0  0  0  0  0  0  0  0  0
   -0.6852    0.8203    9.4888 H   0  0  0  0  0  0  0  0  0  0  0  0
   -3.1095   -1.3876    6.5247 H   0  0  0  0  0  0  0  0  0  0  0  0
   -2.6666   -2.1376    4.2297 H   0  0  0  0  0  0  0  0  0  0  0  0
   -0.8297   -1.2929    2.7230 H   0  0  0  0  0  0  0  0  0  0  0  0
    1.2212   -2.0029    3.8644 H   0  0  0  0  0  0  0  0  0  0  0  0
    3.6848   -4.7857    2.2011 H   0  0  0  0  0  0  0  0  0  0  0  0
    3.4909   -3.0599    2.7095 H   0  0  0  0  0  0  0  0  0  0  0  0
    5.0459   -3.4986    4.6610 H   0  0  0  0  0  0  0  0  0  0  0  0
    5.3410   -5.1599    3.9960 H   0  0  0  0  0  0  0  0  0  0  0  0
    5.8251   -3.6965    3.0512 H   0  0  0  0  0  0  0  0  0  0  0  0
   -1.5024   -5.3384    1.4018 H   0  0  0  0  0  0  0  0  0  0  0  0
   -7.6615   -2.7412    0.7206 H   0  0  0  0  0  0  0  0  0  0  0  0
   -9.7061   -1.8400   -0.3066 H   0  0  0  0  0  0  0  0  0  0  0  0
  -11.1527   -1.0343   -3.9934 H   0  0  0  0  0  0  0  0  0  0  0  0
   -9.7810   -1.9110   -3.2405 H   0  0  0  0  0  0  0  0  0  0  0  0
   -9.2667   -1.1264   -5.5740 H   0  0  0  0  0  0  0  0  0  0  0  0
   -8.1639   -0.3655   -4.3718 H   0  0  0  0  0  0  0  0  0  0  0  0
   -9.5466    0.5809   -5.0614 H   0  0  0  0  0  0  0  0  0  0  0  0
   -5.3180    0.2290   -1.3363 H   0  0  0  0  0  0  0  0  0  0  0  0
   -4.9165   -2.1724   -2.4997 H   0  0  0  0  0  0  0  0  0  0  0  0
   -0.4710   -3.6052   -3.7985 H   0  0  0  0  0  0  0  0  0  0  0  0
    1.0476   -4.4962   -6.8549 H   0  0  0  0  0  0  0  0  0  0  0  0
    3.1867   -5.6795   -6.5542 H   0  0  0  0  0  0  0  0  0  0  0  0
    6.3031   -2.8373   -6.1691 H   0  0  0  0  0  0  0  0  0  0  0  0
    5.6225   -3.9564   -7.4180 H   0  0  0  0  0  0  0  0  0  0  0  0
    8.0854   -3.6548   -7.6994 H   0  0  0  0  0  0  0  0  0  0  0  0
    8.3519   -4.2600   -6.0187 H   0  0  0  0  0  0  0  0  0  0  0  0
    7.6780   -5.3677   -7.2836 H   0  0  0  0  0  0  0  0  0  0  0  0
    2.4036   -1.3914   -4.1994 H   0  0  0  0  0  0  0  0  0  0  0  0
   -2.9600    0.3259   -8.9006 H   0  0  0  0  0  0  0  0  0  0  0  0
   -4.8108    1.9123   -9.2645 H   0  0  0  0  0  0  0  0  0  0  0  0
   -7.0239    2.1131   -5.9085 H   0  0  0  0  0  0  0  0  0  0  0  0
   -8.3047    3.2200   -6.5246 H   0  0  0  0  0  0  0  0  0  0  0  0
   -8.6586    0.9807   -7.4516 H   0  0  0  0  0  0  0  0  0  0  0  0
   -8.1802    2.1005   -8.7888 H   0  0  0  0  0  0  0  0  0  0  0  0
   -6.9823    0.9262   -8.1017 H   0  0  0  0  0  0  0  0  0  0  0  0
   -2.5681    1.7138   -4.8394 H   0  0  0  0  0  0  0  0  0  0  0  0
   -0.3347    2.0636   -7.8896 H   0  0  0  0  0  0  0  0  0  0  0  0
    1.8383    2.4827   -5.7609 H   0  0  0  0  0  0  0  0  0  0  0  0
    5.5328    4.2539   -9.0271 H   0  0  0  0  0  0  0  0  0  0  0  0
    5.2072    6.1946   -3.1455 H   0  0  0  0  0  0  0  0  0  0  0  0
    7.1975    7.3892   -4.4001 H   0  0  0  0  0  0  0  0  0  0  0  0
    3.9931    2.3268   -3.0932 H   0  0  0  0  0  0  0  0  0  0  0  0
   -0.7007    4.5653   -2.3903 H   0  0  0  0  0  0  0  0  0  0  0  0
    0.6052   -0.8443    0.2407 H   0  0  0  0  0  0  0  0  0  0  0  0
   -1.9146   -0.1757    0.6514 H   0  0  0  0  0  0  0  0  0  0  0  0
    2.2533   -1.6416   -1.4545 H   0  0  0  0  0  0  0  0  0  0  0  0
    1.9026   -3.4564    0.2770 H   0  0  0  0  0  0  0  0  0  0  0  0
    0.3131   -5.1041   -0.6430 H   0  0  0  0  0  0  0  0  0  0  0  0
    0.1186   -8.2172   -0.5650 H   0  0  0  0  0  0  0  0  0  0  0  0
    1.8662   -8.3815   -1.0257 H   0  0  0  0  0  0  0  0  0  0  0  0
   -0.4797   -9.8540   -2.3916 H   0  0  0  0  0  0  0  0  0  0  0  0
    1.2784  -10.0058   -2.8014 H   0  0  0  0  0  0  0  0  0  0  0  0
    0.6710  -10.5567   -1.1859 H   0  0  0  0  0  0  0  0  0  0  0  0
    4.9864   -5.0576   -2.2753 H   0  0  0  0  0  0  0  0  0  0  0  0
    7.8947    0.2816   -1.4851 H   0  0  0  0  0  0  0  0  0  0  0  0
    9.7710    1.8101   -1.0468 H   0  0  0  0  0  0  0  0  0  0  0  0
    9.1406    4.0393    1.9839 H   0  0  0  0  0  0  0  0  0  0  0  0
   10.6864    4.9569    2.0440 H   0  0  0  0  0  0  0  0  0  0  0  0
    9.3913    5.7582    0.1316 H   0  0  0  0  0  0  0  0  0  0  0  0
    9.1772    4.0899   -0.5073 H   0  0  0  0  0  0  0  0  0  0  0  0
   10.8195    4.8461   -0.4989 H   0  0  0  0  0  0  0  0  0  0  0  0
    7.5291   -0.4789    2.7383 H   0  0  0  0  0  0  0  0  0  0  0  0
    8.7539   -2.6288    1.3376 H   0  0  0  0  0  0  0  0  0  0  0  0
    8.5935   -5.2226    1.3699 H   0  0  0  0  0  0  0  0  0  0  0  0
  1  2  2  0
  2  3  1  0
  3  4  2  0
  4  5  1  0
  5  6  2  0
  6  7  1  0
  7  8  2  0
  8  9  1  0
  9 10  1  0
 10 11  1  0
  8 12  1  0
 12 13  1  0
 12 14  2  0
  4 15  1  0
 15 16  2  0
 16 17  1  0
 17 18  1  0
 18 19  2  0
 19 20  1  0
 20 21  2  0
 21 22  1  0
 22 23  1  0
 23 24  1  0
 21 25  1  0
 25 26  2  0
 25 27  1  0
 17 28  2  0
 28 29  1  0
 16 30  1  0
 30 31  2  0
 31 32  1  0
 31 33  1  0
 33 34  2  0
 34 35  1  0
 35 36  2  0
 36 37  1  0
 37 38  2  0
 38 39  1  0
 39 40  2  0
 40 41  1  0
 41 42  1  0
 42 43  1  0
 40 44  1  0
 44 45  1  0
 44 46  2  0
 36 47  1  0
 47 48  2  0
 48 49  1  0
 49 50  1  0
 50 51  2  0
 51 52  1  0
 52 53  2  0
 53 54  1  0
 54 55  1  0
 55 56  1  0
 53 57  1  0
 57 58  2  0
 57 59  1  0
 49 60  2  0
 60 61  1  0
 48 62  1  0
 62 63  2  0
 63 64  1  0
 63 65  1  0
 65 66  2  0
 66 67  1  0
 67 68  2  0
 68 69  1  0
 69 70  2  0
 70 71  1  0
 71 72  2  0
 72 73  1  0
 73 74  1  0
 74 75  1  0
 72 76  1  0
 76 77  1  0
 76 78  2  0
 68 79  1  0
 79 80  2  0
 80 81  1  0
 81 82  1  0
 82 83  2  0
 83 84  1  0
 84 85  2  0
 85 86  1  0
 86 87  1  0
 87 88  1  0
 85 89  1  0
 89 90  2  0
 89 91  1  0
 81 92  2  0
 92 93  1  0
 80 94  1  0
 94 95  2  0
 95 96  1  0
 95 97  1  0
 97 98  2  0
 98 99  1  0
 99100  1  0
100101  2  0
101102  1  0
100103  1  0
103104  2  0
104105  1  0
105106  2  0
106107  1  0
104108  1  0
108109  1  0
109110  2  0
110111  1  0
111112  1  0
112113  2  0
113114  1  0
112115  1  0
115116  2  0
116117  1  0
117118  2  0
118119  1  0
116120  1  0
120121  1  0
121122  2  0
122123  1  0
123124  2  0
124125  1  0
125126  2  0
126127  1  0
127128  2  0
128129  1  0
129130  1  0
130131  1  0
128132  1  0
132133  1  0
132134  2  0
124135  1  0
135136  2  0
136137  1  0
137138  1  0
138139  2  0
139140  1  0
140141  2  0
141142  1  0
142143  1  0
143144  1  0
141145  1  0
145146  2  0
145147  1  0
137148  2  0
148149  1  0
136150  1  0
150151  2  0
151152  1  0
 29  1  1  0
 61 33  1  0
 93 65  1  0
102 97  1  0
107103  1  0
114109  1  0
119115  1  0
149121  1  0
 28  3  1  0
 60 35  1  0
 92 67  1  0
108 99  2  0
120111  2  0
148123  1  0
 14  5  1  0
 32 15  1  0
 46 37  1  0
 64 47  1  0
 78 69  1  0
 96 79  1  0
134125  1  0
152135  1  0
 26 18  1  0
 58 50  1  0
 90 82  1  0
146138  1  0
  1153  1  0
  2154  1  0
  6155  1  0
  7156  1  0
 10157  1  0
 10158  1  0
 11159  1  0
 11160  1  0
 11161  1  0
 14162  1  0
 19163  1  0
 20164  1  0
 23165  1  0
 23166  1  0
 24167  1  0
 24168  1  0
 24169  1  0
 26170  1  0
 30171  1  0
 34172  1  0
 38173  1  0
 39174  1  0
 42175  1  0
 42176  1  0
 43177  1  0
 43178  1  0
 43179  1  0
 46180  1  0
 51181  1  0
 52182  1  0
 55183  1  0
 55184  1  0
 56185  1  0
 56186  1  0
 56187  1  0
 58188  1  0
 62189  1  0
 66190  1  0
 70191  1  0
 71192  1  0
 74193  1  0
 74194  1  0
 75195  1  0
 75196  1  0
 75197  1  0
 78198  1  0
 83199  1  0
 84200  1  0
 87201  1  0
 87202  1  0
 88203  1  0
 88204  1  0
 88205  1  0
 90206  1  0
 94207  1  0
 98208  1  0
101209  1  0
105210  1  0
106211  1  0
110212  1  0
113213  1  0
117214  1  0
118215  1  0
122216  1  0
126217  1  0
127218  1  0
130219  1  0
130220  1  0
131221  1  0
131222  1  0
131223  1  0
134224  1  0
139225  1  0
140226  1  0
143227  1  0
143228  1  0
144229  1  0
144230  1  0
144231  1  0
146232  1  0
150233  1  0
151234  1  0
M  END

