
     RDKit          3D

203223  0  0  0  0  0  0  0  0999 V2000
    0.9185   -9.3108    6.6843 C   0  0  0  0  0  0  0  0  0  0  0  0
    1.7010   -8.2347    6.2754 C   0  0  0  0  0  0  0  0  0  0  0  0
    1.1723   -6.9927    6.6618 C   0  0  0  0  0  0  0  0  0  0  0  0
    1.7312   -5.7289    6.3932 C   0  0  0  0  0  0  0  0  0  0  0  0
    3.0009   -5.5813    5.6673 C   0  0  0  0  0  0  0  0  0  0  0  0
    4.2090   -5.5107    6.3749 C   0  0  0  0  0  0  0  0  0  0  0  0
    5.4200   -5.4149    5.6840 C   0  0  0  0  0  0  0  0  0  0  0  0
    5.4312   -5.3913    4.2832 C   0  0  0  0  0  0  0  0  0  0  0  0
    6.9948   -5.3347    3.4057 S   0  0  0  0  0  0  0  0  0  0  0  0
    7.2895   -7.1379    3.4849 C   0  0  0  0  0  0  0  0  0  0  0  0
    6.4778   -7.8815    2.4310 C   0  0  0  0  0  0  0  0  0  0  0  0
    4.2197   -5.4214    3.5778 C   0  0  0  0  0  0  0  0  0  0  0  0
    4.2132   -5.3643    2.2223 F   0  0  0  0  0  0  0  0  0  0  0  0
    3.0082   -5.5206    4.2674 C   0  0  0  0  0  0  0  0  0  0  0  0
    1.0288   -4.6080    6.8603 C   0  0  0  0  0  0  0  0  0  0  0  0
   -0.1706   -4.7150    7.5673 C   0  0  0  0  0  0  0  0  0  0  0  0
   -0.7301   -5.9785    7.8442 C   0  0  0  0  0  0  0  0  0  0  0  0
   -1.9906   -6.1209    8.6005 C   0  0  0  0  0  0  0  0  0  0  0  0
   -3.1915   -5.6258    8.0693 C   0  0  0  0  0  0  0  0  0  0  0  0
   -4.3777   -5.7305    8.8015 C   0  0  0  0  0  0  0  0  0  0  0  0
   -4.3751   -6.3284   10.0652 C   0  0  0  0  0  0  0  0  0  0  0  0
   -5.9059   -6.4409   10.9967 S   0  0  0  0  0  0  0  0  0  0  0  0
   -6.4632   -7.9959   10.2156 C   0  0  0  0  0  0  0  0  0  0  0  0
   -5.7605   -9.2027   10.8238 C   0  0  0  0  0  0  0  0  0  0  0  0
   -3.1742   -6.8124   10.6057 C   0  0  0  0  0  0  0  0  0  0  0  0
   -1.9882   -6.7189    9.8705 C   0  0  0  0  0  0  0  0  0  0  0  0
   -3.1478   -7.3645   11.8442 F   0  0  0  0  0  0  0  0  0  0  0  0
   -0.0235   -7.1011    7.3779 C   0  0  0  0  0  0  0  0  0  0  0  0
   -0.4259   -8.7278    7.5209 S   0  0  0  0  0  0  0  0  0  0  0  0
   -0.6890   -3.4728    7.9577 C   0  0  0  0  0  0  0  0  0  0  0  0
    0.1017   -2.3946    7.5603 C   0  0  0  0  0  0  0  0  0  0  0  0
    1.4372   -2.9836    6.7067 S   0  0  0  0  0  0  0  0  0  0  0  0
   -0.2417   -0.9789    7.8117 C   0  0  0  0  0  0  0  0  0  0  0  0
   -1.8108   -0.4596    8.1343 S   0  0  0  0  0  0  0  0  0  0  0  0
   -1.4778    1.1701    8.3771 C   0  0  0  0  0  0  0  0  0  0  0  0
   -0.0988    1.3335    8.2249 C   0  0  0  0  0  0  0  0  0  0  0  0
    0.5962    0.1413    7.9136 C   0  0  0  0  0  0  0  0  0  0  0  0
    1.9949    0.1548    7.8010 C   0  0  0  0  0  0  0  0  0  0  0  0
    2.6844    1.3628    7.9568 C   0  0  0  0  0  0  0  0  0  0  0  0
    1.9920    2.5507    8.2360 C   0  0  0  0  0  0  0  0  0  0  0  0
    2.6749    3.7123    8.3814 F   0  0  0  0  0  0  0  0  0  0  0  0
    0.5969    2.5397    8.3767 C   0  0  0  0  0  0  0  0  0  0  0  0
   -2.4228    2.1698    8.9230 C   0  0  0  0  0  0  0  0  0  0  0  0
   -3.7384    2.2046    8.6740 C   0  0  0  0  0  0  0  0  0  0  0  0
   -4.3982    1.3935    7.6430 C   0  0  0  0  0  0  0  0  0  0  0  0
   -4.6544    1.9114    6.0645 S   0  0  0  0  0  0  0  0  0  0  0  0
   -5.5230    0.5600    5.5350 C   0  0  0  0  0  0  0  0  0  0  0  0
   -5.6757   -0.2934    6.6312 C   0  0  0  0  0  0  0  0  0  0  0  0
   -5.0542    0.1746    7.8065 C   0  0  0  0  0  0  0  0  0  0  0  0
   -5.1256   -0.5654    8.9932 C   0  0  0  0  0  0  0  0  0  0  0  0
   -5.8120   -1.7870    8.9933 C   0  0  0  0  0  0  0  0  0  0  0  0
   -6.4297   -2.2591    7.8229 C   0  0  0  0  0  0  0  0  0  0  0  0
   -7.1009   -3.4379    7.8437 F   0  0  0  0  0  0  0  0  0  0  0  0
   -6.3643   -1.5129    6.6359 C   0  0  0  0  0  0  0  0  0  0  0  0
   -6.1537    0.4016    4.2056 C   0  0  0  0  0  0  0  0  0  0  0  0
   -5.6486    0.8786    3.0606 C   0  0  0  0  0  0  0  0  0  0  0  0
   -4.2919    1.4356    2.9226 C   0  0  0  0  0  0  0  0  0  0  0  0
   -2.8701    0.6984    3.4572 S   0  0  0  0  0  0  0  0  0  0  0  0
   -1.8137    1.9051    2.9502 C   0  0  0  0  0  0  0  0  0  0  0  0
   -2.5712    2.9295    2.3760 C   0  0  0  0  0  0  0  0  0  0  0  0
   -3.9498    2.6481    2.3284 C   0  0  0  0  0  0  0  0  0  0  0  0
   -4.8434    3.5687    1.7701 C   0  0  0  0  0  0  0  0  0  0  0  0
   -4.3490    4.7796    1.2638 C   0  0  0  0  0  0  0  0  0  0  0  0
   -2.9771    5.0709    1.3317 C   0  0  0  0  0  0  0  0  0  0  0  0
   -2.5146    6.2478    0.8403 F   0  0  0  0  0  0  0  0  0  0  0  0
   -2.0829    4.1520    1.8984 C   0  0  0  0  0  0  0  0  0  0  0  0
   -0.3780    1.9113    3.2631 C   0  0  0  0  0  0  0  0  0  0  0  0
    0.6199    1.9968    2.3725 C   0  0  0  0  0  0  0  0  0  0  0  0
    0.5026    2.0123    0.8954 C   0  0  0  0  0  0  0  0  0  0  0  0
    1.5946    2.2040    0.0495 C   0  0  0  0  0  0  0  0  0  0  0  0
    1.2620    2.1357   -1.3148 C   0  0  0  0  0  0  0  0  0  0  0  0
    2.1563    2.2469   -2.3990 C   0  0  0  0  0  0  0  0  0  0  0  0
    3.5887    2.5470   -2.1947 C   0  0  0  0  0  0  0  0  0  0  0  0
    3.9719    3.7685   -1.6215 C   0  0  0  0  0  0  0  0  0  0  0  0
    5.3199    4.0397   -1.3760 C   0  0  0  0  0  0  0  0  0  0  0  0
    6.3006    3.0938   -1.7048 C   0  0  0  0  0  0  0  0  0  0  0  0
    8.0226    3.4336   -1.3179 S   0  0  0  0  0  0  0  0  0  0  0  0
    8.3729    4.3508   -2.8593 C   0  0  0  0  0  0  0  0  0  0  0  0
    8.7313    3.3926   -3.9883 C   0  0  0  0  0  0  0  0  0  0  0  0
    5.9220    1.8728   -2.2843 C   0  0  0  0  0  0  0  0  0  0  0  0
    6.8576    0.9364   -2.5823 F   0  0  0  0  0  0  0  0  0  0  0  0
    4.5702    1.6022   -2.5310 C   0  0  0  0  0  0  0  0  0  0  0  0
    1.6157    2.0839   -3.6877 C   0  0  0  0  0  0  0  0  0  0  0  0
    0.2508    1.8756   -3.9109 C   0  0  0  0  0  0  0  0  0  0  0  0
   -0.6466    1.7787   -2.8248 C   0  0  0  0  0  0  0  0  0  0  0  0
   -2.1016    1.5902   -3.0136 C   0  0  0  0  0  0  0  0  0  0  0  0
   -3.0059    2.5458   -2.5183 C   0  0  0  0  0  0  0  0  0  0  0  0
   -4.3810    2.3734   -2.6963 C   0  0  0  0  0  0  0  0  0  0  0  0
   -4.8653    1.2486   -3.3722 C   0  0  0  0  0  0  0  0  0  0  0  0
   -6.6332    1.0278   -3.5904 S   0  0  0  0  0  0  0  0  0  0  0  0
   -6.8391    0.1619   -1.9969 C   0  0  0  0  0  0  0  0  0  0  0  0
   -8.2287   -0.4478   -1.9155 C   0  0  0  0  0  0  0  0  0  0  0  0
   -3.9677    0.2944   -3.8721 C   0  0  0  0  0  0  0  0  0  0  0  0
   -2.5911    0.4614   -3.6865 C   0  0  0  0  0  0  0  0  0  0  0  0
   -4.4268   -0.7973   -4.5321 F   0  0  0  0  0  0  0  0  0  0  0  0
   -0.0947    1.8911   -1.5375 C   0  0  0  0  0  0  0  0  0  0  0  0
   -0.8665    1.7225   -0.0552 S   0  0  0  0  0  0  0  0  0  0  0  0
   -0.0803    1.8067   -5.2748 C   0  0  0  0  0  0  0  0  0  0  0  0
    1.0290    1.9278   -6.1113 C   0  0  0  0  0  0  0  0  0  0  0  0
    2.4124    2.1496   -5.1696 S   0  0  0  0  0  0  0  0  0  0  0  0
    1.0063    1.8656   -7.5814 C   0  0  0  0  0  0  0  0  0  0  0  0
   -0.1293    1.9771   -8.3849 C   0  0  0  0  0  0  0  0  0  0  0  0
    0.1567    1.8718   -9.7566 C   0  0  0  0  0  0  0  0  0  0  0  0
   -0.7727    1.9556  -10.8170 C   0  0  0  0  0  0  0  0  0  0  0  0
   -2.2083    2.2270  -10.5851 C   0  0  0  0  0  0  0  0  0  0  0  0
   -2.6090    3.4183   -9.9603 C   0  0  0  0  0  0  0  0  0  0  0  0
   -3.9653    3.6686   -9.7298 C   0  0  0  0  0  0  0  0  0  0  0  0
   -4.9297    2.7300  -10.1163 C   0  0  0  0  0  0  0  0  0  0  0  0
   -6.6672    3.0515   -9.7902 S   0  0  0  0  0  0  0  0  0  0  0  0
   -6.6347    2.4032   -8.0805 C   0  0  0  0  0  0  0  0  0  0  0  0
   -6.7643    0.8855   -8.0616 C   0  0  0  0  0  0  0  0  0  0  0  0
   -4.5354    1.5525  -10.7671 C   0  0  0  0  0  0  0  0  0  0  0  0
   -5.4620    0.6511  -11.1803 F   0  0  0  0  0  0  0  0  0  0  0  0
   -3.1791    1.3008  -10.9939 C   0  0  0  0  0  0  0  0  0  0  0  0
   -0.2661    1.7834  -12.1188 C   0  0  0  0  0  0  0  0  0  0  0  0
    1.0870    1.5478  -12.3769 C   0  0  0  0  0  0  0  0  0  0  0  0
    2.0156    1.4761  -11.3202 C   0  0  0  0  0  0  0  0  0  0  0  0
    3.4468    1.2174  -11.5638 C   0  0  0  0  0  0  0  0  0  0  0  0
    4.2376    2.1809  -12.2070 C   0  0  0  0  0  0  0  0  0  0  0  0
    5.5816    1.9166  -12.4823 C   0  0  0  0  0  0  0  0  0  0  0  0
    6.1449    0.6852  -12.1224 C   0  0  0  0  0  0  0  0  0  0  0  0
    7.8638    0.3441  -12.5112 S   0  0  0  0  0  0  0  0  0  0  0  0
    8.4837    0.9977  -10.9257 C   0  0  0  0  0  0  0  0  0  0  0  0
    9.9977    0.8704  -10.8702 C   0  0  0  0  0  0  0  0  0  0  0  0
    5.3559   -0.2796  -11.4779 C   0  0  0  0  0  0  0  0  0  0  0  0
    4.0137   -0.0130  -11.1968 C   0  0  0  0  0  0  0  0  0  0  0  0
    5.8864   -1.4805  -11.1346 F   0  0  0  0  0  0  0  0  0  0  0  0
    1.5118    1.6427  -10.0184 C   0  0  0  0  0  0  0  0  0  0  0  0
    2.3577    1.6172   -8.5634 S   0  0  0  0  0  0  0  0  0  0  0  0
    1.3695    1.3925  -13.7441 C   0  0  0  0  0  0  0  0  0  0  0  0
    0.2457    1.5251  -14.5537 C   0  0  0  0  0  0  0  0  0  0  0  0
   -1.0983    1.8248  -13.5815 S   0  0  0  0  0  0  0  0  0  0  0  0
    1.1385  -10.3543    6.4953 H   0  0  0  0  0  0  0  0  0  0  0  0
    2.6207   -8.3543    5.7174 H   0  0  0  0  0  0  0  0  0  0  0  0
    4.2132   -5.5456    7.4588 H   0  0  0  0  0  0  0  0  0  0  0  0
    6.3493   -5.3756    6.2380 H   0  0  0  0  0  0  0  0  0  0  0  0
    8.3679   -7.3172    3.2946 H   0  0  0  0  0  0  0  0  0  0  0  0
    7.0524   -7.5309    4.4977 H   0  0  0  0  0  0  0  0  0  0  0  0
    6.7480   -8.9581    2.4474 H   0  0  0  0  0  0  0  0  0  0  0  0
    6.6938   -7.4748    1.4212 H   0  0  0  0  0  0  0  0  0  0  0  0
    5.3923   -7.7966    2.6413 H   0  0  0  0  0  0  0  0  0  0  0  0
    2.0771   -5.5609    3.7144 H   0  0  0  0  0  0  0  0  0  0  0  0
   -3.2060   -5.1571    7.0920 H   0  0  0  0  0  0  0  0  0  0  0  0
   -5.2982   -5.3458    8.3829 H   0  0  0  0  0  0  0  0  0  0  0  0
   -7.5547   -8.0942   10.3844 H   0  0  0  0  0  0  0  0  0  0  0  0
   -6.2907   -7.9680    9.1190 H   0  0  0  0  0  0  0  0  0  0  0  0
   -6.2049  -10.1335   10.4094 H   0  0  0  0  0  0  0  0  0  0  0  0
   -4.6792   -9.1898   10.5755 H   0  0  0  0  0  0  0  0  0  0  0  0
   -5.8881   -9.2036   11.9282 H   0  0  0  0  0  0  0  0  0  0  0  0
   -1.0649   -7.0957   10.2953 H   0  0  0  0  0  0  0  0  0  0  0  0
   -1.6042   -3.3550    8.5234 H   0  0  0  0  0  0  0  0  0  0  0  0
    2.5636   -0.7411    7.6213 H   0  0  0  0  0  0  0  0  0  0  0  0
    3.7647    1.3786    7.8714 H   0  0  0  0  0  0  0  0  0  0  0  0
    0.0765    3.4608    8.6011 H   0  0  0  0  0  0  0  0  0  0  0  0
   -2.0242    2.9189    9.5939 H   0  0  0  0  0  0  0  0  0  0  0  0
   -4.3336    2.9693    9.1554 H   0  0  0  0  0  0  0  0  0  0  0  0
   -4.6518   -0.2108    9.8984 H   0  0  0  0  0  0  0  0  0  0  0  0
   -5.8692   -2.3728    9.9047 H   0  0  0  0  0  0  0  0  0  0  0  0
   -6.8417   -1.8884    5.7406 H   0  0  0  0  0  0  0  0  0  0  0  0
   -7.1185   -0.0851    4.1636 H   0  0  0  0  0  0  0  0  0  0  0  0
   -6.2574    0.8266    2.1660 H   0  0  0  0  0  0  0  0  0  0  0  0
   -5.9067    3.3668    1.7351 H   0  0  0  0  0  0  0  0  0  0  0  0
   -5.0308    5.4969    0.8288 H   0  0  0  0  0  0  0  0  0  0  0  0
   -1.0283    4.3903    1.9466 H   0  0  0  0  0  0  0  0  0  0  0  0
   -0.1146    1.7994    4.3066 H   0  0  0  0  0  0  0  0  0  0  0  0
    1.6262    2.0196    2.7732 H   0  0  0  0  0  0  0  0  0  0  0  0
    2.5994    2.3640    0.4155 H   0  0  0  0  0  0  0  0  0  0  0  0
    3.2241    4.5065   -1.3558 H   0  0  0  0  0  0  0  0  0  0  0  0
    5.6013    4.9794   -0.9170 H   0  0  0  0  0  0  0  0  0  0  0  0
    7.5092    4.9835   -3.1559 H   0  0  0  0  0  0  0  0  0  0  0  0
    9.2375    5.0201   -2.6705 H   0  0  0  0  0  0  0  0  0  0  0  0
    7.8436    2.7942   -4.2857 H   0  0  0  0  0  0  0  0  0  0  0  0
    9.5475    2.7125   -3.6632 H   0  0  0  0  0  0  0  0  0  0  0  0
    9.0813    3.9745   -4.8687 H   0  0  0  0  0  0  0  0  0  0  0  0
    4.2880    0.6500   -2.9631 H   0  0  0  0  0  0  0  0  0  0  0  0
   -2.6453    3.4245   -1.9963 H   0  0  0  0  0  0  0  0  0  0  0  0
   -5.0685    3.1167   -2.3108 H   0  0  0  0  0  0  0  0  0  0  0  0
   -6.0833   -0.6478   -1.9013 H   0  0  0  0  0  0  0  0  0  0  0  0
   -6.7010    0.8859   -1.1652 H   0  0  0  0  0  0  0  0  0  0  0  0
   -9.0040    0.3370   -2.0457 H   0  0  0  0  0  0  0  0  0  0  0  0
   -8.3519   -1.2187   -2.7040 H   0  0  0  0  0  0  0  0  0  0  0  0
   -8.3663   -0.9281   -0.9230 H   0  0  0  0  0  0  0  0  0  0  0  0
   -1.9066   -0.2893   -4.0669 H   0  0  0  0  0  0  0  0  0  0  0  0
   -1.0857    1.6659   -5.6445 H   0  0  0  0  0  0  0  0  0  0  0  0
   -1.1233    2.1321   -7.9895 H   0  0  0  0  0  0  0  0  0  0  0  0
   -1.8733    4.1513   -9.6537 H   0  0  0  0  0  0  0  0  0  0  0  0
   -4.2637    4.5884   -9.2440 H   0  0  0  0  0  0  0  0  0  0  0  0
   -5.7055    2.7127   -7.5575 H   0  0  0  0  0  0  0  0  0  0  0  0
   -7.4951    2.8411   -7.5332 H   0  0  0  0  0  0  0  0  0  0  0  0
   -6.8334    0.5326   -7.0121 H   0  0  0  0  0  0  0  0  0  0  0  0
   -7.6778    0.5723   -8.6076 H   0  0  0  0  0  0  0  0  0  0  0  0
   -5.8757    0.4132   -8.5291 H   0  0  0  0  0  0  0  0  0  0  0  0
   -2.8847    0.3775  -11.4801 H   0  0  0  0  0  0  0  0  0  0  0  0
    3.8084    3.1320  -12.4994 H   0  0  0  0  0  0  0  0  0  0  0  0
    6.1824    2.6649  -12.9825 H   0  0  0  0  0  0  0  0  0  0  0  0
    8.2022    2.0686  -10.8300 H   0  0  0  0  0  0  0  0  0  0  0  0
    8.0355    0.4243  -10.0861 H   0  0  0  0  0  0  0  0  0  0  0  0
   10.4610    1.4575  -11.6915 H   0  0  0  0  0  0  0  0  0  0  0  0
   10.3722    1.2565   -9.8984 H   0  0  0  0  0  0  0  0  0  0  0  0
   10.2929   -0.1957  -10.9653 H   0  0  0  0  0  0  0  0  0  0  0  0
    3.4079   -0.7682  -10.7084 H   0  0  0  0  0  0  0  0  0  0  0  0
    2.3555    1.1888  -14.1394 H   0  0  0  0  0  0  0  0  0  0  0  0
    0.2375    1.4450  -15.6326 H   0  0  0  0  0  0  0  0  0  0  0  0
  1  2  2  0
  2  3  1  0
  3  4  2  0
  4  5  1  0
  5  6  2  0
  6  7  1  0
  7  8  2  0
  8  9  1  0
  9 10  1  0
 10 11  1  0
  8 12  1  0
 12 13  1  0
 12 14  2  0
  4 15  1  0
 15 16  2  0
 16 17  1  0
 17 18  1  0
 18 19  2  0
 19 20  1  0
 20 21  2  0
 21 22  1  0
 22 23  1  0
 23 24  1  0
 21 25  1  0
 25 26  2  0
 25 27  1  0
 17 28  2  0
 28 29  1  0
 16 30  1  0
 30 31  2  0
 31 32  1  0
 31 33  1  0
 33 34  1  0
 34 35  1  0
 35 36  2  0
 36 37  1  0
 37 38  1  0
 38 39  2  0
 39 40  1  0
 40 41  1  0
 40 42  2  0
 35 43  1  0
 43 44  2  3
 44 45  1  0
 45 46  1  0
 46 47  1  0
 47 48  2  0
 48 49  1  0
 49 50  1  0
 50 51  2  0
 51 52  1  0
 52 53  1  0
 52 54  2  0
 47 55  1  0
 55 56  2  3
 56 57  1  0
 57 58  1  0
 58 59  1  0
 59 60  2  0
 60 61  1  0
 61 62  1  0
 62 63  2  0
 63 64  1  0
 64 65  1  0
 64 66  2  0
 59 67  1  0
 67 68  2  3
 68 69  1  0
 69 70  2  0
 70 71  1  0
 71 72  2  0
 72 73  1  0
 73 74  2  0
 74 75  1  0
 75 76  2  0
 76 77  1  0
 77 78  1  0
 78 79  1  0
 76 80  1  0
 80 81  1  0
 80 82  2  0
 72 83  1  0
 83 84  2  0
 84 85  1  0
 85 86  1  0
 86 87  2  0
 87 88  1  0
 88 89  2  0
 89 90  1  0
 90 91  1  0
 91 92  1  0
 89 93  1  0
 93 94  2  0
 93 95  1  0
 85 96  2  0
 96 97  1  0
 84 98  1  0
 98 99  2  0
 99100  1  0
 99101  1  0
101102  2  0
102103  1  0
103104  2  0
104105  1  0
105106  2  0
106107  1  0
107108  2  0
108109  1  0
109110  1  0
110111  1  0
108112  1  0
112113  1  0
112114  2  0
104115  1  0
115116  2  0
116117  1  0
117118  1  0
118119  2  0
119120  1  0
120121  2  0
121122  1  0
122123  1  0
123124  1  0
121125  1  0
125126  2  0
125127  1  0
117128  2  0
128129  1  0
116130  1  0
130131  2  0
131132  1  0
 29  1  1  0
 37 33  2  0
 49 45  2  0
 61 57  2  0
 97 69  1  0
129101  1  0
 28  3  1  0
 42 36  1  0
 54 48  1  0
 66 60  1  0
 96 71  1  0
128103  1  0
 14  5  1  0
 32 15  1  0
 82 73  1  0
100 83  1  0
114105  1  0
132115  1  0
 26 18  1  0
 94 86  1  0
126118  1  0
  1133  1  0
  2134  1  0
  6135  1  0
  7136  1  0
 10137  1  0
 10138  1  0
 11139  1  0
 11140  1  0
 11141  1  0
 14142  1  0
 19143  1  0
 20144  1  0
 23145  1  0
 23146  1  0
 24147  1  0
 24148  1  0
 24149  1  0
 26150  1  0
 30151  1  0
 38152  1  0
 39153  1  0
 42154  1  0
 43155  1  0
 44156  1  0
 50157  1  0
 51158  1  0
 54159  1  0
 55160  1  0
 56161  1  0
 62162  1  0
 63163  1  0
 66164  1  0
 67165  1  0
 68166  1  0
 70167  1  0
 74168  1  0
 75169  1  0
 78170  1  0
 78171  1  0
 79172  1  0
 79173  1  0
 79174  1  0
 82175  1  0
 87176  1  0
 88177  1  0
 91178  1  0
 91179  1  0
 92180  1  0
 92181  1  0
 92182  1  0
 94183  1  0
 98184  1  0
102185  1  0
106186  1  0
107187  1  0
110188  1  0
110189  1  0
111190  1  0
111191  1  0
111192  1  0
114193  1  0
119194  1  0
120195  1  0
123196  1  0
123197  1  0
124198  1  0
124199  1  0
124200  1  0
126201  1  0
130202  1  0
131203  1  0
M  END

