
     RDKit          3D

236259  0  0  0  0  0  0  0  0999 V2000
   -2.6991    2.8230   10.1955 C   0  0  0  0  0  0  0  0  0  0  0  0
   -2.9892    3.0409    8.8501 C   0  0  0  0  0  0  0  0  0  0  0  0
   -3.3629    1.8702    8.1699 C   0  0  0  0  0  0  0  0  0  0  0  0
   -3.6715    1.7619    6.7965 C   0  0  0  0  0  0  0  0  0  0  0  0
   -3.6021    2.9125    5.8636 C   0  0  0  0  0  0  0  0  0  0  0  0
   -2.7461    2.8605    4.7479 C   0  0  0  0  0  0  0  0  0  0  0  0
   -2.7508    3.8933    3.8082 C   0  0  0  0  0  0  0  0  0  0  0  0
   -3.5716    5.0081    3.9912 C   0  0  0  0  0  0  0  0  0  0  0  0
   -3.5899    6.3006    2.7435 S   0  0  0  0  0  0  0  0  0  0  0  0
   -2.1788    7.2055    3.4642 C   0  0  0  0  0  0  0  0  0  0  0  0
   -1.6656    8.2364    2.4720 C   0  0  0  0  0  0  0  0  0  0  0  0
   -4.4034    5.0873    5.1199 C   0  0  0  0  0  0  0  0  0  0  0  0
   -5.2060    6.1629    5.3098 F   0  0  0  0  0  0  0  0  0  0  0  0
   -4.4183    4.0404    6.0484 C   0  0  0  0  0  0  0  0  0  0  0  0
   -3.9690    0.4704    6.3188 C   0  0  0  0  0  0  0  0  0  0  0  0
   -3.9150   -0.6731    7.1226 C   0  0  0  0  0  0  0  0  0  0  0  0
   -3.6029   -0.5658    8.4943 C   0  0  0  0  0  0  0  0  0  0  0  0
   -3.5092   -1.7525    9.3752 C   0  0  0  0  0  0  0  0  0  0  0  0
   -2.5895   -2.7758    9.0839 C   0  0  0  0  0  0  0  0  0  0  0  0
   -2.5383   -3.9218    9.8812 C   0  0  0  0  0  0  0  0  0  0  0  0
   -3.3721   -4.0413   10.9974 C   0  0  0  0  0  0  0  0  0  0  0  0
   -3.3419   -5.5472   11.9778 S   0  0  0  0  0  0  0  0  0  0  0  0
   -1.8872   -5.0720   12.9786 C   0  0  0  0  0  0  0  0  0  0  0  0
   -2.2912   -4.1746   14.1415 C   0  0  0  0  0  0  0  0  0  0  0  0
   -4.2751   -3.0126   11.3075 C   0  0  0  0  0  0  0  0  0  0  0  0
   -4.3401   -1.8733   10.5006 C   0  0  0  0  0  0  0  0  0  0  0  0
   -5.0970   -3.1208   12.3808 F   0  0  0  0  0  0  0  0  0  0  0  0
   -3.3482    0.7302    8.9846 C   0  0  0  0  0  0  0  0  0  0  0  0
   -2.8819    1.1813   10.5383 S   0  0  0  0  0  0  0  0  0  0  0  0
   -4.1548   -1.8601    6.4043 C   0  0  0  0  0  0  0  0  0  0  0  0
   -4.4198   -1.6360    5.0581 C   0  0  0  0  0  0  0  0  0  0  0  0
   -4.3407    0.0150    4.7454 S   0  0  0  0  0  0  0  0  0  0  0  0
   -4.3248   -2.6350    3.9957 C   0  0  0  0  0  0  0  0  0  0  0  0
   -3.1000   -3.1467    3.5723 C   0  0  0  0  0  0  0  0  0  0  0  0
   -3.1157   -3.6113    2.2468 C   0  0  0  0  0  0  0  0  0  0  0  0
   -1.9751   -3.9330    1.4758 C   0  0  0  0  0  0  0  0  0  0  0  0
   -0.6240   -3.8895    2.0846 C   0  0  0  0  0  0  0  0  0  0  0  0
   -0.3246   -4.7186    3.1813 C   0  0  0  0  0  0  0  0  0  0  0  0
    0.8525   -4.5296    3.9080 C   0  0  0  0  0  0  0  0  0  0  0  0
    1.7525   -3.5250    3.5373 C   0  0  0  0  0  0  0  0  0  0  0  0
    3.2126   -3.2231    4.5346 S   0  0  0  0  0  0  0  0  0  0  0  0
    2.4657   -1.8081    5.4173 C   0  0  0  0  0  0  0  0  0  0  0  0
    3.3951   -1.3306    6.5212 C   0  0  0  0  0  0  0  0  0  0  0  0
    1.4927   -2.7426    2.4046 C   0  0  0  0  0  0  0  0  0  0  0  0
    2.3620   -1.7759    2.0275 F   0  0  0  0  0  0  0  0  0  0  0  0
    0.3066   -2.9196    1.6840 C   0  0  0  0  0  0  0  0  0  0  0  0
   -2.1729   -4.0895    0.0877 C   0  0  0  0  0  0  0  0  0  0  0  0
   -3.4362   -3.9732   -0.5084 C   0  0  0  0  0  0  0  0  0  0  0  0
   -4.5776   -3.6887    0.2708 C   0  0  0  0  0  0  0  0  0  0  0  0
   -5.8882   -3.3849   -0.3346 C   0  0  0  0  0  0  0  0  0  0  0  0
   -6.0550   -2.2316   -1.1173 C   0  0  0  0  0  0  0  0  0  0  0  0
   -7.3128   -1.9037   -1.6290 C   0  0  0  0  0  0  0  0  0  0  0  0
   -8.4136   -2.7288   -1.3663 C   0  0  0  0  0  0  0  0  0  0  0  0
  -10.0391   -2.2669   -1.9808 S   0  0  0  0  0  0  0  0  0  0  0  0
   -9.9266   -3.2483   -3.5191 C   0  0  0  0  0  0  0  0  0  0  0  0
   -9.1413   -2.5020   -4.5910 C   0  0  0  0  0  0  0  0  0  0  0  0
   -8.2560   -3.8781   -0.5772 C   0  0  0  0  0  0  0  0  0  0  0  0
   -6.9977   -4.2030   -0.0629 C   0  0  0  0  0  0  0  0  0  0  0  0
   -9.3165   -4.6766   -0.3002 F   0  0  0  0  0  0  0  0  0  0  0  0
   -4.3726   -3.4969    1.6465 C   0  0  0  0  0  0  0  0  0  0  0  0
   -5.4304   -2.7649    2.7337 S   0  0  0  0  0  0  0  0  0  0  0  0
   -3.3928   -3.9887   -1.9085 C   0  0  0  0  0  0  0  0  0  0  0  0
   -2.0991   -4.0211   -2.4293 C   0  0  0  0  0  0  0  0  0  0  0  0
   -1.0158   -4.1406   -1.1340 S   0  0  0  0  0  0  0  0  0  0  0  0
   -1.7518   -3.4261   -3.7341 C   0  0  0  0  0  0  0  0  0  0  0  0
   -0.4520   -3.1219   -4.1603 C   0  0  0  0  0  0  0  0  0  0  0  0
   -0.4061   -2.0499   -5.0719 C   0  0  0  0  0  0  0  0  0  0  0  0
    0.7558   -1.3715   -5.4904 C   0  0  0  0  0  0  0  0  0  0  0  0
    2.0989   -1.9581   -5.3350 C   0  0  0  0  0  0  0  0  0  0  0  0
    2.4370   -3.0908   -6.0946 C   0  0  0  0  0  0  0  0  0  0  0  0
    3.7267   -3.6156   -6.0348 C   0  0  0  0  0  0  0  0  0  0  0  0
    4.6837   -3.0380   -5.1919 C   0  0  0  0  0  0  0  0  0  0  0  0
    6.3343   -3.7416   -5.0927 S   0  0  0  0  0  0  0  0  0  0  0  0
    5.9379   -4.9182   -3.7486 C   0  0  0  0  0  0  0  0  0  0  0  0
    5.2216   -6.1561   -4.2855 C   0  0  0  0  0  0  0  0  0  0  0  0
    4.3561   -1.8946   -4.4477 C   0  0  0  0  0  0  0  0  0  0  0  0
    5.2958   -1.2956   -3.6788 F   0  0  0  0  0  0  0  0  0  0  0  0
    3.0670   -1.3580   -4.5173 C   0  0  0  0  0  0  0  0  0  0  0  0
    0.5748   -0.1091   -6.0845 C   0  0  0  0  0  0  0  0  0  0  0  0
   -0.6906    0.4191   -6.3475 C   0  0  0  0  0  0  0  0  0  0  0  0
   -1.8518   -0.3126   -6.0420 C   0  0  0  0  0  0  0  0  0  0  0  0
   -3.1943    0.2727   -6.2222 C   0  0  0  0  0  0  0  0  0  0  0  0
   -3.8901    0.8029   -5.1234 C   0  0  0  0  0  0  0  0  0  0  0  0
   -5.1441    1.3920   -5.3097 C   0  0  0  0  0  0  0  0  0  0  0  0
   -5.7122    1.4496   -6.5898 C   0  0  0  0  0  0  0  0  0  0  0  0
   -7.3165    2.2299   -6.8209 S   0  0  0  0  0  0  0  0  0  0  0  0
   -8.2968    0.7500   -6.3699 C   0  0  0  0  0  0  0  0  0  0  0  0
   -8.3083   -0.2747   -7.5021 C   0  0  0  0  0  0  0  0  0  0  0  0
   -5.0125    0.9303   -7.6891 C   0  0  0  0  0  0  0  0  0  0  0  0
   -3.7561    0.3456   -7.5026 C   0  0  0  0  0  0  0  0  0  0  0  0
   -5.5384    1.0051   -8.9382 F   0  0  0  0  0  0  0  0  0  0  0  0
   -1.6706   -1.5350   -5.3786 C   0  0  0  0  0  0  0  0  0  0  0  0
   -2.8303   -2.4162   -4.5520 S   0  0  0  0  0  0  0  0  0  0  0  0
   -0.6624    1.7684   -6.7193 C   0  0  0  0  0  0  0  0  0  0  0  0
    0.6176    2.3256   -6.7044 C   0  0  0  0  0  0  0  0  0  0  0  0
    1.7184    1.1111   -6.2937 S   0  0  0  0  0  0  0  0  0  0  0  0
    0.8476    3.7622   -6.4720 C   0  0  0  0  0  0  0  0  0  0  0  0
   -0.2837    4.7218   -5.6760 S   0  0  0  0  0  0  0  0  0  0  0  0
    0.7201    6.0213   -5.3257 C   0  0  0  0  0  0  0  0  0  0  0  0
    1.9827    5.7282   -5.8449 C   0  0  0  0  0  0  0  0  0  0  0  0
    2.0572    4.4677   -6.4812 C   0  0  0  0  0  0  0  0  0  0  0  0
    3.2703    4.0198   -7.0157 C   0  0  0  0  0  0  0  0  0  0  0  0
    4.4110    4.8239   -6.8945 C   0  0  0  0  0  0  0  0  0  0  0  0
    4.3444    6.0659   -6.2421 C   0  0  0  0  0  0  0  0  0  0  0  0
    5.4615    6.8186   -6.1112 F   0  0  0  0  0  0  0  0  0  0  0  0
    3.1274    6.5193   -5.7057 C   0  0  0  0  0  0  0  0  0  0  0  0
    0.3404    7.1283   -4.4313 C   0  0  0  0  0  0  0  0  0  0  0  0
   -0.1675    6.9153   -3.2061 C   0  0  0  0  0  0  0  0  0  0  0  0
   -0.0573    5.6160   -2.5097 C   0  0  0  0  0  0  0  0  0  0  0  0
    1.3569    4.7079   -2.4264 S   0  0  0  0  0  0  0  0  0  0  0  0
    0.7569    3.4390   -1.4887 C   0  0  0  0  0  0  0  0  0  0  0  0
   -0.5857    3.7127   -1.2234 C   0  0  0  0  0  0  0  0  0  0  0  0
   -1.0322    4.9367   -1.7730 C   0  0  0  0  0  0  0  0  0  0  0  0
   -2.3530    5.3592   -1.5865 C   0  0  0  0  0  0  0  0  0  0  0  0
   -3.2229    4.5553   -0.8349 C   0  0  0  0  0  0  0  0  0  0  0  0
   -2.7767    3.3438   -0.2756 C   0  0  0  0  0  0  0  0  0  0  0  0
   -3.6318    2.5799    0.4496 F   0  0  0  0  0  0  0  0  0  0  0  0
   -1.4567    2.9143   -0.4738 C   0  0  0  0  0  0  0  0  0  0  0  0
    1.5412    2.2520   -1.0922 C   0  0  0  0  0  0  0  0  0  0  0  0
    2.8745    2.3239   -1.0527 C   0  0  0  0  0  0  0  0  0  0  0  0
    3.7776    1.1801   -0.8943 C   0  0  0  0  0  0  0  0  0  0  0  0
    5.1303    1.2688   -1.1773 C   0  0  0  0  0  0  0  0  0  0  0  0
    5.7951    0.0424   -1.1068 C   0  0  0  0  0  0  0  0  0  0  0  0
    7.1360   -0.1900   -1.4724 C   0  0  0  0  0  0  0  0  0  0  0  0
    7.9207    0.8623   -2.1679 C   0  0  0  0  0  0  0  0  0  0  0  0
    9.1193    1.3575   -1.6199 C   0  0  0  0  0  0  0  0  0  0  0  0
    9.7106    2.5062   -2.1606 C   0  0  0  0  0  0  0  0  0  0  0  0
    9.0912    3.1849   -3.2132 C   0  0  0  0  0  0  0  0  0  0  0  0
    9.7379    4.7704   -3.7749 S   0  0  0  0  0  0  0  0  0  0  0  0
   10.5825    4.1245   -5.2606 C   0  0  0  0  0  0  0  0  0  0  0  0
   10.1678    4.9451   -6.4721 C   0  0  0  0  0  0  0  0  0  0  0  0
    7.9355    2.6599   -3.8070 C   0  0  0  0  0  0  0  0  0  0  0  0
    7.3093    3.3177   -4.8098 F   0  0  0  0  0  0  0  0  0  0  0  0
    7.3722    1.4892   -3.2962 C   0  0  0  0  0  0  0  0  0  0  0  0
    7.6252   -1.4937   -1.2733 C   0  0  0  0  0  0  0  0  0  0  0  0
    6.8159   -2.5358   -0.8021 C   0  0  0  0  0  0  0  0  0  0  0  0
    5.4495   -2.3156   -0.5158 C   0  0  0  0  0  0  0  0  0  0  0  0
    4.5475   -3.4075   -0.0960 C   0  0  0  0  0  0  0  0  0  0  0  0
    3.4582   -3.7710   -0.9059 C   0  0  0  0  0  0  0  0  0  0  0  0
    2.6255   -4.8238   -0.5280 C   0  0  0  0  0  0  0  0  0  0  0  0
    2.8661   -5.5222    0.6606 C   0  0  0  0  0  0  0  0  0  0  0  0
    1.7738   -6.8641    1.1348 S   0  0  0  0  0  0  0  0  0  0  0  0
    2.8455   -8.1924    0.4736 C   0  0  0  0  0  0  0  0  0  0  0  0
    2.7862   -8.2534   -1.0483 C   0  0  0  0  0  0  0  0  0  0  0  0
    3.9420   -5.1519    1.4820 C   0  0  0  0  0  0  0  0  0  0  0  0
    4.7787   -4.0996    1.1024 C   0  0  0  0  0  0  0  0  0  0  0  0
    4.1824   -5.8141    2.6407 F   0  0  0  0  0  0  0  0  0  0  0  0
    4.9708   -1.0042   -0.6877 C   0  0  0  0  0  0  0  0  0  0  0  0
    3.3952   -0.4173   -0.5010 S   0  0  0  0  0  0  0  0  0  0  0  0
    7.4958   -3.7622   -0.7354 C   0  0  0  0  0  0  0  0  0  0  0  0
    8.8207   -3.6807   -1.1491 C   0  0  0  0  0  0  0  0  0  0  0  0
    9.1576   -2.0958   -1.6143 S   0  0  0  0  0  0  0  0  0  0  0  0
   -2.3902    3.5844   10.9017 H   0  0  0  0  0  0  0  0  0  0  0  0
   -2.9126    4.0169    8.3923 H   0  0  0  0  0  0  0  0  0  0  0  0
   -2.0993    2.0082    4.5901 H   0  0  0  0  0  0  0  0  0  0  0  0
   -2.1071    3.8274    2.9403 H   0  0  0  0  0  0  0  0  0  0  0  0
   -1.3537    6.5030    3.7110 H   0  0  0  0  0  0  0  0  0  0  0  0
   -2.5093    7.7157    4.3940 H   0  0  0  0  0  0  0  0  0  0  0  0
   -2.4509    8.9965    2.2724 H   0  0  0  0  0  0  0  0  0  0  0  0
   -1.3832    7.7418    1.5165 H   0  0  0  0  0  0  0  0  0  0  0  0
   -0.7690    8.7430    2.8869 H   0  0  0  0  0  0  0  0  0  0  0  0
   -5.0901    4.0929    6.8992 H   0  0  0  0  0  0  0  0  0  0  0  0
   -1.9360   -2.6949    8.2230 H   0  0  0  0  0  0  0  0  0  0  0  0
   -1.8358   -4.7128    9.6365 H   0  0  0  0  0  0  0  0  0  0  0  0
   -1.1273   -4.5622   12.3507 H   0  0  0  0  0  0  0  0  0  0  0  0
   -1.4326   -6.0001   13.3820 H   0  0  0  0  0  0  0  0  0  0  0  0
   -3.0505   -4.6815   14.7733 H   0  0  0  0  0  0  0  0  0  0  0  0
   -2.6995   -3.2128   13.7702 H   0  0  0  0  0  0  0  0  0  0  0  0
   -1.3947   -3.9599   14.7636 H   0  0  0  0  0  0  0  0  0  0  0  0
   -5.0641   -1.0970   10.7299 H   0  0  0  0  0  0  0  0  0  0  0  0
   -4.1012   -2.8544    6.8296 H   0  0  0  0  0  0  0  0  0  0  0  0
   -2.1974   -3.0160    4.1540 H   0  0  0  0  0  0  0  0  0  0  0  0
   -1.0284   -5.4775    3.5009 H   0  0  0  0  0  0  0  0  0  0  0  0
    1.0584   -5.1535    4.7704 H   0  0  0  0  0  0  0  0  0  0  0  0
    1.4874   -2.1018    5.8617 H   0  0  0  0  0  0  0  0  0  0  0  0
    2.3021   -0.9728    4.7013 H   0  0  0  0  0  0  0  0  0  0  0  0
    3.5382   -2.1334    7.2748 H   0  0  0  0  0  0  0  0  0  0  0  0
    4.3793   -1.0413    6.0951 H   0  0  0  0  0  0  0  0  0  0  0  0
    2.9522   -0.4387    7.0153 H   0  0  0  0  0  0  0  0  0  0  0  0
    0.0865   -2.2526    0.8572 H   0  0  0  0  0  0  0  0  0  0  0  0
   -5.2140   -1.5746   -1.3080 H   0  0  0  0  0  0  0  0  0  0  0  0
   -7.4327   -1.0025   -2.2170 H   0  0  0  0  0  0  0  0  0  0  0  0
  -10.9589   -3.4205   -3.8889 H   0  0  0  0  0  0  0  0  0  0  0  0
   -9.4653   -4.2409   -3.3263 H   0  0  0  0  0  0  0  0  0  0  0  0
   -8.0749   -2.4063   -4.2987 H   0  0  0  0  0  0  0  0  0  0  0  0
   -9.5791   -1.4949   -4.7473 H   0  0  0  0  0  0  0  0  0  0  0  0
   -9.1905   -3.0662   -5.5478 H   0  0  0  0  0  0  0  0  0  0  0  0
   -6.8852   -5.0856    0.5564 H   0  0  0  0  0  0  0  0  0  0  0  0
   -4.2656   -3.8283   -2.5278 H   0  0  0  0  0  0  0  0  0  0  0  0
    0.4307   -3.5494   -3.7056 H   0  0  0  0  0  0  0  0  0  0  0  0
    1.7039   -3.5479   -6.7512 H   0  0  0  0  0  0  0  0  0  0  0  0
    3.9819   -4.4758   -6.6420 H   0  0  0  0  0  0  0  0  0  0  0  0
    5.3235   -4.4316   -2.9635 H   0  0  0  0  0  0  0  0  0  0  0  0
    6.8927   -5.2368   -3.2831 H   0  0  0  0  0  0  0  0  0  0  0  0
    5.1432   -6.9194   -3.4817 H   0  0  0  0  0  0  0  0  0  0  0  0
    5.7911   -6.5888   -5.1346 H   0  0  0  0  0  0  0  0  0  0  0  0
    4.1951   -5.9008   -4.6151 H   0  0  0  0  0  0  0  0  0  0  0  0
    2.8227   -0.4748   -3.9359 H   0  0  0  0  0  0  0  0  0  0  0  0
   -3.4594    0.7666   -4.1306 H   0  0  0  0  0  0  0  0  0  0  0  0
   -5.6722    1.8119   -4.4593 H   0  0  0  0  0  0  0  0  0  0  0  0
   -7.9038    0.2894   -5.4337 H   0  0  0  0  0  0  0  0  0  0  0  0
   -9.3429    1.0744   -6.1748 H   0  0  0  0  0  0  0  0  0  0  0  0
   -8.5953    0.2143   -8.4588 H   0  0  0  0  0  0  0  0  0  0  0  0
   -7.3077   -0.7479   -7.6054 H   0  0  0  0  0  0  0  0  0  0  0  0
   -9.0491   -1.0713   -7.2756 H   0  0  0  0  0  0  0  0  0  0  0  0
   -3.2185   -0.0517   -8.3559 H   0  0  0  0  0  0  0  0  0  0  0  0
   -1.5589    2.3679   -6.8444 H   0  0  0  0  0  0  0  0  0  0  0  0
    3.3392    3.0699   -7.5330 H   0  0  0  0  0  0  0  0  0  0  0  0
    5.3524    4.4804   -7.3017 H   0  0  0  0  0  0  0  0  0  0  0  0
    3.0871    7.4769   -5.1942 H   0  0  0  0  0  0  0  0  0  0  0  0
    0.3772    8.1354   -4.8211 H   0  0  0  0  0  0  0  0  0  0  0  0
   -0.5964    7.7492   -2.6647 H   0  0  0  0  0  0  0  0  0  0  0  0
   -2.7065    6.2895   -2.0123 H   0  0  0  0  0  0  0  0  0  0  0  0
   -4.2467    4.8715   -0.6820 H   0  0  0  0  0  0  0  0  0  0  0  0
   -1.1279    1.9782   -0.0395 H   0  0  0  0  0  0  0  0  0  0  0  0
    1.0352    1.3191   -0.8863 H   0  0  0  0  0  0  0  0  0  0  0  0
    3.3579    3.2774   -1.2392 H   0  0  0  0  0  0  0  0  0  0  0  0
    5.6023    2.2001   -1.4620 H   0  0  0  0  0  0  0  0  0  0  0  0
    9.5614    0.8860   -0.7534 H   0  0  0  0  0  0  0  0  0  0  0  0
   10.6052    2.9118   -1.7005 H   0  0  0  0  0  0  0  0  0  0  0  0
   10.3393    3.0560   -5.4486 H   0  0  0  0  0  0  0  0  0  0  0  0
   11.6790    4.2096   -5.1071 H   0  0  0  0  0  0  0  0  0  0  0  0
    9.0799    4.8069   -6.6575 H   0  0  0  0  0  0  0  0  0  0  0  0
   10.7286    4.6116   -7.3719 H   0  0  0  0  0  0  0  0  0  0  0  0
   10.3768    6.0243   -6.2985 H   0  0  0  0  0  0  0  0  0  0  0  0
    6.4561    1.1148   -3.7397 H   0  0  0  0  0  0  0  0  0  0  0  0
    3.2715   -3.2529   -1.8384 H   0  0  0  0  0  0  0  0  0  0  0  0
    1.8012   -5.1106   -1.1702 H   0  0  0  0  0  0  0  0  0  0  0  0
    2.4868   -9.1587    0.8859 H   0  0  0  0  0  0  0  0  0  0  0  0
    3.8959   -8.0467    0.8115 H   0  0  0  0  0  0  0  0  0  0  0  0
    1.7310   -8.3123   -1.3914 H   0  0  0  0  0  0  0  0  0  0  0  0
    3.2748   -7.3621   -1.4943 H   0  0  0  0  0  0  0  0  0  0  0  0
    3.3289   -9.1577   -1.4018 H   0  0  0  0  0  0  0  0  0  0  0  0
    5.6078   -3.8164    1.7446 H   0  0  0  0  0  0  0  0  0  0  0  0
    7.0400   -4.6928   -0.4209 H   0  0  0  0  0  0  0  0  0  0  0  0
    9.5194   -4.5097   -1.1814 H   0  0  0  0  0  0  0  0  0  0  0  0
  1  2  2  0
  2  3  1  0
  3  4  2  0
  4  5  1  0
  5  6  2  0
  6  7  1  0
  7  8  2  0
  8  9  1  0
  9 10  1  0
 10 11  1  0
  8 12  1  0
 12 13  1  0
 12 14  2  0
  4 15  1  0
 15 16  2  0
 16 17  1  0
 17 18  1  0
 18 19  2  0
 19 20  1  0
 20 21  2  0
 21 22  1  0
 22 23  1  0
 23 24  1  0
 21 25  1  0
 25 26  2  0
 25 27  1  0
 17 28  2  0
 28 29  1  0
 16 30  1  0
 30 31  2  0
 31 32  1  0
 31 33  1  0
 33 34  2  0
 34 35  1  0
 35 36  2  0
 36 37  1  0
 37 38  2  0
 38 39  1  0
 39 40  2  0
 40 41  1  0
 41 42  1  0
 42 43  1  0
 40 44  1  0
 44 45  1  0
 44 46  2  0
 36 47  1  0
 47 48  2  0
 48 49  1  0
 49 50  1  0
 50 51  2  0
 51 52  1  0
 52 53  2  0
 53 54  1  0
 54 55  1  0
 55 56  1  0
 53 57  1  0
 57 58  2  0
 57 59  1  0
 49 60  2  0
 60 61  1  0
 48 62  1  0
 62 63  2  0
 63 64  1  0
 63 65  1  0
 65 66  2  0
 66 67  1  0
 67 68  2  0
 68 69  1  0
 69 70  2  0
 70 71  1  0
 71 72  2  0
 72 73  1  0
 73 74  1  0
 74 75  1  0
 72 76  1  0
 76 77  1  0
 76 78  2  0
 68 79  1  0
 79 80  2  0
 80 81  1  0
 81 82  1  0
 82 83  2  0
 83 84  1  0
 84 85  2  0
 85 86  1  0
 86 87  1  0
 87 88  1  0
 85 89  1  0
 89 90  2  0
 89 91  1  0
 81 92  2  0
 92 93  1  0
 80 94  1  0
 94 95  2  0
 95 96  1  0
 95 97  1  0
 97 98  1  0
 98 99  1  0
 99100  2  0
100101  1  0
101102  1  0
102103  2  0
103104  1  0
104105  1  0
104106  2  0
 99107  1  0
107108  2  3
108109  1  0
109110  1  0
110111  1  0
111112  2  0
112113  1  0
113114  1  0
114115  2  0
115116  1  0
116117  1  0
116118  2  0
111119  1  0
119120  2  3
120121  1  0
121122  2  0
122123  1  0
123124  2  0
124125  1  0
125126  2  0
126127  1  0
127128  2  0
128129  1  0
129130  1  0
130131  1  0
128132  1  0
132133  1  0
132134  2  0
124135  1  0
135136  2  0
136137  1  0
137138  1  0
138139  2  0
139140  1  0
140141  2  0
141142  1  0
142143  1  0
143144  1  0
141145  1  0
145146  2  0
145147  1  0
137148  2  0
148149  1  0
136150  1  0
150151  2  0
151152  1  0
 29  1  1  0
 61 33  1  0
 93 65  1  0
101 97  2  0
113109  2  0
149121  1  0
 28  3  1  0
 60 35  1  0
 92 67  1  0
106100  1  0
118112  1  0
148123  1  0
 14  5  1  0
 32 15  1  0
 46 37  1  0
 64 47  1  0
 78 69  1  0
 96 79  1  0
134125  1  0
152135  1  0
 26 18  1  0
 58 50  1  0
 90 82  1  0
146138  1  0
  1153  1  0
  2154  1  0
  6155  1  0
  7156  1  0
 10157  1  0
 10158  1  0
 11159  1  0
 11160  1  0
 11161  1  0
 14162  1  0
 19163  1  0
 20164  1  0
 23165  1  0
 23166  1  0
 24167  1  0
 24168  1  0
 24169  1  0
 26170  1  0
 30171  1  0
 34172  1  0
 38173  1  0
 39174  1  0
 42175  1  0
 42176  1  0
 43177  1  0
 43178  1  0
 43179  1  0
 46180  1  0
 51181  1  0
 52182  1  0
 55183  1  0
 55184  1  0
 56185  1  0
 56186  1  0
 56187  1  0
 58188  1  0
 62189  1  0
 66190  1  0
 70191  1  0
 71192  1  0
 74193  1  0
 74194  1  0
 75195  1  0
 75196  1  0
 75197  1  0
 78198  1  0
 83199  1  0
 84200  1  0
 87201  1  0
 87202  1  0
 88203  1  0
 88204  1  0
 88205  1  0
 90206  1  0
 94207  1  0
102208  1  0
103209  1  0
106210  1  0
107211  1  0
108212  1  0
114213  1  0
115214  1  0
118215  1  0
119216  1  0
120217  1  0
122218  1  0
126219  1  0
127220  1  0
130221  1  0
130222  1  0
131223  1  0
131224  1  0
131225  1  0
134226  1  0
139227  1  0
140228  1  0
143229  1  0
143230  1  0
144231  1  0
144232  1  0
144233  1  0
146234  1  0
150235  1  0
151236  1  0
M  END

