
     RDKit          3D

112127  0  0  0  0  0  0  0  0999 V2000
   -1.5987    2.4269    5.5825 C   0  0  0  0  0  0  0  0  0  0  0  0
   -1.7967    1.0135    6.4726 S   0  0  0  0  0  0  0  0  0  0  0  0
   -2.8662    0.2594    5.4148 C   0  0  0  0  0  0  0  0  0  0  0  0
   -3.0634    1.1034    4.3162 C   0  0  0  0  0  0  0  0  0  0  0  0
   -2.3619    2.3110    4.4230 C   0  0  0  0  0  0  0  0  0  0  0  0
   -2.4348    3.3295    3.3586 C   0  0  0  0  0  0  0  0  0  0  0  0
   -1.8064    4.4145    3.4844 O   0  0  0  0  0  0  0  0  0  0  0  0
   -3.2482    3.0533    2.1450 C   0  0  0  0  0  0  0  0  0  0  0  0
   -3.3477    4.0058    1.1152 C   0  0  0  0  0  0  0  0  0  0  0  0
   -4.1089    3.7401   -0.0294 C   0  0  0  0  0  0  0  0  0  0  0  0
   -4.7768    2.5246   -0.1622 C   0  0  0  0  0  0  0  0  0  0  0  0
   -4.6937    1.5668    0.8526 C   0  0  0  0  0  0  0  0  0  0  0  0
   -3.9316    1.8179    2.0127 C   0  0  0  0  0  0  0  0  0  0  0  0
   -3.8437    0.8005    3.0957 C   0  0  0  0  0  0  0  0  0  0  0  0
   -4.4012   -0.3188    2.9611 O   0  0  0  0  0  0  0  0  0  0  0  0
   -3.4421   -1.0701    5.6423 C   0  0  0  0  0  0  0  0  0  0  0  0
   -2.5405   -2.4746    5.8358 S   0  0  0  0  0  0  0  0  0  0  0  0
   -3.8451   -3.5369    6.0040 C   0  0  0  0  0  0  0  0  0  0  0  0
   -5.0151   -2.7729    5.9879 C   0  0  0  0  0  0  0  0  0  0  0  0
   -4.7909   -1.3985    5.7803 C   0  0  0  0  0  0  0  0  0  0  0  0
   -5.8629   -0.4954    5.7785 C   0  0  0  0  0  0  0  0  0  0  0  0
   -7.1653   -0.9796    5.9683 C   0  0  0  0  0  0  0  0  0  0  0  0
   -7.3912   -2.3549    6.1535 C   0  0  0  0  0  0  0  0  0  0  0  0
   -8.6592   -2.8098    6.3276 F   0  0  0  0  0  0  0  0  0  0  0  0
   -6.3190   -3.2583    6.1621 C   0  0  0  0  0  0  0  0  0  0  0  0
   -3.7502   -4.9781    6.3164 C   0  0  0  0  0  0  0  0  0  0  0  0
   -2.8224   -5.8091    5.8256 C   0  0  0  0  0  0  0  0  0  0  0  0
   -1.9010   -5.4823    4.7175 C   0  0  0  0  0  0  0  0  0  0  0  0
   -2.3262   -4.7157    3.2775 S   0  0  0  0  0  0  0  0  0  0  0  0
   -0.8118   -4.8061    2.5333 C   0  0  0  0  0  0  0  0  0  0  0  0
    0.0477   -5.4811    3.4059 C   0  0  0  0  0  0  0  0  0  0  0  0
   -0.5647   -5.8609    4.6179 C   0  0  0  0  0  0  0  0  0  0  0  0
    0.1696   -6.5372    5.6028 C   0  0  0  0  0  0  0  0  0  0  0  0
    1.5181   -6.8339    5.3683 C   0  0  0  0  0  0  0  0  0  0  0  0
    2.1271   -6.4615    4.1603 C   0  0  0  0  0  0  0  0  0  0  0  0
    3.4375   -6.7445    3.9511 F   0  0  0  0  0  0  0  0  0  0  0  0
    1.4001   -5.7813    3.1766 C   0  0  0  0  0  0  0  0  0  0  0  0
   -0.4543   -4.2287    1.2231 C   0  0  0  0  0  0  0  0  0  0  0  0
   -1.3064   -3.4976    0.4963 C   0  0  0  0  0  0  0  0  0  0  0  0
   -0.8781   -2.8298   -0.7486 C   0  0  0  0  0  0  0  0  0  0  0  0
    0.7160   -2.4110   -1.0965 S   0  0  0  0  0  0  0  0  0  0  0  0
    0.4060   -1.5819   -2.5160 C   0  0  0  0  0  0  0  0  0  0  0  0
   -0.9694   -1.6249   -2.7602 C   0  0  0  0  0  0  0  0  0  0  0  0
   -1.6919   -2.3208   -1.7721 C   0  0  0  0  0  0  0  0  0  0  0  0
   -3.1569   -2.4962   -1.9067 C   0  0  0  0  0  0  0  0  0  0  0  0
   -3.7951   -3.2103   -1.0877 O   0  0  0  0  0  0  0  0  0  0  0  0
   -3.8668   -1.8546   -3.0425 C   0  0  0  0  0  0  0  0  0  0  0  0
   -5.2657   -1.9620   -3.1607 C   0  0  0  0  0  0  0  0  0  0  0  0
   -5.9340   -1.3587   -4.2278 C   0  0  0  0  0  0  0  0  0  0  0  0
   -5.2188   -0.6383   -5.1843 C   0  0  0  0  0  0  0  0  0  0  0  0
   -3.8303   -0.5245   -5.0843 C   0  0  0  0  0  0  0  0  0  0  0  0
   -3.1391   -1.1357   -4.0228 C   0  0  0  0  0  0  0  0  0  0  0  0
   -1.6602   -1.0415   -3.9310 C   0  0  0  0  0  0  0  0  0  0  0  0
   -0.9983   -0.4906   -4.8527 O   0  0  0  0  0  0  0  0  0  0  0  0
    1.4406   -0.8843   -3.2859 C   0  0  0  0  0  0  0  0  0  0  0  0
    2.7679   -1.6483   -3.9768 S   0  0  0  0  0  0  0  0  0  0  0  0
    3.5020   -0.2605   -4.5754 C   0  0  0  0  0  0  0  0  0  0  0  0
    2.7006    0.8399   -4.2443 C   0  0  0  0  0  0  0  0  0  0  0  0
    1.5655    0.4935   -3.4904 C   0  0  0  0  0  0  0  0  0  0  0  0
    0.6792    1.5438   -2.9413 C   0  0  0  0  0  0  0  0  0  0  0  0
   -0.2734    1.2431   -2.1723 O   0  0  0  0  0  0  0  0  0  0  0  0
    0.9452    2.9668   -3.2718 C   0  0  0  0  0  0  0  0  0  0  0  0
    0.1088    3.9819   -2.7729 C   0  0  0  0  0  0  0  0  0  0  0  0
    0.3583    5.3204   -3.0853 C   0  0  0  0  0  0  0  0  0  0  0  0
    1.4405    5.6589   -3.8996 C   0  0  0  0  0  0  0  0  0  0  0  0
    2.2810    4.6624   -4.3991 C   0  0  0  0  0  0  0  0  0  0  0  0
    2.0442    3.3110   -4.0943 C   0  0  0  0  0  0  0  0  0  0  0  0
    2.9382    2.2492   -4.6278 C   0  0  0  0  0  0  0  0  0  0  0  0
    3.8681    2.5432   -5.4275 O   0  0  0  0  0  0  0  0  0  0  0  0
    4.7913   -0.2651   -5.2856 C   0  0  0  0  0  0  0  0  0  0  0  0
    5.1003   -1.1745   -6.6648 S   0  0  0  0  0  0  0  0  0  0  0  0
    6.7100   -0.7204   -6.8500 C   0  0  0  0  0  0  0  0  0  0  0  0
    7.0332    0.1439   -5.8086 C   0  0  0  0  0  0  0  0  0  0  0  0
    5.9766    0.3874   -4.9193 C   0  0  0  0  0  0  0  0  0  0  0  0
    6.2023    1.1983   -3.7016 C   0  0  0  0  0  0  0  0  0  0  0  0
    5.3062    1.3020   -2.8220 O   0  0  0  0  0  0  0  0  0  0  0  0
    7.5188    1.8583   -3.5050 C   0  0  0  0  0  0  0  0  0  0  0  0
    7.7407    2.6942   -2.3945 C   0  0  0  0  0  0  0  0  0  0  0  0
    8.9815    3.3077   -2.2037 C   0  0  0  0  0  0  0  0  0  0  0  0
   10.0110    3.0995   -3.1207 C   0  0  0  0  0  0  0  0  0  0  0  0
    9.8075    2.2740   -4.2277 C   0  0  0  0  0  0  0  0  0  0  0  0
    8.5689    1.6410   -4.4298 C   0  0  0  0  0  0  0  0  0  0  0  0
    8.3568    0.7534   -5.6038 C   0  0  0  0  0  0  0  0  0  0  0  0
    9.2913    0.5234   -6.4167 O   0  0  0  0  0  0  0  0  0  0  0  0
   -0.9727    3.2660    5.8518 H   0  0  0  0  0  0  0  0  0  0  0  0
   -2.8458    4.9565    1.1918 H   0  0  0  0  0  0  0  0  0  0  0  0
   -4.1750    4.4816   -0.8176 H   0  0  0  0  0  0  0  0  0  0  0  0
   -5.3645    2.3225   -1.0526 H   0  0  0  0  0  0  0  0  0  0  0  0
   -5.2276    0.6324    0.7343 H   0  0  0  0  0  0  0  0  0  0  0  0
   -5.6983    0.5634    5.6386 H   0  0  0  0  0  0  0  0  0  0  0  0
   -8.0016   -0.2925    5.9755 H   0  0  0  0  0  0  0  0  0  0  0  0
   -6.5115   -4.3113    6.3141 H   0  0  0  0  0  0  0  0  0  0  0  0
   -4.4545   -5.3828    7.0330 H   0  0  0  0  0  0  0  0  0  0  0  0
   -2.7785   -6.8093    6.2310 H   0  0  0  0  0  0  0  0  0  0  0  0
   -0.2859   -6.8301    6.5379 H   0  0  0  0  0  0  0  0  0  0  0  0
    2.0932   -7.3575    6.1181 H   0  0  0  0  0  0  0  0  0  0  0  0
    1.8942   -5.4943    2.2593 H   0  0  0  0  0  0  0  0  0  0  0  0
    0.5522   -4.3843    0.8599 H   0  0  0  0  0  0  0  0  0  0  0  0
   -2.3177   -3.3496    0.8474 H   0  0  0  0  0  0  0  0  0  0  0  0
   -5.8391   -2.5166   -2.4299 H   0  0  0  0  0  0  0  0  0  0  0  0
   -7.0105   -1.4494   -4.3131 H   0  0  0  0  0  0  0  0  0  0  0  0
   -5.7394   -0.1704   -6.0084 H   0  0  0  0  0  0  0  0  0  0  0  0
   -3.2968    0.0417   -5.8389 H   0  0  0  0  0  0  0  0  0  0  0  0
   -0.7378    3.7442   -2.1404 H   0  0  0  0  0  0  0  0  0  0  0  0
   -0.2877    6.0968   -2.6957 H   0  0  0  0  0  0  0  0  0  0  0  0
    1.6345    6.6967   -4.1374 H   0  0  0  0  0  0  0  0  0  0  0  0
    3.1178    4.9485   -5.0249 H   0  0  0  0  0  0  0  0  0  0  0  0
    7.3735   -1.0572   -7.6350 H   0  0  0  0  0  0  0  0  0  0  0  0
    6.9559    2.8729   -1.6714 H   0  0  0  0  0  0  0  0  0  0  0  0
    9.1425    3.9505   -1.3472 H   0  0  0  0  0  0  0  0  0  0  0  0
   10.9692    3.5784   -2.9689 H   0  0  0  0  0  0  0  0  0  0  0  0
   10.6216    2.1239   -4.9246 H   0  0  0  0  0  0  0  0  0  0  0  0
  1  2  1  0
  2  3  1  0
  3  4  2  0
  4  5  1  0
  5  6  1  0
  6  7  2  0
  6  8  1  0
  8  9  2  0
  9 10  1  0
 10 11  2  0
 11 12  1  0
 12 13  2  0
 13 14  1  0
 14 15  2  0
  3 16  1  0
 16 17  1  0
 17 18  1  0
 18 19  2  0
 19 20  1  0
 20 21  1  0
 21 22  2  0
 22 23  1  0
 23 24  1  0
 23 25  2  0
 18 26  1  0
 26 27  2  3
 27 28  1  0
 28 29  1  0
 29 30  1  0
 30 31  2  0
 31 32  1  0
 32 33  1  0
 33 34  2  0
 34 35  1  0
 35 36  1  0
 35 37  2  0
 30 38  1  0
 38 39  2  3
 39 40  1  0
 40 41  1  0
 41 42  1  0
 42 43  2  0
 43 44  1  0
 44 45  1  0
 45 46  2  0
 45 47  1  0
 47 48  2  0
 48 49  1  0
 49 50  2  0
 50 51  1  0
 51 52  2  0
 52 53  1  0
 53 54  2  0
 42 55  1  0
 55 56  1  0
 56 57  1  0
 57 58  2  0
 58 59  1  0
 59 60  1  0
 60 61  2  0
 60 62  1  0
 62 63  2  0
 63 64  1  0
 64 65  2  0
 65 66  1  0
 66 67  2  0
 67 68  1  0
 68 69  2  0
 57 70  1  0
 70 71  1  0
 71 72  1  0
 72 73  2  0
 73 74  1  0
 74 75  1  0
 75 76  2  0
 75 77  1  0
 77 78  2  0
 78 79  1  0
 79 80  2  0
 80 81  1  0
 81 82  2  0
 82 83  1  0
 83 84  2  0
  5  1  2  0
 13  8  1  0
 20 16  2  0
 32 28  2  0
 44 40  2  0
 52 47  1  0
 59 55  2  0
 67 62  1  0
 74 70  2  0
 82 77  1  0
 14  4  1  0
 25 19  1  0
 37 31  1  0
 53 43  1  0
 68 58  1  0
 83 73  1  0
  1 85  1  0
  9 86  1  0
 10 87  1  0
 11 88  1  0
 12 89  1  0
 21 90  1  0
 22 91  1  0
 25 92  1  0
 26 93  1  0
 27 94  1  0
 33 95  1  0
 34 96  1  0
 37 97  1  0
 38 98  1  0
 39 99  1  0
 48100  1  0
 49101  1  0
 50102  1  0
 51103  1  0
 63104  1  0
 64105  1  0
 65106  1  0
 66107  1  0
 72108  1  0
 78109  1  0
 79110  1  0
 80111  1  0
 81112  1  0
M  END

