
     RDKit          3D

203223  0  0  0  0  0  0  0  0999 V2000
    3.0080    3.8145  -10.0339 C   0  0  0  0  0  0  0  0  0  0  0  0
    1.6563    4.1053   -9.8618 C   0  0  0  0  0  0  0  0  0  0  0  0
    1.0773    3.4230   -8.7797 C   0  0  0  0  0  0  0  0  0  0  0  0
   -0.2565    3.5419   -8.3326 C   0  0  0  0  0  0  0  0  0  0  0  0
   -1.2180    4.4201   -9.0193 C   0  0  0  0  0  0  0  0  0  0  0  0
   -1.5342    5.6749   -8.4789 C   0  0  0  0  0  0  0  0  0  0  0  0
   -2.3438    6.5596   -9.1958 C   0  0  0  0  0  0  0  0  0  0  0  0
   -2.8444    6.1930  -10.4534 C   0  0  0  0  0  0  0  0  0  0  0  0
   -3.8107    7.3675  -11.4069 S   0  0  0  0  0  0  0  0  0  0  0  0
   -2.3498    8.0353  -12.2744 C   0  0  0  0  0  0  0  0  0  0  0  0
   -2.7821    9.0514  -13.3227 C   0  0  0  0  0  0  0  0  0  0  0  0
   -2.5623    4.9240  -10.9747 C   0  0  0  0  0  0  0  0  0  0  0  0
   -3.0464    4.5555  -12.1865 F   0  0  0  0  0  0  0  0  0  0  0  0
   -1.7420    4.0425  -10.2620 C   0  0  0  0  0  0  0  0  0  0  0  0
   -0.6212    2.7882   -7.2011 C   0  0  0  0  0  0  0  0  0  0  0  0
    0.2849    1.9542   -6.5436 C   0  0  0  0  0  0  0  0  0  0  0  0
    1.6221    1.8526   -6.9732 C   0  0  0  0  0  0  0  0  0  0  0  0
    2.6153    1.0646   -6.2167 C   0  0  0  0  0  0  0  0  0  0  0  0
    2.9772    1.4666   -4.9236 C   0  0  0  0  0  0  0  0  0  0  0  0
    3.8520    0.6862   -4.1629 C   0  0  0  0  0  0  0  0  0  0  0  0
    4.3725   -0.5006   -4.6909 C   0  0  0  0  0  0  0  0  0  0  0  0
    5.4290   -1.5344   -3.6751 S   0  0  0  0  0  0  0  0  0  0  0  0
    7.0024   -0.8213   -4.2661 C   0  0  0  0  0  0  0  0  0  0  0  0
    7.3609    0.4327   -3.4787 C   0  0  0  0  0  0  0  0  0  0  0  0
    4.0157   -0.9054   -5.9881 C   0  0  0  0  0  0  0  0  0  0  0  0
    3.1451   -0.1211   -6.7507 C   0  0  0  0  0  0  0  0  0  0  0  0
    4.4920   -2.0669   -6.5011 F   0  0  0  0  0  0  0  0  0  0  0  0
    1.9809    2.5942   -8.1091 C   0  0  0  0  0  0  0  0  0  0  0  0
    3.4887    2.7163   -8.8461 S   0  0  0  0  0  0  0  0  0  0  0  0
   -0.2746    1.2708   -5.4621 C   0  0  0  0  0  0  0  0  0  0  0  0
   -1.6170    1.5778   -5.2524 C   0  0  0  0  0  0  0  0  0  0  0  0
   -2.1144    2.7009   -6.4186 S   0  0  0  0  0  0  0  0  0  0  0  0
   -2.4248    1.0369   -4.1465 C   0  0  0  0  0  0  0  0  0  0  0  0
   -2.0317   -0.0185   -3.3292 C   0  0  0  0  0  0  0  0  0  0  0  0
   -2.8785   -0.2138   -2.2351 C   0  0  0  0  0  0  0  0  0  0  0  0
   -2.6671   -1.1365   -1.1989 C   0  0  0  0  0  0  0  0  0  0  0  0
   -1.4773   -2.0039   -1.1446 C   0  0  0  0  0  0  0  0  0  0  0  0
   -0.2804   -1.5089   -0.6034 C   0  0  0  0  0  0  0  0  0  0  0  0
    0.8153   -2.3595   -0.4320 C   0  0  0  0  0  0  0  0  0  0  0  0
    0.7187   -3.7120   -0.7812 C   0  0  0  0  0  0  0  0  0  0  0  0
    2.1008   -4.8138   -0.4784 S   0  0  0  0  0  0  0  0  0  0  0  0
    1.5134   -5.3695    1.1660 C   0  0  0  0  0  0  0  0  0  0  0  0
    1.9771   -4.4174    2.2627 C   0  0  0  0  0  0  0  0  0  0  0  0
   -0.4676   -4.2012   -1.3551 C   0  0  0  0  0  0  0  0  0  0  0  0
   -0.5643   -5.5050   -1.7188 F   0  0  0  0  0  0  0  0  0  0  0  0
   -1.5615   -3.3505   -1.5342 C   0  0  0  0  0  0  0  0  0  0  0  0
   -3.5469   -1.0772   -0.1126 C   0  0  0  0  0  0  0  0  0  0  0  0
   -4.5878   -0.1487   -0.0200 C   0  0  0  0  0  0  0  0  0  0  0  0
   -4.8477    0.7326   -1.1012 C   0  0  0  0  0  0  0  0  0  0  0  0
   -6.0240    1.6306   -1.1232 C   0  0  0  0  0  0  0  0  0  0  0  0
   -6.9759    1.4909   -2.1447 C   0  0  0  0  0  0  0  0  0  0  0  0
   -8.1426    2.2613   -2.1285 C   0  0  0  0  0  0  0  0  0  0  0  0
   -8.3796    3.1563   -1.0795 C   0  0  0  0  0  0  0  0  0  0  0  0
   -9.9050    4.1055   -1.0457 S   0  0  0  0  0  0  0  0  0  0  0  0
  -10.9266    2.7428   -0.3828 C   0  0  0  0  0  0  0  0  0  0  0  0
  -10.9618    2.7827    1.1374 C   0  0  0  0  0  0  0  0  0  0  0  0
   -7.4141    3.3265   -0.0743 C   0  0  0  0  0  0  0  0  0  0  0  0
   -6.2358    2.5736   -0.1058 C   0  0  0  0  0  0  0  0  0  0  0  0
   -7.6199    4.2044    0.9379 F   0  0  0  0  0  0  0  0  0  0  0  0
   -3.9574    0.6752   -2.1943 C   0  0  0  0  0  0  0  0  0  0  0  0
   -3.8519    1.7073   -3.5274 S   0  0  0  0  0  0  0  0  0  0  0  0
   -5.2124   -0.1643    1.2474 C   0  0  0  0  0  0  0  0  0  0  0  0
   -4.6464   -1.0918    2.1290 C   0  0  0  0  0  0  0  0  0  0  0  0
   -3.4066   -1.9082    1.3294 S   0  0  0  0  0  0  0  0  0  0  0  0
   -4.6421   -0.9937    3.5945 C   0  0  0  0  0  0  0  0  0  0  0  0
   -4.1094   -2.0270    4.3622 C   0  0  0  0  0  0  0  0  0  0  0  0
   -3.2962   -1.5869    5.4196 C   0  0  0  0  0  0  0  0  0  0  0  0
   -2.3704   -2.3984    6.0993 C   0  0  0  0  0  0  0  0  0  0  0  0
   -2.3079   -3.8500    5.8561 C   0  0  0  0  0  0  0  0  0  0  0  0
   -3.1971   -4.7061    6.5191 C   0  0  0  0  0  0  0  0  0  0  0  0
   -3.2145   -6.0687    6.2131 C   0  0  0  0  0  0  0  0  0  0  0  0
   -2.3565   -6.5801    5.2294 C   0  0  0  0  0  0  0  0  0  0  0  0
   -2.4434   -8.3176    4.7842 S   0  0  0  0  0  0  0  0  0  0  0  0
   -3.8161   -8.1113    3.5903 C   0  0  0  0  0  0  0  0  0  0  0  0
   -3.3276   -7.5137    2.2752 C   0  0  0  0  0  0  0  0  0  0  0  0
   -1.4420   -5.7294    4.5905 C   0  0  0  0  0  0  0  0  0  0  0  0
   -0.5936   -6.2133    3.6539 F   0  0  0  0  0  0  0  0  0  0  0  0
   -1.4241   -4.3650    4.8980 C   0  0  0  0  0  0  0  0  0  0  0  0
   -1.3668   -1.7403    6.8169 C   0  0  0  0  0  0  0  0  0  0  0  0
   -1.3200   -0.3499    6.9475 C   0  0  0  0  0  0  0  0  0  0  0  0
   -2.3167    0.4606    6.3594 C   0  0  0  0  0  0  0  0  0  0  0  0
   -2.2841    1.9346    6.4920 C   0  0  0  0  0  0  0  0  0  0  0  0
   -2.4207    2.5144    7.7642 C   0  0  0  0  0  0  0  0  0  0  0  0
   -2.3900    3.9034    7.9118 C   0  0  0  0  0  0  0  0  0  0  0  0
   -2.2087    4.7288    6.7956 C   0  0  0  0  0  0  0  0  0  0  0  0
   -2.2380    6.5187    7.0004 S   0  0  0  0  0  0  0  0  0  0  0  0
   -0.4815    6.6841    7.4722 C   0  0  0  0  0  0  0  0  0  0  0  0
    0.3976    6.8594    6.2387 C   0  0  0  0  0  0  0  0  0  0  0  0
   -2.0589    4.1539    5.5267 C   0  0  0  0  0  0  0  0  0  0  0  0
   -2.0915    2.7625    5.3744 C   0  0  0  0  0  0  0  0  0  0  0  0
   -1.8994    4.9400    4.4302 F   0  0  0  0  0  0  0  0  0  0  0  0
   -3.2711   -0.1979    5.5580 C   0  0  0  0  0  0  0  0  0  0  0  0
   -4.2334    0.4678    4.3464 S   0  0  0  0  0  0  0  0  0  0  0  0
   -0.1110    0.1065    7.4978 C   0  0  0  0  0  0  0  0  0  0  0  0
    0.8090   -0.9178    7.7493 C   0  0  0  0  0  0  0  0  0  0  0  0
    0.0848   -2.3870    7.3435 S   0  0  0  0  0  0  0  0  0  0  0  0
    2.2623   -0.7018    7.9191 C   0  0  0  0  0  0  0  0  0  0  0  0
    3.0052    0.7927    7.6744 S   0  0  0  0  0  0  0  0  0  0  0  0
    4.6011    0.2756    7.7295 C   0  0  0  0  0  0  0  0  0  0  0  0
    4.5891   -1.0966    7.9895 C   0  0  0  0  0  0  0  0  0  0  0  0
    3.2894   -1.6471    8.0937 C   0  0  0  0  0  0  0  0  0  0  0  0
    3.1359   -3.0057    8.4074 C   0  0  0  0  0  0  0  0  0  0  0  0
    4.2708   -3.8128    8.5615 C   0  0  0  0  0  0  0  0  0  0  0  0
    5.5567   -3.2644    8.4528 C   0  0  0  0  0  0  0  0  0  0  0  0
    6.6433   -4.0554    8.6269 F   0  0  0  0  0  0  0  0  0  0  0  0
    5.7209   -1.8993    8.1861 C   0  0  0  0  0  0  0  0  0  0  0  0
    5.7526    1.1932    7.7114 C   0  0  0  0  0  0  0  0  0  0  0  0
    6.8358    1.0680    6.9354 C   0  0  0  0  0  0  0  0  0  0  0  0
    7.0189    0.0759    5.8528 C   0  0  0  0  0  0  0  0  0  0  0  0
    5.8302   -0.4938    4.7923 S   0  0  0  0  0  0  0  0  0  0  0  0
    6.8553   -1.3727    3.7806 C   0  0  0  0  0  0  0  0  0  0  0  0
    8.1670   -1.1912    4.2386 C   0  0  0  0  0  0  0  0  0  0  0  0
    8.2523   -0.3940    5.3964 C   0  0  0  0  0  0  0  0  0  0  0  0
    9.4962   -0.1313    5.9850 C   0  0  0  0  0  0  0  0  0  0  0  0
   10.6562   -0.6473    5.3973 C   0  0  0  0  0  0  0  0  0  0  0  0
   10.5789   -1.4154    4.2265 C   0  0  0  0  0  0  0  0  0  0  0  0
   11.7136   -1.9043    3.6617 F   0  0  0  0  0  0  0  0  0  0  0  0
    9.3370   -1.6772    3.6339 C   0  0  0  0  0  0  0  0  0  0  0  0
    6.4069   -2.1323    2.6032 C   0  0  0  0  0  0  0  0  0  0  0  0
    6.9065   -3.3422    2.3246 C   0  0  0  0  0  0  0  0  0  0  0  0
    6.5669   -4.1054    1.1015 C   0  0  0  0  0  0  0  0  0  0  0  0
    5.5593   -3.5954   -0.1585 S   0  0  0  0  0  0  0  0  0  0  0  0
    5.7433   -4.9485   -1.1461 C   0  0  0  0  0  0  0  0  0  0  0  0
    6.6467   -5.8130   -0.5194 C   0  0  0  0  0  0  0  0  0  0  0  0
    7.0956   -5.3484    0.7362 C   0  0  0  0  0  0  0  0  0  0  0  0
    8.0084   -6.1075    1.4827 C   0  0  0  0  0  0  0  0  0  0  0  0
    8.4829   -7.3157    0.9610 C   0  0  0  0  0  0  0  0  0  0  0  0
    8.0720   -7.7558   -0.3048 C   0  0  0  0  0  0  0  0  0  0  0  0
    8.5514   -8.9184   -0.8054 F   0  0  0  0  0  0  0  0  0  0  0  0
    7.1555   -7.0084   -1.0537 C   0  0  0  0  0  0  0  0  0  0  0  0
    5.0462   -5.1297   -2.4311 C   0  0  0  0  0  0  0  0  0  0  0  0
    4.5004   -6.2876   -2.7898 C   0  0  0  0  0  0  0  0  0  0  0  0
    3.6499    4.2344  -10.7965 H   0  0  0  0  0  0  0  0  0  0  0  0
    1.1282    4.8033  -10.4940 H   0  0  0  0  0  0  0  0  0  0  0  0
   -1.1247    5.9790   -7.5223 H   0  0  0  0  0  0  0  0  0  0  0  0
   -2.5617    7.5385   -8.7876 H   0  0  0  0  0  0  0  0  0  0  0  0
   -1.7982    7.2100  -12.7753 H   0  0  0  0  0  0  0  0  0  0  0  0
   -1.6753    8.5280  -11.5452 H   0  0  0  0  0  0  0  0  0  0  0  0
   -3.3170    9.8975  -12.8424 H   0  0  0  0  0  0  0  0  0  0  0  0
   -1.8865    9.4450  -13.8481 H   0  0  0  0  0  0  0  0  0  0  0  0
   -3.4497    8.5707  -14.0660 H   0  0  0  0  0  0  0  0  0  0  0  0
   -1.4984    3.0773  -10.6885 H   0  0  0  0  0  0  0  0  0  0  0  0
    2.5614    2.3719   -4.4977 H   0  0  0  0  0  0  0  0  0  0  0  0
    4.1071    0.9964   -3.1580 H   0  0  0  0  0  0  0  0  0  0  0  0
    6.9526   -0.5923   -5.3529 H   0  0  0  0  0  0  0  0  0  0  0  0
    7.8000   -1.5799   -4.1157 H   0  0  0  0  0  0  0  0  0  0  0  0
    8.3655    0.7890   -3.7889 H   0  0  0  0  0  0  0  0  0  0  0  0
    7.3817    0.2097   -2.3890 H   0  0  0  0  0  0  0  0  0  0  0  0
    6.6227    1.2382   -3.6721 H   0  0  0  0  0  0  0  0  0  0  0  0
    2.8539   -0.4479   -7.7418 H   0  0  0  0  0  0  0  0  0  0  0  0
    0.2856    0.5851   -4.8378 H   0  0  0  0  0  0  0  0  0  0  0  0
   -1.1314   -0.6000   -3.4916 H   0  0  0  0  0  0  0  0  0  0  0  0
   -0.2083   -0.4768   -0.2845 H   0  0  0  0  0  0  0  0  0  0  0  0
    1.7331   -1.9712   -0.0074 H   0  0  0  0  0  0  0  0  0  0  0  0
    1.9354   -6.3758    1.3602 H   0  0  0  0  0  0  0  0  0  0  0  0
    0.4081   -5.4543    1.1827 H   0  0  0  0  0  0  0  0  0  0  0  0
    1.6704   -4.8222    3.2551 H   0  0  0  0  0  0  0  0  0  0  0  0
    1.5190   -3.4154    2.1324 H   0  0  0  0  0  0  0  0  0  0  0  0
    3.0830   -4.3277    2.2488 H   0  0  0  0  0  0  0  0  0  0  0  0
   -2.4841   -3.7390   -1.9493 H   0  0  0  0  0  0  0  0  0  0  0  0
   -6.8284    0.7750   -2.9433 H   0  0  0  0  0  0  0  0  0  0  0  0
   -8.8811    2.1264   -2.9099 H   0  0  0  0  0  0  0  0  0  0  0  0
  -11.9578    2.8675   -0.7739 H   0  0  0  0  0  0  0  0  0  0  0  0
  -10.5535    1.7544   -0.7282 H   0  0  0  0  0  0  0  0  0  0  0  0
  -11.5440    1.9164    1.5143 H   0  0  0  0  0  0  0  0  0  0  0  0
   -9.9362    2.7297    1.5574 H   0  0  0  0  0  0  0  0  0  0  0  0
  -11.4553    3.7176    1.4745 H   0  0  0  0  0  0  0  0  0  0  0  0
   -5.4919    2.7207    0.6676 H   0  0  0  0  0  0  0  0  0  0  0  0
   -5.9779    0.5341    1.5607 H   0  0  0  0  0  0  0  0  0  0  0  0
   -4.1025   -3.0529    4.0133 H   0  0  0  0  0  0  0  0  0  0  0  0
   -3.8839   -4.3131    7.2615 H   0  0  0  0  0  0  0  0  0  0  0  0
   -3.9124   -6.7235    6.7198 H   0  0  0  0  0  0  0  0  0  0  0  0
   -4.6220   -7.4809    4.0204 H   0  0  0  0  0  0  0  0  0  0  0  0
   -4.2454   -9.1167    3.3887 H   0  0  0  0  0  0  0  0  0  0  0  0
   -2.4699   -8.1004    1.8782 H   0  0  0  0  0  0  0  0  0  0  0  0
   -3.0192   -6.4580    2.4132 H   0  0  0  0  0  0  0  0  0  0  0  0
   -4.1498   -7.5387    1.5291 H   0  0  0  0  0  0  0  0  0  0  0  0
   -0.7397   -3.7071    4.3757 H   0  0  0  0  0  0  0  0  0  0  0  0
   -2.5559    1.8882    8.6380 H   0  0  0  0  0  0  0  0  0  0  0  0
   -2.5046    4.3387    8.8970 H   0  0  0  0  0  0  0  0  0  0  0  0
   -0.3804    7.5866    8.1113 H   0  0  0  0  0  0  0  0  0  0  0  0
   -0.1385    5.8080    8.0651 H   0  0  0  0  0  0  0  0  0  0  0  0
    0.0631    7.7476    5.6570 H   0  0  0  0  0  0  0  0  0  0  0  0
    0.3485    5.9577    5.5946 H   0  0  0  0  0  0  0  0  0  0  0  0
    1.4497    7.0163    6.5551 H   0  0  0  0  0  0  0  0  0  0  0  0
   -1.9570    2.3301    4.3893 H   0  0  0  0  0  0  0  0  0  0  0  0
    0.1444    1.1536    7.5765 H   0  0  0  0  0  0  0  0  0  0  0  0
    2.1672   -3.4536    8.5637 H   0  0  0  0  0  0  0  0  0  0  0  0
    4.1461   -4.8620    8.8025 H   0  0  0  0  0  0  0  0  0  0  0  0
    6.7175   -1.4843    8.1386 H   0  0  0  0  0  0  0  0  0  0  0  0
    5.7093    2.0359    8.3830 H   0  0  0  0  0  0  0  0  0  0  0  0
    7.6324    1.7825    7.0932 H   0  0  0  0  0  0  0  0  0  0  0  0
    9.5794    0.4521    6.8892 H   0  0  0  0  0  0  0  0  0  0  0  0
   11.6202   -0.4594    5.8554 H   0  0  0  0  0  0  0  0  0  0  0  0
    9.3063   -2.2398    2.7112 H   0  0  0  0  0  0  0  0  0  0  0  0
    5.6373   -1.6967    1.9846 H   0  0  0  0  0  0  0  0  0  0  0  0
    7.6100   -3.7839    3.0216 H   0  0  0  0  0  0  0  0  0  0  0  0
    8.3707   -5.7835    2.4466 H   0  0  0  0  0  0  0  0  0  0  0  0
    9.1834   -7.9153    1.5310 H   0  0  0  0  0  0  0  0  0  0  0  0
    6.8732   -7.3493   -2.0398 H   0  0  0  0  0  0  0  0  0  0  0  0
    4.8782   -4.2710   -3.0631 H   0  0  0  0  0  0  0  0  0  0  0  0
    3.9570   -6.3650   -3.7245 H   0  0  0  0  0  0  0  0  0  0  0  0
    4.5335   -7.1451   -2.1394 H   0  0  0  0  0  0  0  0  0  0  0  0
  1  2  2  0
  2  3  1  0
  3  4  2  0
  4  5  1  0
  5  6  2  0
  6  7  1  0
  7  8  2  0
  8  9  1  0
  9 10  1  0
 10 11  1  0
  8 12  1  0
 12 13  1  0
 12 14  2  0
  4 15  1  0
 15 16  2  0
 16 17  1  0
 17 18  1  0
 18 19  2  0
 19 20  1  0
 20 21  2  0
 21 22  1  0
 22 23  1  0
 23 24  1  0
 21 25  1  0
 25 26  2  0
 25 27  1  0
 17 28  2  0
 28 29  1  0
 16 30  1  0
 30 31  2  0
 31 32  1  0
 31 33  1  0
 33 34  2  0
 34 35  1  0
 35 36  2  0
 36 37  1  0
 37 38  2  0
 38 39  1  0
 39 40  2  0
 40 41  1  0
 41 42  1  0
 42 43  1  0
 40 44  1  0
 44 45  1  0
 44 46  2  0
 36 47  1  0
 47 48  2  0
 48 49  1  0
 49 50  1  0
 50 51  2  0
 51 52  1  0
 52 53  2  0
 53 54  1  0
 54 55  1  0
 55 56  1  0
 53 57  1  0
 57 58  2  0
 57 59  1  0
 49 60  2  0
 60 61  1  0
 48 62  1  0
 62 63  2  0
 63 64  1  0
 63 65  1  0
 65 66  2  0
 66 67  1  0
 67 68  2  0
 68 69  1  0
 69 70  2  0
 70 71  1  0
 71 72  2  0
 72 73  1  0
 73 74  1  0
 74 75  1  0
 72 76  1  0
 76 77  1  0
 76 78  2  0
 68 79  1  0
 79 80  2  0
 80 81  1  0
 81 82  1  0
 82 83  2  0
 83 84  1  0
 84 85  2  0
 85 86  1  0
 86 87  1  0
 87 88  1  0
 85 89  1  0
 89 90  2  0
 89 91  1  0
 81 92  2  0
 92 93  1  0
 80 94  1  0
 94 95  2  0
 95 96  1  0
 95 97  1  0
 97 98  1  0
 98 99  1  0
 99100  2  0
100101  1  0
101102  1  0
102103  2  0
103104  1  0
104105  1  0
104106  2  0
 99107  1  0
107108  2  3
108109  1  0
109110  1  0
110111  1  0
111112  2  0
112113  1  0
113114  1  0
114115  2  0
115116  1  0
116117  1  0
116118  2  0
111119  1  0
119120  2  3
120121  1  0
121122  1  0
122123  1  0
123124  2  0
124125  1  0
125126  1  0
126127  2  0
127128  1  0
128129  1  0
128130  2  0
123131  1  0
131132  2  3
 29  1  1  0
 61 33  1  0
 93 65  1  0
101 97  2  0
113109  2  0
125121  2  0
 28  3  1  0
 60 35  1  0
 92 67  1  0
106100  1  0
118112  1  0
130124  1  0
 14  5  1  0
 32 15  1  0
 46 37  1  0
 64 47  1  0
 78 69  1  0
 96 79  1  0
 26 18  1  0
 58 50  1  0
 90 82  1  0
  1133  1  0
  2134  1  0
  6135  1  0
  7136  1  0
 10137  1  0
 10138  1  0
 11139  1  0
 11140  1  0
 11141  1  0
 14142  1  0
 19143  1  0
 20144  1  0
 23145  1  0
 23146  1  0
 24147  1  0
 24148  1  0
 24149  1  0
 26150  1  0
 30151  1  0
 34152  1  0
 38153  1  0
 39154  1  0
 42155  1  0
 42156  1  0
 43157  1  0
 43158  1  0
 43159  1  0
 46160  1  0
 51161  1  0
 52162  1  0
 55163  1  0
 55164  1  0
 56165  1  0
 56166  1  0
 56167  1  0
 58168  1  0
 62169  1  0
 66170  1  0
 70171  1  0
 71172  1  0
 74173  1  0
 74174  1  0
 75175  1  0
 75176  1  0
 75177  1  0
 78178  1  0
 83179  1  0
 84180  1  0
 87181  1  0
 87182  1  0
 88183  1  0
 88184  1  0
 88185  1  0
 90186  1  0
 94187  1  0
102188  1  0
103189  1  0
106190  1  0
107191  1  0
108192  1  0
114193  1  0
115194  1  0
118195  1  0
119196  1  0
120197  1  0
126198  1  0
127199  1  0
130200  1  0
131201  1  0
132202  1  0
132203  1  0
M  END

