
     RDKit          3D

269295  0  0  0  0  0  0  0  0999 V2000
    5.0604   -5.6101    8.9327 C   0  0  0  0  0  0  0  0  0  0  0  0
    4.7391   -4.2697    8.7327 C   0  0  0  0  0  0  0  0  0  0  0  0
    3.4169   -4.0781    8.2966 C   0  0  0  0  0  0  0  0  0  0  0  0
    2.7954   -2.8430    8.0026 C   0  0  0  0  0  0  0  0  0  0  0  0
    3.5326   -1.5611    8.0367 C   0  0  0  0  0  0  0  0  0  0  0  0
    4.6597   -1.3780    7.2222 C   0  0  0  0  0  0  0  0  0  0  0  0
    5.3289   -0.1517    7.2124 C   0  0  0  0  0  0  0  0  0  0  0  0
    4.8706    0.9064    8.0049 C   0  0  0  0  0  0  0  0  0  0  0  0
    5.7094    2.4887    7.9336 S   0  0  0  0  0  0  0  0  0  0  0  0
    6.8594    2.0793    9.2886 C   0  0  0  0  0  0  0  0  0  0  0  0
    7.9062    3.1730    9.4154 C   0  0  0  0  0  0  0  0  0  0  0  0
    3.7472    0.7308    8.8235 C   0  0  0  0  0  0  0  0  0  0  0  0
    3.2937    1.7483    9.5965 F   0  0  0  0  0  0  0  0  0  0  0  0
    3.0821   -0.5006    8.8410 C   0  0  0  0  0  0  0  0  0  0  0  0
    1.4415   -2.8911    7.6179 C   0  0  0  0  0  0  0  0  0  0  0  0
    0.7290   -4.0903    7.5125 C   0  0  0  0  0  0  0  0  0  0  0  0
    1.3603   -5.3218    7.7738 C   0  0  0  0  0  0  0  0  0  0  0  0
    0.6699   -6.6092    7.5892 C   0  0  0  0  0  0  0  0  0  0  0  0
    0.8100   -7.3075    6.3825 C   0  0  0  0  0  0  0  0  0  0  0  0
    0.1859   -8.5471    6.2124 C   0  0  0  0  0  0  0  0  0  0  0  0
   -0.5933   -9.0900    7.2423 C   0  0  0  0  0  0  0  0  0  0  0  0
   -1.3627  -10.6976    7.0277 S   0  0  0  0  0  0  0  0  0  0  0  0
   -2.9762  -10.0482    6.4696 C   0  0  0  0  0  0  0  0  0  0  0  0
   -2.9344   -9.6583    4.9974 C   0  0  0  0  0  0  0  0  0  0  0  0
   -0.7334   -8.3918    8.4518 C   0  0  0  0  0  0  0  0  0  0  0  0
   -0.1092   -7.1510    8.6220 C   0  0  0  0  0  0  0  0  0  0  0  0
   -1.4698   -8.9158    9.4640 F   0  0  0  0  0  0  0  0  0  0  0  0
    2.7057   -5.2761    8.1739 C   0  0  0  0  0  0  0  0  0  0  0  0
    3.7107   -6.5606    8.5828 S   0  0  0  0  0  0  0  0  0  0  0  0
   -0.6000   -3.9133    7.0952 C   0  0  0  0  0  0  0  0  0  0  0  0
   -0.9253   -2.5737    6.8855 C   0  0  0  0  0  0  0  0  0  0  0  0
    0.4372   -1.6160    7.1701 S   0  0  0  0  0  0  0  0  0  0  0  0
   -2.2197   -2.0521    6.4171 C   0  0  0  0  0  0  0  0  0  0  0  0
   -2.3751   -0.7807    5.3288 S   0  0  0  0  0  0  0  0  0  0  0  0
   -4.0539   -0.7737    5.2428 C   0  0  0  0  0  0  0  0  0  0  0  0
   -4.5317   -1.7610    6.1133 C   0  0  0  0  0  0  0  0  0  0  0  0
   -3.5049   -2.4819    6.7636 C   0  0  0  0  0  0  0  0  0  0  0  0
   -3.8239   -3.4718    7.7047 C   0  0  0  0  0  0  0  0  0  0  0  0
   -5.1702   -3.7548    7.9724 C   0  0  0  0  0  0  0  0  0  0  0  0
   -6.1887   -3.0309    7.3351 C   0  0  0  0  0  0  0  0  0  0  0  0
   -7.4854   -3.2937    7.6292 F   0  0  0  0  0  0  0  0  0  0  0  0
   -5.8773   -2.0213    6.4149 C   0  0  0  0  0  0  0  0  0  0  0  0
   -4.7908    0.0601    4.2752 C   0  0  0  0  0  0  0  0  0  0  0  0
   -5.8091   -0.4267    3.5555 C   0  0  0  0  0  0  0  0  0  0  0  0
   -6.3095    0.2388    2.3403 C   0  0  0  0  0  0  0  0  0  0  0  0
   -7.1254   -0.3940    1.4036 C   0  0  0  0  0  0  0  0  0  0  0  0
   -7.2286    0.3089    0.1938 C   0  0  0  0  0  0  0  0  0  0  0  0
   -7.8359   -0.1664   -0.9869 C   0  0  0  0  0  0  0  0  0  0  0  0
   -8.5904   -1.4391   -1.0120 C   0  0  0  0  0  0  0  0  0  0  0  0
   -9.7362   -1.5841   -0.2176 C   0  0  0  0  0  0  0  0  0  0  0  0
  -10.4698   -2.7715   -0.2497 C   0  0  0  0  0  0  0  0  0  0  0  0
  -10.0767   -3.8178   -1.0891 C   0  0  0  0  0  0  0  0  0  0  0  0
  -11.0562   -5.3232   -1.1460 S   0  0  0  0  0  0  0  0  0  0  0  0
  -12.2624   -4.6842   -2.3620 C   0  0  0  0  0  0  0  0  0  0  0  0
  -11.8140   -4.9881   -3.7855 C   0  0  0  0  0  0  0  0  0  0  0  0
   -8.9202   -3.6894   -1.8710 C   0  0  0  0  0  0  0  0  0  0  0  0
   -8.5193   -4.7008   -2.6815 F   0  0  0  0  0  0  0  0  0  0  0  0
   -8.1802   -2.5021   -1.8309 C   0  0  0  0  0  0  0  0  0  0  0  0
   -7.6209    0.5864   -2.1549 C   0  0  0  0  0  0  0  0  0  0  0  0
   -6.8862    1.7763   -2.1621 C   0  0  0  0  0  0  0  0  0  0  0  0
   -6.3441    2.2921   -0.9628 C   0  0  0  0  0  0  0  0  0  0  0  0
   -5.6063    3.5685   -0.9063 C   0  0  0  0  0  0  0  0  0  0  0  0
   -4.3898    3.7322   -1.5869 C   0  0  0  0  0  0  0  0  0  0  0  0
   -3.7235    4.9609   -1.5456 C   0  0  0  0  0  0  0  0  0  0  0  0
   -4.2545    6.0253   -0.8054 C   0  0  0  0  0  0  0  0  0  0  0  0
   -3.4248    7.6181   -0.7897 S   0  0  0  0  0  0  0  0  0  0  0  0
   -2.3293    7.2372    0.6195 C   0  0  0  0  0  0  0  0  0  0  0  0
   -0.8995    7.0550    0.1317 C   0  0  0  0  0  0  0  0  0  0  0  0
   -5.4543    5.8536   -0.1023 C   0  0  0  0  0  0  0  0  0  0  0  0
   -6.1262    4.6307   -0.1524 C   0  0  0  0  0  0  0  0  0  0  0  0
   -5.9779    6.8785    0.6184 F   0  0  0  0  0  0  0  0  0  0  0  0
   -6.5136    1.5113    0.1926 C   0  0  0  0  0  0  0  0  0  0  0  0
   -5.7432    1.6907    1.6805 S   0  0  0  0  0  0  0  0  0  0  0  0
   -6.6543    2.2687   -3.4578 C   0  0  0  0  0  0  0  0  0  0  0  0
   -7.1408    1.4320   -4.4696 C   0  0  0  0  0  0  0  0  0  0  0  0
   -7.9658    0.1523   -3.7377 S   0  0  0  0  0  0  0  0  0  0  0  0
   -6.5208    1.3118   -5.8076 C   0  0  0  0  0  0  0  0  0  0  0  0
   -5.4231    2.0746   -6.2179 C   0  0  0  0  0  0  0  0  0  0  0  0
   -4.5597    1.3867   -7.0855 C   0  0  0  0  0  0  0  0  0  0  0  0
   -3.2416    1.7752   -7.3901 C   0  0  0  0  0  0  0  0  0  0  0  0
   -2.6939    3.0604   -6.9175 C   0  0  0  0  0  0  0  0  0  0  0  0
   -2.7992    4.2051   -7.7176 C   0  0  0  0  0  0  0  0  0  0  0  0
   -2.2824    5.4237   -7.2681 C   0  0  0  0  0  0  0  0  0  0  0  0
   -1.6573    5.5041   -6.0161 C   0  0  0  0  0  0  0  0  0  0  0  0
   -0.9983    7.0740   -5.4479 S   0  0  0  0  0  0  0  0  0  0  0  0
   -2.5490    7.5666   -4.6289 C   0  0  0  0  0  0  0  0  0  0  0  0
   -2.3564    8.8930   -3.9114 C   0  0  0  0  0  0  0  0  0  0  0  0
   -1.5446    4.3588   -5.2162 C   0  0  0  0  0  0  0  0  0  0  0  0
   -0.9286    4.4196   -4.0073 F   0  0  0  0  0  0  0  0  0  0  0  0
   -2.0659    3.1408   -5.6639 C   0  0  0  0  0  0  0  0  0  0  0  0
   -2.3965    0.7863   -7.9166 C   0  0  0  0  0  0  0  0  0  0  0  0
   -2.8266   -0.5212   -8.1628 C   0  0  0  0  0  0  0  0  0  0  0  0
   -4.1846   -0.8668   -7.9947 C   0  0  0  0  0  0  0  0  0  0  0  0
   -4.6997   -2.2220   -8.2843 C   0  0  0  0  0  0  0  0  0  0  0  0
   -4.2622   -3.3365   -7.5523 C   0  0  0  0  0  0  0  0  0  0  0  0
   -4.7097   -4.6180   -7.8910 C   0  0  0  0  0  0  0  0  0  0  0  0
   -5.6167   -4.7909   -8.9469 C   0  0  0  0  0  0  0  0  0  0  0  0
   -6.1544   -6.4447   -9.4031 S   0  0  0  0  0  0  0  0  0  0  0  0
   -4.9716   -6.6382  -10.7835 C   0  0  0  0  0  0  0  0  0  0  0  0
   -3.5923   -7.0375  -10.2774 C   0  0  0  0  0  0  0  0  0  0  0  0
   -6.1057   -3.6725   -9.6343 C   0  0  0  0  0  0  0  0  0  0  0  0
   -5.6454   -2.3932   -9.3069 C   0  0  0  0  0  0  0  0  0  0  0  0
   -7.0092   -3.8227  -10.6383 F   0  0  0  0  0  0  0  0  0  0  0  0
   -5.0181    0.1103   -7.4259 C   0  0  0  0  0  0  0  0  0  0  0  0
   -6.4719   -0.1613   -6.6355 S   0  0  0  0  0  0  0  0  0  0  0  0
   -1.7590   -1.4248   -8.3330 C   0  0  0  0  0  0  0  0  0  0  0  0
   -0.4990   -0.8452   -8.1516 C   0  0  0  0  0  0  0  0  0  0  0  0
   -0.7226    0.8118   -7.9190 S   0  0  0  0  0  0  0  0  0  0  0  0
    0.5165   -1.5078   -7.3262 C   0  0  0  0  0  0  0  0  0  0  0  0
    0.2475   -1.7581   -5.9798 C   0  0  0  0  0  0  0  0  0  0  0  0
    1.3764   -1.6801   -5.1572 C   0  0  0  0  0  0  0  0  0  0  0  0
    1.3471   -1.5789   -3.7543 C   0  0  0  0  0  0  0  0  0  0  0  0
    0.0792   -1.6199   -2.9954 C   0  0  0  0  0  0  0  0  0  0  0  0
   -0.5353   -2.8473   -2.7105 C   0  0  0  0  0  0  0  0  0  0  0  0
   -1.7193   -2.8828   -1.9650 C   0  0  0  0  0  0  0  0  0  0  0  0
   -2.2982   -1.6934   -1.4998 C   0  0  0  0  0  0  0  0  0  0  0  0
   -3.8105   -1.7480   -0.5267 S   0  0  0  0  0  0  0  0  0  0  0  0
   -2.9699   -1.7243    1.0970 C   0  0  0  0  0  0  0  0  0  0  0  0
   -2.4848   -3.1142    1.4899 C   0  0  0  0  0  0  0  0  0  0  0  0
   -1.7050   -0.4631   -1.8160 C   0  0  0  0  0  0  0  0  0  0  0  0
   -2.2683    0.6981   -1.3966 F   0  0  0  0  0  0  0  0  0  0  0  0
   -0.5150   -0.4273   -2.5511 C   0  0  0  0  0  0  0  0  0  0  0  0
    2.5554   -1.2570   -3.1195 C   0  0  0  0  0  0  0  0  0  0  0  0
    3.7559   -1.0716   -3.8156 C   0  0  0  0  0  0  0  0  0  0  0  0
    3.7858   -1.1810   -5.2265 C   0  0  0  0  0  0  0  0  0  0  0  0
    5.0230   -0.9618   -6.0050 C   0  0  0  0  0  0  0  0  0  0  0  0
    5.5518   -2.0018   -6.7842 C   0  0  0  0  0  0  0  0  0  0  0  0
    6.7720   -1.8351   -7.4437 C   0  0  0  0  0  0  0  0  0  0  0  0
    7.4783   -0.6316   -7.3234 C   0  0  0  0  0  0  0  0  0  0  0  0
    9.0885   -0.4597   -8.1028 S   0  0  0  0  0  0  0  0  0  0  0  0
   10.0208   -1.2369   -6.7343 C   0  0  0  0  0  0  0  0  0  0  0  0
   10.2358   -0.2638   -5.5826 C   0  0  0  0  0  0  0  0  0  0  0  0
    6.9256    0.4312   -6.5917 C   0  0  0  0  0  0  0  0  0  0  0  0
    5.7017    0.2661   -5.9399 C   0  0  0  0  0  0  0  0  0  0  0  0
    7.5845    1.6137   -6.4919 F   0  0  0  0  0  0  0  0  0  0  0  0
    2.5625   -1.4595   -5.8670 C   0  0  0  0  0  0  0  0  0  0  0  0
    2.1792   -1.2514   -7.4965 S   0  0  0  0  0  0  0  0  0  0  0  0
    4.8151   -0.6670   -2.9809 C   0  0  0  0  0  0  0  0  0  0  0  0
    4.4261   -0.4892   -1.6529 C   0  0  0  0  0  0  0  0  0  0  0  0
    2.7917   -0.8789   -1.4972 S   0  0  0  0  0  0  0  0  0  0  0  0
    5.2216    0.1716   -0.6089 C   0  0  0  0  0  0  0  0  0  0  0  0
    4.6998    0.7087    0.5679 C   0  0  0  0  0  0  0  0  0  0  0  0
    5.6375    1.4613    1.2941 C   0  0  0  0  0  0  0  0  0  0  0  0
    5.3919    2.1729    2.4879 C   0  0  0  0  0  0  0  0  0  0  0  0
    4.0530    2.2034    3.1176 C   0  0  0  0  0  0  0  0  0  0  0  0
    3.8680    1.6868    4.4083 C   0  0  0  0  0  0  0  0  0  0  0  0
    2.6014    1.6986    4.9992 C   0  0  0  0  0  0  0  0  0  0  0  0
    1.5096    2.2392    4.3082 C   0  0  0  0  0  0  0  0  0  0  0  0
   -0.1152    2.2450    5.0731 S   0  0  0  0  0  0  0  0  0  0  0  0
    0.1458    3.7858    6.0202 C   0  0  0  0  0  0  0  0  0  0  0  0
    0.0009    5.0152    5.1317 C   0  0  0  0  0  0  0  0  0  0  0  0
    1.6885    2.7560    3.0162 C   0  0  0  0  0  0  0  0  0  0  0  0
    0.6371    3.2641    2.3251 F   0  0  0  0  0  0  0  0  0  0  0  0
    2.9567    2.7462    2.4281 C   0  0  0  0  0  0  0  0  0  0  0  0
    6.4800    2.8678    3.0449 C   0  0  0  0  0  0  0  0  0  0  0  0
    7.7474    2.8820    2.4555 C   0  0  0  0  0  0  0  0  0  0  0  0
    7.9895    2.1767    1.2593 C   0  0  0  0  0  0  0  0  0  0  0  0
    9.3154    2.1764    0.6087 C   0  0  0  0  0  0  0  0  0  0  0  0
    9.8007    3.3403   -0.0028 C   0  0  0  0  0  0  0  0  0  0  0  0
   11.0474    3.3351   -0.6334 C   0  0  0  0  0  0  0  0  0  0  0  0
   11.8232    2.1684   -0.6494 C   0  0  0  0  0  0  0  0  0  0  0  0
   13.4163    2.1722   -1.4744 S   0  0  0  0  0  0  0  0  0  0  0  0
   12.7442    1.5305   -3.0440 C   0  0  0  0  0  0  0  0  0  0  0  0
   13.8442    1.4732   -4.0912 C   0  0  0  0  0  0  0  0  0  0  0  0
   11.3505    1.0094   -0.0185 C   0  0  0  0  0  0  0  0  0  0  0  0
   10.0978    1.0111    0.6030 C   0  0  0  0  0  0  0  0  0  0  0  0
   12.0990   -0.1242   -0.0136 F   0  0  0  0  0  0  0  0  0  0  0  0
    6.9067    1.4742    0.7045 C   0  0  0  0  0  0  0  0  0  0  0  0
    6.8502    0.6017   -0.7363 S   0  0  0  0  0  0  0  0  0  0  0  0
    8.6811    3.6468    3.1739 C   0  0  0  0  0  0  0  0  0  0  0  0
    8.1414    4.2383    4.3140 C   0  0  0  0  0  0  0  0  0  0  0  0
    6.5129    3.8144    4.4348 S   0  0  0  0  0  0  0  0  0  0  0  0
    6.0203   -5.9784    9.2714 H   0  0  0  0  0  0  0  0  0  0  0  0
    5.4453   -3.4695    8.9096 H   0  0  0  0  0  0  0  0  0  0  0  0
    5.0140   -2.1775    6.5810 H   0  0  0  0  0  0  0  0  0  0  0  0
    6.1926   -0.0218    6.5711 H   0  0  0  0  0  0  0  0  0  0  0  0
    6.2911    1.9940   10.2405 H   0  0  0  0  0  0  0  0  0  0  0  0
    7.3678    1.1143    9.0805 H   0  0  0  0  0  0  0  0  0  0  0  0
    8.4950    3.2504    8.4759 H   0  0  0  0  0  0  0  0  0  0  0  0
    8.5983    2.9359   10.2525 H   0  0  0  0  0  0  0  0  0  0  0  0
    7.4146    4.1459    9.6178 H   0  0  0  0  0  0  0  0  0  0  0  0
    2.2141   -0.6274    9.4772 H   0  0  0  0  0  0  0  0  0  0  0  0
    1.4089   -6.8934    5.5780 H   0  0  0  0  0  0  0  0  0  0  0  0
    0.3102   -9.0828    5.2806 H   0  0  0  0  0  0  0  0  0  0  0  0
   -3.2859   -9.1781    7.0896 H   0  0  0  0  0  0  0  0  0  0  0  0
   -3.7335  -10.8480    6.6015 H   0  0  0  0  0  0  0  0  0  0  0  0
   -2.2506   -8.7993    4.8451 H   0  0  0  0  0  0  0  0  0  0  0  0
   -2.5927  -10.5174    4.3800 H   0  0  0  0  0  0  0  0  0  0  0  0
   -3.9505   -9.3572    4.6653 H   0  0  0  0  0  0  0  0  0  0  0  0
   -0.2223   -6.6155    9.5570 H   0  0  0  0  0  0  0  0  0  0  0  0
   -1.2878   -4.7308    6.9206 H   0  0  0  0  0  0  0  0  0  0  0  0
   -3.0600   -4.0028    8.2495 H   0  0  0  0  0  0  0  0  0  0  0  0
   -5.4240   -4.5200    8.6959 H   0  0  0  0  0  0  0  0  0  0  0  0
   -6.6763   -1.4374    5.9837 H   0  0  0  0  0  0  0  0  0  0  0  0
   -4.3439    1.0098    4.0021 H   0  0  0  0  0  0  0  0  0  0  0  0
   -6.1738   -1.4255    3.7512 H   0  0  0  0  0  0  0  0  0  0  0  0
   -7.5377   -1.3845    1.5603 H   0  0  0  0  0  0  0  0  0  0  0  0
  -10.0620   -0.7763    0.4260 H   0  0  0  0  0  0  0  0  0  0  0  0
  -11.3606   -2.8661    0.3603 H   0  0  0  0  0  0  0  0  0  0  0  0
  -13.2376   -5.1823   -2.1771 H   0  0  0  0  0  0  0  0  0  0  0  0
  -12.4185   -3.5910   -2.2427 H   0  0  0  0  0  0  0  0  0  0  0  0
  -11.6682   -6.0808   -3.9171 H   0  0  0  0  0  0  0  0  0  0  0  0
  -10.8651   -4.4599   -4.0154 H   0  0  0  0  0  0  0  0  0  0  0  0
  -12.5901   -4.6422   -4.5001 H   0  0  0  0  0  0  0  0  0  0  0  0
   -7.2812   -2.4199   -2.4290 H   0  0  0  0  0  0  0  0  0  0  0  0
   -3.9652    2.9132   -2.1566 H   0  0  0  0  0  0  0  0  0  0  0  0
   -2.7944    5.0820   -2.0859 H   0  0  0  0  0  0  0  0  0  0  0  0
   -2.3608    8.0913    1.3299 H   0  0  0  0  0  0  0  0  0  0  0  0
   -2.6558    6.3259    1.1683 H   0  0  0  0  0  0  0  0  0  0  0  0
   -0.5438    7.9897   -0.3552 H   0  0  0  0  0  0  0  0  0  0  0  0
   -0.2359    6.8222    0.9897 H   0  0  0  0  0  0  0  0  0  0  0  0
   -0.8461    6.2215   -0.6017 H   0  0  0  0  0  0  0  0  0  0  0  0
   -7.0597    4.5138    0.3828 H   0  0  0  0  0  0  0  0  0  0  0  0
   -6.0256    3.1231   -3.6583 H   0  0  0  0  0  0  0  0  0  0  0  0
   -5.1534    3.0181   -5.7589 H   0  0  0  0  0  0  0  0  0  0  0  0
   -3.2760    4.1491   -8.6901 H   0  0  0  0  0  0  0  0  0  0  0  0
   -2.3683    6.3040   -7.8930 H   0  0  0  0  0  0  0  0  0  0  0  0
   -3.3517    7.6708   -5.3898 H   0  0  0  0  0  0  0  0  0  0  0  0
   -2.8459    6.7912   -3.8914 H   0  0  0  0  0  0  0  0  0  0  0  0
   -2.0722    9.6887   -4.6325 H   0  0  0  0  0  0  0  0  0  0  0  0
   -1.5642    8.7960   -3.1395 H   0  0  0  0  0  0  0  0  0  0  0  0
   -3.3037    9.1843   -3.4120 H   0  0  0  0  0  0  0  0  0  0  0  0
   -1.9793    2.2599   -5.0381 H   0  0  0  0  0  0  0  0  0  0  0  0
   -3.5607   -3.2164   -6.7340 H   0  0  0  0  0  0  0  0  0  0  0  0
   -4.3484   -5.4761   -7.3360 H   0  0  0  0  0  0  0  0  0  0  0  0
   -4.9028   -5.7028  -11.3797 H   0  0  0  0  0  0  0  0  0  0  0  0
   -5.3503   -7.4405  -11.4497 H   0  0  0  0  0  0  0  0  0  0  0  0
   -2.9201   -7.2259  -11.1413 H   0  0  0  0  0  0  0  0  0  0  0  0
   -3.6589   -7.9644   -9.6691 H   0  0  0  0  0  0  0  0  0  0  0  0
   -3.1536   -6.2241   -9.6639 H   0  0  0  0  0  0  0  0  0  0  0  0
   -6.0070   -1.5370   -9.8631 H   0  0  0  0  0  0  0  0  0  0  0  0
   -1.8866   -2.4974   -8.3661 H   0  0  0  0  0  0  0  0  0  0  0  0
   -0.7624   -1.7970   -5.5882 H   0  0  0  0  0  0  0  0  0  0  0  0
   -0.0924   -3.7740   -3.0577 H   0  0  0  0  0  0  0  0  0  0  0  0
   -2.1822   -3.8361   -1.7434 H   0  0  0  0  0  0  0  0  0  0  0  0
   -2.1200   -1.0096    1.0921 H   0  0  0  0  0  0  0  0  0  0  0  0
   -3.6982   -1.3806    1.8563 H   0  0  0  0  0  0  0  0  0  0  0  0
   -2.0634   -3.0851    2.5178 H   0  0  0  0  0  0  0  0  0  0  0  0
   -1.6933   -3.4608    0.7964 H   0  0  0  0  0  0  0  0  0  0  0  0
   -3.3284   -3.8369    1.4725 H   0  0  0  0  0  0  0  0  0  0  0  0
   -0.0585    0.5287   -2.7811 H   0  0  0  0  0  0  0  0  0  0  0  0
    5.0320   -2.9510   -6.8570 H   0  0  0  0  0  0  0  0  0  0  0  0
    7.1852   -2.6527   -8.0241 H   0  0  0  0  0  0  0  0  0  0  0  0
   11.0099   -1.5496   -7.1245 H   0  0  0  0  0  0  0  0  0  0  0  0
    9.4974   -2.1459   -6.3703 H   0  0  0  0  0  0  0  0  0  0  0  0
    9.2694   -0.0088   -5.1037 H   0  0  0  0  0  0  0  0  0  0  0  0
   10.8866   -0.7351   -4.8143 H   0  0  0  0  0  0  0  0  0  0  0  0
   10.7260    0.6618   -5.9481 H   0  0  0  0  0  0  0  0  0  0  0  0
    5.2882    1.0875   -5.3661 H   0  0  0  0  0  0  0  0  0  0  0  0
    5.8092   -0.4364   -3.3349 H   0  0  0  0  0  0  0  0  0  0  0  0
    3.6648    0.5916    0.8625 H   0  0  0  0  0  0  0  0  0  0  0  0
    4.7066    1.2649    4.9467 H   0  0  0  0  0  0  0  0  0  0  0  0
    2.4706    1.2941    5.9947 H   0  0  0  0  0  0  0  0  0  0  0  0
   -0.6201    3.8322    6.8225 H   0  0  0  0  0  0  0  0  0  0  0  0
    1.1451    3.7832    6.5020 H   0  0  0  0  0  0  0  0  0  0  0  0
   -0.9831    5.0079    4.6187 H   0  0  0  0  0  0  0  0  0  0  0  0
    0.8136    5.0496    4.3760 H   0  0  0  0  0  0  0  0  0  0  0  0
    0.0718    5.9321    5.7538 H   0  0  0  0  0  0  0  0  0  0  0  0
    3.0871    3.1559    1.4336 H   0  0  0  0  0  0  0  0  0  0  0  0
    9.2067    4.2470   -0.0007 H   0  0  0  0  0  0  0  0  0  0  0  0
   11.4090    4.2364   -1.1124 H   0  0  0  0  0  0  0  0  0  0  0  0
   11.9282    2.1906   -3.4033 H   0  0  0  0  0  0  0  0  0  0  0  0
   12.3422    0.5064   -2.8813 H   0  0  0  0  0  0  0  0  0  0  0  0
   14.6541    0.7938   -3.7583 H   0  0  0  0  0  0  0  0  0  0  0  0
   13.4295    1.0980   -5.0512 H   0  0  0  0  0  0  0  0  0  0  0  0
   14.2671    2.4872   -4.2578 H   0  0  0  0  0  0  0  0  0  0  0  0
    9.7369    0.1100    1.0836 H   0  0  0  0  0  0  0  0  0  0  0  0
    9.7153    3.7742    2.8821 H   0  0  0  0  0  0  0  0  0  0  0  0
    8.6817    4.8711    5.0059 H   0  0  0  0  0  0  0  0  0  0  0  0
  1  2  2  0
  2  3  1  0
  3  4  2  0
  4  5  1  0
  5  6  2  0
  6  7  1  0
  7  8  2  0
  8  9  1  0
  9 10  1  0
 10 11  1  0
  8 12  1  0
 12 13  1  0
 12 14  2  0
  4 15  1  0
 15 16  2  0
 16 17  1  0
 17 18  1  0
 18 19  2  0
 19 20  1  0
 20 21  2  0
 21 22  1  0
 22 23  1  0
 23 24  1  0
 21 25  1  0
 25 26  2  0
 25 27  1  0
 17 28  2  0
 28 29  1  0
 16 30  1  0
 30 31  2  0
 31 32  1  0
 31 33  1  0
 33 34  1  0
 34 35  1  0
 35 36  2  0
 36 37  1  0
 37 38  1  0
 38 39  2  0
 39 40  1  0
 40 41  1  0
 40 42  2  0
 35 43  1  0
 43 44  2  3
 44 45  1  0
 45 46  2  0
 46 47  1  0
 47 48  2  0
 48 49  1  0
 49 50  2  0
 50 51  1  0
 51 52  2  0
 52 53  1  0
 53 54  1  0
 54 55  1  0
 52 56  1  0
 56 57  1  0
 56 58  2  0
 48 59  1  0
 59 60  2  0
 60 61  1  0
 61 62  1  0
 62 63  2  0
 63 64  1  0
 64 65  2  0
 65 66  1  0
 66 67  1  0
 67 68  1  0
 65 69  1  0
 69 70  2  0
 69 71  1  0
 61 72  2  0
 72 73  1  0
 60 74  1  0
 74 75  2  0
 75 76  1  0
 75 77  1  0
 77 78  2  0
 78 79  1  0
 79 80  2  0
 80 81  1  0
 81 82  2  0
 82 83  1  0
 83 84  2  0
 84 85  1  0
 85 86  1  0
 86 87  1  0
 84 88  1  0
 88 89  1  0
 88 90  2  0
 80 91  1  0
 91 92  2  0
 92 93  1  0
 93 94  1  0
 94 95  2  0
 95 96  1  0
 96 97  2  0
 97 98  1  0
 98 99  1  0
 99100  1  0
 97101  1  0
101102  2  0
101103  1  0
 93104  2  0
104105  1  0
 92106  1  0
106107  2  0
107108  1  0
107109  1  0
109110  2  0
110111  1  0
111112  2  0
112113  1  0
113114  2  0
114115  1  0
115116  2  0
116117  1  0
117118  1  0
118119  1  0
116120  1  0
120121  1  0
120122  2  0
112123  1  0
123124  2  0
124125  1  0
125126  1  0
126127  2  0
127128  1  0
128129  2  0
129130  1  0
130131  1  0
131132  1  0
129133  1  0
133134  2  0
133135  1  0
125136  2  0
136137  1  0
124138  1  0
138139  2  0
139140  1  0
139141  1  0
141142  2  0
142143  1  0
143144  2  0
144145  1  0
145146  2  0
146147  1  0
147148  2  0
148149  1  0
149150  1  0
150151  1  0
148152  1  0
152153  1  0
152154  2  0
144155  1  0
155156  2  0
156157  1  0
157158  1  0
158159  2  0
159160  1  0
160161  2  0
161162  1  0
162163  1  0
163164  1  0
161165  1  0
165166  2  0
165167  1  0
157168  2  0
168169  1  0
156170  1  0
170171  2  0
171172  1  0
 29  1  1  0
 37 33  2  0
 73 45  1  0
105 77  1  0
137109  1  0
169141  1  0
 28  3  1  0
 42 36  1  0
 72 47  1  0
104 79  1  0
136111  1  0
168143  1  0
 14  5  1  0
 32 15  1  0
 58 49  1  0
 76 59  1  0
 90 81  1  0
108 91  1  0
122113  1  0
140123  1  0
154145  1  0
172155  1  0
 26 18  1  0
 70 62  1  0
102 94  1  0
134126  1  0
166158  1  0
  1173  1  0
  2174  1  0
  6175  1  0
  7176  1  0
 10177  1  0
 10178  1  0
 11179  1  0
 11180  1  0
 11181  1  0
 14182  1  0
 19183  1  0
 20184  1  0
 23185  1  0
 23186  1  0
 24187  1  0
 24188  1  0
 24189  1  0
 26190  1  0
 30191  1  0
 38192  1  0
 39193  1  0
 42194  1  0
 43195  1  0
 44196  1  0
 46197  1  0
 50198  1  0
 51199  1  0
 54200  1  0
 54201  1  0
 55202  1  0
 55203  1  0
 55204  1  0
 58205  1  0
 63206  1  0
 64207  1  0
 67208  1  0
 67209  1  0
 68210  1  0
 68211  1  0
 68212  1  0
 70213  1  0
 74214  1  0
 78215  1  0
 82216  1  0
 83217  1  0
 86218  1  0
 86219  1  0
 87220  1  0
 87221  1  0
 87222  1  0
 90223  1  0
 95224  1  0
 96225  1  0
 99226  1  0
 99227  1  0
100228  1  0
100229  1  0
100230  1  0
102231  1  0
106232  1  0
110233  1  0
114234  1  0
115235  1  0
118236  1  0
118237  1  0
119238  1  0
119239  1  0
119240  1  0
122241  1  0
127242  1  0
128243  1  0
131244  1  0
131245  1  0
132246  1  0
132247  1  0
132248  1  0
134249  1  0
138250  1  0
142251  1  0
146252  1  0
147253  1  0
150254  1  0
150255  1  0
151256  1  0
151257  1  0
151258  1  0
154259  1  0
159260  1  0
160261  1  0
163262  1  0
163263  1  0
164264  1  0
164265  1  0
164266  1  0
166267  1  0
170268  1  0
171269  1  0
M  END

