
     RDKit          3D

128139  0  0  0  0  0  0  0  0999 V2000
    6.4899   -2.2519    2.8833 C   0  0  0  0  0  0  0  0  0  0  0  0
    6.3137   -2.3112    4.5516 S   0  0  0  0  0  0  0  0  0  0  0  0
    5.0553   -1.2144    4.6883 C   0  0  0  0  0  0  0  0  0  0  0  0
    4.8056   -0.7020    3.4129 C   0  0  0  0  0  0  0  0  0  0  0  0
    5.5711   -1.3160    2.3907 C   0  0  0  0  0  0  0  0  0  0  0  0
    5.4182   -0.9209    1.0396 C   0  0  0  0  0  0  0  0  0  0  0  0
    6.1299   -1.5768   -0.0912 C   0  0  0  0  0  0  0  0  0  0  0  0
    6.2162   -0.9827   -1.2040 O   0  0  0  0  0  0  0  0  0  0  0  0
    6.6827   -2.8538    0.0588 O   0  0  0  0  0  0  0  0  0  0  0  0
    7.2951   -3.5561   -1.0138 C   0  0  0  0  0  0  0  0  0  0  0  0
    4.5259    0.1346    0.7612 C   0  0  0  0  0  0  0  0  0  0  0  0
    3.8357    0.7938    1.7896 C   0  0  0  0  0  0  0  0  0  0  0  0
    3.9820    0.3809    3.1144 C   0  0  0  0  0  0  0  0  0  0  0  0
    4.4967   -0.8374    6.0019 C   0  0  0  0  0  0  0  0  0  0  0  0
    3.1998   -0.6940    6.3271 C   0  0  0  0  0  0  0  0  0  0  0  0
    2.0576   -0.6747    5.3978 C   0  0  0  0  0  0  0  0  0  0  0  0
    1.0928    0.7006    5.2799 S   0  0  0  0  0  0  0  0  0  0  0  0
    0.0670    0.1235    4.0931 C   0  0  0  0  0  0  0  0  0  0  0  0
    0.4528   -1.1761    3.7611 C   0  0  0  0  0  0  0  0  0  0  0  0
    1.5569   -1.6558    4.5124 C   0  0  0  0  0  0  0  0  0  0  0  0
    1.9931   -2.9892    4.3228 C   0  0  0  0  0  0  0  0  0  0  0  0
    2.9897   -3.6440    5.1942 C   0  0  0  0  0  0  0  0  0  0  0  0
    3.9305   -4.3149    4.6661 O   0  0  0  0  0  0  0  0  0  0  0  0
    2.8765   -3.5389    6.5798 O   0  0  0  0  0  0  0  0  0  0  0  0
    3.8829   -4.0207    7.4644 C   0  0  0  0  0  0  0  0  0  0  0  0
    1.3854   -3.7631    3.3088 C   0  0  0  0  0  0  0  0  0  0  0  0
    0.3377   -3.2500    2.5351 C   0  0  0  0  0  0  0  0  0  0  0  0
   -0.1537   -1.9662    2.7724 C   0  0  0  0  0  0  0  0  0  0  0  0
   -1.0531    0.9058    3.5632 C   0  0  0  0  0  0  0  0  0  0  0  0
   -2.3192    0.5580    3.8102 C   0  0  0  0  0  0  0  0  0  0  0  0
   -3.4568    1.4437    3.4871 C   0  0  0  0  0  0  0  0  0  0  0  0
   -4.9580    0.8583    3.0017 S   0  0  0  0  0  0  0  0  0  0  0  0
   -5.7084    2.3587    2.8092 C   0  0  0  0  0  0  0  0  0  0  0  0
   -4.8003    3.3422    3.1892 C   0  0  0  0  0  0  0  0  0  0  0  0
   -3.5428    2.8413    3.5830 C   0  0  0  0  0  0  0  0  0  0  0  0
   -2.5713    3.7198    4.0939 C   0  0  0  0  0  0  0  0  0  0  0  0
   -2.8302    5.0961    4.1094 C   0  0  0  0  0  0  0  0  0  0  0  0
   -4.0651    5.5928    3.6674 C   0  0  0  0  0  0  0  0  0  0  0  0
   -4.3010    6.9335    3.6969 F   0  0  0  0  0  0  0  0  0  0  0  0
   -5.0578    4.7161    3.2225 C   0  0  0  0  0  0  0  0  0  0  0  0
   -7.1369    2.5709    2.5213 C   0  0  0  0  0  0  0  0  0  0  0  0
   -7.8196    2.0014    1.5189 C   0  0  0  0  0  0  0  0  0  0  0  0
   -7.2385    1.2132    0.4017 C   0  0  0  0  0  0  0  0  0  0  0  0
   -5.6859    1.3893   -0.2490 S   0  0  0  0  0  0  0  0  0  0  0  0
   -5.8863    0.3550   -1.5662 C   0  0  0  0  0  0  0  0  0  0  0  0
   -7.1995   -0.1146   -1.5365 C   0  0  0  0  0  0  0  0  0  0  0  0
   -7.9453    0.3503   -0.4393 C   0  0  0  0  0  0  0  0  0  0  0  0
   -9.2715   -0.0683   -0.2543 C   0  0  0  0  0  0  0  0  0  0  0  0
   -9.8456   -0.9482   -1.1840 C   0  0  0  0  0  0  0  0  0  0  0  0
   -9.1095   -1.3935   -2.2905 C   0  0  0  0  0  0  0  0  0  0  0  0
   -9.6914   -2.2124   -3.1974 F   0  0  0  0  0  0  0  0  0  0  0  0
   -7.7827   -0.9878   -2.4684 C   0  0  0  0  0  0  0  0  0  0  0  0
   -4.8340   -0.0477   -2.5175 C   0  0  0  0  0  0  0  0  0  0  0  0
   -3.5439   -0.0719   -2.1626 C   0  0  0  0  0  0  0  0  0  0  0  0
   -2.4984   -0.6870   -3.0110 C   0  0  0  0  0  0  0  0  0  0  0  0
   -2.8195   -1.7465   -4.2884 S   0  0  0  0  0  0  0  0  0  0  0  0
   -1.2715   -2.3787   -4.4449 C   0  0  0  0  0  0  0  0  0  0  0  0
   -0.4884   -1.8342   -3.4299 C   0  0  0  0  0  0  0  0  0  0  0  0
   -1.1342   -0.8165   -2.6931 C   0  0  0  0  0  0  0  0  0  0  0  0
   -0.4051   -0.0823   -1.7241 C   0  0  0  0  0  0  0  0  0  0  0  0
   -0.8345    1.2463   -1.2371 C   0  0  0  0  0  0  0  0  0  0  0  0
   -1.5303    1.9912   -1.9819 O   0  0  0  0  0  0  0  0  0  0  0  0
   -0.3941    1.7233    0.0037 O   0  0  0  0  0  0  0  0  0  0  0  0
   -0.6359    3.0532    0.4341 C   0  0  0  0  0  0  0  0  0  0  0  0
    0.8704   -0.5472   -1.3552 C   0  0  0  0  0  0  0  0  0  0  0  0
    1.4434   -1.6539   -1.9989 C   0  0  0  0  0  0  0  0  0  0  0  0
    0.7803   -2.2875   -3.0484 C   0  0  0  0  0  0  0  0  0  0  0  0
   -0.9164   -3.3940   -5.4560 C   0  0  0  0  0  0  0  0  0  0  0  0
    0.1881   -3.3762   -6.2222 C   0  0  0  0  0  0  0  0  0  0  0  0
    1.2332   -2.3290   -6.1896 C   0  0  0  0  0  0  0  0  0  0  0  0
    2.8359   -2.7146   -5.8661 S   0  0  0  0  0  0  0  0  0  0  0  0
    3.4117   -1.1448   -5.6871 C   0  0  0  0  0  0  0  0  0  0  0  0
    2.3285   -0.2784   -5.9008 C   0  0  0  0  0  0  0  0  0  0  0  0
    1.1168   -0.9317   -6.2409 C   0  0  0  0  0  0  0  0  0  0  0  0
   -0.0182   -0.1617   -6.6080 C   0  0  0  0  0  0  0  0  0  0  0  0
   -1.2080   -0.7133   -7.2912 C   0  0  0  0  0  0  0  0  0  0  0  0
   -1.0913   -1.7016   -8.0658 O   0  0  0  0  0  0  0  0  0  0  0  0
   -2.4450   -0.0666   -7.1576 O   0  0  0  0  0  0  0  0  0  0  0  0
   -3.6101   -0.4822   -7.8599 C   0  0  0  0  0  0  0  0  0  0  0  0
    0.0498    1.2406   -6.4560 C   0  0  0  0  0  0  0  0  0  0  0  0
    1.2322    1.8704   -6.0457 C   0  0  0  0  0  0  0  0  0  0  0  0
    2.3812    1.1201   -5.7918 C   0  0  0  0  0  0  0  0  0  0  0  0
    4.8007   -0.7705   -5.3451 C   0  0  0  0  0  0  0  0  0  0  0  0
    5.7586   -1.6814   -5.1491 C   0  0  0  0  0  0  0  0  0  0  0  0
    7.2304   -2.8173    2.3385 H   0  0  0  0  0  0  0  0  0  0  0  0
    8.1439   -2.9761   -1.4188 H   0  0  0  0  0  0  0  0  0  0  0  0
    6.5458   -3.7570   -1.8155 H   0  0  0  0  0  0  0  0  0  0  0  0
    7.6677   -4.5340   -0.6328 H   0  0  0  0  0  0  0  0  0  0  0  0
    4.3658    0.4730   -0.2577 H   0  0  0  0  0  0  0  0  0  0  0  0
    3.1831    1.6207    1.5555 H   0  0  0  0  0  0  0  0  0  0  0  0
    3.4950    0.9468    3.8906 H   0  0  0  0  0  0  0  0  0  0  0  0
    5.2022   -0.7956    6.8228 H   0  0  0  0  0  0  0  0  0  0  0  0
    2.9734   -0.4299    7.3533 H   0  0  0  0  0  0  0  0  0  0  0  0
    4.7783   -3.3653    7.4069 H   0  0  0  0  0  0  0  0  0  0  0  0
    4.1842   -5.0644    7.2000 H   0  0  0  0  0  0  0  0  0  0  0  0
    3.4921   -4.0050    8.5054 H   0  0  0  0  0  0  0  0  0  0  0  0
    1.7024   -4.7855    3.1402 H   0  0  0  0  0  0  0  0  0  0  0  0
   -0.1308   -3.8796    1.7775 H   0  0  0  0  0  0  0  0  0  0  0  0
   -0.9834   -1.5889    2.1802 H   0  0  0  0  0  0  0  0  0  0  0  0
   -0.8263    1.8536    3.1013 H   0  0  0  0  0  0  0  0  0  0  0  0
   -2.5312   -0.4169    4.2403 H   0  0  0  0  0  0  0  0  0  0  0  0
   -1.6381    3.3666    4.4930 H   0  0  0  0  0  0  0  0  0  0  0  0
   -2.0826    5.7834    4.4756 H   0  0  0  0  0  0  0  0  0  0  0  0
   -6.0174    5.1110    2.9067 H   0  0  0  0  0  0  0  0  0  0  0  0
   -7.6798    3.2229    3.1991 H   0  0  0  0  0  0  0  0  0  0  0  0
   -8.8853    2.1846    1.4882 H   0  0  0  0  0  0  0  0  0  0  0  0
   -9.8519    0.2500    0.5970 H   0  0  0  0  0  0  0  0  0  0  0  0
  -10.8697   -1.2710   -1.0556 H   0  0  0  0  0  0  0  0  0  0  0  0
   -7.2259   -1.3434   -3.3224 H   0  0  0  0  0  0  0  0  0  0  0  0
   -5.1326   -0.4100   -3.4863 H   0  0  0  0  0  0  0  0  0  0  0  0
   -3.2724    0.2464   -1.1685 H   0  0  0  0  0  0  0  0  0  0  0  0
   -0.3079    3.7796   -0.3472 H   0  0  0  0  0  0  0  0  0  0  0  0
   -0.0599    3.2529    1.3570 H   0  0  0  0  0  0  0  0  0  0  0  0
   -1.7170    3.1898    0.6400 H   0  0  0  0  0  0  0  0  0  0  0  0
    1.4524   -0.0186   -0.6104 H   0  0  0  0  0  0  0  0  0  0  0  0
    2.4190   -2.0033   -1.6907 H   0  0  0  0  0  0  0  0  0  0  0  0
    1.2280   -3.1453   -3.5160 H   0  0  0  0  0  0  0  0  0  0  0  0
   -1.6410   -4.1748   -5.6452 H   0  0  0  0  0  0  0  0  0  0  0  0
    0.3614   -4.2187   -6.8796 H   0  0  0  0  0  0  0  0  0  0  0  0
   -3.4075   -0.5268   -8.9564 H   0  0  0  0  0  0  0  0  0  0  0  0
   -4.4209    0.2548   -7.6867 H   0  0  0  0  0  0  0  0  0  0  0  0
   -3.9437   -1.4858   -7.5078 H   0  0  0  0  0  0  0  0  0  0  0  0
   -0.7992    1.8622   -6.7121 H   0  0  0  0  0  0  0  0  0  0  0  0
    1.2624    2.9410   -5.9727 H   0  0  0  0  0  0  0  0  0  0  0  0
    3.2922    1.6359   -5.5194 H   0  0  0  0  0  0  0  0  0  0  0  0
    5.0676    0.2768   -5.2316 H   0  0  0  0  0  0  0  0  0  0  0  0
    6.7562   -1.3623   -4.8893 H   0  0  0  0  0  0  0  0  0  0  0  0
    5.5635   -2.7445   -5.2472 H   0  0  0  0  0  0  0  0  0  0  0  0
  1  2  1  0
  2  3  1  0
  3  4  2  0
  4  5  1  0
  5  6  1  0
  6  7  1  0
  7  8  2  0
  7  9  1  0
  9 10  1  0
  6 11  2  0
 11 12  1  0
 12 13  2  0
  3 14  1  0
 14 15  2  3
 15 16  1  0
 16 17  1  0
 17 18  1  0
 18 19  2  0
 19 20  1  0
 20 21  1  0
 21 22  1  0
 22 23  2  0
 22 24  1  0
 24 25  1  0
 21 26  2  0
 26 27  1  0
 27 28  2  0
 18 29  1  0
 29 30  2  3
 30 31  1  0
 31 32  1  0
 32 33  1  0
 33 34  2  0
 34 35  1  0
 35 36  1  0
 36 37  2  0
 37 38  1  0
 38 39  1  0
 38 40  2  0
 33 41  1  0
 41 42  2  3
 42 43  1  0
 43 44  1  0
 44 45  1  0
 45 46  2  0
 46 47  1  0
 47 48  1  0
 48 49  2  0
 49 50  1  0
 50 51  1  0
 50 52  2  0
 45 53  1  0
 53 54  2  3
 54 55  1  0
 55 56  1  0
 56 57  1  0
 57 58  2  0
 58 59  1  0
 59 60  1  0
 60 61  1  0
 61 62  2  0
 61 63  1  0
 63 64  1  0
 60 65  2  0
 65 66  1  0
 66 67  2  0
 57 68  1  0
 68 69  2  3
 69 70  1  0
 70 71  1  0
 71 72  1  0
 72 73  2  0
 73 74  1  0
 74 75  1  0
 75 76  1  0
 76 77  2  0
 76 78  1  0
 78 79  1  0
 75 80  2  0
 80 81  1  0
 81 82  2  0
 72 83  1  0
 83 84  2  3
  5  1  2  0
 20 16  2  0
 35 31  2  0
 47 43  2  0
 59 55  2  0
 74 70  2  0
 13  4  1  0
 28 19  1  0
 40 34  1  0
 52 46  1  0
 67 58  1  0
 82 73  1  0
  1 85  1  0
 10 86  1  0
 10 87  1  0
 10 88  1  0
 11 89  1  0
 12 90  1  0
 13 91  1  0
 14 92  1  0
 15 93  1  0
 25 94  1  0
 25 95  1  0
 25 96  1  0
 26 97  1  0
 27 98  1  0
 28 99  1  0
 29100  1  0
 30101  1  0
 36102  1  0
 37103  1  0
 40104  1  0
 41105  1  0
 42106  1  0
 48107  1  0
 49108  1  0
 52109  1  0
 53110  1  0
 54111  1  0
 64112  1  0
 64113  1  0
 64114  1  0
 65115  1  0
 66116  1  0
 67117  1  0
 68118  1  0
 69119  1  0
 79120  1  0
 79121  1  0
 79122  1  0
 80123  1  0
 81124  1  0
 82125  1  0
 83126  1  0
 84127  1  0
 84128  1  0
M  END

