
     RDKit          3D

236259  0  0  0  0  0  0  0  0999 V2000
    4.5064   -0.6822   14.2699 C   0  0  0  0  0  0  0  0  0  0  0  0
    3.2856   -1.2980   13.2910 S   0  0  0  0  0  0  0  0  0  0  0  0
    3.8656   -0.7241   11.8101 C   0  0  0  0  0  0  0  0  0  0  0  0
    5.0481   -0.0276   12.0760 C   0  0  0  0  0  0  0  0  0  0  0  0
    5.3942   -0.0105   13.4423 C   0  0  0  0  0  0  0  0  0  0  0  0
    6.5477    0.6412   13.8828 C   0  0  0  0  0  0  0  0  0  0  0  0
    7.3606    1.2874   12.9447 C   0  0  0  0  0  0  0  0  0  0  0  0
    7.0233    1.2769   11.5789 C   0  0  0  0  0  0  0  0  0  0  0  0
    7.8236    1.9060   10.6816 F   0  0  0  0  0  0  0  0  0  0  0  0
    5.8666    0.6191   11.1384 C   0  0  0  0  0  0  0  0  0  0  0  0
    3.2302   -0.9290   10.4903 C   0  0  0  0  0  0  0  0  0  0  0  0
    2.0351   -1.5154   10.3674 C   0  0  0  0  0  0  0  0  0  0  0  0
    1.3668   -1.7147    9.0690 C   0  0  0  0  0  0  0  0  0  0  0  0
    0.0788   -2.2235    8.9276 C   0  0  0  0  0  0  0  0  0  0  0  0
   -0.3459   -2.2874    7.5897 C   0  0  0  0  0  0  0  0  0  0  0  0
   -1.6005   -2.7500    7.1422 C   0  0  0  0  0  0  0  0  0  0  0  0
   -2.6432   -3.1877    8.0903 C   0  0  0  0  0  0  0  0  0  0  0  0
   -3.0177   -4.5371    8.1586 C   0  0  0  0  0  0  0  0  0  0  0  0
   -3.9519   -4.9589    9.1083 C   0  0  0  0  0  0  0  0  0  0  0  0
   -4.5245   -4.0348    9.9899 C   0  0  0  0  0  0  0  0  0  0  0  0
   -5.6573   -4.5982   11.2647 S   0  0  0  0  0  0  0  0  0  0  0  0
   -7.1858   -4.3050   10.2943 C   0  0  0  0  0  0  0  0  0  0  0  0
   -7.5462   -5.5497    9.4890 C   0  0  0  0  0  0  0  0  0  0  0  0
   -4.1692   -2.6836    9.9114 C   0  0  0  0  0  0  0  0  0  0  0  0
   -4.7345   -1.7749   10.7455 F   0  0  0  0  0  0  0  0  0  0  0  0
   -3.2392   -2.2603    8.9602 C   0  0  0  0  0  0  0  0  0  0  0  0
   -1.8243   -2.7462    5.7550 C   0  0  0  0  0  0  0  0  0  0  0  0
   -0.8637   -2.2895    4.8420 C   0  0  0  0  0  0  0  0  0  0  0  0
    0.3913   -1.7995    5.2874 C   0  0  0  0  0  0  0  0  0  0  0  0
    1.3785   -1.1665    4.3687 C   0  0  0  0  0  0  0  0  0  0  0  0
    1.8399   -1.8340    3.2182 C   0  0  0  0  0  0  0  0  0  0  0  0
    2.7323   -1.1977    2.3477 C   0  0  0  0  0  0  0  0  0  0  0  0
    3.1953    0.0949    2.6297 C   0  0  0  0  0  0  0  0  0  0  0  0
    4.3487    0.9089    1.5235 S   0  0  0  0  0  0  0  0  0  0  0  0
    3.0575    1.9297    0.7223 C   0  0  0  0  0  0  0  0  0  0  0  0
    3.6801    2.8871   -0.2812 C   0  0  0  0  0  0  0  0  0  0  0  0
    2.7635    0.7451    3.7900 C   0  0  0  0  0  0  0  0  0  0  0  0
    1.8404    0.1323    4.6359 C   0  0  0  0  0  0  0  0  0  0  0  0
    3.2130    1.9912    4.0859 F   0  0  0  0  0  0  0  0  0  0  0  0
    0.6139   -1.8350    6.6779 C   0  0  0  0  0  0  0  0  0  0  0  0
    1.9873   -1.3638    7.5348 S   0  0  0  0  0  0  0  0  0  0  0  0
   -1.3264   -2.3135    3.5189 C   0  0  0  0  0  0  0  0  0  0  0  0
   -2.6326   -2.7931    3.4014 C   0  0  0  0  0  0  0  0  0  0  0  0
   -3.2356   -3.1631    4.9310 S   0  0  0  0  0  0  0  0  0  0  0  0
   -3.3684   -2.8744    2.1342 C   0  0  0  0  0  0  0  0  0  0  0  0
   -2.7556   -2.9537    0.8898 C   0  0  0  0  0  0  0  0  0  0  0  0
   -3.6351   -2.7189   -0.1713 C   0  0  0  0  0  0  0  0  0  0  0  0
   -3.2560   -2.6048   -1.5198 C   0  0  0  0  0  0  0  0  0  0  0  0
   -1.8735   -2.9033   -1.9575 C   0  0  0  0  0  0  0  0  0  0  0  0
   -1.0599   -1.8977   -2.5014 C   0  0  0  0  0  0  0  0  0  0  0  0
    0.2589   -2.1845   -2.8697 C   0  0  0  0  0  0  0  0  0  0  0  0
    0.7788   -3.4682   -2.6833 C   0  0  0  0  0  0  0  0  0  0  0  0
    2.4908   -3.8098   -3.1128 S   0  0  0  0  0  0  0  0  0  0  0  0
    2.1472   -4.2915   -4.8425 C   0  0  0  0  0  0  0  0  0  0  0  0
    2.1417   -3.0674   -5.7494 C   0  0  0  0  0  0  0  0  0  0  0  0
   -0.0229   -4.4729   -2.1257 C   0  0  0  0  0  0  0  0  0  0  0  0
    0.4796   -5.7165   -1.9117 F   0  0  0  0  0  0  0  0  0  0  0  0
   -1.3449   -4.1909   -1.7704 C   0  0  0  0  0  0  0  0  0  0  0  0
   -4.2232   -2.1058   -2.4022 C   0  0  0  0  0  0  0  0  0  0  0  0
   -5.5239   -1.7866   -1.9950 C   0  0  0  0  0  0  0  0  0  0  0  0
   -5.9360   -2.0080   -0.6593 C   0  0  0  0  0  0  0  0  0  0  0  0
   -7.3147   -1.6864   -0.2181 C   0  0  0  0  0  0  0  0  0  0  0  0
   -8.4153   -2.2693   -0.8717 C   0  0  0  0  0  0  0  0  0  0  0  0
   -9.7191   -1.9181   -0.5109 C   0  0  0  0  0  0  0  0  0  0  0  0
   -9.9396   -0.9900    0.5138 C   0  0  0  0  0  0  0  0  0  0  0  0
  -11.6204   -0.4996    0.9282 S   0  0  0  0  0  0  0  0  0  0  0  0
  -11.9365   -1.8902    2.0725 C   0  0  0  0  0  0  0  0  0  0  0  0
  -11.2814   -1.6566    3.4289 C   0  0  0  0  0  0  0  0  0  0  0  0
   -8.8502   -0.4091    1.1728 C   0  0  0  0  0  0  0  0  0  0  0  0
   -7.5473   -0.7644    0.8161 C   0  0  0  0  0  0  0  0  0  0  0  0
   -9.0504    0.5106    2.1538 F   0  0  0  0  0  0  0  0  0  0  0  0
   -4.9443   -2.4485    0.2387 C   0  0  0  0  0  0  0  0  0  0  0  0
   -5.0127   -2.5509    1.9251 S   0  0  0  0  0  0  0  0  0  0  0  0
   -6.2372   -1.0675   -2.9745 C   0  0  0  0  0  0  0  0  0  0  0  0
   -5.5014   -0.8392   -4.1413 C   0  0  0  0  0  0  0  0  0  0  0  0
   -3.9791   -1.5460   -3.9612 S   0  0  0  0  0  0  0  0  0  0  0  0
   -5.7660    0.2615   -5.0868 C   0  0  0  0  0  0  0  0  0  0  0  0
   -6.5259    1.7014   -4.6347 S   0  0  0  0  0  0  0  0  0  0  0  0
   -6.0189    2.6333   -5.9369 C   0  0  0  0  0  0  0  0  0  0  0  0
   -5.2354    1.8284   -6.7641 C   0  0  0  0  0  0  0  0  0  0  0  0
   -5.1034    0.5062   -6.2985 C   0  0  0  0  0  0  0  0  0  0  0  0
   -4.3492   -0.4228   -7.0270 C   0  0  0  0  0  0  0  0  0  0  0  0
   -3.7109   -0.0156   -8.2059 C   0  0  0  0  0  0  0  0  0  0  0  0
   -3.8269    1.3096   -8.6545 C   0  0  0  0  0  0  0  0  0  0  0  0
   -3.1997    1.6920   -9.7940 F   0  0  0  0  0  0  0  0  0  0  0  0
   -4.5971    2.2371   -7.9390 C   0  0  0  0  0  0  0  0  0  0  0  0
   -6.1937    4.0915   -6.0376 C   0  0  0  0  0  0  0  0  0  0  0  0
   -5.1842    4.9553   -5.8542 C   0  0  0  0  0  0  0  0  0  0  0  0
   -3.8457    4.5318   -5.4112 C   0  0  0  0  0  0  0  0  0  0  0  0
   -3.5567    3.8673   -4.2191 C   0  0  0  0  0  0  0  0  0  0  0  0
   -2.2172    3.4419   -4.1362 C   0  0  0  0  0  0  0  0  0  0  0  0
   -1.6209    2.7020   -3.0871 C   0  0  0  0  0  0  0  0  0  0  0  0
   -2.3394    2.3575   -1.8335 C   0  0  0  0  0  0  0  0  0  0  0  0
   -1.7743    2.6853   -0.5899 C   0  0  0  0  0  0  0  0  0  0  0  0
   -2.4469    2.3830    0.5955 C   0  0  0  0  0  0  0  0  0  0  0  0
   -3.7130    1.7979    0.5525 C   0  0  0  0  0  0  0  0  0  0  0  0
   -4.5900    1.4625    2.0816 S   0  0  0  0  0  0  0  0  0  0  0  0
   -5.3206    3.1372    2.2244 C   0  0  0  0  0  0  0  0  0  0  0  0
   -6.5539    3.2720    1.3329 C   0  0  0  0  0  0  0  0  0  0  0  0
   -4.2874    1.4698   -0.6853 C   0  0  0  0  0  0  0  0  0  0  0  0
   -5.5365    0.9519   -0.7437 F   0  0  0  0  0  0  0  0  0  0  0  0
   -3.5893    1.7183   -1.8690 C   0  0  0  0  0  0  0  0  0  0  0  0
   -0.2770    2.3176   -3.2683 C   0  0  0  0  0  0  0  0  0  0  0  0
    0.4644    2.6687   -4.3987 C   0  0  0  0  0  0  0  0  0  0  0  0
   -0.1141    3.4472   -5.4247 C   0  0  0  0  0  0  0  0  0  0  0  0
    0.6526    3.8738   -6.6195 C   0  0  0  0  0  0  0  0  0  0  0  0
    0.7744    5.2397   -6.9226 C   0  0  0  0  0  0  0  0  0  0  0  0
    1.5279    5.6547   -8.0261 C   0  0  0  0  0  0  0  0  0  0  0  0
    2.1955    4.7136   -8.8175 C   0  0  0  0  0  0  0  0  0  0  0  0
    3.1529    5.2565  -10.2412 S   0  0  0  0  0  0  0  0  0  0  0  0
    4.6032    5.8423   -9.2839 C   0  0  0  0  0  0  0  0  0  0  0  0
    5.4513    4.6790   -8.7861 C   0  0  0  0  0  0  0  0  0  0  0  0
    2.0574    3.3461   -8.5370 C   0  0  0  0  0  0  0  0  0  0  0  0
    1.2797    2.9281   -7.4503 C   0  0  0  0  0  0  0  0  0  0  0  0
    2.6598    2.4173   -9.3258 F   0  0  0  0  0  0  0  0  0  0  0  0
   -1.4637    3.8021   -5.2611 C   0  0  0  0  0  0  0  0  0  0  0  0
   -2.4521    4.6317   -6.3491 S   0  0  0  0  0  0  0  0  0  0  0  0
    1.7620    2.1367   -4.3878 C   0  0  0  0  0  0  0  0  0  0  0  0
    2.0125    1.3129   -3.2962 C   0  0  0  0  0  0  0  0  0  0  0  0
    0.6619    1.3152   -2.2880 S   0  0  0  0  0  0  0  0  0  0  0  0
    3.1717    0.4137   -3.1876 C   0  0  0  0  0  0  0  0  0  0  0  0
    3.9537    0.0316   -4.2683 C   0  0  0  0  0  0  0  0  0  0  0  0
    4.9506   -0.8905   -3.9328 C   0  0  0  0  0  0  0  0  0  0  0  0
    5.8678   -1.4790   -4.8327 C   0  0  0  0  0  0  0  0  0  0  0  0
    5.8080   -1.1854   -6.2829 C   0  0  0  0  0  0  0  0  0  0  0  0
    5.9439    0.1325   -6.7526 C   0  0  0  0  0  0  0  0  0  0  0  0
    5.6415    0.4407   -8.0841 C   0  0  0  0  0  0  0  0  0  0  0  0
    5.2453   -0.5698   -8.9686 C   0  0  0  0  0  0  0  0  0  0  0  0
    4.6805   -0.1542  -10.6230 S   0  0  0  0  0  0  0  0  0  0  0  0
    6.3431   -0.0058  -11.3739 C   0  0  0  0  0  0  0  0  0  0  0  0
    6.6601    1.4621  -11.6481 C   0  0  0  0  0  0  0  0  0  0  0  0
    5.1772   -1.8999   -8.5198 C   0  0  0  0  0  0  0  0  0  0  0  0
    4.7720   -2.8860   -9.3555 F   0  0  0  0  0  0  0  0  0  0  0  0
    5.4602   -2.2025   -7.1833 C   0  0  0  0  0  0  0  0  0  0  0  0
    6.7551   -2.4240   -4.2958 C   0  0  0  0  0  0  0  0  0  0  0  0
    6.7660   -2.7606   -2.9379 C   0  0  0  0  0  0  0  0  0  0  0  0
    5.8440   -2.1765   -2.0429 C   0  0  0  0  0  0  0  0  0  0  0  0
    5.8686   -2.5027   -0.6069 C   0  0  0  0  0  0  0  0  0  0  0  0
    6.8149   -1.8879    0.2248 C   0  0  0  0  0  0  0  0  0  0  0  0
    6.9653   -2.3086    1.5493 C   0  0  0  0  0  0  0  0  0  0  0  0
    6.1720   -3.3485    2.0522 C   0  0  0  0  0  0  0  0  0  0  0  0
    6.4858   -3.9893    3.7016 S   0  0  0  0  0  0  0  0  0  0  0  0
    5.1726   -3.0338    4.5392 C   0  0  0  0  0  0  0  0  0  0  0  0
    5.5899   -1.5871    4.7534 C   0  0  0  0  0  0  0  0  0  0  0  0
    5.2085   -3.9487    1.2293 C   0  0  0  0  0  0  0  0  0  0  0  0
    5.0544   -3.5224   -0.0964 C   0  0  0  0  0  0  0  0  0  0  0  0
    4.4432   -4.9650    1.6996 F   0  0  0  0  0  0  0  0  0  0  0  0
    4.9363   -1.2457   -2.5798 C   0  0  0  0  0  0  0  0  0  0  0  0
    3.6771   -0.4321   -1.8102 S   0  0  0  0  0  0  0  0  0  0  0  0
    7.7480   -3.7094   -2.6133 C   0  0  0  0  0  0  0  0  0  0  0  0
    8.4985   -4.1174   -3.7106 C   0  0  0  0  0  0  0  0  0  0  0  0
    7.9553   -3.2983   -5.0794 S   0  0  0  0  0  0  0  0  0  0  0  0
    4.5835   -0.7906   15.3437 H   0  0  0  0  0  0  0  0  0  0  0  0
    6.8130    0.6528   14.9332 H   0  0  0  0  0  0  0  0  0  0  0  0
    8.2598    1.7954   13.2736 H   0  0  0  0  0  0  0  0  0  0  0  0
    5.6224    0.6243   10.0833 H   0  0  0  0  0  0  0  0  0  0  0  0
    3.7402   -0.5758    9.6061 H   0  0  0  0  0  0  0  0  0  0  0  0
    1.5050   -1.8545   11.2473 H   0  0  0  0  0  0  0  0  0  0  0  0
   -0.5296   -2.5277    9.7677 H   0  0  0  0  0  0  0  0  0  0  0  0
   -2.5592   -5.2648    7.4968 H   0  0  0  0  0  0  0  0  0  0  0  0
   -4.2126   -6.0091    9.1715 H   0  0  0  0  0  0  0  0  0  0  0  0
   -8.0064   -4.0835   11.0055 H   0  0  0  0  0  0  0  0  0  0  0  0
   -7.0739   -3.4327    9.6140 H   0  0  0  0  0  0  0  0  0  0  0  0
   -7.6535   -6.4240   10.1676 H   0  0  0  0  0  0  0  0  0  0  0  0
   -6.7568   -5.7636    8.7395 H   0  0  0  0  0  0  0  0  0  0  0  0
   -8.5098   -5.3905    8.9588 H   0  0  0  0  0  0  0  0  0  0  0  0
   -2.9615   -1.2115    8.9092 H   0  0  0  0  0  0  0  0  0  0  0  0
    1.5103   -2.8460    3.0040 H   0  0  0  0  0  0  0  0  0  0  0  0
    3.0788   -1.7177    1.4621 H   0  0  0  0  0  0  0  0  0  0  0  0
    2.5024    2.5185    1.4823 H   0  0  0  0  0  0  0  0  0  0  0  0
    2.3359    1.2616    0.2017 H   0  0  0  0  0  0  0  0  0  0  0  0
    2.8827    3.4221   -0.8428 H   0  0  0  0  0  0  0  0  0  0  0  0
    4.3181    3.6328    0.2468 H   0  0  0  0  0  0  0  0  0  0  0  0
    4.3176    2.3353   -1.0019 H   0  0  0  0  0  0  0  0  0  0  0  0
    1.4857    0.6740    5.5066 H   0  0  0  0  0  0  0  0  0  0  0  0
   -0.7586   -1.9531    2.6750 H   0  0  0  0  0  0  0  0  0  0  0  0
   -1.6914   -3.0977    0.7712 H   0  0  0  0  0  0  0  0  0  0  0  0
   -1.4390   -0.8920   -2.6302 H   0  0  0  0  0  0  0  0  0  0  0  0
    0.8776   -1.4082   -3.2990 H   0  0  0  0  0  0  0  0  0  0  0  0
    1.1823   -4.8358   -4.9239 H   0  0  0  0  0  0  0  0  0  0  0  0
    2.9564   -4.9764   -5.1709 H   0  0  0  0  0  0  0  0  0  0  0  0
    2.0997   -3.3898   -6.8091 H   0  0  0  0  0  0  0  0  0  0  0  0
    3.0710   -2.4807   -5.5978 H   0  0  0  0  0  0  0  0  0  0  0  0
    1.2632   -2.4270   -5.5417 H   0  0  0  0  0  0  0  0  0  0  0  0
   -1.9591   -4.9717   -1.3357 H   0  0  0  0  0  0  0  0  0  0  0  0
   -8.2598   -2.9819   -1.6708 H   0  0  0  0  0  0  0  0  0  0  0  0
  -10.5584   -2.3636   -1.0299 H   0  0  0  0  0  0  0  0  0  0  0  0
  -11.5846   -2.8451    1.6302 H   0  0  0  0  0  0  0  0  0  0  0  0
  -13.0352   -1.9691    2.2189 H   0  0  0  0  0  0  0  0  0  0  0  0
  -10.1782   -1.6620    3.3310 H   0  0  0  0  0  0  0  0  0  0  0  0
  -11.6138   -0.6861    3.8520 H   0  0  0  0  0  0  0  0  0  0  0  0
  -11.5722   -2.4702    4.1243 H   0  0  0  0  0  0  0  0  0  0  0  0
   -6.7190   -0.2932    1.3236 H   0  0  0  0  0  0  0  0  0  0  0  0
   -7.2033   -0.6163   -2.8019 H   0  0  0  0  0  0  0  0  0  0  0  0
   -4.2637   -1.4537   -6.7110 H   0  0  0  0  0  0  0  0  0  0  0  0
   -3.1305   -0.7271   -8.7764 H   0  0  0  0  0  0  0  0  0  0  0  0
   -4.6940    3.2537   -8.3019 H   0  0  0  0  0  0  0  0  0  0  0  0
   -7.1668    4.4722   -6.3136 H   0  0  0  0  0  0  0  0  0  0  0  0
   -5.3440    6.0045   -6.0592 H   0  0  0  0  0  0  0  0  0  0  0  0
   -4.3017    3.7058   -3.4555 H   0  0  0  0  0  0  0  0  0  0  0  0
   -0.8136    3.1857   -0.5338 H   0  0  0  0  0  0  0  0  0  0  0  0
   -1.9921    2.6293    1.5475 H   0  0  0  0  0  0  0  0  0  0  0  0
   -4.5754    3.9199    1.9680 H   0  0  0  0  0  0  0  0  0  0  0  0
   -5.6268    3.2906    3.2832 H   0  0  0  0  0  0  0  0  0  0  0  0
   -6.2568    3.2633    0.2636 H   0  0  0  0  0  0  0  0  0  0  0  0
   -7.2590    2.4361    1.5223 H   0  0  0  0  0  0  0  0  0  0  0  0
   -7.0671    4.2369    1.5444 H   0  0  0  0  0  0  0  0  0  0  0  0
   -4.0329    1.4374   -2.8170 H   0  0  0  0  0  0  0  0  0  0  0  0
    0.2850    5.9844   -6.3098 H   0  0  0  0  0  0  0  0  0  0  0  0
    1.6070    6.7100   -8.2529 H   0  0  0  0  0  0  0  0  0  0  0  0
    5.2261    6.4708   -9.9557 H   0  0  0  0  0  0  0  0  0  0  0  0
    4.2759    6.4774   -8.4324 H   0  0  0  0  0  0  0  0  0  0  0  0
    4.9114    4.1189   -7.9916 H   0  0  0  0  0  0  0  0  0  0  0  0
    6.4009    5.0692   -8.3589 H   0  0  0  0  0  0  0  0  0  0  0  0
    5.6878    3.9941   -9.6260 H   0  0  0  0  0  0  0  0  0  0  0  0
    1.1739    1.8678   -7.2520 H   0  0  0  0  0  0  0  0  0  0  0  0
    2.4824    2.3057   -5.1741 H   0  0  0  0  0  0  0  0  0  0  0  0
    3.7684    0.3755   -5.2744 H   0  0  0  0  0  0  0  0  0  0  0  0
    6.2140    0.9310   -6.0719 H   0  0  0  0  0  0  0  0  0  0  0  0
    5.6962    1.4678   -8.4201 H   0  0  0  0  0  0  0  0  0  0  0  0
    6.3407   -0.5633  -12.3342 H   0  0  0  0  0  0  0  0  0  0  0  0
    7.1349   -0.4433  -10.7234 H   0  0  0  0  0  0  0  0  0  0  0  0
    5.8426    1.9295  -12.2427 H   0  0  0  0  0  0  0  0  0  0  0  0
    7.6076    1.5372  -12.2259 H   0  0  0  0  0  0  0  0  0  0  0  0
    6.7832    2.0122  -10.6934 H   0  0  0  0  0  0  0  0  0  0  0  0
    5.3323   -3.2228   -6.8352 H   0  0  0  0  0  0  0  0  0  0  0  0
    7.4601   -1.1082   -0.1652 H   0  0  0  0  0  0  0  0  0  0  0  0
    7.7248   -1.8535    2.1709 H   0  0  0  0  0  0  0  0  0  0  0  0
    4.9839   -3.4991    5.5304 H   0  0  0  0  0  0  0  0  0  0  0  0
    4.2323   -3.0843    3.9543 H   0  0  0  0  0  0  0  0  0  0  0  0
    6.5622   -1.5403    5.2888 H   0  0  0  0  0  0  0  0  0  0  0  0
    5.6821   -1.0652    3.7797 H   0  0  0  0  0  0  0  0  0  0  0  0
    4.8181   -1.0698    5.3588 H   0  0  0  0  0  0  0  0  0  0  0  0
    4.3333   -4.0191   -0.7347 H   0  0  0  0  0  0  0  0  0  0  0  0
    7.9125   -4.0928   -1.6158 H   0  0  0  0  0  0  0  0  0  0  0  0
    9.3043   -4.8370   -3.6832 H   0  0  0  0  0  0  0  0  0  0  0  0
  1  2  1  0
  2  3  1  0
  3  4  2  0
  4  5  1  0
  5  6  1  0
  6  7  2  0
  7  8  1  0
  8  9  1  0
  8 10  2  0
  3 11  1  0
 11 12  2  3
 12 13  1  0
 13 14  2  0
 14 15  1  0
 15 16  2  0
 16 17  1  0
 17 18  2  0
 18 19  1  0
 19 20  2  0
 20 21  1  0
 21 22  1  0
 22 23  1  0
 20 24  1  0
 24 25  1  0
 24 26  2  0
 16 27  1  0
 27 28  2  0
 28 29  1  0
 29 30  1  0
 30 31  2  0
 31 32  1  0
 32 33  2  0
 33 34  1  0
 34 35  1  0
 35 36  1  0
 33 37  1  0
 37 38  2  0
 37 39  1  0
 29 40  2  0
 40 41  1  0
 28 42  1  0
 42 43  2  0
 43 44  1  0
 43 45  1  0
 45 46  2  0
 46 47  1  0
 47 48  2  0
 48 49  1  0
 49 50  2  0
 50 51  1  0
 51 52  2  0
 52 53  1  0
 53 54  1  0
 54 55  1  0
 52 56  1  0
 56 57  1  0
 56 58  2  0
 48 59  1  0
 59 60  2  0
 60 61  1  0
 61 62  1  0
 62 63  2  0
 63 64  1  0
 64 65  2  0
 65 66  1  0
 66 67  1  0
 67 68  1  0
 65 69  1  0
 69 70  2  0
 69 71  1  0
 61 72  2  0
 72 73  1  0
 60 74  1  0
 74 75  2  0
 75 76  1  0
 75 77  1  0
 77 78  1  0
 78 79  1  0
 79 80  2  0
 80 81  1  0
 81 82  1  0
 82 83  2  0
 83 84  1  0
 84 85  1  0
 84 86  2  0
 79 87  1  0
 87 88  2  3
 88 89  1  0
 89 90  2  0
 90 91  1  0
 91 92  2  0
 92 93  1  0
 93 94  2  0
 94 95  1  0
 95 96  2  0
 96 97  1  0
 97 98  1  0
 98 99  1  0
 96100  1  0
100101  1  0
100102  2  0
 92103  1  0
103104  2  0
104105  1  0
105106  1  0
106107  2  0
107108  1  0
108109  2  0
109110  1  0
110111  1  0
111112  1  0
109113  1  0
113114  2  0
113115  1  0
105116  2  0
116117  1  0
104118  1  0
118119  2  0
119120  1  0
119121  1  0
121122  2  0
122123  1  0
123124  2  0
124125  1  0
125126  2  0
126127  1  0
127128  2  0
128129  1  0
129130  1  0
130131  1  0
128132  1  0
132133  1  0
132134  2  0
124135  1  0
135136  2  0
136137  1  0
137138  1  0
138139  2  0
139140  1  0
140141  2  0
141142  1  0
142143  1  0
143144  1  0
141145  1  0
145146  2  0
145147  1  0
137148  2  0
148149  1  0
136150  1  0
150151  2  0
151152  1  0
  5  1  2  0
 41 13  1  0
 73 45  1  0
 81 77  2  0
117 89  1  0
149121  1  0
 10  4  1  0
 40 15  1  0
 72 47  1  0
 86 80  1  0
116 91  1  0
148123  1  0
 26 17  1  0
 44 27  1  0
 58 49  1  0
 76 59  1  0
102 93  1  0
120103  1  0
134125  1  0
152135  1  0
 38 30  1  0
 70 62  1  0
114106  1  0
146138  1  0
  1153  1  0
  6154  1  0
  7155  1  0
 10156  1  0
 11157  1  0
 12158  1  0
 14159  1  0
 18160  1  0
 19161  1  0
 22162  1  0
 22163  1  0
 23164  1  0
 23165  1  0
 23166  1  0
 26167  1  0
 31168  1  0
 32169  1  0
 35170  1  0
 35171  1  0
 36172  1  0
 36173  1  0
 36174  1  0
 38175  1  0
 42176  1  0
 46177  1  0
 50178  1  0
 51179  1  0
 54180  1  0
 54181  1  0
 55182  1  0
 55183  1  0
 55184  1  0
 58185  1  0
 63186  1  0
 64187  1  0
 67188  1  0
 67189  1  0
 68190  1  0
 68191  1  0
 68192  1  0
 70193  1  0
 74194  1  0
 82195  1  0
 83196  1  0
 86197  1  0
 87198  1  0
 88199  1  0
 90200  1  0
 94201  1  0
 95202  1  0
 98203  1  0
 98204  1  0
 99205  1  0
 99206  1  0
 99207  1  0
102208  1  0
107209  1  0
108210  1  0
111211  1  0
111212  1  0
112213  1  0
112214  1  0
112215  1  0
114216  1  0
118217  1  0
122218  1  0
126219  1  0
127220  1  0
130221  1  0
130222  1  0
131223  1  0
131224  1  0
131225  1  0
134226  1  0
139227  1  0
140228  1  0
143229  1  0
143230  1  0
144231  1  0
144232  1  0
144233  1  0
146234  1  0
150235  1  0
151236  1  0
M  END

