
     RDKit          3D

204227  0  0  0  0  0  0  0  0999 V2000
    7.4111   -4.6560    8.1541 C   0  0  0  0  0  0  0  0  0  0  0  0
    7.8256   -3.3273    8.1146 C   0  0  0  0  0  0  0  0  0  0  0  0
    6.7599   -2.4141    8.1756 C   0  0  0  0  0  0  0  0  0  0  0  0
    6.8565   -1.0068    8.1268 C   0  0  0  0  0  0  0  0  0  0  0  0
    8.1540   -0.3140    8.0502 C   0  0  0  0  0  0  0  0  0  0  0  0
    8.6386    0.6766    6.7796 S   0  0  0  0  0  0  0  0  0  0  0  0
   10.1209    1.1108    7.4469 C   0  0  0  0  0  0  0  0  0  0  0  0
   11.0687    2.0992    6.8380 C   0  0  0  0  0  0  0  0  0  0  0  0
   10.7084    3.5192    7.2602 C   0  0  0  0  0  0  0  0  0  0  0  0
   10.2422    0.5043    8.6970 C   0  0  0  0  0  0  0  0  0  0  0  0
   11.6097    0.7619    9.7728 Cl  0  0  0  0  0  0  0  0  0  0  0  0
    9.1437   -0.3025    9.0314 C   0  0  0  0  0  0  0  0  0  0  0  0
    8.9923   -1.1384   10.5702 Cl  0  0  0  0  0  0  0  0  0  0  0  0
    5.6500   -0.2856    8.1310 C   0  0  0  0  0  0  0  0  0  0  0  0
    4.3997   -0.9118    8.1909 C   0  0  0  0  0  0  0  0  0  0  0  0
    4.3027   -2.3157    8.2721 C   0  0  0  0  0  0  0  0  0  0  0  0
    3.0020   -3.0021    8.3709 C   0  0  0  0  0  0  0  0  0  0  0  0
    1.8097   -2.9897    7.1836 S   0  0  0  0  0  0  0  0  0  0  0  0
    0.7189   -3.9673    8.0137 C   0  0  0  0  0  0  0  0  0  0  0  0
   -0.6401   -4.3434    7.5124 C   0  0  0  0  0  0  0  0  0  0  0  0
   -1.7093   -3.4229    8.0893 C   0  0  0  0  0  0  0  0  0  0  0  0
    1.2716   -4.3030    9.2492 C   0  0  0  0  0  0  0  0  0  0  0  0
    2.5539   -3.7657    9.4480 C   0  0  0  0  0  0  0  0  0  0  0  0
    3.4749   -3.9872   10.9320 Cl  0  0  0  0  0  0  0  0  0  0  0  0
    0.4501   -5.2986   10.4433 Cl  0  0  0  0  0  0  0  0  0  0  0  0
    5.5091   -3.0357    8.2552 C   0  0  0  0  0  0  0  0  0  0  0  0
    5.7276   -4.7041    8.2521 S   0  0  0  0  0  0  0  0  0  0  0  0
    3.3296   -0.0060    8.1719 C   0  0  0  0  0  0  0  0  0  0  0  0
    3.7446    1.3211    8.1169 C   0  0  0  0  0  0  0  0  0  0  0  0
    5.4301    1.3815    8.0734 S   0  0  0  0  0  0  0  0  0  0  0  0
    2.8451    2.4628    7.9255 C   0  0  0  0  0  0  0  0  0  0  0  0
    1.5289    2.4373    6.8795 S   0  0  0  0  0  0  0  0  0  0  0  0
    1.0214    4.0162    7.1532 C   0  0  0  0  0  0  0  0  0  0  0  0
    1.8687    4.5891    8.0947 C   0  0  0  0  0  0  0  0  0  0  0  0
    2.8994    3.7264    8.5191 C   0  0  0  0  0  0  0  0  0  0  0  0
    3.8262    4.1532    9.4776 C   0  0  0  0  0  0  0  0  0  0  0  0
    3.7274    5.4545    9.9897 C   0  0  0  0  0  0  0  0  0  0  0  0
    2.7111    6.3191    9.5513 C   0  0  0  0  0  0  0  0  0  0  0  0
    2.6351    7.5769   10.0527 F   0  0  0  0  0  0  0  0  0  0  0  0
    1.7729    5.8883    8.6034 C   0  0  0  0  0  0  0  0  0  0  0  0
   -0.1635    4.6154    6.5213 C   0  0  0  0  0  0  0  0  0  0  0  0
   -0.2941    4.6879    5.1958 C   0  0  0  0  0  0  0  0  0  0  0  0
    0.8533    4.5535    4.2825 C   0  0  0  0  0  0  0  0  0  0  0  0
    2.2260    5.5298    4.3247 S   0  0  0  0  0  0  0  0  0  0  0  0
    2.9834    4.8856    2.9688 C   0  0  0  0  0  0  0  0  0  0  0  0
    2.1777    3.8475    2.4833 C   0  0  0  0  0  0  0  0  0  0  0  0
    0.9735    3.6898    3.1982 C   0  0  0  0  0  0  0  0  0  0  0  0
    0.0391    2.7211    2.8161 C   0  0  0  0  0  0  0  0  0  0  0  0
    0.3203    1.9001    1.7159 C   0  0  0  0  0  0  0  0  0  0  0  0
    1.5362    2.0274    1.0253 C   0  0  0  0  0  0  0  0  0  0  0  0
    1.8062    1.2106   -0.0223 F   0  0  0  0  0  0  0  0  0  0  0  0
    2.4788    2.9890    1.4177 C   0  0  0  0  0  0  0  0  0  0  0  0
    4.2582    5.4022    2.4353 C   0  0  0  0  0  0  0  0  0  0  0  0
    4.4831    5.7419    1.1545 C   0  0  0  0  0  0  0  0  0  0  0  0
    3.4840    5.6808    0.0734 C   0  0  0  0  0  0  0  0  0  0  0  0
    2.1252    5.9946    0.1620 C   0  0  0  0  0  0  0  0  0  0  0  0
    1.4038    5.6126   -0.9812 C   0  0  0  0  0  0  0  0  0  0  0  0
    0.0064    5.6940   -1.1617 C   0  0  0  0  0  0  0  0  0  0  0  0
   -0.8851    6.3469   -0.1843 C   0  0  0  0  0  0  0  0  0  0  0  0
   -1.1198    5.8558    1.4075 S   0  0  0  0  0  0  0  0  0  0  0  0
   -2.2718    7.0226    1.7901 C   0  0  0  0  0  0  0  0  0  0  0  0
   -2.9989    7.1098    3.0967 C   0  0  0  0  0  0  0  0  0  0  0  0
   -4.2003    6.1728    3.1040 C   0  0  0  0  0  0  0  0  0  0  0  0
   -2.5127    7.7989    0.6586 C   0  0  0  0  0  0  0  0  0  0  0  0
   -3.6957    9.0961    0.6022 Cl  0  0  0  0  0  0  0  0  0  0  0  0
   -1.7299    7.4252   -0.4442 C   0  0  0  0  0  0  0  0  0  0  0  0
   -1.7969    8.2562   -1.9943 Cl  0  0  0  0  0  0  0  0  0  0  0  0
   -0.5175    5.0915   -2.3175 C   0  0  0  0  0  0  0  0  0  0  0  0
    0.2912    4.5136   -3.2987 C   0  0  0  0  0  0  0  0  0  0  0  0
    1.6936    4.5233   -3.1684 C   0  0  0  0  0  0  0  0  0  0  0  0
    2.5648    3.9346   -4.2039 C   0  0  0  0  0  0  0  0  0  0  0  0
    3.5188    2.5626   -3.9984 S   0  0  0  0  0  0  0  0  0  0  0  0
    4.0339    2.4641   -5.5974 C   0  0  0  0  0  0  0  0  0  0  0  0
    4.8688    1.3538   -6.1567 C   0  0  0  0  0  0  0  0  0  0  0  0
    3.9817    0.2454   -6.7103 C   0  0  0  0  0  0  0  0  0  0  0  0
    3.4413    3.4971   -6.3234 C   0  0  0  0  0  0  0  0  0  0  0  0
    2.6234    4.3245   -5.5399 C   0  0  0  0  0  0  0  0  0  0  0  0
    1.7553    5.7129   -6.1893 Cl  0  0  0  0  0  0  0  0  0  0  0  0
    3.6659    3.7222   -8.0537 Cl  0  0  0  0  0  0  0  0  0  0  0  0
    2.2142    5.0476   -1.9741 C   0  0  0  0  0  0  0  0  0  0  0  0
    3.8081    5.0229   -1.4432 S   0  0  0  0  0  0  0  0  0  0  0  0
   -0.4337    3.8166   -4.2779 C   0  0  0  0  0  0  0  0  0  0  0  0
   -1.8093    3.8173   -4.0476 C   0  0  0  0  0  0  0  0  0  0  0  0
   -2.1226    4.7129   -2.6480 S   0  0  0  0  0  0  0  0  0  0  0  0
   -2.7506    2.8594   -4.6512 C   0  0  0  0  0  0  0  0  0  0  0  0
   -2.4430    1.9904   -5.7012 C   0  0  0  0  0  0  0  0  0  0  0  0
   -3.3199    0.8961   -5.7841 C   0  0  0  0  0  0  0  0  0  0  0  0
   -3.1609   -0.2240   -6.6231 C   0  0  0  0  0  0  0  0  0  0  0  0
   -2.0903   -0.2849   -7.6326 C   0  0  0  0  0  0  0  0  0  0  0  0
   -2.1025    0.5570   -9.0873 S   0  0  0  0  0  0  0  0  0  0  0  0
   -0.6029    0.0105   -9.6191 C   0  0  0  0  0  0  0  0  0  0  0  0
    0.0447    0.4234  -10.9063 C   0  0  0  0  0  0  0  0  0  0  0  0
    0.8024    1.7350  -10.7306 C   0  0  0  0  0  0  0  0  0  0  0  0
   -0.0553   -0.8213   -8.6421 C   0  0  0  0  0  0  0  0  0  0  0  0
    1.5252   -1.5799   -8.7793 Cl  0  0  0  0  0  0  0  0  0  0  0  0
   -0.8933   -0.9905   -7.5298 C   0  0  0  0  0  0  0  0  0  0  0  0
   -0.4574   -1.9619   -6.1293 Cl  0  0  0  0  0  0  0  0  0  0  0  0
   -4.0000   -1.3225   -6.3819 C   0  0  0  0  0  0  0  0  0  0  0  0
   -4.9806   -1.3138   -5.3848 C   0  0  0  0  0  0  0  0  0  0  0  0
   -5.2026   -0.1600   -4.6048 C   0  0  0  0  0  0  0  0  0  0  0  0
   -6.2474   -0.1126   -3.5648 C   0  0  0  0  0  0  0  0  0  0  0  0
   -5.9731    0.1209   -1.9211 S   0  0  0  0  0  0  0  0  0  0  0  0
   -7.5898    0.0904   -1.4630 C   0  0  0  0  0  0  0  0  0  0  0  0
   -8.0759    0.2107   -0.0498 C   0  0  0  0  0  0  0  0  0  0  0  0
   -8.3140   -1.1660    0.5607 C   0  0  0  0  0  0  0  0  0  0  0  0
   -8.3723   -0.1252   -2.5963 C   0  0  0  0  0  0  0  0  0  0  0  0
   -7.6180   -0.2352   -3.7759 C   0  0  0  0  0  0  0  0  0  0  0  0
   -8.3414   -0.4552   -5.3669 Cl  0  0  0  0  0  0  0  0  0  0  0  0
  -10.1269   -0.2383   -2.5595 Cl  0  0  0  0  0  0  0  0  0  0  0  0
   -4.3273    0.9201   -4.8135 C   0  0  0  0  0  0  0  0  0  0  0  0
   -4.1391    2.2988   -3.8703 S   0  0  0  0  0  0  0  0  0  0  0  0
   -5.5735   -2.5694   -5.1831 C   0  0  0  0  0  0  0  0  0  0  0  0
   -5.0667   -3.5512   -6.0319 C   0  0  0  0  0  0  0  0  0  0  0  0
   -3.8958   -2.8685   -7.0404 S   0  0  0  0  0  0  0  0  0  0  0  0
   -5.2871   -4.9954   -5.8785 C   0  0  0  0  0  0  0  0  0  0  0  0
   -4.9633   -5.9698   -6.8182 C   0  0  0  0  0  0  0  0  0  0  0  0
   -5.1106   -7.2766   -6.3233 C   0  0  0  0  0  0  0  0  0  0  0  0
   -4.8242   -8.4709   -7.0172 C   0  0  0  0  0  0  0  0  0  0  0  0
   -4.3053   -8.4626   -8.3958 C   0  0  0  0  0  0  0  0  0  0  0  0
   -2.8136   -7.8296   -8.8468 S   0  0  0  0  0  0  0  0  0  0  0  0
   -2.9512   -8.1930  -10.4828 C   0  0  0  0  0  0  0  0  0  0  0  0
   -1.8806   -7.9403  -11.5007 C   0  0  0  0  0  0  0  0  0  0  0  0
   -1.0075   -9.1762  -11.6863 C   0  0  0  0  0  0  0  0  0  0  0  0
   -4.1693   -8.8372  -10.6962 C   0  0  0  0  0  0  0  0  0  0  0  0
   -4.7002   -9.4149  -12.2705 Cl  0  0  0  0  0  0  0  0  0  0  0  0
   -4.9300   -8.9853   -9.5260 C   0  0  0  0  0  0  0  0  0  0  0  0
   -6.5316   -9.7111   -9.5014 Cl  0  0  0  0  0  0  0  0  0  0  0  0
   -4.9949   -9.6736   -6.3076 C   0  0  0  0  0  0  0  0  0  0  0  0
   -5.4036   -9.7092   -4.9705 C   0  0  0  0  0  0  0  0  0  0  0  0
   -5.6874   -8.5167   -4.2777 C   0  0  0  0  0  0  0  0  0  0  0  0
   -5.9884   -8.5093   -2.8363 C   0  0  0  0  0  0  0  0  0  0  0  0
   -4.8825   -8.9235   -1.6387 S   0  0  0  0  0  0  0  0  0  0  0  0
   -5.8830   -8.5648   -0.3355 C   0  0  0  0  0  0  0  0  0  0  0  0
   -5.4594   -8.6254    1.1005 C   0  0  0  0  0  0  0  0  0  0  0  0
   -4.9552   -7.2664    1.5717 C   0  0  0  0  0  0  0  0  0  0  0  0
   -7.0985   -8.0866   -0.8258 C   0  0  0  0  0  0  0  0  0  0  0  0
   -7.1594   -8.0614   -2.2282 C   0  0  0  0  0  0  0  0  0  0  0  0
   -8.5748   -7.5268   -3.1260 Cl  0  0  0  0  0  0  0  0  0  0  0  0
   -8.4162   -7.5432    0.2048 Cl  0  0  0  0  0  0  0  0  0  0  0  0
   -5.5495   -7.3160   -4.9936 C   0  0  0  0  0  0  0  0  0  0  0  0
   -5.7448   -5.7417   -4.4345 S   0  0  0  0  0  0  0  0  0  0  0  0
   -5.4737  -11.0111   -4.4503 C   0  0  0  0  0  0  0  0  0  0  0  0
   -5.1132  -11.9897   -5.3722 C   0  0  0  0  0  0  0  0  0  0  0  0
   -4.6994  -11.2464   -6.8290 S   0  0  0  0  0  0  0  0  0  0  0  0
    8.0638   -5.5174    8.1100 H   0  0  0  0  0  0  0  0  0  0  0  0
    8.8645   -3.0412    8.0283 H   0  0  0  0  0  0  0  0  0  0  0  0
   11.0212    2.0185    5.7324 H   0  0  0  0  0  0  0  0  0  0  0  0
   12.1096    1.8707    7.1512 H   0  0  0  0  0  0  0  0  0  0  0  0
   11.4342    4.2323    6.8164 H   0  0  0  0  0  0  0  0  0  0  0  0
   10.7480    3.6141    8.3669 H   0  0  0  0  0  0  0  0  0  0  0  0
    9.6880    3.7797    6.9055 H   0  0  0  0  0  0  0  0  0  0  0  0
   -0.6596   -4.2769    6.4023 H   0  0  0  0  0  0  0  0  0  0  0  0
   -0.8655   -5.3952    7.7922 H   0  0  0  0  0  0  0  0  0  0  0  0
   -2.7045   -3.7125    7.6906 H   0  0  0  0  0  0  0  0  0  0  0  0
   -1.7333   -3.5021    9.1974 H   0  0  0  0  0  0  0  0  0  0  0  0
   -1.5030   -2.3698    7.8045 H   0  0  0  0  0  0  0  0  0  0  0  0
    2.2876   -0.2966    8.1946 H   0  0  0  0  0  0  0  0  0  0  0  0
    4.6066    3.4946    9.8375 H   0  0  0  0  0  0  0  0  0  0  0  0
    4.4377    5.7934   10.7314 H   0  0  0  0  0  0  0  0  0  0  0  0
    0.9893    6.5562    8.2745 H   0  0  0  0  0  0  0  0  0  0  0  0
   -1.0043    4.8755    7.1529 H   0  0  0  0  0  0  0  0  0  0  0  0
   -1.2601    4.9268    4.7713 H   0  0  0  0  0  0  0  0  0  0  0  0
   -0.8892    2.5980    3.3574 H   0  0  0  0  0  0  0  0  0  0  0  0
   -0.3987    1.1539    1.4061 H   0  0  0  0  0  0  0  0  0  0  0  0
    3.4249    3.0516    0.8955 H   0  0  0  0  0  0  0  0  0  0  0  0
    5.0582    5.5637    3.1456 H   0  0  0  0  0  0  0  0  0  0  0  0
    5.4889    6.0330    0.8777 H   0  0  0  0  0  0  0  0  0  0  0  0
    1.6745    6.4349    1.0424 H   0  0  0  0  0  0  0  0  0  0  0  0
   -2.3076    6.8362    3.9205 H   0  0  0  0  0  0  0  0  0  0  0  0
   -3.3390    8.1512    3.2772 H   0  0  0  0  0  0  0  0  0  0  0  0
   -4.7017    6.2186    4.0930 H   0  0  0  0  0  0  0  0  0  0  0  0
   -3.8757    5.1281    2.9178 H   0  0  0  0  0  0  0  0  0  0  0  0
   -4.9284    6.4740    2.3206 H   0  0  0  0  0  0  0  0  0  0  0  0
    5.5192    1.7448   -6.9669 H   0  0  0  0  0  0  0  0  0  0  0  0
    5.5241    0.9412   -5.3603 H   0  0  0  0  0  0  0  0  0  0  0  0
    3.3521   -0.1831   -5.9026 H   0  0  0  0  0  0  0  0  0  0  0  0
    3.3283    0.6398   -7.5184 H   0  0  0  0  0  0  0  0  0  0  0  0
    4.6146   -0.5622   -7.1348 H   0  0  0  0  0  0  0  0  0  0  0  0
    0.0389    3.2237   -5.0486 H   0  0  0  0  0  0  0  0  0  0  0  0
   -1.5558    2.0867   -6.3124 H   0  0  0  0  0  0  0  0  0  0  0  0
    0.7455   -0.3650  -11.2505 H   0  0  0  0  0  0  0  0  0  0  0  0
   -0.7369    0.5493  -11.6855 H   0  0  0  0  0  0  0  0  0  0  0  0
    1.2958    2.0072  -11.6869 H   0  0  0  0  0  0  0  0  0  0  0  0
    1.5776    1.6323   -9.9435 H   0  0  0  0  0  0  0  0  0  0  0  0
    0.0970    2.5474  -10.4523 H   0  0  0  0  0  0  0  0  0  0  0  0
   -9.0179    0.7977   -0.0246 H   0  0  0  0  0  0  0  0  0  0  0  0
   -7.3187    0.7551    0.5535 H   0  0  0  0  0  0  0  0  0  0  0  0
   -9.1017   -1.7090   -0.0032 H   0  0  0  0  0  0  0  0  0  0  0  0
   -7.3780   -1.7620    0.5462 H   0  0  0  0  0  0  0  0  0  0  0  0
   -8.6478   -1.0490    1.6130 H   0  0  0  0  0  0  0  0  0  0  0  0
   -6.2917   -2.7770   -4.3995 H   0  0  0  0  0  0  0  0  0  0  0  0
   -4.6082   -5.7355   -7.8149 H   0  0  0  0  0  0  0  0  0  0  0  0
   -1.2471   -7.0915  -11.1662 H   0  0  0  0  0  0  0  0  0  0  0  0
   -2.3397   -7.6587  -12.4714 H   0  0  0  0  0  0  0  0  0  0  0  0
   -0.2001   -8.9568  -12.4148 H   0  0  0  0  0  0  0  0  0  0  0  0
   -1.6147  -10.0221  -12.0746 H   0  0  0  0  0  0  0  0  0  0  0  0
   -0.5483   -9.4709  -10.7194 H   0  0  0  0  0  0  0  0  0  0  0  0
   -6.3124   -8.9487    1.7337 H   0  0  0  0  0  0  0  0  0  0  0  0
   -4.6452   -9.3724    1.2107 H   0  0  0  0  0  0  0  0  0  0  0  0
   -4.0799   -6.9467    0.9667 H   0  0  0  0  0  0  0  0  0  0  0  0
   -4.6463   -7.3313    2.6356 H   0  0  0  0  0  0  0  0  0  0  0  0
   -5.7575   -6.5025    1.4853 H   0  0  0  0  0  0  0  0  0  0  0  0
   -5.7769  -11.2440   -3.4380 H   0  0  0  0  0  0  0  0  0  0  0  0
   -5.0940  -13.0526   -5.1800 H   0  0  0  0  0  0  0  0  0  0  0  0
  1  2  2  0
  2  3  1  0
  3  4  2  0
  4  5  1  0
  5  6  1  0
  6  7  1  0
  7  8  1  0
  8  9  1  0
  7 10  2  0
 10 11  1  0
 10 12  1  0
 12 13  1  0
  4 14  1  0
 14 15  2  0
 15 16  1  0
 16 17  1  0
 17 18  1  0
 18 19  1  0
 19 20  1  0
 20 21  1  0
 19 22  2  0
 22 23  1  0
 23 24  1  0
 22 25  1  0
 16 26  2  0
 26 27  1  0
 15 28  1  0
 28 29  2  0
 29 30  1  0
 29 31  1  0
 31 32  1  0
 32 33  1  0
 33 34  2  0
 34 35  1  0
 35 36  1  0
 36 37  2  0
 37 38  1  0
 38 39  1  0
 38 40  2  0
 33 41  1  0
 41 42  2  3
 42 43  1  0
 43 44  1  0
 44 45  1  0
 45 46  2  0
 46 47  1  0
 47 48  1  0
 48 49  2  0
 49 50  1  0
 50 51  1  0
 50 52  2  0
 45 53  1  0
 53 54  2  3
 54 55  1  0
 55 56  2  0
 56 57  1  0
 57 58  2  0
 58 59  1  0
 59 60  1  0
 60 61  1  0
 61 62  1  0
 62 63  1  0
 61 64  2  0
 64 65  1  0
 64 66  1  0
 66 67  1  0
 58 68  1  0
 68 69  2  0
 69 70  1  0
 70 71  1  0
 71 72  1  0
 72 73  1  0
 73 74  1  0
 74 75  1  0
 73 76  2  0
 76 77  1  0
 77 78  1  0
 76 79  1  0
 70 80  2  0
 80 81  1  0
 69 82  1  0
 82 83  2  0
 83 84  1  0
 83 85  1  0
 85 86  2  0
 86 87  1  0
 87 88  2  0
 88 89  1  0
 89 90  1  0
 90 91  1  0
 91 92  1  0
 92 93  1  0
 91 94  2  0
 94 95  1  0
 94 96  1  0
 96 97  1  0
 88 98  1  0
 98 99  2  0
 99100  1  0
100101  1  0
101102  1  0
102103  1  0
103104  1  0
104105  1  0
103106  2  0
106107  1  0
107108  1  0
106109  1  0
100110  2  0
110111  1  0
 99112  1  0
112113  2  0
113114  1  0
113115  1  0
115116  2  0
116117  1  0
117118  2  0
118119  1  0
119120  1  0
120121  1  0
121122  1  0
122123  1  0
121124  2  0
124125  1  0
124126  1  0
126127  1  0
118128  1  0
128129  2  0
129130  1  0
130131  1  0
131132  1  0
132133  1  0
133134  1  0
134135  1  0
133136  2  0
136137  1  0
137138  1  0
136139  1  0
130140  2  0
140141  1  0
129142  1  0
142143  2  0
143144  1  0
 27  1  1  0
 35 31  2  0
 47 43  2  0
 81 55  1  0
111 85  1  0
141115  1  0
 26  3  1  0
 40 34  1  0
 52 46  1  0
 80 57  1  0
110 87  1  0
140117  1  0
 12  5  2  0
 30 14  1  0
 66 59  2  0
 84 68  1  0
 96 89  2  0
114 98  1  0
126119  2  0
144128  1  0
 23 17  2  0
 77 71  2  0
107101  2  0
137131  2  0
  1145  1  0
  2146  1  0
  8147  1  0
  8148  1  0
  9149  1  0
  9150  1  0
  9151  1  0
 20152  1  0
 20153  1  0
 21154  1  0
 21155  1  0
 21156  1  0
 28157  1  0
 36158  1  0
 37159  1  0
 40160  1  0
 41161  1  0
 42162  1  0
 48163  1  0
 49164  1  0
 52165  1  0
 53166  1  0
 54167  1  0
 56168  1  0
 62169  1  0
 62170  1  0
 63171  1  0
 63172  1  0
 63173  1  0
 74174  1  0
 74175  1  0
 75176  1  0
 75177  1  0
 75178  1  0
 82179  1  0
 86180  1  0
 92181  1  0
 92182  1  0
 93183  1  0
 93184  1  0
 93185  1  0
104186  1  0
104187  1  0
105188  1  0
105189  1  0
105190  1  0
112191  1  0
116192  1  0
122193  1  0
122194  1  0
123195  1  0
123196  1  0
123197  1  0
134198  1  0
134199  1  0
135200  1  0
135201  1  0
135202  1  0
142203  1  0
143204  1  0
M  END

