
     RDKit          3D

116127  0  0  0  0  0  0  0  0999 V2000
    1.4726    1.8433    7.3966 C   0  0  0  0  0  0  0  0  0  0  0  0
    0.0348    0.9937    7.1557 S   0  0  0  0  0  0  0  0  0  0  0  0
   -0.1846    1.4057    5.5390 C   0  0  0  0  0  0  0  0  0  0  0  0
    0.8901    2.2065    5.1537 C   0  0  0  0  0  0  0  0  0  0  0  0
    1.8112    2.4388    6.1872 C   0  0  0  0  0  0  0  0  0  0  0  0
    2.9776    3.1691    5.9524 C   0  0  0  0  0  0  0  0  0  0  0  0
    3.2341    3.6644    4.6609 C   0  0  0  0  0  0  0  0  0  0  0  0
    4.4859    4.4582    4.4046 C   0  0  0  0  0  0  0  0  0  0  0  0
    2.2963    3.4572    3.6207 C   0  0  0  0  0  0  0  0  0  0  0  0
    2.5704    3.9922    2.3533 O   0  0  0  0  0  0  0  0  0  0  0  0
    1.6631    3.9741    1.2524 C   0  0  0  0  0  0  0  0  0  0  0  0
    1.1231    2.7105    3.8722 C   0  0  0  0  0  0  0  0  0  0  0  0
   -1.2552    0.8864    4.6809 C   0  0  0  0  0  0  0  0  0  0  0  0
   -1.4744   -0.7416    4.3220 S   0  0  0  0  0  0  0  0  0  0  0  0
   -2.7843   -0.5455    3.2713 C   0  0  0  0  0  0  0  0  0  0  0  0
   -3.0750    0.8206    3.2046 C   0  0  0  0  0  0  0  0  0  0  0  0
   -2.2163    1.6177    3.9855 C   0  0  0  0  0  0  0  0  0  0  0  0
   -2.3780    3.0063    4.0269 C   0  0  0  0  0  0  0  0  0  0  0  0
   -3.3936    3.5973    3.2633 C   0  0  0  0  0  0  0  0  0  0  0  0
   -4.2430    2.8070    2.4719 C   0  0  0  0  0  0  0  0  0  0  0  0
   -5.2197    3.3933    1.7344 F   0  0  0  0  0  0  0  0  0  0  0  0
   -4.0863    1.4144    2.4380 C   0  0  0  0  0  0  0  0  0  0  0  0
   -3.4642   -1.6295    2.5321 C   0  0  0  0  0  0  0  0  0  0  0  0
   -2.8523   -2.7877    2.2785 C   0  0  0  0  0  0  0  0  0  0  0  0
   -3.4382   -3.8878    1.4883 C   0  0  0  0  0  0  0  0  0  0  0  0
   -2.9228   -5.4806    1.6874 S   0  0  0  0  0  0  0  0  0  0  0  0
   -3.8131   -6.1620    0.4343 C   0  0  0  0  0  0  0  0  0  0  0  0
   -4.5184   -5.1340   -0.1904 C   0  0  0  0  0  0  0  0  0  0  0  0
   -4.2961   -3.8562    0.3735 C   0  0  0  0  0  0  0  0  0  0  0  0
   -4.8214   -2.7188   -0.2664 C   0  0  0  0  0  0  0  0  0  0  0  0
   -5.6285   -2.8747   -1.4023 C   0  0  0  0  0  0  0  0  0  0  0  0
   -5.8765   -4.1486   -1.9294 C   0  0  0  0  0  0  0  0  0  0  0  0
   -6.6472   -4.2828   -3.0382 F   0  0  0  0  0  0  0  0  0  0  0  0
   -5.3047   -5.2841   -1.3386 C   0  0  0  0  0  0  0  0  0  0  0  0
   -3.4890   -7.4647   -0.1716 C   0  0  0  0  0  0  0  0  0  0  0  0
   -2.4285   -7.6176   -0.9770 C   0  0  0  0  0  0  0  0  0  0  0  0
   -1.5449   -6.4890   -1.3290 C   0  0  0  0  0  0  0  0  0  0  0  0
   -1.9691   -5.2566   -2.3962 S   0  0  0  0  0  0  0  0  0  0  0  0
   -0.7261   -4.1969   -1.9899 C   0  0  0  0  0  0  0  0  0  0  0  0
    0.0233   -4.7825   -0.9682 C   0  0  0  0  0  0  0  0  0  0  0  0
   -0.4268   -6.0650   -0.6091 C   0  0  0  0  0  0  0  0  0  0  0  0
    0.1678   -6.7540    0.4507 C   0  0  0  0  0  0  0  0  0  0  0  0
    1.2361   -6.1613    1.1530 C   0  0  0  0  0  0  0  0  0  0  0  0
    1.8441   -6.8824    2.3230 C   0  0  0  0  0  0  0  0  0  0  0  0
    1.6868   -4.8656    0.8013 C   0  0  0  0  0  0  0  0  0  0  0  0
    2.7413   -4.2937    1.5322 O   0  0  0  0  0  0  0  0  0  0  0  0
    3.3300   -3.0304    1.2444 C   0  0  0  0  0  0  0  0  0  0  0  0
    1.0679   -4.1757   -0.2648 C   0  0  0  0  0  0  0  0  0  0  0  0
   -0.6114   -2.8250   -2.5058 C   0  0  0  0  0  0  0  0  0  0  0  0
   -1.8857   -1.7305   -2.5693 S   0  0  0  0  0  0  0  0  0  0  0  0
   -1.0427   -0.4701   -3.3072 C   0  0  0  0  0  0  0  0  0  0  0  0
    0.2561   -0.9265   -3.5717 C   0  0  0  0  0  0  0  0  0  0  0  0
    0.4960   -2.2340   -3.1094 C   0  0  0  0  0  0  0  0  0  0  0  0
    1.7274   -2.8551   -3.3386 C   0  0  0  0  0  0  0  0  0  0  0  0
    2.7461   -2.1537   -4.0075 C   0  0  0  0  0  0  0  0  0  0  0  0
    4.0714   -2.8210   -4.2508 C   0  0  0  0  0  0  0  0  0  0  0  0
    2.5050   -0.8506   -4.5002 C   0  0  0  0  0  0  0  0  0  0  0  0
    3.5361   -0.1853   -5.1860 O   0  0  0  0  0  0  0  0  0  0  0  0
    3.4640    1.1602   -5.6496 C   0  0  0  0  0  0  0  0  0  0  0  0
    1.2403   -0.2522   -4.3041 C   0  0  0  0  0  0  0  0  0  0  0  0
   -1.6758    0.7989   -3.7222 C   0  0  0  0  0  0  0  0  0  0  0  0
   -3.2140    0.8878   -4.4075 S   0  0  0  0  0  0  0  0  0  0  0  0
   -3.2707    2.5570   -4.6001 C   0  0  0  0  0  0  0  0  0  0  0  0
   -2.0775    3.0735   -4.1136 C   0  0  0  0  0  0  0  0  0  0  0  0
   -1.1918    2.1084   -3.6054 C   0  0  0  0  0  0  0  0  0  0  0  0
    0.0166    2.5069   -3.0212 C   0  0  0  0  0  0  0  0  0  0  0  0
    0.3779    3.8690   -3.0324 C   0  0  0  0  0  0  0  0  0  0  0  0
    1.7292    4.2845   -2.5275 C   0  0  0  0  0  0  0  0  0  0  0  0
   -0.5011    4.8346   -3.5802 C   0  0  0  0  0  0  0  0  0  0  0  0
   -0.1092    6.1838   -3.5837 O   0  0  0  0  0  0  0  0  0  0  0  0
   -0.9015    7.2542   -4.0916 C   0  0  0  0  0  0  0  0  0  0  0  0
   -1.7453    4.4265   -4.1062 C   0  0  0  0  0  0  0  0  0  0  0  0
    2.0469    1.8797    8.3130 H   0  0  0  0  0  0  0  0  0  0  0  0
    3.6830    3.3317    6.7598 H   0  0  0  0  0  0  0  0  0  0  0  0
    4.2324    5.5324    4.3062 H   0  0  0  0  0  0  0  0  0  0  0  0
    5.2207    4.3328    5.2303 H   0  0  0  0  0  0  0  0  0  0  0  0
    4.9681    4.1098    3.4645 H   0  0  0  0  0  0  0  0  0  0  0  0
    0.7142    4.4828    1.5287 H   0  0  0  0  0  0  0  0  0  0  0  0
    1.4592    2.9279    0.9443 H   0  0  0  0  0  0  0  0  0  0  0  0
    2.1237    4.5099    0.4044 H   0  0  0  0  0  0  0  0  0  0  0  0
    0.4127    2.5160    3.0801 H   0  0  0  0  0  0  0  0  0  0  0  0
   -1.7300    3.6273    4.6318 H   0  0  0  0  0  0  0  0  0  0  0  0
   -3.5232    4.6707    3.2845 H   0  0  0  0  0  0  0  0  0  0  0  0
   -4.7419    0.8169    1.8175 H   0  0  0  0  0  0  0  0  0  0  0  0
   -4.4642   -1.4572    2.1803 H   0  0  0  0  0  0  0  0  0  0  0  0
   -1.8855   -2.9821    2.7132 H   0  0  0  0  0  0  0  0  0  0  0  0
   -4.5809   -1.7184    0.0506 H   0  0  0  0  0  0  0  0  0  0  0  0
   -6.0445   -2.0017   -1.8902 H   0  0  0  0  0  0  0  0  0  0  0  0
   -5.4672   -6.2604   -1.7807 H   0  0  0  0  0  0  0  0  0  0  0  0
   -4.1118   -8.3204    0.0611 H   0  0  0  0  0  0  0  0  0  0  0  0
   -2.2036   -8.5979   -1.3751 H   0  0  0  0  0  0  0  0  0  0  0  0
   -0.2080   -7.7279    0.7428 H   0  0  0  0  0  0  0  0  0  0  0  0
    1.5758   -7.9611    2.3191 H   0  0  0  0  0  0  0  0  0  0  0  0
    1.4793   -6.4274    3.2682 H   0  0  0  0  0  0  0  0  0  0  0  0
    2.9521   -6.8055    2.2876 H   0  0  0  0  0  0  0  0  0  0  0  0
    4.1476   -2.8404    1.9679 H   0  0  0  0  0  0  0  0  0  0  0  0
    3.7520   -3.0259    0.2150 H   0  0  0  0  0  0  0  0  0  0  0  0
    2.5699   -2.2249    1.3465 H   0  0  0  0  0  0  0  0  0  0  0  0
    1.3751   -3.1727   -0.5227 H   0  0  0  0  0  0  0  0  0  0  0  0
    1.8959   -3.8735   -3.0120 H   0  0  0  0  0  0  0  0  0  0  0  0
    4.8997   -2.1387   -3.9642 H   0  0  0  0  0  0  0  0  0  0  0  0
    4.1734   -3.7506   -3.6519 H   0  0  0  0  0  0  0  0  0  0  0  0
    4.1624   -3.0812   -5.3252 H   0  0  0  0  0  0  0  0  0  0  0  0
    4.4328    1.4369   -6.1101 H   0  0  0  0  0  0  0  0  0  0  0  0
    3.2665    1.8452   -4.7969 H   0  0  0  0  0  0  0  0  0  0  0  0
    2.6644    1.2577   -6.4128 H   0  0  0  0  0  0  0  0  0  0  0  0
    1.0247    0.7151   -4.7307 H   0  0  0  0  0  0  0  0  0  0  0  0
   -4.0919    3.1227   -5.0183 H   0  0  0  0  0  0  0  0  0  0  0  0
    0.6777    1.7770   -2.5687 H   0  0  0  0  0  0  0  0  0  0  0  0
    2.3867    4.5196   -3.3911 H   0  0  0  0  0  0  0  0  0  0  0  0
    2.2067    3.4794   -1.9319 H   0  0  0  0  0  0  0  0  0  0  0  0
    1.6407    5.1866   -1.8898 H   0  0  0  0  0  0  0  0  0  0  0  0
   -1.1039    7.1032   -5.1722 H   0  0  0  0  0  0  0  0  0  0  0  0
   -0.3472    8.2072   -3.9648 H   0  0  0  0  0  0  0  0  0  0  0  0
   -1.8577    7.3234   -3.5279 H   0  0  0  0  0  0  0  0  0  0  0  0
   -2.4438    5.1442   -4.5162 H   0  0  0  0  0  0  0  0  0  0  0  0
  1  2  1  0
  2  3  1  0
  3  4  2  0
  4  5  1  0
  5  6  1  0
  6  7  2  0
  7  8  1  0
  7  9  1  0
  9 10  1  0
 10 11  1  0
  9 12  2  0
  3 13  1  0
 13 14  1  0
 14 15  1  0
 15 16  2  0
 16 17  1  0
 17 18  1  0
 18 19  2  0
 19 20  1  0
 20 21  1  0
 20 22  2  0
 15 23  1  0
 23 24  2  3
 24 25  1  0
 25 26  1  0
 26 27  1  0
 27 28  2  0
 28 29  1  0
 29 30  1  0
 30 31  2  0
 31 32  1  0
 32 33  1  0
 32 34  2  0
 27 35  1  0
 35 36  2  3
 36 37  1  0
 37 38  1  0
 38 39  1  0
 39 40  2  0
 40 41  1  0
 41 42  1  0
 42 43  2  0
 43 44  1  0
 43 45  1  0
 45 46  1  0
 46 47  1  0
 45 48  2  0
 39 49  1  0
 49 50  1  0
 50 51  1  0
 51 52  2  0
 52 53  1  0
 53 54  1  0
 54 55  2  0
 55 56  1  0
 55 57  1  0
 57 58  1  0
 58 59  1  0
 57 60  2  0
 51 61  1  0
 61 62  1  0
 62 63  1  0
 63 64  2  0
 64 65  1  0
 65 66  1  0
 66 67  2  0
 67 68  1  0
 67 69  1  0
 69 70  1  0
 70 71  1  0
 69 72  2  0
  5  1  2  0
 17 13  2  0
 29 25  2  0
 41 37  2  0
 53 49  2  0
 65 61  2  0
 12  4  1  0
 22 16  1  0
 34 28  1  0
 48 40  1  0
 60 52  1  0
 72 64  1  0
  1 73  1  0
  6 74  1  0
  8 75  1  0
  8 76  1  0
  8 77  1  0
 11 78  1  0
 11 79  1  0
 11 80  1  0
 12 81  1  0
 18 82  1  0
 19 83  1  0
 22 84  1  0
 23 85  1  0
 24 86  1  0
 30 87  1  0
 31 88  1  0
 34 89  1  0
 35 90  1  0
 36 91  1  0
 42 92  1  0
 44 93  1  0
 44 94  1  0
 44 95  1  0
 47 96  1  0
 47 97  1  0
 47 98  1  0
 48 99  1  0
 54100  1  0
 56101  1  0
 56102  1  0
 56103  1  0
 59104  1  0
 59105  1  0
 59106  1  0
 60107  1  0
 63108  1  0
 66109  1  0
 68110  1  0
 68111  1  0
 68112  1  0
 71113  1  0
 71114  1  0
 71115  1  0
 72116  1  0
M  END

