
     RDKit          3D

324347  0  0  0  0  0  0  0  0999 V2000
   -2.5853   -3.6206    7.0880 C   0  0  0  0  0  0  0  0  0  0  0  0
   -2.5562   -2.5383    6.2155 C   0  0  0  0  0  0  0  0  0  0  0  0
   -2.2673   -2.8931    4.8821 C   0  0  0  0  0  0  0  0  0  0  0  0
   -2.2247   -2.0320    3.7581 C   0  0  0  0  0  0  0  0  0  0  0  0
   -2.6719   -0.6251    3.8510 C   0  0  0  0  0  0  0  0  0  0  0  0
   -3.8341   -0.1435    3.2585 C   0  0  0  0  0  0  0  0  0  0  0  0
   -4.2364    1.1053    3.7451 C   0  0  0  0  0  0  0  0  0  0  0  0
   -5.7797    1.8042    3.2938 Cl  0  0  0  0  0  0  0  0  0  0  0  0
   -3.3782    1.6405    4.7068 C   0  0  0  0  0  0  0  0  0  0  0  0
   -3.6455    3.1858    5.6960 Si  0  0  0  0  0  4  0  0  0  0  0  0
   -5.3928    3.1012    6.4134 C   0  0  0  0  0  0  0  0  0  0  0  0
   -5.6567    4.1270    7.5087 C   0  0  0  0  0  0  0  0  0  0  0  0
   -3.4966    4.6729    4.5569 C   0  0  0  0  0  0  0  0  0  0  0  0
   -2.0451    5.0663    4.3062 C   0  0  0  0  0  0  0  0  0  0  0  0
   -2.3164    3.2738    7.0233 C   0  0  0  0  0  0  0  0  0  0  0  0
   -2.3802    4.5588    7.8465 C   0  0  0  0  0  0  0  0  0  0  0  0
   -2.1447    0.5256    4.9716 S   0  0  0  0  0  0  0  0  0  0  0  0
   -1.9675   -2.6350    2.5050 C   0  0  0  0  0  0  0  0  0  0  0  0
   -1.8227   -4.0208    2.3591 C   0  0  0  0  0  0  0  0  0  0  0  0
   -1.9247   -4.8808    3.4743 C   0  0  0  0  0  0  0  0  0  0  0  0
   -2.0898   -6.3409    3.3175 C   0  0  0  0  0  0  0  0  0  0  0  0
   -1.0637   -7.3840    2.4864 S   0  0  0  0  0  0  0  0  0  0  0  0
   -2.0786   -8.7237    2.5347 C   0  0  0  0  0  0  0  0  0  0  0  0
   -1.7263  -10.3136    1.6500 Si  0  0  0  0  0  4  0  0  0  0  0  0
   -2.6590  -10.3474    0.0090 C   0  0  0  0  0  0  0  0  0  0  0  0
   -4.1402  -10.0304    0.1604 C   0  0  0  0  0  0  0  0  0  0  0  0
    0.0914  -10.3932    1.1664 C   0  0  0  0  0  0  0  0  0  0  0  0
    1.0157  -10.5596    2.3648 C   0  0  0  0  0  0  0  0  0  0  0  0
   -2.2026  -11.8075    2.6962 C   0  0  0  0  0  0  0  0  0  0  0  0
   -1.8811  -11.6177    4.1777 C   0  0  0  0  0  0  0  0  0  0  0  0
   -3.2459   -8.3577    3.2086 C   0  0  0  0  0  0  0  0  0  0  0  0
   -3.2451   -7.0317    3.6451 C   0  0  0  0  0  0  0  0  0  0  0  0
   -4.6326   -9.4067    3.4759 Cl  0  0  0  0  0  0  0  0  0  0  0  0
   -2.1118   -4.2741    4.7239 C   0  0  0  0  0  0  0  0  0  0  0  0
   -2.2923   -5.0296    6.2168 S   0  0  0  0  0  0  0  0  0  0  0  0
   -1.6926   -4.4251    1.0259 C   0  0  0  0  0  0  0  0  0  0  0  0
   -1.7136   -3.3738    0.1178 C   0  0  0  0  0  0  0  0  0  0  0  0
   -1.9069   -1.9229    0.9671 S   0  0  0  0  0  0  0  0  0  0  0  0
   -1.7105   -3.5703   -1.3451 C   0  0  0  0  0  0  0  0  0  0  0  0
   -0.4911   -3.0568   -2.3920 S   0  0  0  0  0  0  0  0  0  0  0  0
   -0.9078   -4.0185   -3.7241 C   0  0  0  0  0  0  0  0  0  0  0  0
   -2.0103   -4.7935   -3.3402 C   0  0  0  0  0  0  0  0  0  0  0  0
   -2.4507   -4.5460   -2.0226 C   0  0  0  0  0  0  0  0  0  0  0  0
   -3.5197   -5.2742   -1.4837 C   0  0  0  0  0  0  0  0  0  0  0  0
   -4.1264   -6.2734   -2.2514 C   0  0  0  0  0  0  0  0  0  0  0  0
   -3.6818   -6.5327   -3.5541 C   0  0  0  0  0  0  0  0  0  0  0  0
   -4.2547   -7.5320   -4.2699 F   0  0  0  0  0  0  0  0  0  0  0  0
   -2.6332   -5.7840   -4.1133 C   0  0  0  0  0  0  0  0  0  0  0  0
   -0.1558   -4.1452   -4.9952 C   0  0  0  0  0  0  0  0  0  0  0  0
    0.7428   -3.2484   -5.4302 C   0  0  0  0  0  0  0  0  0  0  0  0
    1.3682   -3.3816   -6.7687 C   0  0  0  0  0  0  0  0  0  0  0  0
    1.4567   -2.1317   -7.8967 S   0  0  0  0  0  0  0  0  0  0  0  0
    1.8874   -3.0638   -9.2478 C   0  0  0  0  0  0  0  0  0  0  0  0
    2.0468   -4.3758   -8.7990 C   0  0  0  0  0  0  0  0  0  0  0  0
    1.7636   -4.5539   -7.4255 C   0  0  0  0  0  0  0  0  0  0  0  0
    1.9303   -5.8139   -6.8306 C   0  0  0  0  0  0  0  0  0  0  0  0
    2.3308   -6.8987   -7.6216 C   0  0  0  0  0  0  0  0  0  0  0  0
    2.5585   -6.7306   -8.9934 C   0  0  0  0  0  0  0  0  0  0  0  0
    2.9203   -7.7943   -9.7532 F   0  0  0  0  0  0  0  0  0  0  0  0
    2.4200   -5.4694   -9.5902 C   0  0  0  0  0  0  0  0  0  0  0  0
    2.1169   -2.5891  -10.6415 C   0  0  0  0  0  0  0  0  0  0  0  0
    1.4144   -1.6367  -11.2818 C   0  0  0  0  0  0  0  0  0  0  0  0
    0.2562   -0.9454  -10.6982 C   0  0  0  0  0  0  0  0  0  0  0  0
   -0.7869   -1.5867  -10.0383 C   0  0  0  0  0  0  0  0  0  0  0  0
   -1.3552   -0.8013   -9.0221 C   0  0  0  0  0  0  0  0  0  0  0  0
   -2.1349   -1.2855   -7.9475 C   0  0  0  0  0  0  0  0  0  0  0  0
   -2.6714   -2.6625   -7.9138 C   0  0  0  0  0  0  0  0  0  0  0  0
   -4.0166   -2.9952   -7.8182 C   0  0  0  0  0  0  0  0  0  0  0  0
   -4.2564   -4.3707   -7.9427 C   0  0  0  0  0  0  0  0  0  0  0  0
   -5.8883   -5.0169   -7.9645 Cl  0  0  0  0  0  0  0  0  0  0  0  0
   -3.0940   -5.1340   -8.0900 C   0  0  0  0  0  0  0  0  0  0  0  0
   -2.9289   -6.9356   -8.4976 Si  0  0  0  0  0  4  0  0  0  0  0  0
   -4.3427   -7.9111   -7.7180 C   0  0  0  0  0  0  0  0  0  0  0  0
   -4.0105   -9.3828   -7.5174 C   0  0  0  0  0  0  0  0  0  0  0  0
   -3.0197   -7.1313  -10.3664 C   0  0  0  0  0  0  0  0  0  0  0  0
   -2.0591   -6.1849  -11.0806 C   0  0  0  0  0  0  0  0  0  0  0  0
   -1.2486   -7.5001   -7.8467 C   0  0  0  0  0  0  0  0  0  0  0  0
   -0.6996   -8.7192   -8.5796 C   0  0  0  0  0  0  0  0  0  0  0  0
   -1.7897   -4.0782   -8.0919 S   0  0  0  0  0  0  0  0  0  0  0  0
   -2.2487   -0.4431   -6.8288 C   0  0  0  0  0  0  0  0  0  0  0  0
   -1.7408    0.8612   -6.8146 C   0  0  0  0  0  0  0  0  0  0  0  0
   -1.1041    1.4014   -7.9469 C   0  0  0  0  0  0  0  0  0  0  0  0
   -0.6556    2.8119   -7.9661 C   0  0  0  0  0  0  0  0  0  0  0  0
   -1.6310    4.1184   -7.5700 S   0  0  0  0  0  0  0  0  0  0  0  0
   -0.5001    5.3292   -7.8490 C   0  0  0  0  0  0  0  0  0  0  0  0
   -0.8997    7.1493   -7.7426 Si  0  0  0  0  0  4  0  0  0  0  0  0
   -1.5908    7.7619   -9.3851 C   0  0  0  0  0  0  0  0  0  0  0  0
   -2.3602    6.6792  -10.1329 C   0  0  0  0  0  0  0  0  0  0  0  0
   -2.1289    7.4354   -6.3330 C   0  0  0  0  0  0  0  0  0  0  0  0
   -3.5563    7.0390   -6.6923 C   0  0  0  0  0  0  0  0  0  0  0  0
    0.6510    8.1591   -7.3729 C   0  0  0  0  0  0  0  0  0  0  0  0
    0.3449    9.6372   -7.1644 C   0  0  0  0  0  0  0  0  0  0  0  0
    0.6739    4.7059   -8.2882 C   0  0  0  0  0  0  0  0  0  0  0  0
    0.5908    3.3058   -8.3358 C   0  0  0  0  0  0  0  0  0  0  0  0
    2.1509    5.5277   -8.7500 Cl  0  0  0  0  0  0  0  0  0  0  0  0
   -0.8526    0.5102   -9.0047 C   0  0  0  0  0  0  0  0  0  0  0  0
    0.3335    0.6522  -10.1851 S   0  0  0  0  0  0  0  0  0  0  0  0
   -1.6551    1.4106   -5.5292 C   0  0  0  0  0  0  0  0  0  0  0  0
   -2.0412    0.5331   -4.5246 C   0  0  0  0  0  0  0  0  0  0  0  0
   -2.5335   -0.9161   -5.2400 S   0  0  0  0  0  0  0  0  0  0  0  0
   -1.4101    0.5828   -3.2093 C   0  0  0  0  0  0  0  0  0  0  0  0
   -1.9441    1.1358   -2.0561 C   0  0  0  0  0  0  0  0  0  0  0  0
   -1.0285    1.1493   -0.9808 C   0  0  0  0  0  0  0  0  0  0  0  0
   -1.2373    1.7028    0.3064 C   0  0  0  0  0  0  0  0  0  0  0  0
   -2.4939    2.4012    0.6455 C   0  0  0  0  0  0  0  0  0  0  0  0
   -3.7733    1.9438    0.3635 C   0  0  0  0  0  0  0  0  0  0  0  0
   -4.7533    2.9402    0.4264 C   0  0  0  0  0  0  0  0  0  0  0  0
   -6.4174    2.6190   -0.0312 Cl  0  0  0  0  0  0  0  0  0  0  0  0
   -4.2641    4.1897    0.8087 C   0  0  0  0  0  0  0  0  0  0  0  0
   -5.2439    5.7644    0.9637 Si  0  0  0  0  0  4  0  0  0  0  0  0
   -4.1842    7.2176    1.5313 C   0  0  0  0  0  0  0  0  0  0  0  0
   -3.0506    7.5511    0.5649 C   0  0  0  0  0  0  0  0  0  0  0  0
   -6.5646    5.4579    2.2800 C   0  0  0  0  0  0  0  0  0  0  0  0
   -7.5900    6.5807    2.3783 C   0  0  0  0  0  0  0  0  0  0  0  0
   -5.9965    6.1132   -0.7303 C   0  0  0  0  0  0  0  0  0  0  0  0
   -6.5249    7.5374   -0.8790 C   0  0  0  0  0  0  0  0  0  0  0  0
   -2.5999    4.0401    1.0061 S   0  0  0  0  0  0  0  0  0  0  0  0
   -0.1467    1.6489    1.1996 C   0  0  0  0  0  0  0  0  0  0  0  0
    1.0926    1.1002    0.8454 C   0  0  0  0  0  0  0  0  0  0  0  0
    1.3184    0.6090   -0.4545 C   0  0  0  0  0  0  0  0  0  0  0  0
    2.6613    0.1916   -0.9137 C   0  0  0  0  0  0  0  0  0  0  0  0
    4.0615    1.1148   -0.7843 S   0  0  0  0  0  0  0  0  0  0  0  0
    5.0719    0.0856   -1.6492 C   0  0  0  0  0  0  0  0  0  0  0  0
    6.8439    0.5102   -2.0361 Si  0  0  0  0  0  4  0  0  0  0  0  0
    7.8319   -1.0324   -2.4748 C   0  0  0  0  0  0  0  0  0  0  0  0
    9.3233   -0.7519   -2.5875 C   0  0  0  0  0  0  0  0  0  0  0  0
    7.5871    1.3073   -0.4932 C   0  0  0  0  0  0  0  0  0  0  0  0
    8.6760    2.3273   -0.8031 C   0  0  0  0  0  0  0  0  0  0  0  0
    6.8951    1.6740   -3.5164 C   0  0  0  0  0  0  0  0  0  0  0  0
    5.9335    2.8464   -3.3655 C   0  0  0  0  0  0  0  0  0  0  0  0
    4.2984   -0.9952   -2.0840 C   0  0  0  0  0  0  0  0  0  0  0  0
    2.9627   -0.9391   -1.6663 C   0  0  0  0  0  0  0  0  0  0  0  0
    4.8823   -2.3157   -3.0830 Cl  0  0  0  0  0  0  0  0  0  0  0  0
    0.2229    0.6253   -1.3323 C   0  0  0  0  0  0  0  0  0  0  0  0
    0.2016    0.1943   -2.9525 S   0  0  0  0  0  0  0  0  0  0  0  0
    2.0176    1.0917    1.8985 C   0  0  0  0  0  0  0  0  0  0  0  0
    1.5225    1.6423    3.0794 C   0  0  0  0  0  0  0  0  0  0  0  0
   -0.0684    2.1399    2.8103 S   0  0  0  0  0  0  0  0  0  0  0  0
    2.2853    1.7189    4.3395 C   0  0  0  0  0  0  0  0  0  0  0  0
    1.8496    2.2008    5.5802 C   0  0  0  0  0  0  0  0  0  0  0  0
    2.8472    2.1249    6.5771 C   0  0  0  0  0  0  0  0  0  0  0  0
    2.7191    2.4838    7.9394 C   0  0  0  0  0  0  0  0  0  0  0  0
    1.4172    2.8088    8.5526 C   0  0  0  0  0  0  0  0  0  0  0  0
    0.4107    1.8725    8.7435 C   0  0  0  0  0  0  0  0  0  0  0  0
   -0.5138    2.2292    9.7308 C   0  0  0  0  0  0  0  0  0  0  0  0
   -1.7490    1.1015   10.2658 Cl  0  0  0  0  0  0  0  0  0  0  0  0
   -0.2624    3.4713   10.3213 C   0  0  0  0  0  0  0  0  0  0  0  0
   -1.0599    4.1502   11.8630 Si  0  0  0  0  0  4  0  0  0  0  0  0
   -0.5855    3.0240   13.3009 C   0  0  0  0  0  0  0  0  0  0  0  0
    0.9027    2.6969   13.3193 C   0  0  0  0  0  0  0  0  0  0  0  0
   -2.9370    4.1302   11.6720 C   0  0  0  0  0  0  0  0  0  0  0  0
   -3.6392    4.2950   13.0129 C   0  0  0  0  0  0  0  0  0  0  0  0
   -0.6389    5.9475   12.2874 C   0  0  0  0  0  0  0  0  0  0  0  0
    0.7964    6.3558   11.9901 C   0  0  0  0  0  0  0  0  0  0  0  0
    1.1448    4.0717    9.6284 S   0  0  0  0  0  0  0  0  0  0  0  0
    3.8600    2.3146    8.7504 C   0  0  0  0  0  0  0  0  0  0  0  0
    5.0534    1.7632    8.2755 C   0  0  0  0  0  0  0  0  0  0  0  0
    5.1660    1.3617    6.9341 C   0  0  0  0  0  0  0  0  0  0  0  0
    6.3043    0.5515    6.4643 C   0  0  0  0  0  0  0  0  0  0  0  0
    7.1805    0.8169    5.0536 S   0  0  0  0  0  0  0  0  0  0  0  0
    7.9352   -0.6822    5.0102 C   0  0  0  0  0  0  0  0  0  0  0  0
    8.8567   -1.2766    3.5212 Si  0  0  0  0  0  4  0  0  0  0  0  0
    7.5391   -1.8946    2.3268 C   0  0  0  0  0  0  0  0  0  0  0  0
    8.0572   -2.9797    1.3912 C   0  0  0  0  0  0  0  0  0  0  0  0
    9.7392    0.2264    2.8049 C   0  0  0  0  0  0  0  0  0  0  0  0
   10.7084   -0.1381    1.6888 C   0  0  0  0  0  0  0  0  0  0  0  0
   10.0973   -2.6406    3.9228 C   0  0  0  0  0  0  0  0  0  0  0  0
   11.0925   -2.2009    4.9883 C   0  0  0  0  0  0  0  0  0  0  0  0
    7.4763   -1.4306    6.0943 C   0  0  0  0  0  0  0  0  0  0  0  0
    6.5784   -0.7344    6.9137 C   0  0  0  0  0  0  0  0  0  0  0  0
    7.8318   -3.1251    6.3823 Cl  0  0  0  0  0  0  0  0  0  0  0  0
    4.0529    1.5919    6.1064 C   0  0  0  0  0  0  0  0  0  0  0  0
    3.8783    1.1914    4.4869 S   0  0  0  0  0  0  0  0  0  0  0  0
    6.0397    1.6249    9.2686 C   0  0  0  0  0  0  0  0  0  0  0  0
    5.6235    2.0593   10.5231 C   0  0  0  0  0  0  0  0  0  0  0  0
    4.0315    2.5994   10.4048 S   0  0  0  0  0  0  0  0  0  0  0  0
   -2.7895   -3.5659    8.1472 H   0  0  0  0  0  0  0  0  0  0  0  0
   -2.7604   -1.5363    6.5612 H   0  0  0  0  0  0  0  0  0  0  0  0
   -4.4288   -0.7252    2.5624 H   0  0  0  0  0  0  0  0  0  0  0  0
   -6.1108    3.2855    5.5914 H   0  0  0  0  0  0  0  0  0  0  0  0
   -5.5699    2.0821    6.8140 H   0  0  0  0  0  0  0  0  0  0  0  0
   -5.2933    5.1317    7.2065 H   0  0  0  0  0  0  0  0  0  0  0  0
   -5.1746    3.8078    8.4551 H   0  0  0  0  0  0  0  0  0  0  0  0
   -6.7487    4.1927    7.6927 H   0  0  0  0  0  0  0  0  0  0  0  0
   -3.9730    4.4064    3.5969 H   0  0  0  0  0  0  0  0  0  0  0  0
   -4.0390    5.5320    5.0008 H   0  0  0  0  0  0  0  0  0  0  0  0
   -1.9925    5.8567    3.5323 H   0  0  0  0  0  0  0  0  0  0  0  0
   -1.4661    4.1938    3.9533 H   0  0  0  0  0  0  0  0  0  0  0  0
   -1.5739    5.4584    5.2297 H   0  0  0  0  0  0  0  0  0  0  0  0
   -2.4207    2.3903    7.6813 H   0  0  0  0  0  0  0  0  0  0  0  0
   -1.3312    3.2210    6.5195 H   0  0  0  0  0  0  0  0  0  0  0  0
   -3.0163    4.4058    8.7374 H   0  0  0  0  0  0  0  0  0  0  0  0
   -1.3640    4.8297    8.1938 H   0  0  0  0  0  0  0  0  0  0  0  0
   -2.7741    5.4175    7.2638 H   0  0  0  0  0  0  0  0  0  0  0  0
   -2.5407  -11.3536   -0.4443 H   0  0  0  0  0  0  0  0  0  0  0  0
   -2.1996   -9.6006   -0.6707 H   0  0  0  0  0  0  0  0  0  0  0  0
   -4.2765   -9.0020    0.5592 H   0  0  0  0  0  0  0  0  0  0  0  0
   -4.6271  -10.7672    0.8352 H   0  0  0  0  0  0  0  0  0  0  0  0
   -4.6357  -10.0801   -0.8322 H   0  0  0  0  0  0  0  0  0  0  0  0
    0.3497   -9.4549    0.6300 H   0  0  0  0  0  0  0  0  0  0  0  0
    0.2392  -11.2451    0.4701 H   0  0  0  0  0  0  0  0  0  0  0  0
    0.7978   -9.7931    3.1388 H   0  0  0  0  0  0  0  0  0  0  0  0
    0.9065  -11.5760    2.7960 H   0  0  0  0  0  0  0  0  0  0  0  0
    2.0680  -10.4398    2.0350 H   0  0  0  0  0  0  0  0  0  0  0  0
   -3.2883  -11.9905    2.5802 H   0  0  0  0  0  0  0  0  0  0  0  0
   -1.6593  -12.6952    2.3139 H   0  0  0  0  0  0  0  0  0  0  0  0
   -0.7880  -11.5349    4.3441 H   0  0  0  0  0  0  0  0  0  0  0  0
   -2.2535  -12.4913    4.7515 H   0  0  0  0  0  0  0  0  0  0  0  0
   -2.3692  -10.7086    4.5828 H   0  0  0  0  0  0  0  0  0  0  0  0
   -4.0900   -6.5737    4.1421 H   0  0  0  0  0  0  0  0  0  0  0  0
   -1.6190   -5.4499    0.7019 H   0  0  0  0  0  0  0  0  0  0  0  0
   -3.8825   -5.0812   -0.4857 H   0  0  0  0  0  0  0  0  0  0  0  0
   -4.9399   -6.8552   -1.8324 H   0  0  0  0  0  0  0  0  0  0  0  0
   -2.3138   -6.0024   -5.1213 H   0  0  0  0  0  0  0  0  0  0  0  0
   -0.3880   -4.9870   -5.6281 H   0  0  0  0  0  0  0  0  0  0  0  0
    0.9124   -2.3383   -4.8686 H   0  0  0  0  0  0  0  0  0  0  0  0
    1.7704   -5.9614   -5.7710 H   0  0  0  0  0  0  0  0  0  0  0  0
    2.4594   -7.8748   -7.1699 H   0  0  0  0  0  0  0  0  0  0  0  0
    2.6086   -5.3550  -10.6508 H   0  0  0  0  0  0  0  0  0  0  0  0
    2.9122   -3.0688  -11.1955 H   0  0  0  0  0  0  0  0  0  0  0  0
    1.7416   -1.3231  -12.2629 H   0  0  0  0  0  0  0  0  0  0  0  0
   -0.9726   -2.6386  -10.1777 H   0  0  0  0  0  0  0  0  0  0  0  0
   -4.8058   -2.2595   -7.7231 H   0  0  0  0  0  0  0  0  0  0  0  0
   -5.2303   -7.8323   -8.3798 H   0  0  0  0  0  0  0  0  0  0  0  0
   -4.5925   -7.4553   -6.7406 H   0  0  0  0  0  0  0  0  0  0  0  0
   -3.1585   -9.4929   -6.8149 H   0  0  0  0  0  0  0  0  0  0  0  0
   -4.8883   -9.8988   -7.0752 H   0  0  0  0  0  0  0  0  0  0  0  0
   -3.7734   -9.8627   -8.4888 H   0  0  0  0  0  0  0  0  0  0  0  0
   -2.7728   -8.1798  -10.6256 H   0  0  0  0  0  0  0  0  0  0  0  0
   -4.0584   -6.9231  -10.6989 H   0  0  0  0  0  0  0  0  0  0  0  0
   -2.0768   -6.3973  -12.1715 H   0  0  0  0  0  0  0  0  0  0  0  0
   -1.0213   -6.3224  -10.7124 H   0  0  0  0  0  0  0  0  0  0  0  0
   -2.3666   -5.1311  -10.9234 H   0  0  0  0  0  0  0  0  0  0  0  0
   -0.5337   -6.6649   -7.9793 H   0  0  0  0  0  0  0  0  0  0  0  0
   -1.3352   -7.7156   -6.7626 H   0  0  0  0  0  0  0  0  0  0  0  0
    0.2513   -9.0364   -8.1001 H   0  0  0  0  0  0  0  0  0  0  0  0
   -0.4862   -8.4745   -9.6382 H   0  0  0  0  0  0  0  0  0  0  0  0
   -1.4058   -9.5700   -8.5341 H   0  0  0  0  0  0  0  0  0  0  0  0
   -2.2557    8.6282   -9.1945 H   0  0  0  0  0  0  0  0  0  0  0  0
   -0.7468    8.1015  -10.0173 H   0  0  0  0  0  0  0  0  0  0  0  0
   -1.6798    5.8480  -10.4092 H   0  0  0  0  0  0  0  0  0  0  0  0
   -2.7868    7.1063  -11.0648 H   0  0  0  0  0  0  0  0  0  0  0  0
   -3.1911    6.2845   -9.5140 H   0  0  0  0  0  0  0  0  0  0  0  0
   -1.7896    6.8549   -5.4496 H   0  0  0  0  0  0  0  0  0  0  0  0
   -2.1288    8.5096   -6.0635 H   0  0  0  0  0  0  0  0  0  0  0  0
   -3.6155    5.9712   -6.9697 H   0  0  0  0  0  0  0  0  0  0  0  0
   -4.2118    7.2018   -5.8128 H   0  0  0  0  0  0  0  0  0  0  0  0
   -3.9308    7.6628   -7.5274 H   0  0  0  0  0  0  0  0  0  0  0  0
    1.1427    7.7479   -6.4666 H   0  0  0  0  0  0  0  0  0  0  0  0
    1.3407    8.0725   -8.2363 H   0  0  0  0  0  0  0  0  0  0  0  0
   -0.2219    9.7937   -6.2247 H   0  0  0  0  0  0  0  0  0  0  0  0
   -0.2305   10.0457   -8.0227 H   0  0  0  0  0  0  0  0  0  0  0  0
    1.2983   10.1996   -7.0873 H   0  0  0  0  0  0  0  0  0  0  0  0
    1.4260    2.6776   -8.6117 H   0  0  0  0  0  0  0  0  0  0  0  0
   -1.1311    2.3375   -5.3149 H   0  0  0  0  0  0  0  0  0  0  0  0
   -2.9389    1.5599   -2.0362 H   0  0  0  0  0  0  0  0  0  0  0  0
   -3.9826    0.9313    0.0442 H   0  0  0  0  0  0  0  0  0  0  0  0
   -3.7676    6.9879    2.5309 H   0  0  0  0  0  0  0  0  0  0  0  0
   -4.8386    8.1092    1.6362 H   0  0  0  0  0  0  0  0  0  0  0  0
   -2.5344    8.4703    0.9102 H   0  0  0  0  0  0  0  0  0  0  0  0
   -3.4405    7.7297   -0.4590 H   0  0  0  0  0  0  0  0  0  0  0  0
   -2.3014    6.7358    0.5312 H   0  0  0  0  0  0  0  0  0  0  0  0
   -6.0607    5.3591    3.2633 H   0  0  0  0  0  0  0  0  0  0  0  0
   -7.0901    4.5063    2.0636 H   0  0  0  0  0  0  0  0  0  0  0  0
   -8.2884    6.5330    1.5175 H   0  0  0  0  0  0  0  0  0  0  0  0
   -8.1853    6.4536    3.3066 H   0  0  0  0  0  0  0  0  0  0  0  0
   -7.0939    7.5728    2.4176 H   0  0  0  0  0  0  0  0  0  0  0  0
   -6.8199    5.3929   -0.9156 H   0  0  0  0  0  0  0  0  0  0  0  0
   -5.2078    5.9453   -1.4921 H   0  0  0  0  0  0  0  0  0  0  0  0
   -7.3601    7.7304   -0.1780 H   0  0  0  0  0  0  0  0  0  0  0  0
   -6.9053    7.6773   -1.9128 H   0  0  0  0  0  0  0  0  0  0  0  0
   -5.7228    8.2824   -0.7016 H   0  0  0  0  0  0  0  0  0  0  0  0
    7.4765   -1.4167   -3.4541 H   0  0  0  0  0  0  0  0  0  0  0  0
    7.6582   -1.8064   -1.6961 H   0  0  0  0  0  0  0  0  0  0  0  0
    9.7389   -0.4610   -1.6020 H   0  0  0  0  0  0  0  0  0  0  0  0
    9.5133    0.0538   -3.3286 H   0  0  0  0  0  0  0  0  0  0  0  0
    9.8471   -1.6697   -2.9254 H   0  0  0  0  0  0  0  0  0  0  0  0
    8.0121    0.4986    0.1329 H   0  0  0  0  0  0  0  0  0  0  0  0
    6.7846    1.8098    0.0845 H   0  0  0  0  0  0  0  0  0  0  0  0
    9.4760    1.8834   -1.4264 H   0  0  0  0  0  0  0  0  0  0  0  0
    8.2490    3.2078   -1.3258 H   0  0  0  0  0  0  0  0  0  0  0  0
    9.1296    2.6750    0.1481 H   0  0  0  0  0  0  0  0  0  0  0  0
    6.6306    1.0964   -4.4264 H   0  0  0  0  0  0  0  0  0  0  0  0
    7.9291    2.0571   -3.6365 H   0  0  0  0  0  0  0  0  0  0  0  0
    6.1367    3.4080   -2.4307 H   0  0  0  0  0  0  0  0  0  0  0  0
    6.0584    3.5372   -4.2239 H   0  0  0  0  0  0  0  0  0  0  0  0
    4.8830    2.4862   -3.3578 H   0  0  0  0  0  0  0  0  0  0  0  0
    2.2342   -1.6946   -1.9210 H   0  0  0  0  0  0  0  0  0  0  0  0
    3.0106    0.6670    1.8180 H   0  0  0  0  0  0  0  0  0  0  0  0
    0.8526    2.5827    5.7513 H   0  0  0  0  0  0  0  0  0  0  0  0
    0.4072    0.9069    8.2550 H   0  0  0  0  0  0  0  0  0  0  0  0
   -0.8658    3.5241   14.2496 H   0  0  0  0  0  0  0  0  0  0  0  0
   -1.1614    2.0807   13.2142 H   0  0  0  0  0  0  0  0  0  0  0  0
    1.1164    2.0095   14.1626 H   0  0  0  0  0  0  0  0  0  0  0  0
    1.2090    2.1979   12.3768 H   0  0  0  0  0  0  0  0  0  0  0  0
    1.5027    3.6156   13.4675 H   0  0  0  0  0  0  0  0  0  0  0  0
   -3.2280    4.9725   11.0120 H   0  0  0  0  0  0  0  0  0  0  0  0
   -3.2720    3.1856   11.2034 H   0  0  0  0  0  0  0  0  0  0  0  0
   -3.3065    5.2269   13.5160 H   0  0  0  0  0  0  0  0  0  0  0  0
   -3.4259    3.4262   13.6680 H   0  0  0  0  0  0  0  0  0  0  0  0
   -4.7352    4.3508   12.8528 H   0  0  0  0  0  0  0  0  0  0  0  0
   -0.8448    6.0937   13.3676 H   0  0  0  0  0  0  0  0  0  0  0  0
   -1.3241    6.6123   11.7236 H   0  0  0  0  0  0  0  0  0  0  0  0
    1.0238    7.3076   12.5151 H   0  0  0  0  0  0  0  0  0  0  0  0
    0.9239    6.5343   10.9042 H   0  0  0  0  0  0  0  0  0  0  0  0
    1.5161    5.5884   12.3317 H   0  0  0  0  0  0  0  0  0  0  0  0
    6.6952   -2.3045    2.9170 H   0  0  0  0  0  0  0  0  0  0  0  0
    7.1631   -1.0344    1.7380 H   0  0  0  0  0  0  0  0  0  0  0  0
    7.2893   -3.1953    0.6187 H   0  0  0  0  0  0  0  0  0  0  0  0
    8.9868   -2.6579    0.8806 H   0  0  0  0  0  0  0  0  0  0  0  0
    8.2524   -3.9096    1.9628 H   0  0  0  0  0  0  0  0  0  0  0  0
   10.2940    0.7329    3.6216 H   0  0  0  0  0  0  0  0  0  0  0  0
    8.9734    0.9287    2.4161 H   0  0  0  0  0  0  0  0  0  0  0  0
   11.5147   -0.7947    2.0741 H   0  0  0  0  0  0  0  0  0  0  0  0
   10.1783   -0.6440    0.8596 H   0  0  0  0  0  0  0  0  0  0  0  0
   11.1756    0.7892    1.2937 H   0  0  0  0  0  0  0  0  0  0  0  0
    9.5572   -3.5466    4.2597 H   0  0  0  0  0  0  0  0  0  0  0  0
   10.6474   -2.9067    2.9971 H   0  0  0  0  0  0  0  0  0  0  0  0
   11.7889   -3.0387    5.2087 H   0  0  0  0  0  0  0  0  0  0  0  0
   11.6837   -1.3330    4.6310 H   0  0  0  0  0  0  0  0  0  0  0  0
   10.5657   -1.9251    5.9260 H   0  0  0  0  0  0  0  0  0  0  0  0
    6.0679   -1.1883    7.7487 H   0  0  0  0  0  0  0  0  0  0  0  0
    7.0295    1.2222    9.0892 H   0  0  0  0  0  0  0  0  0  0  0  0
    6.2237    2.0440   11.4238 H   0  0  0  0  0  0  0  0  0  0  0  0
  1  2  2  0
  2  3  1  0
  3  4  2  0
  4  5  1  0
  5  6  2  0
  6  7  1  0
  7  8  1  0
  7  9  2  0
  9 10  1  0
 10 11  1  0
 11 12  1  0
 10 13  1  0
 13 14  1  0
 10 15  1  0
 15 16  1  0
  9 17  1  0
  4 18  1  0
 18 19  2  0
 19 20  1  0
 20 21  1  0
 21 22  1  0
 22 23  1  0
 23 24  1  0
 24 25  1  0
 25 26  1  0
 24 27  1  0
 27 28  1  0
 24 29  1  0
 29 30  1  0
 23 31  2  0
 31 32  1  0
 31 33  1  0
 20 34  2  0
 34 35  1  0
 19 36  1  0
 36 37  2  0
 37 38  1  0
 37 39  1  0
 39 40  1  0
 40 41  1  0
 41 42  2  0
 42 43  1  0
 43 44  1  0
 44 45  2  0
 45 46  1  0
 46 47  1  0
 46 48  2  0
 41 49  1  0
 49 50  2  3
 50 51  1  0
 51 52  1  0
 52 53  1  0
 53 54  2  0
 54 55  1  0
 55 56  1  0
 56 57  2  0
 57 58  1  0
 58 59  1  0
 58 60  2  0
 53 61  1  0
 61 62  2  3
 62 63  1  0
 63 64  2  0
 64 65  1  0
 65 66  2  0
 66 67  1  0
 67 68  2  0
 68 69  1  0
 69 70  1  0
 69 71  2  0
 71 72  1  0
 72 73  1  0
 73 74  1  0
 72 75  1  0
 75 76  1  0
 72 77  1  0
 77 78  1  0
 71 79  1  0
 66 80  1  0
 80 81  2  0
 81 82  1  0
 82 83  1  0
 83 84  1  0
 84 85  1  0
 85 86  1  0
 86 87  1  0
 87 88  1  0
 86 89  1  0
 89 90  1  0
 86 91  1  0
 91 92  1  0
 85 93  2  0
 93 94  1  0
 93 95  1  0
 82 96  2  0
 96 97  1  0
 81 98  1  0
 98 99  2  0
 99100  1  0
 99101  1  0
101102  2  0
102103  1  0
103104  2  0
104105  1  0
105106  2  0
106107  1  0
107108  1  0
107109  2  0
109110  1  0
110111  1  0
111112  1  0
110113  1  0
113114  1  0
110115  1  0
115116  1  0
109117  1  0
104118  1  0
118119  2  0
119120  1  0
120121  1  0
121122  1  0
122123  1  0
123124  1  0
124125  1  0
125126  1  0
124127  1  0
127128  1  0
124129  1  0
129130  1  0
123131  2  0
131132  1  0
131133  1  0
120134  2  0
134135  1  0
119136  1  0
136137  2  0
137138  1  0
137139  1  0
139140  2  0
140141  1  0
141142  2  0
142143  1  0
143144  2  0
144145  1  0
145146  1  0
145147  2  0
147148  1  0
148149  1  0
149150  1  0
148151  1  0
151152  1  0
148153  1  0
153154  1  0
147155  1  0
142156  1  0
156157  2  0
157158  1  0
158159  1  0
159160  1  0
160161  1  0
161162  1  0
162163  1  0
163164  1  0
162165  1  0
165166  1  0
162167  1  0
167168  1  0
161169  2  0
169170  1  0
169171  1  0
158172  2  0
172173  1  0
157174  1  0
174175  2  0
175176  1  0
 35  1  1  0
 43 39  2  0
 55 51  2  0
 97 63  1  0
135101  1  0
173139  1  0
 34  3  1  0
 48 42  1  0
 60 54  1  0
 96 65  1  0
134103  1  0
172141  1  0
 17  5  1  0
 38 18  1  0
 79 67  1  0
100 80  1  0
117105  1  0
138118  1  0
155143  1  0
176156  1  0
 32 21  2  0
 94 83  2  0
132121  2  0
170159  2  0
  1177  1  0
  2178  1  0
  6179  1  0
 11180  1  0
 11181  1  0
 12182  1  0
 12183  1  0
 12184  1  0
 13185  1  0
 13186  1  0
 14187  1  0
 14188  1  0
 14189  1  0
 15190  1  0
 15191  1  0
 16192  1  0
 16193  1  0
 16194  1  0
 25195  1  0
 25196  1  0
 26197  1  0
 26198  1  0
 26199  1  0
 27200  1  0
 27201  1  0
 28202  1  0
 28203  1  0
 28204  1  0
 29205  1  0
 29206  1  0
 30207  1  0
 30208  1  0
 30209  1  0
 32210  1  0
 36211  1  0
 44212  1  0
 45213  1  0
 48214  1  0
 49215  1  0
 50216  1  0
 56217  1  0
 57218  1  0
 60219  1  0
 61220  1  0
 62221  1  0
 64222  1  0
 68223  1  0
 73224  1  0
 73225  1  0
 74226  1  0
 74227  1  0
 74228  1  0
 75229  1  0
 75230  1  0
 76231  1  0
 76232  1  0
 76233  1  0
 77234  1  0
 77235  1  0
 78236  1  0
 78237  1  0
 78238  1  0
 87239  1  0
 87240  1  0
 88241  1  0
 88242  1  0
 88243  1  0
 89244  1  0
 89245  1  0
 90246  1  0
 90247  1  0
 90248  1  0
 91249  1  0
 91250  1  0
 92251  1  0
 92252  1  0
 92253  1  0
 94254  1  0
 98255  1  0
102256  1  0
106257  1  0
111258  1  0
111259  1  0
112260  1  0
112261  1  0
112262  1  0
113263  1  0
113264  1  0
114265  1  0
114266  1  0
114267  1  0
115268  1  0
115269  1  0
116270  1  0
116271  1  0
116272  1  0
125273  1  0
125274  1  0
126275  1  0
126276  1  0
126277  1  0
127278  1  0
127279  1  0
128280  1  0
128281  1  0
128282  1  0
129283  1  0
129284  1  0
130285  1  0
130286  1  0
130287  1  0
132288  1  0
136289  1  0
140290  1  0
144291  1  0
149292  1  0
149293  1  0
150294  1  0
150295  1  0
150296  1  0
151297  1  0
151298  1  0
152299  1  0
152300  1  0
152301  1  0
153302  1  0
153303  1  0
154304  1  0
154305  1  0
154306  1  0
163307  1  0
163308  1  0
164309  1  0
164310  1  0
164311  1  0
165312  1  0
165313  1  0
166314  1  0
166315  1  0
166316  1  0
167317  1  0
167318  1  0
168319  1  0
168320  1  0
168321  1  0
170322  1  0
174323  1  0
175324  1  0
M  END

