
     RDKit          3D

 82 89  0  0  0  0  0  0  0  0999 V2000
   11.0153   -0.4898   -0.1915 C   0  0  0  0  0  0  0  0  0  0  0  0
    9.6505    0.2966    0.3888 S   0  0  0  0  0  0  0  0  0  0  0  0
    8.5939   -0.9995    0.2192 C   0  0  0  0  0  0  0  0  0  0  0  0
    9.2981   -2.0962   -0.3026 C   0  0  0  0  0  0  0  0  0  0  0  0
   10.6563   -1.7847   -0.5362 C   0  0  0  0  0  0  0  0  0  0  0  0
   11.5881   -2.6735   -1.0729 O   0  0  0  0  0  0  0  0  0  0  0  0
    8.7093   -3.4583   -0.5913 C   0  0  0  0  0  0  0  0  0  0  0  0
    9.4439   -4.4253    0.0697 F   0  0  0  0  0  0  0  0  0  0  0  0
    8.7540   -3.6987   -1.9533 F   0  0  0  0  0  0  0  0  0  0  0  0
    7.3979   -3.5615   -0.1669 F   0  0  0  0  0  0  0  0  0  0  0  0
    7.1516   -0.9073    0.5018 C   0  0  0  0  0  0  0  0  0  0  0  0
    6.2324   -0.8550   -0.5434 C   0  0  0  0  0  0  0  0  0  0  0  0
    6.4569   -0.8750   -1.8672 N   0  0  0  0  0  0  0  0  0  0  0  0
    5.2473   -0.7838   -2.4170 N   0  0  0  0  0  0  0  0  0  0  0  0
    5.0215   -0.7150   -3.8547 C   0  0  0  0  0  0  0  0  0  0  0  0
    5.0629    0.7320   -4.3243 C   0  0  0  0  0  0  0  0  0  0  0  0
    4.2714   -0.6879   -1.5176 N   0  0  0  0  0  0  0  0  0  0  0  0
    4.8954   -0.7390   -0.3301 C   0  0  0  0  0  0  0  0  0  0  0  0
    4.3473   -0.6586    0.9469 C   0  0  0  0  0  0  0  0  0  0  0  0
    5.2398   -0.7123    2.0459 C   0  0  0  0  0  0  0  0  0  0  0  0
    6.6422   -0.8340    1.8238 C   0  0  0  0  0  0  0  0  0  0  0  0
    7.7481   -0.9158    3.1955 Cl  0  0  0  0  0  0  0  0  0  0  0  0
    4.6097   -0.6163    3.6893 Cl  0  0  0  0  0  0  0  0  0  0  0  0
    2.8927   -0.5026    1.1211 C   0  0  0  0  0  0  0  0  0  0  0  0
    2.0599   -1.6162    1.1563 C   0  0  0  0  0  0  0  0  0  0  0  0
    2.3893   -2.9147    1.0685 N   0  0  0  0  0  0  0  0  0  0  0  0
    1.2280   -3.5616    1.1341 N   0  0  0  0  0  0  0  0  0  0  0  0
    1.1082   -5.0153    1.0413 C   0  0  0  0  0  0  0  0  0  0  0  0
    1.0398   -5.4472   -0.4203 C   0  0  0  0  0  0  0  0  0  0  0  0
    0.1827   -2.7465    1.2399 N   0  0  0  0  0  0  0  0  0  0  0  0
    0.7090   -1.5117    1.2677 C   0  0  0  0  0  0  0  0  0  0  0  0
    0.0544   -0.2797    1.3571 C   0  0  0  0  0  0  0  0  0  0  0  0
    0.8687    0.8858    1.3433 C   0  0  0  0  0  0  0  0  0  0  0  0
    2.2842    0.7705    1.2212 C   0  0  0  0  0  0  0  0  0  0  0  0
    3.2916    2.2213    1.1962 Cl  0  0  0  0  0  0  0  0  0  0  0  0
    0.1469    2.4849    1.5343 Cl  0  0  0  0  0  0  0  0  0  0  0  0
   -1.4224   -0.2252    1.4251 C   0  0  0  0  0  0  0  0  0  0  0  0
   -2.4053    0.7087    0.4352 S   0  0  0  0  0  0  0  0  0  0  0  0
   -3.8758    0.1912    1.0682 C   0  0  0  0  0  0  0  0  0  0  0  0
   -3.6245   -0.7794    2.0552 C   0  0  0  0  0  0  0  0  0  0  0  0
   -2.2384   -0.9643    2.2801 C   0  0  0  0  0  0  0  0  0  0  0  0
   -1.6993   -1.7670    3.2886 O   0  0  0  0  0  0  0  0  0  0  0  0
   -4.6971   -1.5640    2.7770 C   0  0  0  0  0  0  0  0  0  0  0  0
   -4.9817   -0.9554    3.9857 F   0  0  0  0  0  0  0  0  0  0  0  0
   -4.2763   -2.8615    3.0061 F   0  0  0  0  0  0  0  0  0  0  0  0
   -5.8509   -1.6468    2.0203 F   0  0  0  0  0  0  0  0  0  0  0  0
   -5.1675    0.8035    0.7039 C   0  0  0  0  0  0  0  0  0  0  0  0
   -6.3756    1.2376    1.7864 S   0  0  0  0  0  0  0  0  0  0  0  0
   -7.4023    1.9568    0.6660 C   0  0  0  0  0  0  0  0  0  0  0  0
   -6.7786    1.9335   -0.5953 C   0  0  0  0  0  0  0  0  0  0  0  0
   -5.5367    1.2534   -0.5614 C   0  0  0  0  0  0  0  0  0  0  0  0
   -4.7365    1.0211   -1.6815 O   0  0  0  0  0  0  0  0  0  0  0  0
   -7.3094    2.6099   -1.8401 C   0  0  0  0  0  0  0  0  0  0  0  0
   -8.3071    3.5206   -1.5444 F   0  0  0  0  0  0  0  0  0  0  0  0
   -7.8061    1.6553   -2.7089 F   0  0  0  0  0  0  0  0  0  0  0  0
   -6.2943    3.3082   -2.4633 F   0  0  0  0  0  0  0  0  0  0  0  0
   -8.7377    2.4629    1.0222 C   0  0  0  0  0  0  0  0  0  0  0  0
   -9.0833    3.3472    2.4096 S   0  0  0  0  0  0  0  0  0  0  0  0
  -10.7486    3.4056    2.1951 C   0  0  0  0  0  0  0  0  0  0  0  0
  -11.0707    2.7007    1.0349 C   0  0  0  0  0  0  0  0  0  0  0  0
   -9.9399    2.1553    0.3912 C   0  0  0  0  0  0  0  0  0  0  0  0
   -9.9988    1.3529   -0.7498 O   0  0  0  0  0  0  0  0  0  0  0  0
  -12.4814    2.5136    0.5469 C   0  0  0  0  0  0  0  0  0  0  0  0
  -13.3810    3.1705    1.3676 F   0  0  0  0  0  0  0  0  0  0  0  0
  -12.7933    1.1650    0.5373 F   0  0  0  0  0  0  0  0  0  0  0  0
  -12.6018    3.0219   -0.7364 F   0  0  0  0  0  0  0  0  0  0  0  0
   12.0040   -0.0579   -0.2866 H   0  0  0  0  0  0  0  0  0  0  0  0
   11.3424   -3.6180   -1.3320 H   0  0  0  0  0  0  0  0  0  0  0  0
    4.0313   -1.1586   -4.1020 H   0  0  0  0  0  0  0  0  0  0  0  0
    5.8059   -1.2975   -4.3826 H   0  0  0  0  0  0  0  0  0  0  0  0
    4.9105    0.7735   -5.4241 H   0  0  0  0  0  0  0  0  0  0  0  0
    6.0487    1.1830   -4.0812 H   0  0  0  0  0  0  0  0  0  0  0  0
    4.2594    1.3174   -3.8256 H   0  0  0  0  0  0  0  0  0  0  0  0
    0.1876   -5.3516    1.5685 H   0  0  0  0  0  0  0  0  0  0  0  0
    1.9833   -5.4962    1.5323 H   0  0  0  0  0  0  0  0  0  0  0  0
    1.9696   -5.1480   -0.9520 H   0  0  0  0  0  0  0  0  0  0  0  0
    0.9317   -6.5518   -0.4757 H   0  0  0  0  0  0  0  0  0  0  0  0
    0.1648   -4.9752   -0.9145 H   0  0  0  0  0  0  0  0  0  0  0  0
   -2.2611   -2.1897    4.0154 H   0  0  0  0  0  0  0  0  0  0  0  0
   -5.0308    1.2586   -2.6200 H   0  0  0  0  0  0  0  0  0  0  0  0
  -11.4470    3.8918    2.8614 H   0  0  0  0  0  0  0  0  0  0  0  0
  -10.8737    1.1207   -1.2018 H   0  0  0  0  0  0  0  0  0  0  0  0
  1  2  1  0
  2  3  1  0
  3  4  2  0
  4  5  1  0
  5  6  1  0
  4  7  1  0
  7  8  1  0
  7  9  1  0
  7 10  1  0
  3 11  1  0
 11 12  1  0
 12 13  2  0
 13 14  1  0
 14 15  1  0
 15 16  1  0
 14 17  1  0
 17 18  2  0
 18 19  1  0
 19 20  2  0
 20 21  1  0
 21 22  1  0
 20 23  1  0
 19 24  1  0
 24 25  1  0
 25 26  2  0
 26 27  1  0
 27 28  1  0
 28 29  1  0
 27 30  1  0
 30 31  2  0
 31 32  1  0
 32 33  2  0
 33 34  1  0
 34 35  1  0
 33 36  1  0
 32 37  1  0
 37 38  1  0
 38 39  1  0
 39 40  2  0
 40 41  1  0
 41 42  1  0
 40 43  1  0
 43 44  1  0
 43 45  1  0
 43 46  1  0
 39 47  1  0
 47 48  1  0
 48 49  1  0
 49 50  2  0
 50 51  1  0
 51 52  1  0
 50 53  1  0
 53 54  1  0
 53 55  1  0
 53 56  1  0
 49 57  1  0
 57 58  1  0
 58 59  1  0
 59 60  2  0
 60 61  1  0
 61 62  1  0
 60 63  1  0
 63 64  1  0
 63 65  1  0
 63 66  1  0
  5  1  2  0
 21 11  2  0
 34 24  2  0
 41 37  2  0
 51 47  2  0
 61 57  2  0
 18 12  1  0
 31 25  1  0
  1 67  1  0
  6 68  1  0
 15 69  1  0
 15 70  1  0
 16 71  1  0
 16 72  1  0
 16 73  1  0
 28 74  1  0
 28 75  1  0
 29 76  1  0
 29 77  1  0
 29 78  1  0
 42 79  1  0
 52 80  1  0
 59 81  1  0
 62 82  1  0
M  END

