
     RDKit          3D

232255  0  0  0  0  0  0  0  0999 V2000
    3.9399   -2.2295   12.9245 C   0  0  0  0  0  0  0  0  0  0  0  0
    2.7330   -1.3940   12.0929 S   0  0  0  0  0  0  0  0  0  0  0  0
    2.8235   -2.2801   10.6642 C   0  0  0  0  0  0  0  0  0  0  0  0
    3.8332   -3.2242   10.8294 C   0  0  0  0  0  0  0  0  0  0  0  0
    4.4602   -3.2012   12.0767 C   0  0  0  0  0  0  0  0  0  0  0  0
    5.4693   -4.0060   12.4284 O   0  0  0  0  0  0  0  0  0  0  0  0
    6.0539   -4.9414   11.6649 C   0  0  0  0  0  0  0  0  0  0  0  0
    6.9945   -5.6146   12.1657 O   0  0  0  0  0  0  0  0  0  0  0  0
    5.6748   -5.1965   10.3373 C   0  0  0  0  0  0  0  0  0  0  0  0
    6.2600   -6.0710    9.6431 O   0  0  0  0  0  0  0  0  0  0  0  0
    4.4191   -4.2978    9.6808 S   0  0  0  0  0  0  0  0  0  0  0  0
    2.0323   -2.0243    9.4534 C   0  0  0  0  0  0  0  0  0  0  0  0
    1.4884   -3.0282    8.7573 C   0  0  0  0  0  0  0  0  0  0  0  0
    0.8262   -2.8183    7.4619 C   0  0  0  0  0  0  0  0  0  0  0  0
   -0.0523   -3.7179    6.8634 C   0  0  0  0  0  0  0  0  0  0  0  0
   -0.4282   -3.3354    5.5666 C   0  0  0  0  0  0  0  0  0  0  0  0
   -1.3237   -4.0183    4.7130 C   0  0  0  0  0  0  0  0  0  0  0  0
   -1.9380   -5.3161    5.0850 C   0  0  0  0  0  0  0  0  0  0  0  0
   -1.1356   -6.4060    5.4506 C   0  0  0  0  0  0  0  0  0  0  0  0
   -1.7131   -7.6361    5.7675 C   0  0  0  0  0  0  0  0  0  0  0  0
   -3.1023   -7.7926    5.7140 C   0  0  0  0  0  0  0  0  0  0  0  0
   -3.8304   -9.3906    6.1050 S   0  0  0  0  0  0  0  0  0  0  0  0
   -3.8891   -9.9775    4.3769 C   0  0  0  0  0  0  0  0  0  0  0  0
   -2.5154  -10.4077    3.8787 C   0  0  0  0  0  0  0  0  0  0  0  0
   -3.9127   -6.7052    5.3673 C   0  0  0  0  0  0  0  0  0  0  0  0
   -5.2644   -6.8389    5.3296 F   0  0  0  0  0  0  0  0  0  0  0  0
   -3.3326   -5.4711    5.0604 C   0  0  0  0  0  0  0  0  0  0  0  0
   -1.5628   -3.4404    3.4520 C   0  0  0  0  0  0  0  0  0  0  0  0
   -0.9165   -2.2762    3.0277 C   0  0  0  0  0  0  0  0  0  0  0  0
   -0.0373   -1.5836    3.8846 C   0  0  0  0  0  0  0  0  0  0  0  0
    0.6338   -0.3276    3.4758 C   0  0  0  0  0  0  0  0  0  0  0  0
   -0.1262    0.8003    3.1320 C   0  0  0  0  0  0  0  0  0  0  0  0
    0.5043    1.9936    2.7689 C   0  0  0  0  0  0  0  0  0  0  0  0
    1.9016    2.0654    2.7273 C   0  0  0  0  0  0  0  0  0  0  0  0
    2.7074    3.5800    2.1998 S   0  0  0  0  0  0  0  0  0  0  0  0
    2.8282    4.2612    3.8886 C   0  0  0  0  0  0  0  0  0  0  0  0
    3.8648    5.3767    3.9171 C   0  0  0  0  0  0  0  0  0  0  0  0
    2.6658    0.9439    3.0693 C   0  0  0  0  0  0  0  0  0  0  0  0
    2.0380   -0.2491    3.4341 C   0  0  0  0  0  0  0  0  0  0  0  0
    4.0218    0.9997    3.0264 F   0  0  0  0  0  0  0  0  0  0  0  0
    0.1752   -2.1434    5.1519 C   0  0  0  0  0  0  0  0  0  0  0  0
    1.1498   -1.5568    6.3897 S   0  0  0  0  0  0  0  0  0  0  0  0
   -1.1968   -1.9486    1.6965 C   0  0  0  0  0  0  0  0  0  0  0  0
   -2.0629   -2.8478    1.0796 C   0  0  0  0  0  0  0  0  0  0  0  0
   -2.5101   -4.0379    2.1846 S   0  0  0  0  0  0  0  0  0  0  0  0
   -2.4460   -2.7790   -0.3323 C   0  0  0  0  0  0  0  0  0  0  0  0
   -1.6263   -2.2580   -1.3241 C   0  0  0  0  0  0  0  0  0  0  0  0
   -2.3138   -1.9371   -2.4983 C   0  0  0  0  0  0  0  0  0  0  0  0
   -1.7493   -1.2829   -3.6083 C   0  0  0  0  0  0  0  0  0  0  0  0
   -0.2784   -1.2073   -3.7745 C   0  0  0  0  0  0  0  0  0  0  0  0
    0.4594   -2.4035   -3.7935 C   0  0  0  0  0  0  0  0  0  0  0  0
    1.8483   -2.3805   -3.8498 C   0  0  0  0  0  0  0  0  0  0  0  0
    2.5298   -1.1661   -3.8974 C   0  0  0  0  0  0  0  0  0  0  0  0
    4.3255   -1.1844   -3.8947 S   0  0  0  0  0  0  0  0  0  0  0  0
    4.5121   -1.4327   -5.6919 C   0  0  0  0  0  0  0  0  0  0  0  0
    4.4194   -0.1061   -6.4354 C   0  0  0  0  0  0  0  0  0  0  0  0
    1.8093    0.0386   -3.8888 C   0  0  0  0  0  0  0  0  0  0  0  0
    2.4593    1.2264   -3.9099 F   0  0  0  0  0  0  0  0  0  0  0  0
    0.4098    0.0182   -3.8310 C   0  0  0  0  0  0  0  0  0  0  0  0
   -2.6513   -0.7442   -4.5363 C   0  0  0  0  0  0  0  0  0  0  0  0
   -4.0354   -0.9481   -4.4425 C   0  0  0  0  0  0  0  0  0  0  0  0
   -4.5893   -1.7576   -3.4215 C   0  0  0  0  0  0  0  0  0  0  0  0
   -6.0512   -2.0517   -3.3805 C   0  0  0  0  0  0  0  0  0  0  0  0
   -6.7112   -2.4897   -4.5463 C   0  0  0  0  0  0  0  0  0  0  0  0
   -8.1013   -2.6414   -4.5636 C   0  0  0  0  0  0  0  0  0  0  0  0
   -8.8515   -2.3836   -3.4115 C   0  0  0  0  0  0  0  0  0  0  0  0
  -10.6483   -2.4753   -3.4644 S   0  0  0  0  0  0  0  0  0  0  0  0
  -10.7533   -4.1815   -2.8232 C   0  0  0  0  0  0  0  0  0  0  0  0
  -10.7256   -5.1857   -3.9690 C   0  0  0  0  0  0  0  0  0  0  0  0
   -8.1998   -1.9967   -2.2341 C   0  0  0  0  0  0  0  0  0  0  0  0
   -6.8109   -1.8253   -2.2203 C   0  0  0  0  0  0  0  0  0  0  0  0
   -8.9149   -1.7744   -1.1018 F   0  0  0  0  0  0  0  0  0  0  0  0
   -3.6895   -2.1991   -2.4295 C   0  0  0  0  0  0  0  0  0  0  0  0
   -4.0202   -2.8885   -0.9194 S   0  0  0  0  0  0  0  0  0  0  0  0
   -4.7660   -0.1182   -5.3037 C   0  0  0  0  0  0  0  0  0  0  0  0
   -3.9740    0.7653   -6.0393 C   0  0  0  0  0  0  0  0  0  0  0  0
   -2.3521    0.4573   -5.6750 S   0  0  0  0  0  0  0  0  0  0  0  0
   -4.4636    2.0757   -6.5108 C   0  0  0  0  0  0  0  0  0  0  0  0
   -3.6159    3.5105   -6.2542 S   0  0  0  0  0  0  0  0  0  0  0  0
   -4.9208    4.5725   -6.3679 C   0  0  0  0  0  0  0  0  0  0  0  0
   -6.0333    3.7960   -6.6675 C   0  0  0  0  0  0  0  0  0  0  0  0
   -5.7980    2.4173   -6.7338 C   0  0  0  0  0  0  0  0  0  0  0  0
   -6.7518    1.5073   -6.9591 O   0  0  0  0  0  0  0  0  0  0  0  0
   -8.0580    1.7338   -7.1328 C   0  0  0  0  0  0  0  0  0  0  0  0
   -8.8115    0.7418   -7.3227 O   0  0  0  0  0  0  0  0  0  0  0  0
   -8.6282    3.0186   -7.1114 C   0  0  0  0  0  0  0  0  0  0  0  0
   -9.8646    3.1889   -7.2653 O   0  0  0  0  0  0  0  0  0  0  0  0
   -7.6096    4.3349   -6.8492 S   0  0  0  0  0  0  0  0  0  0  0  0
   -4.9165    6.0358   -6.1432 C   0  0  0  0  0  0  0  0  0  0  0  0
   -4.1336    6.6851   -5.2673 C   0  0  0  0  0  0  0  0  0  0  0  0
   -3.2274    6.0392   -4.3021 C   0  0  0  0  0  0  0  0  0  0  0  0
   -3.5204    4.9668   -3.4570 C   0  0  0  0  0  0  0  0  0  0  0  0
   -2.3901    4.4944   -2.7664 C   0  0  0  0  0  0  0  0  0  0  0  0
   -2.3252    3.3611   -1.9176 C   0  0  0  0  0  0  0  0  0  0  0  0
   -3.5427    2.6532   -1.4887 C   0  0  0  0  0  0  0  0  0  0  0  0
   -4.3121    1.9425   -2.4135 C   0  0  0  0  0  0  0  0  0  0  0  0
   -5.5428    1.4028   -2.0341 C   0  0  0  0  0  0  0  0  0  0  0  0
   -6.0253    1.5945   -0.7344 C   0  0  0  0  0  0  0  0  0  0  0  0
   -7.6470    0.9808   -0.2703 S   0  0  0  0  0  0  0  0  0  0  0  0
   -8.5800    2.3853   -0.9849 C   0  0  0  0  0  0  0  0  0  0  0  0
   -9.0241    2.0684   -2.4118 C   0  0  0  0  0  0  0  0  0  0  0  0
   -5.2349    2.2691    0.2064 C   0  0  0  0  0  0  0  0  0  0  0  0
   -5.6822    2.4495    1.4736 F   0  0  0  0  0  0  0  0  0  0  0  0
   -3.9949    2.7894   -0.1680 C   0  0  0  0  0  0  0  0  0  0  0  0
   -1.0503    2.9796   -1.4602 C   0  0  0  0  0  0  0  0  0  0  0  0
    0.0893    3.7388   -1.7420 C   0  0  0  0  0  0  0  0  0  0  0  0
    0.0109    4.9252   -2.4895 C   0  0  0  0  0  0  0  0  0  0  0  0
    1.2103    5.7518   -2.7342 C   0  0  0  0  0  0  0  0  0  0  0  0
    1.9219    6.2894   -1.6518 C   0  0  0  0  0  0  0  0  0  0  0  0
    3.1182    6.9711   -1.8626 C   0  0  0  0  0  0  0  0  0  0  0  0
    3.6078    7.1419   -3.1595 C   0  0  0  0  0  0  0  0  0  0  0  0
    5.1584    8.0105   -3.4107 S   0  0  0  0  0  0  0  0  0  0  0  0
    4.4326    9.6769   -3.2450 C   0  0  0  0  0  0  0  0  0  0  0  0
    3.7445   10.1116   -4.5324 C   0  0  0  0  0  0  0  0  0  0  0  0
    2.8986    6.6138   -4.2499 C   0  0  0  0  0  0  0  0  0  0  0  0
    1.7077    5.9178   -4.0346 C   0  0  0  0  0  0  0  0  0  0  0  0
    3.3725    6.7451   -5.5112 F   0  0  0  0  0  0  0  0  0  0  0  0
   -1.2411    5.2454   -3.0316 C   0  0  0  0  0  0  0  0  0  0  0  0
   -1.6135    6.4753   -4.1167 S   0  0  0  0  0  0  0  0  0  0  0  0
    1.2732    3.1352   -1.3233 C   0  0  0  0  0  0  0  0  0  0  0  0
    1.0844    1.8901   -0.7440 C   0  0  0  0  0  0  0  0  0  0  0  0
   -0.5723    1.5398   -0.7008 S   0  0  0  0  0  0  0  0  0  0  0  0
    2.2000    0.9713   -0.4666 C   0  0  0  0  0  0  0  0  0  0  0  0
    2.1334   -0.3756   -0.1127 C   0  0  0  0  0  0  0  0  0  0  0  0
    3.3983   -0.9974   -0.1036 C   0  0  0  0  0  0  0  0  0  0  0  0
    3.6761   -2.3411    0.2174 C   0  0  0  0  0  0  0  0  0  0  0  0
    2.6393   -3.2748    0.6993 C   0  0  0  0  0  0  0  0  0  0  0  0
    1.6558   -3.7585   -0.1714 C   0  0  0  0  0  0  0  0  0  0  0  0
    0.7719   -4.7570    0.2496 C   0  0  0  0  0  0  0  0  0  0  0  0
    0.8694   -5.2834    1.5460 C   0  0  0  0  0  0  0  0  0  0  0  0
   -0.2164   -6.6249    2.0505 S   0  0  0  0  0  0  0  0  0  0  0  0
    0.8089   -7.9679    1.3530 C   0  0  0  0  0  0  0  0  0  0  0  0
    1.9525   -8.3302    2.2959 C   0  0  0  0  0  0  0  0  0  0  0  0
    1.8144   -4.7577    2.4383 C   0  0  0  0  0  0  0  0  0  0  0  0
    1.8947   -5.2241    3.7088 F   0  0  0  0  0  0  0  0  0  0  0  0
    2.6997   -3.7657    2.0147 C   0  0  0  0  0  0  0  0  0  0  0  0
    5.0135   -2.7610    0.0841 C   0  0  0  0  0  0  0  0  0  0  0  0
    6.0464   -1.9042   -0.3142 C   0  0  0  0  0  0  0  0  0  0  0  0
    5.7832   -0.5460   -0.5885 C   0  0  0  0  0  0  0  0  0  0  0  0
    6.8389    0.4090   -1.0124 C   0  0  0  0  0  0  0  0  0  0  0  0
    6.6960    1.1465   -2.1993 C   0  0  0  0  0  0  0  0  0  0  0  0
    7.6243    2.1266   -2.5434 C   0  0  0  0  0  0  0  0  0  0  0  0
    8.7215    2.3821   -1.7141 C   0  0  0  0  0  0  0  0  0  0  0  0
    9.8238    3.7438   -2.1097 S   0  0  0  0  0  0  0  0  0  0  0  0
   10.8278    2.7916   -3.3001 C   0  0  0  0  0  0  0  0  0  0  0  0
   11.7126    3.7424   -4.0974 C   0  0  0  0  0  0  0  0  0  0  0  0
    8.8941    1.6260   -0.5432 C   0  0  0  0  0  0  0  0  0  0  0  0
    7.9537    0.6471   -0.1919 C   0  0  0  0  0  0  0  0  0  0  0  0
    9.9477    1.8652    0.2766 F   0  0  0  0  0  0  0  0  0  0  0  0
    4.4418   -0.1355   -0.4655 C   0  0  0  0  0  0  0  0  0  0  0  0
    3.8105    1.3816   -0.7504 S   0  0  0  0  0  0  0  0  0  0  0  0
    7.2847   -2.5544   -0.4377 C   0  0  0  0  0  0  0  0  0  0  0  0
    7.2248   -3.9102   -0.1291 C   0  0  0  0  0  0  0  0  0  0  0  0
    5.6408   -4.3080    0.2898 S   0  0  0  0  0  0  0  0  0  0  0  0
    4.2795   -2.0243   13.9319 H   0  0  0  0  0  0  0  0  0  0  0  0
    1.8766   -0.9968    9.1521 H   0  0  0  0  0  0  0  0  0  0  0  0
    1.5475   -4.0398    9.1404 H   0  0  0  0  0  0  0  0  0  0  0  0
   -0.4018   -4.6126    7.3613 H   0  0  0  0  0  0  0  0  0  0  0  0
   -0.0567   -6.3115    5.4689 H   0  0  0  0  0  0  0  0  0  0  0  0
   -1.0806   -8.4693    6.0500 H   0  0  0  0  0  0  0  0  0  0  0  0
   -4.5729  -10.8525    4.3413 H   0  0  0  0  0  0  0  0  0  0  0  0
   -4.3032   -9.1893    3.7129 H   0  0  0  0  0  0  0  0  0  0  0  0
   -2.6198  -10.8803    2.8799 H   0  0  0  0  0  0  0  0  0  0  0  0
   -2.0621  -11.1453    4.5777 H   0  0  0  0  0  0  0  0  0  0  0  0
   -1.8434   -9.5318    3.7780 H   0  0  0  0  0  0  0  0  0  0  0  0
   -3.9733   -4.6384    4.7973 H   0  0  0  0  0  0  0  0  0  0  0  0
   -1.2067    0.7603    3.1487 H   0  0  0  0  0  0  0  0  0  0  0  0
   -0.0941    2.8545    2.5027 H   0  0  0  0  0  0  0  0  0  0  0  0
    1.8366    4.6648    4.1972 H   0  0  0  0  0  0  0  0  0  0  0  0
    3.1414    3.4678    4.6067 H   0  0  0  0  0  0  0  0  0  0  0  0
    4.8522    4.9787    3.5944 H   0  0  0  0  0  0  0  0  0  0  0  0
    3.5591    6.2048    3.2381 H   0  0  0  0  0  0  0  0  0  0  0  0
    3.9519    5.7840    4.9464 H   0  0  0  0  0  0  0  0  0  0  0  0
    2.6437   -1.1102    3.6819 H   0  0  0  0  0  0  0  0  0  0  0  0
   -0.7835   -1.0888    1.1891 H   0  0  0  0  0  0  0  0  0  0  0  0
   -0.5842   -2.0221   -1.1569 H   0  0  0  0  0  0  0  0  0  0  0  0
   -0.0504   -3.3598   -3.7367 H   0  0  0  0  0  0  0  0  0  0  0  0
    2.3943   -3.3153   -3.8421 H   0  0  0  0  0  0  0  0  0  0  0  0
    3.7459   -2.1380   -6.0761 H   0  0  0  0  0  0  0  0  0  0  0  0
    5.5139   -1.8784   -5.8764 H   0  0  0  0  0  0  0  0  0  0  0  0
    4.6318   -0.2675   -7.5110 H   0  0  0  0  0  0  0  0  0  0  0  0
    3.4023    0.3251   -6.3289 H   0  0  0  0  0  0  0  0  0  0  0  0
    5.1700    0.6069   -6.0331 H   0  0  0  0  0  0  0  0  0  0  0  0
   -0.1355    0.9526   -3.7922 H   0  0  0  0  0  0  0  0  0  0  0  0
   -6.1516   -2.6814   -5.4534 H   0  0  0  0  0  0  0  0  0  0  0  0
   -8.5959   -2.9417   -5.4792 H   0  0  0  0  0  0  0  0  0  0  0  0
   -9.9303   -4.3960   -2.1076 H   0  0  0  0  0  0  0  0  0  0  0  0
  -11.7182   -4.2861   -2.2795 H   0  0  0  0  0  0  0  0  0  0  0  0
  -10.8255   -6.2115   -3.5597 H   0  0  0  0  0  0  0  0  0  0  0  0
   -9.7715   -5.1019   -4.5314 H   0  0  0  0  0  0  0  0  0  0  0  0
  -11.5811   -5.0002   -4.6544 H   0  0  0  0  0  0  0  0  0  0  0  0
   -6.3416   -1.4612   -1.3180 H   0  0  0  0  0  0  0  0  0  0  0  0
   -5.8425   -0.0274   -5.2445 H   0  0  0  0  0  0  0  0  0  0  0  0
   -5.5956    6.6281   -6.7489 H   0  0  0  0  0  0  0  0  0  0  0  0
   -4.1320    7.7666   -5.2912 H   0  0  0  0  0  0  0  0  0  0  0  0
   -4.5025    4.5205   -3.3953 H   0  0  0  0  0  0  0  0  0  0  0  0
   -3.9739    1.8428   -3.4340 H   0  0  0  0  0  0  0  0  0  0  0  0
   -6.1358    0.8732   -2.7644 H   0  0  0  0  0  0  0  0  0  0  0  0
   -9.4836    2.5475   -0.3591 H   0  0  0  0  0  0  0  0  0  0  0  0
   -7.9805    3.3222   -0.9742 H   0  0  0  0  0  0  0  0  0  0  0  0
   -8.1503    1.9817   -3.0899 H   0  0  0  0  0  0  0  0  0  0  0  0
   -9.5925    1.1119   -2.4306 H   0  0  0  0  0  0  0  0  0  0  0  0
   -9.6850    2.8806   -2.7824 H   0  0  0  0  0  0  0  0  0  0  0  0
   -3.4056    3.3376    0.5573 H   0  0  0  0  0  0  0  0  0  0  0  0
    1.5640    6.1482   -0.6389 H   0  0  0  0  0  0  0  0  0  0  0  0
    3.6646    7.3635   -1.0138 H   0  0  0  0  0  0  0  0  0  0  0  0
    3.7118    9.7078   -2.4001 H   0  0  0  0  0  0  0  0  0  0  0  0
    5.2552   10.3862   -3.0149 H   0  0  0  0  0  0  0  0  0  0  0  0
    3.3355   11.1337   -4.4066 H   0  0  0  0  0  0  0  0  0  0  0  0
    4.4748   10.1187   -5.3698 H   0  0  0  0  0  0  0  0  0  0  0  0
    2.9088    9.4239   -4.7775 H   0  0  0  0  0  0  0  0  0  0  0  0
    1.1871    5.4745   -4.8732 H   0  0  0  0  0  0  0  0  0  0  0  0
    2.2523    3.5522   -1.5261 H   0  0  0  0  0  0  0  0  0  0  0  0
    1.2078   -0.8949    0.0887 H   0  0  0  0  0  0  0  0  0  0  0  0
    1.5956   -3.3925   -1.1892 H   0  0  0  0  0  0  0  0  0  0  0  0
    0.0309   -5.1410   -0.4396 H   0  0  0  0  0  0  0  0  0  0  0  0
    0.1580   -8.8574    1.2216 H   0  0  0  0  0  0  0  0  0  0  0  0
    1.2119   -7.6806    0.3583 H   0  0  0  0  0  0  0  0  0  0  0  0
    2.5065   -9.1992    1.8829 H   0  0  0  0  0  0  0  0  0  0  0  0
    1.5544   -8.6050    3.3000 H   0  0  0  0  0  0  0  0  0  0  0  0
    2.6569   -7.4819    2.3999 H   0  0  0  0  0  0  0  0  0  0  0  0
    3.4516   -3.3929    2.6974 H   0  0  0  0  0  0  0  0  0  0  0  0
    5.8460    0.9945   -2.8476 H   0  0  0  0  0  0  0  0  0  0  0  0
    7.4855    2.6923   -3.4545 H   0  0  0  0  0  0  0  0  0  0  0  0
   11.4585    2.0622   -2.7482 H   0  0  0  0  0  0  0  0  0  0  0  0
   10.1705    2.2433   -4.0085 H   0  0  0  0  0  0  0  0  0  0  0  0
   12.3736    4.3237   -3.4154 H   0  0  0  0  0  0  0  0  0  0  0  0
   12.3490    3.1672   -4.8042 H   0  0  0  0  0  0  0  0  0  0  0  0
   11.0755    4.4440   -4.6785 H   0  0  0  0  0  0  0  0  0  0  0  0
    8.0771    0.1002    0.7350 H   0  0  0  0  0  0  0  0  0  0  0  0
    8.1998   -2.0714   -0.7506 H   0  0  0  0  0  0  0  0  0  0  0  0
    8.0582   -4.5981   -0.1615 H   0  0  0  0  0  0  0  0  0  0  0  0
  1  2  1  0
  2  3  1  0
  3  4  2  0
  4  5  1  0
  5  6  1  0
  6  7  1  0
  7  8  2  0
  7  9  1  0
  9 10  2  0
  9 11  1  0
  3 12  1  0
 12 13  2  3
 13 14  1  0
 14 15  2  0
 15 16  1  0
 16 17  2  0
 17 18  1  0
 18 19  2  0
 19 20  1  0
 20 21  2  0
 21 22  1  0
 22 23  1  0
 23 24  1  0
 21 25  1  0
 25 26  1  0
 25 27  2  0
 17 28  1  0
 28 29  2  0
 29 30  1  0
 30 31  1  0
 31 32  2  0
 32 33  1  0
 33 34  2  0
 34 35  1  0
 35 36  1  0
 36 37  1  0
 34 38  1  0
 38 39  2  0
 38 40  1  0
 30 41  2  0
 41 42  1  0
 29 43  1  0
 43 44  2  0
 44 45  1  0
 44 46  1  0
 46 47  2  0
 47 48  1  0
 48 49  2  0
 49 50  1  0
 50 51  2  0
 51 52  1  0
 52 53  2  0
 53 54  1  0
 54 55  1  0
 55 56  1  0
 53 57  1  0
 57 58  1  0
 57 59  2  0
 49 60  1  0
 60 61  2  0
 61 62  1  0
 62 63  1  0
 63 64  2  0
 64 65  1  0
 65 66  2  0
 66 67  1  0
 67 68  1  0
 68 69  1  0
 66 70  1  0
 70 71  2  0
 70 72  1  0
 62 73  2  0
 73 74  1  0
 61 75  1  0
 75 76  2  0
 76 77  1  0
 76 78  1  0
 78 79  1  0
 79 80  1  0
 80 81  2  0
 81 82  1  0
 82 83  1  0
 83 84  1  0
 84 85  2  0
 84 86  1  0
 86 87  2  0
 86 88  1  0
 80 89  1  0
 89 90  2  3
 90 91  1  0
 91 92  2  0
 92 93  1  0
 93 94  2  0
 94 95  1  0
 95 96  2  0
 96 97  1  0
 97 98  2  0
 98 99  1  0
 99100  1  0
100101  1  0
 98102  1  0
102103  1  0
102104  2  0
 94105  1  0
105106  2  0
106107  1  0
107108  1  0
108109  2  0
109110  1  0
110111  2  0
111112  1  0
112113  1  0
113114  1  0
111115  1  0
115116  2  0
115117  1  0
107118  2  0
118119  1  0
106120  1  0
120121  2  0
121122  1  0
121123  1  0
123124  2  0
124125  1  0
125126  2  0
126127  1  0
127128  2  0
128129  1  0
129130  2  0
130131  1  0
131132  1  0
132133  1  0
130134  1  0
134135  1  0
134136  2  0
126137  1  0
137138  2  0
138139  1  0
139140  1  0
140141  2  0
141142  1  0
142143  2  0
143144  1  0
144145  1  0
145146  1  0
143147  1  0
147148  2  0
147149  1  0
139150  2  0
150151  1  0
138152  1  0
152153  2  0
153154  1  0
  5  1  2  0
 42 14  1  0
 74 46  1  0
 82 78  2  0
119 91  1  0
151123  1  0
 11  4  1  0
 41 16  1  0
 73 48  1  0
 88 81  1  0
118 93  1  0
150125  1  0
 27 18  1  0
 45 28  1  0
 59 50  1  0
 77 60  1  0
104 95  1  0
122105  1  0
136127  1  0
154137  1  0
 39 31  1  0
 71 63  1  0
116108  1  0
148140  1  0
  1155  1  0
 12156  1  0
 13157  1  0
 15158  1  0
 19159  1  0
 20160  1  0
 23161  1  0
 23162  1  0
 24163  1  0
 24164  1  0
 24165  1  0
 27166  1  0
 32167  1  0
 33168  1  0
 36169  1  0
 36170  1  0
 37171  1  0
 37172  1  0
 37173  1  0
 39174  1  0
 43175  1  0
 47176  1  0
 51177  1  0
 52178  1  0
 55179  1  0
 55180  1  0
 56181  1  0
 56182  1  0
 56183  1  0
 59184  1  0
 64185  1  0
 65186  1  0
 68187  1  0
 68188  1  0
 69189  1  0
 69190  1  0
 69191  1  0
 71192  1  0
 75193  1  0
 89194  1  0
 90195  1  0
 92196  1  0
 96197  1  0
 97198  1  0
100199  1  0
100200  1  0
101201  1  0
101202  1  0
101203  1  0
104204  1  0
109205  1  0
110206  1  0
113207  1  0
113208  1  0
114209  1  0
114210  1  0
114211  1  0
116212  1  0
120213  1  0
124214  1  0
128215  1  0
129216  1  0
132217  1  0
132218  1  0
133219  1  0
133220  1  0
133221  1  0
136222  1  0
141223  1  0
142224  1  0
145225  1  0
145226  1  0
146227  1  0
146228  1  0
146229  1  0
148230  1  0
152231  1  0
153232  1  0
M  END

