
     RDKit          3D

232255  0  0  0  0  0  0  0  0999 V2000
    3.1792   -6.4230   11.0241 C   0  0  0  0  0  0  0  0  0  0  0  0
    2.9959   -6.7192    9.3755 S   0  0  0  0  0  0  0  0  0  0  0  0
    1.3121   -6.8667    9.3688 C   0  0  0  0  0  0  0  0  0  0  0  0
    0.8904   -6.6770   10.6802 C   0  0  0  0  0  0  0  0  0  0  0  0
    1.9168   -6.4302   11.5999 C   0  0  0  0  0  0  0  0  0  0  0  0
    1.7240   -6.2136   12.9039 O   0  0  0  0  0  0  0  0  0  0  0  0
    0.5481   -6.1966   13.5511 C   0  0  0  0  0  0  0  0  0  0  0  0
    0.5570   -5.9749   14.7905 O   0  0  0  0  0  0  0  0  0  0  0  0
   -0.6861   -6.4095   12.9130 C   0  0  0  0  0  0  0  0  0  0  0  0
   -1.7706   -6.3836   13.5545 O   0  0  0  0  0  0  0  0  0  0  0  0
   -0.6867   -6.7055   11.2531 S   0  0  0  0  0  0  0  0  0  0  0  0
    0.4485   -7.1380    8.2021 C   0  0  0  0  0  0  0  0  0  0  0  0
    0.9456   -7.2453    6.9664 C   0  0  0  0  0  0  0  0  0  0  0  0
    0.1285   -7.4660    5.7614 C   0  0  0  0  0  0  0  0  0  0  0  0
    0.6873   -7.1150    4.2143 S   0  0  0  0  0  0  0  0  0  0  0  0
   -0.6877   -7.5996    3.3644 C   0  0  0  0  0  0  0  0  0  0  0  0
   -1.6029   -8.0597    4.3094 C   0  0  0  0  0  0  0  0  0  0  0  0
   -1.1641   -7.9927    5.6425 C   0  0  0  0  0  0  0  0  0  0  0  0
   -1.8927   -8.3983    6.6891 O   0  0  0  0  0  0  0  0  0  0  0  0
   -3.1310   -8.9152    6.6610 C   0  0  0  0  0  0  0  0  0  0  0  0
   -3.6655   -9.2326    7.7558 O   0  0  0  0  0  0  0  0  0  0  0  0
   -3.8532   -9.1215    5.4725 C   0  0  0  0  0  0  0  0  0  0  0  0
   -5.0139   -9.6086    5.4850 O   0  0  0  0  0  0  0  0  0  0  0  0
   -3.1265   -8.6979    4.0125 S   0  0  0  0  0  0  0  0  0  0  0  0
   -0.9075   -7.4317    1.9116 C   0  0  0  0  0  0  0  0  0  0  0  0
    0.1085   -7.1233    1.1008 C   0  0  0  0  0  0  0  0  0  0  0  0
   -0.0543   -6.7012   -0.2981 C   0  0  0  0  0  0  0  0  0  0  0  0
    0.9884   -6.1578   -1.0390 C   0  0  0  0  0  0  0  0  0  0  0  0
    0.5718   -5.6109   -2.2592 C   0  0  0  0  0  0  0  0  0  0  0  0
    1.3769   -4.8546   -3.1306 C   0  0  0  0  0  0  0  0  0  0  0  0
    2.7828   -4.5422   -2.8018 C   0  0  0  0  0  0  0  0  0  0  0  0
    3.7602   -5.5485   -2.8222 C   0  0  0  0  0  0  0  0  0  0  0  0
    5.0763   -5.2566   -2.4472 C   0  0  0  0  0  0  0  0  0  0  0  0
    5.4218   -3.9590   -2.0477 C   0  0  0  0  0  0  0  0  0  0  0  0
    7.1098   -3.5921   -1.5630 S   0  0  0  0  0  0  0  0  0  0  0  0
    7.5929   -3.0538   -3.2381 C   0  0  0  0  0  0  0  0  0  0  0  0
    9.0103   -2.5032   -3.2179 C   0  0  0  0  0  0  0  0  0  0  0  0
    4.4455   -2.9541   -2.0174 C   0  0  0  0  0  0  0  0  0  0  0  0
    4.7646   -1.6949   -1.6228 F   0  0  0  0  0  0  0  0  0  0  0  0
    3.1324   -3.2436   -2.3980 C   0  0  0  0  0  0  0  0  0  0  0  0
    0.7355   -4.2498   -4.2219 C   0  0  0  0  0  0  0  0  0  0  0  0
   -0.6409   -4.3622   -4.4508 C   0  0  0  0  0  0  0  0  0  0  0  0
   -1.4458   -5.1418   -3.5859 C   0  0  0  0  0  0  0  0  0  0  0  0
   -2.9085   -5.2724   -3.7688 C   0  0  0  0  0  0  0  0  0  0  0  0
   -3.7416   -4.1397   -3.7341 C   0  0  0  0  0  0  0  0  0  0  0  0
   -5.1186   -4.2746   -3.9294 C   0  0  0  0  0  0  0  0  0  0  0  0
   -5.6785   -5.5409   -4.1443 C   0  0  0  0  0  0  0  0  0  0  0  0
   -7.4466   -5.6987   -4.4144 S   0  0  0  0  0  0  0  0  0  0  0  0
   -7.3376   -5.7486   -6.2381 C   0  0  0  0  0  0  0  0  0  0  0  0
   -7.1419   -4.3534   -6.8164 C   0  0  0  0  0  0  0  0  0  0  0  0
   -4.8571   -6.6768   -4.1421 C   0  0  0  0  0  0  0  0  0  0  0  0
   -3.4772   -6.5420   -3.9611 C   0  0  0  0  0  0  0  0  0  0  0  0
   -5.3874   -7.9116   -4.3317 F   0  0  0  0  0  0  0  0  0  0  0  0
   -0.7995   -5.7505   -2.4914 C   0  0  0  0  0  0  0  0  0  0  0  0
   -1.4967   -6.5293   -1.1644 S   0  0  0  0  0  0  0  0  0  0  0  0
   -1.0843   -3.5516   -5.5150 C   0  0  0  0  0  0  0  0  0  0  0  0
   -0.0635   -2.7819   -6.0866 C   0  0  0  0  0  0  0  0  0  0  0  0
    1.3874   -3.1533   -5.3098 S   0  0  0  0  0  0  0  0  0  0  0  0
   -0.2568   -1.5306   -6.8460 C   0  0  0  0  0  0  0  0  0  0  0  0
   -1.4710   -0.8425   -6.9299 C   0  0  0  0  0  0  0  0  0  0  0  0
   -1.3093    0.5434   -7.1152 C   0  0  0  0  0  0  0  0  0  0  0  0
   -2.3174    1.5090   -6.9229 C   0  0  0  0  0  0  0  0  0  0  0  0
   -3.7125    1.1128   -6.6551 C   0  0  0  0  0  0  0  0  0  0  0  0
   -4.1364    0.8734   -5.3395 C   0  0  0  0  0  0  0  0  0  0  0  0
   -5.4518    0.4723   -5.0901 C   0  0  0  0  0  0  0  0  0  0  0  0
   -6.3551    0.3142   -6.1499 C   0  0  0  0  0  0  0  0  0  0  0  0
   -8.0344   -0.2310   -5.8171 S   0  0  0  0  0  0  0  0  0  0  0  0
   -8.7494    1.4490   -5.7614 C   0  0  0  0  0  0  0  0  0  0  0  0
   -8.5759    2.0706   -4.3835 C   0  0  0  0  0  0  0  0  0  0  0  0
   -5.9308    0.5444   -7.4673 C   0  0  0  0  0  0  0  0  0  0  0  0
   -6.7926    0.3845   -8.5049 F   0  0  0  0  0  0  0  0  0  0  0  0
   -4.6135    0.9454   -7.7182 C   0  0  0  0  0  0  0  0  0  0  0  0
   -1.8975    2.8372   -6.7313 C   0  0  0  0  0  0  0  0  0  0  0  0
   -0.5520    3.2146   -6.7886 C   0  0  0  0  0  0  0  0  0  0  0  0
    0.4422    2.2696   -7.1139 C   0  0  0  0  0  0  0  0  0  0  0  0
    1.8768    2.6029   -7.0229 C   0  0  0  0  0  0  0  0  0  0  0  0
    2.5483    2.4869   -5.7958 C   0  0  0  0  0  0  0  0  0  0  0  0
    3.9128    2.7745   -5.7138 C   0  0  0  0  0  0  0  0  0  0  0  0
    4.6174    3.1853   -6.8530 C   0  0  0  0  0  0  0  0  0  0  0  0
    6.3890    3.4747   -6.7507 S   0  0  0  0  0  0  0  0  0  0  0  0
    6.2708    5.2799   -6.5019 C   0  0  0  0  0  0  0  0  0  0  0  0
    5.8658    5.6177   -5.0746 C   0  0  0  0  0  0  0  0  0  0  0  0
    3.9461    3.3119   -8.0786 C   0  0  0  0  0  0  0  0  0  0  0  0
    2.5788    3.0262   -8.1612 C   0  0  0  0  0  0  0  0  0  0  0  0
    4.6175    3.6998   -9.1921 F   0  0  0  0  0  0  0  0  0  0  0  0
    0.0285    0.9329   -7.2410 C   0  0  0  0  0  0  0  0  0  0  0  0
    0.9987   -0.4301   -7.1076 S   0  0  0  0  0  0  0  0  0  0  0  0
   -0.3022    4.4739   -6.2162 C   0  0  0  0  0  0  0  0  0  0  0  0
   -1.4234    5.0440   -5.6014 C   0  0  0  0  0  0  0  0  0  0  0  0
   -2.7521    4.0461   -5.9397 S   0  0  0  0  0  0  0  0  0  0  0  0
   -1.3178    5.7870   -4.3234 C   0  0  0  0  0  0  0  0  0  0  0  0
   -2.2753    5.6468   -3.3149 C   0  0  0  0  0  0  0  0  0  0  0  0
   -1.7336    5.6301   -2.0149 C   0  0  0  0  0  0  0  0  0  0  0  0
   -2.4057    5.2002   -0.8503 C   0  0  0  0  0  0  0  0  0  0  0  0
   -3.8219    4.7759   -0.8745 C   0  0  0  0  0  0  0  0  0  0  0  0
   -4.2232    3.6915   -1.6712 C   0  0  0  0  0  0  0  0  0  0  0  0
   -5.5639    3.3090   -1.7158 C   0  0  0  0  0  0  0  0  0  0  0  0
   -6.5134    3.9851   -0.9395 C   0  0  0  0  0  0  0  0  0  0  0  0
   -8.2416    3.5055   -1.0356 S   0  0  0  0  0  0  0  0  0  0  0  0
   -8.0571    2.1237    0.1426 C   0  0  0  0  0  0  0  0  0  0  0  0
   -9.3554    1.3345    0.2163 C   0  0  0  0  0  0  0  0  0  0  0  0
   -6.1140    5.0458   -0.1154 C   0  0  0  0  0  0  0  0  0  0  0  0
   -7.0268    5.7097    0.6385 F   0  0  0  0  0  0  0  0  0  0  0  0
   -4.7735    5.4433   -0.0853 C   0  0  0  0  0  0  0  0  0  0  0  0
   -1.6200    4.9967    0.2950 C   0  0  0  0  0  0  0  0  0  0  0  0
   -0.2375    5.2194    0.3156 C   0  0  0  0  0  0  0  0  0  0  0  0
    0.4246    5.7188   -0.8277 C   0  0  0  0  0  0  0  0  0  0  0  0
    1.8935    5.9363   -0.8362 C   0  0  0  0  0  0  0  0  0  0  0  0
    2.7198    5.2461   -1.7380 C   0  0  0  0  0  0  0  0  0  0  0  0
    4.0983    5.4767   -1.7459 C   0  0  0  0  0  0  0  0  0  0  0  0
    4.6682    6.3830   -0.8460 C   0  0  0  0  0  0  0  0  0  0  0  0
    6.4394    6.6767   -0.8839 S   0  0  0  0  0  0  0  0  0  0  0  0
    6.2952    8.1778   -1.9120 C   0  0  0  0  0  0  0  0  0  0  0  0
    7.6757    8.6605   -2.3343 C   0  0  0  0  0  0  0  0  0  0  0  0
    3.8559    7.0446    0.0841 C   0  0  0  0  0  0  0  0  0  0  0  0
    2.4734    6.8278    0.0812 C   0  0  0  0  0  0  0  0  0  0  0  0
    4.3989    7.9039    0.9829 F   0  0  0  0  0  0  0  0  0  0  0  0
   -0.3596    5.8891   -1.9876 C   0  0  0  0  0  0  0  0  0  0  0  0
    0.1696    6.0854   -3.5720 S   0  0  0  0  0  0  0  0  0  0  0  0
    0.3861    4.7022    1.4660 C   0  0  0  0  0  0  0  0  0  0  0  0
   -0.4996    4.0440    2.3226 C   0  0  0  0  0  0  0  0  0  0  0  0
   -2.0568    4.1504    1.6786 S   0  0  0  0  0  0  0  0  0  0  0  0
   -0.1110    3.0763    3.3630 C   0  0  0  0  0  0  0  0  0  0  0  0
    1.1919    2.8052    3.7799 C   0  0  0  0  0  0  0  0  0  0  0  0
    1.2961    1.6188    4.5271 C   0  0  0  0  0  0  0  0  0  0  0  0
    2.4908    1.0553    5.0155 C   0  0  0  0  0  0  0  0  0  0  0  0
    3.7866    1.7484    4.8822 C   0  0  0  0  0  0  0  0  0  0  0  0
    4.0092    2.9525    5.5678 C   0  0  0  0  0  0  0  0  0  0  0  0
    5.2356    3.6122    5.4482 C   0  0  0  0  0  0  0  0  0  0  0  0
    6.2472    3.0754    4.6427 C   0  0  0  0  0  0  0  0  0  0  0  0
    7.8308    3.9083    4.5327 S   0  0  0  0  0  0  0  0  0  0  0  0
    8.5492    2.9541    5.9145 C   0  0  0  0  0  0  0  0  0  0  0  0
   10.0083    3.3309    6.1101 C   0  0  0  0  0  0  0  0  0  0  0  0
    6.0212    1.8854    3.9353 C   0  0  0  0  0  0  0  0  0  0  0  0
    6.9900    1.3596    3.1428 F   0  0  0  0  0  0  0  0  0  0  0  0
    4.7962    1.2201    4.0621 C   0  0  0  0  0  0  0  0  0  0  0  0
    2.3958   -0.2050    5.6310 C   0  0  0  0  0  0  0  0  0  0  0  0
    1.1839   -0.8934    5.7617 C   0  0  0  0  0  0  0  0  0  0  0  0
   -0.0223   -0.3216    5.2911 C   0  0  0  0  0  0  0  0  0  0  0  0
   -1.3154   -1.0489    5.3498 C   0  0  0  0  0  0  0  0  0  0  0  0
   -1.7892   -1.5771    6.5637 C   0  0  0  0  0  0  0  0  0  0  0  0
   -2.9718   -2.3246    6.5943 C   0  0  0  0  0  0  0  0  0  0  0  0
   -3.7177   -2.5123    5.4231 C   0  0  0  0  0  0  0  0  0  0  0  0
   -5.2197   -3.4975    5.4686 S   0  0  0  0  0  0  0  0  0  0  0  0
   -4.4146   -5.0645    4.9744 C   0  0  0  0  0  0  0  0  0  0  0  0
   -4.1636   -5.1038    3.4705 C   0  0  0  0  0  0  0  0  0  0  0  0
   -3.2910   -1.9214    4.2264 C   0  0  0  0  0  0  0  0  0  0  0  0
   -2.0774   -1.2310    4.1821 C   0  0  0  0  0  0  0  0  0  0  0  0
   -4.0348   -2.0331    3.0959 F   0  0  0  0  0  0  0  0  0  0  0  0
    0.0789    0.9493    4.6841 C   0  0  0  0  0  0  0  0  0  0  0  0
   -1.1259    1.8548    3.9372 S   0  0  0  0  0  0  0  0  0  0  0  0
    1.3444   -2.1646    6.3478 C   0  0  0  0  0  0  0  0  0  0  0  0
    2.6609   -2.4464    6.7025 C   0  0  0  0  0  0  0  0  0  0  0  0
    3.6371   -1.1438    6.2718 S   0  0  0  0  0  0  0  0  0  0  0  0
    4.1147   -6.2534   11.5411 H   0  0  0  0  0  0  0  0  0  0  0  0
   -0.6156   -7.2085    8.3724 H   0  0  0  0  0  0  0  0  0  0  0  0
    2.0054   -7.1049    6.8081 H   0  0  0  0  0  0  0  0  0  0  0  0
   -1.9167   -7.4936    1.5248 H   0  0  0  0  0  0  0  0  0  0  0  0
    1.1145   -7.0854    1.4990 H   0  0  0  0  0  0  0  0  0  0  0  0
    2.0024   -6.0905   -0.6641 H   0  0  0  0  0  0  0  0  0  0  0  0
    3.5009   -6.5579   -3.1195 H   0  0  0  0  0  0  0  0  0  0  0  0
    5.8230   -6.0393   -2.4640 H   0  0  0  0  0  0  0  0  0  0  0  0
    6.9010   -2.2597   -3.5963 H   0  0  0  0  0  0  0  0  0  0  0  0
    7.5425   -3.9193   -3.9352 H   0  0  0  0  0  0  0  0  0  0  0  0
    9.2973   -2.1821   -4.2399 H   0  0  0  0  0  0  0  0  0  0  0  0
    9.7209   -3.2839   -2.8755 H   0  0  0  0  0  0  0  0  0  0  0  0
    9.0699   -1.6283   -2.5356 H   0  0  0  0  0  0  0  0  0  0  0  0
    2.3829   -2.4625   -2.3624 H   0  0  0  0  0  0  0  0  0  0  0  0
   -3.3247   -3.1545   -3.5596 H   0  0  0  0  0  0  0  0  0  0  0  0
   -5.7514   -3.3960   -3.9146 H   0  0  0  0  0  0  0  0  0  0  0  0
   -6.5153   -6.4193   -6.5665 H   0  0  0  0  0  0  0  0  0  0  0  0
   -8.2904   -6.1680   -6.6252 H   0  0  0  0  0  0  0  0  0  0  0  0
   -7.1889   -4.4051   -7.9230 H   0  0  0  0  0  0  0  0  0  0  0  0
   -6.1495   -3.9474   -6.5285 H   0  0  0  0  0  0  0  0  0  0  0  0
   -7.9393   -3.6717   -6.4549 H   0  0  0  0  0  0  0  0  0  0  0  0
   -2.8464   -7.4236   -3.9773 H   0  0  0  0  0  0  0  0  0  0  0  0
   -2.1230   -3.4540   -5.7962 H   0  0  0  0  0  0  0  0  0  0  0  0
   -2.4209   -1.2964   -6.6819 H   0  0  0  0  0  0  0  0  0  0  0  0
   -3.4477    0.9901   -4.5101 H   0  0  0  0  0  0  0  0  0  0  0  0
   -5.7674    0.2812   -4.0721 H   0  0  0  0  0  0  0  0  0  0  0  0
   -8.2901    2.1027   -6.5341 H   0  0  0  0  0  0  0  0  0  0  0  0
   -9.8343    1.3704   -5.9836 H   0  0  0  0  0  0  0  0  0  0  0  0
   -9.0924    3.0519   -4.3537 H   0  0  0  0  0  0  0  0  0  0  0  0
   -9.0171    1.4118   -3.6056 H   0  0  0  0  0  0  0  0  0  0  0  0
   -7.5004    2.2316   -4.1636 H   0  0  0  0  0  0  0  0  0  0  0  0
   -4.2936    1.1211   -8.7389 H   0  0  0  0  0  0  0  0  0  0  0  0
    2.0150    2.1669   -4.9076 H   0  0  0  0  0  0  0  0  0  0  0  0
    4.4242    2.6655   -4.7660 H   0  0  0  0  0  0  0  0  0  0  0  0
    5.5529    5.7290   -7.2196 H   0  0  0  0  0  0  0  0  0  0  0  0
    7.2742    5.7139   -6.6975 H   0  0  0  0  0  0  0  0  0  0  0  0
    5.9649    6.7101   -4.9124 H   0  0  0  0  0  0  0  0  0  0  0  0
    4.8077    5.3345   -4.8973 H   0  0  0  0  0  0  0  0  0  0  0  0
    6.5173    5.0895   -4.3483 H   0  0  0  0  0  0  0  0  0  0  0  0
    2.0685    3.1234   -9.1126 H   0  0  0  0  0  0  0  0  0  0  0  0
    0.7014    4.8455   -6.0529 H   0  0  0  0  0  0  0  0  0  0  0  0
   -3.2997    5.3761   -3.5245 H   0  0  0  0  0  0  0  0  0  0  0  0
   -3.4963    3.1491   -2.2633 H   0  0  0  0  0  0  0  0  0  0  0  0
   -5.8626    2.4810   -2.3440 H   0  0  0  0  0  0  0  0  0  0  0  0
   -7.2392    1.4478   -0.1871 H   0  0  0  0  0  0  0  0  0  0  0  0
   -7.8067    2.5222    1.1514 H   0  0  0  0  0  0  0  0  0  0  0  0
   -9.5965    0.9039   -0.7817 H   0  0  0  0  0  0  0  0  0  0  0  0
  -10.1881    1.9962    0.5342 H   0  0  0  0  0  0  0  0  0  0  0  0
   -9.2517    0.5031    0.9481 H   0  0  0  0  0  0  0  0  0  0  0  0
   -4.4740    6.2720    0.5450 H   0  0  0  0  0  0  0  0  0  0  0  0
    2.3018    4.5259   -2.4290 H   0  0  0  0  0  0  0  0  0  0  0  0
    4.7239    4.9368   -2.4449 H   0  0  0  0  0  0  0  0  0  0  0  0
    5.7923    8.9760   -1.3265 H   0  0  0  0  0  0  0  0  0  0  0  0
    5.6916    7.9639   -2.8194 H   0  0  0  0  0  0  0  0  0  0  0  0
    8.2968    8.8780   -1.4395 H   0  0  0  0  0  0  0  0  0  0  0  0
    7.5802    9.5904   -2.9349 H   0  0  0  0  0  0  0  0  0  0  0  0
    8.1804    7.8878   -2.9514 H   0  0  0  0  0  0  0  0  0  0  0  0
    1.8550    7.3533    0.7972 H   0  0  0  0  0  0  0  0  0  0  0  0
    1.4600    4.6821    1.5976 H   0  0  0  0  0  0  0  0  0  0  0  0
    2.0447    3.4025    3.4888 H   0  0  0  0  0  0  0  0  0  0  0  0
    3.2391    3.3731    6.2042 H   0  0  0  0  0  0  0  0  0  0  0  0
    5.4018    4.5332    5.9937 H   0  0  0  0  0  0  0  0  0  0  0  0
    7.9841    3.1689    6.8492 H   0  0  0  0  0  0  0  0  0  0  0  0
    8.4817    1.8645    5.6937 H   0  0  0  0  0  0  0  0  0  0  0  0
   10.4421    2.7186    6.9284 H   0  0  0  0  0  0  0  0  0  0  0  0
   10.0915    4.4049    6.3818 H   0  0  0  0  0  0  0  0  0  0  0  0
   10.5788    3.1406    5.1756 H   0  0  0  0  0  0  0  0  0  0  0  0
    4.6319    0.2970    3.5203 H   0  0  0  0  0  0  0  0  0  0  0  0
   -1.2364   -1.4230    7.4836 H   0  0  0  0  0  0  0  0  0  0  0  0
   -3.3063   -2.7562    7.5290 H   0  0  0  0  0  0  0  0  0  0  0  0
   -5.0983   -5.8980    5.2431 H   0  0  0  0  0  0  0  0  0  0  0  0
   -3.4604   -5.2106    5.5258 H   0  0  0  0  0  0  0  0  0  0  0  0
   -3.2719   -4.4975    3.2106 H   0  0  0  0  0  0  0  0  0  0  0  0
   -3.9709   -6.1423    3.1435 H   0  0  0  0  0  0  0  0  0  0  0  0
   -5.0489   -4.7259    2.9172 H   0  0  0  0  0  0  0  0  0  0  0  0
   -1.7309   -0.8433    3.2320 H   0  0  0  0  0  0  0  0  0  0  0  0
    0.5440   -2.8741    6.5092 H   0  0  0  0  0  0  0  0  0  0  0  0
    3.0008   -3.3630    7.1657 H   0  0  0  0  0  0  0  0  0  0  0  0
  1  2  1  0
  2  3  1  0
  3  4  2  0
  4  5  1  0
  5  6  1  0
  6  7  1  0
  7  8  2  0
  7  9  1  0
  9 10  2  0
  9 11  1  0
  3 12  1  0
 12 13  2  3
 13 14  1  0
 14 15  1  0
 15 16  1  0
 16 17  2  0
 17 18  1  0
 18 19  1  0
 19 20  1  0
 20 21  2  0
 20 22  1  0
 22 23  2  0
 22 24  1  0
 16 25  1  0
 25 26  2  3
 26 27  1  0
 27 28  2  0
 28 29  1  0
 29 30  2  0
 30 31  1  0
 31 32  2  0
 32 33  1  0
 33 34  2  0
 34 35  1  0
 35 36  1  0
 36 37  1  0
 34 38  1  0
 38 39  1  0
 38 40  2  0
 30 41  1  0
 41 42  2  0
 42 43  1  0
 43 44  1  0
 44 45  2  0
 45 46  1  0
 46 47  2  0
 47 48  1  0
 48 49  1  0
 49 50  1  0
 47 51  1  0
 51 52  2  0
 51 53  1  0
 43 54  2  0
 54 55  1  0
 42 56  1  0
 56 57  2  0
 57 58  1  0
 57 59  1  0
 59 60  2  0
 60 61  1  0
 61 62  2  0
 62 63  1  0
 63 64  2  0
 64 65  1  0
 65 66  2  0
 66 67  1  0
 67 68  1  0
 68 69  1  0
 66 70  1  0
 70 71  1  0
 70 72  2  0
 62 73  1  0
 73 74  2  0
 74 75  1  0
 75 76  1  0
 76 77  2  0
 77 78  1  0
 78 79  2  0
 79 80  1  0
 80 81  1  0
 81 82  1  0
 79 83  1  0
 83 84  2  0
 83 85  1  0
 75 86  2  0
 86 87  1  0
 74 88  1  0
 88 89  2  0
 89 90  1  0
 89 91  1  0
 91 92  2  0
 92 93  1  0
 93 94  2  0
 94 95  1  0
 95 96  2  0
 96 97  1  0
 97 98  2  0
 98 99  1  0
 99100  1  0
100101  1  0
 98102  1  0
102103  1  0
102104  2  0
 94105  1  0
105106  2  0
106107  1  0
107108  1  0
108109  2  0
109110  1  0
110111  2  0
111112  1  0
112113  1  0
113114  1  0
111115  1  0
115116  2  0
115117  1  0
107118  2  0
118119  1  0
106120  1  0
120121  2  0
121122  1  0
121123  1  0
123124  2  0
124125  1  0
125126  2  0
126127  1  0
127128  2  0
128129  1  0
129130  2  0
130131  1  0
131132  1  0
132133  1  0
130134  1  0
134135  1  0
134136  2  0
126137  1  0
137138  2  0
138139  1  0
139140  1  0
140141  2  0
141142  1  0
142143  2  0
143144  1  0
144145  1  0
145146  1  0
143147  1  0
147148  2  0
147149  1  0
139150  2  0
150151  1  0
138152  1  0
152153  2  0
153154  1  0
  5  1  2  0
 18 14  2  0
 55 27  1  0
 87 59  1  0
119 91  1  0
151123  1  0
 11  4  1  0
 24 17  1  0
 54 29  1  0
 86 61  1  0
118 93  1  0
150125  1  0
 40 31  1  0
 58 41  1  0
 72 63  1  0
 90 73  1  0
104 95  1  0
122105  1  0
136127  1  0
154137  1  0
 52 44  1  0
 84 76  1  0
116108  1  0
148140  1  0
  1155  1  0
 12156  1  0
 13157  1  0
 25158  1  0
 26159  1  0
 28160  1  0
 32161  1  0
 33162  1  0
 36163  1  0
 36164  1  0
 37165  1  0
 37166  1  0
 37167  1  0
 40168  1  0
 45169  1  0
 46170  1  0
 49171  1  0
 49172  1  0
 50173  1  0
 50174  1  0
 50175  1  0
 52176  1  0
 56177  1  0
 60178  1  0
 64179  1  0
 65180  1  0
 68181  1  0
 68182  1  0
 69183  1  0
 69184  1  0
 69185  1  0
 72186  1  0
 77187  1  0
 78188  1  0
 81189  1  0
 81190  1  0
 82191  1  0
 82192  1  0
 82193  1  0
 84194  1  0
 88195  1  0
 92196  1  0
 96197  1  0
 97198  1  0
100199  1  0
100200  1  0
101201  1  0
101202  1  0
101203  1  0
104204  1  0
109205  1  0
110206  1  0
113207  1  0
113208  1  0
114209  1  0
114210  1  0
114211  1  0
116212  1  0
120213  1  0
124214  1  0
128215  1  0
129216  1  0
132217  1  0
132218  1  0
133219  1  0
133220  1  0
133221  1  0
136222  1  0
141223  1  0
142224  1  0
145225  1  0
145226  1  0
146227  1  0
146228  1  0
146229  1  0
148230  1  0
152231  1  0
153232  1  0
M  END

