
     RDKit          3D

220243  0  0  0  0  0  0  0  0999 V2000
   -1.6034    2.2419    9.4713 C   0  0  0  0  0  0  0  0  0  0  0  0
   -2.4793    1.6500    8.6213 C   0  0  0  0  0  0  0  0  0  0  0  0
   -3.1327    2.5795    7.6913 C   0  0  0  0  0  0  0  0  0  0  0  0
   -4.1945    2.2764    6.9010 C   0  0  0  0  0  0  0  0  0  0  0  0
   -4.7064    0.9322    6.7807 C   0  0  0  0  0  0  0  0  0  0  0  0
   -5.0001   -0.1524    8.0373 S   0  0  0  0  0  0  0  0  0  0  0  0
   -5.3511   -1.5039    7.1181 C   0  0  0  0  0  0  0  0  0  0  0  0
   -5.6756   -2.8789    7.6562 C   0  0  0  0  0  0  0  0  0  0  0  0
   -7.1697   -3.0311    7.9600 C   0  0  0  0  0  0  0  0  0  0  0  0
   -5.2501   -1.1084    5.7900 C   0  0  0  0  0  0  0  0  0  0  0  0
   -5.7645   -2.1104    4.4459 Cl  0  0  0  0  0  0  0  0  0  0  0  0
   -4.8529    0.2398    5.6096 C   0  0  0  0  0  0  0  0  0  0  0  0
   -4.4072    0.9069    4.0649 Cl  0  0  0  0  0  0  0  0  0  0  0  0
   -4.7477    3.3372    6.0573 C   0  0  0  0  0  0  0  0  0  0  0  0
   -4.1056    4.5550    6.0439 C   0  0  0  0  0  0  0  0  0  0  0  0
   -3.1621    4.9021    6.9806 C   0  0  0  0  0  0  0  0  0  0  0  0
   -2.7383    6.2728    7.2392 C   0  0  0  0  0  0  0  0  0  0  0  0
   -3.7942    7.5919    7.3258 S   0  0  0  0  0  0  0  0  0  0  0  0
   -2.6478    8.7717    7.5575 C   0  0  0  0  0  0  0  0  0  0  0  0
   -2.9162   10.2536    7.7104 C   0  0  0  0  0  0  0  0  0  0  0  0
   -2.6546   10.6701    9.1440 C   0  0  0  0  0  0  0  0  0  0  0  0
   -1.4024    8.1688    7.5188 C   0  0  0  0  0  0  0  0  0  0  0  0
   -1.4470    6.7690    7.3363 C   0  0  0  0  0  0  0  0  0  0  0  0
   -0.0071    5.7790    7.1881 Cl  0  0  0  0  0  0  0  0  0  0  0  0
    0.0759    9.0639    7.6467 Cl  0  0  0  0  0  0  0  0  0  0  0  0
   -2.6632    3.8521    7.8511 C   0  0  0  0  0  0  0  0  0  0  0  0
   -1.5511    3.8890    9.0713 S   0  0  0  0  0  0  0  0  0  0  0  0
   -4.5957    5.4458    5.0366 C   0  0  0  0  0  0  0  0  0  0  0  0
   -5.6368    4.8981    4.2892 C   0  0  0  0  0  0  0  0  0  0  0  0
   -5.9577    3.3505    4.9122 S   0  0  0  0  0  0  0  0  0  0  0  0
   -6.2864    5.5274    3.0852 C   0  0  0  0  0  0  0  0  0  0  0  0
   -7.1970    4.6388    1.9793 S   0  0  0  0  0  0  0  0  0  0  0  0
   -7.5227    5.8455    0.8547 C   0  0  0  0  0  0  0  0  0  0  0  0
   -6.9889    6.9715    1.3554 C   0  0  0  0  0  0  0  0  0  0  0  0
   -6.2209    6.8565    2.5605 C   0  0  0  0  0  0  0  0  0  0  0  0
   -5.5158    8.0392    3.1505 C   0  0  2  0  0  0  0  0  0  0  0  0
   -6.3031    8.6380    4.3239 C   0  0  0  0  0  0  0  0  0  0  0  0
   -6.3496    7.7694    5.3944 F   0  0  0  0  0  0  0  0  0  0  0  0
   -5.7011    9.7946    4.7482 F   0  0  0  0  0  0  0  0  0  0  0  0
   -7.5919    8.9524    3.9513 F   0  0  0  0  0  0  0  0  0  0  0  0
   -5.2287    9.0711    2.0422 C   0  0  0  0  0  0  0  0  0  0  0  0
   -6.5137    9.5140    1.3540 C   0  0  0  0  0  0  0  0  0  0  0  0
   -7.2342    8.3344    0.7090 C   0  0  1  0  0  0  0  0  0  0  0  0
   -6.8686    8.3057   -0.6705 C   0  0  0  0  0  0  0  0  0  0  0  0
   -6.5374    8.3140   -1.8006 N   0  0  0  0  0  0  0  0  0  0  0  0
   -8.5515    5.8300   -0.2761 C   0  0  0  0  0  0  0  0  0  0  0  0
   -8.3191    5.6310   -1.5494 C   0  0  0  0  0  0  0  0  0  0  0  0
   -7.0268    5.1597   -2.1670 C   0  0  0  0  0  0  0  0  0  0  0  0
   -6.3259    4.0547   -1.6117 C   0  0  0  0  0  0  0  0  0  0  0  0
   -5.1787    3.7268   -2.4623 C   0  0  0  0  0  0  0  0  0  0  0  0
   -4.2109    2.7428   -2.2020 C   0  0  0  0  0  0  0  0  0  0  0  0
   -4.1515    1.8674   -1.0558 C   0  0  0  0  0  0  0  0  0  0  0  0
   -2.8070    1.5022   -0.1047 S   0  0  0  0  0  0  0  0  0  0  0  0
   -3.4269    0.2218    0.8062 C   0  0  0  0  0  0  0  0  0  0  0  0
   -2.6638   -0.7049    1.7607 C   0  0  0  0  0  0  0  0  0  0  0  0
   -2.3024   -2.0153    1.0610 C   0  0  0  0  0  0  0  0  0  0  0  0
   -4.7584    0.1095    0.4122 C   0  0  0  0  0  0  0  0  0  0  0  0
   -5.7779   -1.1773    1.0313 Cl  0  0  0  0  0  0  0  0  0  0  0  0
   -5.1557    1.0224   -0.6054 C   0  0  0  0  0  0  0  0  0  0  0  0
   -6.7056    0.9284   -1.3330 Cl  0  0  0  0  0  0  0  0  0  0  0  0
   -3.1540    2.5721   -3.1469 C   0  0  0  0  0  0  0  0  0  0  0  0
   -2.9698    3.4117   -4.1851 C   0  0  0  0  0  0  0  0  0  0  0  0
   -3.8524    4.4139   -4.4486 C   0  0  0  0  0  0  0  0  0  0  0  0
   -4.0167    4.9464   -5.8007 C   0  0  0  0  0  0  0  0  0  0  0  0
   -2.9106    5.5395   -6.9599 S   0  0  0  0  0  0  0  0  0  0  0  0
   -3.9386    5.5258   -8.2773 C   0  0  0  0  0  0  0  0  0  0  0  0
   -3.4853    5.8415   -9.6949 C   0  0  0  0  0  0  0  0  0  0  0  0
   -3.8589    4.6577  -10.5835 C   0  0  0  0  0  0  0  0  0  0  0  0
   -5.2168    5.1016   -7.8117 C   0  0  0  0  0  0  0  0  0  0  0  0
   -5.1859    4.6533   -6.4751 C   0  0  0  0  0  0  0  0  0  0  0  0
   -6.5956    3.6376   -6.0665 Cl  0  0  0  0  0  0  0  0  0  0  0  0
   -6.8518    5.3800   -8.4533 Cl  0  0  0  0  0  0  0  0  0  0  0  0
   -4.9709    4.5723   -3.5680 C   0  0  0  0  0  0  0  0  0  0  0  0
   -6.1812    5.7468   -3.4868 S   0  0  0  0  0  0  0  0  0  0  0  0
   -1.8349    3.1164   -5.0262 C   0  0  0  0  0  0  0  0  0  0  0  0
   -1.0576    2.1239   -4.4555 C   0  0  0  0  0  0  0  0  0  0  0  0
   -1.9185    1.5213   -3.1430 S   0  0  0  0  0  0  0  0  0  0  0  0
    0.3720    1.8701   -4.7014 C   0  0  0  0  0  0  0  0  0  0  0  0
    1.2853    1.7538   -3.6769 C   0  0  0  0  0  0  0  0  0  0  0  0
    2.5528    1.1515   -4.0421 C   0  0  0  0  0  0  0  0  0  0  0  0
    3.6064    0.8755   -3.1999 C   0  0  0  0  0  0  0  0  0  0  0  0
    3.7577    1.2470   -1.7747 C   0  0  0  0  0  0  0  0  0  0  0  0
    4.3469    0.2587   -0.5406 S   0  0  0  0  0  0  0  0  0  0  0  0
    4.5260    1.4118    0.6555 C   0  0  0  0  0  0  0  0  0  0  0  0
    5.0916    1.2073    2.0428 C   0  0  0  0  0  0  0  0  0  0  0  0
    3.9970    0.7830    3.0086 C   0  0  0  0  0  0  0  0  0  0  0  0
    4.0823    2.6136    0.0999 C   0  0  0  0  0  0  0  0  0  0  0  0
    3.9983    4.1163    0.9999 Cl  0  0  0  0  0  0  0  0  0  0  0  0
    3.6562    2.5224   -1.2622 C   0  0  0  0  0  0  0  0  0  0  0  0
    3.2363    3.9250   -2.2119 Cl  0  0  0  0  0  0  0  0  0  0  0  0
    4.6399    0.0459   -3.7368 C   0  0  0  0  0  0  0  0  0  0  0  0
    4.6218   -0.4331   -5.0050 C   0  0  0  0  0  0  0  0  0  0  0  0
    3.6577    0.0457   -5.9357 C   0  0  0  0  0  0  0  0  0  0  0  0
    3.7605   -0.0785   -7.3830 C   0  0  0  0  0  0  0  0  0  0  0  0
    2.4589   -0.1341   -8.4651 S   0  0  0  0  0  0  0  0  0  0  0  0
    3.3105    0.0396   -9.9099 C   0  0  0  0  0  0  0  0  0  0  0  0
    2.7343    0.2301  -11.2905 C   0  0  0  0  0  0  0  0  0  0  0  0
    2.8631    1.7067  -11.6621 C   0  0  0  0  0  0  0  0  0  0  0  0
    4.6605    0.1087   -9.5773 C   0  0  0  0  0  0  0  0  0  0  0  0
    4.8974    0.0598   -8.1789 C   0  0  0  0  0  0  0  0  0  0  0  0
    6.4776    0.3511   -7.5406 Cl  0  0  0  0  0  0  0  0  0  0  0  0
    5.9403    0.3234  -10.7441 Cl  0  0  0  0  0  0  0  0  0  0  0  0
    2.5882    0.8208   -5.3845 C   0  0  0  0  0  0  0  0  0  0  0  0
    1.1390    1.2719   -6.0737 S   0  0  0  0  0  0  0  0  0  0  0  0
    5.5150   -1.5414   -5.2713 C   0  0  0  0  0  0  0  0  0  0  0  0
    6.2825   -1.8936   -4.1196 C   0  0  0  0  0  0  0  0  0  0  0  0
    5.8352   -0.8187   -2.9370 S   0  0  0  0  0  0  0  0  0  0  0  0
    6.7033   -3.2900   -3.8093 C   0  0  0  0  0  0  0  0  0  0  0  0
    7.4486   -3.5655   -2.6468 C   0  0  0  0  0  0  0  0  0  0  0  0
    7.1071   -4.8560   -2.0458 C   0  0  0  0  0  0  0  0  0  0  0  0
    7.4453   -5.1904   -0.7566 C   0  0  0  0  0  0  0  0  0  0  0  0
    8.4297   -4.5114    0.0678 C   0  0  0  0  0  0  0  0  0  0  0  0
    8.7381   -2.8434    0.1381 S   0  0  0  0  0  0  0  0  0  0  0  0
   10.0943   -2.9190    1.1125 C   0  0  0  0  0  0  0  0  0  0  0  0
   11.0091   -1.7804    1.4829 C   0  0  0  0  0  0  0  0  0  0  0  0
   12.3679   -2.0135    0.8313 C   0  0  0  0  0  0  0  0  0  0  0  0
   10.2820   -4.2556    1.4753 C   0  0  0  0  0  0  0  0  0  0  0  0
   11.4904   -4.7780    2.6361 Cl  0  0  0  0  0  0  0  0  0  0  0  0
    9.3908   -5.1343    0.8287 C   0  0  0  0  0  0  0  0  0  0  0  0
    9.5866   -6.8786    0.9345 Cl  0  0  0  0  0  0  0  0  0  0  0  0
    6.7399   -6.3158   -0.1397 C   0  0  0  0  0  0  0  0  0  0  0  0
    5.8450   -7.0433   -0.8993 C   0  0  0  0  0  0  0  0  0  0  0  0
    5.5510   -6.7117   -2.1970 C   0  0  0  0  0  0  0  0  0  0  0  0
    4.5072   -7.3620   -3.0091 C   0  0  0  0  0  0  0  0  0  0  0  0
    4.6234   -7.9799   -4.5754 S   0  0  0  0  0  0  0  0  0  0  0  0
    3.0092   -8.3902   -4.8095 C   0  0  0  0  0  0  0  0  0  0  0  0
    2.4020   -8.9997   -6.0351 C   0  0  0  0  0  0  0  0  0  0  0  0
    2.1178  -10.4718   -5.7983 C   0  0  0  0  0  0  0  0  0  0  0  0
    2.3507   -8.0544   -3.6402 C   0  0  0  0  0  0  0  0  0  0  0  0
    3.1759   -7.4648   -2.6451 C   0  0  0  0  0  0  0  0  0  0  0  0
    2.5303   -6.8756   -1.1467 Cl  0  0  0  0  0  0  0  0  0  0  0  0
    0.6472   -8.2917   -3.4071 Cl  0  0  0  0  0  0  0  0  0  0  0  0
    6.2148   -5.5671   -2.7897 C   0  0  0  0  0  0  0  0  0  0  0  0
    5.7565   -4.6721   -4.1075 S   0  0  0  0  0  0  0  0  0  0  0  0
    5.1594   -8.0610   -0.0971 C   0  0  0  0  0  0  0  0  0  0  0  0
    5.4870   -8.0186    1.2302 C   0  0  0  0  0  0  0  0  0  0  0  0
    6.6712   -6.8454    1.4521 S   0  0  0  0  0  0  0  0  0  0  0  0
    4.6708   -8.6976    2.2798 C   0  0  0  0  0  0  0  0  0  0  0  0
    3.6884  -10.0441    2.0191 S   0  0  0  0  0  0  0  0  0  0  0  0
    2.8537  -10.0161    3.4762 C   0  0  0  0  0  0  0  0  0  0  0  0
    3.2825   -8.9149    4.1867 C   0  0  0  0  0  0  0  0  0  0  0  0
    4.3148   -8.1675    3.4995 C   0  0  0  0  0  0  0  0  0  0  0  0
    4.8903   -6.9856    4.1702 C   0  0  2  0  0  0  0  0  0  0  0  0
    6.0401   -7.3680    5.1202 C   0  0  0  0  0  0  0  0  0  0  0  0
    7.0583   -7.9684    4.4098 F   0  0  0  0  0  0  0  0  0  0  0  0
    5.5903   -8.2393    6.1014 F   0  0  0  0  0  0  0  0  0  0  0  0
    6.5520   -6.2574    5.7532 F   0  0  0  0  0  0  0  0  0  0  0  0
    3.7882   -6.2220    4.8918 C   0  0  0  0  0  0  0  0  0  0  0  0
    3.0950   -7.0495    5.9808 C   0  0  0  0  0  0  0  0  0  0  0  0
    2.6456   -8.4382    5.4572 C   0  0  1  0  0  0  0  0  0  0  0  0
    1.1960   -8.3695    5.2608 C   0  0  0  0  0  0  0  0  0  0  0  0
    0.0324   -8.3533    5.1228 N   0  0  0  0  0  0  0  0  0  0  0  0
    1.7847  -10.9281    3.9548 C   0  0  0  0  0  0  0  0  0  0  0  0
    1.1475  -11.7278    3.0983 C   0  0  0  0  0  0  0  0  0  0  0  0
   -1.0274    1.6927   10.2261 H   0  0  0  0  0  0  0  0  0  0  0  0
   -2.6321    0.5877    8.5714 H   0  0  0  0  0  0  0  0  0  0  0  0
   -5.3524   -3.6465    6.9024 H   0  0  0  0  0  0  0  0  0  0  0  0
   -5.0866   -3.0077    8.5912 H   0  0  0  0  0  0  0  0  0  0  0  0
   -7.2685   -3.5432    8.9422 H   0  0  0  0  0  0  0  0  0  0  0  0
   -7.6913   -2.0238    7.9914 H   0  0  0  0  0  0  0  0  0  0  0  0
   -7.6263   -3.6942    7.1789 H   0  0  0  0  0  0  0  0  0  0  0  0
   -2.2517   10.8407    7.0267 H   0  0  0  0  0  0  0  0  0  0  0  0
   -3.9660   10.4815    7.4606 H   0  0  0  0  0  0  0  0  0  0  0  0
   -1.7503   10.1580    9.5401 H   0  0  0  0  0  0  0  0  0  0  0  0
   -2.5006   11.7658    9.2111 H   0  0  0  0  0  0  0  0  0  0  0  0
   -3.5161   10.3915    9.7860 H   0  0  0  0  0  0  0  0  0  0  0  0
   -4.1576    6.4131    4.9227 H   0  0  0  0  0  0  0  0  0  0  0  0
   -4.5285    7.7567    3.4876 H   0  0  0  0  0  0  0  0  0  0  0  0
   -4.5599    8.5696    1.2817 H   0  0  0  0  0  0  0  0  0  0  0  0
   -4.6985    9.9256    2.4577 H   0  0  0  0  0  0  0  0  0  0  0  0
   -7.1687   10.0634    2.0380 H   0  0  0  0  0  0  0  0  0  0  0  0
   -6.2252   10.2580    0.5759 H   0  0  0  0  0  0  0  0  0  0  0  0
   -8.3316    8.5163    0.7605 H   0  0  0  0  0  0  0  0  0  0  0  0
   -9.5606    6.0837    0.0145 H   0  0  0  0  0  0  0  0  0  0  0  0
   -9.1225    5.8164   -2.2177 H   0  0  0  0  0  0  0  0  0  0  0  0
   -6.6520    3.5082   -0.7163 H   0  0  0  0  0  0  0  0  0  0  0  0
   -3.2829   -0.9362    2.6736 H   0  0  0  0  0  0  0  0  0  0  0  0
   -1.7358   -0.1999    2.1322 H   0  0  0  0  0  0  0  0  0  0  0  0
   -2.2974   -2.8561    1.8081 H   0  0  0  0  0  0  0  0  0  0  0  0
   -1.2921   -1.9154    0.5838 H   0  0  0  0  0  0  0  0  0  0  0  0
   -3.0802   -2.2453    0.3157 H   0  0  0  0  0  0  0  0  0  0  0  0
   -3.9428    6.8325  -10.0159 H   0  0  0  0  0  0  0  0  0  0  0  0
   -2.3649    5.8965   -9.6204 H   0  0  0  0  0  0  0  0  0  0  0  0
   -3.1364    3.7948  -10.4145 H   0  0  0  0  0  0  0  0  0  0  0  0
   -3.7664    5.0227  -11.6318 H   0  0  0  0  0  0  0  0  0  0  0  0
   -4.9242    4.3469  -10.3371 H   0  0  0  0  0  0  0  0  0  0  0  0
   -1.5916    3.6586   -5.8778 H   0  0  0  0  0  0  0  0  0  0  0  0
    1.0337    1.9918   -2.6829 H   0  0  0  0  0  0  0  0  0  0  0  0
    5.5852    2.1624    2.3777 H   0  0  0  0  0  0  0  0  0  0  0  0
    5.8706    0.4302    1.9892 H   0  0  0  0  0  0  0  0  0  0  0  0
    3.0792    1.3972    2.9108 H   0  0  0  0  0  0  0  0  0  0  0  0
    4.4197    0.8993    4.0260 H   0  0  0  0  0  0  0  0  0  0  0  0
    3.7285   -0.2911    2.8725 H   0  0  0  0  0  0  0  0  0  0  0  0
    3.3327   -0.3927  -12.0125 H   0  0  0  0  0  0  0  0  0  0  0  0
    1.6687   -0.1088  -11.3052 H   0  0  0  0  0  0  0  0  0  0  0  0
    3.9003    2.0452  -11.4695 H   0  0  0  0  0  0  0  0  0  0  0  0
    2.1656    2.3300  -11.0477 H   0  0  0  0  0  0  0  0  0  0  0  0
    2.6488    1.8506  -12.7479 H   0  0  0  0  0  0  0  0  0  0  0  0
    5.5289   -2.1127   -6.1540 H   0  0  0  0  0  0  0  0  0  0  0  0
    8.1757   -2.8882   -2.2700 H   0  0  0  0  0  0  0  0  0  0  0  0
   10.5661   -0.8183    1.1623 H   0  0  0  0  0  0  0  0  0  0  0  0
   11.1147   -1.7922    2.5908 H   0  0  0  0  0  0  0  0  0  0  0  0
   13.0205   -2.5965    1.5268 H   0  0  0  0  0  0  0  0  0  0  0  0
   12.2635   -2.6000   -0.1189 H   0  0  0  0  0  0  0  0  0  0  0  0
   12.8680   -1.0353    0.5977 H   0  0  0  0  0  0  0  0  0  0  0  0
    1.4505   -8.4617   -6.2637 H   0  0  0  0  0  0  0  0  0  0  0  0
    3.0994   -8.8567   -6.8932 H   0  0  0  0  0  0  0  0  0  0  0  0
    2.0436  -10.9802   -6.7857 H   0  0  0  0  0  0  0  0  0  0  0  0
    2.9227  -10.9314   -5.2065 H   0  0  0  0  0  0  0  0  0  0  0  0
    1.1514  -10.5889   -5.2753 H   0  0  0  0  0  0  0  0  0  0  0  0
    4.4646   -8.7228   -0.5392 H   0  0  0  0  0  0  0  0  0  0  0  0
    5.2760   -6.2748    3.4164 H   0  0  0  0  0  0  0  0  0  0  0  0
    4.1644   -5.2870    5.3217 H   0  0  0  0  0  0  0  0  0  0  0  0
    3.0252   -5.9255    4.1286 H   0  0  0  0  0  0  0  0  0  0  0  0
    2.1944   -6.4855    6.3234 H   0  0  0  0  0  0  0  0  0  0  0  0
    3.7233   -7.1595    6.8588 H   0  0  0  0  0  0  0  0  0  0  0  0
    2.8341   -9.2187    6.2305 H   0  0  0  0  0  0  0  0  0  0  0  0
    1.4873  -10.9481    5.0033 H   0  0  0  0  0  0  0  0  0  0  0  0
    1.3687  -11.7198    2.0392 H   0  0  0  0  0  0  0  0  0  0  0  0
    0.3531  -12.3611    3.4406 H   0  0  0  0  0  0  0  0  0  0  0  0
  1  2  2  0
  2  3  1  0
  3  4  2  0
  4  5  1  0
  5  6  1  0
  6  7  1  0
  7  8  1  0
  8  9  1  0
  7 10  2  0
 10 11  1  0
 10 12  1  0
 12 13  1  0
  4 14  1  0
 14 15  2  0
 15 16  1  0
 16 17  1  0
 17 18  1  0
 18 19  1  0
 19 20  1  0
 20 21  1  0
 19 22  2  0
 22 23  1  0
 23 24  1  0
 22 25  1  0
 16 26  2  0
 26 27  1  0
 15 28  1  0
 28 29  2  0
 29 30  1  0
 29 31  1  0
 31 32  1  0
 32 33  1  0
 33 34  2  0
 34 35  1  0
 35 36  1  0
 36 37  1  0
 37 38  1  0
 37 39  1  0
 37 40  1  0
 36 41  1  0
 41 42  1  0
 42 43  1  0
 43 44  1  0
 44 45  3  0
 33 46  1  0
 46 47  2  3
 47 48  1  0
 48 49  2  0
 49 50  1  0
 50 51  2  0
 51 52  1  0
 52 53  1  0
 53 54  1  0
 54 55  1  0
 55 56  1  0
 54 57  2  0
 57 58  1  0
 57 59  1  0
 59 60  1  0
 51 61  1  0
 61 62  2  0
 62 63  1  0
 63 64  1  0
 64 65  1  0
 65 66  1  0
 66 67  1  0
 67 68  1  0
 66 69  2  0
 69 70  1  0
 70 71  1  0
 69 72  1  0
 63 73  2  0
 73 74  1  0
 62 75  1  0
 75 76  2  0
 76 77  1  0
 76 78  1  0
 78 79  2  0
 79 80  1  0
 80 81  2  0
 81 82  1  0
 82 83  1  0
 83 84  1  0
 84 85  1  0
 85 86  1  0
 84 87  2  0
 87 88  1  0
 87 89  1  0
 89 90  1  0
 81 91  1  0
 91 92  2  0
 92 93  1  0
 93 94  1  0
 94 95  1  0
 95 96  1  0
 96 97  1  0
 97 98  1  0
 96 99  2  0
 99100  1  0
100101  1  0
 99102  1  0
 93103  2  0
103104  1  0
 92105  1  0
105106  2  0
106107  1  0
106108  1  0
108109  2  0
109110  1  0
110111  2  0
111112  1  0
112113  1  0
113114  1  0
114115  1  0
115116  1  0
114117  2  0
117118  1  0
117119  1  0
119120  1  0
111121  1  0
121122  2  0
122123  1  0
123124  1  0
124125  1  0
125126  1  0
126127  1  0
127128  1  0
126129  2  0
129130  1  0
130131  1  0
129132  1  0
123133  2  0
133134  1  0
122135  1  0
135136  2  0
136137  1  0
136138  1  0
138139  1  0
139140  1  0
140141  2  0
141142  1  0
142143  1  0
143144  1  0
144145  1  0
144146  1  0
144147  1  0
143148  1  0
148149  1  0
149150  1  0
150151  1  0
151152  3  0
140153  1  0
153154  2  3
 27  1  1  0
 35 31  2  0
 74 48  1  0
104 78  1  0
134108  1  0
142138  2  0
 26  3  1  0
 43 34  1  0
 73 50  1  0
103 80  1  0
133110  1  0
150141  1  0
 12  5  2  0
 30 14  1  0
 59 52  2  0
 77 61  1  0
 89 82  2  0
107 91  1  0
119112  2  0
137121  1  0
 23 17  2  0
 70 64  2  0
100 94  2  0
130124  2  0
  1155  1  0
  2156  1  0
  8157  1  0
  8158  1  0
  9159  1  0
  9160  1  0
  9161  1  0
 20162  1  0
 20163  1  0
 21164  1  0
 21165  1  0
 21166  1  0
 28167  1  0
 36168  1  1
 41169  1  0
 41170  1  0
 42171  1  0
 42172  1  0
 43173  1  6
 46174  1  0
 47175  1  0
 49176  1  0
 55177  1  0
 55178  1  0
 56179  1  0
 56180  1  0
 56181  1  0
 67182  1  0
 67183  1  0
 68184  1  0
 68185  1  0
 68186  1  0
 75187  1  0
 79188  1  0
 85189  1  0
 85190  1  0
 86191  1  0
 86192  1  0
 86193  1  0
 97194  1  0
 97195  1  0
 98196  1  0
 98197  1  0
 98198  1  0
105199  1  0
109200  1  0
115201  1  0
115202  1  0
116203  1  0
116204  1  0
116205  1  0
127206  1  0
127207  1  0
128208  1  0
128209  1  0
128210  1  0
135211  1  0
143212  1  6
148213  1  0
148214  1  0
149215  1  0
149216  1  0
150217  1  1
153218  1  0
154219  1  0
154220  1  0
M  END

