
     RDKit          3D

262285  0  0  0  0  0  0  0  0999 V2000
    5.0002    1.4231   10.0832 C   0  0  0  0  0  0  0  0  0  0  0  0
    4.6333    0.2121    9.4986 C   0  0  0  0  0  0  0  0  0  0  0  0
    3.3608    0.0543    8.9444 C   0  0  0  0  0  0  0  0  0  0  0  0
    2.4314    1.1163    8.9551 C   0  0  0  0  0  0  0  0  0  0  0  0
    2.8023    2.3333    9.5695 C   0  0  0  0  0  0  0  0  0  0  0  0
    4.0877    2.4810   10.1245 C   0  0  0  0  0  0  0  0  0  0  0  0
    4.4356    3.6608   10.6941 N   0  0  0  0  0  0  0  0  0  0  0  0
    3.5815    4.7175   10.7522 C   0  0  0  0  0  0  0  0  0  0  0  0
    4.0951    5.9922   11.3737 C   0  0  0  0  0  0  0  0  0  0  0  0
    5.2224    6.5806   10.5297 C   0  0  0  0  0  0  0  0  0  0  0  0
    2.2790    4.5687   10.2068 C   0  0  0  0  0  0  0  0  0  0  0  0
    1.2432    5.6615   10.2135 C   0  0  0  0  0  0  0  0  0  0  0  0
    1.4940    6.6777    9.1013 C   0  0  0  0  0  0  0  0  0  0  0  0
    1.9420    3.3840    9.6274 N   0  0  0  0  0  0  0  0  0  0  0  0
    1.0741    0.9578    8.3688 C   0  0  0  0  0  0  0  0  0  0  0  0
    0.8335    0.1402    7.3315 C   0  0  0  0  0  0  0  0  0  0  0  0
   -0.5015   -0.0935    6.7016 C   0  0  0  0  0  0  0  0  0  0  0  0
   -1.6893    0.4923    7.1921 C   0  0  0  0  0  0  0  0  0  0  0  0
   -2.9208    0.2501    6.5720 C   0  0  0  0  0  0  0  0  0  0  0  0
   -3.0030   -0.5973    5.4570 C   0  0  0  0  0  0  0  0  0  0  0  0
   -1.8309   -1.2008    4.9673 C   0  0  0  0  0  0  0  0  0  0  0  0
   -0.5882   -0.9491    5.5807 C   0  0  0  0  0  0  0  0  0  0  0  0
    0.5216   -1.5487    5.0703 N   0  0  0  0  0  0  0  0  0  0  0  0
    0.4801   -2.3758    3.9933 C   0  0  0  0  0  0  0  0  0  0  0  0
    1.7804   -2.9540    3.5004 C   0  0  0  0  0  0  0  0  0  0  0  0
    2.4717   -1.9928    2.5372 C   0  0  0  0  0  0  0  0  0  0  0  0
   -0.7632   -2.6062    3.3624 C   0  0  0  0  0  0  0  0  0  0  0  0
   -0.9391   -3.5194    2.1795 C   0  0  0  0  0  0  0  0  0  0  0  0
   -1.2279   -4.9461    2.6332 C   0  0  0  0  0  0  0  0  0  0  0  0
   -1.8731   -2.0166    3.8774 N   0  0  0  0  0  0  0  0  0  0  0  0
   -4.2908   -0.8650    4.7754 C   0  0  0  0  0  0  0  0  0  0  0  0
   -5.1973    0.0910    4.5225 C   0  0  0  0  0  0  0  0  0  0  0  0
   -6.2280   -0.0686    3.4693 C   0  0  0  0  0  0  0  0  0  0  0  0
   -6.4408   -1.2144    2.6946 C   0  0  0  0  0  0  0  0  0  0  0  0
   -7.1229   -0.9554    1.4956 C   0  0  0  0  0  0  0  0  0  0  0  0
   -7.2541   -1.8576    0.4252 C   0  0  0  0  0  0  0  0  0  0  0  0
   -6.6900   -3.2202    0.4918 C   0  0  0  0  0  0  0  0  0  0  0  0
   -5.2967   -3.4024    0.4436 C   0  0  0  0  0  0  0  0  0  0  0  0
   -4.7543   -4.6862    0.5295 C   0  0  0  0  0  0  0  0  0  0  0  0
   -5.5974   -5.7968    0.6725 C   0  0  0  0  0  0  0  0  0  0  0  0
   -4.8853   -7.4392    0.8158 S   0  0  0  0  0  0  0  0  0  0  0  0
   -4.7577   -7.3440    2.6332 C   0  0  0  0  0  0  0  0  0  0  0  0
   -4.2185   -8.6550    3.1898 C   0  0  0  0  0  0  0  0  0  0  0  0
   -6.9910   -5.6189    0.7105 C   0  0  0  0  0  0  0  0  0  0  0  0
   -7.8181   -6.6875    0.8508 F   0  0  0  0  0  0  0  0  0  0  0  0
   -7.5333   -4.3329    0.6192 C   0  0  0  0  0  0  0  0  0  0  0  0
   -7.7234   -1.3366   -0.7896 C   0  0  0  0  0  0  0  0  0  0  0  0
   -8.0741    0.0096   -0.9539 C   0  0  0  0  0  0  0  0  0  0  0  0
   -8.0266    0.8964    0.1504 C   0  0  0  0  0  0  0  0  0  0  0  0
   -8.4182    2.3187    0.0469 C   0  0  0  0  0  0  0  0  0  0  0  0
   -7.7312    3.1981   -0.8074 C   0  0  0  0  0  0  0  0  0  0  0  0
   -8.1348    4.5324   -0.9150 C   0  0  0  0  0  0  0  0  0  0  0  0
   -9.2141    5.0063   -0.1558 C   0  0  0  0  0  0  0  0  0  0  0  0
   -9.7255    6.7228   -0.3026 S   0  0  0  0  0  0  0  0  0  0  0  0
  -11.1241    6.3929   -1.4332 C   0  0  0  0  0  0  0  0  0  0  0  0
  -10.6361    6.1729   -2.8594 C   0  0  0  0  0  0  0  0  0  0  0  0
   -9.8735    4.1453    0.7298 C   0  0  0  0  0  0  0  0  0  0  0  0
   -9.4786    2.8066    0.8274 C   0  0  0  0  0  0  0  0  0  0  0  0
  -10.9068    4.5935    1.4878 F   0  0  0  0  0  0  0  0  0  0  0  0
   -7.5152    0.3784    1.3562 C   0  0  0  0  0  0  0  0  0  0  0  0
   -6.9696    1.2408    2.6968 S   0  0  0  0  0  0  0  0  0  0  0  0
   -8.2505    0.3667   -2.3072 C   0  0  0  0  0  0  0  0  0  0  0  0
   -7.9735   -0.6750   -3.1996 C   0  0  0  0  0  0  0  0  0  0  0  0
   -7.6099   -2.0585   -2.3003 S   0  0  0  0  0  0  0  0  0  0  0  0
   -7.4237   -0.4669   -4.5542 C   0  0  0  0  0  0  0  0  0  0  0  0
   -6.7765   -1.4800   -5.2685 C   0  0  0  0  0  0  0  0  0  0  0  0
   -5.7371   -1.0156   -6.0940 C   0  0  0  0  0  0  0  0  0  0  0  0
   -4.7358   -1.8269   -6.6693 C   0  0  0  0  0  0  0  0  0  0  0  0
   -4.8218   -3.3019   -6.6280 C   0  0  0  0  0  0  0  0  0  0  0  0
   -5.8187   -3.9635   -7.3573 C   0  0  0  0  0  0  0  0  0  0  0  0
   -5.9292   -5.3556   -7.2987 C   0  0  0  0  0  0  0  0  0  0  0  0
   -5.0387   -6.0993   -6.5159 C   0  0  0  0  0  0  0  0  0  0  0  0
   -5.2123   -7.8869   -6.4260 S   0  0  0  0  0  0  0  0  0  0  0  0
   -4.2835   -8.2357   -7.9628 C   0  0  0  0  0  0  0  0  0  0  0  0
   -2.7804   -8.1292   -7.7363 C   0  0  0  0  0  0  0  0  0  0  0  0
   -4.0480   -5.4419   -5.7692 C   0  0  0  0  0  0  0  0  0  0  0  0
   -3.1993   -6.1485   -4.9784 F   0  0  0  0  0  0  0  0  0  0  0  0
   -3.9415   -4.0489   -5.8235 C   0  0  0  0  0  0  0  0  0  0  0  0
   -3.5775   -1.1706   -7.1263 C   0  0  0  0  0  0  0  0  0  0  0  0
   -3.4370    0.2207   -7.0880 C   0  0  0  0  0  0  0  0  0  0  0  0
   -4.4782    1.0391   -6.6006 C   0  0  0  0  0  0  0  0  0  0  0  0
   -4.2762    2.4985   -6.4420 C   0  0  0  0  0  0  0  0  0  0  0  0
   -4.0545    3.2983   -7.5751 C   0  0  0  0  0  0  0  0  0  0  0  0
   -3.7052    4.6425   -7.4324 C   0  0  0  0  0  0  0  0  0  0  0  0
   -3.6023    5.2095   -6.1564 C   0  0  0  0  0  0  0  0  0  0  0  0
   -3.1037    6.9259   -5.9776 S   0  0  0  0  0  0  0  0  0  0  0  0
   -4.7836    7.6192   -6.1868 C   0  0  0  0  0  0  0  0  0  0  0  0
   -5.0015    8.0655   -7.6288 C   0  0  0  0  0  0  0  0  0  0  0  0
   -3.8343    4.4207   -5.0181 C   0  0  0  0  0  0  0  0  0  0  0  0
   -4.1633    3.0694   -5.1634 C   0  0  0  0  0  0  0  0  0  0  0  0
   -3.6998    4.9484   -3.7739 F   0  0  0  0  0  0  0  0  0  0  0  0
   -5.6054    0.3776   -6.0781 C   0  0  0  0  0  0  0  0  0  0  0  0
   -6.7706    1.0132   -5.0476 S   0  0  0  0  0  0  0  0  0  0  0  0
   -2.1199    0.6472   -7.3221 C   0  0  0  0  0  0  0  0  0  0  0  0
   -1.2121   -0.4023   -7.4809 C   0  0  0  0  0  0  0  0  0  0  0  0
   -2.0720   -1.8545   -7.4407 S   0  0  0  0  0  0  0  0  0  0  0  0
    0.2092   -0.3034   -7.0985 C   0  0  0  0  0  0  0  0  0  0  0  0
    0.7149    0.7249   -6.3036 C   0  0  0  0  0  0  0  0  0  0  0  0
    1.8969    0.3873   -5.6393 C   0  0  0  0  0  0  0  0  0  0  0  0
    2.5058    1.1458   -4.6197 C   0  0  0  0  0  0  0  0  0  0  0  0
    1.9678    2.4525   -4.2001 C   0  0  0  0  0  0  0  0  0  0  0  0
    2.4920    3.6340   -4.7415 C   0  0  0  0  0  0  0  0  0  0  0  0
    1.9557    4.8725   -4.3713 C   0  0  0  0  0  0  0  0  0  0  0  0
    0.9049    4.9366   -3.4481 C   0  0  0  0  0  0  0  0  0  0  0  0
    0.2051    6.5311   -2.9988 S   0  0  0  0  0  0  0  0  0  0  0  0
    1.2062    6.7430   -1.4836 C   0  0  0  0  0  0  0  0  0  0  0  0
    2.6276    7.1765   -1.8184 C   0  0  0  0  0  0  0  0  0  0  0  0
    0.3763    3.7560   -2.9066 C   0  0  0  0  0  0  0  0  0  0  0  0
   -0.6530    3.8035   -2.0209 F   0  0  0  0  0  0  0  0  0  0  0  0
    0.9110    2.5172   -3.2790 C   0  0  0  0  0  0  0  0  0  0  0  0
    3.5739    0.5490   -3.9357 C   0  0  0  0  0  0  0  0  0  0  0  0
    4.0551   -0.7244   -4.2545 C   0  0  0  0  0  0  0  0  0  0  0  0
    3.4654   -1.4773   -5.2965 C   0  0  0  0  0  0  0  0  0  0  0  0
    3.9433   -2.8331   -5.6500 C   0  0  0  0  0  0  0  0  0  0  0  0
    4.4831   -3.0779   -6.9202 C   0  0  0  0  0  0  0  0  0  0  0  0
    5.0545   -4.3175   -7.2171 C   0  0  0  0  0  0  0  0  0  0  0  0
    5.0812   -5.3313   -6.2477 C   0  0  0  0  0  0  0  0  0  0  0  0
    5.9692   -6.8561   -6.5769 S   0  0  0  0  0  0  0  0  0  0  0  0
    4.5519   -7.6947   -7.3549 C   0  0  0  0  0  0  0  0  0  0  0  0
    4.9482   -9.1122   -7.7483 C   0  0  0  0  0  0  0  0  0  0  0  0
    4.4958   -5.1095   -4.9946 C   0  0  0  0  0  0  0  0  0  0  0  0
    3.9265   -3.8688   -4.6981 C   0  0  0  0  0  0  0  0  0  0  0  0
    4.5101   -6.0850   -4.0487 F   0  0  0  0  0  0  0  0  0  0  0  0
    2.3688   -0.8894   -5.9597 C   0  0  0  0  0  0  0  0  0  0  0  0
    1.2766   -1.6155   -7.0192 S   0  0  0  0  0  0  0  0  0  0  0  0
    5.0721   -1.1552   -3.3864 C   0  0  0  0  0  0  0  0  0  0  0  0
    5.3391   -0.2456   -2.3624 C   0  0  0  0  0  0  0  0  0  0  0  0
    4.3651    1.1144   -2.5633 S   0  0  0  0  0  0  0  0  0  0  0  0
    6.1248   -0.5409   -1.1503 C   0  0  0  0  0  0  0  0  0  0  0  0
    6.7311   -1.7638   -0.8671 C   0  0  0  0  0  0  0  0  0  0  0  0
    7.1619   -1.8711    0.4655 C   0  0  0  0  0  0  0  0  0  0  0  0
    7.7037   -3.0242    1.0690 C   0  0  0  0  0  0  0  0  0  0  0  0
    7.9034   -4.2818    0.3174 C   0  0  0  0  0  0  0  0  0  0  0  0
    6.8028   -4.9485   -0.2447 C   0  0  0  0  0  0  0  0  0  0  0  0
    6.9913   -6.1158   -0.9871 C   0  0  0  0  0  0  0  0  0  0  0  0
    8.2793   -6.6373   -1.1590 C   0  0  0  0  0  0  0  0  0  0  0  0
    8.5107   -8.1337   -2.1211 S   0  0  0  0  0  0  0  0  0  0  0  0
    8.2434   -9.2349   -0.6920 C   0  0  0  0  0  0  0  0  0  0  0  0
    8.3175  -10.6873   -1.1342 C   0  0  0  0  0  0  0  0  0  0  0  0
    9.3826   -5.9849   -0.5866 C   0  0  0  0  0  0  0  0  0  0  0  0
   10.6366   -6.4818   -0.7463 F   0  0  0  0  0  0  0  0  0  0  0  0
    9.1933   -4.8100    0.1501 C   0  0  0  0  0  0  0  0  0  0  0  0
    8.0013   -2.9381    2.4393 C   0  0  0  0  0  0  0  0  0  0  0  0
    7.7791   -1.7791    3.1893 C   0  0  0  0  0  0  0  0  0  0  0  0
    7.2420   -0.6227    2.5817 C   0  0  0  0  0  0  0  0  0  0  0  0
    6.9649    0.6095    3.3499 C   0  0  0  0  0  0  0  0  0  0  0  0
    6.0119    0.6026    4.3828 C   0  0  0  0  0  0  0  0  0  0  0  0
    5.7481    1.7713    5.1035 C   0  0  0  0  0  0  0  0  0  0  0  0
    6.4281    2.9570    4.7964 C   0  0  0  0  0  0  0  0  0  0  0  0
    6.0702    4.4537    5.7177 S   0  0  0  0  0  0  0  0  0  0  0  0
    4.7621    4.9826    4.5618 C   0  0  0  0  0  0  0  0  0  0  0  0
    4.2493    6.3616    4.9456 C   0  0  0  0  0  0  0  0  0  0  0  0
    7.3865    2.9668    3.7716 C   0  0  0  0  0  0  0  0  0  0  0  0
    7.6469    1.7985    3.0469 C   0  0  0  0  0  0  0  0  0  0  0  0
    8.0581    4.1075    3.4683 F   0  0  0  0  0  0  0  0  0  0  0  0
    6.9403   -0.7094    1.2107 C   0  0  0  0  0  0  0  0  0  0  0  0
    6.1651    0.4228    0.2355 S   0  0  0  0  0  0  0  0  0  0  0  0
    8.1225   -1.9297    4.5420 C   0  0  0  0  0  0  0  0  0  0  0  0
    8.5858   -3.2034    4.8531 C   0  0  0  0  0  0  0  0  0  0  0  0
    8.5841   -4.1432    3.4524 S   0  0  0  0  0  0  0  0  0  0  0  0
    5.9890    1.5379   10.5124 H   0  0  0  0  0  0  0  0  0  0  0  0
    5.3328   -0.6128    9.4797 H   0  0  0  0  0  0  0  0  0  0  0  0
    3.1055   -0.9122    8.5291 H   0  0  0  0  0  0  0  0  0  0  0  0
    4.4864    5.7597   12.3880 H   0  0  0  0  0  0  0  0  0  0  0  0
    3.3078    6.7588   11.5026 H   0  0  0  0  0  0  0  0  0  0  0  0
    4.8802    6.7538    9.4885 H   0  0  0  0  0  0  0  0  0  0  0  0
    5.5436    7.5526   10.9638 H   0  0  0  0  0  0  0  0  0  0  0  0
    6.0955    5.8929   10.5189 H   0  0  0  0  0  0  0  0  0  0  0  0
    1.1972    6.1651   11.2029 H   0  0  0  0  0  0  0  0  0  0  0  0
    0.2378    5.2089   10.0473 H   0  0  0  0  0  0  0  0  0  0  0  0
    1.5195    6.1671    8.1170 H   0  0  0  0  0  0  0  0  0  0  0  0
    0.6790    7.4283    9.0918 H   0  0  0  0  0  0  0  0  0  0  0  0
    2.4552    7.2055    9.2621 H   0  0  0  0  0  0  0  0  0  0  0  0
    0.2842    1.5663    8.7827 H   0  0  0  0  0  0  0  0  0  0  0  0
    1.6764   -0.3775    6.8956 H   0  0  0  0  0  0  0  0  0  0  0  0
   -1.6867    1.1370    8.0554 H   0  0  0  0  0  0  0  0  0  0  0  0
   -3.8144    0.7064    6.9840 H   0  0  0  0  0  0  0  0  0  0  0  0
    1.6295   -3.9397    3.0101 H   0  0  0  0  0  0  0  0  0  0  0  0
    2.4513   -3.1305    4.3679 H   0  0  0  0  0  0  0  0  0  0  0  0
    1.8043   -1.7391    1.6864 H   0  0  0  0  0  0  0  0  0  0  0  0
    3.3931   -2.4652    2.1353 H   0  0  0  0  0  0  0  0  0  0  0  0
    2.7601   -1.0602    3.0702 H   0  0  0  0  0  0  0  0  0  0  0  0
   -1.7951   -3.1640    1.5661 H   0  0  0  0  0  0  0  0  0  0  0  0
   -0.0501   -3.5015    1.5155 H   0  0  0  0  0  0  0  0  0  0  0  0
   -2.1447   -4.9737    3.2616 H   0  0  0  0  0  0  0  0  0  0  0  0
   -0.3758   -5.3482    3.2171 H   0  0  0  0  0  0  0  0  0  0  0  0
   -1.3884   -5.5981    1.7472 H   0  0  0  0  0  0  0  0  0  0  0  0
   -4.3944   -1.8304    4.3068 H   0  0  0  0  0  0  0  0  0  0  0  0
   -5.0630    1.0808    4.9392 H   0  0  0  0  0  0  0  0  0  0  0  0
   -6.0316   -2.1872    2.9263 H   0  0  0  0  0  0  0  0  0  0  0  0
   -4.6344   -2.5506    0.3479 H   0  0  0  0  0  0  0  0  0  0  0  0
   -3.6787   -4.8170    0.4987 H   0  0  0  0  0  0  0  0  0  0  0  0
   -4.0698   -6.5196    2.9131 H   0  0  0  0  0  0  0  0  0  0  0  0
   -5.7597   -7.1484    3.0703 H   0  0  0  0  0  0  0  0  0  0  0  0
   -4.9040   -9.4919    2.9325 H   0  0  0  0  0  0  0  0  0  0  0  0
   -4.1390   -8.5828    4.2960 H   0  0  0  0  0  0  0  0  0  0  0  0
   -3.2096   -8.8623    2.7735 H   0  0  0  0  0  0  0  0  0  0  0  0
   -8.6075   -4.2018    0.6610 H   0  0  0  0  0  0  0  0  0  0  0  0
   -6.8879    2.8499   -1.3922 H   0  0  0  0  0  0  0  0  0  0  0  0
   -7.6057    5.1993   -1.5875 H   0  0  0  0  0  0  0  0  0  0  0  0
  -11.7047    5.5107   -1.0891 H   0  0  0  0  0  0  0  0  0  0  0  0
  -11.7983    7.2764   -1.4142 H   0  0  0  0  0  0  0  0  0  0  0  0
  -10.0320    7.0407   -3.1973 H   0  0  0  0  0  0  0  0  0  0  0  0
  -10.0233    5.2489   -2.9246 H   0  0  0  0  0  0  0  0  0  0  0  0
  -11.5106    6.0605   -3.5344 H   0  0  0  0  0  0  0  0  0  0  0  0
  -10.0074    2.1477    1.5046 H   0  0  0  0  0  0  0  0  0  0  0  0
   -8.4262    1.3786   -2.6399 H   0  0  0  0  0  0  0  0  0  0  0  0
   -6.9243   -2.5301   -5.0532 H   0  0  0  0  0  0  0  0  0  0  0  0
   -6.5121   -3.4004   -7.9709 H   0  0  0  0  0  0  0  0  0  0  0  0
   -6.7074   -5.8537   -7.8652 H   0  0  0  0  0  0  0  0  0  0  0  0
   -4.5995   -7.5473   -8.7748 H   0  0  0  0  0  0  0  0  0  0  0  0
   -4.5219   -9.2745   -8.2776 H   0  0  0  0  0  0  0  0  0  0  0  0
   -2.4729   -8.7662   -6.8812 H   0  0  0  0  0  0  0  0  0  0  0  0
   -2.2443   -8.4718   -8.6482 H   0  0  0  0  0  0  0  0  0  0  0  0
   -2.4921   -7.0771   -7.5346 H   0  0  0  0  0  0  0  0  0  0  0  0
   -3.1841   -3.5526   -5.2294 H   0  0  0  0  0  0  0  0  0  0  0  0
   -4.1076    2.8648   -8.5666 H   0  0  0  0  0  0  0  0  0  0  0  0
   -3.4948    5.2363   -8.3111 H   0  0  0  0  0  0  0  0  0  0  0  0
   -4.8749    8.5064   -5.5254 H   0  0  0  0  0  0  0  0  0  0  0  0
   -5.5677    6.8879   -5.8906 H   0  0  0  0  0  0  0  0  0  0  0  0
   -4.2303    8.8128   -7.9179 H   0  0  0  0  0  0  0  0  0  0  0  0
   -4.9497    7.1982   -8.3209 H   0  0  0  0  0  0  0  0  0  0  0  0
   -6.0043    8.5357   -7.7270 H   0  0  0  0  0  0  0  0  0  0  0  0
   -4.2883    2.4569   -4.2796 H   0  0  0  0  0  0  0  0  0  0  0  0
   -1.8072    1.6764   -7.2156 H   0  0  0  0  0  0  0  0  0  0  0  0
    0.1766    1.6375   -6.0978 H   0  0  0  0  0  0  0  0  0  0  0  0
    3.3068    3.5956   -5.4530 H   0  0  0  0  0  0  0  0  0  0  0  0
    2.3596    5.7814   -4.8047 H   0  0  0  0  0  0  0  0  0  0  0  0
    0.7303    7.5313   -0.8606 H   0  0  0  0  0  0  0  0  0  0  0  0
    1.2200    5.8016   -0.8915 H   0  0  0  0  0  0  0  0  0  0  0  0
    3.1757    6.3588   -2.3319 H   0  0  0  0  0  0  0  0  0  0  0  0
    2.6104    8.0755   -2.4718 H   0  0  0  0  0  0  0  0  0  0  0  0
    3.1689    7.4259   -0.8821 H   0  0  0  0  0  0  0  0  0  0  0  0
    0.4989    1.6098   -2.8547 H   0  0  0  0  0  0  0  0  0  0  0  0
    4.5078   -2.2911   -7.6651 H   0  0  0  0  0  0  0  0  0  0  0  0
    5.5046   -4.4772   -8.1895 H   0  0  0  0  0  0  0  0  0  0  0  0
    4.2508   -7.1335   -8.2648 H   0  0  0  0  0  0  0  0  0  0  0  0
    3.6993   -7.7330   -6.6442 H   0  0  0  0  0  0  0  0  0  0  0  0
    5.8015   -9.0812   -8.4610 H   0  0  0  0  0  0  0  0  0  0  0  0
    4.0909   -9.6255   -8.2359 H   0  0  0  0  0  0  0  0  0  0  0  0
    5.2463   -9.6934   -6.8481 H   0  0  0  0  0  0  0  0  0  0  0  0
    3.5034   -3.6978   -3.7158 H   0  0  0  0  0  0  0  0  0  0  0  0
    5.5451   -2.1216   -3.4590 H   0  0  0  0  0  0  0  0  0  0  0  0
    6.8031   -2.5709   -1.5819 H   0  0  0  0  0  0  0  0  0  0  0  0
    5.8002   -4.5559   -0.1134 H   0  0  0  0  0  0  0  0  0  0  0  0
    6.1360   -6.6177   -1.4218 H   0  0  0  0  0  0  0  0  0  0  0  0
    7.2396   -9.0373   -0.2528 H   0  0  0  0  0  0  0  0  0  0  0  0
    9.0239   -9.0449    0.0768 H   0  0  0  0  0  0  0  0  0  0  0  0
    9.3314  -10.9129   -1.5327 H   0  0  0  0  0  0  0  0  0  0  0  0
    7.5583  -10.8886   -1.9206 H   0  0  0  0  0  0  0  0  0  0  0  0
    8.1182  -11.3525   -0.2674 H   0  0  0  0  0  0  0  0  0  0  0  0
   10.0504   -4.3059    0.5766 H   0  0  0  0  0  0  0  0  0  0  0  0
    5.4723   -0.3047    4.6255 H   0  0  0  0  0  0  0  0  0  0  0  0
    5.0062    1.7549    5.8938 H   0  0  0  0  0  0  0  0  0  0  0  0
    5.1673    5.0237    3.5265 H   0  0  0  0  0  0  0  0  0  0  0  0
    3.9238    4.2531    4.5952 H   0  0  0  0  0  0  0  0  0  0  0  0
    3.4631    6.6771    4.2281 H   0  0  0  0  0  0  0  0  0  0  0  0
    5.0794    7.1009    4.9165 H   0  0  0  0  0  0  0  0  0  0  0  0
    3.8129    6.3405    5.9670 H   0  0  0  0  0  0  0  0  0  0  0  0
    8.3897    1.8176    2.2578 H   0  0  0  0  0  0  0  0  0  0  0  0
    8.0348   -1.1473    5.2859 H   0  0  0  0  0  0  0  0  0  0  0  0
    8.8937   -3.5349    5.8363 H   0  0  0  0  0  0  0  0  0  0  0  0
  1  2  2  0
  2  3  1  0
  3  4  2  0
  4  5  1  0
  5  6  2  0
  6  7  1  0
  7  8  2  0
  8  9  1  0
  9 10  1  0
  8 11  1  0
 11 12  1  0
 12 13  1  0
 11 14  2  0
  4 15  1  0
 15 16  2  3
 16 17  1  0
 17 18  2  0
 18 19  1  0
 19 20  2  0
 20 21  1  0
 21 22  2  0
 22 23  1  0
 23 24  2  0
 24 25  1  0
 25 26  1  0
 24 27  1  0
 27 28  1  0
 28 29  1  0
 27 30  2  0
 20 31  1  0
 31 32  2  3
 32 33  1  0
 33 34  2  0
 34 35  1  0
 35 36  2  0
 36 37  1  0
 37 38  2  0
 38 39  1  0
 39 40  2  0
 40 41  1  0
 41 42  1  0
 42 43  1  0
 40 44  1  0
 44 45  1  0
 44 46  2  0
 36 47  1  0
 47 48  2  0
 48 49  1  0
 49 50  1  0
 50 51  2  0
 51 52  1  0
 52 53  2  0
 53 54  1  0
 54 55  1  0
 55 56  1  0
 53 57  1  0
 57 58  2  0
 57 59  1  0
 49 60  2  0
 60 61  1  0
 48 62  1  0
 62 63  2  0
 63 64  1  0
 63 65  1  0
 65 66  2  0
 66 67  1  0
 67 68  2  0
 68 69  1  0
 69 70  2  0
 70 71  1  0
 71 72  2  0
 72 73  1  0
 73 74  1  0
 74 75  1  0
 72 76  1  0
 76 77  1  0
 76 78  2  0
 68 79  1  0
 79 80  2  0
 80 81  1  0
 81 82  1  0
 82 83  2  0
 83 84  1  0
 84 85  2  0
 85 86  1  0
 86 87  1  0
 87 88  1  0
 85 89  1  0
 89 90  2  0
 89 91  1  0
 81 92  2  0
 92 93  1  0
 80 94  1  0
 94 95  2  0
 95 96  1  0
 95 97  1  0
 97 98  2  0
 98 99  1  0
 99100  2  0
100101  1  0
101102  2  0
102103  1  0
103104  2  0
104105  1  0
105106  1  0
106107  1  0
104108  1  0
108109  1  0
108110  2  0
100111  1  0
111112  2  0
112113  1  0
113114  1  0
114115  2  0
115116  1  0
116117  2  0
117118  1  0
118119  1  0
119120  1  0
117121  1  0
121122  2  0
121123  1  0
113124  2  0
124125  1  0
112126  1  0
126127  2  0
127128  1  0
127129  1  0
129130  2  0
130131  1  0
131132  2  0
132133  1  0
133134  2  0
134135  1  0
135136  2  0
136137  1  0
137138  1  0
138139  1  0
136140  1  0
140141  1  0
140142  2  0
132143  1  0
143144  2  0
144145  1  0
145146  1  0
146147  2  0
147148  1  0
148149  2  0
149150  1  0
150151  1  0
151152  1  0
149153  1  0
153154  2  0
153155  1  0
145156  2  0
156157  1  0
144158  1  0
158159  2  0
159160  1  0
  6  1  1  0
 22 17  1  0
 61 33  1  0
 93 65  1  0
125 97  1  0
157129  1  0
 14  5  1  0
 30 21  1  0
 60 35  1  0
 92 67  1  0
124 99  1  0
156131  1  0
 46 37  1  0
 64 47  1  0
 78 69  1  0
 96 79  1  0
110101  1  0
128111  1  0
142133  1  0
160143  1  0
 58 50  1  0
 90 82  1  0
122114  1  0
154146  1  0
  1161  1  0
  2162  1  0
  3163  1  0
  9164  1  0
  9165  1  0
 10166  1  0
 10167  1  0
 10168  1  0
 12169  1  0
 12170  1  0
 13171  1  0
 13172  1  0
 13173  1  0
 15174  1  0
 16175  1  0
 18176  1  0
 19177  1  0
 25178  1  0
 25179  1  0
 26180  1  0
 26181  1  0
 26182  1  0
 28183  1  0
 28184  1  0
 29185  1  0
 29186  1  0
 29187  1  0
 31188  1  0
 32189  1  0
 34190  1  0
 38191  1  0
 39192  1  0
 42193  1  0
 42194  1  0
 43195  1  0
 43196  1  0
 43197  1  0
 46198  1  0
 51199  1  0
 52200  1  0
 55201  1  0
 55202  1  0
 56203  1  0
 56204  1  0
 56205  1  0
 58206  1  0
 62207  1  0
 66208  1  0
 70209  1  0
 71210  1  0
 74211  1  0
 74212  1  0
 75213  1  0
 75214  1  0
 75215  1  0
 78216  1  0
 83217  1  0
 84218  1  0
 87219  1  0
 87220  1  0
 88221  1  0
 88222  1  0
 88223  1  0
 90224  1  0
 94225  1  0
 98226  1  0
102227  1  0
103228  1  0
106229  1  0
106230  1  0
107231  1  0
107232  1  0
107233  1  0
110234  1  0
115235  1  0
116236  1  0
119237  1  0
119238  1  0
120239  1  0
120240  1  0
120241  1  0
122242  1  0
126243  1  0
130244  1  0
134245  1  0
135246  1  0
138247  1  0
138248  1  0
139249  1  0
139250  1  0
139251  1  0
142252  1  0
147253  1  0
148254  1  0
151255  1  0
151256  1  0
152257  1  0
152258  1  0
152259  1  0
154260  1  0
158261  1  0
159262  1  0
M  END

