
     RDKit          3D

227252  0  0  0  0  0  0  0  0999 V2000
    2.2141    6.4879  -14.8990 C   0  0  0  0  0  0  0  0  0  0  0  0
    3.4701    6.3861  -14.3059 C   0  0  0  0  0  0  0  0  0  0  0  0
    3.4523    5.6887  -13.0855 C   0  0  0  0  0  0  0  0  0  0  0  0
    4.5618    5.4128  -12.2622 C   0  0  0  0  0  0  0  0  0  0  0  0
    5.9212    5.8657  -12.5972 C   0  0  0  0  0  0  0  0  0  0  0  0
    6.8090    6.9642  -11.6827 S   0  0  0  0  0  0  0  0  0  0  0  0
    8.1970    6.9028  -12.6305 C   0  0  0  0  0  0  0  0  0  0  0  0
    9.4253    7.7226  -12.3841 C   0  0  0  0  0  0  0  0  0  0  0  0
    9.4219    8.9778  -13.2494 C   0  0  0  0  0  0  0  0  0  0  0  0
    7.9786    6.0200  -13.6885 C   0  0  0  0  0  0  0  0  0  0  0  0
    9.1860    5.6621  -14.9160 Cl  0  0  0  0  0  0  0  0  0  0  0  0
    6.7035    5.4329  -13.6657 C   0  0  0  0  0  0  0  0  0  0  0  0
    6.1763    4.2234  -14.8300 Cl  0  0  0  0  0  0  0  0  0  0  0  0
    4.3115    4.7054  -11.0758 C   0  0  0  0  0  0  0  0  0  0  0  0
    3.0284    4.2882  -10.7042 C   0  0  0  0  0  0  0  0  0  0  0  0
    1.9176    4.5539  -11.5319 C   0  0  0  0  0  0  0  0  0  0  0  0
    0.5579    4.0981  -11.1888 C   0  0  0  0  0  0  0  0  0  0  0  0
   -0.7542    5.1143  -10.9011 S   0  0  0  0  0  0  0  0  0  0  0  0
   -1.8766    3.8913  -10.6278 C   0  0  0  0  0  0  0  0  0  0  0  0
   -3.3355    4.1228  -10.3713 C   0  0  0  0  0  0  0  0  0  0  0  0
   -4.1136    4.1669  -11.6811 C   0  0  0  0  0  0  0  0  0  0  0  0
   -1.2406    2.6594  -10.7862 C   0  0  0  0  0  0  0  0  0  0  0  0
    0.1261    2.7760  -11.0907 C   0  0  0  0  0  0  0  0  0  0  0  0
    1.1667    1.3894  -11.3968 Cl  0  0  0  0  0  0  0  0  0  0  0  0
   -2.0686    1.1146  -10.6555 Cl  0  0  0  0  0  0  0  0  0  0  0  0
    2.1705    5.2645  -12.7166 C   0  0  0  0  0  0  0  0  0  0  0  0
    1.0780    5.7308  -13.9085 S   0  0  0  0  0  0  0  0  0  0  0  0
    3.0076    3.6147   -9.4740 C   0  0  0  0  0  0  0  0  0  0  0  0
    4.2763    3.4728   -8.9100 C   0  0  0  0  0  0  0  0  0  0  0  0
    5.4215    4.1946   -9.9157 S   0  0  0  0  0  0  0  0  0  0  0  0
    4.5691    2.7824   -7.6474 C   0  0  0  0  0  0  0  0  0  0  0  0
    5.8277    2.3721   -7.2003 C   0  0  0  0  0  0  0  0  0  0  0  0
    5.7735    1.6822   -5.9763 C   0  0  0  0  0  0  0  0  0  0  0  0
    6.8626    1.1289   -5.2616 C   0  0  0  0  0  0  0  0  0  0  0  0
    8.2469    1.1855   -5.7697 C   0  0  0  0  0  0  0  0  0  0  0  0
    8.7748    0.4629   -7.1954 S   0  0  0  0  0  0  0  0  0  0  0  0
   10.3937    0.8891   -7.0274 C   0  0  0  0  0  0  0  0  0  0  0  0
   11.4812    0.4879   -7.9797 C   0  0  0  0  0  0  0  0  0  0  0  0
   12.1538   -0.8026   -7.5248 C   0  0  0  0  0  0  0  0  0  0  0  0
   10.5478    1.5906   -5.8319 C   0  0  0  0  0  0  0  0  0  0  0  0
   12.0931    2.1945   -5.2537 Cl  0  0  0  0  0  0  0  0  0  0  0  0
    9.3426    1.7642   -5.1306 C   0  0  0  0  0  0  0  0  0  0  0  0
    9.2287    2.6671   -3.6238 Cl  0  0  0  0  0  0  0  0  0  0  0  0
    6.5571    0.4596   -4.0601 C   0  0  0  0  0  0  0  0  0  0  0  0
    5.2487    0.3556   -3.5767 C   0  0  0  0  0  0  0  0  0  0  0  0
    4.1745    0.9519   -4.2585 C   0  0  0  0  0  0  0  0  0  0  0  0
    2.8092    0.9535   -3.7044 C   0  0  0  0  0  0  0  0  0  0  0  0
    1.4736    0.2072   -4.4049 S   0  0  0  0  0  0  0  0  0  0  0  0
    0.3719    0.6662   -3.2170 C   0  0  0  0  0  0  0  0  0  0  0  0
   -1.0966    0.3758   -3.2583 C   0  0  0  0  0  0  0  0  0  0  0  0
   -1.8615    1.5372   -3.8860 C   0  0  0  0  0  0  0  0  0  0  0  0
    1.0370    1.4366   -2.2651 C   0  0  0  0  0  0  0  0  0  0  0  0
    2.4028    1.5947   -2.5345 C   0  0  0  0  0  0  0  0  0  0  0  0
    3.4833    2.5616   -1.5346 Cl  0  0  0  0  0  0  0  0  0  0  0  0
    0.2404    2.1729   -0.8794 Cl  0  0  0  0  0  0  0  0  0  0  0  0
    4.4710    1.5823   -5.4714 C   0  0  0  0  0  0  0  0  0  0  0  0
    3.3976    2.3195   -6.5302 S   0  0  0  0  0  0  0  0  0  0  0  0
    5.1468   -0.4173   -2.4209 C   0  0  0  0  0  0  0  0  0  0  0  0
    6.3692   -0.9126   -1.9847 C   0  0  0  0  0  0  0  0  0  0  0  0
    7.5914   -0.3963   -3.0291 S   0  0  0  0  0  0  0  0  0  0  0  0
    6.5213   -1.7691   -0.8084 C   0  0  0  0  0  0  0  0  0  0  0  0
    5.5474   -2.6739   -0.4017 C   0  0  0  0  0  0  0  0  0  0  0  0
    5.6995   -3.0894    0.9235 C   0  0  0  0  0  0  0  0  0  0  0  0
    4.7663   -3.8539    1.6421 C   0  0  0  0  0  0  0  0  0  0  0  0
    3.5338   -4.3662    1.0134 C   0  0  0  0  0  0  0  0  0  0  0  0
    1.9800   -3.8134    1.3576 S   0  0  0  0  0  0  0  0  0  0  0  0
    1.1816   -4.8486    0.3017 C   0  0  0  0  0  0  0  0  0  0  0  0
   -0.3079   -4.9182    0.1492 C   0  0  0  0  0  0  0  0  0  0  0  0
   -0.9238   -5.8116    1.2210 C   0  0  0  0  0  0  0  0  0  0  0  0
    2.1256   -5.6588   -0.3297 C   0  0  0  0  0  0  0  0  0  0  0  0
    1.7139   -6.9168   -1.4864 Cl  0  0  0  0  0  0  0  0  0  0  0  0
    3.4464   -5.3791    0.0610 C   0  0  0  0  0  0  0  0  0  0  0  0
    4.8449   -6.2472   -0.5558 Cl  0  0  0  0  0  0  0  0  0  0  0  0
    4.9623   -3.9461    3.0242 C   0  0  0  0  0  0  0  0  0  0  0  0
    6.0261   -3.3263    3.6896 C   0  0  0  0  0  0  0  0  0  0  0  0
    7.0132   -2.6266    2.9528 C   0  0  0  0  0  0  0  0  0  0  0  0
    8.1601   -1.9600    3.5982 C   0  0  0  0  0  0  0  0  0  0  0  0
    8.0568   -0.7496    4.7650 S   0  0  0  0  0  0  0  0  0  0  0  0
    9.7151   -0.5286    4.9489 C   0  0  0  0  0  0  0  0  0  0  0  0
   10.3464    0.3858    5.9545 C   0  0  0  0  0  0  0  0  0  0  0  0
   10.5843   -0.3470    7.2709 C   0  0  0  0  0  0  0  0  0  0  0  0
   10.3776   -1.4159    4.1016 C   0  0  0  0  0  0  0  0  0  0  0  0
    9.5073   -2.2123    3.3405 C   0  0  0  0  0  0  0  0  0  0  0  0
   10.0698   -3.4501    2.2223 Cl  0  0  0  0  0  0  0  0  0  0  0  0
   12.1299   -1.5404    4.0065 Cl  0  0  0  0  0  0  0  0  0  0  0  0
    6.8074   -2.5174    1.5618 C   0  0  0  0  0  0  0  0  0  0  0  0
    7.5885   -1.4883    0.4702 S   0  0  0  0  0  0  0  0  0  0  0  0
    5.8939   -3.3799    5.0946 C   0  0  0  0  0  0  0  0  0  0  0  0
    4.7165   -4.0110    5.5055 C   0  0  0  0  0  0  0  0  0  0  0  0
    3.8842   -4.5521    4.1483 S   0  0  0  0  0  0  0  0  0  0  0  0
    3.9919   -3.7686    6.7561 C   0  0  0  0  0  0  0  0  0  0  0  0
    2.6893   -3.8850    6.8159 O   0  0  0  0  0  0  0  0  0  0  0  0
    2.2586   -3.4260    7.9646 C   0  0  0  0  0  0  0  0  0  0  0  0
    3.3320   -3.0244    8.7487 C   0  0  0  0  0  0  0  0  0  0  0  0
    4.4500   -3.2512    7.9536 C   0  0  0  0  0  0  0  0  0  0  0  0
    5.7885   -2.9890    8.2693 O   0  0  0  0  0  0  0  0  0  0  0  0
    6.1958   -2.4516    9.5215 C   0  0  0  0  0  0  0  0  0  0  0  0
    0.8225   -3.2814    8.2087 C   0  0  0  0  0  0  0  0  0  0  0  0
    0.2899   -2.4190    9.0789 C   0  0  0  0  0  0  0  0  0  0  0  0
   -1.1023   -2.0074    8.8671 C   0  0  0  0  0  0  0  0  0  0  0  0
   -1.5289   -1.3598    7.7101 C   0  0  0  0  0  0  0  0  0  0  0  0
   -2.9126   -1.4398    7.5093 C   0  0  0  0  0  0  0  0  0  0  0  0
   -3.6195   -0.9597    6.3864 C   0  0  0  0  0  0  0  0  0  0  0  0
   -2.9369   -0.3428    5.2304 C   0  0  0  0  0  0  0  0  0  0  0  0
   -3.2524    1.2045    4.6442 S   0  0  0  0  0  0  0  0  0  0  0  0
   -2.1980    1.1231    3.3337 C   0  0  0  0  0  0  0  0  0  0  0  0
   -2.0340    2.2000    2.3079 C   0  0  0  0  0  0  0  0  0  0  0  0
   -3.0453    2.0354    1.1772 C   0  0  0  0  0  0  0  0  0  0  0  0
   -1.6038   -0.1400    3.3194 C   0  0  0  0  0  0  0  0  0  0  0  0
   -0.4827   -0.6705    2.0696 Cl  0  0  0  0  0  0  0  0  0  0  0  0
   -2.0176   -0.9604    4.3810 C   0  0  0  0  0  0  0  0  0  0  0  0
   -1.4981   -2.6341    4.5598 Cl  0  0  0  0  0  0  0  0  0  0  0  0
   -5.0061   -1.1924    6.3689 C   0  0  0  0  0  0  0  0  0  0  0  0
   -5.6639   -1.9091    7.3740 C   0  0  0  0  0  0  0  0  0  0  0  0
   -4.9541   -2.3851    8.4954 C   0  0  0  0  0  0  0  0  0  0  0  0
   -5.6213   -3.1389    9.5674 C   0  0  0  0  0  0  0  0  0  0  0  0
   -6.7326   -2.4805   10.6443 S   0  0  0  0  0  0  0  0  0  0  0  0
   -7.0647   -3.9171   11.4558 C   0  0  0  0  0  0  0  0  0  0  0  0
   -8.0926   -4.0558   12.5366 C   0  0  0  0  0  0  0  0  0  0  0  0
   -9.4623   -4.3656   11.9401 C   0  0  0  0  0  0  0  0  0  0  0  0
   -6.3314   -4.9456   10.8634 C   0  0  0  0  0  0  0  0  0  0  0  0
   -5.5185   -4.5077    9.8056 C   0  0  0  0  0  0  0  0  0  0  0  0
   -4.5351   -5.5864    8.8262 Cl  0  0  0  0  0  0  0  0  0  0  0  0
   -6.4517   -6.6286   11.3535 Cl  0  0  0  0  0  0  0  0  0  0  0  0
   -3.5739   -2.1320    8.5313 C   0  0  0  0  0  0  0  0  0  0  0  0
   -2.4359   -2.6696    9.6590 S   0  0  0  0  0  0  0  0  0  0  0  0
   -7.0137   -2.1596    7.0807 C   0  0  0  0  0  0  0  0  0  0  0  0
   -7.4106   -1.6192    5.8580 C   0  0  0  0  0  0  0  0  0  0  0  0
   -6.0949   -0.8502    5.1318 S   0  0  0  0  0  0  0  0  0  0  0  0
   -8.6902   -1.8692    5.1881 C   0  0  0  0  0  0  0  0  0  0  0  0
   -9.2332   -1.0886    4.1725 C   0  0  0  0  0  0  0  0  0  0  0  0
  -10.3750   -1.6651    3.5906 C   0  0  0  0  0  0  0  0  0  0  0  0
  -11.1466   -1.1198    2.5437 C   0  0  0  0  0  0  0  0  0  0  0  0
  -10.8054    0.1699    1.9206 C   0  0  0  0  0  0  0  0  0  0  0  0
   -9.3757    0.4847    1.0894 S   0  0  0  0  0  0  0  0  0  0  0  0
   -9.7047    2.1037    0.7741 C   0  0  0  0  0  0  0  0  0  0  0  0
   -8.7626    3.0403    0.0807 C   0  0  0  0  0  0  0  0  0  0  0  0
   -7.9180    3.8134    1.0903 C   0  0  0  0  0  0  0  0  0  0  0  0
  -10.9377    2.4266    1.3418 C   0  0  0  0  0  0  0  0  0  0  0  0
  -11.6361    4.0400    1.2901 Cl  0  0  0  0  0  0  0  0  0  0  0  0
  -11.5554    1.3418    1.9829 C   0  0  0  0  0  0  0  0  0  0  0  0
  -13.0823    1.4703    2.8466 Cl  0  0  0  0  0  0  0  0  0  0  0  0
  -12.2395   -1.8837    2.0978 C   0  0  0  0  0  0  0  0  0  0  0  0
  -12.5575   -3.1346    2.6396 C   0  0  0  0  0  0  0  0  0  0  0  0
  -11.7907   -3.6768    3.6908 C   0  0  0  0  0  0  0  0  0  0  0  0
  -12.0479   -5.0215    4.2457 C   0  0  0  0  0  0  0  0  0  0  0  0
  -10.9439   -6.2938    4.2103 S   0  0  0  0  0  0  0  0  0  0  0  0
  -11.9094   -7.3977    5.0330 C   0  0  0  0  0  0  0  0  0  0  0  0
  -11.4841   -8.7852    5.4051 C   0  0  0  0  0  0  0  0  0  0  0  0
  -10.8634   -8.8106    6.7985 C   0  0  0  0  0  0  0  0  0  0  0  0
  -13.1108   -6.7738    5.3685 C   0  0  0  0  0  0  0  0  0  0  0  0
  -13.1910   -5.4436    4.9215 C   0  0  0  0  0  0  0  0  0  0  0  0
  -14.5628   -4.3942    5.2545 Cl  0  0  0  0  0  0  0  0  0  0  0  0
  -14.3852   -7.5577    6.2915 Cl  0  0  0  0  0  0  0  0  0  0  0  0
  -10.7110   -2.9032    4.1505 C   0  0  0  0  0  0  0  0  0  0  0  0
   -9.6142   -3.2701    5.3746 S   0  0  0  0  0  0  0  0  0  0  0  0
  -13.6384   -3.7540    1.9899 C   0  0  0  0  0  0  0  0  0  0  0  0
  -14.1692   -2.9881    0.9549 C   0  0  0  0  0  0  0  0  0  0  0  0
  -13.2931   -1.5533    0.8273 S   0  0  0  0  0  0  0  0  0  0  0  0
    2.0033    6.9696  -15.8426 H   0  0  0  0  0  0  0  0  0  0  0  0
    4.3629    6.8020  -14.7558 H   0  0  0  0  0  0  0  0  0  0  0  0
   10.3325    7.1193  -12.6053 H   0  0  0  0  0  0  0  0  0  0  0  0
    9.4639    8.0189  -11.3143 H   0  0  0  0  0  0  0  0  0  0  0  0
    9.4336    8.7046  -14.3254 H   0  0  0  0  0  0  0  0  0  0  0  0
   10.3227    9.5858  -13.0272 H   0  0  0  0  0  0  0  0  0  0  0  0
    8.5187    9.5909  -13.0339 H   0  0  0  0  0  0  0  0  0  0  0  0
   -3.4651    5.0877   -9.8346 H   0  0  0  0  0  0  0  0  0  0  0  0
   -3.7422    3.3162   -9.7250 H   0  0  0  0  0  0  0  0  0  0  0  0
   -3.7243    4.9775  -12.3342 H   0  0  0  0  0  0  0  0  0  0  0  0
   -5.1853    4.3654  -11.4700 H   0  0  0  0  0  0  0  0  0  0  0  0
   -4.0301    3.1942  -12.2134 H   0  0  0  0  0  0  0  0  0  0  0  0
    2.1060    3.2298   -9.0135 H   0  0  0  0  0  0  0  0  0  0  0  0
    6.7416    2.5545   -7.7500 H   0  0  0  0  0  0  0  0  0  0  0  0
   12.2394    1.2977   -8.0506 H   0  0  0  0  0  0  0  0  0  0  0  0
   11.0492    0.3361   -8.9909 H   0  0  0  0  0  0  0  0  0  0  0  0
   11.4074   -1.6238   -7.4559 H   0  0  0  0  0  0  0  0  0  0  0  0
   12.6332   -0.6598   -6.5347 H   0  0  0  0  0  0  0  0  0  0  0  0
   12.9330   -1.0927   -8.2635 H   0  0  0  0  0  0  0  0  0  0  0  0
   -1.2764   -0.5438   -3.8550 H   0  0  0  0  0  0  0  0  0  0  0  0
   -1.4740    0.1953   -2.2307 H   0  0  0  0  0  0  0  0  0  0  0  0
   -2.9434    1.2948   -3.9157 H   0  0  0  0  0  0  0  0  0  0  0  0
   -1.5057    1.7169   -4.9243 H   0  0  0  0  0  0  0  0  0  0  0  0
   -1.7180    2.4631   -3.2846 H   0  0  0  0  0  0  0  0  0  0  0  0
    4.2110   -0.6197   -1.9140 H   0  0  0  0  0  0  0  0  0  0  0  0
    4.6979   -2.9370   -1.0204 H   0  0  0  0  0  0  0  0  0  0  0  0
   -0.7317   -3.8960    0.2393 H   0  0  0  0  0  0  0  0  0  0  0  0
   -0.5753   -5.3073   -0.8552 H   0  0  0  0  0  0  0  0  0  0  0  0
   -2.0245   -5.8376    1.0923 H   0  0  0  0  0  0  0  0  0  0  0  0
   -0.5302   -6.8472    1.1320 H   0  0  0  0  0  0  0  0  0  0  0  0
   -0.6918   -5.4152    2.2339 H   0  0  0  0  0  0  0  0  0  0  0  0
   11.3110    0.7720    5.5634 H   0  0  0  0  0  0  0  0  0  0  0  0
    9.6802    1.2546    6.1314 H   0  0  0  0  0  0  0  0  0  0  0  0
   11.0798    0.3355    7.9951 H   0  0  0  0  0  0  0  0  0  0  0  0
   11.2420   -1.2285    7.1120 H   0  0  0  0  0  0  0  0  0  0  0  0
    9.6180   -0.6866    7.7037 H   0  0  0  0  0  0  0  0  0  0  0  0
    6.5512   -2.8671    5.7784 H   0  0  0  0  0  0  0  0  0  0  0  0
    3.2995   -2.5819    9.7362 H   0  0  0  0  0  0  0  0  0  0  0  0
    5.8661   -3.1203   10.3483 H   0  0  0  0  0  0  0  0  0  0  0  0
    5.7646   -1.4361    9.6604 H   0  0  0  0  0  0  0  0  0  0  0  0
    7.3048   -2.3798    9.5423 H   0  0  0  0  0  0  0  0  0  0  0  0
    0.1699   -3.7453    7.4743 H   0  0  0  0  0  0  0  0  0  0  0  0
    0.9036   -1.8832    9.7933 H   0  0  0  0  0  0  0  0  0  0  0  0
   -0.8415   -0.9170    7.0003 H   0  0  0  0  0  0  0  0  0  0  0  0
   -2.1800    3.1916    2.7886 H   0  0  0  0  0  0  0  0  0  0  0  0
   -1.0057    2.1744    1.8924 H   0  0  0  0  0  0  0  0  0  0  0  0
   -2.8810    2.8283    0.4178 H   0  0  0  0  0  0  0  0  0  0  0  0
   -2.9274    1.0434    0.6869 H   0  0  0  0  0  0  0  0  0  0  0  0
   -4.0804    2.1308    1.5717 H   0  0  0  0  0  0  0  0  0  0  0  0
   -7.8002   -4.8626   13.2438 H   0  0  0  0  0  0  0  0  0  0  0  0
   -8.1506   -3.1069   13.1127 H   0  0  0  0  0  0  0  0  0  0  0  0
   -9.7903   -3.5324   11.2819 H   0  0  0  0  0  0  0  0  0  0  0  0
  -10.2092   -4.4817   12.7542 H   0  0  0  0  0  0  0  0  0  0  0  0
   -9.4253   -5.3064   11.3511 H   0  0  0  0  0  0  0  0  0  0  0  0
   -7.6689   -2.7515    7.7062 H   0  0  0  0  0  0  0  0  0  0  0  0
   -8.8072   -0.1432    3.8636 H   0  0  0  0  0  0  0  0  0  0  0  0
   -9.3352    3.7530   -0.5503 H   0  0  0  0  0  0  0  0  0  0  0  0
   -8.0939    2.4591   -0.5888 H   0  0  0  0  0  0  0  0  0  0  0  0
   -7.1934    4.4578    0.5491 H   0  0  0  0  0  0  0  0  0  0  0  0
   -8.5625    4.4593    1.7230 H   0  0  0  0  0  0  0  0  0  0  0  0
   -7.3490    3.1143    1.7389 H   0  0  0  0  0  0  0  0  0  0  0  0
  -12.3573   -9.4722    5.3773 H   0  0  0  0  0  0  0  0  0  0  0  0
  -10.7366   -9.1543    4.6690 H   0  0  0  0  0  0  0  0  0  0  0  0
  -11.6040   -8.4844    7.5591 H   0  0  0  0  0  0  0  0  0  0  0  0
  -10.5359   -9.8426    7.0411 H   0  0  0  0  0  0  0  0  0  0  0  0
   -9.9788   -8.1380    6.8387 H   0  0  0  0  0  0  0  0  0  0  0  0
  -14.0200   -4.7364    2.2405 H   0  0  0  0  0  0  0  0  0  0  0  0
  -14.9964   -3.2770    0.3213 H   0  0  0  0  0  0  0  0  0  0  0  0
  1  2  2  0
  2  3  1  0
  3  4  2  0
  4  5  1  0
  5  6  1  0
  6  7  1  0
  7  8  1  0
  8  9  1  0
  7 10  2  0
 10 11  1  0
 10 12  1  0
 12 13  1  0
  4 14  1  0
 14 15  2  0
 15 16  1  0
 16 17  1  0
 17 18  1  0
 18 19  1  0
 19 20  1  0
 20 21  1  0
 19 22  2  0
 22 23  1  0
 23 24  1  0
 22 25  1  0
 16 26  2  0
 26 27  1  0
 15 28  1  0
 28 29  2  0
 29 30  1  0
 29 31  1  0
 31 32  2  0
 32 33  1  0
 33 34  2  0
 34 35  1  0
 35 36  1  0
 36 37  1  0
 37 38  1  0
 38 39  1  0
 37 40  2  0
 40 41  1  0
 40 42  1  0
 42 43  1  0
 34 44  1  0
 44 45  2  0
 45 46  1  0
 46 47  1  0
 47 48  1  0
 48 49  1  0
 49 50  1  0
 50 51  1  0
 49 52  2  0
 52 53  1  0
 53 54  1  0
 52 55  1  0
 46 56  2  0
 56 57  1  0
 45 58  1  0
 58 59  2  0
 59 60  1  0
 59 61  1  0
 61 62  2  0
 62 63  1  0
 63 64  2  0
 64 65  1  0
 65 66  1  0
 66 67  1  0
 67 68  1  0
 68 69  1  0
 67 70  2  0
 70 71  1  0
 70 72  1  0
 72 73  1  0
 64 74  1  0
 74 75  2  0
 75 76  1  0
 76 77  1  0
 77 78  1  0
 78 79  1  0
 79 80  1  0
 80 81  1  0
 79 82  2  0
 82 83  1  0
 83 84  1  0
 82 85  1  0
 76 86  2  0
 86 87  1  0
 75 88  1  0
 88 89  2  0
 89 90  1  0
 89 91  1  0
 91 92  1  0
 92 93  1  0
 93 94  2  0
 94 95  1  0
 95 96  1  0
 96 97  1  0
 93 98  1  0
 98 99  2  3
 99100  1  0
100101  2  0
101102  1  0
102103  2  0
103104  1  0
104105  1  0
105106  1  0
106107  1  0
107108  1  0
106109  2  0
109110  1  0
109111  1  0
111112  1  0
103113  1  0
113114  2  0
114115  1  0
115116  1  0
116117  1  0
117118  1  0
118119  1  0
119120  1  0
118121  2  0
121122  1  0
122123  1  0
121124  1  0
115125  2  0
125126  1  0
114127  1  0
127128  2  0
128129  1  0
128130  1  0
130131  2  0
131132  1  0
132133  2  0
133134  1  0
134135  1  0
135136  1  0
136137  1  0
137138  1  0
136139  2  0
139140  1  0
139141  1  0
141142  1  0
133143  1  0
143144  2  0
144145  1  0
145146  1  0
146147  1  0
147148  1  0
148149  1  0
149150  1  0
148151  2  0
151152  1  0
152153  1  0
151154  1  0
145155  2  0
155156  1  0
144157  1  0
157158  2  0
158159  1  0
 27  1  1  0
 57 31  1  0
 87 61  1  0
 95 91  2  0
126100  1  0
156130  1  0
 26  3  1  0
 56 33  1  0
 86 63  1  0
125102  1  0
155132  1  0
 12  5  2  0
 30 14  1  0
 42 35  2  0
 60 44  1  0
 72 65  2  0
 90 74  1  0
111104  2  0
129113  1  0
141134  2  0
159143  1  0
 23 17  2  0
 53 47  2  0
 83 77  2  0
122116  2  0
152146  2  0
  1160  1  0
  2161  1  0
  8162  1  0
  8163  1  0
  9164  1  0
  9165  1  0
  9166  1  0
 20167  1  0
 20168  1  0
 21169  1  0
 21170  1  0
 21171  1  0
 28172  1  0
 32173  1  0
 38174  1  0
 38175  1  0
 39176  1  0
 39177  1  0
 39178  1  0
 50179  1  0
 50180  1  0
 51181  1  0
 51182  1  0
 51183  1  0
 58184  1  0
 62185  1  0
 68186  1  0
 68187  1  0
 69188  1  0
 69189  1  0
 69190  1  0
 80191  1  0
 80192  1  0
 81193  1  0
 81194  1  0
 81195  1  0
 88196  1  0
 94197  1  0
 97198  1  0
 97199  1  0
 97200  1  0
 98201  1  0
 99202  1  0
101203  1  0
107204  1  0
107205  1  0
108206  1  0
108207  1  0
108208  1  0
119209  1  0
119210  1  0
120211  1  0
120212  1  0
120213  1  0
127214  1  0
131215  1  0
137216  1  0
137217  1  0
138218  1  0
138219  1  0
138220  1  0
149221  1  0
149222  1  0
150223  1  0
150224  1  0
150225  1  0
157226  1  0
158227  1  0
M  END

