
     RDKit          3D

252275  0  0  0  0  0  0  0  0999 V2000
    1.4456   -4.5583    6.5031 C   0  0  0  0  0  0  0  0  0  0  0  0
    1.2103   -3.2050    6.2735 C   0  0  0  0  0  0  0  0  0  0  0  0
    0.2254   -2.9682    5.3012 C   0  0  0  0  0  0  0  0  0  0  0  0
   -0.2496   -1.7078    4.8770 C   0  0  0  0  0  0  0  0  0  0  0  0
    0.2407   -0.4364    5.4490 C   0  0  0  0  0  0  0  0  0  0  0  0
    0.1391   -0.1861    6.8288 C   0  0  0  0  0  0  0  0  0  0  0  0
    0.5950    1.0252    7.3576 C   0  0  0  0  0  0  0  0  0  0  0  0
    1.1373    2.0026    6.5120 C   0  0  0  0  0  0  0  0  0  0  0  0
    1.7967    3.5202    7.2060 S   0  0  0  0  0  0  0  0  0  0  0  0
    3.5345    2.9536    7.1606 C   0  0  0  0  0  0  0  0  0  0  0  0
    3.8140    1.9584    8.2764 C   0  0  0  0  0  0  0  0  0  0  0  0
    1.1872    1.7805    5.1320 C   0  0  0  0  0  0  0  0  0  0  0  0
    1.6608    2.7416    4.3001 F   0  0  0  0  0  0  0  0  0  0  0  0
    0.7621    0.5601    4.6066 C   0  0  0  0  0  0  0  0  0  0  0  0
   -1.2435   -1.7141    3.8831 C   0  0  0  0  0  0  0  0  0  0  0  0
   -1.7665   -2.8850    3.3293 C   0  0  0  0  0  0  0  0  0  0  0  0
   -1.3057   -4.1422    3.7702 C   0  0  0  0  0  0  0  0  0  0  0  0
   -1.9380   -5.4063    3.3151 C   0  0  0  0  0  0  0  0  0  0  0  0
   -1.1772   -6.4073    2.6919 C   0  0  0  0  0  0  0  0  0  0  0  0
   -1.7747   -7.6267    2.3394 C   0  0  0  0  0  0  0  0  0  0  0  0
   -3.1328   -7.8459    2.6059 C   0  0  0  0  0  0  0  0  0  0  0  0
   -3.8649   -9.4616    2.3022 S   0  0  0  0  0  0  0  0  0  0  0  0
   -4.7645   -9.0072    0.7752 C   0  0  0  0  0  0  0  0  0  0  0  0
   -3.9903   -9.4375   -0.4609 C   0  0  0  0  0  0  0  0  0  0  0  0
   -3.8947   -6.8396    3.2099 C   0  0  0  0  0  0  0  0  0  0  0  0
   -3.3012   -5.6212    3.5572 C   0  0  0  0  0  0  0  0  0  0  0  0
   -5.2107   -7.0331    3.4720 F   0  0  0  0  0  0  0  0  0  0  0  0
   -0.2955   -4.1422    4.7510 C   0  0  0  0  0  0  0  0  0  0  0  0
    0.4418   -5.4637    5.4973 S   0  0  0  0  0  0  0  0  0  0  0  0
   -2.7434   -2.6360    2.3409 C   0  0  0  0  0  0  0  0  0  0  0  0
   -3.0004   -1.2768    2.1475 C   0  0  0  0  0  0  0  0  0  0  0  0
   -2.0007   -0.3987    3.1824 S   0  0  0  0  0  0  0  0  0  0  0  0
   -3.8967   -0.6935    1.1228 C   0  0  0  0  0  0  0  0  0  0  0  0
   -4.4580   -1.5182   -0.2418 S   0  0  0  0  0  0  0  0  0  0  0  0
   -5.1881   -0.1933   -0.9874 C   0  0  0  0  0  0  0  0  0  0  0  0
   -4.9735    0.9288   -0.1839 C   0  0  0  0  0  0  0  0  0  0  0  0
   -4.3088    0.6464    1.0218 C   0  0  0  0  0  0  0  0  0  0  0  0
   -4.0471    1.7115    2.0647 C   0  0  0  0  0  0  0  0  0  0  0  0
   -4.8284    3.0194    1.8133 C   0  0  2  0  0  0  0  0  0  0  0  0
   -6.2466    2.9700    2.3337 C   0  0  0  0  0  0  0  0  0  0  0  0
   -6.9324    1.9169    2.2623 O   0  0  0  0  0  0  0  0  0  0  0  0
   -6.8253    4.1308    2.8426 O   0  0  0  0  0  0  0  0  0  0  0  0
   -4.7875    3.4116    0.3257 C   0  0  1  0  0  0  0  0  0  0  0  0
   -3.4514    3.6165   -0.0674 O   0  0  0  0  0  0  0  0  0  0  0  0
   -5.4299    2.3184   -0.5524 C   0  0  0  0  0  0  0  0  0  0  0  0
   -5.8827   -0.1723   -2.2873 C   0  0  0  0  0  0  0  0  0  0  0  0
   -6.0726   -1.2461   -3.0713 C   0  0  0  0  0  0  0  0  0  0  0  0
   -6.6924   -1.0946   -4.4087 C   0  0  0  0  0  0  0  0  0  0  0  0
   -6.9193    0.3735   -5.2034 S   0  0  0  0  0  0  0  0  0  0  0  0
   -7.6401   -0.2214   -6.5977 C   0  0  0  0  0  0  0  0  0  0  0  0
   -7.7437   -1.6046   -6.4398 C   0  0  0  0  0  0  0  0  0  0  0  0
   -7.1907   -2.0955   -5.2449 C   0  0  0  0  0  0  0  0  0  0  0  0
   -7.3365   -3.5463   -4.8872 C   0  0  0  0  0  0  0  0  0  0  0  0
   -7.2417   -4.4925   -6.1209 C   0  0  2  0  0  0  0  0  0  0  0  0
   -5.9105   -5.1981   -6.1428 C   0  0  0  0  0  0  0  0  0  0  0  0
   -4.8398   -4.5349   -6.2235 O   0  0  0  0  0  0  0  0  0  0  0  0
   -5.8530   -6.5895   -6.1001 O   0  0  0  0  0  0  0  0  0  0  0  0
   -7.5005   -3.8153   -7.5077 C   0  0  1  0  0  0  0  0  0  0  0  0
   -8.1079   -4.7271   -8.3859 O   0  0  0  0  0  0  0  0  0  0  0  0
   -8.3828   -2.5618   -7.4008 C   0  0  0  0  0  0  0  0  0  0  0  0
   -8.1933    0.5904   -7.7089 C   0  0  0  0  0  0  0  0  0  0  0  0
   -7.6233    1.7116   -8.1839 C   0  0  0  0  0  0  0  0  0  0  0  0
   -6.2859    2.1690   -7.7854 C   0  0  0  0  0  0  0  0  0  0  0  0
   -6.0101    3.0592   -6.7514 C   0  0  0  0  0  0  0  0  0  0  0  0
   -4.6438    3.0949   -6.4137 C   0  0  0  0  0  0  0  0  0  0  0  0
   -4.0652    3.7492   -5.3026 C   0  0  0  0  0  0  0  0  0  0  0  0
   -4.8540    4.6284   -4.4091 C   0  0  0  0  0  0  0  0  0  0  0  0
   -4.5101    5.9834   -4.2776 C   0  0  0  0  0  0  0  0  0  0  0  0
   -5.2919    6.8367   -3.4884 C   0  0  0  0  0  0  0  0  0  0  0  0
   -6.4231    6.3453   -2.8311 C   0  0  0  0  0  0  0  0  0  0  0  0
   -7.4977    7.4866   -1.9490 S   0  0  0  0  0  0  0  0  0  0  0  0
   -6.6628    7.3493   -0.3259 C   0  0  0  0  0  0  0  0  0  0  0  0
   -7.6854    7.0060    0.7472 C   0  0  0  0  0  0  0  0  0  0  0  0
   -6.7525    4.9864   -2.9260 C   0  0  0  0  0  0  0  0  0  0  0  0
   -7.8393    4.4937   -2.2889 F   0  0  0  0  0  0  0  0  0  0  0  0
   -5.9623    4.1305   -3.7056 C   0  0  0  0  0  0  0  0  0  0  0  0
   -2.6979    3.5131   -5.0739 C   0  0  0  0  0  0  0  0  0  0  0  0
   -1.9126    2.7296   -5.9284 C   0  0  0  0  0  0  0  0  0  0  0  0
   -2.4766    2.1238   -7.0721 C   0  0  0  0  0  0  0  0  0  0  0  0
   -1.6841    1.3239   -8.0333 C   0  0  0  0  0  0  0  0  0  0  0  0
   -1.6884    1.6691   -9.3974 C   0  0  0  0  0  0  0  0  0  0  0  0
   -0.9965    0.8916  -10.3228 C   0  0  0  0  0  0  0  0  0  0  0  0
   -0.2442   -0.2092   -9.8991 C   0  0  0  0  0  0  0  0  0  0  0  0
    0.6395   -1.2034  -11.1027 S   0  0  0  0  0  0  0  0  0  0  0  0
    2.1236   -0.1315  -11.1767 C   0  0  0  0  0  0  0  0  0  0  0  0
    2.0082    0.8840  -12.3126 C   0  0  0  0  0  0  0  0  0  0  0  0
   -0.2290   -0.5536   -8.5396 C   0  0  0  0  0  0  0  0  0  0  0  0
   -0.9621    0.1961   -7.6149 C   0  0  0  0  0  0  0  0  0  0  0  0
    0.4674   -1.6396   -8.1194 F   0  0  0  0  0  0  0  0  0  0  0  0
   -3.8585    2.2982   -7.2578 C   0  0  0  0  0  0  0  0  0  0  0  0
   -4.8544    1.4950   -8.3515 S   0  0  0  0  0  0  0  0  0  0  0  0
   -0.6018    2.5551   -5.4611 C   0  0  0  0  0  0  0  0  0  0  0  0
   -0.3839    3.1246   -4.2092 C   0  0  0  0  0  0  0  0  0  0  0  0
   -1.7923    3.9211   -3.7161 S   0  0  0  0  0  0  0  0  0  0  0  0
    0.7283    2.7457   -3.3217 C   0  0  0  0  0  0  0  0  0  0  0  0
    0.9100    3.1792   -2.0083 C   0  0  0  0  0  0  0  0  0  0  0  0
    1.8320    2.3921   -1.2929 C   0  0  0  0  0  0  0  0  0  0  0  0
    2.2025    2.5369    0.0666 C   0  0  0  0  0  0  0  0  0  0  0  0
    1.7406    3.6768    0.8861 C   0  0  0  0  0  0  0  0  0  0  0  0
    2.6795    4.5903    1.3945 C   0  0  0  0  0  0  0  0  0  0  0  0
    2.2540    5.7000    2.1281 C   0  0  0  0  0  0  0  0  0  0  0  0
    0.8897    5.9241    2.3337 C   0  0  0  0  0  0  0  0  0  0  0  0
    0.3526    7.3928    3.2096 S   0  0  0  0  0  0  0  0  0  0  0  0
    0.1113    8.3987    1.7011 C   0  0  0  0  0  0  0  0  0  0  0  0
    1.4330    8.9831    1.2134 C   0  0  0  0  0  0  0  0  0  0  0  0
   -0.0512    4.9961    1.8587 C   0  0  0  0  0  0  0  0  0  0  0  0
   -1.3760    5.1946    2.0649 F   0  0  0  0  0  0  0  0  0  0  0  0
    0.3772    3.8700    1.1453 C   0  0  0  0  0  0  0  0  0  0  0  0
    3.0667    1.5618    0.5946 C   0  0  0  0  0  0  0  0  0  0  0  0
    3.5678    0.5090   -0.1734 C   0  0  0  0  0  0  0  0  0  0  0  0
    3.2565    0.3954   -1.5410 C   0  0  0  0  0  0  0  0  0  0  0  0
    3.7795   -0.7310   -2.3551 C   0  0  0  0  0  0  0  0  0  0  0  0
    2.8980   -1.6704   -2.9149 C   0  0  0  0  0  0  0  0  0  0  0  0
    3.3948   -2.8088   -3.5537 C   0  0  0  0  0  0  0  0  0  0  0  0
    4.7754   -3.0347   -3.6179 C   0  0  0  0  0  0  0  0  0  0  0  0
    5.3894   -4.5827   -4.2926 S   0  0  0  0  0  0  0  0  0  0  0  0
    5.6387   -3.9577   -5.9984 C   0  0  0  0  0  0  0  0  0  0  0  0
    7.0709   -4.2242   -6.4422 C   0  0  0  0  0  0  0  0  0  0  0  0
    5.6621   -2.0874   -3.0941 C   0  0  0  0  0  0  0  0  0  0  0  0
    5.1649   -0.9321   -2.4805 C   0  0  0  0  0  0  0  0  0  0  0  0
    7.0007   -2.2856   -3.1677 F   0  0  0  0  0  0  0  0  0  0  0  0
    2.3689    1.3504   -2.0603 C   0  0  0  0  0  0  0  0  0  0  0  0
    1.7291    1.4162   -3.6076 S   0  0  0  0  0  0  0  0  0  0  0  0
    4.3183   -0.4066    0.5691 C   0  0  0  0  0  0  0  0  0  0  0  0
    4.4130   -0.0807    1.9192 C   0  0  0  0  0  0  0  0  0  0  0  0
    3.5740    1.3599    2.1931 S   0  0  0  0  0  0  0  0  0  0  0  0
    5.0817   -0.9186    2.9302 C   0  0  0  0  0  0  0  0  0  0  0  0
    5.6361   -2.1681    2.6676 C   0  0  0  0  0  0  0  0  0  0  0  0
    6.2154   -2.7644    3.7872 C   0  0  0  0  0  0  0  0  0  0  0  0
    6.8531   -4.0167    3.8054 C   0  0  0  0  0  0  0  0  0  0  0  0
    6.8730   -4.8907    2.6121 C   0  0  0  0  0  0  0  0  0  0  0  0
    8.0794   -5.1577    1.9467 C   0  0  0  0  0  0  0  0  0  0  0  0
    8.0811   -5.9123    0.7705 C   0  0  0  0  0  0  0  0  0  0  0  0
    6.8789   -6.4200    0.2555 C   0  0  0  0  0  0  0  0  0  0  0  0
    6.8833   -7.3629   -1.2755 S   0  0  0  0  0  0  0  0  0  0  0  0
    7.0054   -8.9982   -0.4662 C   0  0  0  0  0  0  0  0  0  0  0  0
    8.4514   -9.3241   -0.1164 C   0  0  0  0  0  0  0  0  0  0  0  0
    5.6730   -6.1533    0.9159 C   0  0  0  0  0  0  0  0  0  0  0  0
    4.5000   -6.6173    0.4140 F   0  0  0  0  0  0  0  0  0  0  0  0
    5.6694   -5.3934    2.0892 C   0  0  0  0  0  0  0  0  0  0  0  0
    7.4381   -4.4100    5.0179 C   0  0  0  0  0  0  0  0  0  0  0  0
    7.3747   -3.6284    6.1731 C   0  0  0  0  0  0  0  0  0  0  0  0
    6.6991   -2.3842    6.1671 C   0  0  0  0  0  0  0  0  0  0  0  0
    6.6189   -1.5446    7.3853 C   0  0  0  0  0  0  0  0  0  0  0  0
    7.2675   -0.3019    7.4312 C   0  0  0  0  0  0  0  0  0  0  0  0
    7.3530    0.4030    8.6379 C   0  0  0  0  0  0  0  0  0  0  0  0
    6.7774   -0.1188    9.8014 C   0  0  0  0  0  0  0  0  0  0  0  0
    7.0372    0.7058   11.3765 S   0  0  0  0  0  0  0  0  0  0  0  0
    5.4899    1.6733   11.3171 C   0  0  0  0  0  0  0  0  0  0  0  0
    5.1593    2.2205   12.6989 C   0  0  0  0  0  0  0  0  0  0  0  0
    6.0730   -1.3328    9.7458 C   0  0  0  0  0  0  0  0  0  0  0  0
    5.9963   -2.0410    8.5419 C   0  0  0  0  0  0  0  0  0  0  0  0
    5.5020   -1.8478   10.8621 F   0  0  0  0  0  0  0  0  0  0  0  0
    6.1389   -1.9713    4.9388 C   0  0  0  0  0  0  0  0  0  0  0  0
    5.3109   -0.5450    4.5698 S   0  0  0  0  0  0  0  0  0  0  0  0
    8.0582   -4.2045    7.2548 C   0  0  0  0  0  0  0  0  0  0  0  0
    8.6361   -5.4324    6.9518 C   0  0  0  0  0  0  0  0  0  0  0  0
    8.3095   -5.8102    5.3419 S   0  0  0  0  0  0  0  0  0  0  0  0
    2.1494   -4.9601    7.2165 H   0  0  0  0  0  0  0  0  0  0  0  0
    1.7385   -2.4292    6.8093 H   0  0  0  0  0  0  0  0  0  0  0  0
   -0.2970   -0.9255    7.4925 H   0  0  0  0  0  0  0  0  0  0  0  0
    0.5322    1.1999    8.4272 H   0  0  0  0  0  0  0  0  0  0  0  0
    4.1937    3.8403    7.2900 H   0  0  0  0  0  0  0  0  0  0  0  0
    3.7762    2.4943    6.1764 H   0  0  0  0  0  0  0  0  0  0  0  0
    4.8967    1.7362    8.3064 H   0  0  0  0  0  0  0  0  0  0  0  0
    3.2599    1.0116    8.1073 H   0  0  0  0  0  0  0  0  0  0  0  0
    3.5011    2.3976    9.2480 H   0  0  0  0  0  0  0  0  0  0  0  0
    0.8328    0.3914    3.5389 H   0  0  0  0  0  0  0  0  0  0  0  0
   -0.1218   -6.2527    2.4951 H   0  0  0  0  0  0  0  0  0  0  0  0
   -1.1731   -8.4024    1.8843 H   0  0  0  0  0  0  0  0  0  0  0  0
   -4.9721   -7.9193    0.7231 H   0  0  0  0  0  0  0  0  0  0  0  0
   -5.7373   -9.5450    0.7833 H   0  0  0  0  0  0  0  0  0  0  0  0
   -3.0371   -8.8723   -0.5264 H   0  0  0  0  0  0  0  0  0  0  0  0
   -3.7743  -10.5276   -0.4161 H   0  0  0  0  0  0  0  0  0  0  0  0
   -4.6047   -9.2362   -1.3644 H   0  0  0  0  0  0  0  0  0  0  0  0
   -3.8996   -4.8555    4.0392 H   0  0  0  0  0  0  0  0  0  0  0  0
   -3.2380   -3.4193    1.7832 H   0  0  0  0  0  0  0  0  0  0  0  0
   -4.2923    1.3228    3.0760 H   0  0  0  0  0  0  0  0  0  0  0  0
   -2.9652    1.9589    2.0393 H   0  0  0  0  0  0  0  0  0  0  0  0
   -4.3163    3.8224    2.3840 H   0  0  0  0  0  0  0  0  0  0  0  0
   -7.7710    4.1339    3.1965 H   0  0  0  0  0  0  0  0  0  0  0  0
   -5.3605    4.3545    0.1884 H   0  0  0  0  0  0  0  0  0  0  0  0
   -3.4710    4.1424   -0.9066 H   0  0  0  0  0  0  0  0  0  0  0  0
   -6.5383    2.3689   -0.4598 H   0  0  0  0  0  0  0  0  0  0  0  0
   -5.1651    2.5208   -1.6094 H   0  0  0  0  0  0  0  0  0  0  0  0
   -6.2778    0.7788   -2.6086 H   0  0  0  0  0  0  0  0  0  0  0  0
   -5.7433   -2.2224   -2.7425 H   0  0  0  0  0  0  0  0  0  0  0  0
   -8.3411   -3.6619   -4.4276 H   0  0  0  0  0  0  0  0  0  0  0  0
   -6.5980   -3.8367   -4.1126 H   0  0  0  0  0  0  0  0  0  0  0  0
   -8.0215   -5.2779   -5.9797 H   0  0  0  0  0  0  0  0  0  0  0  0
   -4.9641   -7.0736   -6.1313 H   0  0  0  0  0  0  0  0  0  0  0  0
   -6.5326   -3.4781   -7.9522 H   0  0  0  0  0  0  0  0  0  0  0  0
   -7.4073   -5.3780   -8.6518 H   0  0  0  0  0  0  0  0  0  0  0  0
   -9.3952   -2.8357   -7.0296 H   0  0  0  0  0  0  0  0  0  0  0  0
   -8.4867   -2.0970   -8.4073 H   0  0  0  0  0  0  0  0  0  0  0  0
   -9.1080    0.2537   -8.1770 H   0  0  0  0  0  0  0  0  0  0  0  0
   -8.1123    2.2450   -8.9913 H   0  0  0  0  0  0  0  0  0  0  0  0
   -6.7870    3.5822   -6.2070 H   0  0  0  0  0  0  0  0  0  0  0  0
   -3.6581    6.3855   -4.8095 H   0  0  0  0  0  0  0  0  0  0  0  0
   -5.0278    7.8835   -3.4076 H   0  0  0  0  0  0  0  0  0  0  0  0
   -6.1888    8.3240   -0.0810 H   0  0  0  0  0  0  0  0  0  0  0  0
   -5.8696    6.5700   -0.3326 H   0  0  0  0  0  0  0  0  0  0  0  0
   -8.4206    7.8335    0.8524 H   0  0  0  0  0  0  0  0  0  0  0  0
   -8.2203    6.0715    0.4730 H   0  0  0  0  0  0  0  0  0  0  0  0
   -7.1672    6.8623    1.7175 H   0  0  0  0  0  0  0  0  0  0  0  0
   -6.2250    3.0825   -3.7792 H   0  0  0  0  0  0  0  0  0  0  0  0
   -2.2452    2.5307   -9.7448 H   0  0  0  0  0  0  0  0  0  0  0  0
   -1.0464    1.1513  -11.3712 H   0  0  0  0  0  0  0  0  0  0  0  0
    2.2927    0.3997  -10.2130 H   0  0  0  0  0  0  0  0  0  0  0  0
    3.0038   -0.7846  -11.3664 H   0  0  0  0  0  0  0  0  0  0  0  0
    1.1900    1.6045  -12.1057 H   0  0  0  0  0  0  0  0  0  0  0  0
    1.8062    0.3679  -13.2774 H   0  0  0  0  0  0  0  0  0  0  0  0
    2.9622    1.4470  -12.4026 H   0  0  0  0  0  0  0  0  0  0  0  0
   -0.9816   -0.1084   -6.5764 H   0  0  0  0  0  0  0  0  0  0  0  0
    0.1478    1.9603   -5.9644 H   0  0  0  0  0  0  0  0  0  0  0  0
    0.3476    3.9984   -1.5725 H   0  0  0  0  0  0  0  0  0  0  0  0
    3.7374    4.4500    1.2035 H   0  0  0  0  0  0  0  0  0  0  0  0
    2.9897    6.3983    2.5127 H   0  0  0  0  0  0  0  0  0  0  0  0
   -0.3555    7.7898    0.8968 H   0  0  0  0  0  0  0  0  0  0  0  0
   -0.5831    9.2318    1.9460 H   0  0  0  0  0  0  0  0  0  0  0  0
    2.1370    8.1766    0.9300 H   0  0  0  0  0  0  0  0  0  0  0  0
    1.8923    9.6053    2.0085 H   0  0  0  0  0  0  0  0  0  0  0  0
    1.2486    9.6201    0.3216 H   0  0  0  0  0  0  0  0  0  0  0  0
   -0.3589    3.1546    0.7888 H   0  0  0  0  0  0  0  0  0  0  0  0
    1.8287   -1.5435   -2.8194 H   0  0  0  0  0  0  0  0  0  0  0  0
    2.7077   -3.5445   -3.9554 H   0  0  0  0  0  0  0  0  0  0  0  0
    5.4275   -2.8682   -6.0881 H   0  0  0  0  0  0  0  0  0  0  0  0
    4.9449   -4.5004   -6.6779 H   0  0  0  0  0  0  0  0  0  0  0  0
    7.2208   -3.8374   -7.4733 H   0  0  0  0  0  0  0  0  0  0  0  0
    7.7759   -3.7106   -5.7530 H   0  0  0  0  0  0  0  0  0  0  0  0
    7.2658   -5.3183   -6.4327 H   0  0  0  0  0  0  0  0  0  0  0  0
    5.8628   -0.2125   -2.0677 H   0  0  0  0  0  0  0  0  0  0  0  0
    4.7419   -1.3020    0.1413 H   0  0  0  0  0  0  0  0  0  0  0  0
    5.6348   -2.6310    1.6897 H   0  0  0  0  0  0  0  0  0  0  0  0
    9.0156   -4.7532    2.3225 H   0  0  0  0  0  0  0  0  0  0  0  0
    9.0131   -6.0938    0.2509 H   0  0  0  0  0  0  0  0  0  0  0  0
    6.3722   -9.0370    0.4474 H   0  0  0  0  0  0  0  0  0  0  0  0
    6.6310   -9.7638   -1.1783 H   0  0  0  0  0  0  0  0  0  0  0  0
    9.1036   -9.1857   -1.0078 H   0  0  0  0  0  0  0  0  0  0  0  0
    8.5248  -10.3775    0.2195 H   0  0  0  0  0  0  0  0  0  0  0  0
    8.8070   -8.6670    0.7026 H   0  0  0  0  0  0  0  0  0  0  0  0
    4.7297   -5.1779    2.5814 H   0  0  0  0  0  0  0  0  0  0  0  0
    7.7699    0.0890    6.5512 H   0  0  0  0  0  0  0  0  0  0  0  0
    7.8911    1.3350    8.6739 H   0  0  0  0  0  0  0  0  0  0  0  0
    5.6201    2.5214   10.6110 H   0  0  0  0  0  0  0  0  0  0  0  0
    4.6503    1.0298   10.9758 H   0  0  0  0  0  0  0  0  0  0  0  0
    5.9818    2.8768   13.0568 H   0  0  0  0  0  0  0  0  0  0  0  0
    5.0217    1.3734   13.4075 H   0  0  0  0  0  0  0  0  0  0  0  0
    4.2223    2.8125   12.6536 H   0  0  0  0  0  0  0  0  0  0  0  0
    5.4954   -3.0003    8.5227 H   0  0  0  0  0  0  0  0  0  0  0  0
    8.1465   -3.7510    8.2349 H   0  0  0  0  0  0  0  0  0  0  0  0
    9.2079   -6.0467    7.6365 H   0  0  0  0  0  0  0  0  0  0  0  0
  1  2  2  0
  2  3  1  0
  3  4  2  0
  4  5  1  0
  5  6  2  0
  6  7  1  0
  7  8  2  0
  8  9  1  0
  9 10  1  0
 10 11  1  0
  8 12  1  0
 12 13  1  0
 12 14  2  0
  4 15  1  0
 15 16  2  0
 16 17  1  0
 17 18  1  0
 18 19  2  0
 19 20  1  0
 20 21  2  0
 21 22  1  0
 22 23  1  0
 23 24  1  0
 21 25  1  0
 25 26  2  0
 25 27  1  0
 17 28  2  0
 28 29  1  0
 16 30  1  0
 30 31  2  0
 31 32  1  0
 31 33  1  0
 33 34  1  0
 34 35  1  0
 35 36  2  0
 36 37  1  0
 37 38  1  0
 38 39  1  0
 39 40  1  0
 40 41  2  0
 40 42  1  0
 39 43  1  0
 43 44  1  0
 43 45  1  0
 35 46  1  0
 46 47  2  3
 47 48  1  0
 48 49  1  0
 49 50  1  0
 50 51  2  0
 51 52  1  0
 52 53  1  0
 53 54  1  0
 54 55  1  0
 55 56  2  0
 55 57  1  0
 54 58  1  0
 58 59  1  0
 58 60  1  0
 50 61  1  0
 61 62  2  3
 62 63  1  0
 63 64  2  0
 64 65  1  0
 65 66  2  0
 66 67  1  0
 67 68  2  0
 68 69  1  0
 69 70  2  0
 70 71  1  0
 71 72  1  0
 72 73  1  0
 70 74  1  0
 74 75  1  0
 74 76  2  0
 66 77  1  0
 77 78  2  0
 78 79  1  0
 79 80  1  0
 80 81  2  0
 81 82  1  0
 82 83  2  0
 83 84  1  0
 84 85  1  0
 85 86  1  0
 83 87  1  0
 87 88  2  0
 87 89  1  0
 79 90  2  0
 90 91  1  0
 78 92  1  0
 92 93  2  0
 93 94  1  0
 93 95  1  0
 95 96  2  0
 96 97  1  0
 97 98  2  0
 98 99  1  0
 99100  2  0
100101  1  0
101102  2  0
102103  1  0
103104  1  0
104105  1  0
102106  1  0
106107  1  0
106108  2  0
 98109  1  0
109110  2  0
110111  1  0
111112  1  0
112113  2  0
113114  1  0
114115  2  0
115116  1  0
116117  1  0
117118  1  0
115119  1  0
119120  2  0
119121  1  0
111122  2  0
122123  1  0
110124  1  0
124125  2  0
125126  1  0
125127  1  0
127128  2  0
128129  1  0
129130  2  0
130131  1  0
131132  2  0
132133  1  0
133134  2  0
134135  1  0
135136  1  0
136137  1  0
134138  1  0
138139  1  0
138140  2  0
130141  1  0
141142  2  0
142143  1  0
143144  1  0
144145  2  0
145146  1  0
146147  2  0
147148  1  0
148149  1  0
149150  1  0
147151  1  0
151152  2  0
151153  1  0
143154  2  0
154155  1  0
142156  1  0
156157  2  0
157158  1  0
 29  1  1  0
 37 33  2  0
 52 48  2  0
 91 63  1  0
123 95  1  0
155127  1  0
 28  3  1  0
 45 36  1  0
 60 51  1  0
 90 65  1  0
122 97  1  0
154129  1  0
 14  5  1  0
 32 15  1  0
 76 67  1  0
 94 77  1  0
108 99  1  0
126109  1  0
140131  1  0
158141  1  0
 26 18  1  0
 88 80  1  0
120112  1  0
152144  1  0
  1159  1  0
  2160  1  0
  6161  1  0
  7162  1  0
 10163  1  0
 10164  1  0
 11165  1  0
 11166  1  0
 11167  1  0
 14168  1  0
 19169  1  0
 20170  1  0
 23171  1  0
 23172  1  0
 24173  1  0
 24174  1  0
 24175  1  0
 26176  1  0
 30177  1  0
 38178  1  0
 38179  1  0
 39180  1  1
 42181  1  0
 43182  1  1
 44183  1  0
 45184  1  0
 45185  1  0
 46186  1  0
 47187  1  0
 53188  1  0
 53189  1  0
 54190  1  1
 57191  1  0
 58192  1  6
 59193  1  0
 60194  1  0
 60195  1  0
 61196  1  0
 62197  1  0
 64198  1  0
 68199  1  0
 69200  1  0
 72201  1  0
 72202  1  0
 73203  1  0
 73204  1  0
 73205  1  0
 76206  1  0
 81207  1  0
 82208  1  0
 85209  1  0
 85210  1  0
 86211  1  0
 86212  1  0
 86213  1  0
 88214  1  0
 92215  1  0
 96216  1  0
100217  1  0
101218  1  0
104219  1  0
104220  1  0
105221  1  0
105222  1  0
105223  1  0
108224  1  0
113225  1  0
114226  1  0
117227  1  0
117228  1  0
118229  1  0
118230  1  0
118231  1  0
120232  1  0
124233  1  0
128234  1  0
132235  1  0
133236  1  0
136237  1  0
136238  1  0
137239  1  0
137240  1  0
137241  1  0
140242  1  0
145243  1  0
146244  1  0
149245  1  0
149246  1  0
150247  1  0
150248  1  0
150249  1  0
152250  1  0
156251  1  0
157252  1  0
M  END

