
     RDKit          3D

302331  0  0  0  0  0  0  0  0999 V2000
   -3.6432   -7.9043   12.2431 C   0  0  0  0  0  0  0  0  0  0  0  0
   -2.7616   -7.0355   11.6088 C   0  0  0  0  0  0  0  0  0  0  0  0
   -2.9871   -6.9389   10.2288 C   0  0  0  0  0  0  0  0  0  0  0  0
   -2.2814   -6.1281    9.3216 C   0  0  0  0  0  0  0  0  0  0  0  0
   -1.2508   -5.1489    9.7208 C   0  0  0  0  0  0  0  0  0  0  0  0
    0.0540   -5.5707   10.0165 C   0  0  0  0  0  0  0  0  0  0  0  0
    1.1026   -4.6434   10.0294 C   0  0  0  0  0  0  0  0  0  0  0  0
    0.8579   -3.2987    9.7260 C   0  0  0  0  0  0  0  0  0  0  0  0
    2.2280   -2.1533    9.5191 S   0  0  0  0  0  0  0  0  0  0  0  0
    2.1243   -1.4201   11.1879 C   0  0  0  0  0  0  0  0  0  0  0  0
    2.0200    0.0937   11.0715 C   0  0  0  0  0  0  0  0  0  0  0  0
   -0.4564   -2.8640    9.5033 C   0  0  0  0  0  0  0  0  0  0  0  0
   -0.7119   -1.5617    9.2191 F   0  0  0  0  0  0  0  0  0  0  0  0
   -1.5044   -3.7850    9.5152 C   0  0  0  0  0  0  0  0  0  0  0  0
   -2.6755   -6.1915    7.9764 C   0  0  0  0  0  0  0  0  0  0  0  0
   -3.7539   -6.9563    7.5254 C   0  0  0  0  0  0  0  0  0  0  0  0
   -4.4812   -7.7454    8.4394 C   0  0  0  0  0  0  0  0  0  0  0  0
   -5.6973   -8.4784    8.0502 C   0  0  0  0  0  0  0  0  0  0  0  0
   -5.6297   -9.8217    7.6598 C   0  0  0  0  0  0  0  0  0  0  0  0
   -6.8011  -10.5191    7.3469 C   0  0  0  0  0  0  0  0  0  0  0  0
   -8.0412   -9.8726    7.4098 C   0  0  0  0  0  0  0  0  0  0  0  0
   -9.5394  -10.7923    7.0353 S   0  0  0  0  0  0  0  0  0  0  0  0
   -9.4665  -10.5162    5.2305 C   0  0  0  0  0  0  0  0  0  0  0  0
  -10.0892   -9.1780    4.8557 C   0  0  0  0  0  0  0  0  0  0  0  0
   -8.1108   -8.5325    7.8097 C   0  0  0  0  0  0  0  0  0  0  0  0
   -6.9395   -7.8343    8.1230 C   0  0  0  0  0  0  0  0  0  0  0  0
   -9.3076   -7.9044    7.9189 F   0  0  0  0  0  0  0  0  0  0  0  0
   -4.0541   -7.7249    9.7839 C   0  0  0  0  0  0  0  0  0  0  0  0
   -4.7130   -8.5375   11.1018 S   0  0  0  0  0  0  0  0  0  0  0  0
   -4.0156   -6.7872    6.1484 C   0  0  0  0  0  0  0  0  0  0  0  0
   -3.1214   -5.8928    5.5429 C   0  0  0  0  0  0  0  0  0  0  0  0
   -2.0300   -5.3331    6.6946 S   0  0  0  0  0  0  0  0  0  0  0  0
   -3.1504   -5.3701    4.1707 C   0  0  0  0  0  0  0  0  0  0  0  0
   -2.3373   -4.3271    3.7210 C   0  0  0  0  0  0  0  0  0  0  0  0
   -2.6367   -3.9127    2.4183 C   0  0  0  0  0  0  0  0  0  0  0  0
   -2.0551   -2.8221    1.7434 C   0  0  0  0  0  0  0  0  0  0  0  0
   -1.0629   -1.9358    2.3987 C   0  0  0  0  0  0  0  0  0  0  0  0
    0.1778   -2.4386    2.8138 C   0  0  0  0  0  0  0  0  0  0  0  0
    1.0790   -1.6174    3.5026 C   0  0  0  0  0  0  0  0  0  0  0  0
    0.7493   -0.2818    3.7893 C   0  0  0  0  0  0  0  0  0  0  0  0
    1.5994    0.5616    4.5174 O   0  0  0  0  0  0  0  0  0  0  0  0
    2.8256    0.1440    5.1117 C   0  0  0  0  0  0  0  0  0  0  0  0
    3.4462    1.3113    5.8590 C   0  0  0  0  0  0  0  0  0  0  0  0
   -0.4762    0.2260    3.3450 C   0  0  0  0  0  0  0  0  0  0  0  0
   -1.3764   -0.5944    2.6590 C   0  0  0  0  0  0  0  0  0  0  0  0
   -2.5692   -2.5267    0.4715 C   0  0  0  0  0  0  0  0  0  0  0  0
   -3.6489   -3.2157   -0.0961 C   0  0  0  0  0  0  0  0  0  0  0  0
   -4.2295   -4.3092    0.5840 C   0  0  0  0  0  0  0  0  0  0  0  0
   -5.3640   -5.0742    0.0333 C   0  0  0  0  0  0  0  0  0  0  0  0
   -6.5986   -4.4577   -0.2118 C   0  0  0  0  0  0  0  0  0  0  0  0
   -7.6692   -5.2049   -0.7121 C   0  0  0  0  0  0  0  0  0  0  0  0
   -7.5236   -6.5753   -0.9660 C   0  0  0  0  0  0  0  0  0  0  0  0
   -8.6266   -7.2764   -1.4856 O   0  0  0  0  0  0  0  0  0  0  0  0
   -8.6108   -8.6353   -1.9197 C   0  0  0  0  0  0  0  0  0  0  0  0
   -7.8693   -8.7753   -3.2487 C   0  0  0  0  0  0  0  0  0  0  0  0
   -6.2934   -7.1979   -0.6883 C   0  0  0  0  0  0  0  0  0  0  0  0
   -5.2219   -6.4508   -0.2004 C   0  0  0  0  0  0  0  0  0  0  0  0
   -3.6863   -4.6370    1.8428 C   0  0  0  0  0  0  0  0  0  0  0  0
   -4.2466   -5.7829    2.9525 S   0  0  0  0  0  0  0  0  0  0  0  0
   -4.0706   -2.6596   -1.3228 C   0  0  0  0  0  0  0  0  0  0  0  0
   -3.2974   -1.5619   -1.7102 C   0  0  0  0  0  0  0  0  0  0  0  0
   -2.1218   -1.2716   -0.5392 S   0  0  0  0  0  0  0  0  0  0  0  0
   -3.6938   -0.5142   -2.6562 C   0  0  0  0  0  0  0  0  0  0  0  0
   -2.7431    0.2808   -3.2939 C   0  0  0  0  0  0  0  0  0  0  0  0
   -3.1430    1.6174   -3.4556 C   0  0  0  0  0  0  0  0  0  0  0  0
   -2.2829    2.6804   -3.8030 C   0  0  0  0  0  0  0  0  0  0  0  0
   -0.8741    2.4203   -4.1772 C   0  0  0  0  0  0  0  0  0  0  0  0
   -0.5702    1.7985   -5.3958 C   0  0  0  0  0  0  0  0  0  0  0  0
    0.7488    1.4770   -5.7150 C   0  0  0  0  0  0  0  0  0  0  0  0
    1.7818    1.7831   -4.8176 C   0  0  0  0  0  0  0  0  0  0  0  0
    3.4757    1.3512   -5.2288 S   0  0  0  0  0  0  0  0  0  0  0  0
    3.8175    2.9361   -6.0633 C   0  0  0  0  0  0  0  0  0  0  0  0
    5.2918    3.0200   -6.4262 C   0  0  0  0  0  0  0  0  0  0  0  0
    1.4857    2.3964   -3.5945 C   0  0  0  0  0  0  0  0  0  0  0  0
    2.4762    2.6710   -2.7065 F   0  0  0  0  0  0  0  0  0  0  0  0
    0.1643    2.7029   -3.2684 C   0  0  0  0  0  0  0  0  0  0  0  0
   -2.7401    3.9806   -3.5142 C   0  0  0  0  0  0  0  0  0  0  0  0
   -3.9877    4.2280   -2.9333 C   0  0  0  0  0  0  0  0  0  0  0  0
   -4.8961    3.1719   -2.7153 C   0  0  0  0  0  0  0  0  0  0  0  0
   -6.1960    3.4084   -2.0537 C   0  0  0  0  0  0  0  0  0  0  0  0
   -6.3975    3.0091   -0.7274 C   0  0  0  0  0  0  0  0  0  0  0  0
   -7.6276    3.2405   -0.1033 C   0  0  0  0  0  0  0  0  0  0  0  0
   -8.6649    3.8645   -0.8038 C   0  0  0  0  0  0  0  0  0  0  0  0
  -10.2556    4.0989   -0.0137 S   0  0  0  0  0  0  0  0  0  0  0  0
  -10.8415    2.3912   -0.3062 C   0  0  0  0  0  0  0  0  0  0  0  0
  -11.1971    2.1593   -1.7700 C   0  0  0  0  0  0  0  0  0  0  0  0
   -8.4513    4.3057   -2.1176 C   0  0  0  0  0  0  0  0  0  0  0  0
   -7.2184    4.0802   -2.7393 C   0  0  0  0  0  0  0  0  0  0  0  0
   -9.4338    4.9494   -2.7960 F   0  0  0  0  0  0  0  0  0  0  0  0
   -4.4279    1.8695   -2.9661 C   0  0  0  0  0  0  0  0  0  0  0  0
   -5.0549    0.4319   -2.3576 S   0  0  0  0  0  0  0  0  0  0  0  0
   -4.0865    5.5057   -2.3505 C   0  0  0  0  0  0  0  0  0  0  0  0
   -2.9005    6.2464   -2.4148 C   0  0  0  0  0  0  0  0  0  0  0  0
   -1.8036    5.3538   -3.3365 S   0  0  0  0  0  0  0  0  0  0  0  0
   -2.3804    6.9732   -1.2429 C   0  0  0  0  0  0  0  0  0  0  0  0
   -2.4234    6.3383    0.0065 C   0  0  0  0  0  0  0  0  0  0  0  0
   -1.2225    6.4256    0.7270 C   0  0  0  0  0  0  0  0  0  0  0  0
   -0.8323    5.5492    1.7619 C   0  0  0  0  0  0  0  0  0  0  0  0
   -1.7777    4.6229    2.4156 C   0  0  0  0  0  0  0  0  0  0  0  0
   -2.1355    4.8443    3.7509 C   0  0  0  0  0  0  0  0  0  0  0  0
   -3.0248    3.9798    4.3931 C   0  0  0  0  0  0  0  0  0  0  0  0
   -3.5607    2.8753    3.7191 C   0  0  0  0  0  0  0  0  0  0  0  0
   -4.4279    2.0336    4.4330 O   0  0  0  0  0  0  0  0  0  0  0  0
   -5.1006    0.8891    3.9095 C   0  0  0  0  0  0  0  0  0  0  0  0
   -6.2907    1.3045    3.0529 C   0  0  0  0  0  0  0  0  0  0  0  0
   -3.1982    2.6519    2.3743 C   0  0  0  0  0  0  0  0  0  0  0  0
   -2.3062    3.5178    1.7317 C   0  0  0  0  0  0  0  0  0  0  0  0
    0.5426    5.4754    2.0454 C   0  0  0  0  0  0  0  0  0  0  0  0
    1.4752    6.3114    1.4327 C   0  0  0  0  0  0  0  0  0  0  0  0
    1.0691    7.2812    0.4924 C   0  0  0  0  0  0  0  0  0  0  0  0
    2.0433    8.0891   -0.2662 C   0  0  0  0  0  0  0  0  0  0  0  0
    2.9061    7.4824   -1.1889 C   0  0  0  0  0  0  0  0  0  0  0  0
    3.8578    8.2445   -1.8707 C   0  0  0  0  0  0  0  0  0  0  0  0
    3.9413    9.6343   -1.6508 C   0  0  0  0  0  0  0  0  0  0  0  0
    4.8882   10.4401   -2.2977 O   0  0  0  0  0  0  0  0  0  0  0  0
    5.9172    9.9403   -3.1462 C   0  0  0  0  0  0  0  0  0  0  0  0
    6.7962   11.0909   -3.6088 C   0  0  0  0  0  0  0  0  0  0  0  0
    3.0549   10.2400   -0.7560 C   0  0  0  0  0  0  0  0  0  0  0  0
    2.1090    9.4743   -0.0657 C   0  0  0  0  0  0  0  0  0  0  0  0
   -0.2872    7.2763    0.1275 C   0  0  0  0  0  0  0  0  0  0  0  0
   -0.9244    7.8223   -1.3268 S   0  0  0  0  0  0  0  0  0  0  0  0
    2.8004    5.8951    1.6376 C   0  0  0  0  0  0  0  0  0  0  0  0
    2.9091    4.6552    2.2741 C   0  0  0  0  0  0  0  0  0  0  0  0
    1.3547    4.1782    2.7421 S   0  0  0  0  0  0  0  0  0  0  0  0
    3.9802    3.6836    1.9523 C   0  0  0  0  0  0  0  0  0  0  0  0
    4.9207    3.9044    0.9407 C   0  0  0  0  0  0  0  0  0  0  0  0
    5.3660    2.7298    0.3217 C   0  0  0  0  0  0  0  0  0  0  0  0
    6.0554    2.6797   -0.9080 C   0  0  0  0  0  0  0  0  0  0  0  0
    6.6135    3.8933   -1.5408 C   0  0  0  0  0  0  0  0  0  0  0  0
    7.6610    4.5843   -0.9155 C   0  0  0  0  0  0  0  0  0  0  0  0
    8.2596    5.6774   -1.5463 C   0  0  0  0  0  0  0  0  0  0  0  0
    7.8262    6.0803   -2.8145 C   0  0  0  0  0  0  0  0  0  0  0  0
    8.6683    7.4223   -3.6597 S   0  0  0  0  0  0  0  0  0  0  0  0
    9.8158    6.3498   -4.5961 C   0  0  0  0  0  0  0  0  0  0  0  0
   10.9915    5.9101   -3.7326 C   0  0  0  0  0  0  0  0  0  0  0  0
    6.7396    5.4330   -3.4158 C   0  0  0  0  0  0  0  0  0  0  0  0
    6.2777    5.8450   -4.6236 F   0  0  0  0  0  0  0  0  0  0  0  0
    6.1330    4.3468   -2.7805 C   0  0  0  0  0  0  0  0  0  0  0  0
    6.0997    1.4309   -1.5561 C   0  0  0  0  0  0  0  0  0  0  0  0
    5.5652    0.2722   -0.9849 C   0  0  0  0  0  0  0  0  0  0  0  0
    4.9857    0.3049    0.3019 C   0  0  0  0  0  0  0  0  0  0  0  0
    4.5424   -0.9316    0.9777 C   0  0  0  0  0  0  0  0  0  0  0  0
    3.3737   -1.5953    0.5733 C   0  0  0  0  0  0  0  0  0  0  0  0
    3.0934   -2.8766    1.0603 C   0  0  0  0  0  0  0  0  0  0  0  0
    3.9736   -3.5011    1.9551 C   0  0  0  0  0  0  0  0  0  0  0  0
    3.7244   -5.2281    2.3934 S   0  0  0  0  0  0  0  0  0  0  0  0
    3.0356   -4.9034    4.0484 C   0  0  0  0  0  0  0  0  0  0  0  0
    2.7718   -6.2191    4.7623 C   0  0  0  0  0  0  0  0  0  0  0  0
    5.1172   -2.8182    2.3948 C   0  0  0  0  0  0  0  0  0  0  0  0
    5.3910   -1.5332    1.9174 C   0  0  0  0  0  0  0  0  0  0  0  0
    5.9917   -3.4157    3.2404 F   0  0  0  0  0  0  0  0  0  0  0  0
    4.8560    1.5675    0.9055 C   0  0  0  0  0  0  0  0  0  0  0  0
    3.8068    2.0084    2.1421 S   0  0  0  0  0  0  0  0  0  0  0  0
    5.5539   -0.8188   -1.8682 C   0  0  0  0  0  0  0  0  0  0  0  0
    6.0356   -0.5012   -3.1374 C   0  0  0  0  0  0  0  0  0  0  0  0
    6.5571    1.1012   -3.1379 S   0  0  0  0  0  0  0  0  0  0  0  0
    5.7296   -1.2638   -4.3601 C   0  0  0  0  0  0  0  0  0  0  0  0
    6.0693   -0.8859   -5.6626 C   0  0  0  0  0  0  0  0  0  0  0  0
    5.3842   -1.6174   -6.6493 C   0  0  0  0  0  0  0  0  0  0  0  0
    5.4359   -1.4087   -8.0485 C   0  0  0  0  0  0  0  0  0  0  0  0
    6.2599   -0.3378   -8.6565 C   0  0  0  0  0  0  0  0  0  0  0  0
    7.6444   -0.2867   -8.4370 C   0  0  0  0  0  0  0  0  0  0  0  0
    8.4054    0.7517   -8.9811 C   0  0  0  0  0  0  0  0  0  0  0  0
    7.8037    1.7481   -9.7589 C   0  0  0  0  0  0  0  0  0  0  0  0
    8.6153    2.7741  -10.2670 O   0  0  0  0  0  0  0  0  0  0  0  0
    8.1633    3.8901  -11.0353 C   0  0  0  0  0  0  0  0  0  0  0  0
    7.4701    4.9197  -10.1450 C   0  0  0  0  0  0  0  0  0  0  0  0
    6.4171    1.6809  -10.0012 C   0  0  0  0  0  0  0  0  0  0  0  0
    5.6529    0.6513   -9.4474 C   0  0  0  0  0  0  0  0  0  0  0  0
    4.5832   -2.2075   -8.8385 C   0  0  0  0  0  0  0  0  0  0  0  0
    3.6803   -3.1220   -8.2911 C   0  0  0  0  0  0  0  0  0  0  0  0
    3.5969   -3.2906   -6.8961 C   0  0  0  0  0  0  0  0  0  0  0  0
    2.5150   -4.0628   -6.2615 C   0  0  0  0  0  0  0  0  0  0  0  0
    2.6752   -5.4239   -5.9837 C   0  0  0  0  0  0  0  0  0  0  0  0
    1.6738   -6.1213   -5.2970 C   0  0  0  0  0  0  0  0  0  0  0  0
    0.5087   -5.4636   -4.8786 C   0  0  0  0  0  0  0  0  0  0  0  0
   -0.4493   -6.1908   -4.1594 O   0  0  0  0  0  0  0  0  0  0  0  0
   -1.6380   -5.6250   -3.6134 C   0  0  0  0  0  0  0  0  0  0  0  0
   -2.4256   -6.7001   -2.8817 C   0  0  0  0  0  0  0  0  0  0  0  0
    0.3433   -4.0989   -5.1827 C   0  0  0  0  0  0  0  0  0  0  0  0
    1.3447   -3.4034   -5.8687 C   0  0  0  0  0  0  0  0  0  0  0  0
    4.4905   -2.5496   -6.1098 C   0  0  0  0  0  0  0  0  0  0  0  0
    4.5631   -2.4828   -4.4339 S   0  0  0  0  0  0  0  0  0  0  0  0
    2.9038   -3.7851   -9.2526 C   0  0  0  0  0  0  0  0  0  0  0  0
    3.2112   -3.4060  -10.5564 C   0  0  0  0  0  0  0  0  0  0  0  0
    4.4286   -2.2394  -10.5145 S   0  0  0  0  0  0  0  0  0  0  0  0
   -3.6427   -8.1348   13.3014 H   0  0  0  0  0  0  0  0  0  0  0  0
   -1.9830   -6.4967   12.1349 H   0  0  0  0  0  0  0  0  0  0  0  0
    0.2716   -6.6245   10.1512 H   0  0  0  0  0  0  0  0  0  0  0  0
    2.1143   -4.9835   10.2062 H   0  0  0  0  0  0  0  0  0  0  0  0
    1.2473   -1.7941   11.7589 H   0  0  0  0  0  0  0  0  0  0  0  0
    3.0488   -1.6817   11.7447 H   0  0  0  0  0  0  0  0  0  0  0  0
    1.9874    0.5469   12.0850 H   0  0  0  0  0  0  0  0  0  0  0  0
    2.8972    0.5009   10.5230 H   0  0  0  0  0  0  0  0  0  0  0  0
    1.0900    0.3704   10.5258 H   0  0  0  0  0  0  0  0  0  0  0  0
   -2.5050   -3.4481    9.2757 H   0  0  0  0  0  0  0  0  0  0  0  0
   -4.6726  -10.3300    7.6134 H   0  0  0  0  0  0  0  0  0  0  0  0
   -6.7418  -11.5606    7.0624 H   0  0  0  0  0  0  0  0  0  0  0  0
   -8.4204  -10.5680    4.8592 H   0  0  0  0  0  0  0  0  0  0  0  0
  -10.0425  -11.3259    4.7349 H   0  0  0  0  0  0  0  0  0  0  0  0
   -9.4902   -8.3417    5.2695 H   0  0  0  0  0  0  0  0  0  0  0  0
  -10.1178   -9.0755    3.7498 H   0  0  0  0  0  0  0  0  0  0  0  0
  -11.1275   -9.1175    5.2474 H   0  0  0  0  0  0  0  0  0  0  0  0
   -7.0002   -6.8005    8.4420 H   0  0  0  0  0  0  0  0  0  0  0  0
   -4.8314   -7.2679    5.6246 H   0  0  0  0  0  0  0  0  0  0  0  0
   -1.5910   -3.8491    4.3394 H   0  0  0  0  0  0  0  0  0  0  0  0
    0.4363   -3.4698    2.6109 H   0  0  0  0  0  0  0  0  0  0  0  0
    2.0280   -2.0272    3.8165 H   0  0  0  0  0  0  0  0  0  0  0  0
    3.5314   -0.1991    4.3226 H   0  0  0  0  0  0  0  0  0  0  0  0
    2.6383   -0.6867    5.8282 H   0  0  0  0  0  0  0  0  0  0  0  0
    2.7751    1.6294    6.6861 H   0  0  0  0  0  0  0  0  0  0  0  0
    4.4236    1.0063    6.2875 H   0  0  0  0  0  0  0  0  0  0  0  0
    3.6076    2.1642    5.1667 H   0  0  0  0  0  0  0  0  0  0  0  0
   -0.7394    1.2563    3.5526 H   0  0  0  0  0  0  0  0  0  0  0  0
   -2.3283   -0.1918    2.3476 H   0  0  0  0  0  0  0  0  0  0  0  0
   -6.7346   -3.4027   -0.0029 H   0  0  0  0  0  0  0  0  0  0  0  0
   -8.6164   -4.7153   -0.9001 H   0  0  0  0  0  0  0  0  0  0  0  0
   -9.6587   -8.9604   -2.0751 H   0  0  0  0  0  0  0  0  0  0  0  0
   -8.1723   -9.2993   -1.1451 H   0  0  0  0  0  0  0  0  0  0  0  0
   -6.7959   -8.5245   -3.1322 H   0  0  0  0  0  0  0  0  0  0  0  0
   -8.3180   -8.0933   -4.0026 H   0  0  0  0  0  0  0  0  0  0  0  0
   -7.9469   -9.8230   -3.6092 H   0  0  0  0  0  0  0  0  0  0  0  0
   -6.1509   -8.2555   -0.8377 H   0  0  0  0  0  0  0  0  0  0  0  0
   -4.2743   -6.9403    0.0016 H   0  0  0  0  0  0  0  0  0  0  0  0
   -4.9324   -2.9988   -1.8824 H   0  0  0  0  0  0  0  0  0  0  0  0
   -1.7236   -0.0552   -3.4509 H   0  0  0  0  0  0  0  0  0  0  0  0
   -1.3581    1.5530   -6.0935 H   0  0  0  0  0  0  0  0  0  0  0  0
    0.9737    0.9858   -6.6539 H   0  0  0  0  0  0  0  0  0  0  0  0
    3.5522    3.7824   -5.3938 H   0  0  0  0  0  0  0  0  0  0  0  0
    3.2067    2.9987   -6.9896 H   0  0  0  0  0  0  0  0  0  0  0  0
    5.4901    3.9629   -6.9805 H   0  0  0  0  0  0  0  0  0  0  0  0
    5.5769    2.1635   -7.0692 H   0  0  0  0  0  0  0  0  0  0  0  0
    5.9183    3.0106   -5.5110 H   0  0  0  0  0  0  0  0  0  0  0  0
   -0.0613    3.1396   -2.3029 H   0  0  0  0  0  0  0  0  0  0  0  0
   -5.6006    2.5273   -0.1712 H   0  0  0  0  0  0  0  0  0  0  0  0
   -7.7776    2.9268    0.9206 H   0  0  0  0  0  0  0  0  0  0  0  0
  -11.7476    2.2260    0.3110 H   0  0  0  0  0  0  0  0  0  0  0  0
  -10.0714    1.6586    0.0166 H   0  0  0  0  0  0  0  0  0  0  0  0
  -10.2831    2.1885   -2.4017 H   0  0  0  0  0  0  0  0  0  0  0  0
  -11.9130    2.9316   -2.1211 H   0  0  0  0  0  0  0  0  0  0  0  0
  -11.6624    1.1554   -1.8841 H   0  0  0  0  0  0  0  0  0  0  0  0
   -7.0600    4.4254   -3.7564 H   0  0  0  0  0  0  0  0  0  0  0  0
   -4.9030    5.7846   -1.6924 H   0  0  0  0  0  0  0  0  0  0  0  0
   -3.1894    5.6140    0.2559 H   0  0  0  0  0  0  0  0  0  0  0  0
   -1.7304    5.6882    4.2924 H   0  0  0  0  0  0  0  0  0  0  0  0
   -3.2971    4.1691    5.4230 H   0  0  0  0  0  0  0  0  0  0  0  0
   -4.4049    0.2466    3.3331 H   0  0  0  0  0  0  0  0  0  0  0  0
   -5.4758    0.2844    4.7604 H   0  0  0  0  0  0  0  0  0  0  0  0
   -5.9453    1.8735    2.1667 H   0  0  0  0  0  0  0  0  0  0  0  0
   -6.9859    1.9321    3.6502 H   0  0  0  0  0  0  0  0  0  0  0  0
   -6.8281    0.3986    2.7026 H   0  0  0  0  0  0  0  0  0  0  0  0
   -3.5927    1.8142    1.8180 H   0  0  0  0  0  0  0  0  0  0  0  0
   -2.0258    3.3284    0.6999 H   0  0  0  0  0  0  0  0  0  0  0  0
    2.8519    6.4123   -1.3666 H   0  0  0  0  0  0  0  0  0  0  0  0
    4.5252    7.7457   -2.5625 H   0  0  0  0  0  0  0  0  0  0  0  0
    6.5433    9.2152   -2.5843 H   0  0  0  0  0  0  0  0  0  0  0  0
    5.4696    9.4381   -4.0319 H   0  0  0  0  0  0  0  0  0  0  0  0
    7.2514   11.5955   -2.7308 H   0  0  0  0  0  0  0  0  0  0  0  0
    7.6067   10.7033   -4.2624 H   0  0  0  0  0  0  0  0  0  0  0  0
    6.1899   11.8286   -4.1795 H   0  0  0  0  0  0  0  0  0  0  0  0
    3.1055   11.3079   -0.5797 H   0  0  0  0  0  0  0  0  0  0  0  0
    1.4448    9.9576    0.6399 H   0  0  0  0  0  0  0  0  0  0  0  0
    3.6389    6.3885    1.1726 H   0  0  0  0  0  0  0  0  0  0  0  0
    5.1390    4.8812    0.5364 H   0  0  0  0  0  0  0  0  0  0  0  0
    8.0330    4.2585    0.0502 H   0  0  0  0  0  0  0  0  0  0  0  0
    9.0814    6.1909   -1.0623 H   0  0  0  0  0  0  0  0  0  0  0  0
    9.2863    5.4615   -5.0006 H   0  0  0  0  0  0  0  0  0  0  0  0
   10.2076    6.9292   -5.4555 H   0  0  0  0  0  0  0  0  0  0  0  0
   10.6476    5.2472   -2.9118 H   0  0  0  0  0  0  0  0  0  0  0  0
   11.4999    6.7971   -3.3015 H   0  0  0  0  0  0  0  0  0  0  0  0
   11.7178    5.3464   -4.3535 H   0  0  0  0  0  0  0  0  0  0  0  0
    5.2970    3.8481   -3.2578 H   0  0  0  0  0  0  0  0  0  0  0  0
    2.7183   -1.1460   -0.1588 H   0  0  0  0  0  0  0  0  0  0  0  0
    2.2179   -3.4028    0.7015 H   0  0  0  0  0  0  0  0  0  0  0  0
    2.0815   -4.3561    3.9587 H   0  0  0  0  0  0  0  0  0  0  0  0
    3.7502   -4.2969    4.6417 H   0  0  0  0  0  0  0  0  0  0  0  0
    3.7066   -6.8129    4.8347 H   0  0  0  0  0  0  0  0  0  0  0  0
    2.0060   -6.8046    4.2120 H   0  0  0  0  0  0  0  0  0  0  0  0
    2.3916   -6.0183    5.7872 H   0  0  0  0  0  0  0  0  0  0  0  0
    6.3042   -1.0369    2.2261 H   0  0  0  0  0  0  0  0  0  0  0  0
    5.1052   -1.7757   -1.6300 H   0  0  0  0  0  0  0  0  0  0  0  0
    6.7284   -0.0546   -5.8774 H   0  0  0  0  0  0  0  0  0  0  0  0
    8.1338   -1.0471   -7.8376 H   0  0  0  0  0  0  0  0  0  0  0  0
    9.4708    0.7871   -8.7932 H   0  0  0  0  0  0  0  0  0  0  0  0
    7.4954    3.5589  -11.8583 H   0  0  0  0  0  0  0  0  0  0  0  0
    9.0466    4.3722  -11.5009 H   0  0  0  0  0  0  0  0  0  0  0  0
    6.5495    4.4976   -9.6959 H   0  0  0  0  0  0  0  0  0  0  0  0
    8.1565    5.2459   -9.3361 H   0  0  0  0  0  0  0  0  0  0  0  0
    7.1872    5.8020  -10.7569 H   0  0  0  0  0  0  0  0  0  0  0  0
    5.9126    2.4229  -10.6005 H   0  0  0  0  0  0  0  0  0  0  0  0
    4.5851    0.6366   -9.6183 H   0  0  0  0  0  0  0  0  0  0  0  0
    3.5824   -5.9397   -6.2738 H   0  0  0  0  0  0  0  0  0  0  0  0
    1.8156   -7.1691   -5.0675 H   0  0  0  0  0  0  0  0  0  0  0  0
   -2.2644   -5.2053   -4.4314 H   0  0  0  0  0  0  0  0  0  0  0  0
   -1.3783   -4.8176   -2.8957 H   0  0  0  0  0  0  0  0  0  0  0  0
   -3.3688   -6.2667   -2.4877 H   0  0  0  0  0  0  0  0  0  0  0  0
   -2.6737   -7.5305   -3.5800 H   0  0  0  0  0  0  0  0  0  0  0  0
   -1.8262   -7.0979   -2.0392 H   0  0  0  0  0  0  0  0  0  0  0  0
   -0.5479   -3.5631   -4.8832 H   0  0  0  0  0  0  0  0  0  0  0  0
    1.2118   -2.3475   -6.0719 H   0  0  0  0  0  0  0  0  0  0  0  0
    2.1479   -4.5216   -9.0193 H   0  0  0  0  0  0  0  0  0  0  0  0
    2.7483   -3.8031  -11.4489 H   0  0  0  0  0  0  0  0  0  0  0  0
  1  2  2  0
  2  3  1  0
  3  4  2  0
  4  5  1  0
  5  6  2  0
  6  7  1  0
  7  8  2  0
  8  9  1  0
  9 10  1  0
 10 11  1  0
  8 12  1  0
 12 13  1  0
 12 14  2  0
  4 15  1  0
 15 16  2  0
 16 17  1  0
 17 18  1  0
 18 19  2  0
 19 20  1  0
 20 21  2  0
 21 22  1  0
 22 23  1  0
 23 24  1  0
 21 25  1  0
 25 26  2  0
 25 27  1  0
 17 28  2  0
 28 29  1  0
 16 30  1  0
 30 31  2  0
 31 32  1  0
 31 33  1  0
 33 34  2  0
 34 35  1  0
 35 36  2  0
 36 37  1  0
 37 38  2  0
 38 39  1  0
 39 40  2  0
 40 41  1  0
 41 42  1  0
 42 43  1  0
 40 44  1  0
 44 45  2  0
 36 46  1  0
 46 47  2  0
 47 48  1  0
 48 49  1  0
 49 50  2  0
 50 51  1  0
 51 52  2  0
 52 53  1  0
 53 54  1  0
 54 55  1  0
 52 56  1  0
 56 57  2  0
 48 58  2  0
 58 59  1  0
 47 60  1  0
 60 61  2  0
 61 62  1  0
 61 63  1  0
 63 64  2  0
 64 65  1  0
 65 66  2  0
 66 67  1  0
 67 68  2  0
 68 69  1  0
 69 70  2  0
 70 71  1  0
 71 72  1  0
 72 73  1  0
 70 74  1  0
 74 75  1  0
 74 76  2  0
 66 77  1  0
 77 78  2  0
 78 79  1  0
 79 80  1  0
 80 81  2  0
 81 82  1  0
 82 83  2  0
 83 84  1  0
 84 85  1  0
 85 86  1  0
 83 87  1  0
 87 88  2  0
 87 89  1  0
 79 90  2  0
 90 91  1  0
 78 92  1  0
 92 93  2  0
 93 94  1  0
 93 95  1  0
 95 96  2  0
 96 97  1  0
 97 98  2  0
 98 99  1  0
 99100  2  0
100101  1  0
101102  2  0
102103  1  0
103104  1  0
104105  1  0
102106  1  0
106107  2  0
 98108  1  0
108109  2  0
109110  1  0
110111  1  0
111112  2  0
112113  1  0
113114  2  0
114115  1  0
115116  1  0
116117  1  0
114118  1  0
118119  2  0
110120  2  0
120121  1  0
109122  1  0
122123  2  0
123124  1  0
123125  1  0
125126  2  0
126127  1  0
127128  2  0
128129  1  0
129130  2  0
130131  1  0
131132  2  0
132133  1  0
133134  1  0
134135  1  0
132136  1  0
136137  1  0
136138  2  0
128139  1  0
139140  2  0
140141  1  0
141142  1  0
142143  2  0
143144  1  0
144145  2  0
145146  1  0
146147  1  0
147148  1  0
145149  1  0
149150  2  0
149151  1  0
141152  2  0
152153  1  0
140154  1  0
154155  2  0
155156  1  0
155157  1  0
157158  2  0
158159  1  0
159160  2  0
160161  1  0
161162  2  0
162163  1  0
163164  2  0
164165  1  0
165166  1  0
166167  1  0
164168  1  0
168169  2  0
160170  1  0
170171  2  0
171172  1  0
172173  1  0
173174  2  0
174175  1  0
175176  2  0
176177  1  0
177178  1  0
178179  1  0
176180  1  0
180181  2  0
172182  2  0
182183  1  0
171184  1  0
184185  2  0
185186  1  0
 29  1  1  0
 59 33  1  0
 91 63  1  0
121 95  1  0
153125  1  0
183157  1  0
 28  3  1  0
 58 35  1  0
 90 65  1  0
120 97  1  0
152127  1  0
182159  1  0
 14  5  1  0
 32 15  1  0
 45 37  1  0
 62 46  1  0
 76 67  1  0
 94 77  1  0
107 99  1  0
124108  1  0
138129  1  0
156139  1  0
169161  1  0
186170  1  0
 26 18  1  0
 57 49  1  0
 88 80  1  0
119111  1  0
150142  1  0
181173  1  0
  1187  1  0
  2188  1  0
  6189  1  0
  7190  1  0
 10191  1  0
 10192  1  0
 11193  1  0
 11194  1  0
 11195  1  0
 14196  1  0
 19197  1  0
 20198  1  0
 23199  1  0
 23200  1  0
 24201  1  0
 24202  1  0
 24203  1  0
 26204  1  0
 30205  1  0
 34206  1  0
 38207  1  0
 39208  1  0
 42209  1  0
 42210  1  0
 43211  1  0
 43212  1  0
 43213  1  0
 44214  1  0
 45215  1  0
 50216  1  0
 51217  1  0
 54218  1  0
 54219  1  0
 55220  1  0
 55221  1  0
 55222  1  0
 56223  1  0
 57224  1  0
 60225  1  0
 64226  1  0
 68227  1  0
 69228  1  0
 72229  1  0
 72230  1  0
 73231  1  0
 73232  1  0
 73233  1  0
 76234  1  0
 81235  1  0
 82236  1  0
 85237  1  0
 85238  1  0
 86239  1  0
 86240  1  0
 86241  1  0
 88242  1  0
 92243  1  0
 96244  1  0
100245  1  0
101246  1  0
104247  1  0
104248  1  0
105249  1  0
105250  1  0
105251  1  0
106252  1  0
107253  1  0
112254  1  0
113255  1  0
116256  1  0
116257  1  0
117258  1  0
117259  1  0
117260  1  0
118261  1  0
119262  1  0
122263  1  0
126264  1  0
130265  1  0
131266  1  0
134267  1  0
134268  1  0
135269  1  0
135270  1  0
135271  1  0
138272  1  0
143273  1  0
144274  1  0
147275  1  0
147276  1  0
148277  1  0
148278  1  0
148279  1  0
150280  1  0
154281  1  0
158282  1  0
162283  1  0
163284  1  0
166285  1  0
166286  1  0
167287  1  0
167288  1  0
167289  1  0
168290  1  0
169291  1  0
174292  1  0
175293  1  0
178294  1  0
178295  1  0
179296  1  0
179297  1  0
179298  1  0
180299  1  0
181300  1  0
184301  1  0
185302  1  0
M  END

