
     RDKit          3D

229254  0  0  0  0  0  0  0  0999 V2000
    2.5785  -11.5442    9.4279 C   0  0  0  0  0  0  0  0  0  0  0  0
    3.7961  -10.8678    9.5250 C   0  0  0  0  0  0  0  0  0  0  0  0
    3.8009   -9.6289    8.8778 C   0  0  0  0  0  0  0  0  0  0  0  0
    4.8811   -8.6935    8.7961 C   0  0  0  0  0  0  0  0  0  0  0  0
    6.1572   -8.9098    9.5338 C   0  0  0  0  0  0  0  0  0  0  0  0
    7.6909   -8.7188    8.8629 S   0  0  0  0  0  0  0  0  0  0  0  0
    8.5455   -9.0385   10.2712 C   0  0  0  0  0  0  0  0  0  0  0  0
   10.0304   -9.0024   10.3910 C   0  0  0  0  0  0  0  0  0  0  0  0
   10.4726   -7.6970   11.0321 C   0  0  0  0  0  0  0  0  0  0  0  0
    7.6420   -9.2636   11.3078 C   0  0  0  0  0  0  0  0  0  0  0  0
    8.1118   -9.5797   12.9558 Cl  0  0  0  0  0  0  0  0  0  0  0  0
    6.2891   -9.1752   10.9013 C   0  0  0  0  0  0  0  0  0  0  0  0
    4.9600   -9.2529   12.0386 Cl  0  0  0  0  0  0  0  0  0  0  0  0
    4.6933   -7.5531    8.0030 C   0  0  0  0  0  0  0  0  0  0  0  0
    3.5011   -7.3100    7.3233 C   0  0  0  0  0  0  0  0  0  0  0  0
    2.4123   -8.1921    7.4373 C   0  0  0  0  0  0  0  0  0  0  0  0
    1.1182   -7.8476    6.8360 C   0  0  0  0  0  0  0  0  0  0  0  0
    0.8237   -7.4817    5.2218 S   0  0  0  0  0  0  0  0  0  0  0  0
   -0.7701   -6.9991    5.4412 C   0  0  0  0  0  0  0  0  0  0  0  0
   -1.6693   -6.4599    4.3638 C   0  0  0  0  0  0  0  0  0  0  0  0
   -2.4431   -7.5744    3.6382 C   0  0  0  0  0  0  0  0  0  0  0  0
   -1.1132   -7.1730    6.7856 C   0  0  0  0  0  0  0  0  0  0  0  0
   -0.0587   -7.6777    7.5707 C   0  0  0  0  0  0  0  0  0  0  0  0
   -0.1643   -7.8311    9.3087 Cl  0  0  0  0  0  0  0  0  0  0  0  0
   -2.6143   -6.6061    7.4792 Cl  0  0  0  0  0  0  0  0  0  0  0  0
    2.5993   -9.3442    8.2156 C   0  0  0  0  0  0  0  0  0  0  0  0
    1.5327  -10.6089    8.4911 S   0  0  0  0  0  0  0  0  0  0  0  0
    3.5062   -6.1097    6.6037 C   0  0  0  0  0  0  0  0  0  0  0  0
    4.6887   -5.3839    6.7001 C   0  0  0  0  0  0  0  0  0  0  0  0
    5.7562   -6.2443    7.7078 S   0  0  0  0  0  0  0  0  0  0  0  0
    4.9506   -4.1820    5.9022 C   0  0  0  0  0  0  0  0  0  0  0  0
    5.3983   -2.9178    6.3331 C   0  0  0  0  0  0  0  0  0  0  0  0
    5.2094   -1.9005    5.3592 C   0  0  0  0  0  0  0  0  0  0  0  0
    5.4566   -0.5010    5.5021 C   0  0  0  0  0  0  0  0  0  0  0  0
    6.2930    0.0212    6.6084 C   0  0  0  0  0  0  0  0  0  0  0  0
    6.0129    1.4397    7.4533 S   0  0  0  0  0  0  0  0  0  0  0  0
    7.5030    1.5247    8.2122 C   0  0  0  0  0  0  0  0  0  0  0  0
    7.9638    2.6118    9.1188 C   0  0  0  0  0  0  0  0  0  0  0  0
    7.7152    2.2391   10.5769 C   0  0  0  0  0  0  0  0  0  0  0  0
    8.2524    0.4126    7.8253 C   0  0  0  0  0  0  0  0  0  0  0  0
    9.9056    0.1417    8.3122 Cl  0  0  0  0  0  0  0  0  0  0  0  0
    7.5827   -0.4256    6.9170 C   0  0  0  0  0  0  0  0  0  0  0  0
    8.3816   -1.7600    6.1213 Cl  0  0  0  0  0  0  0  0  0  0  0  0
    4.9916    0.3386    4.4746 C   0  0  0  0  0  0  0  0  0  0  0  0
    4.4446   -0.1517    3.2921 C   0  0  0  0  0  0  0  0  0  0  0  0
    4.2320   -1.5365    3.1392 C   0  0  0  0  0  0  0  0  0  0  0  0
    3.4619   -2.0116    1.9845 C   0  0  0  0  0  0  0  0  0  0  0  0
    3.9266   -1.8761    0.3816 S   0  0  0  0  0  0  0  0  0  0  0  0
    2.5812   -2.6181   -0.2564 C   0  0  0  0  0  0  0  0  0  0  0  0
    2.4250   -2.9824   -1.6921 C   0  0  0  0  0  0  0  0  0  0  0  0
    3.2885   -4.1963   -2.0301 C   0  0  0  0  0  0  0  0  0  0  0  0
    1.7742   -3.0734    0.7914 C   0  0  0  0  0  0  0  0  0  0  0  0
    2.2680   -2.7422    2.0567 C   0  0  0  0  0  0  0  0  0  0  0  0
    1.3294   -2.9355    3.5234 Cl  0  0  0  0  0  0  0  0  0  0  0  0
    0.2389   -3.8899    0.5755 Cl  0  0  0  0  0  0  0  0  0  0  0  0
    4.6112   -2.3751    4.1867 C   0  0  0  0  0  0  0  0  0  0  0  0
    4.3508   -4.0121    4.3455 S   0  0  0  0  0  0  0  0  0  0  0  0
    3.9862    0.8404    2.4181 C   0  0  0  0  0  0  0  0  0  0  0  0
    4.0770    2.1318    2.8989 C   0  0  0  0  0  0  0  0  0  0  0  0
    4.8075    2.0252    4.4386 S   0  0  0  0  0  0  0  0  0  0  0  0
    3.0699    3.1171    2.4694 C   0  0  0  0  0  0  0  0  0  0  0  0
    1.7184    2.8335    2.4942 C   0  0  0  0  0  0  0  0  0  0  0  0
    0.9214    3.7145    1.7552 C   0  0  0  0  0  0  0  0  0  0  0  0
   -0.4820    3.6222    1.5577 C   0  0  0  0  0  0  0  0  0  0  0  0
   -1.2517    2.4374    2.0105 C   0  0  0  0  0  0  0  0  0  0  0  0
   -2.7370    2.5101    2.8075 S   0  0  0  0  0  0  0  0  0  0  0  0
   -3.1222    0.8824    2.6374 C   0  0  0  0  0  0  0  0  0  0  0  0
   -4.4026    0.2402    3.1022 C   0  0  0  0  0  0  0  0  0  0  0  0
   -4.1780   -0.5706    4.3629 C   0  0  0  0  0  0  0  0  0  0  0  0
   -2.0935    0.2514    1.9378 C   0  0  0  0  0  0  0  0  0  0  0  0
   -2.1368   -1.4249    1.4748 Cl  0  0  0  0  0  0  0  0  0  0  0  0
   -1.0525    1.1168    1.5755 C   0  0  0  0  0  0  0  0  0  0  0  0
    0.2702    0.6247    0.5429 Cl  0  0  0  0  0  0  0  0  0  0  0  0
   -1.0835    4.6113    0.7780 C   0  0  0  0  0  0  0  0  0  0  0  0
   -0.3543    5.5893    0.0835 C   0  0  0  0  0  0  0  0  0  0  0  0
    1.0654    5.6633    0.2516 C   0  0  0  0  0  0  0  0  0  0  0  0
    1.8978    6.6316   -0.4769 C   0  0  0  0  0  0  0  0  0  0  0  0
    3.1136    7.5211    0.2560 S   0  0  0  0  0  0  0  0  0  0  0  0
    3.7159    8.2163   -1.1482 C   0  0  0  0  0  0  0  0  0  0  0  0
    4.8742    9.1596   -1.2098 C   0  0  0  0  0  0  0  0  0  0  0  0
    6.1382    8.4818   -1.7274 C   0  0  0  0  0  0  0  0  0  0  0  0
    2.9737    7.7503   -2.2382 C   0  0  0  0  0  0  0  0  0  0  0  0
    1.9475    6.8604   -1.8578 C   0  0  0  0  0  0  0  0  0  0  0  0
    0.9874    6.0228   -3.0481 Cl  0  0  0  0  0  0  0  0  0  0  0  0
    3.2889    8.1804   -3.8991 Cl  0  0  0  0  0  0  0  0  0  0  0  0
    1.6543    4.7256    1.1192 C   0  0  0  0  0  0  0  0  0  0  0  0
    3.3080    4.4647    1.4518 S   0  0  0  0  0  0  0  0  0  0  0  0
   -1.1932    6.3698   -0.7649 C   0  0  0  0  0  0  0  0  0  0  0  0
   -2.5445    5.9698   -0.7251 C   0  0  0  0  0  0  0  0  0  0  0  0
   -2.6850    4.7167    0.3393 S   0  0  0  0  0  0  0  0  0  0  0  0
   -3.5975    6.2907   -1.7078 C   0  0  0  0  0  0  0  0  0  0  0  0
   -3.5449    5.8637   -3.0444 C   0  0  0  0  0  0  0  0  0  0  0  0
   -4.8114    5.6273   -3.6089 C   0  0  0  0  0  0  0  0  0  0  0  0
   -5.0684    5.0888   -4.9175 C   0  0  0  0  0  0  0  0  0  0  0  0
   -4.0154    4.9687   -5.9421 C   0  0  0  0  0  0  0  0  0  0  0  0
   -3.8559    3.6792   -7.0227 S   0  0  0  0  0  0  0  0  0  0  0  0
   -2.7741    4.3979   -8.0535 C   0  0  0  0  0  0  0  0  0  0  0  0
   -2.1771    3.7692   -9.2625 C   0  0  0  0  0  0  0  0  0  0  0  0
   -2.7221    4.4038  -10.5465 C   0  0  0  0  0  0  0  0  0  0  0  0
   -2.4942    5.6737   -7.5675 C   0  0  0  0  0  0  0  0  0  0  0  0
   -1.3805    6.7939   -8.3366 Cl  0  0  0  0  0  0  0  0  0  0  0  0
   -3.1899    6.0010   -6.3755 C   0  0  0  0  0  0  0  0  0  0  0  0
   -3.1383    7.6028   -5.6752 Cl  0  0  0  0  0  0  0  0  0  0  0  0
   -6.3842    4.7233   -5.2041 C   0  0  0  0  0  0  0  0  0  0  0  0
   -7.4624    4.9705   -4.3222 C   0  0  0  0  0  0  0  0  0  0  0  0
   -7.2241    5.5905   -3.0719 C   0  0  0  0  0  0  0  0  0  0  0  0
   -8.3318    5.9041   -2.1749 C   0  0  0  0  0  0  0  0  0  0  0  0
   -9.6577    6.8371   -2.5869 S   0  0  0  0  0  0  0  0  0  0  0  0
  -10.4361    6.7200   -1.0922 C   0  0  0  0  0  0  0  0  0  0  0  0
  -11.7590    7.3392   -0.7701 C   0  0  0  0  0  0  0  0  0  0  0  0
  -12.8824    6.3015   -0.7052 C   0  0  0  0  0  0  0  0  0  0  0  0
   -9.6458    5.9285   -0.2501 C   0  0  0  0  0  0  0  0  0  0  0  0
   -8.4706    5.4648   -0.8531 C   0  0  0  0  0  0  0  0  0  0  0  0
   -7.3955    4.3414   -0.0524 Cl  0  0  0  0  0  0  0  0  0  0  0  0
  -10.1391    5.4269    1.3484 Cl  0  0  0  0  0  0  0  0  0  0  0  0
   -5.8860    5.8731   -2.7364 C   0  0  0  0  0  0  0  0  0  0  0  0
   -5.2175    6.3872   -1.2851 S   0  0  0  0  0  0  0  0  0  0  0  0
   -8.7004    4.5104   -4.7904 C   0  0  0  0  0  0  0  0  0  0  0  0
   -8.6213    3.8729   -6.0336 C   0  0  0  0  0  0  0  0  0  0  0  0
   -7.0339    3.9762   -6.5646 S   0  0  0  0  0  0  0  0  0  0  0  0
   -9.8054    3.4315   -6.7885 C   0  0  0  0  0  0  0  0  0  0  0  0
   -9.9029    2.3445   -7.5717 C   0  0  0  0  0  0  0  0  0  0  0  0
   -8.8752    1.2764   -7.7626 C   0  0  0  0  0  0  0  0  0  0  0  0
   -7.6541    1.2337   -7.2482 O   0  0  0  0  0  0  0  0  0  0  0  0
   -7.0904    0.0988   -7.6160 C   0  0  0  0  0  0  0  0  0  0  0  0
   -7.9918   -0.6413   -8.3720 C   0  0  0  0  0  0  0  0  0  0  0  0
   -9.1171    0.1250   -8.4916 C   0  0  0  0  0  0  0  0  0  0  0  0
  -10.2773   -0.1910   -9.1767 O   0  0  0  0  0  0  0  0  0  0  0  0
   -7.8207   -1.9417   -8.8475 O   0  0  0  0  0  0  0  0  0  0  0  0
   -5.7268   -0.2918   -7.2487 C   0  0  0  0  0  0  0  0  0  0  0  0
   -4.9824   -1.1839   -7.9228 C   0  0  0  0  0  0  0  0  0  0  0  0
   -3.6209   -1.5319   -7.5057 C   0  0  0  0  0  0  0  0  0  0  0  0
   -2.6529   -2.1382   -8.3090 C   0  0  0  0  0  0  0  0  0  0  0  0
   -1.4124   -2.3087   -7.6507 C   0  0  0  0  0  0  0  0  0  0  0  0
   -0.2526   -2.9308   -8.1836 C   0  0  0  0  0  0  0  0  0  0  0  0
   -0.4177   -4.2688   -8.8912 C   0  0  0  0  0  0  0  0  0  0  0  0
   -1.9637   -4.8893   -9.2309 S   0  0  0  0  0  0  0  0  0  0  0  0
   -1.8027   -6.4319   -8.6036 C   0  0  0  0  0  0  0  0  0  0  0  0
   -2.8652   -7.4879   -8.5735 C   0  0  0  0  0  0  0  0  0  0  0  0
   -2.3097   -8.9109   -8.8331 C   0  0  0  0  0  0  0  0  0  0  0  0
   -0.5113   -6.4866   -8.0655 C   0  0  0  0  0  0  0  0  0  0  0  0
    0.0177   -7.5854   -6.7972 Cl  0  0  0  0  0  0  0  0  0  0  0  0
    0.2999   -5.3966   -8.3823 C   0  0  0  0  0  0  0  0  0  0  0  0
    1.9075   -5.8460   -8.9776 Cl  0  0  0  0  0  0  0  0  0  0  0  0
    0.9348   -2.6758   -7.4683 C   0  0  0  0  0  0  0  0  0  0  0  0
    0.9149   -2.2079   -6.1673 C   0  0  0  0  0  0  0  0  0  0  0  0
   -0.2153   -1.5433   -5.6573 C   0  0  0  0  0  0  0  0  0  0  0  0
    0.0311   -0.2125   -5.0281 C   0  0  0  0  0  0  0  0  0  0  0  0
    1.2039    0.1492   -3.8725 S   0  0  0  0  0  0  0  0  0  0  0  0
    1.5473    1.7094   -4.3502 C   0  0  0  0  0  0  0  0  0  0  0  0
    2.7980    2.4617   -3.9738 C   0  0  0  0  0  0  0  0  0  0  0  0
    2.6953    3.0679   -2.5680 C   0  0  0  0  0  0  0  0  0  0  0  0
    0.6846    2.0277   -5.3904 C   0  0  0  0  0  0  0  0  0  0  0  0
   -0.1946    0.9949   -5.7455 C   0  0  0  0  0  0  0  0  0  0  0  0
   -1.1546    1.1626   -7.1861 Cl  0  0  0  0  0  0  0  0  0  0  0  0
    0.8824    3.4670   -6.3706 Cl  0  0  0  0  0  0  0  0  0  0  0  0
   -1.3932   -1.7331   -6.3776 C   0  0  0  0  0  0  0  0  0  0  0  0
   -2.9483   -1.2237   -5.9995 S   0  0  0  0  0  0  0  0  0  0  0  0
    2.1491   -2.3419   -5.5205 C   0  0  0  0  0  0  0  0  0  0  0  0
    3.1965   -2.6761   -6.3612 C   0  0  0  0  0  0  0  0  0  0  0  0
    2.5611   -2.9174   -7.8898 S   0  0  0  0  0  0  0  0  0  0  0  0
    2.3554  -12.5180    9.8560 H   0  0  0  0  0  0  0  0  0  0  0  0
    4.6294  -11.2922   10.0435 H   0  0  0  0  0  0  0  0  0  0  0  0
   10.3752   -9.8629   10.9963 H   0  0  0  0  0  0  0  0  0  0  0  0
   10.4927   -9.0640    9.3871 H   0  0  0  0  0  0  0  0  0  0  0  0
   10.1820   -6.8427   10.3957 H   0  0  0  0  0  0  0  0  0  0  0  0
   10.0050   -7.5719   12.0349 H   0  0  0  0  0  0  0  0  0  0  0  0
   11.5767   -7.6688   11.1500 H   0  0  0  0  0  0  0  0  0  0  0  0
   -1.0488   -5.8954    3.6251 H   0  0  0  0  0  0  0  0  0  0  0  0
   -2.3814   -5.7315    4.7978 H   0  0  0  0  0  0  0  0  0  0  0  0
   -3.5384   -7.4052    3.7486 H   0  0  0  0  0  0  0  0  0  0  0  0
   -2.1969   -8.5890    4.0320 H   0  0  0  0  0  0  0  0  0  0  0  0
   -2.1918   -7.5646    2.5549 H   0  0  0  0  0  0  0  0  0  0  0  0
    2.6946   -5.7596    6.0034 H   0  0  0  0  0  0  0  0  0  0  0  0
    5.7449   -2.7555    7.3344 H   0  0  0  0  0  0  0  0  0  0  0  0
    9.0601    2.7983    8.9626 H   0  0  0  0  0  0  0  0  0  0  0  0
    7.4411    3.5591    8.8908 H   0  0  0  0  0  0  0  0  0  0  0  0
    8.2908    1.3293   10.8534 H   0  0  0  0  0  0  0  0  0  0  0  0
    8.0148    3.0756   11.2368 H   0  0  0  0  0  0  0  0  0  0  0  0
    6.6339    2.0494   10.7322 H   0  0  0  0  0  0  0  0  0  0  0  0
    1.3529   -3.1919   -1.9495 H   0  0  0  0  0  0  0  0  0  0  0  0
    2.7688   -2.1302   -2.2987 H   0  0  0  0  0  0  0  0  0  0  0  0
    3.1129   -5.0274   -1.2991 H   0  0  0  0  0  0  0  0  0  0  0  0
    3.0478   -4.5578   -3.0626 H   0  0  0  0  0  0  0  0  0  0  0  0
    4.3673   -3.9342   -1.9820 H   0  0  0  0  0  0  0  0  0  0  0  0
    3.4858    0.6292    1.4950 H   0  0  0  0  0  0  0  0  0  0  0  0
    1.3324    1.9655    3.0094 H   0  0  0  0  0  0  0  0  0  0  0  0
   -4.7966   -0.4303    2.2870 H   0  0  0  0  0  0  0  0  0  0  0  0
   -5.1682    1.0224    3.3005 H   0  0  0  0  0  0  0  0  0  0  0  0
   -3.4129   -1.3498    4.1914 H   0  0  0  0  0  0  0  0  0  0  0  0
   -3.8436    0.0947    5.1913 H   0  0  0  0  0  0  0  0  0  0  0  0
   -5.1258   -1.0557    4.6649 H   0  0  0  0  0  0  0  0  0  0  0  0
    5.0803    9.5468   -0.1908 H   0  0  0  0  0  0  0  0  0  0  0  0
    4.6095   10.0379   -1.8560 H   0  0  0  0  0  0  0  0  0  0  0  0
    6.9841    9.1894   -1.6682 H   0  0  0  0  0  0  0  0  0  0  0  0
    6.0014    8.1673   -2.7777 H   0  0  0  0  0  0  0  0  0  0  0  0
    6.3730    7.5889   -1.1049 H   0  0  0  0  0  0  0  0  0  0  0  0
   -0.8179    7.1666   -1.3898 H   0  0  0  0  0  0  0  0  0  0  0  0
   -2.6125    5.6176   -3.5222 H   0  0  0  0  0  0  0  0  0  0  0  0
   -1.0665    3.9012   -9.2295 H   0  0  0  0  0  0  0  0  0  0  0  0
   -2.4128    2.6847   -9.2816 H   0  0  0  0  0  0  0  0  0  0  0  0
   -3.8332    4.4592  -10.5239 H   0  0  0  0  0  0  0  0  0  0  0  0
   -2.3103    5.4294  -10.6765 H   0  0  0  0  0  0  0  0  0  0  0  0
   -2.4141    3.7965  -11.4194 H   0  0  0  0  0  0  0  0  0  0  0  0
  -11.6980    7.9055    0.2040 H   0  0  0  0  0  0  0  0  0  0  0  0
  -12.0275    8.0792   -1.5596 H   0  0  0  0  0  0  0  0  0  0  0  0
  -12.8257    5.6299   -1.6015 H   0  0  0  0  0  0  0  0  0  0  0  0
  -12.7894    5.6903    0.2193 H   0  0  0  0  0  0  0  0  0  0  0  0
  -13.8541    6.8283   -0.7023 H   0  0  0  0  0  0  0  0  0  0  0  0
   -9.6353    4.6194   -4.2673 H   0  0  0  0  0  0  0  0  0  0  0  0
  -10.7189    4.0039   -6.6501 H   0  0  0  0  0  0  0  0  0  0  0  0
  -10.8513    2.1868   -8.0514 H   0  0  0  0  0  0  0  0  0  0  0  0
  -10.3603   -1.0734   -9.6934 H   0  0  0  0  0  0  0  0  0  0  0  0
   -8.5876   -2.4375   -9.2811 H   0  0  0  0  0  0  0  0  0  0  0  0
   -5.2564    0.2467   -6.4382 H   0  0  0  0  0  0  0  0  0  0  0  0
   -5.3993   -1.7452   -8.7661 H   0  0  0  0  0  0  0  0  0  0  0  0
   -2.7315   -2.2556   -9.3775 H   0  0  0  0  0  0  0  0  0  0  0  0
   -3.4004   -7.4791   -7.5895 H   0  0  0  0  0  0  0  0  0  0  0  0
   -3.6267   -7.2470   -9.3551 H   0  0  0  0  0  0  0  0  0  0  0  0
   -2.2802   -9.4789   -7.8702 H   0  0  0  0  0  0  0  0  0  0  0  0
   -1.2669   -8.8798   -9.2501 H   0  0  0  0  0  0  0  0  0  0  0  0
   -2.9374   -9.4302   -9.5649 H   0  0  0  0  0  0  0  0  0  0  0  0
    3.6647    1.7658   -4.0279 H   0  0  0  0  0  0  0  0  0  0  0  0
    2.9874    3.2947   -4.6828 H   0  0  0  0  0  0  0  0  0  0  0  0
    3.3476    3.9613   -2.5295 H   0  0  0  0  0  0  0  0  0  0  0  0
    3.0417    2.3410   -1.8100 H   0  0  0  0  0  0  0  0  0  0  0  0
    1.6630    3.4162   -2.3359 H   0  0  0  0  0  0  0  0  0  0  0  0
    2.2182   -2.4647   -4.4607 H   0  0  0  0  0  0  0  0  0  0  0  0
    4.2156   -2.8220   -6.0686 H   0  0  0  0  0  0  0  0  0  0  0  0
  1  2  2  0
  2  3  1  0
  3  4  2  0
  4  5  1  0
  5  6  1  0
  6  7  1  0
  7  8  1  0
  8  9  1  0
  7 10  2  0
 10 11  1  0
 10 12  1  0
 12 13  1  0
  4 14  1  0
 14 15  2  0
 15 16  1  0
 16 17  1  0
 17 18  1  0
 18 19  1  0
 19 20  1  0
 20 21  1  0
 19 22  2  0
 22 23  1  0
 23 24  1  0
 22 25  1  0
 16 26  2  0
 26 27  1  0
 15 28  1  0
 28 29  2  0
 29 30  1  0
 29 31  1  0
 31 32  2  0
 32 33  1  0
 33 34  2  0
 34 35  1  0
 35 36  1  0
 36 37  1  0
 37 38  1  0
 38 39  1  0
 37 40  2  0
 40 41  1  0
 40 42  1  0
 42 43  1  0
 34 44  1  0
 44 45  2  0
 45 46  1  0
 46 47  1  0
 47 48  1  0
 48 49  1  0
 49 50  1  0
 50 51  1  0
 49 52  2  0
 52 53  1  0
 53 54  1  0
 52 55  1  0
 46 56  2  0
 56 57  1  0
 45 58  1  0
 58 59  2  0
 59 60  1  0
 59 61  1  0
 61 62  2  0
 62 63  1  0
 63 64  2  0
 64 65  1  0
 65 66  1  0
 66 67  1  0
 67 68  1  0
 68 69  1  0
 67 70  2  0
 70 71  1  0
 70 72  1  0
 72 73  1  0
 64 74  1  0
 74 75  2  0
 75 76  1  0
 76 77  1  0
 77 78  1  0
 78 79  1  0
 79 80  1  0
 80 81  1  0
 79 82  2  0
 82 83  1  0
 83 84  1  0
 82 85  1  0
 76 86  2  0
 86 87  1  0
 75 88  1  0
 88 89  2  0
 89 90  1  0
 89 91  1  0
 91 92  2  0
 92 93  1  0
 93 94  2  0
 94 95  1  0
 95 96  1  0
 96 97  1  0
 97 98  1  0
 98 99  1  0
 97100  2  0
100101  1  0
100102  1  0
102103  1  0
 94104  1  0
104105  2  0
105106  1  0
106107  1  0
107108  1  0
108109  1  0
109110  1  0
110111  1  0
109112  2  0
112113  1  0
113114  1  0
112115  1  0
106116  2  0
116117  1  0
105118  1  0
118119  2  0
119120  1  0
119121  1  0
121122  2  3
122123  1  0
123124  1  0
124125  1  0
125126  2  0
126127  1  0
127128  1  0
126129  1  0
125130  1  0
130131  2  3
131132  1  0
132133  2  0
133134  1  0
134135  2  0
135136  1  0
136137  1  0
137138  1  0
138139  1  0
139140  1  0
138141  2  0
141142  1  0
141143  1  0
143144  1  0
135145  1  0
145146  2  0
146147  1  0
147148  1  0
148149  1  0
149150  1  0
150151  1  0
151152  1  0
150153  2  0
153154  1  0
154155  1  0
153156  1  0
147157  2  0
157158  1  0
146159  1  0
159160  2  0
160161  1  0
 27  1  1  0
 57 31  1  0
 87 61  1  0
117 91  1  0
127123  2  0
158132  1  0
 26  3  1  0
 56 33  1  0
 86 63  1  0
116 93  1  0
157134  1  0
 12  5  2  0
 30 14  1  0
 42 35  2  0
 60 44  1  0
 72 65  2  0
 90 74  1  0
102 95  2  0
120104  1  0
143136  2  0
161145  1  0
 23 17  2  0
 53 47  2  0
 83 77  2  0
113107  2  0
154148  2  0
  1162  1  0
  2163  1  0
  8164  1  0
  8165  1  0
  9166  1  0
  9167  1  0
  9168  1  0
 20169  1  0
 20170  1  0
 21171  1  0
 21172  1  0
 21173  1  0
 28174  1  0
 32175  1  0
 38176  1  0
 38177  1  0
 39178  1  0
 39179  1  0
 39180  1  0
 50181  1  0
 50182  1  0
 51183  1  0
 51184  1  0
 51185  1  0
 58186  1  0
 62187  1  0
 68188  1  0
 68189  1  0
 69190  1  0
 69191  1  0
 69192  1  0
 80193  1  0
 80194  1  0
 81195  1  0
 81196  1  0
 81197  1  0
 88198  1  0
 92199  1  0
 98200  1  0
 98201  1  0
 99202  1  0
 99203  1  0
 99204  1  0
110205  1  0
110206  1  0
111207  1  0
111208  1  0
111209  1  0
118210  1  0
121211  1  0
122212  1  0
128213  1  0
129214  1  0
130215  1  0
131216  1  0
133217  1  0
139218  1  0
139219  1  0
140220  1  0
140221  1  0
140222  1  0
151223  1  0
151224  1  0
152225  1  0
152226  1  0
152227  1  0
159228  1  0
160229  1  0
M  END

