
     RDKit          3D

 56 61  0  0  0  0  0  0  0  0999 V2000
   -4.2661    3.2948   -8.5909 C   0  0  0  0  0  0  0  0  0  0  0  0
   -4.0049    2.4704   -9.6001 C   0  0  0  0  0  0  0  0  0  0  0  0
   -3.1992    1.4230   -9.4958 C   0  0  0  0  0  0  0  0  0  0  0  0
   -2.5530    1.0268   -8.4617 C   0  0  0  0  0  0  0  0  0  0  0  0
   -3.1719    2.4661   -7.1901 Se  0  0  0  0  0  2  0  0  0  0  0  0
   -1.5844    0.1103   -7.9309 C   0  0  0  0  0  0  0  0  0  0  0  0
   -0.7705   -0.7884   -8.3447 C   0  0  0  0  0  0  0  0  0  0  0  0
   -0.0792   -1.5442   -7.5749 C   0  0  0  0  0  0  0  0  0  0  0  0
    0.1222   -1.7614   -6.3782 C   0  0  0  0  0  0  0  0  0  0  0  0
   -1.3502   -0.1446   -5.9840 Se  0  0  0  0  0  2  0  0  0  0  0  0
    0.4221   -2.0799   -5.0017 C   0  0  0  0  0  0  0  0  0  0  0  0
    1.3771   -3.0682   -4.6790 C   0  0  0  0  0  0  0  0  0  0  0  0
    1.6628   -3.3131   -3.4102 C   0  0  0  0  0  0  0  0  0  0  0  0
    1.1331   -2.7212   -2.3810 C   0  0  0  0  0  0  0  0  0  0  0  0
   -0.0759   -1.4955   -3.3252 Se  0  0  0  0  0  2  0  0  0  0  0  0
    1.2343   -2.6564   -0.9393 C   0  0  0  0  0  0  0  0  0  0  0  0
    0.2314   -1.7289    0.1435 S   0  0  0  0  0  0  0  0  0  0  0  0
    0.9717   -2.1524    1.6175 C   0  0  0  0  0  0  0  0  0  0  0  0
    1.9722   -3.0094    1.2293 C   0  0  0  0  0  0  0  0  0  0  0  0
    2.0939   -3.2501   -0.0774 C   0  0  0  0  0  0  0  0  0  0  0  0
    3.2947   -4.0560   -0.6489 C   0  0  0  0  0  0  0  0  0  0  0  0
    4.1281   -4.6059   -1.0520 N   0  0  0  0  0  0  0  0  0  0  0  0
    2.8418   -3.6304    2.3039 C   0  0  0  0  0  0  0  0  0  0  0  0
    3.5950   -2.6683    2.9103 F   0  0  0  0  0  0  0  0  0  0  0  0
    3.6792   -4.5983    1.7731 F   0  0  0  0  0  0  0  0  0  0  0  0
    2.0229   -4.2856    3.2425 F   0  0  0  0  0  0  0  0  0  0  0  0
    0.6450   -1.6034    2.9308 C   0  0  0  0  0  0  0  0  0  0  0  0
    1.5178   -1.7861    4.3914 S   0  0  0  0  0  0  0  0  0  0  0  0
    0.4844   -0.8669    5.4076 C   0  0  0  0  0  0  0  0  0  0  0  0
   -0.5113   -0.4722    4.5658 C   0  0  0  0  0  0  0  0  0  0  0  0
   -0.4183   -0.8445    3.2778 C   0  0  0  0  0  0  0  0  0  0  0  0
   -1.3577   -0.2835    2.2571 C   0  0  0  0  0  0  0  0  0  0  0  0
   -2.1024    0.1391    1.4663 N   0  0  0  0  0  0  0  0  0  0  0  0
   -1.7211    0.2328    5.1482 C   0  0  0  0  0  0  0  0  0  0  0  0
   -1.5126    1.4509    5.6579 F   0  0  0  0  0  0  0  0  0  0  0  0
   -2.7788    0.2584    4.2519 F   0  0  0  0  0  0  0  0  0  0  0  0
   -2.2230   -0.5649    6.2298 F   0  0  0  0  0  0  0  0  0  0  0  0
    0.7438   -0.3732    6.7877 C   0  0  0  0  0  0  0  0  0  0  0  0
    0.6902   -1.1801    8.2508 S   0  0  0  0  0  0  0  0  0  0  0  0
    1.2070    0.1111    9.3025 C   0  0  0  0  0  0  0  0  0  0  0  0
    1.3976    1.1200    8.4287 C   0  0  0  0  0  0  0  0  0  0  0  0
    1.1763    0.9283    7.1165 C   0  0  0  0  0  0  0  0  0  0  0  0
    1.3461    1.8830    6.0777 C   0  0  0  0  0  0  0  0  0  0  0  0
    1.5099    2.7009    5.1684 N   0  0  0  0  0  0  0  0  0  0  0  0
    1.9116    2.4708    8.9366 C   0  0  0  0  0  0  0  0  0  0  0  0
    0.9105    3.3538    8.5095 F   0  0  0  0  0  0  0  0  0  0  0  0
    1.9573    2.4857   10.2817 F   0  0  0  0  0  0  0  0  0  0  0  0
    3.0306    2.8557    8.3157 F   0  0  0  0  0  0  0  0  0  0  0  0
   -4.8496    4.1677   -8.4057 H   0  0  0  0  0  0  0  0  0  0  0  0
   -4.5006    2.7348  -10.6080 H   0  0  0  0  0  0  0  0  0  0  0  0
   -3.0887    0.7628  -10.4702 H   0  0  0  0  0  0  0  0  0  0  0  0
   -0.6898   -0.8572   -9.5139 H   0  0  0  0  0  0  0  0  0  0  0  0
    0.6736   -2.3253   -8.2202 H   0  0  0  0  0  0  0  0  0  0  0  0
    1.8151   -3.6190   -5.5454 H   0  0  0  0  0  0  0  0  0  0  0  0
    2.4781   -4.0952   -3.1686 H   0  0  0  0  0  0  0  0  0  0  0  0
    1.2912    0.0235   10.3974 H   0  0  0  0  0  0  0  0  0  0  0  0
  1  2  2  0
  2  3  1  0
  3  4  2  0
  4  5  1  0
  4  6  1  0
  6  7  2  0
  7  8  1  0
  8  9  2  0
  9 10  1  0
  9 11  1  0
 11 12  2  0
 12 13  1  0
 13 14  2  0
 14 15  1  0
 14 16  1  0
 16 17  1  0
 17 18  1  0
 18 19  2  0
 19 20  1  0
 20 21  1  0
 21 22  3  0
 19 23  1  0
 23 24  1  0
 23 25  1  0
 23 26  1  0
 18 27  1  0
 27 28  1  0
 28 29  1  0
 29 30  2  0
 30 31  1  0
 31 32  1  0
 32 33  3  0
 30 34  1  0
 34 35  1  0
 34 36  1  0
 34 37  1  0
 29 38  1  0
 38 39  1  0
 39 40  1  0
 40 41  2  0
 41 42  1  0
 42 43  1  0
 43 44  3  0
 41 45  1  0
 45 46  1  0
 45 47  1  0
 45 48  1  0
  5  1  1  0
 10  6  1  0
 15 11  1  0
 20 16  2  0
 31 27  2  0
 42 38  2  0
  1 49  1  0
  2 50  1  0
  3 51  1  0
  7 52  1  0
  8 53  1  0
 12 54  1  0
 13 55  1  0
 40 56  1  0
M  END

