
     RDKit          3D

 84 91  0  0  0  0  0  0  0  0999 V2000
    2.3252   -5.7938   -7.5901 C   0  0  0  0  0  0  0  0  0  0  0  0
    3.3040   -4.8485   -6.6067 S   0  0  0  0  0  0  0  0  0  0  0  0
    2.1013   -3.7914   -6.0849 C   0  0  0  0  0  0  0  0  0  0  0  0
    0.8896   -4.1492   -6.7008 C   0  0  0  0  0  0  0  0  0  0  0  0
    1.0291   -5.2944   -7.5261 C   0  0  0  0  0  0  0  0  0  0  0  0
   -0.0511   -5.9278   -8.2425 C   0  0  0  0  0  0  0  0  0  0  0  0
   -0.9203   -6.4336   -8.8182 N   0  0  0  0  0  0  0  0  0  0  0  0
   -0.4112   -3.4062   -6.4820 C   0  0  0  0  0  0  0  0  0  0  0  0
   -1.0137   -3.8642   -5.3273 F   0  0  0  0  0  0  0  0  0  0  0  0
   -1.2798   -3.5919   -7.5420 F   0  0  0  0  0  0  0  0  0  0  0  0
   -0.1786   -2.0462   -6.3688 F   0  0  0  0  0  0  0  0  0  0  0  0
    2.3220   -2.7219   -5.0900 C   0  0  0  0  0  0  0  0  0  0  0  0
    1.3776   -2.4741   -3.7267 S   0  0  0  0  0  0  0  0  0  0  0  0
    2.2457   -1.1708   -3.1206 C   0  0  0  0  0  0  0  0  0  0  0  0
    3.2997   -0.8748   -4.0030 C   0  0  0  0  0  0  0  0  0  0  0  0
    3.3527   -1.7809   -5.0889 C   0  0  0  0  0  0  0  0  0  0  0  0
    4.3432   -1.7066   -6.1350 C   0  0  0  0  0  0  0  0  0  0  0  0
    5.1333   -1.6493   -6.9761 N   0  0  0  0  0  0  0  0  0  0  0  0
    4.2439    0.3068   -3.8857 C   0  0  0  0  0  0  0  0  0  0  0  0
    4.2578    1.0066   -5.0784 F   0  0  0  0  0  0  0  0  0  0  0  0
    3.8663    1.1842   -2.8879 F   0  0  0  0  0  0  0  0  0  0  0  0
    5.5224   -0.1481   -3.6239 F   0  0  0  0  0  0  0  0  0  0  0  0
    1.8656   -0.4768   -1.8837 C   0  0  0  0  0  0  0  0  0  0  0  0
    0.3107    0.0862   -1.5178 S   0  0  0  0  0  0  0  0  0  0  0  0
    0.6115    0.6290    0.0600 C   0  0  0  0  0  0  0  0  0  0  0  0
    1.9432    0.3145    0.3038 C   0  0  0  0  0  0  0  0  0  0  0  0
    2.9455    0.4556    1.6446 S   0  0  0  0  0  0  0  0  0  0  0  0
    4.2741   -0.3021    0.8966 C   0  0  0  0  0  0  0  0  0  0  0  0
    5.5708   -0.5375    1.5457 C   0  0  0  0  0  0  0  0  0  0  0  0
    6.4629   -1.2014    0.9505 O   0  0  0  0  0  0  0  0  0  0  0  0
    5.8089   -0.0080    2.8182 O   0  0  0  0  0  0  0  0  0  0  0  0
    7.0266   -0.2264    3.5258 C   0  0  0  0  0  0  0  0  0  0  0  0
    7.0067    0.5506    4.8328 C   0  0  0  0  0  0  0  0  0  0  0  0
    3.9302   -0.6712   -0.4098 C   0  0  0  0  0  0  0  0  0  0  0  0
    2.6249   -0.2930   -0.7338 C   0  0  0  0  0  0  0  0  0  0  0  0
    4.7512   -1.3573   -1.2430 F   0  0  0  0  0  0  0  0  0  0  0  0
   -0.3958    1.1018    1.0277 C   0  0  0  0  0  0  0  0  0  0  0  0
   -0.3585    0.8016    2.7004 S   0  0  0  0  0  0  0  0  0  0  0  0
   -1.8719    1.4471    3.0893 C   0  0  0  0  0  0  0  0  0  0  0  0
   -2.3962    1.9186    1.8986 C   0  0  0  0  0  0  0  0  0  0  0  0
   -3.7848    2.7814    1.5221 S   0  0  0  0  0  0  0  0  0  0  0  0
   -3.3982    2.9289   -0.1275 C   0  0  0  0  0  0  0  0  0  0  0  0
   -4.2275    3.6360   -1.1125 C   0  0  0  0  0  0  0  0  0  0  0  0
   -5.2834    4.2126   -0.7357 O   0  0  0  0  0  0  0  0  0  0  0  0
   -3.8524    3.6541   -2.4590 O   0  0  0  0  0  0  0  0  0  0  0  0
   -4.5954    4.3492   -3.4514 C   0  0  0  0  0  0  0  0  0  0  0  0
   -3.9398    4.1545   -4.8080 C   0  0  0  0  0  0  0  0  0  0  0  0
   -2.1656    2.3088   -0.3829 C   0  0  0  0  0  0  0  0  0  0  0  0
   -1.6118    1.7423    0.7745 C   0  0  0  0  0  0  0  0  0  0  0  0
   -1.5503    2.3449   -1.5906 F   0  0  0  0  0  0  0  0  0  0  0  0
   -2.4895    1.4803    4.4236 C   0  0  0  0  0  0  0  0  0  0  0  0
   -1.7206    2.0330    5.8059 S   0  0  0  0  0  0  0  0  0  0  0  0
   -3.0097    1.7826    6.8606 C   0  0  0  0  0  0  0  0  0  0  0  0
   -4.0730    1.2018    6.1445 C   0  0  0  0  0  0  0  0  0  0  0  0
   -3.7791    1.0677    4.7646 C   0  0  0  0  0  0  0  0  0  0  0  0
   -4.6907    0.4991    3.7992 C   0  0  0  0  0  0  0  0  0  0  0  0
   -5.4197    0.0423    3.0248 N   0  0  0  0  0  0  0  0  0  0  0  0
   -5.3891    0.7748    6.7642 C   0  0  0  0  0  0  0  0  0  0  0  0
   -5.2134    0.4133    8.0859 F   0  0  0  0  0  0  0  0  0  0  0  0
   -6.2884    1.8203    6.6898 F   0  0  0  0  0  0  0  0  0  0  0  0
   -5.9159   -0.3210    6.1066 F   0  0  0  0  0  0  0  0  0  0  0  0
   -3.0047    2.2248    8.2713 C   0  0  0  0  0  0  0  0  0  0  0  0
   -4.2482    3.0856    9.0177 S   0  0  0  0  0  0  0  0  0  0  0  0
   -3.5007    3.2657   10.5095 C   0  0  0  0  0  0  0  0  0  0  0  0
   -2.2438    2.6595   10.4513 C   0  0  0  0  0  0  0  0  0  0  0  0
   -1.9606    2.0935    9.1894 C   0  0  0  0  0  0  0  0  0  0  0  0
   -0.7224    1.4168    8.8898 C   0  0  0  0  0  0  0  0  0  0  0  0
    0.2719    0.8744    8.6505 N   0  0  0  0  0  0  0  0  0  0  0  0
   -1.2822    2.6371   11.6141 C   0  0  0  0  0  0  0  0  0  0  0  0
   -0.8958    1.3354   11.8811 F   0  0  0  0  0  0  0  0  0  0  0  0
   -0.1606    3.3857   11.3012 F   0  0  0  0  0  0  0  0  0  0  0  0
   -1.8706    3.1626   12.7502 F   0  0  0  0  0  0  0  0  0  0  0  0
    2.6498   -6.6539   -8.1618 H   0  0  0  0  0  0  0  0  0  0  0  0
    7.8897    0.1127    2.9103 H   0  0  0  0  0  0  0  0  0  0  0  0
    7.1402   -1.3108    3.7413 H   0  0  0  0  0  0  0  0  0  0  0  0
    7.9377    0.3480    5.4027 H   0  0  0  0  0  0  0  0  0  0  0  0
    6.1354    0.2430    5.4496 H   0  0  0  0  0  0  0  0  0  0  0  0
    6.9401    1.6383    4.6235 H   0  0  0  0  0  0  0  0  0  0  0  0
   -5.6366    3.9635   -3.4837 H   0  0  0  0  0  0  0  0  0  0  0  0
   -4.6191    5.4318   -3.2105 H   0  0  0  0  0  0  0  0  0  0  0  0
   -2.8965    4.5350   -4.7838 H   0  0  0  0  0  0  0  0  0  0  0  0
   -3.9269    3.0772   -5.0754 H   0  0  0  0  0  0  0  0  0  0  0  0
   -4.5063    4.7106   -5.5828 H   0  0  0  0  0  0  0  0  0  0  0  0
   -3.9278    3.7717   11.3656 H   0  0  0  0  0  0  0  0  0  0  0  0
  1  2  1  0
  2  3  1  0
  3  4  2  0
  4  5  1  0
  5  6  1  0
  6  7  3  0
  4  8  1  0
  8  9  1  0
  8 10  1  0
  8 11  1  0
  3 12  1  0
 12 13  1  0
 13 14  1  0
 14 15  2  0
 15 16  1  0
 16 17  1  0
 17 18  3  0
 15 19  1  0
 19 20  1  0
 19 21  1  0
 19 22  1  0
 14 23  1  0
 23 24  1  0
 24 25  1  0
 25 26  2  0
 26 27  1  0
 27 28  1  0
 28 29  1  0
 29 30  2  0
 29 31  1  0
 31 32  1  0
 32 33  1  0
 28 34  2  0
 34 35  1  0
 34 36  1  0
 25 37  1  0
 37 38  1  0
 38 39  1  0
 39 40  2  0
 40 41  1  0
 41 42  1  0
 42 43  1  0
 43 44  2  0
 43 45  1  0
 45 46  1  0
 46 47  1  0
 42 48  2  0
 48 49  1  0
 48 50  1  0
 39 51  1  0
 51 52  1  0
 52 53  1  0
 53 54  2  0
 54 55  1  0
 55 56  1  0
 56 57  3  0
 54 58  1  0
 58 59  1  0
 58 60  1  0
 58 61  1  0
 53 62  1  0
 62 63  1  0
 63 64  1  0
 64 65  2  0
 65 66  1  0
 66 67  1  0
 67 68  3  0
 65 69  1  0
 69 70  1  0
 69 71  1  0
 69 72  1  0
  5  1  2  0
 16 12  2  0
 35 23  2  0
 49 37  2  0
 55 51  2  0
 66 62  2  0
 35 26  1  0
 49 40  1  0
  1 73  1  0
 32 74  1  0
 32 75  1  0
 33 76  1  0
 33 77  1  0
 33 78  1  0
 46 79  1  0
 46 80  1  0
 47 81  1  0
 47 82  1  0
 47 83  1  0
 64 84  1  0
M  END

