
     RDKit          3D

185202  0  0  0  0  0  0  0  0999 V2000
    5.1128   -9.1775    9.0734 C   0  0  0  0  0  0  0  0  0  0  0  0
    4.6697   -7.8645    8.9598 C   0  0  0  0  0  0  0  0  0  0  0  0
    3.9255   -7.6279    7.7925 C   0  0  0  0  0  0  0  0  0  0  0  0
    3.3263   -6.4087    7.4174 C   0  0  0  0  0  0  0  0  0  0  0  0
    3.5113   -5.1577    8.1889 C   0  0  0  0  0  0  0  0  0  0  0  0
    4.7951   -4.6202    8.3630 C   0  0  0  0  0  0  0  0  0  0  0  0
    4.9627   -3.3870    8.9983 C   0  0  0  0  0  0  0  0  0  0  0  0
    3.8441   -2.6668    9.4428 C   0  0  0  0  0  0  0  0  0  0  0  0
    4.0603   -1.0596   10.2202 S   0  0  0  0  0  0  0  0  0  0  0  0
    4.2593   -0.1319    8.6538 C   0  0  0  0  0  0  0  0  0  0  0  0
    2.9292    0.0472    7.9272 C   0  0  0  0  0  0  0  0  0  0  0  0
    2.5622   -3.2111    9.2926 C   0  0  0  0  0  0  0  0  0  0  0  0
    1.4738   -2.5429    9.7504 F   0  0  0  0  0  0  0  0  0  0  0  0
    2.3960   -4.4501    8.6665 C   0  0  0  0  0  0  0  0  0  0  0  0
    2.5893   -6.4120    6.2204 C   0  0  0  0  0  0  0  0  0  0  0  0
    2.4522   -7.5454    5.4096 C   0  0  0  0  0  0  0  0  0  0  0  0
    3.0455   -8.7694    5.7866 C   0  0  0  0  0  0  0  0  0  0  0  0
    2.9005   -9.9898    4.9602 C   0  0  0  0  0  0  0  0  0  0  0  0
    4.0299  -10.6556    4.4661 C   0  0  0  0  0  0  0  0  0  0  0  0
    3.8871  -11.7703    3.6364 C   0  0  0  0  0  0  0  0  0  0  0  0
    2.6077  -12.2388    3.3022 C   0  0  0  0  0  0  0  0  0  0  0  0
    2.4378  -13.6770    2.2346 S   0  0  0  0  0  0  0  0  0  0  0  0
    2.6180  -12.7520    0.6638 C   0  0  0  0  0  0  0  0  0  0  0  0
    1.2911  -12.1300    0.2369 C   0  0  0  0  0  0  0  0  0  0  0  0
    1.4752  -11.5952    3.8164 C   0  0  0  0  0  0  0  0  0  0  0  0
    1.6198  -10.4803    4.6483 C   0  0  0  0  0  0  0  0  0  0  0  0
    0.2319  -12.0511    3.5263 F   0  0  0  0  0  0  0  0  0  0  0  0
    3.7784   -8.7699    6.9916 C   0  0  0  0  0  0  0  0  0  0  0  0
    4.5716  -10.0544    7.7356 S   0  0  0  0  0  0  0  0  0  0  0  0
    1.7548   -7.2878    4.2152 C   0  0  0  0  0  0  0  0  0  0  0  0
    1.3430   -5.9637    4.1028 C   0  0  0  0  0  0  0  0  0  0  0  0
    1.8479   -5.1080    5.4678 S   0  0  0  0  0  0  0  0  0  0  0  0
    0.7030   -5.3473    2.9358 C   0  0  0  0  0  0  0  0  0  0  0  0
    0.3774   -3.9997    2.8452 C   0  0  0  0  0  0  0  0  0  0  0  0
   -0.0093   -3.6148    1.5601 C   0  0  0  0  0  0  0  0  0  0  0  0
   -0.2521   -2.2957    1.1492 C   0  0  0  0  0  0  0  0  0  0  0  0
   -0.0897   -1.1578    2.0729 C   0  0  0  0  0  0  0  0  0  0  0  0
   -1.0581   -0.8926    3.0503 C   0  0  0  0  0  0  0  0  0  0  0  0
   -0.8798    0.1681    3.9424 C   0  0  0  0  0  0  0  0  0  0  0  0
    0.2653    0.9754    3.8523 C   0  0  0  0  0  0  0  0  0  0  0  0
    0.4835    2.3392    4.9982 S   0  0  0  0  0  0  0  0  0  0  0  0
   -0.4942    3.4972    3.9865 C   0  0  0  0  0  0  0  0  0  0  0  0
   -0.4595    4.8814    4.6106 C   0  0  0  0  0  0  0  0  0  0  0  0
    1.2393    0.7020    2.8874 C   0  0  0  0  0  0  0  0  0  0  0  0
    2.3653    1.4569    2.8135 F   0  0  0  0  0  0  0  0  0  0  0  0
    1.0648   -0.3618    1.9980 C   0  0  0  0  0  0  0  0  0  0  0  0
   -0.4593   -2.0920   -0.2229 C   0  0  0  0  0  0  0  0  0  0  0  0
   -0.4412   -3.1316   -1.1598 C   0  0  0  0  0  0  0  0  0  0  0  0
   -0.2403   -4.4641   -0.7362 C   0  0  0  0  0  0  0  0  0  0  0  0
   -0.2046   -5.5822   -1.6939 C   0  0  0  0  0  0  0  0  0  0  0  0
   -1.3919   -6.0230   -2.2927 C   0  0  0  0  0  0  0  0  0  0  0  0
   -1.3630   -7.0683   -3.2195 C   0  0  0  0  0  0  0  0  0  0  0  0
   -0.1451   -7.6564   -3.5799 C   0  0  0  0  0  0  0  0  0  0  0  0
   -0.1071   -8.9310   -4.8429 S   0  0  0  0  0  0  0  0  0  0  0  0
    0.1331   -7.7694   -6.2376 C   0  0  0  0  0  0  0  0  0  0  0  0
   -1.2009   -7.2236   -6.7304 C   0  0  0  0  0  0  0  0  0  0  0  0
    1.0426   -7.2355   -2.9596 C   0  0  0  0  0  0  0  0  0  0  0  0
    1.0098   -6.2029   -2.0177 C   0  0  0  0  0  0  0  0  0  0  0  0
    2.2252   -7.8148   -3.2809 F   0  0  0  0  0  0  0  0  0  0  0  0
   -0.0083   -4.6662    0.6373 C   0  0  0  0  0  0  0  0  0  0  0  0
    0.4790   -6.0762    1.4249 S   0  0  0  0  0  0  0  0  0  0  0  0
   -0.4970   -2.6701   -2.4908 C   0  0  0  0  0  0  0  0  0  0  0  0
   -0.5532   -1.2779   -2.5680 C   0  0  0  0  0  0  0  0  0  0  0  0
   -0.5482   -0.6260   -1.0141 S   0  0  0  0  0  0  0  0  0  0  0  0
   -0.3183   -0.4424   -3.7475 C   0  0  0  0  0  0  0  0  0  0  0  0
    0.6499    0.5555   -3.7213 C   0  0  0  0  0  0  0  0  0  0  0  0
    0.3360    1.6623   -4.5174 C   0  0  0  0  0  0  0  0  0  0  0  0
    0.9819    2.9122   -4.4528 C   0  0  0  0  0  0  0  0  0  0  0  0
    2.1428    3.1319   -3.5647 C   0  0  0  0  0  0  0  0  0  0  0  0
    3.4336    3.2324   -4.1006 C   0  0  0  0  0  0  0  0  0  0  0  0
    4.5405    3.3173   -3.2498 C   0  0  0  0  0  0  0  0  0  0  0  0
    4.3651    3.3131   -1.8616 C   0  0  0  0  0  0  0  0  0  0  0  0
    5.7971    3.3457   -0.7774 S   0  0  0  0  0  0  0  0  0  0  0  0
    5.8554    1.5332   -0.5283 C   0  0  0  0  0  0  0  0  0  0  0  0
    6.5671    0.8398   -1.6840 C   0  0  0  0  0  0  0  0  0  0  0  0
    3.0712    3.2672   -1.3224 C   0  0  0  0  0  0  0  0  0  0  0  0
    2.8850    3.2777    0.0214 F   0  0  0  0  0  0  0  0  0  0  0  0
    1.9648    3.1743   -2.1716 C   0  0  0  0  0  0  0  0  0  0  0  0
    0.3483    3.9844   -5.0944 C   0  0  0  0  0  0  0  0  0  0  0  0
   -0.8457    3.8377   -5.8079 C   0  0  0  0  0  0  0  0  0  0  0  0
   -1.4606    2.5674   -5.9252 C   0  0  0  0  0  0  0  0  0  0  0  0
   -2.7537    2.3821   -6.6128 C   0  0  0  0  0  0  0  0  0  0  0  0
   -3.9068    3.0384   -6.1552 C   0  0  0  0  0  0  0  0  0  0  0  0
   -5.0963    2.9633   -6.8838 C   0  0  0  0  0  0  0  0  0  0  0  0
   -5.1458    2.2239   -8.0731 C   0  0  0  0  0  0  0  0  0  0  0  0
   -6.6469    2.2249   -9.0607 S   0  0  0  0  0  0  0  0  0  0  0  0
   -6.0612    3.5026  -10.2331 C   0  0  0  0  0  0  0  0  0  0  0  0
   -6.1811    4.9039   -9.6476 C   0  0  0  0  0  0  0  0  0  0  0  0
   -4.0185    1.5058   -8.4925 C   0  0  0  0  0  0  0  0  0  0  0  0
   -2.8240    1.5897   -7.7677 C   0  0  0  0  0  0  0  0  0  0  0  0
   -4.0561    0.7708   -9.6334 F   0  0  0  0  0  0  0  0  0  0  0  0
   -0.8507    1.5015   -5.2390 C   0  0  0  0  0  0  0  0  0  0  0  0
   -1.5431    0.0208   -4.8164 S   0  0  0  0  0  0  0  0  0  0  0  0
   -1.4083    5.0668   -6.1934 C   0  0  0  0  0  0  0  0  0  0  0  0
   -0.7192    6.1766   -5.6978 C   0  0  0  0  0  0  0  0  0  0  0  0
    0.6485    5.6210   -4.8756 S   0  0  0  0  0  0  0  0  0  0  0  0
   -1.3843    7.4633   -5.4110 C   0  0  0  0  0  0  0  0  0  0  0  0
   -3.0495    7.5734   -5.2240 S   0  0  0  0  0  0  0  0  0  0  0  0
   -3.0912    8.9997   -4.3501 C   0  0  0  0  0  0  0  0  0  0  0  0
   -1.7740    9.4567   -4.1975 C   0  0  0  0  0  0  0  0  0  0  0  0
   -0.8217    8.5867   -4.7856 C   0  0  0  0  0  0  0  0  0  0  0  0
    0.6038    8.7930   -4.6748 C   0  0  0  0  0  0  0  0  0  0  0  0
    1.7460    8.9614   -4.5879 N   0  0  0  0  0  0  0  0  0  0  0  0
   -1.3966   10.6569   -3.3599 C   0  0  0  0  0  0  0  0  0  0  0  0
   -0.9707   10.2302   -2.1167 F   0  0  0  0  0  0  0  0  0  0  0  0
   -2.4718   11.5101   -3.2010 F   0  0  0  0  0  0  0  0  0  0  0  0
   -0.3810   11.3682   -3.9685 F   0  0  0  0  0  0  0  0  0  0  0  0
   -4.2227    9.3130   -3.4664 C   0  0  0  0  0  0  0  0  0  0  0  0
   -4.1742    9.0437   -1.8117 S   0  0  0  0  0  0  0  0  0  0  0  0
   -5.8254    9.1929   -1.5388 C   0  0  0  0  0  0  0  0  0  0  0  0
   -6.4689    9.4288   -2.7667 C   0  0  0  0  0  0  0  0  0  0  0  0
   -5.5512    9.4904   -3.8503 C   0  0  0  0  0  0  0  0  0  0  0  0
   -5.9250    9.6924   -5.2310 C   0  0  0  0  0  0  0  0  0  0  0  0
   -6.2237    9.8514   -6.3370 N   0  0  0  0  0  0  0  0  0  0  0  0
   -7.9734    9.5702   -2.8927 C   0  0  0  0  0  0  0  0  0  0  0  0
   -8.6003    8.5829   -2.1522 F   0  0  0  0  0  0  0  0  0  0  0  0
   -8.4013    9.4455   -4.1994 F   0  0  0  0  0  0  0  0  0  0  0  0
   -8.3634   10.8091   -2.4175 F   0  0  0  0  0  0  0  0  0  0  0  0
   -6.4509    8.9670   -0.2225 C   0  0  0  0  0  0  0  0  0  0  0  0
   -7.5804    9.9790    0.5034 S   0  0  0  0  0  0  0  0  0  0  0  0
   -7.7860    9.0820    1.9081 C   0  0  0  0  0  0  0  0  0  0  0  0
   -6.9604    7.9593    1.8366 C   0  0  0  0  0  0  0  0  0  0  0  0
   -6.2016    7.9030    0.6466 C   0  0  0  0  0  0  0  0  0  0  0  0
   -5.3143    6.8099    0.3243 C   0  0  0  0  0  0  0  0  0  0  0  0
   -4.6134    5.9301    0.0630 N   0  0  0  0  0  0  0  0  0  0  0  0
   -6.8832    6.9192    2.9250 C   0  0  0  0  0  0  0  0  0  0  0  0
   -7.7845    7.1917    3.9382 F   0  0  0  0  0  0  0  0  0  0  0  0
   -7.1738    5.6714    2.4023 F   0  0  0  0  0  0  0  0  0  0  0  0
   -5.6067    6.9045    3.4555 F   0  0  0  0  0  0  0  0  0  0  0  0
    5.7035   -9.5707    9.8898 H   0  0  0  0  0  0  0  0  0  0  0  0
    4.8754   -7.1128    9.7081 H   0  0  0  0  0  0  0  0  0  0  0  0
    5.6626   -5.1351    7.9725 H   0  0  0  0  0  0  0  0  0  0  0  0
    5.9566   -2.9697    9.1074 H   0  0  0  0  0  0  0  0  0  0  0  0
    4.9879   -0.6432    7.9910 H   0  0  0  0  0  0  0  0  0  0  0  0
    4.6724    0.8722    8.8973 H   0  0  0  0  0  0  0  0  0  0  0  0
    2.5379   -0.9319    7.5821 H   0  0  0  0  0  0  0  0  0  0  0  0
    2.1829    0.5246    8.6008 H   0  0  0  0  0  0  0  0  0  0  0  0
    3.0724    0.6991    7.0401 H   0  0  0  0  0  0  0  0  0  0  0  0
    1.3997   -4.8505    8.5364 H   0  0  0  0  0  0  0  0  0  0  0  0
    5.0238  -10.2925    4.7016 H   0  0  0  0  0  0  0  0  0  0  0  0
    4.7682  -12.2695    3.2542 H   0  0  0  0  0  0  0  0  0  0  0  0
    3.3944  -11.9587    0.7560 H   0  0  0  0  0  0  0  0  0  0  0  0
    2.9503  -13.4613   -0.1199 H   0  0  0  0  0  0  0  0  0  0  0  0
    1.4134  -11.6277   -0.7465 H   0  0  0  0  0  0  0  0  0  0  0  0
    0.5223  -12.9289    0.1325 H   0  0  0  0  0  0  0  0  0  0  0  0
    0.9512  -11.3870    0.9827 H   0  0  0  0  0  0  0  0  0  0  0  0
    0.7378   -9.9847    5.0272 H   0  0  0  0  0  0  0  0  0  0  0  0
    1.5963   -8.0211    3.4365 H   0  0  0  0  0  0  0  0  0  0  0  0
    0.4777   -3.3054    3.6706 H   0  0  0  0  0  0  0  0  0  0  0  0
   -1.9445   -1.5109    3.1266 H   0  0  0  0  0  0  0  0  0  0  0  0
   -1.6297    0.3654    4.6995 H   0  0  0  0  0  0  0  0  0  0  0  0
   -0.0781    3.5490    2.9557 H   0  0  0  0  0  0  0  0  0  0  0  0
   -1.5447    3.1411    3.9278 H   0  0  0  0  0  0  0  0  0  0  0  0
   -0.7823    4.8317    5.6758 H   0  0  0  0  0  0  0  0  0  0  0  0
    0.5751    5.2868    4.5681 H   0  0  0  0  0  0  0  0  0  0  0  0
   -1.1420    5.5645    4.0621 H   0  0  0  0  0  0  0  0  0  0  0  0
    1.8337   -0.5783    1.2684 H   0  0  0  0  0  0  0  0  0  0  0  0
   -2.3400   -5.5604   -2.0416 H   0  0  0  0  0  0  0  0  0  0  0  0
   -2.2877   -7.4068   -3.6720 H   0  0  0  0  0  0  0  0  0  0  0  0
    0.8055   -6.9324   -5.9496 H   0  0  0  0  0  0  0  0  0  0  0  0
    0.6213   -8.3220   -7.0694 H   0  0  0  0  0  0  0  0  0  0  0  0
   -1.8609   -8.0565   -7.0502 H   0  0  0  0  0  0  0  0  0  0  0  0
   -1.0302   -6.5517   -7.5937 H   0  0  0  0  0  0  0  0  0  0  0  0
   -1.7047   -6.6424   -5.9337 H   0  0  0  0  0  0  0  0  0  0  0  0
    1.9327   -5.8720   -1.5552 H   0  0  0  0  0  0  0  0  0  0  0  0
   -0.4015   -3.3084   -3.3613 H   0  0  0  0  0  0  0  0  0  0  0  0
    1.4682    0.5481   -3.0110 H   0  0  0  0  0  0  0  0  0  0  0  0
    3.5850    3.2099   -5.1734 H   0  0  0  0  0  0  0  0  0  0  0  0
    5.5360    3.3589   -3.6688 H   0  0  0  0  0  0  0  0  0  0  0  0
    4.8333    1.1188   -0.4077 H   0  0  0  0  0  0  0  0  0  0  0  0
    6.4160    1.3243    0.4091 H   0  0  0  0  0  0  0  0  0  0  0  0
    6.6206   -0.2515   -1.4859 H   0  0  0  0  0  0  0  0  0  0  0  0
    6.0096    0.9925   -2.6324 H   0  0  0  0  0  0  0  0  0  0  0  0
    7.5991    1.2355   -1.7920 H   0  0  0  0  0  0  0  0  0  0  0  0
    0.9710    3.1050   -1.7466 H   0  0  0  0  0  0  0  0  0  0  0  0
   -3.8709    3.6373   -5.2554 H   0  0  0  0  0  0  0  0  0  0  0  0
   -5.9689    3.5045   -6.5401 H   0  0  0  0  0  0  0  0  0  0  0  0
   -6.6870    3.4459  -11.1488 H   0  0  0  0  0  0  0  0  0  0  0  0
   -5.0077    3.3056  -10.5301 H   0  0  0  0  0  0  0  0  0  0  0  0
   -7.2359    5.1122   -9.3654 H   0  0  0  0  0  0  0  0  0  0  0  0
   -5.5287    5.0141   -8.7584 H   0  0  0  0  0  0  0  0  0  0  0  0
   -5.8664    5.6455  -10.4146 H   0  0  0  0  0  0  0  0  0  0  0  0
   -1.9434    1.0697   -8.1285 H   0  0  0  0  0  0  0  0  0  0  0  0
   -2.3643    5.1530   -6.6908 H   0  0  0  0  0  0  0  0  0  0  0  0
   -8.4433    9.3428    2.7251 H   0  0  0  0  0  0  0  0  0  0  0  0
  1  2  2  0
  2  3  1  0
  3  4  2  0
  4  5  1  0
  5  6  2  0
  6  7  1  0
  7  8  2  0
  8  9  1  0
  9 10  1  0
 10 11  1  0
  8 12  1  0
 12 13  1  0
 12 14  2  0
  4 15  1  0
 15 16  2  0
 16 17  1  0
 17 18  1  0
 18 19  2  0
 19 20  1  0
 20 21  2  0
 21 22  1  0
 22 23  1  0
 23 24  1  0
 21 25  1  0
 25 26  2  0
 25 27  1  0
 17 28  2  0
 28 29  1  0
 16 30  1  0
 30 31  2  0
 31 32  1  0
 31 33  1  0
 33 34  2  0
 34 35  1  0
 35 36  2  0
 36 37  1  0
 37 38  2  0
 38 39  1  0
 39 40  2  0
 40 41  1  0
 41 42  1  0
 42 43  1  0
 40 44  1  0
 44 45  1  0
 44 46  2  0
 36 47  1  0
 47 48  2  0
 48 49  1  0
 49 50  1  0
 50 51  2  0
 51 52  1  0
 52 53  2  0
 53 54  1  0
 54 55  1  0
 55 56  1  0
 53 57  1  0
 57 58  2  0
 57 59  1  0
 49 60  2  0
 60 61  1  0
 48 62  1  0
 62 63  2  0
 63 64  1  0
 63 65  1  0
 65 66  2  0
 66 67  1  0
 67 68  2  0
 68 69  1  0
 69 70  2  0
 70 71  1  0
 71 72  2  0
 72 73  1  0
 73 74  1  0
 74 75  1  0
 72 76  1  0
 76 77  1  0
 76 78  2  0
 68 79  1  0
 79 80  2  0
 80 81  1  0
 81 82  1  0
 82 83  2  0
 83 84  1  0
 84 85  2  0
 85 86  1  0
 86 87  1  0
 87 88  1  0
 85 89  1  0
 89 90  2  0
 89 91  1  0
 81 92  2  0
 92 93  1  0
 80 94  1  0
 94 95  2  0
 95 96  1  0
 95 97  1  0
 97 98  1  0
 98 99  1  0
 99100  2  0
100101  1  0
101102  1  0
102103  3  0
100104  1  0
104105  1  0
104106  1  0
104107  1  0
 99108  1  0
108109  1  0
109110  1  0
110111  2  0
111112  1  0
112113  1  0
113114  3  0
111115  1  0
115116  1  0
115117  1  0
115118  1  0
110119  1  0
119120  1  0
120121  1  0
121122  2  0
122123  1  0
123124  1  0
124125  3  0
122126  1  0
126127  1  0
126128  1  0
126129  1  0
 29  1  1  0
 61 33  1  0
 93 65  1  0
101 97  2  0
112108  2  0
123119  2  0
 28  3  1  0
 60 35  1  0
 92 67  1  0
 14  5  1  0
 32 15  1  0
 46 37  1  0
 64 47  1  0
 78 69  1  0
 96 79  1  0
 26 18  1  0
 58 50  1  0
 90 82  1  0
  1130  1  0
  2131  1  0
  6132  1  0
  7133  1  0
 10134  1  0
 10135  1  0
 11136  1  0
 11137  1  0
 11138  1  0
 14139  1  0
 19140  1  0
 20141  1  0
 23142  1  0
 23143  1  0
 24144  1  0
 24145  1  0
 24146  1  0
 26147  1  0
 30148  1  0
 34149  1  0
 38150  1  0
 39151  1  0
 42152  1  0
 42153  1  0
 43154  1  0
 43155  1  0
 43156  1  0
 46157  1  0
 51158  1  0
 52159  1  0
 55160  1  0
 55161  1  0
 56162  1  0
 56163  1  0
 56164  1  0
 58165  1  0
 62166  1  0
 66167  1  0
 70168  1  0
 71169  1  0
 74170  1  0
 74171  1  0
 75172  1  0
 75173  1  0
 75174  1  0
 78175  1  0
 83176  1  0
 84177  1  0
 87178  1  0
 87179  1  0
 88180  1  0
 88181  1  0
 88182  1  0
 90183  1  0
 94184  1  0
121185  1  0
M  END

