
     RDKit          3D

 83 91  0  0  0  0  0  0  0  0999 V2000
    5.5534    5.5682    5.9706 C   0  0  0  0  0  0  0  0  0  0  0  0
    4.1138    4.7727    6.3423 S   0  0  0  0  0  0  0  0  0  0  0  0
    4.0462    3.7453    5.0138 C   0  0  0  0  0  0  0  0  0  0  0  0
    5.2160    4.0308    4.2190 C   0  0  0  0  0  0  0  0  0  0  0  0
    5.6107    3.4734    3.0382 C   0  0  0  0  0  0  0  0  0  0  0  0
    6.7246    3.8895    2.4066 C   0  0  0  0  0  0  0  0  0  0  0  0
    7.3719    3.4472    1.1012 C   0  0  0  0  0  0  0  0  0  0  0  0
    6.7591    4.3189   -0.0271 C   0  0  0  0  0  0  0  0  0  0  0  0
    7.4039    5.2382    3.5678 Se  0  0  0  0  0  2  0  0  0  0  0  0
    5.9380    4.9928    4.7928 C   0  0  0  0  0  0  0  0  0  0  0  0
    3.0296    2.7218    4.8116 C   0  0  0  0  0  0  0  0  0  0  0  0
    3.2409    1.2916    3.8815 S   0  0  0  0  0  0  0  0  0  0  0  0
    1.6713    0.7353    3.8939 C   0  0  0  0  0  0  0  0  0  0  0  0
    0.9494    1.7014    4.6669 C   0  0  0  0  0  0  0  0  0  0  0  0
   -0.4132    1.7952    4.8186 C   0  0  0  0  0  0  0  0  0  0  0  0
   -1.0262    2.8631    5.3923 C   0  0  0  0  0  0  0  0  0  0  0  0
   -2.5411    3.1676    5.4909 C   0  0  0  0  0  0  0  0  0  0  0  0
   -2.7599    3.8012    4.0790 C   0  0  0  0  0  0  0  0  0  0  0  0
    0.3520    4.0261    5.8556 Se  0  0  0  0  0  2  0  0  0  0  0  0
    1.7347    2.6527    5.0726 C   0  0  0  0  0  0  0  0  0  0  0  0
    1.2332   -0.4795    3.2161 C   0  0  0  0  0  0  0  0  0  0  0  0
    1.9360   -1.0132    1.7151 S   0  0  0  0  0  0  0  0  0  0  0  0
    0.8472   -2.3204    1.4337 C   0  0  0  0  0  0  0  0  0  0  0  0
   -0.0303   -2.3384    2.5395 C   0  0  0  0  0  0  0  0  0  0  0  0
   -1.0346   -3.2247    2.8434 C   0  0  0  0  0  0  0  0  0  0  0  0
   -1.7714   -3.1530    3.9670 C   0  0  0  0  0  0  0  0  0  0  0  0
   -2.9039   -3.9687    4.5429 C   0  0  0  0  0  0  0  0  0  0  0  0
   -3.1357   -5.0887    3.6038 C   0  0  0  0  0  0  0  0  0  0  0  0
   -1.0967   -1.6780    4.8396 Se  0  0  0  0  0  2  0  0  0  0  0  0
    0.2459   -1.3669    3.3699 C   0  0  0  0  0  0  0  0  0  0  0  0
    0.6164   -2.9241    0.0829 C   0  0  0  0  0  0  0  0  0  0  0  0
   -0.9891   -3.0228   -0.5624 S   0  0  0  0  0  0  0  0  0  0  0  0
   -0.5777   -3.5184   -2.1412 C   0  0  0  0  0  0  0  0  0  0  0  0
    0.7436   -3.6022   -2.1259 C   0  0  0  0  0  0  0  0  0  0  0  0
    1.3969   -3.2770   -0.9036 C   0  0  0  0  0  0  0  0  0  0  0  0
    2.7485   -3.6623   -0.7825 C   0  0  0  0  0  0  0  0  0  0  0  0
    3.9425   -4.0233   -0.6774 N   0  0  0  0  0  0  0  0  0  0  0  0
    1.5297   -3.8649   -3.4090 C   0  0  0  0  0  0  0  0  0  0  0  0
    1.2916   -2.8409   -4.3363 F   0  0  0  0  0  0  0  0  0  0  0  0
    1.2720   -5.1262   -3.8645 F   0  0  0  0  0  0  0  0  0  0  0  0
    2.8786   -3.7980   -3.1798 F   0  0  0  0  0  0  0  0  0  0  0  0
   -1.6334   -3.5722   -3.2163 C   0  0  0  0  0  0  0  0  0  0  0  0
   -1.3304   -3.5126   -4.8879 S   0  0  0  0  0  0  0  0  0  0  0  0
   -3.0473   -3.4925   -5.3934 C   0  0  0  0  0  0  0  0  0  0  0  0
   -3.6927   -3.5288   -4.2114 C   0  0  0  0  0  0  0  0  0  0  0  0
   -2.9472   -3.5663   -3.0877 C   0  0  0  0  0  0  0  0  0  0  0  0
   -3.5522   -3.5539   -1.7511 C   0  0  0  0  0  0  0  0  0  0  0  0
   -4.0269   -3.5337   -0.7237 N   0  0  0  0  0  0  0  0  0  0  0  0
   -5.2443   -3.5241   -4.1844 C   0  0  0  0  0  0  0  0  0  0  0  0
   -5.7725   -4.7209   -4.6793 F   0  0  0  0  0  0  0  0  0  0  0  0
   -5.6720   -2.5720   -5.1444 F   0  0  0  0  0  0  0  0  0  0  0  0
   -5.7092   -3.1986   -2.9811 F   0  0  0  0  0  0  0  0  0  0  0  0
   -3.5075   -3.3801   -6.8105 C   0  0  0  0  0  0  0  0  0  0  0  0
   -4.6638   -4.1256   -7.7242 S   0  0  0  0  0  0  0  0  0  0  0  0
   -4.6280   -3.2043   -9.1439 C   0  0  0  0  0  0  0  0  0  0  0  0
   -3.6723   -2.2912   -8.8585 C   0  0  0  0  0  0  0  0  0  0  0  0
   -3.0246   -2.3332   -7.6293 C   0  0  0  0  0  0  0  0  0  0  0  0
   -2.0124   -1.5146   -7.2909 C   0  0  0  0  0  0  0  0  0  0  0  0
   -0.9865   -0.6536   -6.9382 N   0  0  0  0  0  0  0  0  0  0  0  0
   -3.4178   -1.0783   -9.7668 C   0  0  0  0  0  0  0  0  0  0  0  0
   -2.0871   -0.8824   -9.9861 F   0  0  0  0  0  0  0  0  0  0  0  0
   -3.9703   -0.0090   -9.1273 F   0  0  0  0  0  0  0  0  0  0  0  0
   -4.0438   -1.2458  -10.9749 F   0  0  0  0  0  0  0  0  0  0  0  0
    6.1126    6.3412    6.5111 H   0  0  0  0  0  0  0  0  0  0  0  0
    5.0932    2.6104    2.4899 H   0  0  0  0  0  0  0  0  0  0  0  0
    7.0984    2.4559    0.8669 H   0  0  0  0  0  0  0  0  0  0  0  0
    8.4368    3.7397    1.1317 H   0  0  0  0  0  0  0  0  0  0  0  0
    7.2064    3.9986   -0.9463 H   0  0  0  0  0  0  0  0  0  0  0  0
    5.6442    4.1338   -0.0805 H   0  0  0  0  0  0  0  0  0  0  0  0
    6.9634    5.3932    0.1801 H   0  0  0  0  0  0  0  0  0  0  0  0
   -1.1550    0.9854    4.4926 H   0  0  0  0  0  0  0  0  0  0  0  0
   -2.7559    3.7778    6.3157 H   0  0  0  0  0  0  0  0  0  0  0  0
   -3.0445    2.2248    5.4610 H   0  0  0  0  0  0  0  0  0  0  0  0
   -3.3531    4.6769    4.1426 H   0  0  0  0  0  0  0  0  0  0  0  0
   -3.0414    3.0144    3.3174 H   0  0  0  0  0  0  0  0  0  0  0  0
   -1.7447    4.1407    3.6882 H   0  0  0  0  0  0  0  0  0  0  0  0
   -1.3497   -4.0841    2.1196 H   0  0  0  0  0  0  0  0  0  0  0  0
   -2.5763   -4.2673    5.5772 H   0  0  0  0  0  0  0  0  0  0  0  0
   -3.7625   -3.2618    4.5366 H   0  0  0  0  0  0  0  0  0  0  0  0
   -3.8269   -5.7916    4.1061 H   0  0  0  0  0  0  0  0  0  0  0  0
   -2.1574   -5.5675    3.3866 H   0  0  0  0  0  0  0  0  0  0  0  0
   -3.5841   -4.6972    2.6507 H   0  0  0  0  0  0  0  0  0  0  0  0
   -5.2022   -3.2897  -10.0860 H   0  0  0  0  0  0  0  0  0  0  0  0
  1  2  1  0
  2  3  1  0
  3  4  2  0
  4  5  1  0
  5  6  2  0
  6  7  1  0
  7  8  1  0
  6  9  1  0
  9 10  1  0
  3 11  1  0
 11 12  1  0
 12 13  1  0
 13 14  2  0
 14 15  1  0
 15 16  2  0
 16 17  1  0
 17 18  1  0
 16 19  1  0
 19 20  1  0
 13 21  1  0
 21 22  1  0
 22 23  1  0
 23 24  2  0
 24 25  1  0
 25 26  2  0
 26 27  1  0
 27 28  1  0
 26 29  1  0
 29 30  1  0
 23 31  1  0
 31 32  1  0
 32 33  1  0
 33 34  2  0
 34 35  1  0
 35 36  1  0
 36 37  3  0
 34 38  1  0
 38 39  1  0
 38 40  1  0
 38 41  1  0
 33 42  1  0
 42 43  1  0
 43 44  1  0
 44 45  2  0
 45 46  1  0
 46 47  1  0
 47 48  3  0
 45 49  1  0
 49 50  1  0
 49 51  1  0
 49 52  1  0
 44 53  1  0
 53 54  1  0
 54 55  1  0
 55 56  2  0
 56 57  1  0
 57 58  1  0
 58 59  3  0
 56 60  1  0
 60 61  1  0
 60 62  1  0
 60 63  1  0
 10  1  2  0
 20 11  2  0
 30 21  2  0
 35 31  2  0
 46 42  2  0
 57 53  2  0
 10  4  1  0
 20 14  1  0
 30 24  1  0
  1 64  1  0
  5 65  1  0
  7 66  1  0
  7 67  1  0
  8 68  1  0
  8 69  1  0
  8 70  1  0
 15 71  1  0
 17 72  1  0
 17 73  1  0
 18 74  1  0
 18 75  1  0
 18 76  1  0
 25 77  1  0
 27 78  1  0
 27 79  1  0
 28 80  1  0
 28 81  1  0
 28 82  1  0
 55 83  1  0
M  END

