
     RDKit          3D

161178  0  0  0  0  0  0  0  0999 V2000
   -1.2628    4.1890    9.4953 C   0  0  0  0  0  0  0  0  0  0  0  0
   -1.8503    2.9288    9.4127 C   0  0  0  0  0  0  0  0  0  0  0  0
   -1.2653    2.1091    8.4341 C   0  0  0  0  0  0  0  0  0  0  0  0
   -1.6336    0.7867    8.1213 C   0  0  0  0  0  0  0  0  0  0  0  0
   -2.7887    0.1287    8.7529 C   0  0  0  0  0  0  0  0  0  0  0  0
   -4.3839    0.6356    8.5844 S   0  0  0  0  0  0  0  0  0  0  0  0
   -5.0640   -0.6148    9.4806 C   0  0  0  0  0  0  0  0  0  0  0  0
   -6.5246   -0.7413    9.7894 C   0  0  0  0  0  0  0  0  0  0  0  0
   -6.8621   -0.0288   11.0938 C   0  0  0  0  0  0  0  0  0  0  0  0
   -4.0396   -1.4418    9.9437 C   0  0  0  0  0  0  0  0  0  0  0  0
   -4.3128   -2.8486   10.9618 Cl  0  0  0  0  0  0  0  0  0  0  0  0
   -2.7635   -1.0312    9.5267 C   0  0  0  0  0  0  0  0  0  0  0  0
   -1.2828   -1.8591    9.9828 Cl  0  0  0  0  0  0  0  0  0  0  0  0
   -0.9037    0.1453    7.1049 C   0  0  0  0  0  0  0  0  0  0  0  0
    0.1383    0.7750    6.4159 C   0  0  0  0  0  0  0  0  0  0  0  0
    0.5123    2.0991    6.7309 C   0  0  0  0  0  0  0  0  0  0  0  0
    1.5532    2.8165    5.9713 C   0  0  0  0  0  0  0  0  0  0  0  0
    1.2721    4.1857    5.0325 S   0  0  0  0  0  0  0  0  0  0  0  0
    2.8474    4.3396    4.4613 C   0  0  0  0  0  0  0  0  0  0  0  0
    3.3253    5.4551    3.5775 C   0  0  0  0  0  0  0  0  0  0  0  0
    3.7402    6.6624    4.4107 C   0  0  0  0  0  0  0  0  0  0  0  0
    3.6246    3.3259    5.0189 C   0  0  0  0  0  0  0  0  0  0  0  0
    2.8973    2.4674    5.8575 C   0  0  0  0  0  0  0  0  0  0  0  0
    3.6244    1.1126    6.7145 Cl  0  0  0  0  0  0  0  0  0  0  0  0
    5.3459    3.1420    4.7113 Cl  0  0  0  0  0  0  0  0  0  0  0  0
   -0.2176    2.7353    7.7498 C   0  0  0  0  0  0  0  0  0  0  0  0
   -0.0210    4.2908    8.3586 S   0  0  0  0  0  0  0  0  0  0  0  0
    0.6529   -0.0055    5.3696 C   0  0  0  0  0  0  0  0  0  0  0  0
    0.0135   -1.2380    5.2411 C   0  0  0  0  0  0  0  0  0  0  0  0
   -1.1954   -1.3613    6.4139 S   0  0  0  0  0  0  0  0  0  0  0  0
    0.2219   -2.1832    4.1358 C   0  0  0  0  0  0  0  0  0  0  0  0
   -0.5959   -3.2709    3.8275 C   0  0  0  0  0  0  0  0  0  0  0  0
   -0.3006   -3.8393    2.5765 C   0  0  0  0  0  0  0  0  0  0  0  0
   -1.0118   -4.8774    1.9392 C   0  0  0  0  0  0  0  0  0  0  0  0
   -2.1626   -5.5377    2.5746 C   0  0  0  0  0  0  0  0  0  0  0  0
   -2.1687   -7.1355    3.0956 S   0  0  0  0  0  0  0  0  0  0  0  0
   -3.7268   -7.1067    3.7299 C   0  0  0  0  0  0  0  0  0  0  0  0
   -4.3663   -8.2496    4.4601 C   0  0  0  0  0  0  0  0  0  0  0  0
   -4.0823   -8.1628    5.9566 C   0  0  0  0  0  0  0  0  0  0  0  0
   -4.2610   -5.8309    3.5495 C   0  0  0  0  0  0  0  0  0  0  0  0
   -5.8642   -5.3631    4.0981 Cl  0  0  0  0  0  0  0  0  0  0  0  0
   -3.3843   -4.9522    2.8941 C   0  0  0  0  0  0  0  0  0  0  0  0
   -3.7976   -3.2890    2.4976 Cl  0  0  0  0  0  0  0  0  0  0  0  0
   -0.6069   -5.2192    0.6361 C   0  0  0  0  0  0  0  0  0  0  0  0
    0.4650   -4.5890   -0.0067 C   0  0  0  0  0  0  0  0  0  0  0  0
    1.1878   -3.5638    0.6361 C   0  0  0  0  0  0  0  0  0  0  0  0
    2.2520   -2.8034   -0.0521 C   0  0  0  0  0  0  0  0  0  0  0  0
    2.2358   -1.1367   -0.2893 S   0  0  0  0  0  0  0  0  0  0  0  0
    3.7649   -1.0312   -0.9779 C   0  0  0  0  0  0  0  0  0  0  0  0
    4.4508    0.2582   -1.3160 C   0  0  0  0  0  0  0  0  0  0  0  0
    5.1628    0.8244   -0.0926 C   0  0  0  0  0  0  0  0  0  0  0  0
    4.3190   -2.3093   -1.0221 C   0  0  0  0  0  0  0  0  0  0  0  0
    3.4687   -3.3046   -0.5098 C   0  0  0  0  0  0  0  0  0  0  0  0
    3.9347   -4.9943   -0.3685 Cl  0  0  0  0  0  0  0  0  0  0  0  0
    5.9406   -2.6416   -1.6134 Cl  0  0  0  0  0  0  0  0  0  0  0  0
    0.7689   -3.2114    1.9290 C   0  0  0  0  0  0  0  0  0  0  0  0
    1.3346   -1.9557    2.8894 S   0  0  0  0  0  0  0  0  0  0  0  0
    0.5937   -4.9627   -1.3498 C   0  0  0  0  0  0  0  0  0  0  0  0
   -0.3813   -5.8666   -1.7665 C   0  0  0  0  0  0  0  0  0  0  0  0
   -1.4168   -6.1960   -0.4749 S   0  0  0  0  0  0  0  0  0  0  0  0
   -0.7258   -6.0289   -3.1800 C   0  0  0  0  0  0  0  0  0  0  0  0
   -1.5600   -4.8165   -3.9701 S   0  0  0  0  0  0  0  0  0  0  0  0
   -0.9185   -5.0383   -5.5057 C   0  0  0  0  0  0  0  0  0  0  0  0
   -0.0357   -6.1314   -5.4357 C   0  0  0  0  0  0  0  0  0  0  0  0
    0.0913   -6.6509   -4.1235 C   0  0  0  0  0  0  0  0  0  0  0  0
    1.0845   -7.6284   -3.7489 C   0  0  0  0  0  0  0  0  0  0  0  0
    1.8784   -8.4135   -3.4478 N   0  0  0  0  0  0  0  0  0  0  0  0
    0.8220   -6.6014   -6.5879 C   0  0  0  0  0  0  0  0  0  0  0  0
    0.2959   -6.1835   -7.7984 F   0  0  0  0  0  0  0  0  0  0  0  0
    0.8753   -7.9832   -6.6012 F   0  0  0  0  0  0  0  0  0  0  0  0
    2.1040   -6.0995   -6.4473 F   0  0  0  0  0  0  0  0  0  0  0  0
   -0.7939   -3.8789   -6.4084 C   0  0  0  0  0  0  0  0  0  0  0  0
   -1.7183   -2.8274   -6.4250 C   0  0  0  0  0  0  0  0  0  0  0  0
   -1.1405   -1.5720   -6.6933 C   0  0  0  0  0  0  0  0  0  0  0  0
   -1.7599   -0.3113   -6.5348 C   0  0  0  0  0  0  0  0  0  0  0  0
   -3.1998   -0.1594   -6.2497 C   0  0  0  0  0  0  0  0  0  0  0  0
   -3.9903   -0.7493   -4.8842 S   0  0  0  0  0  0  0  0  0  0  0  0
   -5.4938   -0.0876   -5.2470 C   0  0  0  0  0  0  0  0  0  0  0  0
   -6.7373   -0.3030   -4.4385 C   0  0  0  0  0  0  0  0  0  0  0  0
   -7.4278   -1.5992   -4.8491 C   0  0  0  0  0  0  0  0  0  0  0  0
   -5.3968    0.6074   -6.4536 C   0  0  0  0  0  0  0  0  0  0  0  0
   -6.7529    1.4267   -7.2173 Cl  0  0  0  0  0  0  0  0  0  0  0  0
   -4.1097    0.5760   -7.0082 C   0  0  0  0  0  0  0  0  0  0  0  0
   -3.6946    1.3530   -8.5317 Cl  0  0  0  0  0  0  0  0  0  0  0  0
   -0.9131    0.8134   -6.5450 C   0  0  0  0  0  0  0  0  0  0  0  0
    0.4655    0.7173   -6.7447 C   0  0  0  0  0  0  0  0  0  0  0  0
    1.0623   -0.5286   -7.0076 C   0  0  0  0  0  0  0  0  0  0  0  0
    2.5216   -0.6845   -7.0843 C   0  0  0  0  0  0  0  0  0  0  0  0
    3.3900   -0.9476   -8.4970 S   0  0  0  0  0  0  0  0  0  0  0  0
    4.8958   -1.0722   -7.7538 C   0  0  0  0  0  0  0  0  0  0  0  0
    6.1936   -1.2233   -8.4852 C   0  0  0  0  0  0  0  0  0  0  0  0
    6.7651    0.1427   -8.8467 C   0  0  0  0  0  0  0  0  0  0  0  0
    4.7347   -0.8928   -6.3796 C   0  0  0  0  0  0  0  0  0  0  0  0
    3.3994   -0.6924   -6.0037 C   0  0  0  0  0  0  0  0  0  0  0  0
    2.8769   -0.4913   -4.3399 Cl  0  0  0  0  0  0  0  0  0  0  0  0
    6.0664   -0.9169   -5.2325 Cl  0  0  0  0  0  0  0  0  0  0  0  0
    0.2302   -1.6544   -6.9565 C   0  0  0  0  0  0  0  0  0  0  0  0
    0.7179   -3.2484   -6.8127 S   0  0  0  0  0  0  0  0  0  0  0  0
    1.1515    1.9150   -6.4870 C   0  0  0  0  0  0  0  0  0  0  0  0
    0.3180    2.9492   -6.0521 C   0  0  0  0  0  0  0  0  0  0  0  0
   -1.2707    2.3722   -6.0222 S   0  0  0  0  0  0  0  0  0  0  0  0
    0.7434    4.2170   -5.4178 C   0  0  0  0  0  0  0  0  0  0  0  0
   -0.2272    5.0734   -4.3469 S   0  0  0  0  0  0  0  0  0  0  0  0
    0.9198    6.2028   -3.8834 C   0  0  0  0  0  0  0  0  0  0  0  0
    2.1082    5.9549   -4.5821 C   0  0  0  0  0  0  0  0  0  0  0  0
    2.0075    4.8290   -5.4359 C   0  0  0  0  0  0  0  0  0  0  0  0
    3.0979    4.3862   -6.2695 C   0  0  0  0  0  0  0  0  0  0  0  0
    3.9752    4.0384   -6.9378 N   0  0  0  0  0  0  0  0  0  0  0  0
    3.3847    6.7593   -4.4276 C   0  0  0  0  0  0  0  0  0  0  0  0
    4.3077    6.0127   -3.7196 F   0  0  0  0  0  0  0  0  0  0  0  0
    3.9042    7.0622   -5.6725 F   0  0  0  0  0  0  0  0  0  0  0  0
    3.1674    7.9516   -3.7622 F   0  0  0  0  0  0  0  0  0  0  0  0
    0.6771    7.2097   -2.8430 C   0  0  0  0  0  0  0  0  0  0  0  0
   -0.4339    8.4615   -2.9775 S   0  0  0  0  0  0  0  0  0  0  0  0
   -0.1753    9.1051   -1.4436 C   0  0  0  0  0  0  0  0  0  0  0  0
    0.7749    8.3237   -0.7858 C   0  0  0  0  0  0  0  0  0  0  0  0
    1.2478    7.2529   -1.5732 C   0  0  0  0  0  0  0  0  0  0  0  0
    2.1803    6.2591   -1.0983 C   0  0  0  0  0  0  0  0  0  0  0  0
    2.9198    5.4562   -0.7143 N   0  0  0  0  0  0  0  0  0  0  0  0
    1.2479    8.6091    0.6154 C   0  0  0  0  0  0  0  0  0  0  0  0
    1.0891    7.4828    1.4028 F   0  0  0  0  0  0  0  0  0  0  0  0
    2.5858    8.9639    0.5854 F   0  0  0  0  0  0  0  0  0  0  0  0
    0.5241    9.6460    1.1815 F   0  0  0  0  0  0  0  0  0  0  0  0
   -1.5544    4.9718   10.1833 H   0  0  0  0  0  0  0  0  0  0  0  0
   -2.6677    2.6229   10.0516 H   0  0  0  0  0  0  0  0  0  0  0  0
   -6.8074   -1.8138    9.8653 H   0  0  0  0  0  0  0  0  0  0  0  0
   -7.1168   -0.2890    8.9648 H   0  0  0  0  0  0  0  0  0  0  0  0
   -6.2822   -0.4680   11.9334 H   0  0  0  0  0  0  0  0  0  0  0  0
   -7.9450   -0.1402   11.3101 H   0  0  0  0  0  0  0  0  0  0  0  0
   -6.6250    1.0529   11.0113 H   0  0  0  0  0  0  0  0  0  0  0  0
    2.5104    5.7486    2.8856 H   0  0  0  0  0  0  0  0  0  0  0  0
    4.1854    5.1150    2.9632 H   0  0  0  0  0  0  0  0  0  0  0  0
    4.1009    7.4730    3.7405 H   0  0  0  0  0  0  0  0  0  0  0  0
    4.5580    6.3856    5.1103 H   0  0  0  0  0  0  0  0  0  0  0  0
    2.8750    7.0419    4.9941 H   0  0  0  0  0  0  0  0  0  0  0  0
    1.4194    0.3370    4.6872 H   0  0  0  0  0  0  0  0  0  0  0  0
   -1.4155   -3.5915    4.4548 H   0  0  0  0  0  0  0  0  0  0  0  0
   -3.9633   -9.2076    4.0677 H   0  0  0  0  0  0  0  0  0  0  0  0
   -5.4637   -8.2451    4.2894 H   0  0  0  0  0  0  0  0  0  0  0  0
   -4.5425   -9.0332    6.4729 H   0  0  0  0  0  0  0  0  0  0  0  0
   -4.5117   -7.2296    6.3787 H   0  0  0  0  0  0  0  0  0  0  0  0
   -2.9863   -8.1771    6.1429 H   0  0  0  0  0  0  0  0  0  0  0  0
    3.6991    0.9919   -1.6740 H   0  0  0  0  0  0  0  0  0  0  0  0
    5.1849    0.0985   -2.1340 H   0  0  0  0  0  0  0  0  0  0  0  0
    5.9264    0.1067    0.2760 H   0  0  0  0  0  0  0  0  0  0  0  0
    4.4299    1.0332    0.7164 H   0  0  0  0  0  0  0  0  0  0  0  0
    5.6697    1.7759   -0.3625 H   0  0  0  0  0  0  0  0  0  0  0  0
    1.2931   -4.5003   -2.0356 H   0  0  0  0  0  0  0  0  0  0  0  0
   -2.7382   -2.9541   -6.0890 H   0  0  0  0  0  0  0  0  0  0  0  0
   -6.4766   -0.3461   -3.3597 H   0  0  0  0  0  0  0  0  0  0  0  0
   -7.4327    0.5477   -4.5868 H   0  0  0  0  0  0  0  0  0  0  0  0
   -8.3978   -1.6911   -4.3136 H   0  0  0  0  0  0  0  0  0  0  0  0
   -6.7948   -2.4684   -4.5702 H   0  0  0  0  0  0  0  0  0  0  0  0
   -7.6239   -1.6120   -5.9433 H   0  0  0  0  0  0  0  0  0  0  0  0
    6.0289   -1.8074   -9.4163 H   0  0  0  0  0  0  0  0  0  0  0  0
    6.9249   -1.7799   -7.8578 H   0  0  0  0  0  0  0  0  0  0  0  0
    6.9239    0.7470   -7.9277 H   0  0  0  0  0  0  0  0  0  0  0  0
    7.7361    0.0163   -9.3657 H   0  0  0  0  0  0  0  0  0  0  0  0
    6.0668    0.6865   -9.5205 H   0  0  0  0  0  0  0  0  0  0  0  0
    2.2270    1.9766   -6.5035 H   0  0  0  0  0  0  0  0  0  0  0  0
   -0.6676    9.9809   -1.0436 H   0  0  0  0  0  0  0  0  0  0  0  0
  1  2  2  0
  2  3  1  0
  3  4  2  0
  4  5  1  0
  5  6  1  0
  6  7  1  0
  7  8  1  0
  8  9  1  0
  7 10  2  0
 10 11  1  0
 10 12  1  0
 12 13  1  0
  4 14  1  0
 14 15  2  0
 15 16  1  0
 16 17  1  0
 17 18  1  0
 18 19  1  0
 19 20  1  0
 20 21  1  0
 19 22  2  0
 22 23  1  0
 23 24  1  0
 22 25  1  0
 16 26  2  0
 26 27  1  0
 15 28  1  0
 28 29  2  0
 29 30  1  0
 29 31  1  0
 31 32  2  0
 32 33  1  0
 33 34  2  0
 34 35  1  0
 35 36  1  0
 36 37  1  0
 37 38  1  0
 38 39  1  0
 37 40  2  0
 40 41  1  0
 40 42  1  0
 42 43  1  0
 34 44  1  0
 44 45  2  0
 45 46  1  0
 46 47  1  0
 47 48  1  0
 48 49  1  0
 49 50  1  0
 50 51  1  0
 49 52  2  0
 52 53  1  0
 53 54  1  0
 52 55  1  0
 46 56  2  0
 56 57  1  0
 45 58  1  0
 58 59  2  0
 59 60  1  0
 59 61  1  0
 61 62  1  0
 62 63  1  0
 63 64  2  0
 64 65  1  0
 65 66  1  0
 66 67  3  0
 64 68  1  0
 68 69  1  0
 68 70  1  0
 68 71  1  0
 63 72  1  0
 72 73  2  0
 73 74  1  0
 74 75  2  0
 75 76  1  0
 76 77  1  0
 77 78  1  0
 78 79  1  0
 79 80  1  0
 78 81  2  0
 81 82  1  0
 81 83  1  0
 83 84  1  0
 75 85  1  0
 85 86  2  0
 86 87  1  0
 87 88  1  0
 88 89  1  0
 89 90  1  0
 90 91  1  0
 91 92  1  0
 90 93  2  0
 93 94  1  0
 94 95  1  0
 93 96  1  0
 87 97  2  0
 97 98  1  0
 86 99  1  0
 99100  2  0
100101  1  0
100102  1  0
102103  1  0
103104  1  0
104105  2  0
105106  1  0
106107  1  0
107108  3  0
105109  1  0
109110  1  0
109111  1  0
109112  1  0
104113  1  0
113114  1  0
114115  1  0
115116  2  0
116117  1  0
117118  1  0
118119  3  0
116120  1  0
120121  1  0
120122  1  0
120123  1  0
 27  1  1  0
 57 31  1  0
 65 61  2  0
 98 72  1  0
106102  2  0
117113  2  0
 26  3  1  0
 56 33  1  0
 97 74  1  0
 12  5  2  0
 30 14  1  0
 42 35  2  0
 60 44  1  0
 83 76  2  0
101 85  1  0
 23 17  2  0
 53 47  2  0
 94 88  2  0
  1124  1  0
  2125  1  0
  8126  1  0
  8127  1  0
  9128  1  0
  9129  1  0
  9130  1  0
 20131  1  0
 20132  1  0
 21133  1  0
 21134  1  0
 21135  1  0
 28136  1  0
 32137  1  0
 38138  1  0
 38139  1  0
 39140  1  0
 39141  1  0
 39142  1  0
 50143  1  0
 50144  1  0
 51145  1  0
 51146  1  0
 51147  1  0
 58148  1  0
 73149  1  0
 79150  1  0
 79151  1  0
 80152  1  0
 80153  1  0
 80154  1  0
 91155  1  0
 91156  1  0
 92157  1  0
 92158  1  0
 92159  1  0
 99160  1  0
115161  1  0
M  END

