
     RDKit          3D

 83 91  0  0  0  0  0  0  0  0999 V2000
   -6.9742    3.4570   -6.1834 C   0  0  0  0  0  0  0  0  0  0  0  0
   -5.3213    3.5781   -6.3594 S   0  0  0  0  0  0  0  0  0  0  0  0
   -4.9480    2.9682   -4.9376 C   0  0  0  0  0  0  0  0  0  0  0  0
   -5.8191    2.5306   -4.0072 C   0  0  0  0  0  0  0  0  0  0  0  0
   -6.6945    2.1720   -3.1770 C   0  0  0  0  0  0  0  0  0  0  0  0
   -7.4980    1.8136   -2.3437 C   0  0  0  0  0  0  0  0  0  0  0  0
   -8.4874    1.3761   -1.3303 C   0  0  0  0  0  0  0  0  0  0  0  0
   -7.8125    1.0635   -0.0140 C   0  0  0  0  0  0  0  0  0  0  0  0
   -8.6787    2.4478   -3.9464 Se  0  0  0  0  0  2  0  0  0  0  0  0
   -7.1193    2.9247   -4.9794 C   0  0  0  0  0  0  0  0  0  0  0  0
   -3.4612    3.0634   -4.4099 C   0  0  0  0  0  0  0  0  0  0  0  0
   -2.7158    2.5416   -3.0614 S   0  0  0  0  0  0  0  0  0  0  0  0
   -1.2277    3.2847   -3.1580 C   0  0  0  0  0  0  0  0  0  0  0  0
   -1.3284    4.0378   -4.3826 C   0  0  0  0  0  0  0  0  0  0  0  0
   -0.3921    4.8317   -5.0107 C   0  0  0  0  0  0  0  0  0  0  0  0
   -0.5852    5.4103   -6.1513 C   0  0  0  0  0  0  0  0  0  0  0  0
    0.2002    6.3255   -7.0535 C   0  0  0  0  0  0  0  0  0  0  0  0
    1.0783    5.3606   -7.8449 C   0  0  0  0  0  0  0  0  0  0  0  0
   -2.4170    4.9033   -6.6511 Se  0  0  0  0  0  2  0  0  0  0  0  0
   -2.5237    3.8815   -4.9991 C   0  0  0  0  0  0  0  0  0  0  0  0
   -0.0818    3.2026   -2.2486 C   0  0  0  0  0  0  0  0  0  0  0  0
    0.1793    1.5035   -1.6733 S   0  0  0  0  0  0  0  0  0  0  0  0
    1.5637    1.6679   -0.8411 C   0  0  0  0  0  0  0  0  0  0  0  0
    1.9653    3.1493   -0.9659 C   0  0  0  0  0  0  0  0  0  0  0  0
    0.8687    3.6044   -1.7342 C   0  0  0  0  0  0  0  0  0  0  0  0
    0.8239    5.1902   -1.5890 C   0  0  0  0  0  0  0  0  0  0  0  0
    0.8103    6.4325   -1.4702 N   0  0  0  0  0  0  0  0  0  0  0  0
    3.1209    3.6831   -0.4277 C   0  0  0  0  0  0  0  0  0  0  0  0
    3.2304    3.4700    0.9924 F   0  0  0  0  0  0  0  0  0  0  0  0
    4.3203    3.2675   -0.9462 F   0  0  0  0  0  0  0  0  0  0  0  0
    3.0808    5.1091   -0.4738 F   0  0  0  0  0  0  0  0  0  0  0  0
    2.2101    0.5888   -0.1040 C   0  0  0  0  0  0  0  0  0  0  0  0
    3.6257   -0.2766    0.0936 S   0  0  0  0  0  0  0  0  0  0  0  0
    3.1309   -1.5032    1.2669 C   0  0  0  0  0  0  0  0  0  0  0  0
    1.8673   -1.0909    1.3779 C   0  0  0  0  0  0  0  0  0  0  0  0
    1.2453   -0.1280    0.8530 C   0  0  0  0  0  0  0  0  0  0  0  0
   -0.0592    0.3925    1.0514 C   0  0  0  0  0  0  0  0  0  0  0  0
   -1.1731    0.8418    1.2127 N   0  0  0  0  0  0  0  0  0  0  0  0
    0.8488   -2.1638    2.0552 C   0  0  0  0  0  0  0  0  0  0  0  0
    0.8728   -2.3631    3.3279 F   0  0  0  0  0  0  0  0  0  0  0  0
   -0.3996   -1.9048    1.5629 F   0  0  0  0  0  0  0  0  0  0  0  0
    1.1987   -3.3889    1.3486 F   0  0  0  0  0  0  0  0  0  0  0  0
    3.7512   -2.6009    1.9568 C   0  0  0  0  0  0  0  0  0  0  0  0
    4.4445   -4.0291    1.8113 S   0  0  0  0  0  0  0  0  0  0  0  0
    4.3316   -4.7632    3.3128 C   0  0  0  0  0  0  0  0  0  0  0  0
    3.6998   -3.7667    3.9087 C   0  0  0  0  0  0  0  0  0  0  0  0
    3.2753   -2.6398    3.5913 C   0  0  0  0  0  0  0  0  0  0  0  0
    2.9660   -1.4366    4.0727 C   0  0  0  0  0  0  0  0  0  0  0  0
    2.6355   -0.2256    4.5436 N   0  0  0  0  0  0  0  0  0  0  0  0
    3.4612   -4.0918    5.5083 C   0  0  0  0  0  0  0  0  0  0  0  0
    2.9660   -2.9081    6.0690 F   0  0  0  0  0  0  0  0  0  0  0  0
    2.4349   -4.9857    5.4362 F   0  0  0  0  0  0  0  0  0  0  0  0
    4.6044   -4.5807    6.0243 F   0  0  0  0  0  0  0  0  0  0  0  0
    4.5483   -6.1156    3.9120 C   0  0  0  0  0  0  0  0  0  0  0  0
    5.6910   -6.8270    4.9415 S   0  0  0  0  0  0  0  0  0  0  0  0
    4.8104   -8.2926    5.3749 C   0  0  0  0  0  0  0  0  0  0  0  0
    3.6157   -8.1697    4.6682 C   0  0  0  0  0  0  0  0  0  0  0  0
    2.3584   -8.7102    4.3619 C   0  0  0  0  0  0  0  0  0  0  0  0
    1.4255   -8.9743    4.0516 C   0  0  0  0  0  0  0  0  0  0  0  0
    0.0339   -9.4457    3.6345 C   0  0  0  0  0  0  0  0  0  0  0  0
   -0.8962   -8.9507    4.6759 C   0  0  0  0  0  0  0  0  0  0  0  0
    1.7553   -7.0222    3.0211 Se  0  0  0  0  0  2  0  0  0  0  0  0
    3.5745   -7.0495    3.9646 C   0  0  0  0  0  0  0  0  0  0  0  0
   -7.7934    3.7148   -6.8826 H   0  0  0  0  0  0  0  0  0  0  0  0
   -5.6295    1.9499   -2.1190 H   0  0  0  0  0  0  0  0  0  0  0  0
   -9.0543    0.4908   -1.7297 H   0  0  0  0  0  0  0  0  0  0  0  0
   -9.1688    2.2118   -1.1470 H   0  0  0  0  0  0  0  0  0  0  0  0
   -7.0650    0.2224   -0.1060 H   0  0  0  0  0  0  0  0  0  0  0  0
   -7.2664    1.9420    0.3668 H   0  0  0  0  0  0  0  0  0  0  0  0
   -8.5609    0.7937    0.7730 H   0  0  0  0  0  0  0  0  0  0  0  0
    0.6561    4.9796   -4.5613 H   0  0  0  0  0  0  0  0  0  0  0  0
    0.7521    7.0263   -6.4442 H   0  0  0  0  0  0  0  0  0  0  0  0
   -0.4535    6.8623   -7.7587 H   0  0  0  0  0  0  0  0  0  0  0  0
    0.5158    4.4288   -8.0503 H   0  0  0  0  0  0  0  0  0  0  0  0
    1.9620    5.1276   -7.1695 H   0  0  0  0  0  0  0  0  0  0  0  0
    1.3958    5.7534   -8.8488 H   0  0  0  0  0  0  0  0  0  0  0  0
    5.2453   -9.0149    6.0409 H   0  0  0  0  0  0  0  0  0  0  0  0
    2.5802   -9.9086    5.2123 H   0  0  0  0  0  0  0  0  0  0  0  0
    0.1450  -10.5263    3.6464 H   0  0  0  0  0  0  0  0  0  0  0  0
   -0.3049   -9.0646    2.6874 H   0  0  0  0  0  0  0  0  0  0  0  0
   -1.9316   -8.7484    4.2441 H   0  0  0  0  0  0  0  0  0  0  0  0
   -0.9490   -9.6753    5.5337 H   0  0  0  0  0  0  0  0  0  0  0  0
   -0.5609   -7.9405    4.9817 H   0  0  0  0  0  0  0  0  0  0  0  0
  1  2  1  0
  2  3  1  0
  3  4  2  0
  4  5  1  0
  5  6  2  0
  6  7  1  0
  7  8  1  0
  6  9  1  0
  9 10  1  0
  3 11  1  0
 11 12  1  0
 12 13  1  0
 13 14  2  0
 14 15  1  0
 15 16  2  0
 16 17  1  0
 17 18  1  0
 16 19  1  0
 19 20  1  0
 13 21  1  0
 21 22  1  0
 22 23  1  0
 23 24  2  0
 24 25  1  0
 25 26  1  0
 26 27  3  0
 24 28  1  0
 28 29  1  0
 28 30  1  0
 28 31  1  0
 23 32  1  0
 32 33  1  0
 33 34  1  0
 34 35  2  0
 35 36  1  0
 36 37  1  0
 37 38  3  0
 35 39  1  0
 39 40  1  0
 39 41  1  0
 39 42  1  0
 34 43  1  0
 43 44  1  0
 44 45  1  0
 45 46  2  0
 46 47  1  0
 47 48  1  0
 48 49  3  0
 46 50  1  0
 50 51  1  0
 50 52  1  0
 50 53  1  0
 45 54  1  0
 54 55  1  0
 55 56  1  0
 56 57  2  0
 57 58  1  0
 58 59  2  0
 59 60  1  0
 60 61  1  0
 59 62  1  0
 62 63  1  0
 10  1  2  0
 20 11  2  0
 25 21  2  0
 36 32  2  0
 47 43  2  0
 63 54  2  0
 10  4  1  0
 20 14  1  0
 63 57  1  0
  1 64  1  0
  5 65  1  0
  7 66  1  0
  7 67  1  0
  8 68  1  0
  8 69  1  0
  8 70  1  0
 15 71  1  0
 17 72  1  0
 17 73  1  0
 18 74  1  0
 18 75  1  0
 18 76  1  0
 56 77  1  0
 58 78  1  0
 60 79  1  0
 60 80  1  0
 61 81  1  0
 61 82  1  0
 61 83  1  0
M  END

