
     RDKit          3D

 88 93  0  0  0  0  0  0  0  0999 V2000
    4.9232    1.0008   -0.7426 C   0  0  0  0  0  0  0  0  0  0  0  0
    5.1132   -0.6523   -0.5966 S   0  0  0  0  0  0  0  0  0  0  0  0
    5.8737   -0.8847   -2.0654 C   0  0  0  0  0  0  0  0  0  0  0  0
    6.0435    0.3422   -2.6935 C   0  0  0  0  0  0  0  0  0  0  0  0
    6.7065    0.4793   -4.0098 C   0  0  0  0  0  0  0  0  0  0  0  0
    6.8163   -0.5279   -4.7455 O   0  0  0  0  0  0  0  0  0  0  0  0
    7.1696    1.7096   -4.4768 O   0  0  0  0  0  0  0  0  0  0  0  0
    5.5011    1.4072   -1.9463 C   0  0  0  0  0  0  0  0  0  0  0  0
    5.5745    3.1428   -2.4144 S   0  0  0  0  0  0  0  0  0  0  0  0
    4.0351    3.0494   -3.3537 C   0  0  0  0  0  0  0  0  0  0  0  0
    2.8121    3.1412   -2.8316 C   0  0  0  0  0  0  0  0  0  0  0  0
    2.5248    3.3310   -1.4046 C   0  0  0  0  0  0  0  0  0  0  0  0
    3.0400    4.6374   -0.4791 S   0  0  0  0  0  0  0  0  0  0  0  0
    2.3059    4.1310    0.9488 C   0  0  0  0  0  0  0  0  0  0  0  0
    1.6520    2.9214    0.7248 C   0  0  0  0  0  0  0  0  0  0  0  0
    0.9998    2.2068    1.8110 C   0  0  0  0  0  0  0  0  0  0  0  0
    0.6898    2.8301    2.8634 O   0  0  0  0  0  0  0  0  0  0  0  0
    0.7066    0.8568    1.7029 O   0  0  0  0  0  0  0  0  0  0  0  0
    1.7635    2.4715   -0.6099 C   0  0  0  0  0  0  0  0  0  0  0  0
    1.2951    0.8467   -1.1559 S   0  0  0  0  0  0  0  0  0  0  0  0
   -0.3894    1.2033   -1.6141 C   0  0  0  0  0  0  0  0  0  0  0  0
   -1.3672    0.6406   -0.9288 C   0  0  0  0  0  0  0  0  0  0  0  0
   -2.6927    0.3863   -1.4737 C   0  0  0  0  0  0  0  0  0  0  0  0
   -3.1429   -1.0947   -2.0615 S   0  0  0  0  0  0  0  0  0  0  0  0
   -4.7776   -0.7801   -2.1988 C   0  0  0  0  0  0  0  0  0  0  0  0
   -5.0218    0.5009   -1.7426 C   0  0  0  0  0  0  0  0  0  0  0  0
   -6.3934    0.9488   -1.5174 C   0  0  0  0  0  0  0  0  0  0  0  0
   -7.3492    0.3194   -2.0152 O   0  0  0  0  0  0  0  0  0  0  0  0
   -6.6686    2.0568   -0.7281 O   0  0  0  0  0  0  0  0  0  0  0  0
   -3.8357    1.1751   -1.3389 C   0  0  0  0  0  0  0  0  0  0  0  0
   -3.7650    2.8507   -0.6874 S   0  0  0  0  0  0  0  0  0  0  0  0
   -3.8395    2.2618    1.0094 C   0  0  0  0  0  0  0  0  0  0  0  0
   -2.7302    2.1333    1.6855 C   0  0  0  0  0  0  0  0  0  0  0  0
   -2.6465    1.1431    2.7579 C   0  0  0  0  0  0  0  0  0  0  0  0
   -2.6863   -0.4872    2.4682 S   0  0  0  0  0  0  0  0  0  0  0  0
   -1.9924   -1.0361    3.8871 C   0  0  0  0  0  0  0  0  0  0  0  0
   -1.7514    0.1130    4.6833 C   0  0  0  0  0  0  0  0  0  0  0  0
   -2.0825    1.3353    4.0246 C   0  0  0  0  0  0  0  0  0  0  0  0
   -1.8337    2.6599    4.5451 C   0  0  0  0  0  0  0  0  0  0  0  0
   -1.6165    3.7194    4.9685 N   0  0  0  0  0  0  0  0  0  0  0  0
   -1.1384    0.0575    6.0847 C   0  0  0  0  0  0  0  0  0  0  0  0
   -1.7569   -0.9133    6.8347 F   0  0  0  0  0  0  0  0  0  0  0  0
   -1.2741    1.2212    6.7911 F   0  0  0  0  0  0  0  0  0  0  0  0
    0.2022   -0.2141    5.9989 F   0  0  0  0  0  0  0  0  0  0  0  0
   -1.6303   -2.4783    4.1128 C   0  0  0  0  0  0  0  0  0  0  0  0
   -0.4991   -3.0019    5.2480 S   0  0  0  0  0  0  0  0  0  0  0  0
   -0.5954   -4.6267    4.9271 C   0  0  0  0  0  0  0  0  0  0  0  0
   -1.5284   -4.8348    3.9232 C   0  0  0  0  0  0  0  0  0  0  0  0
   -1.7922   -6.1979    3.3912 C   0  0  0  0  0  0  0  0  0  0  0  0
   -1.1615   -7.1996    3.8614 O   0  0  0  0  0  0  0  0  0  0  0  0
   -2.7184   -6.4008    2.3736 O   0  0  0  0  0  0  0  0  0  0  0  0
   -2.1108   -3.6251    3.4564 C   0  0  0  0  0  0  0  0  0  0  0  0
   -3.3884   -3.5726    2.1846 S   0  0  0  0  0  0  0  0  0  0  0  0
   -2.2810   -3.4711    0.7870 C   0  0  0  0  0  0  0  0  0  0  0  0
   -2.3019   -4.4187   -0.1357 C   0  0  0  0  0  0  0  0  0  0  0  0
   -1.6738   -4.3032   -1.4789 C   0  0  0  0  0  0  0  0  0  0  0  0
   -2.3292   -5.0940   -2.8095 S   0  0  0  0  0  0  0  0  0  0  0  0
   -1.3898   -4.3288   -3.9660 C   0  0  0  0  0  0  0  0  0  0  0  0
   -0.5463   -3.4197   -3.3473 C   0  0  0  0  0  0  0  0  0  0  0  0
    0.3226   -2.5026   -4.1209 C   0  0  0  0  0  0  0  0  0  0  0  0
    0.7095   -2.8178   -5.2802 O   0  0  0  0  0  0  0  0  0  0  0  0
    0.7272   -1.2925   -3.5598 O   0  0  0  0  0  0  0  0  0  0  0  0
   -0.6959   -3.4252   -1.9227 C   0  0  0  0  0  0  0  0  0  0  0  0
    0.4770   -2.6315   -0.8097 S   0  0  0  0  0  0  0  0  0  0  0  0
    1.7677   -3.7776   -1.2395 C   0  0  0  0  0  0  0  0  0  0  0  0
    2.8345   -3.3341   -1.8858 C   0  0  0  0  0  0  0  0  0  0  0  0
    4.5100    1.6232    0.0286 H   0  0  0  0  0  0  0  0  0  0  0  0
    6.2074   -1.8320   -2.4271 H   0  0  0  0  0  0  0  0  0  0  0  0
    7.5822    1.7848   -5.4018 H   0  0  0  0  0  0  0  0  0  0  0  0
    4.1098    2.8138   -4.4087 H   0  0  0  0  0  0  0  0  0  0  0  0
    1.9710    2.9441   -3.5061 H   0  0  0  0  0  0  0  0  0  0  0  0
    2.3960    4.6529    1.8891 H   0  0  0  0  0  0  0  0  0  0  0  0
    0.2063    0.3911    2.4425 H   0  0  0  0  0  0  0  0  0  0  0  0
   -0.5856    1.6399   -2.5563 H   0  0  0  0  0  0  0  0  0  0  0  0
   -1.0973    0.0272   -0.0687 H   0  0  0  0  0  0  0  0  0  0  0  0
   -5.5280   -1.5046   -2.4848 H   0  0  0  0  0  0  0  0  0  0  0  0
   -7.6255    2.3256   -0.5453 H   0  0  0  0  0  0  0  0  0  0  0  0
   -4.7862    1.9044    1.4187 H   0  0  0  0  0  0  0  0  0  0  0  0
   -1.8136    2.4929    1.2635 H   0  0  0  0  0  0  0  0  0  0  0  0
    0.0025   -5.3763    5.4154 H   0  0  0  0  0  0  0  0  0  0  0  0
   -2.8660   -7.2913    1.9855 H   0  0  0  0  0  0  0  0  0  0  0  0
   -1.7086   -2.5824    0.6900 H   0  0  0  0  0  0  0  0  0  0  0  0
   -3.0409   -5.2037    0.0016 H   0  0  0  0  0  0  0  0  0  0  0  0
   -1.4693   -4.4696   -5.0215 H   0  0  0  0  0  0  0  0  0  0  0  0
    1.2484   -0.6073   -4.0992 H   0  0  0  0  0  0  0  0  0  0  0  0
    1.6646   -4.8353   -1.0722 H   0  0  0  0  0  0  0  0  0  0  0  0
    3.6453   -4.0253   -2.1587 H   0  0  0  0  0  0  0  0  0  0  0  0
    2.9093   -2.3011   -2.2066 H   0  0  0  0  0  0  0  0  0  0  0  0
  1  2  1  0
  2  3  1  0
  3  4  2  0
  4  5  1  0
  5  6  2  0
  5  7  1  0
  4  8  1  0
  8  9  1  0
  9 10  1  0
 10 11  2  3
 11 12  1  0
 12 13  1  0
 13 14  1  0
 14 15  2  0
 15 16  1  0
 16 17  2  0
 16 18  1  0
 15 19  1  0
 19 20  1  0
 20 21  1  0
 21 22  2  3
 22 23  1  0
 23 24  1  0
 24 25  1  0
 25 26  2  0
 26 27  1  0
 27 28  2  0
 27 29  1  0
 26 30  1  0
 30 31  1  0
 31 32  1  0
 32 33  2  3
 33 34  1  0
 34 35  1  0
 35 36  1  0
 36 37  2  0
 37 38  1  0
 38 39  1  0
 39 40  3  0
 37 41  1  0
 41 42  1  0
 41 43  1  0
 41 44  1  0
 36 45  1  0
 45 46  1  0
 46 47  1  0
 47 48  2  0
 48 49  1  0
 49 50  2  0
 49 51  1  0
 48 52  1  0
 52 53  1  0
 53 54  1  0
 54 55  2  3
 55 56  1  0
 56 57  1  0
 57 58  1  0
 58 59  2  0
 59 60  1  0
 60 61  2  0
 60 62  1  0
 59 63  1  0
 63 64  1  0
 64 65  1  0
 65 66  2  3
  8  1  2  0
 19 12  2  0
 30 23  2  0
 38 34  2  0
 52 45  2  0
 63 56  2  0
  1 67  1  0
  3 68  1  0
  7 69  1  0
 10 70  1  0
 11 71  1  0
 14 72  1  0
 18 73  1  0
 21 74  1  0
 22 75  1  0
 25 76  1  0
 29 77  1  0
 32 78  1  0
 33 79  1  0
 47 80  1  0
 51 81  1  0
 54 82  1  0
 55 83  1  0
 58 84  1  0
 62 85  1  0
 65 86  1  0
 66 87  1  0
 66 88  1  0
M  END

