
     RDKit          3D

225250  0  0  0  0  0  0  0  0999 V2000
    5.1324   -4.3416   10.3069 C   0  0  0  0  0  0  0  0  0  0  0  0
    4.3022   -3.2238   10.2709 C   0  0  0  0  0  0  0  0  0  0  0  0
    3.2851   -3.3212    9.3061 C   0  0  0  0  0  0  0  0  0  0  0  0
    2.3144   -2.3415    9.0132 C   0  0  0  0  0  0  0  0  0  0  0  0
    2.2039   -1.0947    9.7878 C   0  0  0  0  0  0  0  0  0  0  0  0
    2.4270    0.4523    9.1643 S   0  0  0  0  0  0  0  0  0  0  0  0
    2.0992    1.2704   10.5970 C   0  0  0  0  0  0  0  0  0  0  0  0
    2.1983    2.7547   10.7697 C   0  0  0  0  0  0  0  0  0  0  0  0
    3.5799    3.1445   11.2841 C   0  0  0  0  0  0  0  0  0  0  0  0
    1.8188    0.3355   11.5922 C   0  0  0  0  0  0  0  0  0  0  0  0
    1.4402    0.7685   13.2541 Cl  0  0  0  0  0  0  0  0  0  0  0  0
    1.8674   -0.9906   11.1362 C   0  0  0  0  0  0  0  0  0  0  0  0
    1.4969   -2.3768   12.1536 Cl  0  0  0  0  0  0  0  0  0  0  0  0
    1.4280   -2.6221    7.9605 C   0  0  0  0  0  0  0  0  0  0  0  0
    1.4640   -3.8251    7.2468 C   0  0  0  0  0  0  0  0  0  0  0  0
    2.4256   -4.8090    7.5477 C   0  0  0  0  0  0  0  0  0  0  0  0
    2.5011   -6.0692    6.7898 C   0  0  0  0  0  0  0  0  0  0  0  0
    2.8626   -6.1771    5.1505 S   0  0  0  0  0  0  0  0  0  0  0  0
    2.6745   -7.8451    5.0358 C   0  0  0  0  0  0  0  0  0  0  0  0
    2.9205   -8.6411    3.7906 C   0  0  0  0  0  0  0  0  0  0  0  0
    4.3819   -9.0632    3.7035 C   0  0  0  0  0  0  0  0  0  0  0  0
    2.3372   -8.3438    6.2932 C   0  0  0  0  0  0  0  0  0  0  0  0
    2.2294   -7.3454    7.2750 C   0  0  0  0  0  0  0  0  0  0  0  0
    1.7464   -7.6706    8.9356 Cl  0  0  0  0  0  0  0  0  0  0  0  0
    2.0616  -10.0497    6.6201 Cl  0  0  0  0  0  0  0  0  0  0  0  0
    3.3278   -4.5182    8.5836 C   0  0  0  0  0  0  0  0  0  0  0  0
    4.6160   -5.4458    9.1395 S   0  0  0  0  0  0  0  0  0  0  0  0
    0.4566   -3.9208    6.2741 C   0  0  0  0  0  0  0  0  0  0  0  0
   -0.3507   -2.7875    6.2160 C   0  0  0  0  0  0  0  0  0  0  0  0
    0.1685   -1.6728    7.3739 S   0  0  0  0  0  0  0  0  0  0  0  0
   -1.4532   -2.5812    5.2689 C   0  0  0  0  0  0  0  0  0  0  0  0
   -2.0966   -1.3697    5.0309 C   0  0  0  0  0  0  0  0  0  0  0  0
   -3.0410   -1.4489    3.9943 C   0  0  0  0  0  0  0  0  0  0  0  0
   -3.7823   -0.3768    3.4558 C   0  0  0  0  0  0  0  0  0  0  0  0
   -3.5885    1.0096    3.9151 C   0  0  0  0  0  0  0  0  0  0  0  0
   -4.7702    1.9418    4.6637 S   0  0  0  0  0  0  0  0  0  0  0  0
   -3.7961    3.2899    4.9225 C   0  0  0  0  0  0  0  0  0  0  0  0
   -4.2200    4.5077    5.6867 C   0  0  0  0  0  0  0  0  0  0  0  0
   -4.0505    4.2853    7.1854 C   0  0  0  0  0  0  0  0  0  0  0  0
   -2.5193    3.0198    4.4315 C   0  0  0  0  0  0  0  0  0  0  0  0
   -1.1782    4.1533    4.5250 Cl  0  0  0  0  0  0  0  0  0  0  0  0
   -2.4044    1.7436    3.8587 C   0  0  0  0  0  0  0  0  0  0  0  0
   -0.9206    1.1494    3.1218 Cl  0  0  0  0  0  0  0  0  0  0  0  0
   -4.6528   -0.6759    2.3946 C   0  0  0  0  0  0  0  0  0  0  0  0
   -4.7741   -1.9625    1.8590 C   0  0  0  0  0  0  0  0  0  0  0  0
   -4.0320   -3.0338    2.3974 C   0  0  0  0  0  0  0  0  0  0  0  0
   -4.0885   -4.3894    1.8271 C   0  0  0  0  0  0  0  0  0  0  0  0
   -3.4689   -4.8209    0.3233 S   0  0  0  0  0  0  0  0  0  0  0  0
   -3.7941   -6.4664    0.4648 C   0  0  0  0  0  0  0  0  0  0  0  0
   -3.3870   -7.5011   -0.5401 C   0  0  0  0  0  0  0  0  0  0  0  0
   -2.0847   -8.1779   -0.1247 C   0  0  0  0  0  0  0  0  0  0  0  0
   -4.3811   -6.7011    1.7079 C   0  0  0  0  0  0  0  0  0  0  0  0
   -4.5447   -5.5364    2.4722 C   0  0  0  0  0  0  0  0  0  0  0  0
   -5.2594   -5.5273    4.0798 Cl  0  0  0  0  0  0  0  0  0  0  0  0
   -4.8452   -8.2978    2.2775 Cl  0  0  0  0  0  0  0  0  0  0  0  0
   -3.1695   -2.7357    3.4641 C   0  0  0  0  0  0  0  0  0  0  0  0
   -2.0736   -3.7571    4.2295 S   0  0  0  0  0  0  0  0  0  0  0  0
   -5.6187   -2.0194    0.7392 C   0  0  0  0  0  0  0  0  0  0  0  0
   -6.1389   -0.7731    0.3859 C   0  0  0  0  0  0  0  0  0  0  0  0
   -5.5680    0.3910    1.4697 S   0  0  0  0  0  0  0  0  0  0  0  0
   -6.8275   -0.4609   -0.8755 C   0  0  0  0  0  0  0  0  0  0  0  0
   -6.7747   -1.2491   -2.0241 C   0  0  0  0  0  0  0  0  0  0  0  0
   -7.1849   -0.5646   -3.1793 C   0  0  0  0  0  0  0  0  0  0  0  0
   -6.9971   -1.0118   -4.5017 C   0  0  0  0  0  0  0  0  0  0  0  0
   -6.3362   -2.2947   -4.7830 C   0  0  0  0  0  0  0  0  0  0  0  0
   -7.0976   -3.7934   -4.8003 S   0  0  0  0  0  0  0  0  0  0  0  0
   -5.7063   -4.6862   -5.1285 C   0  0  0  0  0  0  0  0  0  0  0  0
   -5.6578   -6.1801   -5.2373 C   0  0  0  0  0  0  0  0  0  0  0  0
   -5.2340   -6.8053   -3.9139 C   0  0  0  0  0  0  0  0  0  0  0  0
   -4.6185   -3.8165   -5.1941 C   0  0  0  0  0  0  0  0  0  0  0  0
   -2.9630   -4.3426   -5.4667 Cl  0  0  0  0  0  0  0  0  0  0  0  0
   -4.9727   -2.4741   -5.0025 C   0  0  0  0  0  0  0  0  0  0  0  0
   -3.8091   -1.1557   -4.9875 Cl  0  0  0  0  0  0  0  0  0  0  0  0
   -7.2076   -0.0759   -5.5268 C   0  0  0  0  0  0  0  0  0  0  0  0
   -7.5976    1.2415   -5.2759 C   0  0  0  0  0  0  0  0  0  0  0  0
   -7.8327    1.6772   -3.9549 C   0  0  0  0  0  0  0  0  0  0  0  0
   -8.0667    3.0955   -3.6362 C   0  0  0  0  0  0  0  0  0  0  0  0
   -6.9331    4.3214   -3.8498 S   0  0  0  0  0  0  0  0  0  0  0  0
   -7.8700    5.5490   -3.1844 C   0  0  0  0  0  0  0  0  0  0  0  0
   -7.3903    6.9515   -2.9634 C   0  0  0  0  0  0  0  0  0  0  0  0
   -6.6280    7.0506   -1.6478 C   0  0  0  0  0  0  0  0  0  0  0  0
   -9.0773    5.0028   -2.7488 C   0  0  0  0  0  0  0  0  0  0  0  0
   -9.1878    3.6263   -3.0035 C   0  0  0  0  0  0  0  0  0  0  0  0
  -10.5962    2.6681   -2.5648 Cl  0  0  0  0  0  0  0  0  0  0  0  0
  -10.3274    5.9316   -1.9317 Cl  0  0  0  0  0  0  0  0  0  0  0  0
   -7.6015    0.7466   -2.9278 C   0  0  0  0  0  0  0  0  0  0  0  0
   -7.4198    1.0661   -1.2849 S   0  0  0  0  0  0  0  0  0  0  0  0
   -7.5053    2.0715   -6.4061 C   0  0  0  0  0  0  0  0  0  0  0  0
   -6.9486    1.4398   -7.5286 C   0  0  0  0  0  0  0  0  0  0  0  0
   -6.7057   -0.1885   -7.1241 S   0  0  0  0  0  0  0  0  0  0  0  0
   -6.1250    2.1403   -8.5549 C   0  0  0  0  0  0  0  0  0  0  0  0
   -5.9529    3.5368   -8.5026 C   0  0  0  0  0  0  0  0  0  0  0  0
   -4.7848    4.0876   -8.9233 N   0  0  0  0  0  0  0  0  0  0  0  0
   -3.8028    3.3469   -9.5064 C   0  0  0  0  0  0  0  0  0  0  0  0
   -4.0622    2.0096   -9.8309 C   0  0  0  0  0  0  0  0  0  0  0  0
   -5.2239    1.4059   -9.3476 C   0  0  0  0  0  0  0  0  0  0  0  0
   -2.3983    3.8043   -9.4492 C   0  0  0  0  0  0  0  0  0  0  0  0
   -2.0259    4.6643   -8.4928 C   0  0  0  0  0  0  0  0  0  0  0  0
   -0.7787    4.4674   -7.7394 C   0  0  0  0  0  0  0  0  0  0  0  0
   -0.7399    4.5531   -6.3505 C   0  0  0  0  0  0  0  0  0  0  0  0
    0.4090    3.9795   -5.7888 C   0  0  0  0  0  0  0  0  0  0  0  0
    0.6306    3.7588   -4.4135 C   0  0  0  0  0  0  0  0  0  0  0  0
   -0.3834    4.0971   -3.3974 C   0  0  0  0  0  0  0  0  0  0  0  0
   -1.2488    2.9575   -2.5119 S   0  0  0  0  0  0  0  0  0  0  0  0
   -2.2372    4.0564   -1.7123 C   0  0  0  0  0  0  0  0  0  0  0  0
   -3.2701    3.6819   -0.6908 C   0  0  0  0  0  0  0  0  0  0  0  0
   -2.6548    3.6180    0.7022 C   0  0  0  0  0  0  0  0  0  0  0  0
   -1.8888    5.3450   -2.1191 C   0  0  0  0  0  0  0  0  0  0  0  0
   -2.6651    6.7993   -1.5083 Cl  0  0  0  0  0  0  0  0  0  0  0  0
   -0.8561    5.3673   -3.0712 C   0  0  0  0  0  0  0  0  0  0  0  0
   -0.2089    6.8493   -3.7642 Cl  0  0  0  0  0  0  0  0  0  0  0  0
    1.7849    3.0417   -4.0679 C   0  0  0  0  0  0  0  0  0  0  0  0
    2.6787    2.5393   -5.0200 C   0  0  0  0  0  0  0  0  0  0  0  0
    2.4425    2.7376   -6.3981 C   0  0  0  0  0  0  0  0  0  0  0  0
    3.3158    2.1578   -7.4353 C   0  0  0  0  0  0  0  0  0  0  0  0
    4.1711    3.0511   -8.5783 S   0  0  0  0  0  0  0  0  0  0  0  0
    4.8741    1.7304   -9.3488 C   0  0  0  0  0  0  0  0  0  0  0  0
    5.8677    1.8280  -10.4680 C   0  0  0  0  0  0  0  0  0  0  0  0
    7.2850    1.9474   -9.9192 C   0  0  0  0  0  0  0  0  0  0  0  0
    4.4546    0.5648   -8.7086 C   0  0  0  0  0  0  0  0  0  0  0  0
    3.5715    0.8030   -7.6442 C   0  0  0  0  0  0  0  0  0  0  0  0
    2.8239   -0.4879   -6.7096 Cl  0  0  0  0  0  0  0  0  0  0  0  0
    4.9634   -1.0455   -9.1942 Cl  0  0  0  0  0  0  0  0  0  0  0  0
    1.2959    3.4746   -6.7469 C   0  0  0  0  0  0  0  0  0  0  0  0
    0.6250    3.6931   -8.2810 S   0  0  0  0  0  0  0  0  0  0  0  0
    3.7513    1.8351   -4.4480 C   0  0  0  0  0  0  0  0  0  0  0  0
    3.6830    1.7801   -3.0550 C   0  0  0  0  0  0  0  0  0  0  0  0
    2.3136    2.6137   -2.5317 S   0  0  0  0  0  0  0  0  0  0  0  0
    4.6192    1.0801   -2.1637 C   0  0  0  0  0  0  0  0  0  0  0  0
    5.5866    0.1527   -2.5520 C   0  0  0  0  0  0  0  0  0  0  0  0
    6.3019   -0.3775   -1.4638 C   0  0  0  0  0  0  0  0  0  0  0  0
    7.3022   -1.3678   -1.5215 C   0  0  0  0  0  0  0  0  0  0  0  0
    7.7118   -1.9839   -2.7953 C   0  0  0  0  0  0  0  0  0  0  0  0
    8.4788   -1.1752   -4.0565 S   0  0  0  0  0  0  0  0  0  0  0  0
    8.5408   -2.4958   -5.1000 C   0  0  0  0  0  0  0  0  0  0  0  0
    9.0600   -2.4437   -6.5061 C   0  0  0  0  0  0  0  0  0  0  0  0
    7.9468   -2.0752   -7.4798 C   0  0  0  0  0  0  0  0  0  0  0  0
    7.9323   -3.5858   -4.4793 C   0  0  0  0  0  0  0  0  0  0  0  0
    7.7243   -5.1507   -5.2510 Cl  0  0  0  0  0  0  0  0  0  0  0  0
    7.4748   -3.3019   -3.1841 C   0  0  0  0  0  0  0  0  0  0  0  0
    6.6206   -4.4686   -2.1844 Cl  0  0  0  0  0  0  0  0  0  0  0  0
    7.8724   -1.7668   -0.3010 C   0  0  0  0  0  0  0  0  0  0  0  0
    7.4690   -1.2377    0.9298 C   0  0  0  0  0  0  0  0  0  0  0  0
    6.4495   -0.2694    0.9914 C   0  0  0  0  0  0  0  0  0  0  0  0
    5.9475    0.2556    2.2721 C   0  0  0  0  0  0  0  0  0  0  0  0
    5.0526   -0.6390    3.3810 S   0  0  0  0  0  0  0  0  0  0  0  0
    4.7761    0.6299    4.4527 C   0  0  0  0  0  0  0  0  0  0  0  0
    3.9046    0.5423    5.6693 C   0  0  0  0  0  0  0  0  0  0  0  0
    2.4585    0.8795    5.3209 C   0  0  0  0  0  0  0  0  0  0  0  0
    5.3669    1.7829    3.9376 C   0  0  0  0  0  0  0  0  0  0  0  0
    6.0283    1.5715    2.7168 C   0  0  0  0  0  0  0  0  0  0  0  0
    6.8738    2.8423    1.8416 Cl  0  0  0  0  0  0  0  0  0  0  0  0
    5.2705    3.3558    4.7180 Cl  0  0  0  0  0  0  0  0  0  0  0  0
    5.8918    0.1430   -0.2308 C   0  0  0  0  0  0  0  0  0  0  0  0
    4.6383    1.2351   -0.4827 S   0  0  0  0  0  0  0  0  0  0  0  0
    8.1939   -1.7543    2.0150 C   0  0  0  0  0  0  0  0  0  0  0  0
    9.1588   -2.6819    1.6364 C   0  0  0  0  0  0  0  0  0  0  0  0
    9.1184   -2.8656   -0.0407 S   0  0  0  0  0  0  0  0  0  0  0  0
    5.9795   -4.4725   10.9689 H   0  0  0  0  0  0  0  0  0  0  0  0
    4.4466   -2.3672   10.9182 H   0  0  0  0  0  0  0  0  0  0  0  0
    2.0169    3.2537    9.7941 H   0  0  0  0  0  0  0  0  0  0  0  0
    1.4215    3.1056   11.4820 H   0  0  0  0  0  0  0  0  0  0  0  0
    3.7686    2.6753   12.2731 H   0  0  0  0  0  0  0  0  0  0  0  0
    3.6370    4.2477   11.3979 H   0  0  0  0  0  0  0  0  0  0  0  0
    4.3635    2.8169   10.5679 H   0  0  0  0  0  0  0  0  0  0  0  0
    2.6637   -8.0229    2.9042 H   0  0  0  0  0  0  0  0  0  0  0  0
    2.2705   -9.5418    3.7759 H   0  0  0  0  0  0  0  0  0  0  0  0
    4.5539   -9.6108    2.7536 H   0  0  0  0  0  0  0  0  0  0  0  0
    5.0434   -8.1705    3.7206 H   0  0  0  0  0  0  0  0  0  0  0  0
    4.6403   -9.7304    4.5538 H   0  0  0  0  0  0  0  0  0  0  0  0
    0.3194   -4.7802    5.6280 H   0  0  0  0  0  0  0  0  0  0  0  0
   -1.8582   -0.4572    5.5610 H   0  0  0  0  0  0  0  0  0  0  0  0
   -5.2867    4.7266    5.4671 H   0  0  0  0  0  0  0  0  0  0  0  0
   -3.6207    5.3885    5.3727 H   0  0  0  0  0  0  0  0  0  0  0  0
   -4.3674    5.1969    7.7355 H   0  0  0  0  0  0  0  0  0  0  0  0
   -2.9864    4.0720    7.4273 H   0  0  0  0  0  0  0  0  0  0  0  0
   -4.6772    3.4322    7.5225 H   0  0  0  0  0  0  0  0  0  0  0  0
   -4.1884   -8.2621   -0.6448 H   0  0  0  0  0  0  0  0  0  0  0  0
   -3.2414   -7.0160   -1.5276 H   0  0  0  0  0  0  0  0  0  0  0  0
   -2.2117   -8.7042    0.8455 H   0  0  0  0  0  0  0  0  0  0  0  0
   -1.7887   -8.9205   -0.8946 H   0  0  0  0  0  0  0  0  0  0  0  0
   -1.2731   -7.4250   -0.0286 H   0  0  0  0  0  0  0  0  0  0  0  0
   -5.8000   -2.9236    0.1725 H   0  0  0  0  0  0  0  0  0  0  0  0
   -6.3342   -2.2381   -2.0453 H   0  0  0  0  0  0  0  0  0  0  0  0
   -4.9401   -6.4745   -6.0319 H   0  0  0  0  0  0  0  0  0  0  0  0
   -6.6588   -6.5642   -5.5255 H   0  0  0  0  0  0  0  0  0  0  0  0
   -4.2009   -6.4881   -3.6603 H   0  0  0  0  0  0  0  0  0  0  0  0
   -5.2526   -7.9121   -4.0004 H   0  0  0  0  0  0  0  0  0  0  0  0
   -5.9229   -6.4967   -3.0976 H   0  0  0  0  0  0  0  0  0  0  0  0
   -6.7194    7.2457   -3.7989 H   0  0  0  0  0  0  0  0  0  0  0  0
   -8.2513    7.6540   -2.9520 H   0  0  0  0  0  0  0  0  0  0  0  0
   -6.2911    8.0961   -1.4878 H   0  0  0  0  0  0  0  0  0  0  0  0
   -7.2821    6.7539   -0.7994 H   0  0  0  0  0  0  0  0  0  0  0  0
   -5.7340    6.3907   -1.6704 H   0  0  0  0  0  0  0  0  0  0  0  0
   -7.6956    3.1327   -6.3559 H   0  0  0  0  0  0  0  0  0  0  0  0
   -6.6594    4.1725   -7.9894 H   0  0  0  0  0  0  0  0  0  0  0  0
   -3.3030    1.3967  -10.3013 H   0  0  0  0  0  0  0  0  0  0  0  0
   -5.3335    0.3365   -9.4696 H   0  0  0  0  0  0  0  0  0  0  0  0
   -1.6500    3.1654   -9.9024 H   0  0  0  0  0  0  0  0  0  0  0  0
   -2.7850    5.2518   -7.9879 H   0  0  0  0  0  0  0  0  0  0  0  0
   -1.5785    4.9119   -5.7660 H   0  0  0  0  0  0  0  0  0  0  0  0
   -4.1001    4.4196   -0.6983 H   0  0  0  0  0  0  0  0  0  0  0  0
   -3.6976    2.6876   -0.9476 H   0  0  0  0  0  0  0  0  0  0  0  0
   -1.8364    2.8679    0.7278 H   0  0  0  0  0  0  0  0  0  0  0  0
   -2.2493    4.6111    0.9926 H   0  0  0  0  0  0  0  0  0  0  0  0
   -3.4327    3.3181    1.4373 H   0  0  0  0  0  0  0  0  0  0  0  0
    5.7967    0.9328  -11.1209 H   0  0  0  0  0  0  0  0  0  0  0  0
    5.6389    2.7215  -11.0885 H   0  0  0  0  0  0  0  0  0  0  0  0
    7.3790    2.8599   -9.2925 H   0  0  0  0  0  0  0  0  0  0  0  0
    8.0071    2.0166  -10.7603 H   0  0  0  0  0  0  0  0  0  0  0  0
    7.5390    1.0562   -9.3056 H   0  0  0  0  0  0  0  0  0  0  0  0
    4.5497    1.3849   -5.0209 H   0  0  0  0  0  0  0  0  0  0  0  0
    5.7432   -0.1488   -3.5786 H   0  0  0  0  0  0  0  0  0  0  0  0
    9.8695   -1.6856   -6.5708 H   0  0  0  0  0  0  0  0  0  0  0  0
    9.4940   -3.4274   -6.7880 H   0  0  0  0  0  0  0  0  0  0  0  0
    7.1519   -2.8501   -7.4698 H   0  0  0  0  0  0  0  0  0  0  0  0
    7.5054   -1.0925   -7.2061 H   0  0  0  0  0  0  0  0  0  0  0  0
    8.3590   -2.0037   -8.5075 H   0  0  0  0  0  0  0  0  0  0  0  0
    4.2723    1.2435    6.4499 H   0  0  0  0  0  0  0  0  0  0  0  0
    3.9496   -0.4864    6.0872 H   0  0  0  0  0  0  0  0  0  0  0  0
    2.0651    0.1558    4.5754 H   0  0  0  0  0  0  0  0  0  0  0  0
    2.3878    1.9081    4.9055 H   0  0  0  0  0  0  0  0  0  0  0  0
    1.8280    0.8228    6.2329 H   0  0  0  0  0  0  0  0  0  0  0  0
    8.0415   -1.4550    3.0445 H   0  0  0  0  0  0  0  0  0  0  0  0
    9.8344   -3.1919    2.3108 H   0  0  0  0  0  0  0  0  0  0  0  0
  1  2  2  0
  2  3  1  0
  3  4  2  0
  4  5  1  0
  5  6  1  0
  6  7  1  0
  7  8  1  0
  8  9  1  0
  7 10  2  0
 10 11  1  0
 10 12  1  0
 12 13  1  0
  4 14  1  0
 14 15  2  0
 15 16  1  0
 16 17  1  0
 17 18  1  0
 18 19  1  0
 19 20  1  0
 20 21  1  0
 19 22  2  0
 22 23  1  0
 23 24  1  0
 22 25  1  0
 16 26  2  0
 26 27  1  0
 15 28  1  0
 28 29  2  0
 29 30  1  0
 29 31  1  0
 31 32  2  0
 32 33  1  0
 33 34  2  0
 34 35  1  0
 35 36  1  0
 36 37  1  0
 37 38  1  0
 38 39  1  0
 37 40  2  0
 40 41  1  0
 40 42  1  0
 42 43  1  0
 34 44  1  0
 44 45  2  0
 45 46  1  0
 46 47  1  0
 47 48  1  0
 48 49  1  0
 49 50  1  0
 50 51  1  0
 49 52  2  0
 52 53  1  0
 53 54  1  0
 52 55  1  0
 46 56  2  0
 56 57  1  0
 45 58  1  0
 58 59  2  0
 59 60  1  0
 59 61  1  0
 61 62  2  0
 62 63  1  0
 63 64  2  0
 64 65  1  0
 65 66  1  0
 66 67  1  0
 67 68  1  0
 68 69  1  0
 67 70  2  0
 70 71  1  0
 70 72  1  0
 72 73  1  0
 64 74  1  0
 74 75  2  0
 75 76  1  0
 76 77  1  0
 77 78  1  0
 78 79  1  0
 79 80  1  0
 80 81  1  0
 79 82  2  0
 82 83  1  0
 83 84  1  0
 82 85  1  0
 76 86  2  0
 86 87  1  0
 75 88  1  0
 88 89  2  0
 89 90  1  0
 89 91  1  0
 91 92  2  0
 92 93  1  0
 93 94  2  0
 94 95  1  0
 95 96  2  0
 94 97  1  0
 97 98  2  3
 98 99  1  0
 99100  2  0
100101  1  0
101102  2  0
102103  1  0
103104  1  0
104105  1  0
105106  1  0
106107  1  0
105108  2  0
108109  1  0
108110  1  0
110111  1  0
102112  1  0
112113  2  0
113114  1  0
114115  1  0
115116  1  0
116117  1  0
117118  1  0
118119  1  0
117120  2  0
120121  1  0
121122  1  0
120123  1  0
114124  2  0
124125  1  0
113126  1  0
126127  2  0
127128  1  0
127129  1  0
129130  2  0
130131  1  0
131132  2  0
132133  1  0
133134  1  0
134135  1  0
135136  1  0
136137  1  0
135138  2  0
138139  1  0
138140  1  0
140141  1  0
132142  1  0
142143  2  0
143144  1  0
144145  1  0
145146  1  0
146147  1  0
147148  1  0
148149  1  0
147150  2  0
150151  1  0
151152  1  0
150153  1  0
144154  2  0
154155  1  0
143156  1  0
156157  2  0
157158  1  0
 27  1  1  0
 57 31  1  0
 87 61  1  0
 96 91  1  0
125 99  1  0
155129  1  0
 26  3  1  0
 56 33  1  0
 86 63  1  0
124101  1  0
154131  1  0
 12  5  2  0
 30 14  1  0
 42 35  2  0
 60 44  1  0
 72 65  2  0
 90 74  1  0
110103  2  0
128112  1  0
140133  2  0
158142  1  0
 23 17  2  0
 53 47  2  0
 83 77  2  0
121115  2  0
151145  2  0
  1159  1  0
  2160  1  0
  8161  1  0
  8162  1  0
  9163  1  0
  9164  1  0
  9165  1  0
 20166  1  0
 20167  1  0
 21168  1  0
 21169  1  0
 21170  1  0
 28171  1  0
 32172  1  0
 38173  1  0
 38174  1  0
 39175  1  0
 39176  1  0
 39177  1  0
 50178  1  0
 50179  1  0
 51180  1  0
 51181  1  0
 51182  1  0
 58183  1  0
 62184  1  0
 68185  1  0
 68186  1  0
 69187  1  0
 69188  1  0
 69189  1  0
 80190  1  0
 80191  1  0
 81192  1  0
 81193  1  0
 81194  1  0
 88195  1  0
 92196  1  0
 95197  1  0
 96198  1  0
 97199  1  0
 98200  1  0
100201  1  0
106202  1  0
106203  1  0
107204  1  0
107205  1  0
107206  1  0
118207  1  0
118208  1  0
119209  1  0
119210  1  0
119211  1  0
126212  1  0
130213  1  0
136214  1  0
136215  1  0
137216  1  0
137217  1  0
137218  1  0
148219  1  0
148220  1  0
149221  1  0
149222  1  0
149223  1  0
156224  1  0
157225  1  0
M  END

