
     RDKit          3D

146159  0  0  0  0  0  0  0  0999 V2000
    3.4602    1.3817    8.7157 C   0  0  0  0  0  0  0  0  0  0  0  0
    4.7271    2.0417    9.5950 S   0  0  0  0  0  0  0  0  0  0  0  0
    5.3615    2.9856    8.3594 C   0  0  0  0  0  0  0  0  0  0  0  0
    4.5807    2.8025    7.2218 C   0  0  0  0  0  0  0  0  0  0  0  0
    4.9062    3.4581    5.9403 C   0  0  0  0  0  0  0  0  0  0  0  0
    4.0489    3.5485    5.0207 O   0  0  0  0  0  0  0  0  0  0  0  0
    6.1897    3.9651    5.7334 O   0  0  0  0  0  0  0  0  0  0  0  0
    3.5090    1.9040    7.4283 C   0  0  0  0  0  0  0  0  0  0  0  0
    2.3792    1.3521    6.1472 S   0  0  0  0  0  0  0  0  0  0  0  0
    1.0455    2.4135    6.7009 C   0  0  0  0  0  0  0  0  0  0  0  0
    0.1312    1.9310    7.5417 C   0  0  0  0  0  0  0  0  0  0  0  0
   -1.0802    2.6806    7.9326 C   0  0  0  0  0  0  0  0  0  0  0  0
   -1.3818    4.3047    7.6154 S   0  0  0  0  0  0  0  0  0  0  0  0
   -2.8878    4.3699    8.3513 C   0  0  0  0  0  0  0  0  0  0  0  0
   -3.1932    3.1081    8.8638 C   0  0  0  0  0  0  0  0  0  0  0  0
   -4.4601    2.8505    9.5843 C   0  0  0  0  0  0  0  0  0  0  0  0
   -5.3127    3.7734    9.7101 O   0  0  0  0  0  0  0  0  0  0  0  0
   -4.7314    1.6015   10.1335 O   0  0  0  0  0  0  0  0  0  0  0  0
   -2.1775    2.1535    8.6188 C   0  0  0  0  0  0  0  0  0  0  0  0
   -2.2450    0.4258    9.1253 S   0  0  0  0  0  0  0  0  0  0  0  0
   -3.1237   -0.1160    7.6573 C   0  0  0  0  0  0  0  0  0  0  0  0
   -2.4924   -0.2456    6.4913 C   0  0  0  0  0  0  0  0  0  0  0  0
   -3.1559   -0.7957    5.3075 C   0  0  0  0  0  0  0  0  0  0  0  0
   -3.0949   -0.2395    4.0334 C   0  0  0  0  0  0  0  0  0  0  0  0
   -3.6375   -1.0789    3.0480 C   0  0  0  0  0  0  0  0  0  0  0  0
   -3.7167   -0.8051    1.6679 C   0  0  0  0  0  0  0  0  0  0  0  0
   -3.4130    0.5322    1.1191 C   0  0  0  0  0  0  0  0  0  0  0  0
   -4.1428    1.9607    1.6399 S   0  0  0  0  0  0  0  0  0  0  0  0
   -3.4299    2.9641    0.4942 C   0  0  0  0  0  0  0  0  0  0  0  0
   -3.7277    4.4202    0.3190 C   0  0  0  0  0  0  0  0  0  0  0  0
   -4.9481    4.6185   -0.5725 C   0  0  0  0  0  0  0  0  0  0  0  0
   -2.6304    2.1855   -0.3353 C   0  0  0  0  0  0  0  0  0  0  0  0
   -1.9609    2.6803   -1.4058 F   0  0  0  0  0  0  0  0  0  0  0  0
   -2.6099    0.8313    0.0183 C   0  0  0  0  0  0  0  0  0  0  0  0
   -1.8707   -0.0892   -0.6485 F   0  0  0  0  0  0  0  0  0  0  0  0
   -4.1868   -1.8468    0.8474 C   0  0  0  0  0  0  0  0  0  0  0  0
   -4.5875   -3.0921    1.3500 C   0  0  0  0  0  0  0  0  0  0  0  0
   -4.5457   -3.3470    2.7363 C   0  0  0  0  0  0  0  0  0  0  0  0
   -4.9197   -4.6558    3.2991 C   0  0  0  0  0  0  0  0  0  0  0  0
   -3.8702   -5.6935    4.1090 S   0  0  0  0  0  0  0  0  0  0  0  0
   -5.0012   -6.9100    4.3829 C   0  0  0  0  0  0  0  0  0  0  0  0
   -4.7346   -8.1808    5.1284 C   0  0  0  0  0  0  0  0  0  0  0  0
   -4.8617   -7.9678    6.6314 C   0  0  0  0  0  0  0  0  0  0  0  0
   -6.2241   -6.5034    3.8574 C   0  0  0  0  0  0  0  0  0  0  0  0
   -6.1759   -5.2472    3.2422 C   0  0  0  0  0  0  0  0  0  0  0  0
   -7.2558   -4.6587    2.6740 F   0  0  0  0  0  0  0  0  0  0  0  0
   -7.3542   -7.2467    3.9343 F   0  0  0  0  0  0  0  0  0  0  0  0
   -4.0639   -2.3124    3.5576 C   0  0  0  0  0  0  0  0  0  0  0  0
   -3.8342   -2.3368    5.2248 S   0  0  0  0  0  0  0  0  0  0  0  0
   -4.9667   -4.0019    0.3447 C   0  0  0  0  0  0  0  0  0  0  0  0
   -4.8551   -3.4694   -0.9391 C   0  0  0  0  0  0  0  0  0  0  0  0
   -4.3345   -1.8693   -0.8257 S   0  0  0  0  0  0  0  0  0  0  0  0
   -5.1209   -4.2017   -2.1903 C   0  0  0  0  0  0  0  0  0  0  0  0
   -6.3397   -5.3444   -2.3717 S   0  0  0  0  0  0  0  0  0  0  0  0
   -5.9807   -5.7623   -3.9574 C   0  0  0  0  0  0  0  0  0  0  0  0
   -4.8741   -5.0213   -4.3761 C   0  0  0  0  0  0  0  0  0  0  0  0
   -4.2802   -5.2096   -5.7164 C   0  0  0  0  0  0  0  0  0  0  0  0
   -4.6675   -6.1619   -6.4478 O   0  0  0  0  0  0  0  0  0  0  0  0
   -3.2992   -4.3442   -6.1909 O   0  0  0  0  0  0  0  0  0  0  0  0
   -4.3842   -4.1449   -3.3792 C   0  0  0  0  0  0  0  0  0  0  0  0
   -2.8510   -3.2074   -3.5256 S   0  0  0  0  0  0  0  0  0  0  0  0
   -3.6478   -1.6892   -4.0832 C   0  0  0  0  0  0  0  0  0  0  0  0
   -2.9585   -0.6299   -4.5114 C   0  0  0  0  0  0  0  0  0  0  0  0
   -1.5066   -0.6320   -4.7551 C   0  0  0  0  0  0  0  0  0  0  0  0
   -0.6420    0.4051   -4.4030 C   0  0  0  0  0  0  0  0  0  0  0  0
    0.6850    0.1721   -4.8049 C   0  0  0  0  0  0  0  0  0  0  0  0
    1.7955    1.0104   -4.5658 C   0  0  0  0  0  0  0  0  0  0  0  0
    1.6895    2.2441   -3.7606 C   0  0  0  0  0  0  0  0  0  0  0  0
    1.1187    2.3256   -2.1764 S   0  0  0  0  0  0  0  0  0  0  0  0
    1.3219    3.9873   -1.9961 C   0  0  0  0  0  0  0  0  0  0  0  0
    1.0187    4.7627   -0.7506 C   0  0  0  0  0  0  0  0  0  0  0  0
    2.2663    4.9044    0.1141 C   0  0  0  0  0  0  0  0  0  0  0  0
    1.8747    4.4941   -3.1680 C   0  0  0  0  0  0  0  0  0  0  0  0
    2.1845    5.8012   -3.3424 F   0  0  0  0  0  0  0  0  0  0  0  0
    2.0757    3.5231   -4.1545 C   0  0  0  0  0  0  0  0  0  0  0  0
    2.5856    3.8069   -5.3799 F   0  0  0  0  0  0  0  0  0  0  0  0
    3.0326    0.5810   -5.0799 C   0  0  0  0  0  0  0  0  0  0  0  0
    3.1889   -0.6181   -5.7795 C   0  0  0  0  0  0  0  0  0  0  0  0
    2.0800   -1.4533   -6.0195 C   0  0  0  0  0  0  0  0  0  0  0  0
    2.2049   -2.7249   -6.7517 C   0  0  0  0  0  0  0  0  0  0  0  0
    3.1063   -4.0560   -6.2484 S   0  0  0  0  0  0  0  0  0  0  0  0
    2.7317   -5.0305   -7.5698 C   0  0  0  0  0  0  0  0  0  0  0  0
    3.1600   -6.4536   -7.7402 C   0  0  0  0  0  0  0  0  0  0  0  0
    2.1043   -7.4017   -7.1861 C   0  0  0  0  0  0  0  0  0  0  0  0
    1.8697   -4.3297   -8.4072 C   0  0  0  0  0  0  0  0  0  0  0  0
    1.5825   -3.0395   -7.9535 C   0  0  0  0  0  0  0  0  0  0  0  0
    0.7805   -2.1811   -8.6306 F   0  0  0  0  0  0  0  0  0  0  0  0
    1.3573   -4.8408   -9.5538 F   0  0  0  0  0  0  0  0  0  0  0  0
    0.8404   -1.0235   -5.5159 C   0  0  0  0  0  0  0  0  0  0  0  0
   -0.6482   -1.8066   -5.6139 S   0  0  0  0  0  0  0  0  0  0  0  0
    4.5168   -0.8604   -6.1709 C   0  0  0  0  0  0  0  0  0  0  0  0
    5.4111    0.1322   -5.7583 C   0  0  0  0  0  0  0  0  0  0  0  0
    4.5370    1.3132   -4.9269 S   0  0  0  0  0  0  0  0  0  0  0  0
    6.8778    0.0753   -5.9499 C   0  0  0  0  0  0  0  0  0  0  0  0
    7.6678   -1.3015   -6.5070 S   0  0  0  0  0  0  0  0  0  0  0  0
    9.2229   -0.6881   -6.4548 C   0  0  0  0  0  0  0  0  0  0  0  0
    9.1674    0.6259   -6.0020 C   0  0  0  0  0  0  0  0  0  0  0  0
   10.4044    1.4258   -5.8487 C   0  0  0  0  0  0  0  0  0  0  0  0
   10.3624    2.6301   -5.4795 O   0  0  0  0  0  0  0  0  0  0  0  0
   11.6396    0.8380   -6.1038 O   0  0  0  0  0  0  0  0  0  0  0  0
    7.8475    1.0638   -5.7101 C   0  0  0  0  0  0  0  0  0  0  0  0
    7.4685    2.7447   -5.1655 S   0  0  0  0  0  0  0  0  0  0  0  0
    7.7751    2.3754   -3.4329 C   0  0  0  0  0  0  0  0  0  0  0  0
    6.7968    2.4629   -2.5296 C   0  0  0  0  0  0  0  0  0  0  0  0
    2.7384    0.6639    9.0820 H   0  0  0  0  0  0  0  0  0  0  0  0
    6.2448    3.6083    8.4379 H   0  0  0  0  0  0  0  0  0  0  0  0
    6.4407    4.3995    4.8525 H   0  0  0  0  0  0  0  0  0  0  0  0
    0.9627    3.4106    6.2870 H   0  0  0  0  0  0  0  0  0  0  0  0
    0.2554    0.9197    7.9089 H   0  0  0  0  0  0  0  0  0  0  0  0
   -3.5132    5.2510    8.4162 H   0  0  0  0  0  0  0  0  0  0  0  0
   -5.6010    1.4275   10.6231 H   0  0  0  0  0  0  0  0  0  0  0  0
   -4.1762   -0.3650    7.7424 H   0  0  0  0  0  0  0  0  0  0  0  0
   -1.4626    0.0596    6.3977 H   0  0  0  0  0  0  0  0  0  0  0  0
   -2.6421    0.7222    3.8332 H   0  0  0  0  0  0  0  0  0  0  0  0
   -2.8509    4.9326   -0.1310 H   0  0  0  0  0  0  0  0  0  0  0  0
   -3.9213    4.8783    1.3118 H   0  0  0  0  0  0  0  0  0  0  0  0
   -4.7591    4.1923   -1.5823 H   0  0  0  0  0  0  0  0  0  0  0  0
   -5.1580    5.7020   -0.6800 H   0  0  0  0  0  0  0  0  0  0  0  0
   -5.8368    4.1243   -0.1262 H   0  0  0  0  0  0  0  0  0  0  0  0
   -5.4500   -8.9678    4.8047 H   0  0  0  0  0  0  0  0  0  0  0  0
   -3.7098   -8.5374    4.8919 H   0  0  0  0  0  0  0  0  0  0  0  0
   -5.9049   -7.6941    6.8908 H   0  0  0  0  0  0  0  0  0  0  0  0
   -4.5961   -8.9069    7.1632 H   0  0  0  0  0  0  0  0  0  0  0  0
   -4.1752   -7.1596    6.9686 H   0  0  0  0  0  0  0  0  0  0  0  0
   -5.2741   -5.0225    0.5356 H   0  0  0  0  0  0  0  0  0  0  0  0
   -6.5115   -6.5052   -4.5400 H   0  0  0  0  0  0  0  0  0  0  0  0
   -2.8820   -4.4809   -7.1045 H   0  0  0  0  0  0  0  0  0  0  0  0
   -4.7076   -1.5594   -3.8904 H   0  0  0  0  0  0  0  0  0  0  0  0
   -3.4851    0.3091   -4.6298 H   0  0  0  0  0  0  0  0  0  0  0  0
   -0.9723    1.2878   -3.8742 H   0  0  0  0  0  0  0  0  0  0  0  0
    0.6381    5.7705   -1.0206 H   0  0  0  0  0  0  0  0  0  0  0  0
    0.2258    4.2404   -0.1711 H   0  0  0  0  0  0  0  0  0  0  0  0
    2.6744    3.9051    0.3668 H   0  0  0  0  0  0  0  0  0  0  0  0
    3.0419    5.4883   -0.4253 H   0  0  0  0  0  0  0  0  0  0  0  0
    2.0105    5.4358    1.0539 H   0  0  0  0  0  0  0  0  0  0  0  0
    4.1179   -6.6167   -7.2039 H   0  0  0  0  0  0  0  0  0  0  0  0
    3.3265   -6.6675   -8.8189 H   0  0  0  0  0  0  0  0  0  0  0  0
    1.1517   -7.2902   -7.7494 H   0  0  0  0  0  0  0  0  0  0  0  0
    1.9221   -7.1864   -6.1121 H   0  0  0  0  0  0  0  0  0  0  0  0
    2.4545   -8.4514   -7.2866 H   0  0  0  0  0  0  0  0  0  0  0  0
    4.8219   -1.7359   -6.7329 H   0  0  0  0  0  0  0  0  0  0  0  0
   10.1164   -1.2325   -6.7309 H   0  0  0  0  0  0  0  0  0  0  0  0
   12.5013    1.3565   -5.9763 H   0  0  0  0  0  0  0  0  0  0  0  0
    8.7827    2.1343   -3.1102 H   0  0  0  0  0  0  0  0  0  0  0  0
    7.0024    2.2469   -1.4856 H   0  0  0  0  0  0  0  0  0  0  0  0
    5.7950    2.7634   -2.8159 H   0  0  0  0  0  0  0  0  0  0  0  0
  1  2  1  0
  2  3  1  0
  3  4  2  0
  4  5  1  0
  5  6  2  0
  5  7  1  0
  4  8  1  0
  8  9  1  0
  9 10  1  0
 10 11  2  3
 11 12  1  0
 12 13  1  0
 13 14  1  0
 14 15  2  0
 15 16  1  0
 16 17  2  0
 16 18  1  0
 15 19  1  0
 19 20  1  0
 20 21  1  0
 21 22  2  3
 22 23  1  0
 23 24  2  0
 24 25  1  0
 25 26  2  0
 26 27  1  0
 27 28  1  0
 28 29  1  0
 29 30  1  0
 30 31  1  0
 29 32  2  0
 32 33  1  0
 32 34  1  0
 34 35  1  0
 26 36  1  0
 36 37  2  0
 37 38  1  0
 38 39  1  0
 39 40  1  0
 40 41  1  0
 41 42  1  0
 42 43  1  0
 41 44  2  0
 44 45  1  0
 45 46  1  0
 44 47  1  0
 38 48  2  0
 48 49  1  0
 37 50  1  0
 50 51  2  0
 51 52  1  0
 51 53  1  0
 53 54  1  0
 54 55  1  0
 55 56  2  0
 56 57  1  0
 57 58  2  0
 57 59  1  0
 56 60  1  0
 60 61  1  0
 61 62  1  0
 62 63  2  3
 63 64  1  0
 64 65  2  0
 65 66  1  0
 66 67  2  0
 67 68  1  0
 68 69  1  0
 69 70  1  0
 70 71  1  0
 71 72  1  0
 70 73  2  0
 73 74  1  0
 73 75  1  0
 75 76  1  0
 67 77  1  0
 77 78  2  0
 78 79  1  0
 79 80  1  0
 80 81  1  0
 81 82  1  0
 82 83  1  0
 83 84  1  0
 82 85  2  0
 85 86  1  0
 86 87  1  0
 85 88  1  0
 79 89  2  0
 89 90  1  0
 78 91  1  0
 91 92  2  0
 92 93  1  0
 92 94  1  0
 94 95  1  0
 95 96  1  0
 96 97  2  0
 97 98  1  0
 98 99  2  0
 98100  1  0
 97101  1  0
101102  1  0
102103  1  0
103104  2  3
  8  1  2  0
 19 12  2  0
 49 23  1  0
 60 53  2  0
 90 64  1  0
101 94  2  0
 48 25  1  0
 89 66  1  0
 34 27  2  0
 52 36  1  0
 75 68  2  0
 93 77  1  0
 45 39  2  0
 86 80  2  0
  1105  1  0
  3106  1  0
  7107  1  0
 10108  1  0
 11109  1  0
 14110  1  0
 18111  1  0
 21112  1  0
 22113  1  0
 24114  1  0
 30115  1  0
 30116  1  0
 31117  1  0
 31118  1  0
 31119  1  0
 42120  1  0
 42121  1  0
 43122  1  0
 43123  1  0
 43124  1  0
 50125  1  0
 55126  1  0
 59127  1  0
 62128  1  0
 63129  1  0
 65130  1  0
 71131  1  0
 71132  1  0
 72133  1  0
 72134  1  0
 72135  1  0
 83136  1  0
 83137  1  0
 84138  1  0
 84139  1  0
 84140  1  0
 91141  1  0
 96142  1  0
100143  1  0
103144  1  0
104145  1  0
104146  1  0
M  END

