
     RDKit          3D

242265  0  0  0  0  0  0  0  0999 V2000
    4.6542   -0.9237    9.3132 C   0  0  0  0  0  0  0  0  0  0  0  0
    5.3888    0.7104    9.5708 S   0  0  0  0  0  0  0  0  0  0  0  0
    3.9481    1.4264    8.7614 C   0  0  0  0  0  0  0  0  0  0  0  0
    2.7733    0.6568    9.1853 N   0  0  0  0  0  0  0  0  0  0  0  0
    3.1365   -0.7622    9.1578 C   0  0  1  0  0  0  0  0  0  0  0  0
    2.6835   -1.3526    7.8954 N   0  0  0  0  0  0  0  0  0  0  0  0
    1.7949   -0.3764    7.2723 C   0  0  0  0  0  0  0  0  0  0  0  0
    1.6659    0.7936    8.2377 C   0  0  0  0  0  0  0  0  0  0  0  0
    0.3639    0.7097    8.9982 C   0  0  0  0  0  0  0  0  0  0  0  0
   -0.6783    1.5013    8.7072 C   0  0  0  0  0  0  0  0  0  0  0  0
   -2.0144    1.2915    9.3750 C   0  0  0  0  0  0  0  0  0  0  0  0
   -3.1894    2.5909    8.9243 S   0  0  0  0  0  0  0  0  0  0  0  0
   -4.5039    1.3675    8.6276 C   0  0  0  0  0  0  0  0  0  0  0  0
   -4.1037    0.0474    9.1560 N   0  0  0  0  0  0  0  0  0  0  0  0
   -2.6564   -0.0577    9.0273 C   0  0  1  0  0  0  0  0  0  0  0  0
   -2.3558   -0.5354    7.6740 N   0  0  0  0  0  0  0  0  0  0  0  0
   -3.4694   -1.4212    7.3639 C   0  0  0  0  0  0  0  0  0  0  0  0
   -4.6161   -1.0458    8.3159 C   0  0  0  0  0  0  0  0  0  0  0  0
   -5.0256   -2.2139    9.1916 C   0  0  0  0  0  0  0  0  0  0  0  0
   -5.5466   -3.3564    8.7191 C   0  0  0  0  0  0  0  0  0  0  0  0
   -5.7906   -3.5965    7.2901 C   0  0  0  0  0  0  0  0  0  0  0  0
   -6.6155   -2.8320    6.4673 C   0  0  0  0  0  0  0  0  0  0  0  0
   -6.4670   -3.1416    5.1071 C   0  0  0  0  0  0  0  0  0  0  0  0
   -7.0679   -2.4573    4.0337 C   0  0  0  0  0  0  0  0  0  0  0  0
   -7.9841   -1.3160    4.2476 C   0  0  0  0  0  0  0  0  0  0  0  0
   -7.6186   -0.0322    3.8160 C   0  0  0  0  0  0  0  0  0  0  0  0
   -8.4935    1.0426    3.9867 C   0  0  0  0  0  0  0  0  0  0  0  0
   -9.7466    0.8435    4.5773 C   0  0  0  0  0  0  0  0  0  0  0  0
  -10.8754    2.2285    4.7467 S   0  0  0  0  0  0  0  0  0  0  0  0
  -11.6096    2.0566    3.0802 C   0  0  0  0  0  0  0  0  0  0  0  0
  -12.7336    1.0286    3.0829 C   0  0  0  0  0  0  0  0  0  0  0  0
  -10.1024   -0.4304    5.0426 C   0  0  0  0  0  0  0  0  0  0  0  0
  -11.2980   -0.6306    5.6530 F   0  0  0  0  0  0  0  0  0  0  0  0
   -9.2255   -1.5079    4.8735 C   0  0  0  0  0  0  0  0  0  0  0  0
   -6.6723   -2.8388    2.7424 C   0  0  0  0  0  0  0  0  0  0  0  0
   -5.7199   -3.8362    2.5004 C   0  0  0  0  0  0  0  0  0  0  0  0
   -5.1151   -4.5210    3.5769 C   0  0  0  0  0  0  0  0  0  0  0  0
   -3.9971   -5.4684    3.3806 C   0  0  0  0  0  0  0  0  0  0  0  0
   -2.8037   -5.0367    2.7773 C   0  0  0  0  0  0  0  0  0  0  0  0
   -1.7209   -5.9112    2.6513 C   0  0  0  0  0  0  0  0  0  0  0  0
   -1.8132   -7.2181    3.1433 C   0  0  0  0  0  0  0  0  0  0  0  0
   -0.4063   -8.3276    2.9980 S   0  0  0  0  0  0  0  0  0  0  0  0
    0.4475   -7.7207    4.4986 C   0  0  0  0  0  0  0  0  0  0  0  0
   -0.1735   -8.2989    5.7653 C   0  0  0  0  0  0  0  0  0  0  0  0
   -3.0056   -7.6581    3.7358 C   0  0  0  0  0  0  0  0  0  0  0  0
   -4.0903   -6.7844    3.8574 C   0  0  0  0  0  0  0  0  0  0  0  0
   -3.1129   -8.9279    4.2025 F   0  0  0  0  0  0  0  0  0  0  0  0
   -5.5315   -4.1567    4.8724 C   0  0  0  0  0  0  0  0  0  0  0  0
   -4.8922   -4.6644    6.3460 S   0  0  0  0  0  0  0  0  0  0  0  0
   -5.4238   -3.9930    1.1326 C   0  0  0  0  0  0  0  0  0  0  0  0
   -6.1269   -3.1066    0.3164 C   0  0  0  0  0  0  0  0  0  0  0  0
   -7.1325   -2.1543    1.2796 S   0  0  0  0  0  0  0  0  0  0  0  0
   -5.8378   -2.8301   -1.0979 C   0  0  0  0  0  0  0  0  0  0  0  0
   -6.2684   -1.6927   -1.7790 C   0  0  0  0  0  0  0  0  0  0  0  0
   -5.5885   -1.4802   -2.9886 C   0  0  0  0  0  0  0  0  0  0  0  0
   -5.6665   -0.3158   -3.7818 C   0  0  0  0  0  0  0  0  0  0  0  0
   -6.5806    0.7884   -3.4229 C   0  0  0  0  0  0  0  0  0  0  0  0
   -7.9681    0.5916   -3.4771 C   0  0  0  0  0  0  0  0  0  0  0  0
   -8.8374    1.5896   -3.0294 C   0  0  0  0  0  0  0  0  0  0  0  0
   -8.3275    2.7879   -2.5148 C   0  0  0  0  0  0  0  0  0  0  0  0
   -9.4580    4.0476   -1.9074 S   0  0  0  0  0  0  0  0  0  0  0  0
   -9.6758    3.3047   -0.2495 C   0  0  0  0  0  0  0  0  0  0  0  0
   -8.4999    3.6335    0.6617 C   0  0  0  0  0  0  0  0  0  0  0  0
   -6.9427    3.0010   -2.4858 C   0  0  0  0  0  0  0  0  0  0  0  0
   -6.4349    4.1645   -2.0068 F   0  0  0  0  0  0  0  0  0  0  0  0
   -6.0718    2.0016   -2.9331 C   0  0  0  0  0  0  0  0  0  0  0  0
   -4.7255   -0.1948   -4.8211 C   0  0  0  0  0  0  0  0  0  0  0  0
   -3.7755   -1.1842   -5.0948 C   0  0  0  0  0  0  0  0  0  0  0  0
   -3.7295   -2.3655   -4.3275 C   0  0  0  0  0  0  0  0  0  0  0  0
   -2.6613   -3.3649   -4.5126 C   0  0  0  0  0  0  0  0  0  0  0  0
   -2.7165   -4.2619   -5.5885 C   0  0  0  0  0  0  0  0  0  0  0  0
   -1.7081   -5.2164   -5.7558 C   0  0  0  0  0  0  0  0  0  0  0  0
   -0.6372   -5.2761   -4.8557 C   0  0  0  0  0  0  0  0  0  0  0  0
    0.6511   -6.5053   -5.0842 S   0  0  0  0  0  0  0  0  0  0  0  0
   -0.1948   -7.8215   -4.1363 C   0  0  0  0  0  0  0  0  0  0  0  0
    0.0412   -7.6586   -2.6391 C   0  0  0  0  0  0  0  0  0  0  0  0
   -0.5644   -4.3567   -3.7984 C   0  0  0  0  0  0  0  0  0  0  0  0
   -1.5797   -3.4124   -3.6218 C   0  0  0  0  0  0  0  0  0  0  0  0
    0.4867   -4.3773   -2.9399 F   0  0  0  0  0  0  0  0  0  0  0  0
   -4.6425   -2.4720   -3.2661 C   0  0  0  0  0  0  0  0  0  0  0  0
   -4.6417   -3.5967   -2.0130 S   0  0  0  0  0  0  0  0  0  0  0  0
   -2.7984   -0.7750   -6.0152 C   0  0  0  0  0  0  0  0  0  0  0  0
   -2.9453    0.5505   -6.4273 C   0  0  0  0  0  0  0  0  0  0  0  0
   -4.3319    1.1862   -5.6956 S   0  0  0  0  0  0  0  0  0  0  0  0
   -1.7949    1.3790   -6.8161 C   0  0  0  0  0  0  0  0  0  0  0  0
   -0.6517    0.8896   -7.4549 C   0  0  0  0  0  0  0  0  0  0  0  0
    0.5107    1.6251   -7.1535 C   0  0  0  0  0  0  0  0  0  0  0  0
    1.8304    1.2352   -7.4582 C   0  0  0  0  0  0  0  0  0  0  0  0
    2.1097    0.0849   -8.3390 C   0  0  0  0  0  0  0  0  0  0  0  0
    2.6256   -1.1052   -7.8083 C   0  0  0  0  0  0  0  0  0  0  0  0
    2.8872   -2.1916   -8.6472 C   0  0  0  0  0  0  0  0  0  0  0  0
    2.6554   -2.0882  -10.0249 C   0  0  0  0  0  0  0  0  0  0  0  0
    3.0231   -3.4791  -11.0994 S   0  0  0  0  0  0  0  0  0  0  0  0
    4.7141   -2.9231  -11.5208 C   0  0  0  0  0  0  0  0  0  0  0  0
    5.7126   -3.3582  -10.4549 C   0  0  0  0  0  0  0  0  0  0  0  0
    2.1167   -0.9069  -10.5549 C   0  0  0  0  0  0  0  0  0  0  0  0
    1.8651   -0.8004  -11.8848 F   0  0  0  0  0  0  0  0  0  0  0  0
    1.8450    0.1776   -9.7125 C   0  0  0  0  0  0  0  0  0  0  0  0
    2.8663    1.9147   -6.7915 C   0  0  0  0  0  0  0  0  0  0  0  0
    2.6211    2.9462   -5.8778 C   0  0  0  0  0  0  0  0  0  0  0  0
    1.3034    3.3841   -5.6259 C   0  0  0  0  0  0  0  0  0  0  0  0
    0.9838    4.3680   -4.5656 C   0  0  0  0  0  0  0  0  0  0  0  0
    1.2864    4.0876   -3.2230 C   0  0  0  0  0  0  0  0  0  0  0  0
    0.9094    4.9781   -2.2141 C   0  0  0  0  0  0  0  0  0  0  0  0
    0.2017    6.1425   -2.5334 C   0  0  0  0  0  0  0  0  0  0  0  0
   -0.3052    7.2655   -1.2262 S   0  0  0  0  0  0  0  0  0  0  0  0
   -1.8254    6.3475   -0.7898 C   0  0  0  0  0  0  0  0  0  0  0  0
   -2.9606    6.6570   -1.7608 C   0  0  0  0  0  0  0  0  0  0  0  0
   -0.0948    6.4331   -3.8736 C   0  0  0  0  0  0  0  0  0  0  0  0
    0.2916    5.5461   -4.8838 C   0  0  0  0  0  0  0  0  0  0  0  0
   -0.7682    7.5643   -4.1971 F   0  0  0  0  0  0  0  0  0  0  0  0
    0.2727    2.6996   -6.2925 C   0  0  0  0  0  0  0  0  0  0  0  0
   -1.3625    2.7433   -5.9217 S   0  0  0  0  0  0  0  0  0  0  0  0
    3.7714    3.3457   -5.1829 C   0  0  0  0  0  0  0  0  0  0  0  0
    4.9095    2.6223   -5.5319 C   0  0  0  0  0  0  0  0  0  0  0  0
    4.4982    1.5021   -6.7261 S   0  0  0  0  0  0  0  0  0  0  0  0
    6.0410    2.4370   -4.6230 C   0  0  0  0  0  0  0  0  0  0  0  0
    7.3849    2.3041   -4.9690 C   0  0  0  0  0  0  0  0  0  0  0  0
    8.1854    1.9214   -3.8746 C   0  0  0  0  0  0  0  0  0  0  0  0
    9.5845    1.7486   -3.8729 C   0  0  0  0  0  0  0  0  0  0  0  0
   10.4114    2.0176   -5.0641 C   0  0  0  0  0  0  0  0  0  0  0  0
   11.2727    3.1235   -5.0789 C   0  0  0  0  0  0  0  0  0  0  0  0
   12.0884    3.3646   -6.1866 C   0  0  0  0  0  0  0  0  0  0  0  0
   12.0722    2.4858   -7.2768 C   0  0  0  0  0  0  0  0  0  0  0  0
   13.1538    2.7862   -8.6802 S   0  0  0  0  0  0  0  0  0  0  0  0
   14.6515    2.0892   -7.8947 C   0  0  0  0  0  0  0  0  0  0  0  0
   14.6358    0.5663   -7.9179 C   0  0  0  0  0  0  0  0  0  0  0  0
   11.2021    1.3844   -7.2715 C   0  0  0  0  0  0  0  0  0  0  0  0
   11.1617    0.5370   -8.3297 F   0  0  0  0  0  0  0  0  0  0  0  0
   10.3707    1.1541   -6.1688 C   0  0  0  0  0  0  0  0  0  0  0  0
   10.1735    1.3382   -2.6629 C   0  0  0  0  0  0  0  0  0  0  0  0
    9.4304    1.0895   -1.5036 C   0  0  0  0  0  0  0  0  0  0  0  0
    8.0336    1.2756   -1.4979 C   0  0  0  0  0  0  0  0  0  0  0  0
    7.1935    0.9693   -0.3166 C   0  0  0  0  0  0  0  0  0  0  0  0
    7.3630    1.6742    0.8854 C   0  0  0  0  0  0  0  0  0  0  0  0
    6.5302    1.4106    1.9780 C   0  0  0  0  0  0  0  0  0  0  0  0
    5.5220    0.4447    1.8788 C   0  0  0  0  0  0  0  0  0  0  0  0
    4.4443    0.1317    3.2793 S   0  0  0  0  0  0  0  0  0  0  0  0
    5.5139   -1.1731    3.9661 C   0  0  0  0  0  0  0  0  0  0  0  0
    4.8987   -1.7219    5.2433 C   0  0  0  0  0  0  0  0  0  0  0  0
    5.3525   -0.2662    0.6840 C   0  0  0  0  0  0  0  0  0  0  0  0
    6.1873   -0.0081   -0.4060 C   0  0  0  0  0  0  0  0  0  0  0  0
    4.3807   -1.2071    0.5758 F   0  0  0  0  0  0  0  0  0  0  0  0
    7.4517    1.7164   -2.6996 C   0  0  0  0  0  0  0  0  0  0  0  0
    5.8354    2.0583   -2.9924 S   0  0  0  0  0  0  0  0  0  0  0  0
   10.2164    0.6244   -0.4354 C   0  0  0  0  0  0  0  0  0  0  0  0
   11.5672    0.5175   -0.7548 C   0  0  0  0  0  0  0  0  0  0  0  0
   11.7915    0.9918   -2.3592 S   0  0  0  0  0  0  0  0  0  0  0  0
    5.1144   -1.3799    8.4109 H   0  0  0  0  0  0  0  0  0  0  0  0
    4.8887   -1.5678   10.1870 H   0  0  0  0  0  0  0  0  0  0  0  0
    3.8352    2.4856    9.0715 H   0  0  0  0  0  0  0  0  0  0  0  0
    4.1022    1.3771    7.6576 H   0  0  0  0  0  0  0  0  0  0  0  0
    2.6311   -1.2657   10.0160 H   0  0  0  0  0  0  0  0  0  0  0  0
    2.1391   -2.2228    8.1050 H   0  0  0  0  0  0  0  0  0  0  0  0
    2.2645   -0.0320    6.3254 H   0  0  0  0  0  0  0  0  0  0  0  0
    0.8089   -0.8312    7.0169 H   0  0  0  0  0  0  0  0  0  0  0  0
    1.7119    1.7593    7.6823 H   0  0  0  0  0  0  0  0  0  0  0  0
    0.2452   -0.0831    9.7335 H   0  0  0  0  0  0  0  0  0  0  0  0
   -0.5739    2.2781    7.9568 H   0  0  0  0  0  0  0  0  0  0  0  0
   -1.8797    1.3536   10.4779 H   0  0  0  0  0  0  0  0  0  0  0  0
   -5.4362    1.7005    9.1256 H   0  0  0  0  0  0  0  0  0  0  0  0
   -4.6732    1.3501    7.5271 H   0  0  0  0  0  0  0  0  0  0  0  0
   -2.2835   -0.8141    9.7568 H   0  0  0  0  0  0  0  0  0  0  0  0
   -2.4048    0.2686    7.0030 H   0  0  0  0  0  0  0  0  0  0  0  0
   -3.1286   -2.4704    7.5077 H   0  0  0  0  0  0  0  0  0  0  0  0
   -3.7869   -1.3021    6.3013 H   0  0  0  0  0  0  0  0  0  0  0  0
   -5.5093   -0.7235    7.7402 H   0  0  0  0  0  0  0  0  0  0  0  0
   -4.8579   -2.1376   10.2609 H   0  0  0  0  0  0  0  0  0  0  0  0
   -5.7142   -4.1766    9.4062 H   0  0  0  0  0  0  0  0  0  0  0  0
   -7.2522   -2.0415    6.8427 H   0  0  0  0  0  0  0  0  0  0  0  0
   -6.6560    0.1346    3.3474 H   0  0  0  0  0  0  0  0  0  0  0  0
   -8.1987    2.0270    3.6516 H   0  0  0  0  0  0  0  0  0  0  0  0
  -10.8382    1.7751    2.3318 H   0  0  0  0  0  0  0  0  0  0  0  0
  -12.0287    3.0411    2.7823 H   0  0  0  0  0  0  0  0  0  0  0  0
  -13.2333    1.0204    2.0915 H   0  0  0  0  0  0  0  0  0  0  0  0
  -13.4860    1.2831    3.8596 H   0  0  0  0  0  0  0  0  0  0  0  0
  -12.3297    0.0147    3.2782 H   0  0  0  0  0  0  0  0  0  0  0  0
   -9.5140   -2.4926    5.2202 H   0  0  0  0  0  0  0  0  0  0  0  0
   -2.7075   -4.0179    2.4229 H   0  0  0  0  0  0  0  0  0  0  0  0
   -0.8051   -5.5654    2.1909 H   0  0  0  0  0  0  0  0  0  0  0  0
    0.4288   -6.6102    4.5378 H   0  0  0  0  0  0  0  0  0  0  0  0
    1.5089   -8.0436    4.4423 H   0  0  0  0  0  0  0  0  0  0  0  0
   -1.1910   -7.8839    5.9238 H   0  0  0  0  0  0  0  0  0  0  0  0
    0.4556   -8.0272    6.6407 H   0  0  0  0  0  0  0  0  0  0  0  0
   -0.2278   -9.4065    5.6972 H   0  0  0  0  0  0  0  0  0  0  0  0
   -5.0023   -7.1293    4.3301 H   0  0  0  0  0  0  0  0  0  0  0  0
   -4.6851   -4.6862    0.7536 H   0  0  0  0  0  0  0  0  0  0  0  0
   -6.9717   -0.9861   -1.3586 H   0  0  0  0  0  0  0  0  0  0  0  0
   -8.3730   -0.3455   -3.8413 H   0  0  0  0  0  0  0  0  0  0  0  0
   -9.9054    1.4204   -3.0599 H   0  0  0  0  0  0  0  0  0  0  0  0
   -9.8039    2.2027   -0.3234 H   0  0  0  0  0  0  0  0  0  0  0  0
  -10.5999    3.7263    0.1997 H   0  0  0  0  0  0  0  0  0  0  0  0
   -7.5810    3.1232    0.3072 H   0  0  0  0  0  0  0  0  0  0  0  0
   -8.7226    3.2816    1.6894 H   0  0  0  0  0  0  0  0  0  0  0  0
   -8.3285    4.7309    0.6906 H   0  0  0  0  0  0  0  0  0  0  0  0
   -5.0034    2.1592   -2.8688 H   0  0  0  0  0  0  0  0  0  0  0  0
   -3.5405   -4.2259   -6.2904 H   0  0  0  0  0  0  0  0  0  0  0  0
   -1.7638   -5.9134   -6.5816 H   0  0  0  0  0  0  0  0  0  0  0  0
    0.2239   -8.7989   -4.4581 H   0  0  0  0  0  0  0  0  0  0  0  0
   -1.2861   -7.8281   -4.3508 H   0  0  0  0  0  0  0  0  0  0  0  0
   -0.4853   -6.7588   -2.2581 H   0  0  0  0  0  0  0  0  0  0  0  0
   -0.3531   -8.5467   -2.1016 H   0  0  0  0  0  0  0  0  0  0  0  0
    1.1291   -7.5702   -2.4289 H   0  0  0  0  0  0  0  0  0  0  0  0
   -1.5211   -2.7121   -2.7974 H   0  0  0  0  0  0  0  0  0  0  0  0
   -1.9159   -1.3628   -6.2330 H   0  0  0  0  0  0  0  0  0  0  0  0
   -0.6367   -0.0524   -7.9853 H   0  0  0  0  0  0  0  0  0  0  0  0
    2.8176   -1.1929   -6.7457 H   0  0  0  0  0  0  0  0  0  0  0  0
    3.2785   -3.1077   -8.2265 H   0  0  0  0  0  0  0  0  0  0  0  0
    4.7506   -1.8189  -11.6506 H   0  0  0  0  0  0  0  0  0  0  0  0
    5.0002   -3.3911  -12.4863 H   0  0  0  0  0  0  0  0  0  0  0  0
    6.7396   -3.0777  -10.7716 H   0  0  0  0  0  0  0  0  0  0  0  0
    5.4957   -2.8554   -9.4902 H   0  0  0  0  0  0  0  0  0  0  0  0
    5.6671   -4.4601  -10.3151 H   0  0  0  0  0  0  0  0  0  0  0  0
    1.4377    1.0902  -10.1288 H   0  0  0  0  0  0  0  0  0  0  0  0
    1.7986    3.1702   -2.9557 H   0  0  0  0  0  0  0  0  0  0  0  0
    1.1493    4.7512   -1.1827 H   0  0  0  0  0  0  0  0  0  0  0  0
   -1.6315    5.2536   -0.7671 H   0  0  0  0  0  0  0  0  0  0  0  0
   -2.1346    6.6618    0.2288 H   0  0  0  0  0  0  0  0  0  0  0  0
   -3.1299    7.7535   -1.8139 H   0  0  0  0  0  0  0  0  0  0  0  0
   -2.7255    6.2682   -2.7727 H   0  0  0  0  0  0  0  0  0  0  0  0
   -3.8918    6.1670   -1.4064 H   0  0  0  0  0  0  0  0  0  0  0  0
    0.0415    5.7699   -5.9132 H   0  0  0  0  0  0  0  0  0  0  0  0
    3.7665    4.0628   -4.3744 H   0  0  0  0  0  0  0  0  0  0  0  0
    7.7580    2.4668   -5.9712 H   0  0  0  0  0  0  0  0  0  0  0  0
   11.3120    3.7979   -4.2319 H   0  0  0  0  0  0  0  0  0  0  0  0
   12.7511    4.2203   -6.1870 H   0  0  0  0  0  0  0  0  0  0  0  0
   14.7487    2.4524   -6.8488 H   0  0  0  0  0  0  0  0  0  0  0  0
   15.5364    2.4447   -8.4635 H   0  0  0  0  0  0  0  0  0  0  0  0
   13.8079    0.1746   -7.2913 H   0  0  0  0  0  0  0  0  0  0  0  0
   15.5939    0.1811   -7.5104 H   0  0  0  0  0  0  0  0  0  0  0  0
   14.5177    0.2003   -8.9600 H   0  0  0  0  0  0  0  0  0  0  0  0
    9.7077    0.2983   -6.1694 H   0  0  0  0  0  0  0  0  0  0  0  0
    8.1288    2.4355    0.9705 H   0  0  0  0  0  0  0  0  0  0  0  0
    6.6643    1.9622    2.8992 H   0  0  0  0  0  0  0  0  0  0  0  0
    5.6215   -1.9948    3.2267 H   0  0  0  0  0  0  0  0  0  0  0  0
    6.5180   -0.7537    4.1915 H   0  0  0  0  0  0  0  0  0  0  0  0
    5.5488   -2.5193    5.6619 H   0  0  0  0  0  0  0  0  0  0  0  0
    3.8966   -2.1526    5.0311 H   0  0  0  0  0  0  0  0  0  0  0  0
    4.7983   -0.9076    5.9920 H   0  0  0  0  0  0  0  0  0  0  0  0
    6.0468   -0.5656   -1.3237 H   0  0  0  0  0  0  0  0  0  0  0  0
    9.8234    0.3576    0.5362 H   0  0  0  0  0  0  0  0  0  0  0  0
   12.3436    0.1728   -0.0858 H   0  0  0  0  0  0  0  0  0  0  0  0
  1  2  1  0
  2  3  1  0
  3  4  1  0
  4  5  1  0
  5  6  1  0
  6  7  1  0
  7  8  1  0
  8  9  1  0
  9 10  2  3
 10 11  1  0
 11 12  1  0
 12 13  1  0
 13 14  1  0
 14 15  1  0
 15 16  1  0
 16 17  1  0
 17 18  1  0
 18 19  1  0
 19 20  2  3
 20 21  1  0
 21 22  2  0
 22 23  1  0
 23 24  2  0
 24 25  1  0
 25 26  2  0
 26 27  1  0
 27 28  2  0
 28 29  1  0
 29 30  1  0
 30 31  1  0
 28 32  1  0
 32 33  1  0
 32 34  2  0
 24 35  1  0
 35 36  2  0
 36 37  1  0
 37 38  1  0
 38 39  2  0
 39 40  1  0
 40 41  2  0
 41 42  1  0
 42 43  1  0
 43 44  1  0
 41 45  1  0
 45 46  2  0
 45 47  1  0
 37 48  2  0
 48 49  1  0
 36 50  1  0
 50 51  2  0
 51 52  1  0
 51 53  1  0
 53 54  2  0
 54 55  1  0
 55 56  2  0
 56 57  1  0
 57 58  2  0
 58 59  1  0
 59 60  2  0
 60 61  1  0
 61 62  1  0
 62 63  1  0
 60 64  1  0
 64 65  1  0
 64 66  2  0
 56 67  1  0
 67 68  2  0
 68 69  1  0
 69 70  1  0
 70 71  2  0
 71 72  1  0
 72 73  2  0
 73 74  1  0
 74 75  1  0
 75 76  1  0
 73 77  1  0
 77 78  2  0
 77 79  1  0
 69 80  2  0
 80 81  1  0
 68 82  1  0
 82 83  2  0
 83 84  1  0
 83 85  1  0
 85 86  2  0
 86 87  1  0
 87 88  2  0
 88 89  1  0
 89 90  2  0
 90 91  1  0
 91 92  2  0
 92 93  1  0
 93 94  1  0
 94 95  1  0
 92 96  1  0
 96 97  1  0
 96 98  2  0
 88 99  1  0
 99100  2  0
100101  1  0
101102  1  0
102103  2  0
103104  1  0
104105  2  0
105106  1  0
106107  1  0
107108  1  0
105109  1  0
109110  2  0
109111  1  0
101112  2  0
112113  1  0
100114  1  0
114115  2  0
115116  1  0
115117  1  0
117118  2  0
118119  1  0
119120  2  0
120121  1  0
121122  2  0
122123  1  0
123124  2  0
124125  1  0
125126  1  0
126127  1  0
124128  1  0
128129  1  0
128130  2  0
120131  1  0
131132  2  0
132133  1  0
133134  1  0
134135  2  0
135136  1  0
136137  2  0
137138  1  0
138139  1  0
139140  1  0
137141  1  0
141142  2  0
141143  1  0
133144  2  0
144145  1  0
132146  1  0
146147  2  0
147148  1  0
  5  1  1  0
 15 11  1  0
 49 21  1  0
 81 53  1  0
113 85  1  0
145117  1  0
  8  4  1  0
 18 14  1  0
 48 23  1  0
 80 55  1  0
112 87  1  0
144119  1  0
 34 25  1  0
 52 35  1  0
 66 57  1  0
 84 67  1  0
 98 89  1  0
116 99  1  0
130121  1  0
148131  1  0
 46 38  1  0
 78 70  1  0
110102  1  0
142134  1  0
  1149  1  0
  1150  1  0
  3151  1  0
  3152  1  0
  5153  1  1
  6154  1  0
  7155  1  0
  7156  1  0
  8157  1  0
  9158  1  0
 10159  1  0
 11160  1  0
 13161  1  0
 13162  1  0
 15163  1  1
 16164  1  0
 17165  1  0
 17166  1  0
 18167  1  0
 19168  1  0
 20169  1  0
 22170  1  0
 26171  1  0
 27172  1  0
 30173  1  0
 30174  1  0
 31175  1  0
 31176  1  0
 31177  1  0
 34178  1  0
 39179  1  0
 40180  1  0
 43181  1  0
 43182  1  0
 44183  1  0
 44184  1  0
 44185  1  0
 46186  1  0
 50187  1  0
 54188  1  0
 58189  1  0
 59190  1  0
 62191  1  0
 62192  1  0
 63193  1  0
 63194  1  0
 63195  1  0
 66196  1  0
 71197  1  0
 72198  1  0
 75199  1  0
 75200  1  0
 76201  1  0
 76202  1  0
 76203  1  0
 78204  1  0
 82205  1  0
 86206  1  0
 90207  1  0
 91208  1  0
 94209  1  0
 94210  1  0
 95211  1  0
 95212  1  0
 95213  1  0
 98214  1  0
103215  1  0
104216  1  0
107217  1  0
107218  1  0
108219  1  0
108220  1  0
108221  1  0
110222  1  0
114223  1  0
118224  1  0
122225  1  0
123226  1  0
126227  1  0
126228  1  0
127229  1  0
127230  1  0
127231  1  0
130232  1  0
135233  1  0
136234  1  0
139235  1  0
139236  1  0
140237  1  0
140238  1  0
140239  1  0
142240  1  0
146241  1  0
147242  1  0
M  END

