
     RDKit          3D

 55 60  0  0  0  0  0  0  0  0999 V2000
    7.4150    7.7016    2.4366 C   0  0  0  0  0  0  0  0  0  0  0  0
    7.4031    6.9440    1.2686 C   0  0  0  0  0  0  0  0  0  0  0  0
    6.3963    5.9994    1.0806 C   0  0  0  0  0  0  0  0  0  0  0  0
    5.4163    5.8310    2.0707 C   0  0  0  0  0  0  0  0  0  0  0  0
    5.4825    6.6027    3.1918 N   0  0  0  0  0  0  0  0  0  0  0  0
    6.4480    7.5068    3.3693 N   0  0  0  0  0  0  0  0  0  0  0  0
    4.3264    4.8377    1.9138 C   0  0  0  0  0  0  0  0  0  0  0  0
    3.3450    4.6722    2.8995 C   0  0  0  0  0  0  0  0  0  0  0  0
    2.3371    3.7286    2.7142 C   0  0  0  0  0  0  0  0  0  0  0  0
    2.3245    2.9522    1.5455 C   0  0  0  0  0  0  0  0  0  0  0  0
    3.2956    3.1634    0.6160 N   0  0  0  0  0  0  0  0  0  0  0  0
    4.2596    4.0680    0.7936 N   0  0  0  0  0  0  0  0  0  0  0  0
    1.2821    1.9347    1.2697 C   0  0  0  0  0  0  0  0  0  0  0  0
    0.4873    1.3694    2.2785 C   0  0  0  0  0  0  0  0  0  0  0  0
   -0.4664    0.4110    1.9435 C   0  0  0  0  0  0  0  0  0  0  0  0
   -0.6132    0.0201    0.6064 C   0  0  0  0  0  0  0  0  0  0  0  0
    0.1926    0.5900   -0.3303 N   0  0  0  0  0  0  0  0  0  0  0  0
    1.1052    1.5087   -0.0105 N   0  0  0  0  0  0  0  0  0  0  0  0
   -1.6130   -0.9994    0.2075 C   0  0  0  0  0  0  0  0  0  0  0  0
   -1.7497   -1.4010   -1.1285 C   0  0  0  0  0  0  0  0  0  0  0  0
   -2.6942   -2.3692   -1.4597 C   0  0  0  0  0  0  0  0  0  0  0  0
   -3.4801   -2.9344   -0.4502 C   0  0  0  0  0  0  0  0  0  0  0  0
   -3.3261   -2.4941    0.8266 N   0  0  0  0  0  0  0  0  0  0  0  0
   -2.4243   -1.5639    1.1439 N   0  0  0  0  0  0  0  0  0  0  0  0
   -4.4743   -3.9864   -0.7365 C   0  0  0  0  0  0  0  0  0  0  0  0
   -5.6988   -4.1101   -0.1057 C   0  0  0  0  0  0  0  0  0  0  0  0
   -6.3593   -5.1253   -0.6130 O   0  0  0  0  0  0  0  0  0  0  0  0
   -5.6227   -5.6882   -1.5430 C   0  0  0  0  0  0  0  0  0  0  0  0
   -6.0500   -6.8401   -2.2804 N   0  0  0  0  0  4  0  0  0  0  0  0
   -7.3031   -7.3601   -2.0572 O   0  0  0  0  0  1  0  0  0  0  0  0
   -5.2924   -7.4046   -3.0953 O   0  0  0  0  0  0  0  0  0  0  0  0
   -4.4085   -5.0249   -1.6615 C   0  0  0  0  0  0  0  0  0  0  0  0
   -3.2973   -5.3799   -2.5711 C   0  0  0  0  0  0  0  0  0  0  0  0
   -2.0108   -5.4995   -2.2067 C   0  0  0  0  0  0  0  0  0  0  0  0
   -1.5007   -5.4035   -0.8242 C   0  0  0  0  0  0  0  0  0  0  0  0
   -2.1514   -6.0126    0.2582 C   0  0  0  0  0  0  0  0  0  0  0  0
   -1.6176   -5.8754    1.5375 C   0  0  0  0  0  0  0  0  0  0  0  0
   -0.4372   -5.1559    1.7077 C   0  0  0  0  0  0  0  0  0  0  0  0
    0.1770   -4.6128    0.6252 N   0  0  0  0  0  0  0  0  0  0  0  0
   -0.3358   -4.7376   -0.6005 N   0  0  0  0  0  0  0  0  0  0  0  0
    8.1874    8.4404    2.6029 H   0  0  0  0  0  0  0  0  0  0  0  0
    8.1671    7.0875    0.5155 H   0  0  0  0  0  0  0  0  0  0  0  0
    6.3865    5.4099    0.1726 H   0  0  0  0  0  0  0  0  0  0  0  0
    3.3497    5.2697    3.8024 H   0  0  0  0  0  0  0  0  0  0  0  0
    1.5708    3.6339    3.4703 H   0  0  0  0  0  0  0  0  0  0  0  0
    0.6085    1.6381    3.3182 H   0  0  0  0  0  0  0  0  0  0  0  0
   -1.0757   -0.0240    2.7257 H   0  0  0  0  0  0  0  0  0  0  0  0
   -1.1359   -0.9722   -1.9103 H   0  0  0  0  0  0  0  0  0  0  0  0
   -2.8125   -2.6658   -2.4935 H   0  0  0  0  0  0  0  0  0  0  0  0
   -6.0783   -3.4702    0.6802 H   0  0  0  0  0  0  0  0  0  0  0  0
   -3.5430   -5.5399   -3.6132 H   0  0  0  0  0  0  0  0  0  0  0  0
   -1.2785   -5.6504   -2.9903 H   0  0  0  0  0  0  0  0  0  0  0  0
   -3.0537   -6.5930    0.1164 H   0  0  0  0  0  0  0  0  0  0  0  0
   -2.1102   -6.3285    2.3879 H   0  0  0  0  0  0  0  0  0  0  0  0
   -0.0039   -5.0388    2.6919 H   0  0  0  0  0  0  0  0  0  0  0  0
  1  2  2  0
  2  3  1  0
  3  4  2  0
  4  5  1  0
  5  6  2  0
  4  7  1  0
  7  8  2  0
  8  9  1  0
  9 10  2  0
 10 11  1  0
 11 12  2  0
 10 13  1  0
 13 14  2  0
 14 15  1  0
 15 16  2  0
 16 17  1  0
 17 18  2  0
 16 19  1  0
 19 20  2  0
 20 21  1  0
 21 22  2  0
 22 23  1  0
 23 24  2  0
 22 25  1  0
 25 26  2  0
 26 27  1  0
 27 28  1  0
 28 29  1  0
 29 30  1  0
 29 31  2  0
 28 32  2  0
 32 33  1  0
 33 34  2  3
 34 35  1  0
 35 36  2  0
 36 37  1  0
 37 38  2  0
 38 39  1  0
 39 40  2  0
  6  1  1  0
 12  7  1  0
 18 13  1  0
 24 19  1  0
 32 25  1  0
 40 35  1  0
  1 41  1  0
  2 42  1  0
  3 43  1  0
  8 44  1  0
  9 45  1  0
 14 46  1  0
 15 47  1  0
 20 48  1  0
 21 49  1  0
 26 50  1  0
 33 51  1  0
 34 52  1  0
 36 53  1  0
 37 54  1  0
 38 55  1  0
M  CHG  2  29   1  30  -1
M  END

