
     RDKit          3D

228249  0  0  0  0  0  0  0  0999 V2000
   -1.5171   -5.9372   12.4249 C   0  0  0  0  0  0  0  0  0  0  0  0
   -1.6376   -4.6808   11.8397 C   0  0  0  0  0  0  0  0  0  0  0  0
   -1.5792   -4.7139   10.4372 C   0  0  0  0  0  0  0  0  0  0  0  0
   -1.6958   -3.6086    9.5678 C   0  0  0  0  0  0  0  0  0  0  0  0
   -1.8510   -2.2228   10.0621 C   0  0  0  0  0  0  0  0  0  0  0  0
   -0.8648   -1.6451   10.8741 C   0  0  0  0  0  0  0  0  0  0  0  0
   -0.9939   -0.3204   11.3074 C   0  0  0  0  0  0  0  0  0  0  0  0
   -2.1051    0.4397   10.9204 C   0  0  0  0  0  0  0  0  0  0  0  0
   -2.2549    2.1444   11.4671 S   0  0  0  0  0  0  0  0  0  0  0  0
   -1.1872    2.8411   10.1575 C   0  0  0  0  0  0  0  0  0  0  0  0
   -1.9056    2.8754    8.8122 C   0  0  0  0  0  0  0  0  0  0  0  0
   -3.1007   -0.1395   10.1222 C   0  0  0  0  0  0  0  0  0  0  0  0
   -4.1937    0.5812    9.7579 F   0  0  0  0  0  0  0  0  0  0  0  0
   -2.9733   -1.4606    9.6906 C   0  0  0  0  0  0  0  0  0  0  0  0
   -1.6596   -3.8851    8.1900 C   0  0  0  0  0  0  0  0  0  0  0  0
   -1.5234   -5.1765    7.6739 C   0  0  0  0  0  0  0  0  0  0  0  0
   -1.3932   -6.2830    8.5432 C   0  0  0  0  0  0  0  0  0  0  0  0
   -1.2473   -7.6659    8.0445 C   0  0  0  0  0  0  0  0  0  0  0  0
   -2.2689   -8.2543    7.2784 C   0  0  0  0  0  0  0  0  0  0  0  0
   -2.1358   -9.5694    6.8232 C   0  0  0  0  0  0  0  0  0  0  0  0
   -0.9935  -10.3115    7.1372 C   0  0  0  0  0  0  0  0  0  0  0  0
   -0.8379  -12.0006    6.5450 S   0  0  0  0  0  0  0  0  0  0  0  0
   -1.4668  -12.7773    8.0746 C   0  0  0  0  0  0  0  0  0  0  0  0
   -2.9898  -12.7618    8.1147 C   0  0  0  0  0  0  0  0  0  0  0  0
    0.0311   -9.7282    7.8939 C   0  0  0  0  0  0  0  0  0  0  0  0
   -0.0982   -8.4106    8.3491 C   0  0  0  0  0  0  0  0  0  0  0  0
    1.1470  -10.4368    8.2016 F   0  0  0  0  0  0  0  0  0  0  0  0
   -1.4211   -6.0075    9.9246 C   0  0  0  0  0  0  0  0  0  0  0  0
   -1.3461   -7.0923   11.2061 S   0  0  0  0  0  0  0  0  0  0  0  0
   -1.5047   -5.2116    6.2665 C   0  0  0  0  0  0  0  0  0  0  0  0
   -1.6406   -3.9506    5.6852 C   0  0  0  0  0  0  0  0  0  0  0  0
   -1.7277   -2.7979    6.9147 S   0  0  0  0  0  0  0  0  0  0  0  0
   -1.6220   -3.6613    4.2333 C   0  0  0  0  0  0  0  0  0  0  0  0
   -1.1249   -4.5092    3.2550 C   0  0  0  0  0  0  0  0  0  0  0  0
   -1.1088   -3.8915    2.0954 O   0  0  0  0  0  0  0  0  0  0  0  0
   -1.5755   -2.6713    2.2594 C   0  0  0  0  0  0  0  0  0  0  0  0
   -1.6663   -1.7256    1.1905 N   0  0  0  0  0  4  0  0  0  0  0  0
   -2.1760   -0.4648    1.3988 O   0  0  0  0  0  1  0  0  0  0  0  0
   -1.2308   -2.0238    0.0594 O   0  0  0  0  0  0  0  0  0  0  0  0
   -1.9370   -2.4722    3.5799 C   0  0  0  0  0  0  0  0  0  0  0  0
   -2.5187   -1.2464    4.1651 C   0  0  0  0  0  0  0  0  0  0  0  0
   -3.6430   -1.2906    4.8850 C   0  0  0  0  0  0  0  0  0  0  0  0
   -4.1787   -0.1168    5.6036 C   0  0  0  0  0  0  0  0  0  0  0  0
   -3.5112    1.0594    5.9082 C   0  0  0  0  0  0  0  0  0  0  0  0
   -4.2895    1.8343    6.6320 O   0  0  0  0  0  0  0  0  0  0  0  0
   -5.4360    1.2223    6.8233 C   0  0  0  0  0  0  0  0  0  0  0  0
   -6.5152    1.8116    7.5568 N   0  0  0  0  0  4  0  0  0  0  0  0
   -6.3518    3.0497    8.1273 O   0  0  0  0  0  1  0  0  0  0  0  0
   -7.6021    1.2105    7.6964 O   0  0  0  0  0  0  0  0  0  0  0  0
   -5.4294   -0.0147    6.1984 C   0  0  0  0  0  0  0  0  0  0  0  0
   -6.5454   -0.9813    6.1188 C   0  0  0  0  0  0  0  0  0  0  0  0
   -7.0590   -1.4511    4.9689 C   0  0  0  0  0  0  0  0  0  0  0  0
   -6.6772   -0.9745    3.6236 C   0  0  0  0  0  0  0  0  0  0  0  0
   -6.2444    0.3071    3.2854 C   0  0  0  0  0  0  0  0  0  0  0  0
   -5.8154    0.4055    1.9569 C   0  0  0  0  0  0  0  0  0  0  0  0
   -5.1517    1.5074    1.3904 C   0  0  0  0  0  0  0  0  0  0  0  0
   -4.7433    2.6626    2.2132 C   0  0  0  0  0  0  0  0  0  0  0  0
   -3.4066    2.7842    2.6201 C   0  0  0  0  0  0  0  0  0  0  0  0
   -3.0108    3.8541    3.4230 C   0  0  0  0  0  0  0  0  0  0  0  0
   -3.9417    4.8211    3.8149 C   0  0  0  0  0  0  0  0  0  0  0  0
   -3.4116    6.1997    4.8380 S   0  0  0  0  0  0  0  0  0  0  0  0
   -3.0593    7.3269    3.4421 C   0  0  0  0  0  0  0  0  0  0  0  0
   -1.6723    7.0753    2.8651 C   0  0  0  0  0  0  0  0  0  0  0  0
   -5.2842    4.6963    3.4240 C   0  0  0  0  0  0  0  0  0  0  0  0
   -6.1986    5.6197    3.8078 F   0  0  0  0  0  0  0  0  0  0  0  0
   -5.6853    3.6176    2.6256 C   0  0  0  0  0  0  0  0  0  0  0  0
   -4.6982    1.3628    0.0735 C   0  0  0  0  0  0  0  0  0  0  0  0
   -4.8636    0.1827   -0.6612 C   0  0  0  0  0  0  0  0  0  0  0  0
   -5.5364   -0.9208   -0.0950 C   0  0  0  0  0  0  0  0  0  0  0  0
   -5.6749   -2.1985   -0.8129 C   0  0  0  0  0  0  0  0  0  0  0  0
   -6.8489   -2.4921   -1.5199 C   0  0  0  0  0  0  0  0  0  0  0  0
   -6.9850   -3.7180   -2.1804 C   0  0  0  0  0  0  0  0  0  0  0  0
   -5.9480   -4.6565   -2.1395 C   0  0  0  0  0  0  0  0  0  0  0  0
   -6.1780   -6.2700   -2.8946 S   0  0  0  0  0  0  0  0  0  0  0  0
   -5.4635   -5.7863   -4.5020 C   0  0  0  0  0  0  0  0  0  0  0  0
   -5.4476   -6.9875   -5.4365 C   0  0  0  0  0  0  0  0  0  0  0  0
   -4.7669   -4.3599   -1.4467 C   0  0  0  0  0  0  0  0  0  0  0  0
   -4.6349   -3.1360   -0.7850 C   0  0  0  0  0  0  0  0  0  0  0  0
   -3.7564   -5.2628   -1.3918 F   0  0  0  0  0  0  0  0  0  0  0  0
   -5.9853   -0.7756    1.2306 C   0  0  0  0  0  0  0  0  0  0  0  0
   -6.6193   -1.9562    2.2513 S   0  0  0  0  0  0  0  0  0  0  0  0
   -4.2091    0.2124   -1.9026 C   0  0  0  0  0  0  0  0  0  0  0  0
   -3.5408    1.4175   -2.1339 C   0  0  0  0  0  0  0  0  0  0  0  0
   -3.7597    2.4379   -0.8085 S   0  0  0  0  0  0  0  0  0  0  0  0
   -2.5676    1.6789   -3.2008 C   0  0  0  0  0  0  0  0  0  0  0  0
   -1.9742    0.7121   -4.0104 C   0  0  0  0  0  0  0  0  0  0  0  0
   -0.8568    1.1979   -4.7102 C   0  0  0  0  0  0  0  0  0  0  0  0
    0.0217    0.4400   -5.5138 C   0  0  0  0  0  0  0  0  0  0  0  0
   -0.1979   -1.0042   -5.7452 C   0  0  0  0  0  0  0  0  0  0  0  0
   -0.5063   -1.4693   -7.0298 C   0  0  0  0  0  0  0  0  0  0  0  0
   -0.8507   -2.8117   -7.2285 C   0  0  0  0  0  0  0  0  0  0  0  0
   -0.8801   -3.6985   -6.1433 C   0  0  0  0  0  0  0  0  0  0  0  0
   -1.4287   -5.3906   -6.3811 S   0  0  0  0  0  0  0  0  0  0  0  0
    0.2271   -6.0612   -6.7663 C   0  0  0  0  0  0  0  0  0  0  0  0
    0.4550   -7.3422   -5.9769 C   0  0  0  0  0  0  0  0  0  0  0  0
   -0.5359   -3.2442   -4.8638 C   0  0  0  0  0  0  0  0  0  0  0  0
   -0.5585   -4.0949   -3.8055 F   0  0  0  0  0  0  0  0  0  0  0  0
   -0.1871   -1.9056   -4.6671 C   0  0  0  0  0  0  0  0  0  0  0  0
    1.1494    1.1100   -6.0271 C   0  0  0  0  0  0  0  0  0  0  0  0
    1.3925    2.4652   -5.7739 C   0  0  0  0  0  0  0  0  0  0  0  0
    0.4886    3.2306   -5.0126 C   0  0  0  0  0  0  0  0  0  0  0  0
    0.7090    4.6662   -4.7546 C   0  0  0  0  0  0  0  0  0  0  0  0
    1.0100    5.1211   -3.4596 C   0  0  0  0  0  0  0  0  0  0  0  0
    1.2072    6.4833   -3.2248 C   0  0  0  0  0  0  0  0  0  0  0  0
    1.0896    7.4049   -4.2713 C   0  0  0  0  0  0  0  0  0  0  0  0
    1.3479    9.1528   -3.9503 S   0  0  0  0  0  0  0  0  0  0  0  0
   -0.4193    9.5375   -3.6762 C   0  0  0  0  0  0  0  0  0  0  0  0
   -0.8426    9.1864   -2.2539 C   0  0  0  0  0  0  0  0  0  0  0  0
    0.8008    6.9543   -5.5655 C   0  0  0  0  0  0  0  0  0  0  0  0
    0.6082    5.5912   -5.8066 C   0  0  0  0  0  0  0  0  0  0  0  0
    0.6982    7.8360   -6.5944 F   0  0  0  0  0  0  0  0  0  0  0  0
   -0.6146    2.5545   -4.4781 C   0  0  0  0  0  0  0  0  0  0  0  0
   -1.7532    3.1434   -3.3921 S   0  0  0  0  0  0  0  0  0  0  0  0
    2.6427    2.8999   -6.2267 C   0  0  0  0  0  0  0  0  0  0  0  0
    3.3836    1.8889   -6.8345 C   0  0  0  0  0  0  0  0  0  0  0  0
    2.4845    0.4569   -6.8273 S   0  0  0  0  0  0  0  0  0  0  0  0
    4.8125    2.0004   -7.1552 C   0  0  0  0  0  0  0  0  0  0  0  0
    5.5616    1.1458   -7.9660 C   0  0  0  0  0  0  0  0  0  0  0  0
    6.9353    1.4562   -7.9614 C   0  0  0  0  0  0  0  0  0  0  0  0
    7.9528    0.7855   -8.6727 C   0  0  0  0  0  0  0  0  0  0  0  0
    7.6652   -0.3208   -9.6078 C   0  0  0  0  0  0  0  0  0  0  0  0
    7.9496   -0.1715  -10.9743 C   0  0  0  0  0  0  0  0  0  0  0  0
    7.7438   -1.2362  -11.8550 C   0  0  0  0  0  0  0  0  0  0  0  0
    7.2454   -2.4578  -11.3813 C   0  0  0  0  0  0  0  0  0  0  0  0
    7.0863   -3.8482  -12.5078 S   0  0  0  0  0  0  0  0  0  0  0  0
    5.4568   -3.3573  -13.1763 C   0  0  0  0  0  0  0  0  0  0  0  0
    4.3376   -3.7042  -12.2044 C   0  0  0  0  0  0  0  0  0  0  0  0
    6.9486   -2.6046  -10.0183 C   0  0  0  0  0  0  0  0  0  0  0  0
    6.4871   -3.7866   -9.5392 F   0  0  0  0  0  0  0  0  0  0  0  0
    7.1581   -1.5404   -9.1352 C   0  0  0  0  0  0  0  0  0  0  0  0
    9.2696    1.2427   -8.4754 C   0  0  0  0  0  0  0  0  0  0  0  0
    9.5836    2.3065   -7.6245 C   0  0  0  0  0  0  0  0  0  0  0  0
    8.5652    2.9949   -6.9362 C   0  0  0  0  0  0  0  0  0  0  0  0
    8.8496    4.1079   -6.0022 C   0  0  0  0  0  0  0  0  0  0  0  0
    8.3355    5.3890   -6.2513 C   0  0  0  0  0  0  0  0  0  0  0  0
    8.5370    6.4190   -5.3280 C   0  0  0  0  0  0  0  0  0  0  0  0
    9.2437    6.1760   -4.1431 C   0  0  0  0  0  0  0  0  0  0  0  0
    9.5091    7.5086   -2.9695 S   0  0  0  0  0  0  0  0  0  0  0  0
    8.0078    7.1719   -1.9836 C   0  0  0  0  0  0  0  0  0  0  0  0
    6.8224    7.9655   -2.5189 C   0  0  0  0  0  0  0  0  0  0  0  0
    9.7760    4.9027   -3.9000 C   0  0  0  0  0  0  0  0  0  0  0  0
    9.5745    3.8711   -4.8221 C   0  0  0  0  0  0  0  0  0  0  0  0
   10.4648    4.6540   -2.7568 F   0  0  0  0  0  0  0  0  0  0  0  0
    7.2504    2.5423   -7.1380 C   0  0  0  0  0  0  0  0  0  0  0  0
    5.8444    3.1240   -6.4332 S   0  0  0  0  0  0  0  0  0  0  0  0
   10.9584    2.5864   -7.5741 C   0  0  0  0  0  0  0  0  0  0  0  0
   11.7227    1.7360   -8.3691 C   0  0  0  0  0  0  0  0  0  0  0  0
   10.6947    0.6433   -9.1403 S   0  0  0  0  0  0  0  0  0  0  0  0
   -1.5422   -6.1389   13.4882 H   0  0  0  0  0  0  0  0  0  0  0  0
   -1.7788   -3.7814   12.4249 H   0  0  0  0  0  0  0  0  0  0  0  0
    0.0100   -2.2133   11.1612 H   0  0  0  0  0  0  0  0  0  0  0  0
   -0.2232    0.1154   11.9293 H   0  0  0  0  0  0  0  0  0  0  0  0
   -0.2473    2.2563   10.0736 H   0  0  0  0  0  0  0  0  0  0  0  0
   -0.9194    3.8796   10.4469 H   0  0  0  0  0  0  0  0  0  0  0  0
   -2.9013    3.3537    8.9156 H   0  0  0  0  0  0  0  0  0  0  0  0
   -1.3013    3.4562    8.0845 H   0  0  0  0  0  0  0  0  0  0  0  0
   -2.0264    1.8463    8.4181 H   0  0  0  0  0  0  0  0  0  0  0  0
   -3.7465   -1.8939    9.0690 H   0  0  0  0  0  0  0  0  0  0  0  0
   -3.1643   -7.6968    7.0397 H   0  0  0  0  0  0  0  0  0  0  0  0
   -2.9277  -10.0117    6.2327 H   0  0  0  0  0  0  0  0  0  0  0  0
   -1.0575  -12.2658    8.9716 H   0  0  0  0  0  0  0  0  0  0  0  0
   -1.1185  -13.8318    8.0961 H   0  0  0  0  0  0  0  0  0  0  0  0
   -3.4037  -13.2537    7.2092 H   0  0  0  0  0  0  0  0  0  0  0  0
   -3.3396  -13.3143    9.0117 H   0  0  0  0  0  0  0  0  0  0  0  0
   -3.3664  -11.7204    8.1750 H   0  0  0  0  0  0  0  0  0  0  0  0
    0.6993   -7.9687    8.9348 H   0  0  0  0  0  0  0  0  0  0  0  0
   -1.3928   -6.1201    5.6907 H   0  0  0  0  0  0  0  0  0  0  0  0
   -0.7722   -5.5194    3.4034 H   0  0  0  0  0  0  0  0  0  0  0  0
   -2.0196   -0.3039    3.9840 H   0  0  0  0  0  0  0  0  0  0  0  0
   -4.1716   -2.2312    4.9867 H   0  0  0  0  0  0  0  0  0  0  0  0
   -2.5016    1.3210    5.6239 H   0  0  0  0  0  0  0  0  0  0  0  0
   -6.9572   -1.3446    7.0501 H   0  0  0  0  0  0  0  0  0  0  0  0
   -7.7900   -2.2462    5.0240 H   0  0  0  0  0  0  0  0  0  0  0  0
   -6.2082    1.1324    3.9800 H   0  0  0  0  0  0  0  0  0  0  0  0
   -2.6753    2.0456    2.3193 H   0  0  0  0  0  0  0  0  0  0  0  0
   -1.9776    3.9310    3.7340 H   0  0  0  0  0  0  0  0  0  0  0  0
   -3.8282    7.2188    2.6482 H   0  0  0  0  0  0  0  0  0  0  0  0
   -3.1030    8.3708    3.8182 H   0  0  0  0  0  0  0  0  0  0  0  0
   -1.6174    6.0689    2.4046 H   0  0  0  0  0  0  0  0  0  0  0  0
   -1.4561    7.8293    2.0801 H   0  0  0  0  0  0  0  0  0  0  0  0
   -0.9026    7.1625    3.6607 H   0  0  0  0  0  0  0  0  0  0  0  0
   -6.7218    3.5239    2.3305 H   0  0  0  0  0  0  0  0  0  0  0  0
   -7.6615   -1.7757   -1.5526 H   0  0  0  0  0  0  0  0  0  0  0  0
   -7.9026   -3.9438   -2.7062 H   0  0  0  0  0  0  0  0  0  0  0  0
   -6.0753   -4.9759   -4.9537 H   0  0  0  0  0  0  0  0  0  0  0  0
   -4.4257   -5.4228   -4.3536 H   0  0  0  0  0  0  0  0  0  0  0  0
   -5.0337   -6.6926   -6.4240 H   0  0  0  0  0  0  0  0  0  0  0  0
   -4.8118   -7.7936   -5.0113 H   0  0  0  0  0  0  0  0  0  0  0  0
   -6.4788   -7.3757   -5.5833 H   0  0  0  0  0  0  0  0  0  0  0  0
   -3.7289   -2.9250   -0.2334 H   0  0  0  0  0  0  0  0  0  0  0  0
   -4.1697   -0.6310   -2.5806 H   0  0  0  0  0  0  0  0  0  0  0  0
   -2.2907   -0.3203   -4.0252 H   0  0  0  0  0  0  0  0  0  0  0  0
   -0.5164   -0.7869   -7.8700 H   0  0  0  0  0  0  0  0  0  0  0  0
   -1.1158   -3.1527   -8.2187 H   0  0  0  0  0  0  0  0  0  0  0  0
    1.0380   -5.3417   -6.5218 H   0  0  0  0  0  0  0  0  0  0  0  0
    0.2730   -6.2839   -7.8537 H   0  0  0  0  0  0  0  0  0  0  0  0
   -0.3463   -8.0780   -6.1973 H   0  0  0  0  0  0  0  0  0  0  0  0
    1.4308   -7.7906   -6.2595 H   0  0  0  0  0  0  0  0  0  0  0  0
    0.4632   -7.1205   -4.8889 H   0  0  0  0  0  0  0  0  0  0  0  0
    0.0527   -1.5590   -3.6686 H   0  0  0  0  0  0  0  0  0  0  0  0
    1.0984    4.4186   -2.6425 H   0  0  0  0  0  0  0  0  0  0  0  0
    1.4456    6.8236   -2.2248 H   0  0  0  0  0  0  0  0  0  0  0  0
   -1.0583    9.0000   -4.4084 H   0  0  0  0  0  0  0  0  0  0  0  0
   -0.5627   10.6279   -3.8340 H   0  0  0  0  0  0  0  0  0  0  0  0
   -0.1724    9.6789   -1.5173 H   0  0  0  0  0  0  0  0  0  0  0  0
   -0.8207    8.0888   -2.1031 H   0  0  0  0  0  0  0  0  0  0  0  0
   -1.8833    9.5405   -2.0800 H   0  0  0  0  0  0  0  0  0  0  0  0
    0.3778    5.2518   -6.8105 H   0  0  0  0  0  0  0  0  0  0  0  0
    3.0286    3.8974   -6.0545 H   0  0  0  0  0  0  0  0  0  0  0  0
    5.1259    0.3287   -8.5288 H   0  0  0  0  0  0  0  0  0  0  0  0
    8.3360    0.7654  -11.3551 H   0  0  0  0  0  0  0  0  0  0  0  0
    7.9806   -1.1173  -12.9041 H   0  0  0  0  0  0  0  0  0  0  0  0
    5.4405   -2.2704  -13.4107 H   0  0  0  0  0  0  0  0  0  0  0  0
    5.2913   -3.9175  -14.1223 H   0  0  0  0  0  0  0  0  0  0  0  0
    4.3823   -3.0455  -11.3109 H   0  0  0  0  0  0  0  0  0  0  0  0
    4.4191   -4.7663  -11.8864 H   0  0  0  0  0  0  0  0  0  0  0  0
    3.3549   -3.5549  -12.7030 H   0  0  0  0  0  0  0  0  0  0  0  0
    6.9454   -1.6704   -8.0802 H   0  0  0  0  0  0  0  0  0  0  0  0
    7.7689    5.5855   -7.1537 H   0  0  0  0  0  0  0  0  0  0  0  0
    8.1357    7.4039   -5.5308 H   0  0  0  0  0  0  0  0  0  0  0  0
    7.7630    6.0874   -1.9698 H   0  0  0  0  0  0  0  0  0  0  0  0
    8.2031    7.4878   -0.9364 H   0  0  0  0  0  0  0  0  0  0  0  0
    6.5680    7.6367   -3.5471 H   0  0  0  0  0  0  0  0  0  0  0  0
    5.9396    7.8037   -1.8647 H   0  0  0  0  0  0  0  0  0  0  0  0
    7.0639    9.0499   -2.5291 H   0  0  0  0  0  0  0  0  0  0  0  0
    9.9651    2.8834   -4.6126 H   0  0  0  0  0  0  0  0  0  0  0  0
   11.3972    3.3780   -6.9836 H   0  0  0  0  0  0  0  0  0  0  0  0
   12.7990    1.7702   -8.4769 H   0  0  0  0  0  0  0  0  0  0  0  0
  1  2  2  0
  2  3  1  0
  3  4  2  0
  4  5  1  0
  5  6  2  0
  6  7  1  0
  7  8  2  0
  8  9  1  0
  9 10  1  0
 10 11  1  0
  8 12  1  0
 12 13  1  0
 12 14  2  0
  4 15  1  0
 15 16  2  0
 16 17  1  0
 17 18  1  0
 18 19  2  0
 19 20  1  0
 20 21  2  0
 21 22  1  0
 22 23  1  0
 23 24  1  0
 21 25  1  0
 25 26  2  0
 25 27  1  0
 17 28  2  0
 28 29  1  0
 16 30  1  0
 30 31  2  0
 31 32  1  0
 31 33  1  0
 33 34  2  0
 34 35  1  0
 35 36  1  0
 36 37  1  0
 37 38  1  0
 37 39  2  0
 36 40  2  0
 40 41  1  0
 41 42  2  3
 42 43  1  0
 43 44  2  0
 44 45  1  0
 45 46  1  0
 46 47  1  0
 47 48  1  0
 47 49  2  0
 46 50  2  0
 50 51  1  0
 51 52  2  3
 52 53  1  0
 53 54  2  0
 54 55  1  0
 55 56  2  0
 56 57  1  0
 57 58  2  0
 58 59  1  0
 59 60  2  0
 60 61  1  0
 61 62  1  0
 62 63  1  0
 60 64  1  0
 64 65  1  0
 64 66  2  0
 56 67  1  0
 67 68  2  0
 68 69  1  0
 69 70  1  0
 70 71  2  0
 71 72  1  0
 72 73  2  0
 73 74  1  0
 74 75  1  0
 75 76  1  0
 73 77  1  0
 77 78  2  0
 77 79  1  0
 69 80  2  0
 80 81  1  0
 68 82  1  0
 82 83  2  0
 83 84  1  0
 83 85  1  0
 85 86  2  0
 86 87  1  0
 87 88  2  0
 88 89  1  0
 89 90  2  0
 90 91  1  0
 91 92  2  0
 92 93  1  0
 93 94  1  0
 94 95  1  0
 92 96  1  0
 96 97  1  0
 96 98  2  0
 88 99  1  0
 99100  2  0
100101  1  0
101102  1  0
102103  2  0
103104  1  0
104105  2  0
105106  1  0
106107  1  0
107108  1  0
105109  1  0
109110  2  0
109111  1  0
101112  2  0
112113  1  0
100114  1  0
114115  2  0
115116  1  0
115117  1  0
117118  2  0
118119  1  0
119120  2  0
120121  1  0
121122  2  0
122123  1  0
123124  2  0
124125  1  0
125126  1  0
126127  1  0
124128  1  0
128129  1  0
128130  2  0
120131  1  0
131132  2  0
132133  1  0
133134  1  0
134135  2  0
135136  1  0
136137  2  0
137138  1  0
138139  1  0
139140  1  0
137141  1  0
141142  2  0
141143  1  0
133144  2  0
144145  1  0
132146  1  0
146147  2  0
147148  1  0
 29  1  1  0
 40 33  1  0
 50 43  1  0
 81 53  1  0
113 85  1  0
145117  1  0
 28  3  1  0
 80 55  1  0
112 87  1  0
144119  1  0
 14  5  1  0
 32 15  1  0
 66 57  1  0
 84 67  1  0
 98 89  1  0
116 99  1  0
130121  1  0
148131  1  0
 26 18  1  0
 78 70  1  0
110102  1  0
142134  1  0
  1149  1  0
  2150  1  0
  6151  1  0
  7152  1  0
 10153  1  0
 10154  1  0
 11155  1  0
 11156  1  0
 11157  1  0
 14158  1  0
 19159  1  0
 20160  1  0
 23161  1  0
 23162  1  0
 24163  1  0
 24164  1  0
 24165  1  0
 26166  1  0
 30167  1  0
 34168  1  0
 41169  1  0
 42170  1  0
 44171  1  0
 51172  1  0
 52173  1  0
 54174  1  0
 58175  1  0
 59176  1  0
 62177  1  0
 62178  1  0
 63179  1  0
 63180  1  0
 63181  1  0
 66182  1  0
 71183  1  0
 72184  1  0
 75185  1  0
 75186  1  0
 76187  1  0
 76188  1  0
 76189  1  0
 78190  1  0
 82191  1  0
 86192  1  0
 90193  1  0
 91194  1  0
 94195  1  0
 94196  1  0
 95197  1  0
 95198  1  0
 95199  1  0
 98200  1  0
103201  1  0
104202  1  0
107203  1  0
107204  1  0
108205  1  0
108206  1  0
108207  1  0
110208  1  0
114209  1  0
118210  1  0
122211  1  0
123212  1  0
126213  1  0
126214  1  0
127215  1  0
127216  1  0
127217  1  0
130218  1  0
135219  1  0
136220  1  0
139221  1  0
139222  1  0
140223  1  0
140224  1  0
140225  1  0
142226  1  0
146227  1  0
147228  1  0
M  CHG  4  37   1  38  -1  47   1  48  -1
M  END

