
     RDKit          3D

194211  0  0  0  0  0  0  0  0999 V2000
    4.7811   -7.5868   10.1617 C   0  0  0  0  0  0  0  0  0  0  0  0
    4.7991   -6.2581    9.7502 C   0  0  0  0  0  0  0  0  0  0  0  0
    3.7647   -5.9419    8.8524 C   0  0  0  0  0  0  0  0  0  0  0  0
    3.5198   -4.6830    8.2634 C   0  0  0  0  0  0  0  0  0  0  0  0
    4.4682   -3.5541    8.3915 C   0  0  0  0  0  0  0  0  0  0  0  0
    5.8023   -3.7142    7.9875 C   0  0  0  0  0  0  0  0  0  0  0  0
    6.6739   -2.6236    7.9854 C   0  0  0  0  0  0  0  0  0  0  0  0
    6.2172   -1.3595    8.3691 C   0  0  0  0  0  0  0  0  0  0  0  0
    7.3204    0.0514    8.2473 S   0  0  0  0  0  0  0  0  0  0  0  0
    6.8926    0.3801    6.5015 C   0  0  0  0  0  0  0  0  0  0  0  0
    7.8715    1.3751    5.8993 C   0  0  0  0  0  0  0  0  0  0  0  0
    4.8948   -1.1972    8.8056 C   0  0  0  0  0  0  0  0  0  0  0  0
    4.4414    0.0230    9.1843 F   0  0  0  0  0  0  0  0  0  0  0  0
    4.0260   -2.2927    8.8197 C   0  0  0  0  0  0  0  0  0  0  0  0
    2.3991   -4.5888    7.4177 C   0  0  0  0  0  0  0  0  0  0  0  0
    1.5845   -5.6845    7.1111 C   0  0  0  0  0  0  0  0  0  0  0  0
    1.8348   -6.9452    7.6931 C   0  0  0  0  0  0  0  0  0  0  0  0
    1.0110   -8.1284    7.3700 C   0  0  0  0  0  0  0  0  0  0  0  0
   -0.3659   -8.1297    7.6436 C   0  0  0  0  0  0  0  0  0  0  0  0
   -1.1531   -9.2305    7.2933 C   0  0  0  0  0  0  0  0  0  0  0  0
   -0.5725  -10.3362    6.6635 C   0  0  0  0  0  0  0  0  0  0  0  0
   -1.6011  -11.7153    6.1521 S   0  0  0  0  0  0  0  0  0  0  0  0
   -1.9198  -11.0676    4.4682 C   0  0  0  0  0  0  0  0  0  0  0  0
   -1.5664  -12.1257    3.4322 C   0  0  0  0  0  0  0  0  0  0  0  0
    0.8053  -10.3501    6.4092 C   0  0  0  0  0  0  0  0  0  0  0  0
    1.5923   -9.2494    6.7594 C   0  0  0  0  0  0  0  0  0  0  0  0
    1.3810  -11.4143    5.7926 F   0  0  0  0  0  0  0  0  0  0  0  0
    2.9347   -7.0323    8.5681 C   0  0  0  0  0  0  0  0  0  0  0  0
    3.4853   -8.3729    9.4238 S   0  0  0  0  0  0  0  0  0  0  0  0
    0.6239   -5.3992    6.1253 C   0  0  0  0  0  0  0  0  0  0  0  0
    0.6676   -4.0784    5.6901 C   0  0  0  0  0  0  0  0  0  0  0  0
    1.9091   -3.2706    6.4937 S   0  0  0  0  0  0  0  0  0  0  0  0
   -0.0524   -3.5368    4.5336 C   0  0  0  0  0  0  0  0  0  0  0  0
   -0.1986   -2.1804    4.2496 C   0  0  0  0  0  0  0  0  0  0  0  0
   -0.6503   -1.9365    2.9418 C   0  0  0  0  0  0  0  0  0  0  0  0
   -0.8298   -0.6729    2.3344 C   0  0  0  0  0  0  0  0  0  0  0  0
   -0.6587    0.6032    3.0691 C   0  0  0  0  0  0  0  0  0  0  0  0
    0.5476    0.9063    3.7216 C   0  0  0  0  0  0  0  0  0  0  0  0
    0.6819    2.1012    4.4344 C   0  0  0  0  0  0  0  0  0  0  0  0
   -0.3746    3.0189    4.4753 C   0  0  0  0  0  0  0  0  0  0  0  0
   -0.1962    4.5486    5.4040 S   0  0  0  0  0  0  0  0  0  0  0  0
   -1.0772    3.9443    6.8883 C   0  0  0  0  0  0  0  0  0  0  0  0
   -0.1569    3.1169    7.7753 C   0  0  0  0  0  0  0  0  0  0  0  0
   -1.5603    2.7466    3.7818 C   0  0  0  0  0  0  0  0  0  0  0  0
   -2.5789    3.6429    3.7875 F   0  0  0  0  0  0  0  0  0  0  0  0
   -1.7061    1.5394    3.0959 C   0  0  0  0  0  0  0  0  0  0  0  0
   -1.1703   -0.6766    0.9686 C   0  0  0  0  0  0  0  0  0  0  0  0
   -1.3614   -1.8529    0.2364 C   0  0  0  0  0  0  0  0  0  0  0  0
   -1.2376   -3.1127    0.8552 C   0  0  0  0  0  0  0  0  0  0  0  0
   -1.3880   -4.3704    0.0895 C   0  0  0  0  0  0  0  0  0  0  0  0
   -2.5949   -4.6600   -0.5626 C   0  0  0  0  0  0  0  0  0  0  0  0
   -2.7173   -5.8136   -1.3422 C   0  0  0  0  0  0  0  0  0  0  0  0
   -1.6350   -6.6906   -1.4744 C   0  0  0  0  0  0  0  0  0  0  0  0
   -1.7991   -8.1659   -2.4858 S   0  0  0  0  0  0  0  0  0  0  0  0
   -1.1076   -7.4108   -4.0019 C   0  0  0  0  0  0  0  0  0  0  0  0
   -2.1812   -6.6506   -4.7713 C   0  0  0  0  0  0  0  0  0  0  0  0
   -0.4343   -6.4207   -0.8051 C   0  0  0  0  0  0  0  0  0  0  0  0
   -0.3088   -5.2619   -0.0333 C   0  0  0  0  0  0  0  0  0  0  0  0
    0.6187   -7.2697   -0.9138 F   0  0  0  0  0  0  0  0  0  0  0  0
   -0.8702   -3.1142    2.2132 C   0  0  0  0  0  0  0  0  0  0  0  0
   -0.5163   -4.4417    3.1881 S   0  0  0  0  0  0  0  0  0  0  0  0
   -1.5607   -1.6227   -1.1337 C   0  0  0  0  0  0  0  0  0  0  0  0
   -1.5003   -0.2742   -1.4831 C   0  0  0  0  0  0  0  0  0  0  0  0
   -1.2313    0.6365   -0.0848 S   0  0  0  0  0  0  0  0  0  0  0  0
   -1.5080    0.2466   -2.8635 C   0  0  0  0  0  0  0  0  0  0  0  0
   -1.2828    1.8487   -3.1416 S   0  0  0  0  0  0  0  0  0  0  0  0
   -1.4279   -0.7064   -4.0176 C   0  0  0  0  0  3  0  0  0  0  0  0
   -0.0061   -1.0620   -4.2910 C   0  0  0  0  0  0  0  0  0  0  0  0
    0.7522   -2.3599   -3.6996 S   0  0  0  0  0  3  0  0  0  0  0  0
    2.3194   -1.9451   -4.4307 C   0  0  0  0  0  0  0  0  0  0  0  0
    2.1570   -0.8032   -5.1021 C   0  0  0  0  0  0  0  0  0  0  0  0
    0.8568   -0.2744   -5.0463 O   0  0  0  0  0  0  0  0  0  0  0  0
    3.2454   -0.1431   -5.8343 C   0  0  0  0  0  0  0  0  0  0  0  0
    3.0102    0.9245   -6.6065 C   0  0  0  0  0  0  0  0  0  0  0  0
    4.0599    1.6207   -7.3831 C   0  0  0  0  0  0  0  0  0  0  0  0
    5.6552    1.2642   -7.2294 S   0  0  0  0  0  0  0  0  0  0  0  0
    3.6724    2.6928   -8.3467 C   0  0  0  0  0  3  0  0  0  0  0  0
    2.9478    2.1251   -9.5198 C   0  0  0  0  0  0  0  0  0  0  0  0
    3.6689    1.3049  -10.7094 S   0  0  0  0  0  3  0  0  0  0  0  0
    2.1743    1.0983  -11.6396 C   0  0  0  0  0  0  0  0  0  0  0  0
    1.1826    1.6919  -10.9702 C   0  0  0  0  0  0  0  0  0  0  0  0
    1.5780    2.2585   -9.7486 O   0  0  0  0  0  0  0  0  0  0  0  0
   -0.1795    1.7653  -11.5308 C   0  0  0  0  0  0  0  0  0  0  0  0
   -1.3231    2.0331  -10.8827 C   0  0  0  0  0  0  0  0  0  0  0  0
   -1.5198    2.2822   -9.4442 C   0  0  0  0  0  0  0  0  0  0  0  0
   -0.9386    3.2893   -8.6659 C   0  0  0  0  0  0  0  0  0  0  0  0
   -1.6048    3.4856   -7.4354 C   0  0  0  0  0  0  0  0  0  0  0  0
   -1.3075    4.4688   -6.4677 C   0  0  0  0  0  0  0  0  0  0  0  0
   -0.0833    5.2918   -6.5199 C   0  0  0  0  0  0  0  0  0  0  0  0
    1.1540    4.6986   -6.2391 C   0  0  0  0  0  0  0  0  0  0  0  0
    2.3036    5.4861   -6.1312 C   0  0  0  0  0  0  0  0  0  0  0  0
    2.2238    6.8742   -6.2868 C   0  0  0  0  0  0  0  0  0  0  0  0
    3.7071    7.8782   -6.1122 S   0  0  0  0  0  0  0  0  0  0  0  0
    3.4984    8.1797   -4.3193 C   0  0  0  0  0  0  0  0  0  0  0  0
    4.0370    7.0146   -3.4978 C   0  0  0  0  0  0  0  0  0  0  0  0
    0.9904    7.4701   -6.5889 C   0  0  0  0  0  0  0  0  0  0  0  0
    0.8992    8.8163   -6.7468 F   0  0  0  0  0  0  0  0  0  0  0  0
   -0.1600    6.6816   -6.7009 C   0  0  0  0  0  0  0  0  0  0  0  0
   -2.1812    4.5751   -5.3728 C   0  0  0  0  0  0  0  0  0  0  0  0
   -3.2827    3.7313   -5.1996 C   0  0  0  0  0  0  0  0  0  0  0  0
   -3.5835    2.7373   -6.1605 C   0  0  0  0  0  0  0  0  0  0  0  0
   -4.7683    1.8507   -6.0275 C   0  0  0  0  0  0  0  0  0  0  0  0
   -4.6251    0.4554   -6.0930 C   0  0  0  0  0  0  0  0  0  0  0  0
   -5.7257   -0.3801   -5.8916 C   0  0  0  0  0  0  0  0  0  0  0  0
   -6.9835    0.1699   -5.6203 C   0  0  0  0  0  0  0  0  0  0  0  0
   -8.3776   -0.9138   -5.2900 S   0  0  0  0  0  0  0  0  0  0  0  0
   -7.9602   -1.1935   -3.5294 C   0  0  0  0  0  0  0  0  0  0  0  0
   -8.2663    0.0320   -2.6759 C   0  0  0  0  0  0  0  0  0  0  0  0
   -7.1485    1.5617   -5.6131 C   0  0  0  0  0  0  0  0  0  0  0  0
   -6.0467    2.3970   -5.8219 C   0  0  0  0  0  0  0  0  0  0  0  0
   -8.3706    2.1068   -5.3927 F   0  0  0  0  0  0  0  0  0  0  0  0
   -2.7154    2.6501   -7.2669 C   0  0  0  0  0  0  0  0  0  0  0  0
   -2.8720    1.6874   -8.6331 S   0  0  0  0  0  0  0  0  0  0  0  0
   -3.9775    3.9805   -4.0005 C   0  0  0  0  0  0  0  0  0  0  0  0
   -3.4521    5.0482   -3.2687 C   0  0  0  0  0  0  0  0  0  0  0  0
   -2.0974    5.6483   -4.0794 S   0  0  0  0  0  0  0  0  0  0  0  0
   -4.0133    5.6003   -2.0168 C   0  0  0  0  0  0  0  0  0  0  0  0
   -4.9908    4.6560   -1.0898 S   0  0  0  0  0  0  0  0  0  0  0  0
   -3.9957    7.0942   -1.8057 C   0  0  0  0  0  3  0  0  0  0  0  0
   -4.0386    7.4888   -0.3676 C   0  0  0  0  0  0  0  0  0  0  0  0
   -5.2922    8.2319    0.3302 S   0  0  0  0  0  3  0  0  0  0  0  0
   -4.5196    8.3223    1.9281 C   0  0  0  0  0  0  0  0  0  0  0  0
   -3.3117    7.7623    1.8241 C   0  0  0  0  0  0  0  0  0  0  0  0
   -3.0039    7.2776    0.5394 O   0  0  0  0  0  0  0  0  0  0  0  0
   -2.3762    7.6741    2.9556 C   0  0  0  0  0  0  0  0  0  0  0  0
   -1.1795    7.1072    2.8314 C   0  0  0  0  0  0  0  0  0  0  0  0
    5.4841   -8.0412   10.8462 H   0  0  0  0  0  0  0  0  0  0  0  0
    5.5353   -5.5510   10.1029 H   0  0  0  0  0  0  0  0  0  0  0  0
    6.1586   -4.6752    7.6293 H   0  0  0  0  0  0  0  0  0  0  0  0
    7.6932   -2.7545    7.6434 H   0  0  0  0  0  0  0  0  0  0  0  0
    5.8622    0.7918    6.4451 H   0  0  0  0  0  0  0  0  0  0  0  0
    6.9368   -0.5608    5.9130 H   0  0  0  0  0  0  0  0  0  0  0  0
    8.9084    0.9803    5.9644 H   0  0  0  0  0  0  0  0  0  0  0  0
    7.8142    2.3425    6.4404 H   0  0  0  0  0  0  0  0  0  0  0  0
    7.6212    1.5455    4.8309 H   0  0  0  0  0  0  0  0  0  0  0  0
    2.9989   -2.1527    9.1383 H   0  0  0  0  0  0  0  0  0  0  0  0
   -0.8326   -7.2740    8.1209 H   0  0  0  0  0  0  0  0  0  0  0  0
   -2.2160   -9.2164    7.4976 H   0  0  0  0  0  0  0  0  0  0  0  0
   -2.9962  -10.8142    4.3845 H   0  0  0  0  0  0  0  0  0  0  0  0
   -1.3322  -10.1485    4.2542 H   0  0  0  0  0  0  0  0  0  0  0  0
   -0.4945  -12.4002    3.5247 H   0  0  0  0  0  0  0  0  0  0  0  0
   -2.1892  -13.0322    3.5828 H   0  0  0  0  0  0  0  0  0  0  0  0
   -1.7452  -11.7267    2.4117 H   0  0  0  0  0  0  0  0  0  0  0  0
    2.6526   -9.2596    6.5322 H   0  0  0  0  0  0  0  0  0  0  0  0
   -0.0461   -6.1374    5.7059 H   0  0  0  0  0  0  0  0  0  0  0  0
    0.0614   -1.4068    4.9606 H   0  0  0  0  0  0  0  0  0  0  0  0
    1.3808    0.2155    3.6838 H   0  0  0  0  0  0  0  0  0  0  0  0
    1.6093    2.3144    4.9529 H   0  0  0  0  0  0  0  0  0  0  0  0
   -1.9700    3.3472    6.6035 H   0  0  0  0  0  0  0  0  0  0  0  0
   -1.4298    4.8254    7.4633 H   0  0  0  0  0  0  0  0  0  0  0  0
   -0.6968    2.8256    8.7002 H   0  0  0  0  0  0  0  0  0  0  0  0
    0.1643    2.1943    7.2497 H   0  0  0  0  0  0  0  0  0  0  0  0
    0.7375    3.7108    8.0559 H   0  0  0  0  0  0  0  0  0  0  0  0
   -2.6401    1.3310    2.5867 H   0  0  0  0  0  0  0  0  0  0  0  0
   -3.4383   -3.9844   -0.4803 H   0  0  0  0  0  0  0  0  0  0  0  0
   -3.6508   -6.0200   -1.8500 H   0  0  0  0  0  0  0  0  0  0  0  0
   -0.7178   -8.2268   -4.6482 H   0  0  0  0  0  0  0  0  0  0  0  0
   -0.2611   -6.7334   -3.7613 H   0  0  0  0  0  0  0  0  0  0  0  0
   -1.7644   -6.2906   -5.7358 H   0  0  0  0  0  0  0  0  0  0  0  0
   -2.5309   -5.7727   -4.1893 H   0  0  0  0  0  0  0  0  0  0  0  0
   -3.0437   -7.3180   -4.9848 H   0  0  0  0  0  0  0  0  0  0  0  0
    0.6362   -5.0489    0.4549 H   0  0  0  0  0  0  0  0  0  0  0  0
   -1.6805   -2.4144   -1.8620 H   0  0  0  0  0  0  0  0  0  0  0  0
   -1.8732   -0.2577   -4.9272 H   0  0  0  0  0  0  0  0  0  0  0  0
    3.2398   -2.5070   -4.3473 H   0  0  0  0  0  0  0  0  0  0  0  0
    4.2419   -0.5607   -5.7507 H   0  0  0  0  0  0  0  0  0  0  0  0
    1.9965    1.2941   -6.7026 H   0  0  0  0  0  0  0  0  0  0  0  0
    3.0382    3.4482   -7.8520 H   0  0  0  0  0  0  0  0  0  0  0  0
    2.0860    0.6143  -12.6034 H   0  0  0  0  0  0  0  0  0  0  0  0
   -0.2765    1.5111  -12.5827 H   0  0  0  0  0  0  0  0  0  0  0  0
   -2.2355    1.9485  -11.4621 H   0  0  0  0  0  0  0  0  0  0  0  0
   -0.1387    3.9251   -9.0138 H   0  0  0  0  0  0  0  0  0  0  0  0
    1.2209    3.6336   -6.0654 H   0  0  0  0  0  0  0  0  0  0  0  0
    3.2528    5.0191   -5.9015 H   0  0  0  0  0  0  0  0  0  0  0  0
    4.0737    9.0911   -4.0562 H   0  0  0  0  0  0  0  0  0  0  0  0
    2.4303    8.3639   -4.0685 H   0  0  0  0  0  0  0  0  0  0  0  0
    5.0731    6.7679   -3.8145 H   0  0  0  0  0  0  0  0  0  0  0  0
    4.0505    7.2914   -2.4215 H   0  0  0  0  0  0  0  0  0  0  0  0
    3.3908    6.1214   -3.6188 H   0  0  0  0  0  0  0  0  0  0  0  0
   -1.1140    7.1531   -6.8986 H   0  0  0  0  0  0  0  0  0  0  0  0
   -3.6584    0.0147   -6.2886 H   0  0  0  0  0  0  0  0  0  0  0  0
   -5.5970   -1.4527   -5.9289 H   0  0  0  0  0  0  0  0  0  0  0  0
   -8.5720   -2.0462   -3.1640 H   0  0  0  0  0  0  0  0  0  0  0  0
   -6.8898   -1.4728   -3.4236 H   0  0  0  0  0  0  0  0  0  0  0  0
   -9.3156    0.3591   -2.8333 H   0  0  0  0  0  0  0  0  0  0  0  0
   -7.5784    0.8655   -2.9275 H   0  0  0  0  0  0  0  0  0  0  0  0
   -8.1299   -0.2200   -1.6035 H   0  0  0  0  0  0  0  0  0  0  0  0
   -6.1888    3.4704   -5.8083 H   0  0  0  0  0  0  0  0  0  0  0  0
   -4.8351    3.4107   -3.6748 H   0  0  0  0  0  0  0  0  0  0  0  0
   -3.1064    7.5617   -2.2751 H   0  0  0  0  0  0  0  0  0  0  0  0
   -4.9378    8.7667    2.8226 H   0  0  0  0  0  0  0  0  0  0  0  0
   -2.6616    8.0897    3.9150 H   0  0  0  0  0  0  0  0  0  0  0  0
   -0.8537    6.6752    1.8946 H   0  0  0  0  0  0  0  0  0  0  0  0
   -0.5112    7.0687    3.6827 H   0  0  0  0  0  0  0  0  0  0  0  0
  1  2  2  0
  2  3  1  0
  3  4  2  0
  4  5  1  0
  5  6  2  0
  6  7  1  0
  7  8  2  0
  8  9  1  0
  9 10  1  0
 10 11  1  0
  8 12  1  0
 12 13  1  0
 12 14  2  0
  4 15  1  0
 15 16  2  0
 16 17  1  0
 17 18  1  0
 18 19  2  0
 19 20  1  0
 20 21  2  0
 21 22  1  0
 22 23  1  0
 23 24  1  0
 21 25  1  0
 25 26  2  0
 25 27  1  0
 17 28  2  0
 28 29  1  0
 16 30  1  0
 30 31  2  0
 31 32  1  0
 31 33  1  0
 33 34  2  0
 34 35  1  0
 35 36  2  0
 36 37  1  0
 37 38  2  0
 38 39  1  0
 39 40  2  0
 40 41  1  0
 41 42  1  0
 42 43  1  0
 40 44  1  0
 44 45  1  0
 44 46  2  0
 36 47  1  0
 47 48  2  0
 48 49  1  0
 49 50  1  0
 50 51  2  0
 51 52  1  0
 52 53  2  0
 53 54  1  0
 54 55  1  0
 55 56  1  0
 53 57  1  0
 57 58  2  0
 57 59  1  0
 49 60  2  0
 60 61  1  0
 48 62  1  0
 62 63  2  0
 63 64  1  0
 63 65  1  0
 65 66  2  0
 65 67  1  0
 67 68  1  0
 68 69  2  0
 69 70  1  0
 70 71  2  0
 71 72  1  0
 71 73  1  0
 73 74  2  3
 74 75  1  0
 75 76  2  0
 75 77  1  0
 77 78  1  0
 78 79  2  0
 79 80  1  0
 80 81  2  0
 81 82  1  0
 81 83  1  0
 83 84  2  3
 84 85  1  0
 85 86  2  0
 86 87  1  0
 87 88  2  0
 88 89  1  0
 89 90  2  0
 90 91  1  0
 91 92  2  0
 92 93  1  0
 93 94  1  0
 94 95  1  0
 92 96  1  0
 96 97  1  0
 96 98  2  0
 88 99  1  0
 99100  2  0
100101  1  0
101102  1  0
102103  2  0
103104  1  0
104105  2  0
105106  1  0
106107  1  0
107108  1  0
105109  1  0
109110  2  0
109111  1  0
101112  2  0
112113  1  0
100114  1  0
114115  2  0
115116  1  0
115117  1  0
117118  2  0
117119  1  0
119120  1  0
120121  2  0
121122  1  0
122123  2  0
123124  1  0
123125  1  0
125126  2  3
 29  1  1  0
 61 33  1  0
 72 68  1  0
 82 78  1  0
113 85  1  0
124120  1  0
 28  3  1  0
 60 35  1  0
112 87  1  0
 14  5  1  0
 32 15  1  0
 46 37  1  0
 64 47  1  0
 98 89  1  0
116 99  1  0
 26 18  1  0
 58 50  1  0
110102  1  0
  1127  1  0
  2128  1  0
  6129  1  0
  7130  1  0
 10131  1  0
 10132  1  0
 11133  1  0
 11134  1  0
 11135  1  0
 14136  1  0
 19137  1  0
 20138  1  0
 23139  1  0
 23140  1  0
 24141  1  0
 24142  1  0
 24143  1  0
 26144  1  0
 30145  1  0
 34146  1  0
 38147  1  0
 39148  1  0
 42149  1  0
 42150  1  0
 43151  1  0
 43152  1  0
 43153  1  0
 46154  1  0
 51155  1  0
 52156  1  0
 55157  1  0
 55158  1  0
 56159  1  0
 56160  1  0
 56161  1  0
 58162  1  0
 62163  1  0
 67164  1  0
 70165  1  0
 73166  1  0
 74167  1  0
 77168  1  0
 80169  1  0
 83170  1  0
 84171  1  0
 86172  1  0
 90173  1  0
 91174  1  0
 94175  1  0
 94176  1  0
 95177  1  0
 95178  1  0
 95179  1  0
 98180  1  0
103181  1  0
104182  1  0
107183  1  0
107184  1  0
108185  1  0
108186  1  0
108187  1  0
110188  1  0
114189  1  0
119190  1  0
122191  1  0
125192  1  0
126193  1  0
126194  1  0
M  RAD  6  67   2  69   2  77   2  79   2 119   2 121   2
M  END

