
     RDKit          3D

247274  0  0  0  0  0  0  0  0999 V2000
   -0.0699   -3.3912   11.6775 C   0  0  0  0  0  0  0  0  0  0  0  0
   -0.4114   -2.0453   11.6002 C   0  0  0  0  0  0  0  0  0  0  0  0
   -1.3805   -1.7723   10.6199 C   0  0  0  0  0  0  0  0  0  0  0  0
   -1.9052   -0.5057   10.2847 C   0  0  0  0  0  0  0  0  0  0  0  0
   -1.4354    0.7320   10.9334 C   0  0  0  0  0  0  0  0  0  0  0  0
   -0.5872    1.9582   10.1473 S   0  0  0  0  0  0  0  0  0  0  0  0
   -0.3914    2.9365   11.4993 C   0  0  0  0  0  0  0  0  0  0  0  0
    0.3770    4.2239   11.5109 C   0  0  0  0  0  0  0  0  0  0  0  0
    1.8299    3.9852   11.9132 C   0  0  0  0  0  0  0  0  0  0  0  0
   -0.9799    2.3058   12.5947 C   0  0  0  0  0  0  0  0  0  0  0  0
   -0.9731    2.9766   14.2206 Cl  0  0  0  0  0  0  0  0  0  0  0  0
   -1.5744    1.0744   12.2754 C   0  0  0  0  0  0  0  0  0  0  0  0
   -2.4336    0.0825   13.4459 Cl  0  0  0  0  0  0  0  0  0  0  0  0
   -2.8331   -0.4638    9.2287 C   0  0  0  0  0  0  0  0  0  0  0  0
   -3.2343   -1.6077    8.5308 C   0  0  0  0  0  0  0  0  0  0  0  0
   -2.6984   -2.8688    8.8565 C   0  0  0  0  0  0  0  0  0  0  0  0
   -3.0053   -4.0723    8.0613 C   0  0  0  0  0  0  0  0  0  0  0  0
   -1.9037   -4.8556    7.0615 S   0  0  0  0  0  0  0  0  0  0  0  0
   -2.9815   -6.0077    6.4772 C   0  0  0  0  0  0  0  0  0  0  0  0
   -2.6405   -7.0534    5.4543 C   0  0  0  0  0  0  0  0  0  0  0  0
   -3.0686   -6.6097    4.0599 C   0  0  0  0  0  0  0  0  0  0  0  0
   -4.2303   -5.7852    7.0528 C   0  0  0  0  0  0  0  0  0  0  0  0
   -4.2419   -4.7008    7.9441 C   0  0  0  0  0  0  0  0  0  0  0  0
   -5.6705   -4.1969    8.8365 Cl  0  0  0  0  0  0  0  0  0  0  0  0
   -5.6533   -6.7547    6.6942 Cl  0  0  0  0  0  0  0  0  0  0  0  0
   -1.7781   -2.9138    9.9154 C   0  0  0  0  0  0  0  0  0  0  0  0
   -0.9513   -4.2473   10.5221 S   0  0  0  0  0  0  0  0  0  0  0  0
   -4.1162   -1.3315    7.4741 C   0  0  0  0  0  0  0  0  0  0  0  0
   -4.4102    0.0249    7.3523 C   0  0  0  0  0  0  0  0  0  0  0  0
   -3.5752    0.8865    8.5461 S   0  0  0  0  0  0  0  0  0  0  0  0
   -5.1505    0.6314    6.2363 C   0  0  0  0  0  0  0  0  0  0  0  0
   -5.0901    1.9752    5.8696 C   0  0  0  0  0  0  0  0  0  0  0  0
   -5.6580    2.2250    4.6092 C   0  0  0  0  0  0  0  0  0  0  0  0
   -5.5981    3.4402    3.8971 C   0  0  0  0  0  0  0  0  0  0  0  0
   -4.9204    4.6305    4.4431 C   0  0  0  0  0  0  0  0  0  0  0  0
   -3.2693    4.7311    4.7642 S   0  0  0  0  0  0  0  0  0  0  0  0
   -3.2849    6.3338    5.2760 C   0  0  0  0  0  0  0  0  0  0  0  0
   -2.0621    7.1153    5.6555 C   0  0  0  0  0  0  0  0  0  0  0  0
   -1.5534    7.9291    4.4687 C   0  0  0  0  0  0  0  0  0  0  0  0
   -4.5895    6.8209    5.1833 C   0  0  0  0  0  0  0  0  0  0  0  0
   -5.0437    8.4683    5.5981 Cl  0  0  0  0  0  0  0  0  0  0  0  0
   -5.5044    5.8644    4.7148 C   0  0  0  0  0  0  0  0  0  0  0  0
   -7.2216    6.1861    4.5027 Cl  0  0  0  0  0  0  0  0  0  0  0  0
   -6.0605    3.4208    2.5709 C   0  0  0  0  0  0  0  0  0  0  0  0
   -6.5819    2.2709    1.9667 C   0  0  0  0  0  0  0  0  0  0  0  0
   -6.7136    1.0748    2.7056 C   0  0  0  0  0  0  0  0  0  0  0  0
   -7.2727   -0.1621    2.1228 C   0  0  0  0  0  0  0  0  0  0  0  0
   -6.5970   -1.0231    0.8450 S   0  0  0  0  0  0  0  0  0  0  0  0
   -7.7230   -2.2719    0.8499 C   0  0  0  0  0  0  0  0  0  0  0  0
   -7.6809   -3.4608   -0.0623 C   0  0  0  0  0  0  0  0  0  0  0  0
   -6.9506   -4.6263    0.5968 C   0  0  0  0  0  0  0  0  0  0  0  0
   -8.6393   -2.0412    1.8742 C   0  0  0  0  0  0  0  0  0  0  0  0
   -8.3896   -0.8576    2.5851 C   0  0  0  0  0  0  0  0  0  0  0  0
   -9.3918   -0.3002    3.9205 Cl  0  0  0  0  0  0  0  0  0  0  0  0
   -9.9671   -3.1335    2.2562 Cl  0  0  0  0  0  0  0  0  0  0  0  0
   -6.2143    1.0857    4.0191 C   0  0  0  0  0  0  0  0  0  0  0  0
   -5.9535   -0.2353    5.0314 S   0  0  0  0  0  0  0  0  0  0  0  0
   -6.7848    2.4201    0.5843 C   0  0  0  0  0  0  0  0  0  0  0  0
   -6.3875    3.6664    0.0998 C   0  0  0  0  0  0  0  0  0  0  0  0
   -5.8321    4.5982    1.3945 S   0  0  0  0  0  0  0  0  0  0  0  0
   -5.9708    3.9166   -1.2866 C   0  0  0  0  0  0  0  0  0  0  0  0
   -5.3229    2.9578   -2.0630 C   0  0  0  0  0  0  0  0  0  0  0  0
   -4.5580    3.5088   -3.1015 C   0  0  0  0  0  0  0  0  0  0  0  0
   -3.6305    2.8144   -3.9055 C   0  0  0  0  0  0  0  0  0  0  0  0
   -3.3977    1.3659   -3.7627 C   0  0  0  0  0  0  0  0  0  0  0  0
   -2.8424    0.6059   -2.3676 S   0  0  0  0  0  0  0  0  0  0  0  0
   -2.8994   -0.9606   -2.9788 C   0  0  0  0  0  0  0  0  0  0  0  0
   -2.6678   -2.1945   -2.1603 C   0  0  0  0  0  0  0  0  0  0  0  0
   -3.9211   -2.5527   -1.3709 C   0  0  0  0  0  0  0  0  0  0  0  0
   -3.3672   -0.9090   -4.2925 C   0  0  0  0  0  0  0  0  0  0  0  0
   -3.6295   -2.3345   -5.2898 Cl  0  0  0  0  0  0  0  0  0  0  0  0
   -3.6340    0.3973   -4.7344 C   0  0  0  0  0  0  0  0  0  0  0  0
   -4.2592    0.7640   -6.3374 Cl  0  0  0  0  0  0  0  0  0  0  0  0
   -2.8291    3.5903   -4.7549 C   0  0  0  0  0  0  0  0  0  0  0  0
   -2.9501    4.9817   -4.8465 C   0  0  0  0  0  0  0  0  0  0  0  0
   -3.9180    5.6689   -4.0847 C   0  0  0  0  0  0  0  0  0  0  0  0
   -4.0894    7.1326   -4.1670 C   0  0  0  0  0  0  0  0  0  0  0  0
   -2.9285    8.2763   -3.7509 S   0  0  0  0  0  0  0  0  0  0  0  0
   -3.8342    9.6235   -4.1949 C   0  0  0  0  0  0  0  0  0  0  0  0
   -3.3208   11.0320   -4.1766 C   0  0  0  0  0  0  0  0  0  0  0  0
   -2.6006   11.3591   -5.4823 C   0  0  0  0  0  0  0  0  0  0  0  0
   -5.0607    9.1901   -4.6988 C   0  0  0  0  0  0  0  0  0  0  0  0
   -5.2034    7.7942   -4.6759 C   0  0  0  0  0  0  0  0  0  0  0  0
   -6.6285    6.9631   -5.2930 Cl  0  0  0  0  0  0  0  0  0  0  0  0
   -6.2863   10.2785   -5.3392 Cl  0  0  0  0  0  0  0  0  0  0  0  0
   -4.6824    4.8986   -3.1915 C   0  0  0  0  0  0  0  0  0  0  0  0
   -5.6543    5.4481   -1.9324 S   0  0  0  0  0  0  0  0  0  0  0  0
   -1.9632    5.5674   -5.6558 C   0  0  0  0  0  0  0  0  0  0  0  0
   -1.0333    4.6448   -6.1385 C   0  0  0  0  0  0  0  0  0  0  0  0
   -1.4854    3.0955   -5.6334 S   0  0  0  0  0  0  0  0  0  0  0  0
    0.2134    5.0094   -6.8476 C   0  0  0  0  0  0  0  0  0  0  0  0
    1.4038    4.2581   -6.9384 C   0  0  0  0  0  0  0  0  0  0  0  0
    2.4170    4.9752   -7.5970 C   0  0  0  0  0  0  0  0  0  0  0  0
    2.0325    6.2116   -8.0427 C   0  0  0  0  0  0  0  0  0  0  0  0
    0.4768    6.5469   -7.5314 S   0  0  0  0  0  0  0  0  0  0  0  0
    3.2130    7.0678   -8.2030 C   0  0  1  0  0  0  0  0  0  0  0  0
    4.2487    6.0299   -8.5596 C   0  0  2  0  0  0  0  0  0  0  0  0
    3.9293    4.7881   -7.6608 C   0  0  0  0  0  0  0  0  0  0  0  0
    4.5120    4.9060   -6.2116 C   0  0  0  0  0  0  0  0  0  0  0  0
    5.9844    4.5261   -6.0517 C   0  0  0  0  0  0  0  0  0  0  0  0
    4.2365    3.4193   -8.3514 C   0  0  0  0  0  0  0  0  0  0  0  0
    5.5452    3.3435   -9.1477 C   0  0  0  0  0  0  0  0  0  0  0  0
    5.5418    6.8165   -8.5820 C   0  0  0  0  0  0  0  0  0  0  0  0
    5.1907    8.0920   -9.3920 C   0  0  0  0  0  0  0  0  0  0  0  0
    3.3483    8.3025   -9.5021 S   0  0  0  0  0  0  0  0  0  0  0  0
    1.6278    2.9390   -6.3254 C   0  0  0  0  0  0  0  0  0  0  0  0
    1.6858    2.7951   -4.9969 C   0  0  0  0  0  0  0  0  0  0  0  0
    1.9624    1.5001   -4.3541 C   0  0  0  0  0  0  0  0  0  0  0  0
    1.7711    0.2330   -4.9054 C   0  0  0  0  0  0  0  0  0  0  0  0
    2.1588   -0.8053   -4.0408 C   0  0  0  0  0  0  0  0  0  0  0  0
    2.0683   -2.1901   -4.3024 C   0  0  0  0  0  0  0  0  0  0  0  0
    1.6069   -2.7124   -5.6041 C   0  0  0  0  0  0  0  0  0  0  0  0
    2.3574   -2.3996   -7.0781 S   0  0  0  0  0  0  0  0  0  0  0  0
    1.3352   -3.3512   -8.0121 C   0  0  0  0  0  0  0  0  0  0  0  0
    1.4758   -3.5648   -9.4901 C   0  0  0  0  0  0  0  0  0  0  0  0
    2.2977   -4.8159   -9.7840 C   0  0  0  0  0  0  0  0  0  0  0  0
    0.3918   -3.9457   -7.1748 C   0  0  0  0  0  0  0  0  0  0  0  0
   -0.8629   -5.0413   -7.7428 Cl  0  0  0  0  0  0  0  0  0  0  0  0
    0.5461   -3.5890   -5.8260 C   0  0  0  0  0  0  0  0  0  0  0  0
   -0.5224   -4.1758   -4.5612 Cl  0  0  0  0  0  0  0  0  0  0  0  0
    2.5163   -3.0558   -3.2892 C   0  0  0  0  0  0  0  0  0  0  0  0
    3.0447   -2.5905   -2.0781 C   0  0  0  0  0  0  0  0  0  0  0  0
    3.1022   -1.2087   -1.8040 C   0  0  0  0  0  0  0  0  0  0  0  0
    3.6305   -0.6927   -0.5281 C   0  0  0  0  0  0  0  0  0  0  0  0
    5.0223    0.2374   -0.3691 S   0  0  0  0  0  0  0  0  0  0  0  0
    4.9738    0.3381    1.3104 C   0  0  0  0  0  0  0  0  0  0  0  0
    6.0132    1.0098    2.1563 C   0  0  0  0  0  0  0  0  0  0  0  0
    7.0903    0.0160    2.5856 C   0  0  0  0  0  0  0  0  0  0  0  0
    3.8666   -0.3701    1.7717 C   0  0  0  0  0  0  0  0  0  0  0  0
    3.1105   -0.9453    0.7390 C   0  0  0  0  0  0  0  0  0  0  0  0
    1.6378   -1.8650    1.0204 Cl  0  0  0  0  0  0  0  0  0  0  0  0
    3.4733   -0.5568    3.4733 Cl  0  0  0  0  0  0  0  0  0  0  0  0
    2.6540   -0.3420   -2.8164 C   0  0  0  0  0  0  0  0  0  0  0  0
    2.5913    1.3387   -2.7961 S   0  0  0  0  0  0  0  0  0  0  0  0
    3.5231   -3.6226   -1.2524 C   0  0  0  0  0  0  0  0  0  0  0  0
    3.3242   -4.8848   -1.8039 C   0  0  0  0  0  0  0  0  0  0  0  0
    2.6107   -4.7377   -3.3218 S   0  0  0  0  0  0  0  0  0  0  0  0
    3.7533   -6.1485   -1.2061 C   0  0  0  0  0  0  0  0  0  0  0  0
    2.9230   -7.2273   -0.9238 C   0  0  0  0  0  0  0  0  0  0  0  0
    3.6297   -8.3370   -0.4384 C   0  0  0  0  0  0  0  0  0  0  0  0
    3.0765   -9.5675   -0.0372 C   0  0  0  0  0  0  0  0  0  0  0  0
    1.6303   -9.8216   -0.0809 C   0  0  0  0  0  0  0  0  0  0  0  0
    0.6386   -9.9636    1.2690 S   0  0  0  0  0  0  0  0  0  0  0  0
   -0.7740  -10.2905    0.4141 C   0  0  0  0  0  0  0  0  0  0  0  0
   -2.1133  -10.5309    1.0443 C   0  0  0  0  0  0  0  0  0  0  0  0
   -3.0329   -9.3250    0.8573 C   0  0  0  0  0  0  0  0  0  0  0  0
   -0.4811  -10.2947   -0.9493 C   0  0  0  0  0  0  0  0  0  0  0  0
   -1.6732  -10.6167   -2.1995 Cl  0  0  0  0  0  0  0  0  0  0  0  0
    0.8676  -10.0294   -1.2263 C   0  0  0  0  0  0  0  0  0  0  0  0
    1.5362   -9.9850   -2.8529 Cl  0  0  0  0  0  0  0  0  0  0  0  0
    3.9752  -10.5583    0.3943 C   0  0  0  0  0  0  0  0  0  0  0  0
    5.3593  -10.3620    0.4227 C   0  0  0  0  0  0  0  0  0  0  0  0
    5.9129   -9.1253    0.0312 C   0  0  0  0  0  0  0  0  0  0  0  0
    7.3682   -8.9182   -0.0556 C   0  0  0  0  0  0  0  0  0  0  0  0
    8.4306   -8.9208    1.2506 S   0  0  0  0  0  0  0  0  0  0  0  0
    9.8343   -8.7364    0.3375 C   0  0  0  0  0  0  0  0  0  0  0  0
   11.2186   -8.6469    0.9071 C   0  0  0  0  0  0  0  0  0  0  0  0
   11.6782   -7.1955    1.0096 C   0  0  0  0  0  0  0  0  0  0  0  0
    9.4856   -8.6633   -1.0099 C   0  0  0  0  0  0  0  0  0  0  0  0
    8.1040   -8.7717   -1.2305 C   0  0  0  0  0  0  0  0  0  0  0  0
    7.3811   -8.7940   -2.8337 Cl  0  0  0  0  0  0  0  0  0  0  0  0
   10.6548   -8.4781   -2.3121 Cl  0  0  0  0  0  0  0  0  0  0  0  0
    5.0123   -8.1251   -0.3729 C   0  0  0  0  0  0  0  0  0  0  0  0
    5.3573   -6.5554   -0.8741 S   0  0  0  0  0  0  0  0  0  0  0  0
    6.0687  -11.5071    0.8163 C   0  0  0  0  0  0  0  0  0  0  0  0
    5.2445  -12.5898    1.0971 C   0  0  0  0  0  0  0  0  0  0  0  0
    3.6377  -12.1388    0.8546 S   0  0  0  0  0  0  0  0  0  0  0  0
    0.6488   -3.8165   12.3610 H   0  0  0  0  0  0  0  0  0  0  0  0
    0.0403   -1.2945   12.2321 H   0  0  0  0  0  0  0  0  0  0  0  0
    0.3508    4.6788   10.4986 H   0  0  0  0  0  0  0  0  0  0  0  0
   -0.0946    4.9412   12.2163 H   0  0  0  0  0  0  0  0  0  0  0  0
    2.2959    3.2299   11.2451 H   0  0  0  0  0  0  0  0  0  0  0  0
    2.3989    4.9335   11.8265 H   0  0  0  0  0  0  0  0  0  0  0  0
    1.8862    3.6248   12.9618 H   0  0  0  0  0  0  0  0  0  0  0  0
   -1.5445   -7.2307    5.4564 H   0  0  0  0  0  0  0  0  0  0  0  0
   -3.1426   -8.0113    5.7125 H   0  0  0  0  0  0  0  0  0  0  0  0
   -2.7894   -7.3944    3.3273 H   0  0  0  0  0  0  0  0  0  0  0  0
   -2.5601   -5.6620    3.7794 H   0  0  0  0  0  0  0  0  0  0  0  0
   -4.1677   -6.4613    4.0189 H   0  0  0  0  0  0  0  0  0  0  0  0
   -4.4868   -2.0805    6.7889 H   0  0  0  0  0  0  0  0  0  0  0  0
   -4.5738    2.7235    6.4532 H   0  0  0  0  0  0  0  0  0  0  0  0
   -1.2644    6.4185    5.9857 H   0  0  0  0  0  0  0  0  0  0  0  0
   -2.2926    7.7968    6.5017 H   0  0  0  0  0  0  0  0  0  0  0  0
   -2.3056    8.6893    4.1703 H   0  0  0  0  0  0  0  0  0  0  0  0
   -1.3438    7.2625    3.6040 H   0  0  0  0  0  0  0  0  0  0  0  0
   -0.6161    8.4496    4.7494 H   0  0  0  0  0  0  0  0  0  0  0  0
   -8.7125   -3.7711   -0.3280 H   0  0  0  0  0  0  0  0  0  0  0  0
   -7.1556   -3.1910   -1.0011 H   0  0  0  0  0  0  0  0  0  0  0  0
   -5.9003   -4.3442    0.8211 H   0  0  0  0  0  0  0  0  0  0  0  0
   -6.9463   -5.4990   -0.0913 H   0  0  0  0  0  0  0  0  0  0  0  0
   -7.4631   -4.9227    1.5369 H   0  0  0  0  0  0  0  0  0  0  0  0
   -7.0961    1.6152   -0.0670 H   0  0  0  0  0  0  0  0  0  0  0  0
   -5.2989    1.9096   -1.7957 H   0  0  0  0  0  0  0  0  0  0  0  0
   -1.8231   -2.0180   -1.4614 H   0  0  0  0  0  0  0  0  0  0  0  0
   -2.3990   -3.0454   -2.8156 H   0  0  0  0  0  0  0  0  0  0  0  0
   -4.1818   -1.7269   -0.6774 H   0  0  0  0  0  0  0  0  0  0  0  0
   -3.7373   -3.4697   -0.7762 H   0  0  0  0  0  0  0  0  0  0  0  0
   -4.7724   -2.7336   -2.0623 H   0  0  0  0  0  0  0  0  0  0  0  0
   -4.1651   11.7384   -4.0367 H   0  0  0  0  0  0  0  0  0  0  0  0
   -2.6264   11.1619   -3.3205 H   0  0  0  0  0  0  0  0  0  0  0  0
   -1.7275   10.6865   -5.6235 H   0  0  0  0  0  0  0  0  0  0  0  0
   -2.2355   12.4074   -5.4507 H   0  0  0  0  0  0  0  0  0  0  0  0
   -3.2897   11.2491   -6.3461 H   0  0  0  0  0  0  0  0  0  0  0  0
   -1.8757    6.6329   -5.8191 H   0  0  0  0  0  0  0  0  0  0  0  0
    3.4250    7.5560   -7.2243 H   0  0  0  0  0  0  0  0  0  0  0  0
    4.0628    5.7125   -9.6146 H   0  0  0  0  0  0  0  0  0  0  0  0
    3.9477    4.2421   -5.5319 H   0  0  0  0  0  0  0  0  0  0  0  0
    4.3743    5.9348   -5.8220 H   0  0  0  0  0  0  0  0  0  0  0  0
    6.1236    3.4326   -6.1979 H   0  0  0  0  0  0  0  0  0  0  0  0
    6.6349    5.0775   -6.7592 H   0  0  0  0  0  0  0  0  0  0  0  0
    6.3147    4.7721   -5.0182 H   0  0  0  0  0  0  0  0  0  0  0  0
    3.4198    3.1656   -9.0633 H   0  0  0  0  0  0  0  0  0  0  0  0
    4.2426    2.6147   -7.5859 H   0  0  0  0  0  0  0  0  0  0  0  0
    5.5062    3.9907  -10.0481 H   0  0  0  0  0  0  0  0  0  0  0  0
    5.6991    2.3016   -9.4958 H   0  0  0  0  0  0  0  0  0  0  0  0
    6.4220    3.6281   -8.5372 H   0  0  0  0  0  0  0  0  0  0  0  0
    5.8458    7.1051   -7.5536 H   0  0  0  0  0  0  0  0  0  0  0  0
    6.3606    6.2397   -9.0673 H   0  0  0  0  0  0  0  0  0  0  0  0
    5.5905    7.9971  -10.4232 H   0  0  0  0  0  0  0  0  0  0  0  0
    5.6431    8.9913   -8.9154 H   0  0  0  0  0  0  0  0  0  0  0  0
    1.8245    2.1016   -6.9816 H   0  0  0  0  0  0  0  0  0  0  0  0
    1.5853    3.6690   -4.3632 H   0  0  0  0  0  0  0  0  0  0  0  0
    1.3435    0.0687   -5.8841 H   0  0  0  0  0  0  0  0  0  0  0  0
    0.4711   -3.6641   -9.9520 H   0  0  0  0  0  0  0  0  0  0  0  0
    1.9749   -2.6860   -9.9460 H   0  0  0  0  0  0  0  0  0  0  0  0
    3.3250   -4.7134   -9.3704 H   0  0  0  0  0  0  0  0  0  0  0  0
    2.3699   -4.9592  -10.8867 H   0  0  0  0  0  0  0  0  0  0  0  0
    1.8101   -5.7136   -9.3454 H   0  0  0  0  0  0  0  0  0  0  0  0
    6.4869    1.8360    1.5800 H   0  0  0  0  0  0  0  0  0  0  0  0
    5.5340    1.4527    3.0561 H   0  0  0  0  0  0  0  0  0  0  0  0
    7.8148    0.5186    3.2629 H   0  0  0  0  0  0  0  0  0  0  0  0
    6.6355   -0.8415    3.1229 H   0  0  0  0  0  0  0  0  0  0  0  0
    7.6367   -0.3554    1.6952 H   0  0  0  0  0  0  0  0  0  0  0  0
    3.9965   -3.4655   -0.2917 H   0  0  0  0  0  0  0  0  0  0  0  0
    1.8498   -7.1992   -1.0617 H   0  0  0  0  0  0  0  0  0  0  0  0
   -1.9812  -10.7246    2.1316 H   0  0  0  0  0  0  0  0  0  0  0  0
   -2.5836  -11.4330    0.5941 H   0  0  0  0  0  0  0  0  0  0  0  0
   -2.5312   -8.4011    1.2159 H   0  0  0  0  0  0  0  0  0  0  0  0
   -3.2962   -9.1958   -0.2130 H   0  0  0  0  0  0  0  0  0  0  0  0
   -3.9694   -9.4792    1.4355 H   0  0  0  0  0  0  0  0  0  0  0  0
   11.9255   -9.2148    0.2646 H   0  0  0  0  0  0  0  0  0  0  0  0
   11.2313   -9.1038    1.9191 H   0  0  0  0  0  0  0  0  0  0  0  0
   11.7230   -6.7298    0.0022 H   0  0  0  0  0  0  0  0  0  0  0  0
   12.6917   -7.1599    1.4597 H   0  0  0  0  0  0  0  0  0  0  0  0
   10.9833   -6.6132    1.6509 H   0  0  0  0  0  0  0  0  0  0  0  0
    7.1487  -11.5633    0.8803 H   0  0  0  0  0  0  0  0  0  0  0  0
    5.5789  -13.5660    1.4165 H   0  0  0  0  0  0  0  0  0  0  0  0
  1  2  2  0
  2  3  1  0
  3  4  2  0
  4  5  1  0
  5  6  1  0
  6  7  1  0
  7  8  1  0
  8  9  1  0
  7 10  2  0
 10 11  1  0
 10 12  1  0
 12 13  1  0
  4 14  1  0
 14 15  2  0
 15 16  1  0
 16 17  1  0
 17 18  1  0
 18 19  1  0
 19 20  1  0
 20 21  1  0
 19 22  2  0
 22 23  1  0
 23 24  1  0
 22 25  1  0
 16 26  2  0
 26 27  1  0
 15 28  1  0
 28 29  2  0
 29 30  1  0
 29 31  1  0
 31 32  2  0
 32 33  1  0
 33 34  2  0
 34 35  1  0
 35 36  1  0
 36 37  1  0
 37 38  1  0
 38 39  1  0
 37 40  2  0
 40 41  1  0
 40 42  1  0
 42 43  1  0
 34 44  1  0
 44 45  2  0
 45 46  1  0
 46 47  1  0
 47 48  1  0
 48 49  1  0
 49 50  1  0
 50 51  1  0
 49 52  2  0
 52 53  1  0
 53 54  1  0
 52 55  1  0
 46 56  2  0
 56 57  1  0
 45 58  1  0
 58 59  2  0
 59 60  1  0
 59 61  1  0
 61 62  2  0
 62 63  1  0
 63 64  2  0
 64 65  1  0
 65 66  1  0
 66 67  1  0
 67 68  1  0
 68 69  1  0
 67 70  2  0
 70 71  1  0
 70 72  1  0
 72 73  1  0
 64 74  1  0
 74 75  2  0
 75 76  1  0
 76 77  1  0
 77 78  1  0
 78 79  1  0
 79 80  1  0
 80 81  1  0
 79 82  2  0
 82 83  1  0
 83 84  1  0
 82 85  1  0
 76 86  2  0
 86 87  1  0
 75 88  1  0
 88 89  2  0
 89 90  1  0
 89 91  1  0
 91 92  2  0
 92 93  1  0
 93 94  2  0
 94 95  1  0
 94 96  1  0
 96 97  1  0
 97 98  1  0
 98 99  1  0
 99100  1  0
 98101  1  0
101102  1  0
 97103  1  0
103104  1  0
104105  1  0
 92106  1  0
106107  2  3
107108  1  0
108109  2  0
109110  1  0
110111  2  0
111112  1  0
112113  1  0
113114  1  0
114115  1  0
115116  1  0
114117  2  0
117118  1  0
117119  1  0
119120  1  0
111121  1  0
121122  2  0
122123  1  0
123124  1  0
124125  1  0
125126  1  0
126127  1  0
127128  1  0
126129  2  0
129130  1  0
130131  1  0
129132  1  0
123133  2  0
133134  1  0
122135  1  0
135136  2  0
136137  1  0
136138  1  0
138139  2  0
139140  1  0
140141  2  0
141142  1  0
142143  1  0
143144  1  0
144145  1  0
145146  1  0
144147  2  0
147148  1  0
147149  1  0
149150  1  0
141151  1  0
151152  2  0
152153  1  0
153154  1  0
154155  1  0
155156  1  0
156157  1  0
157158  1  0
156159  2  0
159160  1  0
160161  1  0
159162  1  0
153163  2  0
163164  1  0
152165  1  0
165166  2  0
166167  1  0
 27  1  1  0
 57 31  1  0
 87 61  1  0
 95 91  1  0
105 96  1  0
134108  1  0
164138  1  0
 26  3  1  0
 56 33  1  0
 86 63  1  0
 98 93  1  0
133110  1  0
163140  1  0
 12  5  2  0
 30 14  1  0
 42 35  2  0
 60 44  1  0
 72 65  2  0
 90 74  1  0
119112  2  0
137121  1  0
149142  2  0
167151  1  0
 23 17  2  0
 53 47  2  0
 83 77  2  0
130124  2  0
160154  2  0
  1168  1  0
  2169  1  0
  8170  1  0
  8171  1  0
  9172  1  0
  9173  1  0
  9174  1  0
 20175  1  0
 20176  1  0
 21177  1  0
 21178  1  0
 21179  1  0
 28180  1  0
 32181  1  0
 38182  1  0
 38183  1  0
 39184  1  0
 39185  1  0
 39186  1  0
 50187  1  0
 50188  1  0
 51189  1  0
 51190  1  0
 51191  1  0
 58192  1  0
 62193  1  0
 68194  1  0
 68195  1  0
 69196  1  0
 69197  1  0
 69198  1  0
 80199  1  0
 80200  1  0
 81201  1  0
 81202  1  0
 81203  1  0
 88204  1  0
 96205  1  1
 97206  1  6
 99207  1  0
 99208  1  0
100209  1  0
100210  1  0
100211  1  0
101212  1  0
101213  1  0
102214  1  0
102215  1  0
102216  1  0
103217  1  0
103218  1  0
104219  1  0
104220  1  0
106221  1  0
107222  1  0
109223  1  0
115224  1  0
115225  1  0
116226  1  0
116227  1  0
116228  1  0
127229  1  0
127230  1  0
128231  1  0
128232  1  0
128233  1  0
135234  1  0
139235  1  0
145236  1  0
145237  1  0
146238  1  0
146239  1  0
146240  1  0
157241  1  0
157242  1  0
158243  1  0
158244  1  0
158245  1  0
165246  1  0
166247  1  0
M  END

