
     RDKit          3D

227253  0  0  0  0  0  0  0  0999 V2000
    2.3097  -10.7663   10.8135 C   0  0  0  0  0  0  0  0  0  0  0  0
    2.7323   -9.6268   10.1400 C   0  0  0  0  0  0  0  0  0  0  0  0
    1.9851   -9.3549    8.9775 C   0  0  0  0  0  0  0  0  0  0  0  0
    2.1784   -8.2829    8.0868 C   0  0  0  0  0  0  0  0  0  0  0  0
    3.1641   -7.2258    8.3591 C   0  0  0  0  0  0  0  0  0  0  0  0
    3.1663   -6.2461    9.7238 S   0  0  0  0  0  0  0  0  0  0  0  0
    4.4820   -5.2921    9.2754 C   0  0  0  0  0  0  0  0  0  0  0  0
    5.0683   -4.1925   10.1066 C   0  0  0  0  0  0  0  0  0  0  0  0
    6.2615   -4.7060   10.9028 C   0  0  0  0  0  0  0  0  0  0  0  0
    4.9457   -5.7477    8.0439 C   0  0  0  0  0  0  0  0  0  0  0  0
    6.3234   -5.0380    7.2143 Cl  0  0  0  0  0  0  0  0  0  0  0  0
    4.2004   -6.8123    7.5127 C   0  0  0  0  0  0  0  0  0  0  0  0
    4.5956   -7.6065    5.9980 Cl  0  0  0  0  0  0  0  0  0  0  0  0
    1.3204   -8.2166    6.9716 C   0  0  0  0  0  0  0  0  0  0  0  0
    0.3087   -9.1500    6.7433 C   0  0  0  0  0  0  0  0  0  0  0  0
    0.1164  -10.2211    7.6370 C   0  0  0  0  0  0  0  0  0  0  0  0
   -0.9877  -11.1792    7.4753 C   0  0  0  0  0  0  0  0  0  0  0  0
   -1.2072  -12.2058    6.1625 S   0  0  0  0  0  0  0  0  0  0  0  0
   -2.6664  -12.8584    6.6874 C   0  0  0  0  0  0  0  0  0  0  0  0
   -3.4998  -13.8201    5.8938 C   0  0  0  0  0  0  0  0  0  0  0  0
   -4.4951  -13.0662    5.0192 C   0  0  0  0  0  0  0  0  0  0  0  0
   -3.0196  -12.2533    7.8893 C   0  0  0  0  0  0  0  0  0  0  0  0
   -2.0736  -11.3207    8.3414 C   0  0  0  0  0  0  0  0  0  0  0  0
   -2.2888  -10.3534    9.7866 Cl  0  0  0  0  0  0  0  0  0  0  0  0
   -4.5210  -12.5903    8.7402 Cl  0  0  0  0  0  0  0  0  0  0  0  0
    0.9818  -10.2989    8.7425 C   0  0  0  0  0  0  0  0  0  0  0  0
    1.0156  -11.4468    9.9718 S   0  0  0  0  0  0  0  0  0  0  0  0
   -0.4977   -8.8389    5.6280 C   0  0  0  0  0  0  0  0  0  0  0  0
   -0.1094   -7.6604    4.9947 C   0  0  0  0  0  0  0  0  0  0  0  0
    1.2197   -7.0060    5.8115 S   0  0  0  0  0  0  0  0  0  0  0  0
   -0.7926   -7.0119    3.8596 C   0  0  0  0  0  0  0  0  0  0  0  0
   -0.5018   -5.7357    3.3976 C   0  0  0  0  0  0  0  0  0  0  0  0
   -1.3139   -5.3372    2.3332 C   0  0  0  0  0  0  0  0  0  0  0  0
   -1.2286   -4.1062    1.6616 C   0  0  0  0  0  0  0  0  0  0  0  0
   -0.3656   -3.0115    2.1364 C   0  0  0  0  0  0  0  0  0  0  0  0
    0.7557   -2.1846    1.1856 S   0  0  0  0  0  0  0  0  0  0  0  0
    1.1017   -0.9939    2.3151 C   0  0  0  0  0  0  0  0  0  0  0  0
    1.9384    0.2204    2.0429 C   0  0  0  0  0  0  0  0  0  0  0  0
    1.1421    1.2701    1.2769 C   0  0  0  0  0  0  0  0  0  0  0  0
    0.3174   -1.2066    3.4503 C   0  0  0  0  0  0  0  0  0  0  0  0
    0.3001   -0.1382    4.8476 Cl  0  0  0  0  0  0  0  0  0  0  0  0
   -0.4963   -2.3437    3.3504 C   0  0  0  0  0  0  0  0  0  0  0  0
   -1.6630   -2.8101    4.5916 Cl  0  0  0  0  0  0  0  0  0  0  0  0
   -2.0939   -3.9168    0.5726 C   0  0  0  0  0  0  0  0  0  0  0  0
   -3.0457   -4.8608    0.1775 C   0  0  0  0  0  0  0  0  0  0  0  0
   -3.1505   -6.0875    0.8773 C   0  0  0  0  0  0  0  0  0  0  0  0
   -4.0747   -7.1458    0.4183 C   0  0  0  0  0  0  0  0  0  0  0  0
   -4.0222   -7.8402   -1.1049 S   0  0  0  0  0  0  0  0  0  0  0  0
   -5.2668   -8.9338   -0.8567 C   0  0  0  0  0  0  0  0  0  0  0  0
   -5.7371   -9.9242   -1.8772 C   0  0  0  0  0  0  0  0  0  0  0  0
   -7.0316   -9.4608   -2.5344 C   0  0  0  0  0  0  0  0  0  0  0  0
   -5.7414   -8.7800    0.4391 C   0  0  0  0  0  0  0  0  0  0  0  0
   -5.0731   -7.7784    1.1631 C   0  0  0  0  0  0  0  0  0  0  0  0
   -5.4811   -7.3508    2.8185 Cl  0  0  0  0  0  0  0  0  0  0  0  0
   -7.0173   -9.7741    1.1391 Cl  0  0  0  0  0  0  0  0  0  0  0  0
   -2.2487   -6.2964    1.9502 C   0  0  0  0  0  0  0  0  0  0  0  0
   -2.0638   -7.6509    2.9387 S   0  0  0  0  0  0  0  0  0  0  0  0
   -3.8540   -4.4189   -0.8967 C   0  0  0  0  0  0  0  0  0  0  0  0
   -3.4795   -3.1565   -1.3522 C   0  0  0  0  0  0  0  0  0  0  0  0
   -2.2230   -2.5670   -0.4035 S   0  0  0  0  0  0  0  0  0  0  0  0
   -4.0857   -2.3555   -2.4197 C   0  0  0  0  0  0  0  0  0  0  0  0
   -5.3694   -1.8334   -2.3777 C   0  0  0  0  0  0  0  0  0  0  0  0
   -5.5105   -0.6565   -3.1465 C   0  0  0  0  0  0  0  0  0  0  0  0
   -6.6244    0.2086   -3.1574 C   0  0  0  0  0  0  0  0  0  0  0  0
   -7.9071   -0.1597   -2.5391 C   0  0  0  0  0  0  0  0  0  0  0  0
   -8.7149    0.7122   -1.3435 S   0  0  0  0  0  0  0  0  0  0  0  0
  -10.1108   -0.2285   -1.3348 C   0  0  0  0  0  0  0  0  0  0  0  0
  -11.3029    0.0077   -0.4523 C   0  0  0  0  0  0  0  0  0  0  0  0
  -11.2970   -0.9542    0.7290 C   0  0  0  0  0  0  0  0  0  0  0  0
   -9.9567   -1.2542   -2.2722 C   0  0  0  0  0  0  0  0  0  0  0  0
  -11.1938   -2.4590   -2.6045 Cl  0  0  0  0  0  0  0  0  0  0  0  0
   -8.7237   -1.2114   -2.9413 C   0  0  0  0  0  0  0  0  0  0  0  0
   -8.2986   -2.3263   -4.2315 Cl  0  0  0  0  0  0  0  0  0  0  0  0
   -6.4469    1.4714   -3.7679 C   0  0  0  0  0  0  0  0  0  0  0  0
   -5.2589    1.8407   -4.3889 C   0  0  0  0  0  0  0  0  0  0  0  0
   -4.1766    0.9493   -4.4522 C   0  0  0  0  0  0  0  0  0  0  0  0
   -2.9071    1.3009   -5.1248 C   0  0  0  0  0  0  0  0  0  0  0  0
   -1.3961    1.3958   -4.3837 S   0  0  0  0  0  0  0  0  0  0  0  0
   -0.5330    1.7530   -5.7904 C   0  0  0  0  0  0  0  0  0  0  0  0
    0.9479    1.9778   -5.8476 C   0  0  0  0  0  0  0  0  0  0  0  0
    1.2852    3.4284   -5.5237 C   0  0  0  0  0  0  0  0  0  0  0  0
   -1.4263    1.8163   -6.8559 C   0  0  0  0  0  0  0  0  0  0  0  0
   -2.7554    1.5593   -6.4800 C   0  0  0  0  0  0  0  0  0  0  0  0
   -4.0754    1.4986   -7.6344 Cl  0  0  0  0  0  0  0  0  0  0  0  0
   -0.9284    2.1248   -8.5129 Cl  0  0  0  0  0  0  0  0  0  0  0  0
   -4.3287   -0.2800   -3.7955 C   0  0  0  0  0  0  0  0  0  0  0  0
   -3.1361   -1.3964   -3.4310 S   0  0  0  0  0  0  0  0  0  0  0  0
   -5.2254    3.1881   -4.7762 C   0  0  0  0  0  0  0  0  0  0  0  0
   -6.3774    3.8869   -4.4339 C   0  0  0  0  0  0  0  0  0  0  0  0
   -7.4589    2.8176   -3.7036 S   0  0  0  0  0  0  0  0  0  0  0  0
   -6.4203    5.3569   -4.3689 C   0  0  0  0  0  0  0  0  0  0  0  0
   -5.3539    6.0943   -4.6581 O   0  0  0  0  0  0  0  0  0  0  0  0
   -7.3640    6.1961   -3.7981 C   0  0  0  0  0  0  0  0  0  0  0  0
   -8.4246    6.1014   -2.7983 C   0  0  0  0  0  0  0  0  0  0  0  0
   -9.1540    5.0943   -2.5716 O   0  0  0  0  0  0  0  0  0  0  0  0
   -8.4877    7.3146   -2.0432 N   0  0  0  0  0  0  0  0  0  0  0  0
   -7.4085    8.1136   -2.5522 C   0  0  0  0  0  0  0  0  0  0  0  0
   -7.0484    9.2125   -2.0578 O   0  0  0  0  0  0  0  0  0  0  0  0
   -6.7882    7.4190   -3.6754 C   0  0  0  0  0  0  0  0  0  0  0  0
   -5.5157    7.3213   -4.1942 C   0  0  0  0  0  0  0  0  0  0  0  0
   -4.3978    8.2712   -4.1060 C   0  0  0  0  0  0  0  0  0  0  0  0
   -3.3897    8.1238   -4.9713 C   0  0  0  0  0  0  0  0  0  0  0  0
   -1.9917    8.1371   -4.5215 C   0  0  0  0  0  0  0  0  0  0  0  0
   -1.5768    7.6094   -3.3011 C   0  0  0  0  0  0  0  0  0  0  0  0
   -0.2042    7.3335   -3.2644 C   0  0  0  0  0  0  0  0  0  0  0  0
    0.4934    6.7759   -2.1741 C   0  0  0  0  0  0  0  0  0  0  0  0
   -0.1590    6.5343   -0.8775 C   0  0  0  0  0  0  0  0  0  0  0  0
   -0.9430    7.7172    0.0338 S   0  0  0  0  0  0  0  0  0  0  0  0
   -1.4736    6.6709    1.2500 C   0  0  0  0  0  0  0  0  0  0  0  0
   -2.3587    7.0651    2.4030 C   0  0  0  0  0  0  0  0  0  0  0  0
   -3.7201    6.3712    2.3384 C   0  0  0  0  0  0  0  0  0  0  0  0
   -1.0387    5.3824    0.9484 C   0  0  0  0  0  0  0  0  0  0  0  0
   -1.3640    3.9714    1.9477 Cl  0  0  0  0  0  0  0  0  0  0  0  0
   -0.3068    5.3023   -0.2477 C   0  0  0  0  0  0  0  0  0  0  0  0
    0.1437    3.7730   -0.9953 Cl  0  0  0  0  0  0  0  0  0  0  0  0
    1.8267    6.3893   -2.4027 C   0  0  0  0  0  0  0  0  0  0  0  0
    2.4530    6.5816   -3.6394 C   0  0  0  0  0  0  0  0  0  0  0  0
    1.7857    7.2406   -4.6815 C   0  0  0  0  0  0  0  0  0  0  0  0
    2.5334    7.7494   -5.8350 C   0  0  0  0  0  0  0  0  0  0  0  0
    2.8802    6.8669   -7.2218 S   0  0  0  0  0  0  0  0  0  0  0  0
    4.1392    7.8404   -7.7626 C   0  0  0  0  0  0  0  0  0  0  0  0
    5.0061    7.5508   -8.9493 C   0  0  0  0  0  0  0  0  0  0  0  0
    4.2382    7.7360  -10.2542 C   0  0  0  0  0  0  0  0  0  0  0  0
    4.3114    8.8793   -6.8416 C   0  0  0  0  0  0  0  0  0  0  0  0
    3.4127    8.8262   -5.7690 C   0  0  0  0  0  0  0  0  0  0  0  0
    3.5116    9.8814   -4.3702 Cl  0  0  0  0  0  0  0  0  0  0  0  0
    5.6138   10.0592   -6.9447 Cl  0  0  0  0  0  0  0  0  0  0  0  0
    0.4479    7.5962   -4.4672 C   0  0  0  0  0  0  0  0  0  0  0  0
   -0.6648    8.2099   -5.5692 S   0  0  0  0  0  0  0  0  0  0  0  0
    3.7427    6.0354   -3.6971 C   0  0  0  0  0  0  0  0  0  0  0  0
    4.1295    5.4300   -2.4983 C   0  0  0  0  0  0  0  0  0  0  0  0
    2.8880    5.6094   -1.3621 S   0  0  0  0  0  0  0  0  0  0  0  0
    5.2899    4.5416   -2.3529 C   0  0  0  0  0  0  0  0  0  0  0  0
    5.6953    3.8880   -1.1880 C   0  0  0  0  0  0  0  0  0  0  0  0
    6.6848    2.9155   -1.4233 C   0  0  0  0  0  0  0  0  0  0  0  0
    7.2450    2.0424   -0.4671 C   0  0  0  0  0  0  0  0  0  0  0  0
    6.8820    2.0856    0.9639 C   0  0  0  0  0  0  0  0  0  0  0  0
    5.3422    1.7681    1.5570 S   0  0  0  0  0  0  0  0  0  0  0  0
    5.7773    1.7565    3.1864 C   0  0  0  0  0  0  0  0  0  0  0  0
    4.8448    1.4328    4.3158 C   0  0  0  0  0  0  0  0  0  0  0  0
    4.6543   -0.0770    4.4379 C   0  0  0  0  0  0  0  0  0  0  0  0
    7.1498    1.9737    3.2860 C   0  0  0  0  0  0  0  0  0  0  0  0
    8.0452    1.9026    4.8017 Cl  0  0  0  0  0  0  0  0  0  0  0  0
    7.7663    2.1713    2.0412 C   0  0  0  0  0  0  0  0  0  0  0  0
    9.4901    2.4870    1.8638 Cl  0  0  0  0  0  0  0  0  0  0  0  0
    8.1123    1.0427   -0.9597 C   0  0  0  0  0  0  0  0  0  0  0  0
    8.4315    0.9182   -2.3128 C   0  0  0  0  0  0  0  0  0  0  0  0
    7.9268    1.8378   -3.2443 C   0  0  0  0  0  0  0  0  0  0  0  0
    8.1794    1.7166   -4.6889 C   0  0  0  0  0  0  0  0  0  0  0  0
    9.0101    2.8656   -5.5962 S   0  0  0  0  0  0  0  0  0  0  0  0
    8.5033    2.3169   -7.1044 C   0  0  0  0  0  0  0  0  0  0  0  0
    8.7821    3.0233   -8.3920 C   0  0  0  0  0  0  0  0  0  0  0  0
    7.6296    3.9605   -8.7417 C   0  0  0  0  0  0  0  0  0  0  0  0
    7.6313    1.2474   -6.9131 C   0  0  0  0  0  0  0  0  0  0  0  0
    7.4428    0.9180   -5.5565 C   0  0  0  0  0  0  0  0  0  0  0  0
    6.2603   -0.2520   -5.0062 Cl  0  0  0  0  0  0  0  0  0  0  0  0
    6.7636    0.4532   -8.2260 Cl  0  0  0  0  0  0  0  0  0  0  0  0
    7.0549    2.8227   -2.7691 C   0  0  0  0  0  0  0  0  0  0  0  0
    6.1724    3.9310   -3.6632 S   0  0  0  0  0  0  0  0  0  0  0  0
    9.2377   -0.1918   -2.5965 C   0  0  0  0  0  0  0  0  0  0  0  0
    9.5434   -0.9499   -1.4627 C   0  0  0  0  0  0  0  0  0  0  0  0
    8.8170   -0.2364   -0.1224 S   0  0  0  0  0  0  0  0  0  0  0  0
    2.7436  -11.1505   11.7281 H   0  0  0  0  0  0  0  0  0  0  0  0
    3.5619   -9.0142   10.4800 H   0  0  0  0  0  0  0  0  0  0  0  0
    4.2947   -3.8157   10.8103 H   0  0  0  0  0  0  0  0  0  0  0  0
    5.3862   -3.3553    9.4507 H   0  0  0  0  0  0  0  0  0  0  0  0
    6.6300   -3.9033   11.5779 H   0  0  0  0  0  0  0  0  0  0  0  0
    5.9683   -5.5762   11.5281 H   0  0  0  0  0  0  0  0  0  0  0  0
    7.0891   -4.9995   10.2182 H   0  0  0  0  0  0  0  0  0  0  0  0
   -2.8462  -14.4456    5.2538 H   0  0  0  0  0  0  0  0  0  0  0  0
   -4.0508  -14.5023    6.5815 H   0  0  0  0  0  0  0  0  0  0  0  0
   -3.9472  -12.3709    4.3411 H   0  0  0  0  0  0  0  0  0  0  0  0
   -5.0676  -13.7904    4.3990 H   0  0  0  0  0  0  0  0  0  0  0  0
   -5.2043  -12.4793    5.6465 H   0  0  0  0  0  0  0  0  0  0  0  0
   -1.3530   -9.4183    5.3254 H   0  0  0  0  0  0  0  0  0  0  0  0
    0.2791   -5.1157    3.8190 H   0  0  0  0  0  0  0  0  0  0  0  0
    2.8262   -0.0782    1.4413 H   0  0  0  0  0  0  0  0  0  0  0  0
    2.2868    0.6637    2.9934 H   0  0  0  0  0  0  0  0  0  0  0  0
    0.8293    0.8759    0.2883 H   0  0  0  0  0  0  0  0  0  0  0  0
    1.7691    2.1811    1.1328 H   0  0  0  0  0  0  0  0  0  0  0  0
    0.2380    1.5504    1.8649 H   0  0  0  0  0  0  0  0  0  0  0  0
   -5.8895  -10.9218   -1.4056 H   0  0  0  0  0  0  0  0  0  0  0  0
   -4.9541  -10.0468   -2.6565 H   0  0  0  0  0  0  0  0  0  0  0  0
   -6.9014   -8.4597   -2.9962 H   0  0  0  0  0  0  0  0  0  0  0  0
   -7.8555   -9.4329   -1.7936 H   0  0  0  0  0  0  0  0  0  0  0  0
   -7.3173  -10.1860   -3.3255 H   0  0  0  0  0  0  0  0  0  0  0  0
   -4.6568   -4.9945   -1.3307 H   0  0  0  0  0  0  0  0  0  0  0  0
   -6.1380   -2.1969   -1.7033 H   0  0  0  0  0  0  0  0  0  0  0  0
  -12.2384   -0.1270   -1.0366 H   0  0  0  0  0  0  0  0  0  0  0  0
  -11.2831    1.0514   -0.0737 H   0  0  0  0  0  0  0  0  0  0  0  0
  -11.2966   -2.0021    0.3721 H   0  0  0  0  0  0  0  0  0  0  0  0
  -12.2002   -0.7964    1.3429 H   0  0  0  0  0  0  0  0  0  0  0  0
  -10.3807   -0.7949    1.3499 H   0  0  0  0  0  0  0  0  0  0  0  0
    1.3354    1.7226   -6.8514 H   0  0  0  0  0  0  0  0  0  0  0  0
    1.4502    1.3094   -5.1103 H   0  0  0  0  0  0  0  0  0  0  0  0
    1.0083    3.6622   -4.4745 H   0  0  0  0  0  0  0  0  0  0  0  0
    0.7452    4.1167   -6.2098 H   0  0  0  0  0  0  0  0  0  0  0  0
    2.3777    3.5911   -5.6489 H   0  0  0  0  0  0  0  0  0  0  0  0
   -4.3418    3.6725   -5.1784 H   0  0  0  0  0  0  0  0  0  0  0  0
   -9.0634    7.4892   -1.1971 H   0  0  0  0  0  0  0  0  0  0  0  0
   -4.2223    8.7914   -3.1648 H   0  0  0  0  0  0  0  0  0  0  0  0
   -3.5613    7.6013   -5.9084 H   0  0  0  0  0  0  0  0  0  0  0  0
   -2.2675    7.3496   -2.5005 H   0  0  0  0  0  0  0  0  0  0  0  0
   -1.8605    6.8263    3.3718 H   0  0  0  0  0  0  0  0  0  0  0  0
   -2.5117    8.1680    2.3724 H   0  0  0  0  0  0  0  0  0  0  0  0
   -4.4785    6.9693    2.8857 H   0  0  0  0  0  0  0  0  0  0  0  0
   -3.6471    5.3670    2.8114 H   0  0  0  0  0  0  0  0  0  0  0  0
   -4.0573    6.2416    1.2856 H   0  0  0  0  0  0  0  0  0  0  0  0
    5.8922    8.2153   -8.9562 H   0  0  0  0  0  0  0  0  0  0  0  0
    5.3764    6.5025   -8.8877 H   0  0  0  0  0  0  0  0  0  0  0  0
    3.8622    8.7884  -10.3410 H   0  0  0  0  0  0  0  0  0  0  0  0
    3.3771    7.0345  -10.2991 H   0  0  0  0  0  0  0  0  0  0  0  0
    4.9108    7.5308  -11.1159 H   0  0  0  0  0  0  0  0  0  0  0  0
    4.3488    6.0294   -4.6071 H   0  0  0  0  0  0  0  0  0  0  0  0
    5.2597    4.0889   -0.2175 H   0  0  0  0  0  0  0  0  0  0  0  0
    3.8723    1.9263    4.1321 H   0  0  0  0  0  0  0  0  0  0  0  0
    5.2371    1.8247    5.2812 H   0  0  0  0  0  0  0  0  0  0  0  0
    4.3486   -0.5216    3.4668 H   0  0  0  0  0  0  0  0  0  0  0  0
    3.8577   -0.2970    5.1764 H   0  0  0  0  0  0  0  0  0  0  0  0
    5.6013   -0.5557    4.7688 H   0  0  0  0  0  0  0  0  0  0  0  0
    8.9438    2.2856   -9.2094 H   0  0  0  0  0  0  0  0  0  0  0  0
    9.7113    3.6218   -8.2782 H   0  0  0  0  0  0  0  0  0  0  0  0
    7.9140    4.5960   -9.6032 H   0  0  0  0  0  0  0  0  0  0  0  0
    6.7258    3.3693   -8.9978 H   0  0  0  0  0  0  0  0  0  0  0  0
    7.3951    4.6193   -7.8747 H   0  0  0  0  0  0  0  0  0  0  0  0
    9.5680   -0.4673   -3.5880 H   0  0  0  0  0  0  0  0  0  0  0  0
   10.1542   -1.8399   -1.4474 H   0  0  0  0  0  0  0  0  0  0  0  0
  1  2  2  0
  2  3  1  0
  3  4  2  0
  4  5  1  0
  5  6  1  0
  6  7  1  0
  7  8  1  0
  8  9  1  0
  7 10  2  0
 10 11  1  0
 10 12  1  0
 12 13  1  0
  4 14  1  0
 14 15  2  0
 15 16  1  0
 16 17  1  0
 17 18  1  0
 18 19  1  0
 19 20  1  0
 20 21  1  0
 19 22  2  0
 22 23  1  0
 23 24  1  0
 22 25  1  0
 16 26  2  0
 26 27  1  0
 15 28  1  0
 28 29  2  0
 29 30  1  0
 29 31  1  0
 31 32  2  0
 32 33  1  0
 33 34  2  0
 34 35  1  0
 35 36  1  0
 36 37  1  0
 37 38  1  0
 38 39  1  0
 37 40  2  0
 40 41  1  0
 40 42  1  0
 42 43  1  0
 34 44  1  0
 44 45  2  0
 45 46  1  0
 46 47  1  0
 47 48  1  0
 48 49  1  0
 49 50  1  0
 50 51  1  0
 49 52  2  0
 52 53  1  0
 53 54  1  0
 52 55  1  0
 46 56  2  0
 56 57  1  0
 45 58  1  0
 58 59  2  0
 59 60  1  0
 59 61  1  0
 61 62  2  0
 62 63  1  0
 63 64  2  0
 64 65  1  0
 65 66  1  0
 66 67  1  0
 67 68  1  0
 68 69  1  0
 67 70  2  0
 70 71  1  0
 70 72  1  0
 72 73  1  0
 64 74  1  0
 74 75  2  0
 75 76  1  0
 76 77  1  0
 77 78  1  0
 78 79  1  0
 79 80  1  0
 80 81  1  0
 79 82  2  0
 82 83  1  0
 83 84  1  0
 82 85  1  0
 76 86  2  0
 86 87  1  0
 75 88  1  0
 88 89  2  0
 89 90  1  0
 89 91  1  0
 91 92  1  0
 91 93  2  0
 93 94  1  0
 94 95  2  0
 94 96  1  0
 96 97  1  0
 97 98  2  0
 97 99  1  0
 99100  2  0
100101  1  0
101102  2  3
102103  1  0
103104  2  0
104105  1  0
105106  2  0
106107  1  0
107108  1  0
108109  1  0
109110  1  0
110111  1  0
109112  2  0
112113  1  0
112114  1  0
114115  1  0
106116  1  0
116117  2  0
117118  1  0
118119  1  0
119120  1  0
120121  1  0
121122  1  0
122123  1  0
121124  2  0
124125  1  0
125126  1  0
124127  1  0
118128  2  0
128129  1  0
117130  1  0
130131  2  0
131132  1  0
131133  1  0
133134  2  0
134135  1  0
135136  2  0
136137  1  0
137138  1  0
138139  1  0
139140  1  0
140141  1  0
139142  2  0
142143  1  0
142144  1  0
144145  1  0
136146  1  0
146147  2  0
147148  1  0
148149  1  0
149150  1  0
150151  1  0
151152  1  0
152153  1  0
151154  2  0
154155  1  0
155156  1  0
154157  1  0
148158  2  0
158159  1  0
147160  1  0
160161  2  0
161162  1  0
 27  1  1  0
 57 31  1  0
 87 61  1  0
100 92  1  0
129103  1  0
159133  1  0
 26  3  1  0
 56 33  1  0
 86 63  1  0
 99 93  1  0
128105  1  0
158135  1  0
 12  5  2  0
 30 14  1  0
 42 35  2  0
 60 44  1  0
 72 65  2  0
 90 74  1  0
114107  2  0
132116  1  0
144137  2  0
162146  1  0
 23 17  2  0
 53 47  2  0
 83 77  2  0
125119  2  0
155149  2  0
  1163  1  0
  2164  1  0
  8165  1  0
  8166  1  0
  9167  1  0
  9168  1  0
  9169  1  0
 20170  1  0
 20171  1  0
 21172  1  0
 21173  1  0
 21174  1  0
 28175  1  0
 32176  1  0
 38177  1  0
 38178  1  0
 39179  1  0
 39180  1  0
 39181  1  0
 50182  1  0
 50183  1  0
 51184  1  0
 51185  1  0
 51186  1  0
 58187  1  0
 62188  1  0
 68189  1  0
 68190  1  0
 69191  1  0
 69192  1  0
 69193  1  0
 80194  1  0
 80195  1  0
 81196  1  0
 81197  1  0
 81198  1  0
 88199  1  0
 96200  1  0
101201  1  0
102202  1  0
104203  1  0
110204  1  0
110205  1  0
111206  1  0
111207  1  0
111208  1  0
122209  1  0
122210  1  0
123211  1  0
123212  1  0
123213  1  0
130214  1  0
134215  1  0
140216  1  0
140217  1  0
141218  1  0
141219  1  0
141220  1  0
152221  1  0
152222  1  0
153223  1  0
153224  1  0
153225  1  0
160226  1  0
161227  1  0
M  END

