
     RDKit          3D

247274  0  0  0  0  0  0  0  0999 V2000
   10.4970    1.4966   -0.6454 C   0  0  0  0  0  0  0  0  0  0  0  0
   10.4420    0.6347   -1.7364 C   0  0  0  0  0  0  0  0  0  0  0  0
    9.1441    0.1764   -2.0139 C   0  0  0  0  0  0  0  0  0  0  0  0
    8.7657   -0.6862   -3.0634 C   0  0  0  0  0  0  0  0  0  0  0  0
    9.7326   -1.1855   -4.0555 C   0  0  0  0  0  0  0  0  0  0  0  0
   10.1107   -2.8071   -4.2973 S   0  0  0  0  0  0  0  0  0  0  0  0
   11.1449   -2.5576   -5.5990 C   0  0  0  0  0  0  0  0  0  0  0  0
   11.7964   -3.6527   -6.3886 C   0  0  0  0  0  0  0  0  0  0  0  0
   10.8849   -4.1155   -7.5188 C   0  0  0  0  0  0  0  0  0  0  0  0
   11.1798   -1.1935   -5.8864 C   0  0  0  0  0  0  0  0  0  0  0  0
   12.0830   -0.5061   -7.2285 Cl  0  0  0  0  0  0  0  0  0  0  0  0
   10.3931   -0.4235   -5.0162 C   0  0  0  0  0  0  0  0  0  0  0  0
   10.1952    1.3157   -5.1765 Cl  0  0  0  0  0  0  0  0  0  0  0  0
    7.4045   -1.0224   -3.1509 C   0  0  0  0  0  0  0  0  0  0  0  0
    6.4467   -0.5215   -2.2626 C   0  0  0  0  0  0  0  0  0  0  0  0
    6.8208    0.3505   -1.2216 C   0  0  0  0  0  0  0  0  0  0  0  0
    5.8299    0.9531   -0.3130 C   0  0  0  0  0  0  0  0  0  0  0  0
    4.6901    2.0995   -0.7705 S   0  0  0  0  0  0  0  0  0  0  0  0
    4.0483    2.3360    0.7654 C   0  0  0  0  0  0  0  0  0  0  0  0
    2.9365    3.2917    1.0844 C   0  0  0  0  0  0  0  0  0  0  0  0
    1.5876    2.5897    1.0507 C   0  0  0  0  0  0  0  0  0  0  0  0
    4.7060    1.4919    1.6594 C   0  0  0  0  0  0  0  0  0  0  0  0
    5.7178    0.7277    1.0557 C   0  0  0  0  0  0  0  0  0  0  0  0
    6.7095   -0.4298    1.9317 Cl  0  0  0  0  0  0  0  0  0  0  0  0
    4.3113    1.3879    3.3680 Cl  0  0  0  0  0  0  0  0  0  0  0  0
    8.1851    0.6711   -1.1241 C   0  0  0  0  0  0  0  0  0  0  0  0
    8.9412    1.6906   -0.0202 S   0  0  0  0  0  0  0  0  0  0  0  0
    5.1451   -0.9475   -2.5645 C   0  0  0  0  0  0  0  0  0  0  0  0
    5.0899   -1.7715   -3.6864 C   0  0  0  0  0  0  0  0  0  0  0  0
    6.6398   -1.9524   -4.3252 S   0  0  0  0  0  0  0  0  0  0  0  0
    3.8529   -2.2251   -4.3273 C   0  0  0  0  0  0  0  0  0  0  0  0
    3.6118   -2.1615   -5.6965 C   0  0  0  0  0  0  0  0  0  0  0  0
    2.2487   -2.2796   -6.0165 C   0  0  0  0  0  0  0  0  0  0  0  0
    1.6660   -1.9886   -7.2684 C   0  0  0  0  0  0  0  0  0  0  0  0
    2.4703   -1.5205   -8.4093 C   0  0  0  0  0  0  0  0  0  0  0  0
    2.6026   -2.3241   -9.8796 S   0  0  0  0  0  0  0  0  0  0  0  0
    3.6387   -1.2116  -10.5960 C   0  0  0  0  0  0  0  0  0  0  0  0
    4.2435   -1.3656  -11.9586 C   0  0  0  0  0  0  0  0  0  0  0  0
    5.6253   -2.0018  -11.8654 C   0  0  0  0  0  0  0  0  0  0  0  0
    3.8967   -0.1884   -9.6861 C   0  0  0  0  0  0  0  0  0  0  0  0
    4.9488    1.1779  -10.0300 Cl  0  0  0  0  0  0  0  0  0  0  0  0
    3.2338   -0.3574   -8.4620 C   0  0  0  0  0  0  0  0  0  0  0  0
    3.3409    0.7942   -7.1378 Cl  0  0  0  0  0  0  0  0  0  0  0  0
    0.2622   -1.9586   -7.3244 C   0  0  0  0  0  0  0  0  0  0  0  0
   -0.5383   -2.2482   -6.2162 C   0  0  0  0  0  0  0  0  0  0  0  0
    0.0458   -2.5728   -4.9727 C   0  0  0  0  0  0  0  0  0  0  0  0
   -0.7781   -2.6957   -3.7550 C   0  0  0  0  0  0  0  0  0  0  0  0
   -0.8639   -1.5277   -2.5447 S   0  0  0  0  0  0  0  0  0  0  0  0
   -2.1700   -2.2066   -1.7319 C   0  0  0  0  0  0  0  0  0  0  0  0
   -2.8715   -1.5632   -0.5776 C   0  0  0  0  0  0  0  0  0  0  0  0
   -3.8322   -0.4848   -1.0625 C   0  0  0  0  0  0  0  0  0  0  0  0
   -2.5743   -3.3527   -2.4135 C   0  0  0  0  0  0  0  0  0  0  0  0
   -1.7942   -3.6256   -3.5460 C   0  0  0  0  0  0  0  0  0  0  0  0
   -2.1051   -4.9749   -4.6285 Cl  0  0  0  0  0  0  0  0  0  0  0  0
   -3.9655   -4.3199   -1.9436 Cl  0  0  0  0  0  0  0  0  0  0  0  0
    1.4441   -2.5343   -4.9010 C   0  0  0  0  0  0  0  0  0  0  0  0
    2.4008   -2.5146   -3.5183 S   0  0  0  0  0  0  0  0  0  0  0  0
   -1.8806   -1.8789   -6.3926 C   0  0  0  0  0  0  0  0  0  0  0  0
   -2.1301   -1.1760   -7.5738 C   0  0  0  0  0  0  0  0  0  0  0  0
   -0.6876   -1.1568   -8.4631 S   0  0  0  0  0  0  0  0  0  0  0  0
   -3.0307   -0.0126   -7.5103 C   0  0  0  0  0  0  0  0  0  0  0  0
   -2.4630    1.2356   -7.2413 C   0  0  0  0  0  0  0  0  0  0  0  0
   -3.1401    1.9603   -6.2500 C   0  0  0  0  0  0  0  0  0  0  0  0
   -2.5990    3.0325   -5.5143 C   0  0  0  0  0  0  0  0  0  0  0  0
   -1.3499    3.7058   -5.9087 C   0  0  0  0  0  0  0  0  0  0  0  0
    0.1865    3.0161   -5.8761 S   0  0  0  0  0  0  0  0  0  0  0  0
    0.9859    4.3578   -6.5077 C   0  0  0  0  0  0  0  0  0  0  0  0
    2.4442    4.3946   -6.8484 C   0  0  0  0  0  0  0  0  0  0  0  0
    2.6688    4.0537   -8.3184 C   0  0  0  0  0  0  0  0  0  0  0  0
    0.0509    5.3579   -6.7709 C   0  0  0  0  0  0  0  0  0  0  0  0
    0.4585    6.9069   -7.4929 Cl  0  0  0  0  0  0  0  0  0  0  0  0
   -1.2577    4.9952   -6.4232 C   0  0  0  0  0  0  0  0  0  0  0  0
   -2.6529    6.0357   -6.6688 Cl  0  0  0  0  0  0  0  0  0  0  0  0
   -3.2512    3.3751   -4.3222 C   0  0  0  0  0  0  0  0  0  0  0  0
   -4.4464    2.7725   -3.9154 C   0  0  0  0  0  0  0  0  0  0  0  0
   -5.0651    1.7972   -4.7298 C   0  0  0  0  0  0  0  0  0  0  0  0
   -6.3863    1.2136   -4.4191 C   0  0  0  0  0  0  0  0  0  0  0  0
   -6.8146    0.4264   -2.9943 S   0  0  0  0  0  0  0  0  0  0  0  0
   -8.4257    0.1665   -3.4029 C   0  0  0  0  0  0  0  0  0  0  0  0
   -9.4581   -0.3800   -2.4650 C   0  0  0  0  0  0  0  0  0  0  0  0
  -10.1247    0.7473   -1.6849 C   0  0  0  0  0  0  0  0  0  0  0  0
   -8.6576    0.7117   -4.6634 C   0  0  0  0  0  0  0  0  0  0  0  0
   -7.5127    1.2877   -5.2371 C   0  0  0  0  0  0  0  0  0  0  0  0
   -7.5269    2.0990   -6.7986 Cl  0  0  0  0  0  0  0  0  0  0  0  0
  -10.2361    0.7250   -5.4404 Cl  0  0  0  0  0  0  0  0  0  0  0  0
   -4.3449    1.3728   -5.8612 C   0  0  0  0  0  0  0  0  0  0  0  0
   -4.5024   -0.0934   -6.6718 S   0  0  0  0  0  0  0  0  0  0  0  0
   -4.8268    3.1436   -2.6144 C   0  0  0  0  0  0  0  0  0  0  0  0
   -3.9112    3.9957   -2.0016 C   0  0  0  0  0  0  0  0  0  0  0  0
   -2.6430    4.3136   -3.0663 S   0  0  0  0  0  0  0  0  0  0  0  0
   -3.8259    4.1977   -0.5524 C   0  0  0  0  0  0  0  0  0  0  0  0
   -3.2295    3.1559    0.1914 C   0  0  0  0  0  0  0  0  0  0  0  0
   -3.1882    3.1787    1.6013 C   0  0  0  0  0  0  0  0  0  0  0  0
   -3.7326    4.2777    2.2864 C   0  0  0  0  0  0  0  0  0  0  0  0
   -4.2869    5.3154    1.5405 C   0  0  0  0  0  0  0  0  0  0  0  0
   -4.3482    5.3118    0.1546 C   0  0  0  0  0  0  0  0  0  0  0  0
   -4.9338    6.4701   -0.3032 N   0  0  0  0  0  0  0  0  0  0  0  0
   -5.2278    7.1774    0.8322 C   0  0  0  0  0  0  0  0  0  0  0  0
   -4.8469    6.4889    1.9647 C   0  0  0  0  0  0  0  0  0  0  0  0
   -5.0278    6.9956    3.2515 C   0  0  0  0  0  0  0  0  0  0  0  0
   -5.6256    8.2559    3.3834 C   0  0  0  0  0  0  0  0  0  0  0  0
   -6.0133    8.9800    2.2394 C   0  0  0  0  0  0  0  0  0  0  0  0
   -5.8145    8.4489    0.9519 C   0  0  0  0  0  0  0  0  0  0  0  0
   -5.1492    6.9138   -1.7036 C   0  0  0  0  0  0  0  0  0  0  0  0
   -4.3500    8.2061   -2.0062 C   0  0  0  0  0  0  0  0  0  0  0  0
   -3.9519    8.3195   -3.4799 C   0  0  0  0  0  0  0  0  0  0  0  0
   -6.6523    7.0461   -2.0391 C   0  0  0  0  0  0  0  0  0  0  0  0
   -7.3644    5.6965   -1.9966 C   0  0  0  0  0  0  0  0  0  0  0  0
   -2.6059    2.0384    2.3449 C   0  0  0  0  0  0  0  0  0  0  0  0
   -3.0028    1.5948    3.6087 C   0  0  0  0  0  0  0  0  0  0  0  0
   -2.3309    0.4304    4.0206 C   0  0  0  0  0  0  0  0  0  0  0  0
   -2.5492   -0.2819    5.2210 C   0  0  0  0  0  0  0  0  0  0  0  0
   -3.5198    0.1700    6.2313 C   0  0  0  0  0  0  0  0  0  0  0  0
   -4.8995   -0.6830    6.6754 S   0  0  0  0  0  0  0  0  0  0  0  0
   -5.4674    0.4548    7.7739 C   0  0  0  0  0  0  0  0  0  0  0  0
   -6.7692    0.3523    8.5068 C   0  0  0  0  0  0  0  0  0  0  0  0
   -7.8826    1.0201    7.7089 C   0  0  0  0  0  0  0  0  0  0  0  0
   -4.5853    1.5343    7.7972 C   0  0  0  0  0  0  0  0  0  0  0  0
   -4.8287    2.9673    8.7850 Cl  0  0  0  0  0  0  0  0  0  0  0  0
   -3.4888    1.3714    6.9371 C   0  0  0  0  0  0  0  0  0  0  0  0
   -2.1918    2.5527    6.7911 Cl  0  0  0  0  0  0  0  0  0  0  0  0
   -1.8177   -1.4696    5.3962 C   0  0  0  0  0  0  0  0  0  0  0  0
   -0.9086   -1.9407    4.4444 C   0  0  0  0  0  0  0  0  0  0  0  0
   -0.6911   -1.2317    3.2495 C   0  0  0  0  0  0  0  0  0  0  0  0
    0.2385   -1.7269    2.2207 C   0  0  0  0  0  0  0  0  0  0  0  0
    1.7773   -1.1128    1.9539 S   0  0  0  0  0  0  0  0  0  0  0  0
    2.2404   -2.2678    0.8236 C   0  0  0  0  0  0  0  0  0  0  0  0
    3.6147   -2.3775    0.2446 C   0  0  0  0  0  0  0  0  0  0  0  0
    4.5067   -3.2539    1.1145 C   0  0  0  0  0  0  0  0  0  0  0  0
    1.1930   -3.1697    0.6555 C   0  0  0  0  0  0  0  0  0  0  0  0
    0.0733   -2.8713    1.4469 C   0  0  0  0  0  0  0  0  0  0  0  0
   -1.3620   -3.8839    1.5085 Cl  0  0  0  0  0  0  0  0  0  0  0  0
    1.2733   -4.5661   -0.4104 Cl  0  0  0  0  0  0  0  0  0  0  0  0
   -1.4125   -0.0407    3.0750 C   0  0  0  0  0  0  0  0  0  0  0  0
   -1.4258    0.9868    1.7466 S   0  0  0  0  0  0  0  0  0  0  0  0
   -0.2680   -3.1278    4.8283 C   0  0  0  0  0  0  0  0  0  0  0  0
   -0.6749   -3.5842    6.0813 C   0  0  0  0  0  0  0  0  0  0  0  0
   -1.8227   -2.5183    6.7155 S   0  0  0  0  0  0  0  0  0  0  0  0
   -0.1717   -4.7988    6.7421 C   0  0  0  0  0  0  0  0  0  0  0  0
   -0.4910   -5.2266    8.0309 C   0  0  0  0  0  0  0  0  0  0  0  0
    0.1514   -6.4265    8.3847 C   0  0  0  0  0  0  0  0  0  0  0  0
    0.0298   -7.1166    9.6092 C   0  0  0  0  0  0  0  0  0  0  0  0
   -0.8551   -6.6467   10.6905 C   0  0  0  0  0  0  0  0  0  0  0  0
   -0.3413   -6.2070   12.2306 S   0  0  0  0  0  0  0  0  0  0  0  0
   -1.8738   -5.8836   12.8443 C   0  0  0  0  0  0  0  0  0  0  0  0
   -2.1499   -5.3799   14.2297 C   0  0  0  0  0  0  0  0  0  0  0  0
   -2.2158   -3.8576   14.2450 C   0  0  0  0  0  0  0  0  0  0  0  0
   -2.8143   -6.1083   11.8402 C   0  0  0  0  0  0  0  0  0  0  0  0
   -4.5424   -5.8771   12.0591 Cl  0  0  0  0  0  0  0  0  0  0  0  0
   -2.2435   -6.5460   10.6359 C   0  0  0  0  0  0  0  0  0  0  0  0
   -3.1916   -6.9832    9.2216 Cl  0  0  0  0  0  0  0  0  0  0  0  0
    0.7938   -8.2890    9.7541 C   0  0  0  0  0  0  0  0  0  0  0  0
    1.6236   -8.7825    8.7420 C   0  0  0  0  0  0  0  0  0  0  0  0
    1.7264   -8.1052    7.5101 C   0  0  0  0  0  0  0  0  0  0  0  0
    2.5490   -8.6156    6.3996 C   0  0  0  0  0  0  0  0  0  0  0  0
    3.8567   -7.8049    5.7190 S   0  0  0  0  0  0  0  0  0  0  0  0
    4.1540   -8.9302    4.5041 C   0  0  0  0  0  0  0  0  0  0  0  0
    5.2528   -8.8188    3.4899 C   0  0  0  0  0  0  0  0  0  0  0  0
    6.4385   -9.6951    3.8767 C   0  0  0  0  0  0  0  0  0  0  0  0
    3.2272   -9.9654    4.6181 C   0  0  0  0  0  0  0  0  0  0  0  0
    2.3245   -9.7853    5.6788 C   0  0  0  0  0  0  0  0  0  0  0  0
    1.0005  -10.8945    6.0163 Cl  0  0  0  0  0  0  0  0  0  0  0  0
    3.1718  -11.3458    3.5301 Cl  0  0  0  0  0  0  0  0  0  0  0  0
    0.9852   -6.9194    7.3738 C   0  0  0  0  0  0  0  0  0  0  0  0
    0.9056   -5.8949    6.0439 S   0  0  0  0  0  0  0  0  0  0  0  0
    2.2974   -9.9591    9.1058 C   0  0  0  0  0  0  0  0  0  0  0  0
    1.9814  -10.3975   10.3878 C   0  0  0  0  0  0  0  0  0  0  0  0
    0.8743   -9.3266   11.0753 S   0  0  0  0  0  0  0  0  0  0  0  0
   11.3936    1.9657   -0.2623 H   0  0  0  0  0  0  0  0  0  0  0  0
   11.3182    0.3584   -2.3083 H   0  0  0  0  0  0  0  0  0  0  0  0
   12.7587   -3.2939   -6.8104 H   0  0  0  0  0  0  0  0  0  0  0  0
   12.0189   -4.5105   -5.7194 H   0  0  0  0  0  0  0  0  0  0  0  0
   11.3879   -4.9153   -8.1005 H   0  0  0  0  0  0  0  0  0  0  0  0
    9.9389   -4.5207   -7.1027 H   0  0  0  0  0  0  0  0  0  0  0  0
   10.6535   -3.2698   -8.2024 H   0  0  0  0  0  0  0  0  0  0  0  0
    2.9345    4.1149    0.3389 H   0  0  0  0  0  0  0  0  0  0  0  0
    3.0957    3.7443    2.0873 H   0  0  0  0  0  0  0  0  0  0  0  0
    1.5404    1.8161    1.8435 H   0  0  0  0  0  0  0  0  0  0  0  0
    1.4180    2.1165    0.0598 H   0  0  0  0  0  0  0  0  0  0  0  0
    0.7793    3.3297    1.2346 H   0  0  0  0  0  0  0  0  0  0  0  0
    4.2643   -0.6155   -2.0351 H   0  0  0  0  0  0  0  0  0  0  0  0
    4.3798   -1.9089   -6.4154 H   0  0  0  0  0  0  0  0  0  0  0  0
    4.3192   -0.3762  -12.4559 H   0  0  0  0  0  0  0  0  0  0  0  0
    3.5875   -2.0111  -12.5802 H   0  0  0  0  0  0  0  0  0  0  0  0
    5.5636   -2.9937  -11.3661 H   0  0  0  0  0  0  0  0  0  0  0  0
    6.0395   -2.1393  -12.8862 H   0  0  0  0  0  0  0  0  0  0  0  0
    6.3141   -1.3480  -11.2869 H   0  0  0  0  0  0  0  0  0  0  0  0
   -2.1151   -1.1146    0.0900 H   0  0  0  0  0  0  0  0  0  0  0  0
   -3.4309   -2.3239    0.0084 H   0  0  0  0  0  0  0  0  0  0  0  0
   -4.3300   -0.0103   -0.1897 H   0  0  0  0  0  0  0  0  0  0  0  0
   -4.6070   -0.9405   -1.7108 H   0  0  0  0  0  0  0  0  0  0  0  0
   -3.2887    0.2965   -1.6353 H   0  0  0  0  0  0  0  0  0  0  0  0
   -2.5907   -1.8933   -5.5784 H   0  0  0  0  0  0  0  0  0  0  0  0
   -1.4606    1.4863   -7.5588 H   0  0  0  0  0  0  0  0  0  0  0  0
    2.9874    3.6670   -6.2110 H   0  0  0  0  0  0  0  0  0  0  0  0
    2.8566    5.4031   -6.6369 H   0  0  0  0  0  0  0  0  0  0  0  0
    2.1872    3.0864   -8.5785 H   0  0  0  0  0  0  0  0  0  0  0  0
    2.2487    4.8489   -8.9697 H   0  0  0  0  0  0  0  0  0  0  0  0
    3.7560    3.9680   -8.5152 H   0  0  0  0  0  0  0  0  0  0  0  0
  -10.2294   -0.9410   -3.0368 H   0  0  0  0  0  0  0  0  0  0  0  0
   -8.9766   -1.0844   -1.7560 H   0  0  0  0  0  0  0  0  0  0  0  0
   -9.3686    1.3180   -1.1041 H   0  0  0  0  0  0  0  0  0  0  0  0
  -10.6503    1.4347   -2.3799 H   0  0  0  0  0  0  0  0  0  0  0  0
  -10.8670    0.3214   -0.9787 H   0  0  0  0  0  0  0  0  0  0  0  0
   -5.6777    2.7414   -2.0874 H   0  0  0  0  0  0  0  0  0  0  0  0
   -2.8235    2.3036   -0.3359 H   0  0  0  0  0  0  0  0  0  0  0  0
   -3.7109    4.3347    3.3671 H   0  0  0  0  0  0  0  0  0  0  0  0
   -4.7192    6.4359    4.1259 H   0  0  0  0  0  0  0  0  0  0  0  0
   -5.7854    8.6745    4.3680 H   0  0  0  0  0  0  0  0  0  0  0  0
   -6.4678    9.9558    2.3526 H   0  0  0  0  0  0  0  0  0  0  0  0
   -6.1148    9.0342    0.1030 H   0  0  0  0  0  0  0  0  0  0  0  0
   -4.7656    6.1674   -2.4013 H   0  0  0  0  0  0  0  0  0  0  0  0
   -4.9337    9.1105   -1.7430 H   0  0  0  0  0  0  0  0  0  0  0  0
   -3.4173    8.2124   -1.4014 H   0  0  0  0  0  0  0  0  0  0  0  0
   -3.3358    9.2302   -3.6291 H   0  0  0  0  0  0  0  0  0  0  0  0
   -4.8519    8.3929   -4.1246 H   0  0  0  0  0  0  0  0  0  0  0  0
   -3.3544    7.4363   -3.7913 H   0  0  0  0  0  0  0  0  0  0  0  0
   -7.1639    7.7345   -1.3443 H   0  0  0  0  0  0  0  0  0  0  0  0
   -6.7719    7.4591   -3.0642 H   0  0  0  0  0  0  0  0  0  0  0  0
   -6.9556    5.0216   -2.7756 H   0  0  0  0  0  0  0  0  0  0  0  0
   -8.4470    5.8430   -2.1852 H   0  0  0  0  0  0  0  0  0  0  0  0
   -7.2447    5.2280   -0.9969 H   0  0  0  0  0  0  0  0  0  0  0  0
   -3.7849    2.0698    4.1862 H   0  0  0  0  0  0  0  0  0  0  0  0
   -7.0247   -0.7174    8.6614 H   0  0  0  0  0  0  0  0  0  0  0  0
   -6.6840    0.8284    9.5065 H   0  0  0  0  0  0  0  0  0  0  0  0
   -7.6488    2.0930    7.5387 H   0  0  0  0  0  0  0  0  0  0  0  0
   -8.8366    0.9562    8.2752 H   0  0  0  0  0  0  0  0  0  0  0  0
   -8.0182    0.5086    6.7311 H   0  0  0  0  0  0  0  0  0  0  0  0
    4.0609   -1.3669    0.1810 H   0  0  0  0  0  0  0  0  0  0  0  0
    3.5646   -2.8029   -0.7780 H   0  0  0  0  0  0  0  0  0  0  0  0
    4.0941   -4.2838    1.1769 H   0  0  0  0  0  0  0  0  0  0  0  0
    5.5235   -3.3013    0.6718 H   0  0  0  0  0  0  0  0  0  0  0  0
    4.5844   -2.8280    2.1376 H   0  0  0  0  0  0  0  0  0  0  0  0
    0.4762   -3.6327    4.2269 H   0  0  0  0  0  0  0  0  0  0  0  0
   -1.1594   -4.6841    8.6851 H   0  0  0  0  0  0  0  0  0  0  0  0
   -3.1094   -5.7987   14.6009 H   0  0  0  0  0  0  0  0  0  0  0  0
   -1.3430   -5.7184   14.9130 H   0  0  0  0  0  0  0  0  0  0  0  0
   -1.2579   -3.4237   13.8865 H   0  0  0  0  0  0  0  0  0  0  0  0
   -2.3991   -3.5027   15.2817 H   0  0  0  0  0  0  0  0  0  0  0  0
   -3.0438   -3.5005   13.5964 H   0  0  0  0  0  0  0  0  0  0  0  0
    5.5894   -7.7623    3.4230 H   0  0  0  0  0  0  0  0  0  0  0  0
    4.8764   -9.1193    2.4898 H   0  0  0  0  0  0  0  0  0  0  0  0
    6.1409  -10.7659    3.8937 H   0  0  0  0  0  0  0  0  0  0  0  0
    6.8189   -9.4074    4.8812 H   0  0  0  0  0  0  0  0  0  0  0  0
    7.2529   -9.5662    3.1355 H   0  0  0  0  0  0  0  0  0  0  0  0
    2.9979  -10.4795    8.4649 H   0  0  0  0  0  0  0  0  0  0  0  0
    2.3826  -11.2812   10.8647 H   0  0  0  0  0  0  0  0  0  0  0  0
  1  2  2  0
  2  3  1  0
  3  4  2  0
  4  5  1  0
  5  6  1  0
  6  7  1  0
  7  8  1  0
  8  9  1  0
  7 10  2  0
 10 11  1  0
 10 12  1  0
 12 13  1  0
  4 14  1  0
 14 15  2  0
 15 16  1  0
 16 17  1  0
 17 18  1  0
 18 19  1  0
 19 20  1  0
 20 21  1  0
 19 22  2  0
 22 23  1  0
 23 24  1  0
 22 25  1  0
 16 26  2  0
 26 27  1  0
 15 28  1  0
 28 29  2  0
 29 30  1  0
 29 31  1  0
 31 32  2  0
 32 33  1  0
 33 34  2  0
 34 35  1  0
 35 36  1  0
 36 37  1  0
 37 38  1  0
 38 39  1  0
 37 40  2  0
 40 41  1  0
 40 42  1  0
 42 43  1  0
 34 44  1  0
 44 45  2  0
 45 46  1  0
 46 47  1  0
 47 48  1  0
 48 49  1  0
 49 50  1  0
 50 51  1  0
 49 52  2  0
 52 53  1  0
 53 54  1  0
 52 55  1  0
 46 56  2  0
 56 57  1  0
 45 58  1  0
 58 59  2  0
 59 60  1  0
 59 61  1  0
 61 62  2  0
 62 63  1  0
 63 64  2  0
 64 65  1  0
 65 66  1  0
 66 67  1  0
 67 68  1  0
 68 69  1  0
 67 70  2  0
 70 71  1  0
 70 72  1  0
 72 73  1  0
 64 74  1  0
 74 75  2  0
 75 76  1  0
 76 77  1  0
 77 78  1  0
 78 79  1  0
 79 80  1  0
 80 81  1  0
 79 82  2  0
 82 83  1  0
 83 84  1  0
 82 85  1  0
 76 86  2  0
 86 87  1  0
 75 88  1  0
 88 89  2  0
 89 90  1  0
 89 91  1  0
 91 92  2  0
 92 93  1  0
 93 94  2  0
 94 95  1  0
 95 96  2  0
 96 97  1  0
 97 98  1  0
 98 99  2  0
 99100  1  0
100101  2  0
101102  1  0
102103  2  0
 97104  1  0
104105  1  0
105106  1  0
104107  1  0
107108  1  0
 93109  1  0
109110  2  0
110111  1  0
111112  2  0
112113  1  0
113114  1  0
114115  1  0
115116  1  0
116117  1  0
115118  2  0
118119  1  0
118120  1  0
120121  1  0
112122  1  0
122123  2  0
123124  1  0
124125  1  0
125126  1  0
126127  1  0
127128  1  0
128129  1  0
127130  2  0
130131  1  0
131132  1  0
130133  1  0
124134  2  0
134135  1  0
123136  1  0
136137  2  0
137138  1  0
137139  1  0
139140  2  0
140141  1  0
141142  2  0
142143  1  0
143144  1  0
144145  1  0
145146  1  0
146147  1  0
145148  2  0
148149  1  0
148150  1  0
150151  1  0
142152  1  0
152153  2  0
153154  1  0
154155  1  0
155156  1  0
156157  1  0
157158  1  0
158159  1  0
157160  2  0
160161  1  0
161162  1  0
160163  1  0
154164  2  0
164165  1  0
153166  1  0
166167  2  0
167168  1  0
 27  1  1  0
 57 31  1  0
 87 61  1  0
 96 91  1  0
103 98  1  0
135109  1  0
165139  1  0
 26  3  1  0
 56 33  1  0
 86 63  1  0
 99 95  1  0
134111  1  0
164141  1  0
 12  5  2  0
 30 14  1  0
 42 35  2  0
 60 44  1  0
 72 65  2  0
 90 74  1  0
120113  2  0
138122  1  0
150143  2  0
168152  1  0
 23 17  2  0
 53 47  2  0
 83 77  2  0
131125  2  0
161155  2  0
  1169  1  0
  2170  1  0
  8171  1  0
  8172  1  0
  9173  1  0
  9174  1  0
  9175  1  0
 20176  1  0
 20177  1  0
 21178  1  0
 21179  1  0
 21180  1  0
 28181  1  0
 32182  1  0
 38183  1  0
 38184  1  0
 39185  1  0
 39186  1  0
 39187  1  0
 50188  1  0
 50189  1  0
 51190  1  0
 51191  1  0
 51192  1  0
 58193  1  0
 62194  1  0
 68195  1  0
 68196  1  0
 69197  1  0
 69198  1  0
 69199  1  0
 80200  1  0
 80201  1  0
 81202  1  0
 81203  1  0
 81204  1  0
 88205  1  0
 92206  1  0
 94207  1  0
100208  1  0
101209  1  0
102210  1  0
103211  1  0
104212  1  0
105213  1  0
105214  1  0
106215  1  0
106216  1  0
106217  1  0
107218  1  0
107219  1  0
108220  1  0
108221  1  0
108222  1  0
110223  1  0
116224  1  0
116225  1  0
117226  1  0
117227  1  0
117228  1  0
128229  1  0
128230  1  0
129231  1  0
129232  1  0
129233  1  0
136234  1  0
140235  1  0
146236  1  0
146237  1  0
147238  1  0
147239  1  0
147240  1  0
158241  1  0
158242  1  0
159243  1  0
159244  1  0
159245  1  0
166246  1  0
167247  1  0
M  END

