
     RDKit          3D

286315  0  0  0  0  0  0  0  0999 V2000
    2.0095  -11.3651    8.1024 C   0  0  0  0  0  0  0  0  0  0  0  0
    2.4847  -10.1021    7.7605 C   0  0  0  0  0  0  0  0  0  0  0  0
    2.7124   -9.9529    6.3836 C   0  0  0  0  0  0  0  0  0  0  0  0
    3.1846   -8.7922    5.7337 C   0  0  0  0  0  0  0  0  0  0  0  0
    3.4157   -7.5338    6.4699 C   0  0  0  0  0  0  0  0  0  0  0  0
    4.7173   -7.0325    6.6267 C   0  0  0  0  0  0  0  0  0  0  0  0
    4.9330   -5.8575    7.3516 C   0  0  0  0  0  0  0  0  0  0  0  0
    3.8535   -5.1755    7.9295 C   0  0  0  0  0  0  0  0  0  0  0  0
    4.1396   -3.6470    8.8304 S   0  0  0  0  0  0  0  0  0  0  0  0
    4.5915   -4.4504   10.4060 C   0  0  0  0  0  0  0  0  0  0  0  0
    3.3540   -4.8450   11.2030 C   0  0  0  0  0  0  0  0  0  0  0  0
    2.5507   -5.6687    7.7660 C   0  0  0  0  0  0  0  0  0  0  0  0
    1.4935   -5.0080    8.3065 F   0  0  0  0  0  0  0  0  0  0  0  0
    2.3340   -6.8426    7.0423 C   0  0  0  0  0  0  0  0  0  0  0  0
    3.3581   -8.8708    4.3387 C   0  0  0  0  0  0  0  0  0  0  0  0
    3.0427  -10.0236    3.6098 C   0  0  0  0  0  0  0  0  0  0  0  0
    2.5607  -11.1751    4.2595 C   0  0  0  0  0  0  0  0  0  0  0  0
    2.1532  -12.3695    3.5020 C   0  0  0  0  0  0  0  0  0  0  0  0
    3.1035  -13.3287    3.1239 C   0  0  0  0  0  0  0  0  0  0  0  0
    2.7170  -14.4284    2.3522 C   0  0  0  0  0  0  0  0  0  0  0  0
    1.3830  -14.5707    1.9436 C   0  0  0  0  0  0  0  0  0  0  0  0
    0.8982  -15.9748    0.9318 S   0  0  0  0  0  0  0  0  0  0  0  0
    1.3932  -15.2210   -0.6602 C   0  0  0  0  0  0  0  0  0  0  0  0
    0.3711  -14.1920   -1.1353 C   0  0  0  0  0  0  0  0  0  0  0  0
    0.4270  -13.6271    2.3485 C   0  0  0  0  0  0  0  0  0  0  0  0
    0.8131  -12.5288    3.1203 C   0  0  0  0  0  0  0  0  0  0  0  0
   -0.8719  -13.7634    1.9783 F   0  0  0  0  0  0  0  0  0  0  0  0
    2.4162  -11.1067    5.6526 C   0  0  0  0  0  0  0  0  0  0  0  0
    1.8690  -12.3001    6.7036 S   0  0  0  0  0  0  0  0  0  0  0  0
    3.1775   -9.8604    2.2241 C   0  0  0  0  0  0  0  0  0  0  0  0
    3.6012   -8.5845    1.8601 C   0  0  0  0  0  0  0  0  0  0  0  0
    3.8029   -7.6531    3.2593 S   0  0  0  0  0  0  0  0  0  0  0  0
    3.5853   -8.0596    0.4872 C   0  0  0  0  0  0  0  0  0  0  0  0
    4.0562   -6.8110    0.0865 C   0  0  0  0  0  0  0  0  0  0  0  0
    3.6030   -6.4403   -1.1928 C   0  0  0  0  0  0  0  0  0  0  0  0
    3.7860   -5.1892   -1.8213 C   0  0  0  0  0  0  0  0  0  0  0  0
    4.7420   -4.1867   -1.3122 C   0  0  0  0  0  0  0  0  0  0  0  0
    4.5384   -3.5528   -0.0769 C   0  0  0  0  0  0  0  0  0  0  0  0
    5.4909   -2.6547    0.4126 C   0  0  0  0  0  0  0  0  0  0  0  0
    6.6537   -2.3856   -0.3238 C   0  0  0  0  0  0  0  0  0  0  0  0
    7.9000   -1.2864    0.3508 S   0  0  0  0  0  0  0  0  0  0  0  0
    7.2627    0.1832   -0.5192 C   0  0  0  0  0  0  0  0  0  0  0  0
    8.0291    1.4221   -0.0775 C   0  0  0  0  0  0  0  0  0  0  0  0
    6.8541   -3.0111   -1.5626 C   0  0  0  0  0  0  0  0  0  0  0  0
    7.9781   -2.7699   -2.2824 F   0  0  0  0  0  0  0  0  0  0  0  0
    5.8961   -3.9004   -2.0582 C   0  0  0  0  0  0  0  0  0  0  0  0
    3.0173   -4.9401   -2.9738 C   0  0  0  0  0  0  0  0  0  0  0  0
    2.1761   -5.9037   -3.5356 C   0  0  0  0  0  0  0  0  0  0  0  0
    2.1044   -7.1979   -2.9882 C   0  0  0  0  0  0  0  0  0  0  0  0
    1.2266   -8.2336   -3.5581 C   0  0  0  0  0  0  0  0  0  0  0  0
   -0.1362   -8.2667   -3.2297 C   0  0  0  0  0  0  0  0  0  0  0  0
   -0.9690   -9.2375   -3.7936 C   0  0  0  0  0  0  0  0  0  0  0  0
   -0.4477  -10.1726   -4.6983 C   0  0  0  0  0  0  0  0  0  0  0  0
   -1.5321  -11.4028   -5.4332 S   0  0  0  0  0  0  0  0  0  0  0  0
   -2.1605  -10.3028   -6.7507 C   0  0  0  0  0  0  0  0  0  0  0  0
   -1.1708  -10.1862   -7.9012 C   0  0  0  0  0  0  0  0  0  0  0  0
    0.9186  -10.1515   -5.0140 C   0  0  0  0  0  0  0  0  0  0  0  0
    1.7526   -9.1820   -4.4478 C   0  0  0  0  0  0  0  0  0  0  0  0
    1.4396  -11.0639   -5.8721 F   0  0  0  0  0  0  0  0  0  0  0  0
    2.8041   -7.4187   -1.7939 C   0  0  0  0  0  0  0  0  0  0  0  0
    2.6610   -8.7303   -0.7564 S   0  0  0  0  0  0  0  0  0  0  0  0
    1.3295   -5.3946   -4.5308 C   0  0  0  0  0  0  0  0  0  0  0  0
    1.4575   -4.0153   -4.7110 C   0  0  0  0  0  0  0  0  0  0  0  0
    2.6847   -3.4514   -3.6894 S   0  0  0  0  0  0  0  0  0  0  0  0
    0.4022   -3.1568   -5.2858 C   0  0  0  0  0  0  0  0  0  0  0  0
   -0.8624   -3.6134   -5.6648 C   0  0  0  0  0  0  0  0  0  0  0  0
   -1.8267   -2.5973   -5.7373 C   0  0  0  0  0  0  0  0  0  0  0  0
   -3.2150   -2.8019   -5.8481 C   0  0  0  0  0  0  0  0  0  0  0  0
   -3.7676   -4.1475   -6.0691 C   0  0  0  0  0  0  0  0  0  0  0  0
   -3.7141   -4.9619   -7.5392 S   0  0  0  0  0  0  0  0  0  0  0  0
   -4.2890   -6.4321   -6.9511 C   0  0  0  0  0  0  0  0  0  0  0  0
   -4.4989   -7.6572   -7.7931 C   0  0  0  0  0  0  0  0  0  0  0  0
   -5.6781   -7.4780   -8.7413 C   0  0  0  0  0  0  0  0  0  0  0  0
   -4.5124   -6.3058   -5.5789 C   0  0  0  0  0  0  0  0  0  0  0  0
   -5.0684   -7.6202   -4.5520 Cl  0  0  0  0  0  0  0  0  0  0  0  0
   -4.2099   -5.0247   -5.0846 C   0  0  0  0  0  0  0  0  0  0  0  0
   -4.3153   -4.5890   -3.3859 Cl  0  0  0  0  0  0  0  0  0  0  0  0
   -4.0421   -1.6894   -5.6244 C   0  0  0  0  0  0  0  0  0  0  0  0
   -3.5310   -0.4101   -5.3815 C   0  0  0  0  0  0  0  0  0  0  0  0
   -2.1325   -0.1923   -5.3159 C   0  0  0  0  0  0  0  0  0  0  0  0
   -1.5492    1.1207   -4.9622 C   0  0  0  0  0  0  0  0  0  0  0  0
   -1.8758    1.9937   -3.5572 S   0  0  0  0  0  0  0  0  0  0  0  0
   -0.8604    3.2908   -3.9069 C   0  0  0  0  0  0  0  0  0  0  0  0
   -0.7092    4.5126   -3.0466 C   0  0  0  0  0  0  0  0  0  0  0  0
    0.6263    4.5172   -2.3110 C   0  0  0  0  0  0  0  0  0  0  0  0
   -0.2403    3.0519   -5.1324 C   0  0  0  0  0  0  0  0  0  0  0  0
   -0.6252    1.8378   -5.7233 C   0  0  0  0  0  0  0  0  0  0  0  0
   -0.0487    1.3145   -7.2985 Cl  0  0  0  0  0  0  0  0  0  0  0  0
    0.8735    4.1805   -5.8921 Cl  0  0  0  0  0  0  0  0  0  0  0  0
   -1.3120   -1.3256   -5.4702 C   0  0  0  0  0  0  0  0  0  0  0  0
    0.3260   -1.4789   -5.0969 S   0  0  0  0  0  0  0  0  0  0  0  0
   -4.5303    0.5244   -5.0725 C   0  0  0  0  0  0  0  0  0  0  0  0
   -5.8064   -0.0354   -4.9755 C   0  0  0  0  0  0  0  0  0  0  0  0
   -5.7029   -1.6782   -5.3456 S   0  0  0  0  0  0  0  0  0  0  0  0
   -6.8251    0.5463   -4.0953 C   0  0  0  0  0  0  0  0  0  0  0  0
   -7.0990    1.9121   -4.0689 C   0  0  0  0  0  0  0  0  0  0  0  0
   -7.4137    2.3968   -2.7878 C   0  0  0  0  0  0  0  0  0  0  0  0
   -7.5339    3.7525   -2.4274 C   0  0  0  0  0  0  0  0  0  0  0  0
   -7.5884    4.8305   -3.4287 C   0  0  0  0  0  0  0  0  0  0  0  0
   -6.3294    5.2887   -4.4490 S   0  0  0  0  0  0  0  0  0  0  0  0
   -7.1802    6.5117   -5.2329 C   0  0  0  0  0  0  0  0  0  0  0  0
   -6.6194    7.3837   -6.3180 C   0  0  0  0  0  0  0  0  0  0  0  0
   -6.1705    8.7321   -5.7627 C   0  0  0  0  0  0  0  0  0  0  0  0
   -8.4606    6.5901   -4.6858 C   0  0  0  0  0  0  0  0  0  0  0  0
   -9.6763    7.7442   -5.2200 Cl  0  0  0  0  0  0  0  0  0  0  0  0
   -8.6863    5.6498   -3.6711 C   0  0  0  0  0  0  0  0  0  0  0  0
  -10.2116    5.5032   -2.8121 Cl  0  0  0  0  0  0  0  0  0  0  0  0
   -7.4881    4.0504   -1.0582 C   0  0  0  0  0  0  0  0  0  0  0  0
   -7.3965    3.0620   -0.0749 C   0  0  0  0  0  0  0  0  0  0  0  0
   -7.4340    1.6946   -0.4272 C   0  0  0  0  0  0  0  0  0  0  0  0
   -7.3381    0.6303    0.5957 C   0  0  0  0  0  0  0  0  0  0  0  0
   -6.1288   -0.5427    0.6760 S   0  0  0  0  0  0  0  0  0  0  0  0
   -6.7035   -1.3049    2.0608 C   0  0  0  0  0  0  0  0  0  0  0  0
   -6.0313   -2.4614    2.7357 C   0  0  0  0  0  0  0  0  0  0  0  0
   -5.0972   -1.9729    3.8363 C   0  0  0  0  0  0  0  0  0  0  0  0
   -7.8405   -0.6320    2.5006 C   0  0  0  0  0  0  0  0  0  0  0  0
   -8.2018    0.4474    1.6763 C   0  0  0  0  0  0  0  0  0  0  0  0
   -9.6153    1.4527    1.9727 Cl  0  0  0  0  0  0  0  0  0  0  0  0
   -8.7360   -1.0828    3.9435 Cl  0  0  0  0  0  0  0  0  0  0  0  0
   -7.4107    1.4007   -1.8048 C   0  0  0  0  0  0  0  0  0  0  0  0
   -7.0438   -0.0651   -2.5382 S   0  0  0  0  0  0  0  0  0  0  0  0
   -7.0229    3.5667    1.1845 C   0  0  0  0  0  0  0  0  0  0  0  0
   -6.7731    4.9450    1.1819 C   0  0  0  0  0  0  0  0  0  0  0  0
   -7.1067    5.5349   -0.3676 S   0  0  0  0  0  0  0  0  0  0  0  0
   -5.8206    5.6129    2.0967 C   0  0  0  0  0  0  0  0  0  0  0  0
   -4.9631    4.9255    2.9590 C   0  0  0  0  0  0  0  0  0  0  0  0
   -3.7814    5.6234    3.2469 C   0  0  0  0  0  0  0  0  0  0  0  0
   -2.6385    5.0769    3.8647 C   0  0  0  0  0  0  0  0  0  0  0  0
   -2.5825    3.6696    4.3191 C   0  0  0  0  0  0  0  0  0  0  0  0
   -2.3565    3.3707    5.6705 C   0  0  0  0  0  0  0  0  0  0  0  0
   -2.2025    2.0416    6.0802 C   0  0  0  0  0  0  0  0  0  0  0  0
   -2.2595    1.0027    5.1410 C   0  0  0  0  0  0  0  0  0  0  0  0
   -2.0827   -0.7051    5.6796 S   0  0  0  0  0  0  0  0  0  0  0  0
   -0.3229   -0.8643    5.2176 C   0  0  0  0  0  0  0  0  0  0  0  0
    0.5794   -0.2676    6.2908 C   0  0  0  0  0  0  0  0  0  0  0  0
   -2.4717    1.3001    3.7873 C   0  0  0  0  0  0  0  0  0  0  0  0
   -2.4846    0.3105    2.8577 F   0  0  0  0  0  0  0  0  0  0  0  0
   -2.6302    2.6271    3.3790 C   0  0  0  0  0  0  0  0  0  0  0  0
   -1.4573    5.8310    3.7835 C   0  0  0  0  0  0  0  0  0  0  0  0
   -1.3923    7.0763    3.1458 C   0  0  0  0  0  0  0  0  0  0  0  0
   -2.5626    7.6703    2.6329 C   0  0  0  0  0  0  0  0  0  0  0  0
   -2.5327    8.9776    1.9525 C   0  0  0  0  0  0  0  0  0  0  0  0
   -2.4700    9.0522    0.5519 C   0  0  0  0  0  0  0  0  0  0  0  0
   -2.4608   10.2993   -0.0813 C   0  0  0  0  0  0  0  0  0  0  0  0
   -2.5269   11.4755    0.6785 C   0  0  0  0  0  0  0  0  0  0  0  0
   -2.5323   13.0696   -0.1426 S   0  0  0  0  0  0  0  0  0  0  0  0
   -4.3515   13.1388   -0.2638 C   0  0  0  0  0  0  0  0  0  0  0  0
   -4.7826   14.4958   -0.7974 C   0  0  0  0  0  0  0  0  0  0  0  0
   -2.5817   11.4011    2.0780 C   0  0  0  0  0  0  0  0  0  0  0  0
   -2.5840   10.1556    2.7114 C   0  0  0  0  0  0  0  0  0  0  0  0
   -2.6472   12.5332    2.8244 F   0  0  0  0  0  0  0  0  0  0  0  0
   -3.7380    6.8987    2.6731 C   0  0  0  0  0  0  0  0  0  0  0  0
   -5.1431    7.1329    1.7810 S   0  0  0  0  0  0  0  0  0  0  0  0
   -0.0738    7.4813    2.8547 C   0  0  0  0  0  0  0  0  0  0  0  0
    0.8830    6.5299    3.2205 C   0  0  0  0  0  0  0  0  0  0  0  0
    0.0979    5.2427    3.9787 S   0  0  0  0  0  0  0  0  0  0  0  0
    2.1365    6.3194    2.4846 C   0  0  0  0  0  0  0  0  0  0  0  0
    3.0153    7.2892    1.9946 C   0  0  0  0  0  0  0  0  0  0  0  0
    3.9677    6.7557    1.0990 C   0  0  0  0  0  0  0  0  0  0  0  0
    4.9709    7.4681    0.4108 C   0  0  0  0  0  0  0  0  0  0  0  0
    5.2759    8.8813    0.7136 C   0  0  0  0  0  0  0  0  0  0  0  0
    5.7195    9.2353    1.9981 C   0  0  0  0  0  0  0  0  0  0  0  0
    6.1343   10.5433    2.2612 C   0  0  0  0  0  0  0  0  0  0  0  0
    6.1198   11.5057    1.2427 C   0  0  0  0  0  0  0  0  0  0  0  0
    6.7695   13.1487    1.5630 S   0  0  0  0  0  0  0  0  0  0  0  0
    8.5207   12.6792    1.3047 C   0  0  0  0  0  0  0  0  0  0  0  0
    8.8569   12.5675   -0.1784 C   0  0  0  0  0  0  0  0  0  0  0  0
    5.6249   11.1700   -0.0268 C   0  0  0  0  0  0  0  0  0  0  0  0
    5.5745   12.1011   -1.0116 F   0  0  0  0  0  0  0  0  0  0  0  0
    5.2126    9.8603   -0.2912 C   0  0  0  0  0  0  0  0  0  0  0  0
    5.7335    6.7435   -0.5286 C   0  0  0  0  0  0  0  0  0  0  0  0
    5.5312    5.3819   -0.7816 C   0  0  0  0  0  0  0  0  0  0  0  0
    4.5484    4.6625   -0.0723 C   0  0  0  0  0  0  0  0  0  0  0  0
    4.2413    3.2392   -0.3360 C   0  0  0  0  0  0  0  0  0  0  0  0
    3.7638    2.8423   -1.5935 C   0  0  0  0  0  0  0  0  0  0  0  0
    3.2639    1.5516   -1.7800 C   0  0  0  0  0  0  0  0  0  0  0  0
    3.2271    0.6474   -0.7128 C   0  0  0  0  0  0  0  0  0  0  0  0
    2.5049   -0.9800   -0.9485 S   0  0  0  0  0  0  0  0  0  0  0  0
    0.8834   -0.5575   -0.2202 C   0  0  0  0  0  0  0  0  0  0  0  0
    0.0408    0.2760   -1.1803 C   0  0  0  0  0  0  0  0  0  0  0  0
    3.7493    1.0200    0.5341 C   0  0  0  0  0  0  0  0  0  0  0  0
    4.2574    2.3093    0.7187 C   0  0  0  0  0  0  0  0  0  0  0  0
    3.7430    0.1469    1.5742 F   0  0  0  0  0  0  0  0  0  0  0  0
    3.7967    5.3860    0.8666 C   0  0  0  0  0  0  0  0  0  0  0  0
    2.5132    4.8312    1.7865 S   0  0  0  0  0  0  0  0  0  0  0  0
    6.4064    4.8628   -1.7483 C   0  0  0  0  0  0  0  0  0  0  0  0
    7.3004    5.8077   -2.2422 C   0  0  0  0  0  0  0  0  0  0  0  0
    7.0099    7.2869   -1.4838 S   0  0  0  0  0  0  0  0  0  0  0  0
    1.7676  -11.6943    9.1040 H   0  0  0  0  0  0  0  0  0  0  0  0
    2.6594   -9.3292    8.4951 H   0  0  0  0  0  0  0  0  0  0  0  0
    5.5615   -7.5609    6.1977 H   0  0  0  0  0  0  0  0  0  0  0  0
    5.9432   -5.4876    7.4808 H   0  0  0  0  0  0  0  0  0  0  0  0
    5.2248   -5.3437   10.2240 H   0  0  0  0  0  0  0  0  0  0  0  0
    5.1854   -3.7280   11.0016 H   0  0  0  0  0  0  0  0  0  0  0  0
    3.6702   -5.2640   12.1833 H   0  0  0  0  0  0  0  0  0  0  0  0
    2.7078   -3.9588   11.3886 H   0  0  0  0  0  0  0  0  0  0  0  0
    2.7701   -5.6202   10.6617 H   0  0  0  0  0  0  0  0  0  0  0  0
    1.3228   -7.2157    6.9235 H   0  0  0  0  0  0  0  0  0  0  0  0
    4.1416  -13.2155    3.4154 H   0  0  0  0  0  0  0  0  0  0  0  0
    3.4572  -15.1614    2.0554 H   0  0  0  0  0  0  0  0  0  0  0  0
    2.3979  -14.7482   -0.5710 H   0  0  0  0  0  0  0  0  0  0  0  0
    1.4624  -16.0304   -1.4170 H   0  0  0  0  0  0  0  0  0  0  0  0
    0.3531  -13.3141   -0.4553 H   0  0  0  0  0  0  0  0  0  0  0  0
    0.6516  -13.8374   -2.1508 H   0  0  0  0  0  0  0  0  0  0  0  0
   -0.6374  -14.6515   -1.1867 H   0  0  0  0  0  0  0  0  0  0  0  0
    0.0734  -11.7895    3.4071 H   0  0  0  0  0  0  0  0  0  0  0  0
    2.9228  -10.6264    1.5026 H   0  0  0  0  0  0  0  0  0  0  0  0
    4.6293   -6.1657    0.7378 H   0  0  0  0  0  0  0  0  0  0  0  0
    3.6472   -3.7591    0.5037 H   0  0  0  0  0  0  0  0  0  0  0  0
    5.3321   -2.1768    1.3709 H   0  0  0  0  0  0  0  0  0  0  0  0
    7.3718    0.0464   -1.6153 H   0  0  0  0  0  0  0  0  0  0  0  0
    6.1905    0.3151   -0.2815 H   0  0  0  0  0  0  0  0  0  0  0  0
    9.1002    1.3249   -0.3530 H   0  0  0  0  0  0  0  0  0  0  0  0
    7.6110    2.3190   -0.5792 H   0  0  0  0  0  0  0  0  0  0  0  0
    7.9400    1.5561    1.0209 H   0  0  0  0  0  0  0  0  0  0  0  0
    6.0668   -4.3905   -3.0096 H   0  0  0  0  0  0  0  0  0  0  0  0
   -0.5521   -7.5361   -2.5462 H   0  0  0  0  0  0  0  0  0  0  0  0
   -2.0218   -9.2541   -3.5388 H   0  0  0  0  0  0  0  0  0  0  0  0
   -3.1089  -10.7342   -7.1349 H   0  0  0  0  0  0  0  0  0  0  0  0
   -2.3851   -9.2954   -6.3370 H   0  0  0  0  0  0  0  0  0  0  0  0
   -0.9128  -11.1931   -8.2920 H   0  0  0  0  0  0  0  0  0  0  0  0
   -0.2477   -9.6675   -7.5693 H   0  0  0  0  0  0  0  0  0  0  0  0
   -1.6273   -9.5936   -8.7211 H   0  0  0  0  0  0  0  0  0  0  0  0
    2.8045   -9.1624   -4.7077 H   0  0  0  0  0  0  0  0  0  0  0  0
    0.5639   -5.9911   -5.0092 H   0  0  0  0  0  0  0  0  0  0  0  0
   -1.1136   -4.6622   -5.7578 H   0  0  0  0  0  0  0  0  0  0  0  0
   -3.5803   -7.8455   -8.3879 H   0  0  0  0  0  0  0  0  0  0  0  0
   -4.6818   -8.5449   -7.1522 H   0  0  0  0  0  0  0  0  0  0  0  0
   -5.4940   -6.6235   -9.4275 H   0  0  0  0  0  0  0  0  0  0  0  0
   -5.8081   -8.3958   -9.3559 H   0  0  0  0  0  0  0  0  0  0  0  0
   -6.6115   -7.2951   -8.1668 H   0  0  0  0  0  0  0  0  0  0  0  0
   -0.7880    5.4227   -3.6786 H   0  0  0  0  0  0  0  0  0  0  0  0
   -1.5328    4.5467   -2.3010 H   0  0  0  0  0  0  0  0  0  0  0  0
    1.4710    4.5370   -3.0291 H   0  0  0  0  0  0  0  0  0  0  0  0
    0.6944    5.4196   -1.6669 H   0  0  0  0  0  0  0  0  0  0  0  0
    0.7148    3.6199   -1.6661 H   0  0  0  0  0  0  0  0  0  0  0  0
   -4.3290    1.5456   -4.7835 H   0  0  0  0  0  0  0  0  0  0  0  0
   -6.9151    2.5509   -4.9211 H   0  0  0  0  0  0  0  0  0  0  0  0
   -7.3868    7.5444   -7.1076 H   0  0  0  0  0  0  0  0  0  0  0  0
   -5.7475    6.8800   -6.7901 H   0  0  0  0  0  0  0  0  0  0  0  0
   -5.3349    8.5924   -5.0432 H   0  0  0  0  0  0  0  0  0  0  0  0
   -5.8193    9.3801   -6.5954 H   0  0  0  0  0  0  0  0  0  0  0  0
   -7.0116    9.2439   -5.2486 H   0  0  0  0  0  0  0  0  0  0  0  0
   -5.4448   -3.0360    1.9855 H   0  0  0  0  0  0  0  0  0  0  0  0
   -6.7940   -3.1450    3.1663 H   0  0  0  0  0  0  0  0  0  0  0  0
   -4.3468   -1.2804    3.4118 H   0  0  0  0  0  0  0  0  0  0  0  0
   -5.6705   -1.4478    4.6290 H   0  0  0  0  0  0  0  0  0  0  0  0
   -4.5637   -2.8315    4.2878 H   0  0  0  0  0  0  0  0  0  0  0  0
   -6.7731    2.9222    2.0176 H   0  0  0  0  0  0  0  0  0  0  0  0
   -5.1146    3.8920    3.2415 H   0  0  0  0  0  0  0  0  0  0  0  0
   -2.2985    4.1661    6.4052 H   0  0  0  0  0  0  0  0  0  0  0  0
   -2.0282    1.8213    7.1274 H   0  0  0  0  0  0  0  0  0  0  0  0
   -0.1295   -0.3799    4.2391 H   0  0  0  0  0  0  0  0  0  0  0  0
   -0.0954   -1.9451    5.1118 H   0  0  0  0  0  0  0  0  0  0  0  0
    1.6423   -0.4335    6.0132 H   0  0  0  0  0  0  0  0  0  0  0  0
    0.3851   -0.7542    7.2698 H   0  0  0  0  0  0  0  0  0  0  0  0
    0.4014    0.8234    6.3826 H   0  0  0  0  0  0  0  0  0  0  0  0
   -2.7667    2.8474    2.3264 H   0  0  0  0  0  0  0  0  0  0  0  0
   -2.4269    8.1492   -0.0448 H   0  0  0  0  0  0  0  0  0  0  0  0
   -2.4164   10.3524   -1.1622 H   0  0  0  0  0  0  0  0  0  0  0  0
   -4.7075   12.3397   -0.9486 H   0  0  0  0  0  0  0  0  0  0  0  0
   -4.8043   12.9816    0.7390 H   0  0  0  0  0  0  0  0  0  0  0  0
   -5.8848   14.5115   -0.9360 H   0  0  0  0  0  0  0  0  0  0  0  0
   -4.2948   14.6965   -1.7743 H   0  0  0  0  0  0  0  0  0  0  0  0
   -4.5011   15.2909   -0.0756 H   0  0  0  0  0  0  0  0  0  0  0  0
   -2.6332   10.1048    3.7928 H   0  0  0  0  0  0  0  0  0  0  0  0
    0.1583    8.3338    2.2249 H   0  0  0  0  0  0  0  0  0  0  0  0
    2.9303    8.3404    2.2369 H   0  0  0  0  0  0  0  0  0  0  0  0
    5.7800    8.4898    2.7824 H   0  0  0  0  0  0  0  0  0  0  0  0
    6.5073   10.7986    3.2454 H   0  0  0  0  0  0  0  0  0  0  0  0
    9.1608   13.4638    1.7609 H   0  0  0  0  0  0  0  0  0  0  0  0
    8.7460   11.7168    1.8162 H   0  0  0  0  0  0  0  0  0  0  0  0
    8.6141   13.5176   -0.7001 H   0  0  0  0  0  0  0  0  0  0  0  0
    8.2938   11.7325   -0.6456 H   0  0  0  0  0  0  0  0  0  0  0  0
    9.9420   12.3587   -0.2970 H   0  0  0  0  0  0  0  0  0  0  0  0
    4.8665    9.6005   -1.2833 H   0  0  0  0  0  0  0  0  0  0  0  0
    3.7357    3.5459   -2.4154 H   0  0  0  0  0  0  0  0  0  0  0  0
    2.8656    1.2653   -2.7451 H   0  0  0  0  0  0  0  0  0  0  0  0
    1.0165   -0.0108    0.7386 H   0  0  0  0  0  0  0  0  0  0  0  0
    0.3427   -1.5028   -0.0039 H   0  0  0  0  0  0  0  0  0  0  0  0
    0.4974    1.2779   -1.3282 H   0  0  0  0  0  0  0  0  0  0  0  0
   -0.0574   -0.2366   -2.1628 H   0  0  0  0  0  0  0  0  0  0  0  0
   -0.9759    0.4162   -0.7504 H   0  0  0  0  0  0  0  0  0  0  0  0
    4.6264    2.6010    1.6957 H   0  0  0  0  0  0  0  0  0  0  0  0
    6.4107    3.8310   -2.0730 H   0  0  0  0  0  0  0  0  0  0  0  0
    8.0619    5.6217   -2.9872 H   0  0  0  0  0  0  0  0  0  0  0  0
  1  2  2  0
  2  3  1  0
  3  4  2  0
  4  5  1  0
  5  6  2  0
  6  7  1  0
  7  8  2  0
  8  9  1  0
  9 10  1  0
 10 11  1  0
  8 12  1  0
 12 13  1  0
 12 14  2  0
  4 15  1  0
 15 16  2  0
 16 17  1  0
 17 18  1  0
 18 19  2  0
 19 20  1  0
 20 21  2  0
 21 22  1  0
 22 23  1  0
 23 24  1  0
 21 25  1  0
 25 26  2  0
 25 27  1  0
 17 28  2  0
 28 29  1  0
 16 30  1  0
 30 31  2  0
 31 32  1  0
 31 33  1  0
 33 34  2  0
 34 35  1  0
 35 36  2  0
 36 37  1  0
 37 38  2  0
 38 39  1  0
 39 40  2  0
 40 41  1  0
 41 42  1  0
 42 43  1  0
 40 44  1  0
 44 45  1  0
 44 46  2  0
 36 47  1  0
 47 48  2  0
 48 49  1  0
 49 50  1  0
 50 51  2  0
 51 52  1  0
 52 53  2  0
 53 54  1  0
 54 55  1  0
 55 56  1  0
 53 57  1  0
 57 58  2  0
 57 59  1  0
 49 60  2  0
 60 61  1  0
 48 62  1  0
 62 63  2  0
 63 64  1  0
 63 65  1  0
 65 66  2  0
 66 67  1  0
 67 68  2  0
 68 69  1  0
 69 70  1  0
 70 71  1  0
 71 72  1  0
 72 73  1  0
 71 74  2  0
 74 75  1  0
 74 76  1  0
 76 77  1  0
 68 78  1  0
 78 79  2  0
 79 80  1  0
 80 81  1  0
 81 82  1  0
 82 83  1  0
 83 84  1  0
 84 85  1  0
 83 86  2  0
 86 87  1  0
 87 88  1  0
 86 89  1  0
 80 90  2  0
 90 91  1  0
 79 92  1  0
 92 93  2  0
 93 94  1  0
 93 95  1  0
 95 96  2  0
 96 97  1  0
 97 98  2  0
 98 99  1  0
 99100  1  0
100101  1  0
101102  1  0
102103  1  0
101104  2  0
104105  1  0
104106  1  0
106107  1  0
 98108  1  0
108109  2  0
109110  1  0
110111  1  0
111112  1  0
112113  1  0
113114  1  0
114115  1  0
113116  2  0
116117  1  0
117118  1  0
116119  1  0
110120  2  0
120121  1  0
109122  1  0
122123  2  0
123124  1  0
123125  1  0
125126  2  0
126127  1  0
127128  2  0
128129  1  0
129130  2  0
130131  1  0
131132  2  0
132133  1  0
133134  1  0
134135  1  0
132136  1  0
136137  1  0
136138  2  0
128139  1  0
139140  2  0
140141  1  0
141142  1  0
142143  2  0
143144  1  0
144145  2  0
145146  1  0
146147  1  0
147148  1  0
145149  1  0
149150  2  0
149151  1  0
141152  2  0
152153  1  0
140154  1  0
154155  2  0
155156  1  0
155157  1  0
157158  2  0
158159  1  0
159160  2  0
160161  1  0
161162  2  0
162163  1  0
163164  2  0
164165  1  0
165166  1  0
166167  1  0
164168  1  0
168169  1  0
168170  2  0
160171  1  0
171172  2  0
172173  1  0
173174  1  0
174175  2  0
175176  1  0
176177  2  0
177178  1  0
178179  1  0
179180  1  0
177181  1  0
181182  2  0
181183  1  0
173184  2  0
184185  1  0
172186  1  0
186187  2  0
187188  1  0
 29  1  1  0
 61 33  1  0
 91 65  1  0
121 95  1  0
153125  1  0
185157  1  0
 28  3  1  0
 60 35  1  0
 90 67  1  0
120 97  1  0
152127  1  0
184159  1  0
 14  5  1  0
 32 15  1  0
 46 37  1  0
 64 47  1  0
 76 69  2  0
 94 78  1  0
106 99  2  0
124108  1  0
138129  1  0
156139  1  0
170161  1  0
188171  1  0
 26 18  1  0
 58 50  1  0
 87 81  2  0
117111  2  0
150142  1  0
182174  1  0
  1189  1  0
  2190  1  0
  6191  1  0
  7192  1  0
 10193  1  0
 10194  1  0
 11195  1  0
 11196  1  0
 11197  1  0
 14198  1  0
 19199  1  0
 20200  1  0
 23201  1  0
 23202  1  0
 24203  1  0
 24204  1  0
 24205  1  0
 26206  1  0
 30207  1  0
 34208  1  0
 38209  1  0
 39210  1  0
 42211  1  0
 42212  1  0
 43213  1  0
 43214  1  0
 43215  1  0
 46216  1  0
 51217  1  0
 52218  1  0
 55219  1  0
 55220  1  0
 56221  1  0
 56222  1  0
 56223  1  0
 58224  1  0
 62225  1  0
 66226  1  0
 72227  1  0
 72228  1  0
 73229  1  0
 73230  1  0
 73231  1  0
 84232  1  0
 84233  1  0
 85234  1  0
 85235  1  0
 85236  1  0
 92237  1  0
 96238  1  0
102239  1  0
102240  1  0
103241  1  0
103242  1  0
103243  1  0
114244  1  0
114245  1  0
115246  1  0
115247  1  0
115248  1  0
122249  1  0
126250  1  0
130251  1  0
131252  1  0
134253  1  0
134254  1  0
135255  1  0
135256  1  0
135257  1  0
138258  1  0
143259  1  0
144260  1  0
147261  1  0
147262  1  0
148263  1  0
148264  1  0
148265  1  0
150266  1  0
154267  1  0
158268  1  0
162269  1  0
163270  1  0
166271  1  0
166272  1  0
167273  1  0
167274  1  0
167275  1  0
170276  1  0
175277  1  0
176278  1  0
179279  1  0
179280  1  0
180281  1  0
180282  1  0
180283  1  0
182284  1  0
186285  1  0
187286  1  0
M  END

