
     RDKit          3D

274301  0  0  0  0  0  0  0  0999 V2000
   -5.8013   -6.2267   11.8240 C   0  0  0  0  0  0  0  0  0  0  0  0
   -5.0263   -5.1201   11.4930 C   0  0  0  0  0  0  0  0  0  0  0  0
   -5.1665   -4.7341   10.1496 C   0  0  0  0  0  0  0  0  0  0  0  0
   -4.5156   -3.6568    9.5210 C   0  0  0  0  0  0  0  0  0  0  0  0
   -3.5421   -2.8032   10.2278 C   0  0  0  0  0  0  0  0  0  0  0  0
   -2.2946   -3.3226   10.6043 C   0  0  0  0  0  0  0  0  0  0  0  0
   -1.3350   -2.4880   11.1858 C   0  0  0  0  0  0  0  0  0  0  0  0
   -1.6201   -1.1351   11.4041 C   0  0  0  0  0  0  0  0  0  0  0  0
   -0.3567   -0.0638   12.0916 S   0  0  0  0  0  0  0  0  0  0  0  0
    0.2233    0.4891   10.4528 C   0  0  0  0  0  0  0  0  0  0  0  0
    1.4068    1.4329   10.6137 C   0  0  0  0  0  0  0  0  0  0  0  0
   -2.8783   -0.6219   11.0596 C   0  0  0  0  0  0  0  0  0  0  0  0
   -3.1686    0.6853   11.2752 F   0  0  0  0  0  0  0  0  0  0  0  0
   -3.8317   -1.4524   10.4647 C   0  0  0  0  0  0  0  0  0  0  0  0
   -4.7888   -3.4550    8.1592 C   0  0  0  0  0  0  0  0  0  0  0  0
   -5.6725   -4.2615    7.4338 C   0  0  0  0  0  0  0  0  0  0  0  0
   -6.3403   -5.3323    8.0665 C   0  0  0  0  0  0  0  0  0  0  0  0
   -7.2965   -6.2029    7.3503 C   0  0  0  0  0  0  0  0  0  0  0  0
   -7.0534   -7.5813    7.2386 C   0  0  0  0  0  0  0  0  0  0  0  0
   -8.0035   -8.4180    6.6473 C   0  0  0  0  0  0  0  0  0  0  0  0
   -9.2044   -7.8876    6.1644 C   0  0  0  0  0  0  0  0  0  0  0  0
  -10.4602   -8.9861    5.5030 S   0  0  0  0  0  0  0  0  0  0  0  0
   -9.8982   -8.8082    3.7787 C   0  0  0  0  0  0  0  0  0  0  0  0
  -10.7290   -9.7039    2.8713 C   0  0  0  0  0  0  0  0  0  0  0  0
   -9.4410   -6.5084    6.2488 C   0  0  0  0  0  0  0  0  0  0  0  0
   -8.4871   -5.6695    6.8344 C   0  0  0  0  0  0  0  0  0  0  0  0
  -10.6034   -5.9817    5.7889 F   0  0  0  0  0  0  0  0  0  0  0  0
   -6.0548   -5.5402    9.4306 C   0  0  0  0  0  0  0  0  0  0  0  0
   -6.6684   -6.7208   10.4632 S   0  0  0  0  0  0  0  0  0  0  0  0
   -5.7209   -3.9344    6.0650 C   0  0  0  0  0  0  0  0  0  0  0  0
   -4.8604   -2.8881    5.7307 C   0  0  0  0  0  0  0  0  0  0  0  0
   -4.0622   -2.3552    7.1197 S   0  0  0  0  0  0  0  0  0  0  0  0
   -4.5794   -2.3901    4.3772 C   0  0  0  0  0  0  0  0  0  0  0  0
   -3.5405   -1.5221    4.0498 C   0  0  0  0  0  0  0  0  0  0  0  0
   -3.4784   -1.2380    2.6803 C   0  0  0  0  0  0  0  0  0  0  0  0
   -2.5499   -0.3863    2.0610 C   0  0  0  0  0  0  0  0  0  0  0  0
   -1.4125    0.1831    2.8019 C   0  0  0  0  0  0  0  0  0  0  0  0
   -1.5433    1.3834    3.5101 C   0  0  0  0  0  0  0  0  0  0  0  0
   -0.4479    1.9088    4.2043 C   0  0  0  0  0  0  0  0  0  0  0  0
    0.7831    1.2408    4.1851 C   0  0  0  0  0  0  0  0  0  0  0  0
    2.2073    1.9556    5.0085 S   0  0  0  0  0  0  0  0  0  0  0  0
    1.9727    0.9840    6.5331 C   0  0  0  0  0  0  0  0  0  0  0  0
    3.2382    1.0435    7.3750 C   0  0  0  0  0  0  0  0  0  0  0  0
    0.9086    0.0345    3.4838 C   0  0  0  0  0  0  0  0  0  0  0  0
    2.0963   -0.6208    3.4511 F   0  0  0  0  0  0  0  0  0  0  0  0
   -0.1886   -0.4979    2.8058 C   0  0  0  0  0  0  0  0  0  0  0  0
   -2.7035   -0.1673    0.6867 C   0  0  0  0  0  0  0  0  0  0  0  0
   -3.6946   -0.8013   -0.0760 C   0  0  0  0  0  0  0  0  0  0  0  0
   -4.5862   -1.7161    0.5334 C   0  0  0  0  0  0  0  0  0  0  0  0
   -5.5843   -2.4940   -0.2376 C   0  0  0  0  0  0  0  0  0  0  0  0
   -6.5483   -1.8525   -1.0296 C   0  0  0  0  0  0  0  0  0  0  0  0
   -7.4955   -2.6049   -1.7319 C   0  0  0  0  0  0  0  0  0  0  0  0
   -7.4998   -4.0034   -1.6380 C   0  0  0  0  0  0  0  0  0  0  0  0
   -8.7508   -4.9521   -2.5130 S   0  0  0  0  0  0  0  0  0  0  0  0
   -7.6417   -5.5561   -3.8359 C   0  0  0  0  0  0  0  0  0  0  0  0
   -7.1853   -4.4319   -4.7572 C   0  0  0  0  0  0  0  0  0  0  0  0
   -6.5487   -4.6468   -0.8332 C   0  0  0  0  0  0  0  0  0  0  0  0
   -5.5869   -3.8966   -0.1525 C   0  0  0  0  0  0  0  0  0  0  0  0
   -6.5444   -5.9986   -0.7198 F   0  0  0  0  0  0  0  0  0  0  0  0
   -4.4599   -1.8882    1.9270 C   0  0  0  0  0  0  0  0  0  0  0  0
   -5.4143   -2.8103    2.9684 S   0  0  0  0  0  0  0  0  0  0  0  0
   -3.6418   -0.4450   -1.4371 C   0  0  0  0  0  0  0  0  0  0  0  0
   -2.6375    0.4859   -1.7054 C   0  0  0  0  0  0  0  0  0  0  0  0
   -1.7947    0.8432   -0.2941 S   0  0  0  0  0  0  0  0  0  0  0  0
   -2.2427    0.9377   -3.0072 N   0  0  0  0  0  0  0  0  0  0  0  0
   -0.9506    0.7009   -3.5552 C   0  0  0  0  0  0  0  0  0  0  0  0
    0.0730    0.5700   -2.8358 O   0  0  0  0  0  0  0  0  0  0  0  0
   -0.9359    0.6302   -5.0628 C   0  0  0  0  0  0  0  0  0  0  0  0
   -2.3929    0.9291   -5.3273 C   0  0  0  0  0  0  0  0  0  0  0  0
   -3.0852    1.0826   -4.1374 C   0  0  0  0  0  0  0  0  0  0  0  0
   -4.4628    1.3092   -4.1125 C   0  0  0  0  0  0  0  0  0  0  0  0
   -5.1694    1.3053   -5.3276 C   0  0  0  0  0  0  0  0  0  0  0  0
   -4.4810    1.0585   -6.5373 C   0  0  0  0  0  0  0  0  0  0  0  0
   -3.0940    0.8291   -6.5339 C   0  0  0  0  0  0  0  0  0  0  0  0
   -6.6423    1.6001   -5.3346 C   0  0  0  0  0  0  0  0  0  0  0  0
    0.1169    1.6246   -5.6359 C   0  0  0  0  0  0  0  0  0  0  0  0
    1.4861    0.9729   -5.6384 C   0  0  0  0  0  0  0  0  0  0  0  0
    2.1071    0.6089   -4.6041 O   0  0  0  0  0  0  0  0  0  0  0  0
    2.0288    0.8121   -6.9425 N   0  0  0  0  0  0  0  0  0  0  0  0
    1.0564    1.3798   -7.8092 C   0  0  0  0  0  0  0  0  0  0  0  0
   -0.0144    1.9012   -7.1104 C   0  0  0  0  0  0  0  0  0  0  0  0
   -0.9570    2.7028   -7.7556 C   0  0  0  0  0  0  0  0  0  0  0  0
   -0.8727    2.8605   -9.1490 C   0  0  0  0  0  0  0  0  0  0  0  0
    0.1844    2.2665   -9.8741 C   0  0  0  0  0  0  0  0  0  0  0  0
    0.2638    2.4096  -11.3667 C   0  0  0  0  0  0  0  0  0  0  0  0
    1.1660    1.5233   -9.1954 C   0  0  0  0  0  0  0  0  0  0  0  0
    2.9255   -0.2099   -7.3061 N   0  0  0  0  0  0  0  0  0  0  0  0
    2.4840   -1.5281   -7.6351 C   0  0  0  0  0  0  0  0  0  0  0  0
    1.3951   -1.9976   -7.2107 O   0  0  0  0  0  0  0  0  0  0  0  0
    3.3533   -2.2168   -8.6672 C   0  0  0  0  0  0  0  0  0  0  0  0
    4.2628   -1.0637   -9.0088 C   0  0  0  0  0  0  0  0  0  0  0  0
    4.0145    0.0177   -8.1864 C   0  0  0  0  0  0  0  0  0  0  0  0
    4.6487    1.2489   -8.3869 C   0  0  0  0  0  0  0  0  0  0  0  0
    5.5575    1.3761   -9.4539 C   0  0  0  0  0  0  0  0  0  0  0  0
    5.7417    0.2985  -10.3474 C   0  0  0  0  0  0  0  0  0  0  0  0
    5.0703   -0.9176  -10.1403 C   0  0  0  0  0  0  0  0  0  0  0  0
    6.2291    2.6908   -9.7120 C   0  0  0  0  0  0  0  0  0  0  0  0
    4.0694   -3.5376   -8.1751 C   0  0  0  0  0  0  0  0  0  0  0  0
    3.6714   -3.9619   -6.7856 C   0  0  0  0  0  0  0  0  0  0  0  0
    2.5467   -4.4601   -6.5108 O   0  0  0  0  0  0  0  0  0  0  0  0
    4.7296   -3.8569   -5.8280 N   0  0  0  0  0  0  0  0  0  0  0  0
    5.8796   -3.6128   -6.6327 C   0  0  0  0  0  0  0  0  0  0  0  0
    5.5596   -3.4451   -7.9674 C   0  0  0  0  0  0  0  0  0  0  0  0
    6.5621   -3.4293   -8.9420 C   0  0  0  0  0  0  0  0  0  0  0  0
    7.9028   -3.4677   -8.5407 C   0  0  0  0  0  0  0  0  0  0  0  0
    8.2383   -3.5841   -7.1754 C   0  0  0  0  0  0  0  0  0  0  0  0
    9.6761   -3.6835   -6.7637 C   0  0  0  0  0  0  0  0  0  0  0  0
    7.2149   -3.7150   -6.2168 C   0  0  0  0  0  0  0  0  0  0  0  0
    4.5526   -3.3434   -4.4924 C   0  0  0  0  0  0  0  0  0  0  0  0
    3.3282   -3.2235   -3.8313 C   0  0  0  0  0  0  0  0  0  0  0  0
    3.3745   -2.3493   -2.7266 C   0  0  0  0  0  0  0  0  0  0  0  0
    2.2775   -1.8876   -1.9497 C   0  0  0  0  0  0  0  0  0  0  0  0
    0.8745   -2.3373   -2.1879 C   0  0  0  0  0  0  0  0  0  0  0  0
    0.0615   -2.7348   -1.1116 C   0  0  0  0  0  0  0  0  0  0  0  0
   -1.2373   -3.2036   -1.3397 C   0  0  0  0  0  0  0  0  0  0  0  0
   -1.7313   -3.2962   -2.6442 C   0  0  0  0  0  0  0  0  0  0  0  0
   -3.3338   -4.0422   -2.9480 S   0  0  0  0  0  0  0  0  0  0  0  0
   -2.6233   -5.7135   -3.1381 C   0  0  0  0  0  0  0  0  0  0  0  0
   -3.6894   -6.6969   -3.5978 C   0  0  0  0  0  0  0  0  0  0  0  0
   -0.9497   -2.8556   -3.7168 C   0  0  0  0  0  0  0  0  0  0  0  0
   -1.4211   -2.9266   -4.9866 F   0  0  0  0  0  0  0  0  0  0  0  0
    0.3376   -2.3602   -3.4866 C   0  0  0  0  0  0  0  0  0  0  0  0
    2.5733   -0.9118   -0.9719 C   0  0  0  0  0  0  0  0  0  0  0  0
    3.8738   -0.4591   -0.7279 C   0  0  0  0  0  0  0  0  0  0  0  0
    4.9616   -0.9559   -1.4612 C   0  0  0  0  0  0  0  0  0  0  0  0
    6.3377   -0.4706   -1.2130 C   0  0  0  0  0  0  0  0  0  0  0  0
    7.0234    0.2665   -2.1918 C   0  0  0  0  0  0  0  0  0  0  0  0
    8.2778    0.8143   -1.9076 C   0  0  0  0  0  0  0  0  0  0  0  0
    8.8580    0.6320   -0.6469 C   0  0  0  0  0  0  0  0  0  0  0  0
   10.4537    1.3705   -0.2762 S   0  0  0  0  0  0  0  0  0  0  0  0
   11.4218   -0.1181   -0.7050 C   0  0  0  0  0  0  0  0  0  0  0  0
   11.7608   -0.1301   -2.1894 C   0  0  0  0  0  0  0  0  0  0  0  0
    8.1772   -0.1023    0.3333 C   0  0  0  0  0  0  0  0  0  0  0  0
    6.9252   -0.6552    0.0483 C   0  0  0  0  0  0  0  0  0  0  0  0
    8.7174   -0.2712    1.5667 F   0  0  0  0  0  0  0  0  0  0  0  0
    4.6684   -1.8676   -2.4817 C   0  0  0  0  0  0  0  0  0  0  0  0
    5.7127   -2.4496   -3.6549 S   0  0  0  0  0  0  0  0  0  0  0  0
    3.9331    0.6271    0.1513 C   0  0  0  0  0  0  0  0  0  0  0  0
    2.6863    1.0692    0.5708 C   0  0  0  0  0  0  0  0  0  0  0  0
    1.5089    0.0729   -0.1128 S   0  0  0  0  0  0  0  0  0  0  0  0
    2.4646    2.3768    1.2047 C   0  0  0  0  0  0  0  0  0  0  0  0
    1.2385    3.0082    1.4354 C   0  0  0  0  0  0  0  0  0  0  0  0
    1.3859    4.3515    1.8409 C   0  0  0  0  0  0  0  0  0  0  0  0
    0.3554    5.2670    2.1530 C   0  0  0  0  0  0  0  0  0  0  0  0
   -1.0756    4.8865    2.1963 C   0  0  0  0  0  0  0  0  0  0  0  0
   -1.8160    5.1142    3.3682 C   0  0  0  0  0  0  0  0  0  0  0  0
   -3.1935    4.8925    3.3894 C   0  0  0  0  0  0  0  0  0  0  0  0
   -3.8491    4.4239    2.2493 C   0  0  0  0  0  0  0  0  0  0  0  0
   -5.6435    4.3047    2.2538 S   0  0  0  0  0  0  0  0  0  0  0  0
   -5.7220    2.6437    3.0051 C   0  0  0  0  0  0  0  0  0  0  0  0
   -5.5723    1.5732    1.9386 C   0  0  0  0  0  0  0  0  0  0  0  0
   -3.1112    4.1472    1.0878 C   0  0  0  0  0  0  0  0  0  0  0  0
   -3.7357    3.7013   -0.0295 F   0  0  0  0  0  0  0  0  0  0  0  0
   -1.7299    4.3803    1.0613 C   0  0  0  0  0  0  0  0  0  0  0  0
    0.7548    6.5843    2.4672 C   0  0  0  0  0  0  0  0  0  0  0  0
    2.0946    6.9841    2.5045 C   0  0  0  0  0  0  0  0  0  0  0  0
    3.1196    6.0607    2.2388 C   0  0  0  0  0  0  0  0  0  0  0  0
    4.5508    6.4333    2.2760 C   0  0  0  0  0  0  0  0  0  0  0  0
    5.3326    6.3631    1.1127 C   0  0  0  0  0  0  0  0  0  0  0  0
    6.6992    6.6520    1.1634 C   0  0  0  0  0  0  0  0  0  0  0  0
    7.2973    7.0128    2.3757 C   0  0  0  0  0  0  0  0  0  0  0  0
    9.0642    7.3375    2.4344 S   0  0  0  0  0  0  0  0  0  0  0  0
    8.9305    9.0973    1.9595 C   0  0  0  0  0  0  0  0  0  0  0  0
    8.5510    9.9610    3.1560 C   0  0  0  0  0  0  0  0  0  0  0  0
    6.5214    7.0782    3.5419 C   0  0  0  0  0  0  0  0  0  0  0  0
    5.1528    6.7969    3.4909 C   0  0  0  0  0  0  0  0  0  0  0  0
    7.0957    7.3900    4.7319 F   0  0  0  0  0  0  0  0  0  0  0  0
    2.7248    4.7557    1.9110 C   0  0  0  0  0  0  0  0  0  0  0  0
    3.7119    3.4664    1.5133 S   0  0  0  0  0  0  0  0  0  0  0  0
    2.2626    8.3517    2.7832 C   0  0  0  0  0  0  0  0  0  0  0  0
    1.0582    9.0239    2.9638 C   0  0  0  0  0  0  0  0  0  0  0  0
   -0.2116    7.9288    2.7750 S   0  0  0  0  0  0  0  0  0  0  0  0
   -5.8437   -6.6911   12.8003 H   0  0  0  0  0  0  0  0  0  0  0  0
   -4.3849   -4.6183   12.2042 H   0  0  0  0  0  0  0  0  0  0  0  0
   -2.0547   -4.3625   10.4210 H   0  0  0  0  0  0  0  0  0  0  0  0
   -0.3664   -2.8905   11.4504 H   0  0  0  0  0  0  0  0  0  0  0  0
   -0.5993    1.0223    9.9298 H   0  0  0  0  0  0  0  0  0  0  0  0
    0.5330   -0.3861    9.8426 H   0  0  0  0  0  0  0  0  0  0  0  0
    2.2875    0.8752   10.9954 H   0  0  0  0  0  0  0  0  0  0  0  0
    1.6597    1.8813    9.6320 H   0  0  0  0  0  0  0  0  0  0  0  0
    1.1540    2.2518   11.3181 H   0  0  0  0  0  0  0  0  0  0  0  0
   -4.7939   -1.0411   10.1796 H   0  0  0  0  0  0  0  0  0  0  0  0
   -6.1378   -8.0099    7.6285 H   0  0  0  0  0  0  0  0  0  0  0  0
   -7.8143   -9.4832    6.5874 H   0  0  0  0  0  0  0  0  0  0  0  0
   -8.8278   -9.0963    3.6982 H   0  0  0  0  0  0  0  0  0  0  0  0
  -10.0170   -7.7508    3.4579 H   0  0  0  0  0  0  0  0  0  0  0  0
  -10.3906   -9.5864    1.8207 H   0  0  0  0  0  0  0  0  0  0  0  0
  -10.6076  -10.7666    3.1698 H   0  0  0  0  0  0  0  0  0  0  0  0
  -11.8026   -9.4255    2.9370 H   0  0  0  0  0  0  0  0  0  0  0  0
   -8.6934   -4.6087    6.9210 H   0  0  0  0  0  0  0  0  0  0  0  0
   -6.3130   -4.4734    5.3377 H   0  0  0  0  0  0  0  0  0  0  0  0
   -2.8555   -1.1102    4.7791 H   0  0  0  0  0  0  0  0  0  0  0  0
   -2.4885    1.9121    3.5207 H   0  0  0  0  0  0  0  0  0  0  0  0
   -0.5516    2.8425    4.7411 H   0  0  0  0  0  0  0  0  0  0  0  0
    1.1187    1.4038    7.1058 H   0  0  0  0  0  0  0  0  0  0  0  0
    1.7569   -0.0788    6.2873 H   0  0  0  0  0  0  0  0  0  0  0  0
    3.1073    0.4291    8.2888 H   0  0  0  0  0  0  0  0  0  0  0  0
    3.4538    2.0928    7.6726 H   0  0  0  0  0  0  0  0  0  0  0  0
    4.1000    0.6409    6.8026 H   0  0  0  0  0  0  0  0  0  0  0  0
   -0.0817   -1.4326    2.2684 H   0  0  0  0  0  0  0  0  0  0  0  0
   -6.5784   -0.7704   -1.0915 H   0  0  0  0  0  0  0  0  0  0  0  0
   -8.2366   -2.1000   -2.3375 H   0  0  0  0  0  0  0  0  0  0  0  0
   -6.7611   -6.0635   -3.3918 H   0  0  0  0  0  0  0  0  0  0  0  0
   -8.1990   -6.3062   -4.4352 H   0  0  0  0  0  0  0  0  0  0  0  0
   -6.5993   -4.8607   -5.5960 H   0  0  0  0  0  0  0  0  0  0  0  0
   -8.0658   -3.8964   -5.1700 H   0  0  0  0  0  0  0  0  0  0  0  0
   -6.5369   -3.7169   -4.2111 H   0  0  0  0  0  0  0  0  0  0  0  0
   -4.8429   -4.4119    0.4444 H   0  0  0  0  0  0  0  0  0  0  0  0
   -4.2724   -0.8732   -2.2023 H   0  0  0  0  0  0  0  0  0  0  0  0
   -0.7221   -0.4067   -5.3969 H   0  0  0  0  0  0  0  0  0  0  0  0
   -4.9736    1.4808   -3.1742 H   0  0  0  0  0  0  0  0  0  0  0  0
   -5.0202    1.0308   -7.4754 H   0  0  0  0  0  0  0  0  0  0  0  0
   -2.5878    0.5717   -7.4532 H   0  0  0  0  0  0  0  0  0  0  0  0
   -6.7990    2.6975   -5.2767 H   0  0  0  0  0  0  0  0  0  0  0  0
   -7.1355    1.1193   -4.4629 H   0  0  0  0  0  0  0  0  0  0  0  0
   -7.1237    1.2158   -6.2575 H   0  0  0  0  0  0  0  0  0  0  0  0
    0.1348    2.5834   -5.0733 H   0  0  0  0  0  0  0  0  0  0  0  0
   -1.7507    3.1841   -7.1988 H   0  0  0  0  0  0  0  0  0  0  0  0
   -1.6262    3.4507   -9.6558 H   0  0  0  0  0  0  0  0  0  0  0  0
    1.3058    2.6427  -11.6721 H   0  0  0  0  0  0  0  0  0  0  0  0
   -0.3958    3.2256  -11.7296 H   0  0  0  0  0  0  0  0  0  0  0  0
   -0.0444    1.4561  -11.8427 H   0  0  0  0  0  0  0  0  0  0  0  0
    2.0028    1.0984   -9.7326 H   0  0  0  0  0  0  0  0  0  0  0  0
    2.7245   -2.4479   -9.5531 H   0  0  0  0  0  0  0  0  0  0  0  0
    4.4209    2.0901   -7.7450 H   0  0  0  0  0  0  0  0  0  0  0  0
    6.3791    0.4080  -11.2150 H   0  0  0  0  0  0  0  0  0  0  0  0
    5.1502   -1.7099  -10.8688 H   0  0  0  0  0  0  0  0  0  0  0  0
    7.2134    2.5352  -10.2025 H   0  0  0  0  0  0  0  0  0  0  0  0
    5.5872    3.3093  -10.3732 H   0  0  0  0  0  0  0  0  0  0  0  0
    6.4022    3.2346   -8.7589 H   0  0  0  0  0  0  0  0  0  0  0  0
    3.8560   -4.3674   -8.8827 H   0  0  0  0  0  0  0  0  0  0  0  0
    6.3123   -3.4328   -9.9927 H   0  0  0  0  0  0  0  0  0  0  0  0
    8.6820   -3.4413   -9.2927 H   0  0  0  0  0  0  0  0  0  0  0  0
   10.0329   -4.7236   -6.9115 H   0  0  0  0  0  0  0  0  0  0  0  0
   10.3006   -2.9931   -7.3710 H   0  0  0  0  0  0  0  0  0  0  0  0
    9.8014   -3.4090   -5.6952 H   0  0  0  0  0  0  0  0  0  0  0  0
    7.4612   -3.9285   -5.1867 H   0  0  0  0  0  0  0  0  0  0  0  0
    2.4332   -3.7199   -4.1684 H   0  0  0  0  0  0  0  0  0  0  0  0
    0.4404   -2.7084   -0.0981 H   0  0  0  0  0  0  0  0  0  0  0  0
   -1.8460   -3.5235   -0.5043 H   0  0  0  0  0  0  0  0  0  0  0  0
   -1.8026   -5.6942   -3.8869 H   0  0  0  0  0  0  0  0  0  0  0  0
   -2.2105   -6.0496   -2.1629 H   0  0  0  0  0  0  0  0  0  0  0  0
   -3.2309   -7.6973   -3.7477 H   0  0  0  0  0  0  0  0  0  0  0  0
   -4.1315   -6.3630   -4.5605 H   0  0  0  0  0  0  0  0  0  0  0  0
   -4.4854   -6.7775   -2.8289 H   0  0  0  0  0  0  0  0  0  0  0  0
    0.9135   -1.9947   -4.3271 H   0  0  0  0  0  0  0  0  0  0  0  0
    6.5758    0.4424   -3.1617 H   0  0  0  0  0  0  0  0  0  0  0  0
    8.7925    1.3969   -2.6611 H   0  0  0  0  0  0  0  0  0  0  0  0
   12.3662   -0.0959   -0.1221 H   0  0  0  0  0  0  0  0  0  0  0  0
   10.8752   -1.0466   -0.4308 H   0  0  0  0  0  0  0  0  0  0  0  0
   12.3161    0.7941   -2.4608 H   0  0  0  0  0  0  0  0  0  0  0  0
   12.3971   -1.0105   -2.4179 H   0  0  0  0  0  0  0  0  0  0  0  0
   10.8367   -0.1961   -2.7991 H   0  0  0  0  0  0  0  0  0  0  0  0
    6.4014   -1.2074    0.8199 H   0  0  0  0  0  0  0  0  0  0  0  0
    4.8491    1.1519    0.3850 H   0  0  0  0  0  0  0  0  0  0  0  0
    0.2867    2.5181    1.2875 H   0  0  0  0  0  0  0  0  0  0  0  0
   -1.3276    5.4920    4.2584 H   0  0  0  0  0  0  0  0  0  0  0  0
   -3.7533    5.1071    4.2909 H   0  0  0  0  0  0  0  0  0  0  0  0
   -6.7131    2.5274    3.4913 H   0  0  0  0  0  0  0  0  0  0  0  0
   -4.9424    2.5211    3.7871 H   0  0  0  0  0  0  0  0  0  0  0  0
   -6.3187    1.7266    1.1303 H   0  0  0  0  0  0  0  0  0  0  0  0
   -4.5554    1.6195    1.5065 H   0  0  0  0  0  0  0  0  0  0  0  0
   -5.7366    0.5743    2.3910 H   0  0  0  0  0  0  0  0  0  0  0  0
   -1.1808    4.2073    0.1442 H   0  0  0  0  0  0  0  0  0  0  0  0
    4.8875    6.0745    0.1677 H   0  0  0  0  0  0  0  0  0  0  0  0
    7.2933    6.5865    0.2602 H   0  0  0  0  0  0  0  0  0  0  0  0
    8.1902    9.2297    1.1414 H   0  0  0  0  0  0  0  0  0  0  0  0
    9.9222    9.4275    1.5828 H   0  0  0  0  0  0  0  0  0  0  0  0
    8.6014   11.0328    2.8721 H   0  0  0  0  0  0  0  0  0  0  0  0
    7.5161    9.7352    3.4837 H   0  0  0  0  0  0  0  0  0  0  0  0
    9.2535    9.7798    3.9990 H   0  0  0  0  0  0  0  0  0  0  0  0
    4.5643    6.8386    4.3993 H   0  0  0  0  0  0  0  0  0  0  0  0
    3.2223    8.8482    2.8324 H   0  0  0  0  0  0  0  0  0  0  0  0
    0.9556   10.0794    3.1730 H   0  0  0  0  0  0  0  0  0  0  0  0
  1  2  2  0
  2  3  1  0
  3  4  2  0
  4  5  1  0
  5  6  2  0
  6  7  1  0
  7  8  2  0
  8  9  1  0
  9 10  1  0
 10 11  1  0
  8 12  1  0
 12 13  1  0
 12 14  2  0
  4 15  1  0
 15 16  2  0
 16 17  1  0
 17 18  1  0
 18 19  2  0
 19 20  1  0
 20 21  2  0
 21 22  1  0
 22 23  1  0
 23 24  1  0
 21 25  1  0
 25 26  2  0
 25 27  1  0
 17 28  2  0
 28 29  1  0
 16 30  1  0
 30 31  2  0
 31 32  1  0
 31 33  1  0
 33 34  2  0
 34 35  1  0
 35 36  2  0
 36 37  1  0
 37 38  2  0
 38 39  1  0
 39 40  2  0
 40 41  1  0
 41 42  1  0
 42 43  1  0
 40 44  1  0
 44 45  1  0
 44 46  2  0
 36 47  1  0
 47 48  2  0
 48 49  1  0
 49 50  1  0
 50 51  2  0
 51 52  1  0
 52 53  2  0
 53 54  1  0
 54 55  1  0
 55 56  1  0
 53 57  1  0
 57 58  2  0
 57 59  1  0
 49 60  2  0
 60 61  1  0
 48 62  1  0
 62 63  2  0
 63 64  1  0
 63 65  1  0
 65 66  1  0
 66 67  2  0
 66 68  1  0
 68 69  1  0
 69 70  2  0
 70 71  1  0
 71 72  2  0
 72 73  1  0
 73 74  2  0
 72 75  1  0
 68 76  1  0
 76 77  1  0
 77 78  2  0
 77 79  1  0
 79 80  1  0
 80 81  2  0
 81 82  1  0
 82 83  2  0
 83 84  1  0
 84 85  1  0
 84 86  2  0
 79 87  1  0
 87 88  1  0
 88 89  2  0
 88 90  1  0
 90 91  1  0
 91 92  2  0
 92 93  1  0
 93 94  2  0
 94 95  1  0
 95 96  2  0
 94 97  1  0
 90 98  1  0
 98 99  1  0
 99100  2  0
 99101  1  0
101102  1  0
102103  2  0
103104  1  0
104105  2  0
105106  1  0
106107  1  0
106108  2  0
101109  1  0
109110  2  0
110111  1  0
111112  2  0
112113  1  0
113114  2  0
114115  1  0
115116  2  0
116117  1  0
117118  1  0
118119  1  0
116120  1  0
120121  1  0
120122  2  0
112123  1  0
123124  2  0
124125  1  0
125126  1  0
126127  2  0
127128  1  0
128129  2  0
129130  1  0
130131  1  0
131132  1  0
129133  1  0
133134  2  0
133135  1  0
125136  2  0
136137  1  0
124138  1  0
138139  2  0
139140  1  0
139141  1  0
141142  2  0
142143  1  0
143144  2  0
144145  1  0
145146  2  0
146147  1  0
147148  2  0
148149  1  0
149150  1  0
150151  1  0
148152  1  0
152153  1  0
152154  2  0
144155  1  0
155156  2  0
156157  1  0
157158  1  0
158159  2  0
159160  1  0
160161  2  0
161162  1  0
162163  1  0
163164  1  0
161165  1  0
165166  2  0
165167  1  0
157168  2  0
168169  1  0
156170  1  0
170171  2  0
171172  1  0
 29  1  1  0
 61 33  1  0
 70 65  1  0
 81 76  1  0
 92 87  1  0
103 98  1  0
137109  1  0
169141  1  0
 28  3  1  0
 60 35  1  0
 74 69  1  0
 86 80  1  0
 96 91  1  0
108102  1  0
136111  1  0
168143  1  0
 14  5  1  0
 32 15  1  0
 46 37  1  0
 64 47  1  0
122113  1  0
140123  1  0
154145  1  0
172155  1  0
 26 18  1  0
 58 50  1  0
134126  1  0
166158  1  0
  1173  1  0
  2174  1  0
  6175  1  0
  7176  1  0
 10177  1  0
 10178  1  0
 11179  1  0
 11180  1  0
 11181  1  0
 14182  1  0
 19183  1  0
 20184  1  0
 23185  1  0
 23186  1  0
 24187  1  0
 24188  1  0
 24189  1  0
 26190  1  0
 30191  1  0
 34192  1  0
 38193  1  0
 39194  1  0
 42195  1  0
 42196  1  0
 43197  1  0
 43198  1  0
 43199  1  0
 46200  1  0
 51201  1  0
 52202  1  0
 55203  1  0
 55204  1  0
 56205  1  0
 56206  1  0
 56207  1  0
 58208  1  0
 62209  1  0
 68210  1  0
 71211  1  0
 73212  1  0
 74213  1  0
 75214  1  0
 75215  1  0
 75216  1  0
 76217  1  0
 82218  1  0
 83219  1  0
 85220  1  0
 85221  1  0
 85222  1  0
 86223  1  0
 90224  1  0
 93225  1  0
 95226  1  0
 96227  1  0
 97228  1  0
 97229  1  0
 97230  1  0
 98231  1  0
104232  1  0
105233  1  0
107234  1  0
107235  1  0
107236  1  0
108237  1  0
110238  1  0
114239  1  0
115240  1  0
118241  1  0
118242  1  0
119243  1  0
119244  1  0
119245  1  0
122246  1  0
127247  1  0
128248  1  0
131249  1  0
131250  1  0
132251  1  0
132252  1  0
132253  1  0
134254  1  0
138255  1  0
142256  1  0
146257  1  0
147258  1  0
150259  1  0
150260  1  0
151261  1  0
151262  1  0
151263  1  0
154264  1  0
159265  1  0
160266  1  0
163267  1  0
163268  1  0
164269  1  0
164270  1  0
164271  1  0
166272  1  0
170273  1  0
171274  1  0
M  END

