
     RDKit          3D

222247  0  0  0  0  0  0  0  0999 V2000
    7.7103   -7.4918    9.3590 C   0  0  0  0  0  0  0  0  0  0  0  0
    7.9923   -6.7968    8.1851 C   0  0  0  0  0  0  0  0  0  0  0  0
    6.9336   -6.8154    7.2625 C   0  0  0  0  0  0  0  0  0  0  0  0
    6.9314   -6.2320    5.9803 C   0  0  0  0  0  0  0  0  0  0  0  0
    8.0787   -5.4655    5.4617 C   0  0  0  0  0  0  0  0  0  0  0  0
    8.9978   -5.9072    4.1252 S   0  0  0  0  0  0  0  0  0  0  0  0
    9.9164   -4.5016    4.0699 C   0  0  0  0  0  0  0  0  0  0  0  0
   10.9933   -4.2272    3.0629 C   0  0  0  0  0  0  0  0  0  0  0  0
   12.3642   -4.5818    3.6256 C   0  0  0  0  0  0  0  0  0  0  0  0
    9.5185   -3.6625    5.1125 C   0  0  0  0  0  0  0  0  0  0  0  0
   10.2167   -2.0742    5.3978 Cl  0  0  0  0  0  0  0  0  0  0  0  0
    8.4808   -4.2016    5.8876 C   0  0  0  0  0  0  0  0  0  0  0  0
    7.7097   -3.3314    7.2076 Cl  0  0  0  0  0  0  0  0  0  0  0  0
    5.7710   -6.3921    5.2108 C   0  0  0  0  0  0  0  0  0  0  0  0
    4.6449   -7.0858    5.6709 C   0  0  0  0  0  0  0  0  0  0  0  0
    4.6518   -7.6873    6.9486 C   0  0  0  0  0  0  0  0  0  0  0  0
    3.5021   -8.4585    7.4568 C   0  0  0  0  0  0  0  0  0  0  0  0
    2.6359   -8.0938    8.8526 S   0  0  0  0  0  0  0  0  0  0  0  0
    1.5679   -9.3878    8.7439 C   0  0  0  0  0  0  0  0  0  0  0  0
    0.4344   -9.6430    9.6927 C   0  0  0  0  0  0  0  0  0  0  0  0
   -0.8364   -8.9509    9.2120 C   0  0  0  0  0  0  0  0  0  0  0  0
    1.8651  -10.1182    7.5950 C   0  0  0  0  0  0  0  0  0  0  0  0
    2.9585   -9.6055    6.8796 C   0  0  0  0  0  0  0  0  0  0  0  0
    3.6096  -10.3770    5.4385 Cl  0  0  0  0  0  0  0  0  0  0  0  0
    0.9636  -11.5422    7.0880 Cl  0  0  0  0  0  0  0  0  0  0  0  0
    5.8167   -7.5218    7.7219 C   0  0  0  0  0  0  0  0  0  0  0  0
    6.1531   -8.1278    9.2557 S   0  0  0  0  0  0  0  0  0  0  0  0
    3.5718   -7.0552    4.7619 C   0  0  0  0  0  0  0  0  0  0  0  0
    3.8817   -6.3606    3.5975 C   0  0  0  0  0  0  0  0  0  0  0  0
    5.4489   -5.7510    3.6934 S   0  0  0  0  0  0  0  0  0  0  0  0
    2.9664   -6.0520    2.5039 C   0  0  0  0  0  0  0  0  0  0  0  0
    2.2913   -4.8405    2.3814 C   0  0  0  0  0  0  0  0  0  0  0  0
    1.8270   -4.6015    1.0807 C   0  0  0  0  0  0  0  0  0  0  0  0
    1.2161   -3.4179    0.6123 C   0  0  0  0  0  0  0  0  0  0  0  0
    0.8862   -2.2877    1.5044 C   0  0  0  0  0  0  0  0  0  0  0  0
   -0.6711   -1.6937    1.7265 S   0  0  0  0  0  0  0  0  0  0  0  0
   -0.2504   -0.4717    2.8004 C   0  0  0  0  0  0  0  0  0  0  0  0
   -1.2349    0.4331    3.4759 C   0  0  0  0  0  0  0  0  0  0  0  0
   -1.7546   -0.2136    4.7533 C   0  0  0  0  0  0  0  0  0  0  0  0
    1.1235   -0.5331    3.0278 C   0  0  0  0  0  0  0  0  0  0  0  0
    1.9715    0.5499    4.1281 Cl  0  0  0  0  0  0  0  0  0  0  0  0
    1.7659   -1.5379    2.2874 C   0  0  0  0  0  0  0  0  0  0  0  0
    3.5115   -1.7711    2.2936 Cl  0  0  0  0  0  0  0  0  0  0  0  0
    0.8978   -3.3704   -0.7551 C   0  0  0  0  0  0  0  0  0  0  0  0
    1.1205   -4.4443   -1.6272 C   0  0  0  0  0  0  0  0  0  0  0  0
    1.7288   -5.6273   -1.1564 C   0  0  0  0  0  0  0  0  0  0  0  0
    2.0419   -6.7488   -2.0571 C   0  0  0  0  0  0  0  0  0  0  0  0
    3.1101   -6.6673   -3.3543 S   0  0  0  0  0  0  0  0  0  0  0  0
    2.9010   -8.2587   -3.8563 C   0  0  0  0  0  0  0  0  0  0  0  0
    3.5545   -8.8576   -5.0666 C   0  0  0  0  0  0  0  0  0  0  0  0
    2.7934   -8.4749   -6.3307 C   0  0  0  0  0  0  0  0  0  0  0  0
    1.9733   -8.8760   -3.0149 C   0  0  0  0  0  0  0  0  0  0  0  0
    1.4973   -8.0293   -2.0014 C   0  0  0  0  0  0  0  0  0  0  0  0
    0.2870   -8.5208   -0.8248 Cl  0  0  0  0  0  0  0  0  0  0  0  0
    1.4371  -10.5415   -3.2132 Cl  0  0  0  0  0  0  0  0  0  0  0  0
    2.0849   -5.6628    0.2047 C   0  0  0  0  0  0  0  0  0  0  0  0
    2.9651   -6.8466    1.0187 S   0  0  0  0  0  0  0  0  0  0  0  0
    0.6911   -4.1872   -2.9430 C   0  0  0  0  0  0  0  0  0  0  0  0
    0.2060   -2.8922   -3.1055 C   0  0  0  0  0  0  0  0  0  0  0  0
    0.2521   -2.0858   -1.6231 S   0  0  0  0  0  0  0  0  0  0  0  0
   -0.3723   -2.3249   -4.3258 C   0  0  0  0  0  0  0  0  0  0  0  0
   -1.4487   -2.8739   -5.0207 C   0  0  0  0  0  0  0  0  0  0  0  0
   -2.0743   -1.9489   -5.8789 C   0  0  0  0  0  0  0  0  0  0  0  0
   -3.3241   -2.1258   -6.5187 C   0  0  0  0  0  0  0  0  0  0  0  0
   -3.9872   -3.4440   -6.5595 C   0  0  0  0  0  0  0  0  0  0  0  0
   -5.5292   -3.7845   -5.9752 S   0  0  0  0  0  0  0  0  0  0  0  0
   -5.5356   -5.4076   -6.4146 C   0  0  0  0  0  0  0  0  0  0  0  0
   -6.7095   -6.3226   -6.2694 C   0  0  0  0  0  0  0  0  0  0  0  0
   -7.5083   -6.3780   -7.5672 C   0  0  0  0  0  0  0  0  0  0  0  0
   -4.3236   -5.7036   -7.0383 C   0  0  0  0  0  0  0  0  0  0  0  0
   -3.9381   -7.2892   -7.7000 Cl  0  0  0  0  0  0  0  0  0  0  0  0
   -3.4573   -4.6071   -7.1186 C   0  0  0  0  0  0  0  0  0  0  0  0
   -1.8918   -4.6781   -7.9183 Cl  0  0  0  0  0  0  0  0  0  0  0  0
   -3.9386   -0.9664   -7.0276 C   0  0  0  0  0  0  0  0  0  0  0  0
   -3.3159    0.2827   -7.0112 C   0  0  0  0  0  0  0  0  0  0  0  0
   -2.0237    0.4324   -6.4725 C   0  0  0  0  0  0  0  0  0  0  0  0
   -1.3614    1.7428   -6.3873 C   0  0  0  0  0  0  0  0  0  0  0  0
   -1.7599    2.9582   -5.2981 S   0  0  0  0  0  0  0  0  0  0  0  0
   -0.5778    4.0390   -5.8157 C   0  0  0  0  0  0  0  0  0  0  0  0
   -0.4098    5.4281   -5.2811 C   0  0  0  0  0  0  0  0  0  0  0  0
   -1.2506    6.4103   -6.0879 C   0  0  0  0  0  0  0  0  0  0  0  0
    0.1431    3.4559   -6.8579 C   0  0  0  0  0  0  0  0  0  0  0  0
   -0.2851    2.1599   -7.1648 C   0  0  0  0  0  0  0  0  0  0  0  0
    0.4609    1.1546   -8.3999 Cl  0  0  0  0  0  0  0  0  0  0  0  0
    1.4579    4.2632   -7.7044 Cl  0  0  0  0  0  0  0  0  0  0  0  0
   -1.4544   -0.6954   -5.8684 C   0  0  0  0  0  0  0  0  0  0  0  0
   -0.1711   -0.7188   -4.7812 S   0  0  0  0  0  0  0  0  0  0  0  0
   -4.1726    1.3405   -7.3540 C   0  0  0  0  0  0  0  0  0  0  0  0
   -5.5079    0.9646   -7.5152 C   0  0  0  0  0  0  0  0  0  0  0  0
   -5.5619   -0.7226   -7.3981 S   0  0  0  0  0  0  0  0  0  0  0  0
   -6.4897    1.7573   -6.7788 C   0  0  0  0  0  0  0  0  0  0  0  0
   -6.3759    1.8869   -5.4849 O   0  0  0  0  0  0  0  0  0  0  0  0
   -7.2807    2.7195   -5.0495 C   0  0  0  0  0  0  0  0  0  0  0  0
   -8.0633    3.1655   -6.1050 C   0  0  0  0  0  0  0  0  0  0  0  0
   -7.5389    2.5388   -7.2314 C   0  0  0  0  0  0  0  0  0  0  0  0
   -8.0420    2.6564   -8.6339 C   0  0  0  0  0  0  0  0  0  0  0  0
   -7.2892    3.1297   -3.6472 C   0  0  0  0  0  0  0  0  0  0  0  0
   -6.9328    4.4238   -3.2563 C   0  0  0  0  0  0  0  0  0  0  0  0
   -6.1361    4.4537   -2.0915 C   0  0  0  0  0  0  0  0  0  0  0  0
   -5.4454    5.5753   -1.5868 C   0  0  0  0  0  0  0  0  0  0  0  0
   -5.7451    6.9371   -2.0668 C   0  0  0  0  0  0  0  0  0  0  0  0
   -7.2195    7.7102   -1.8285 S   0  0  0  0  0  0  0  0  0  0  0  0
   -6.8001    9.1474   -2.5963 C   0  0  0  0  0  0  0  0  0  0  0  0
   -7.6909   10.3528   -2.6791 C   0  0  0  0  0  0  0  0  0  0  0  0
   -7.7061   11.1066   -1.3540 C   0  0  0  0  0  0  0  0  0  0  0  0
   -5.4851    9.0427   -3.0451 C   0  0  0  0  0  0  0  0  0  0  0  0
   -4.6337   10.3351   -3.8783 Cl  0  0  0  0  0  0  0  0  0  0  0  0
   -4.8943    7.7998   -2.7603 C   0  0  0  0  0  0  0  0  0  0  0  0
   -3.2717    7.3668   -3.2784 Cl  0  0  0  0  0  0  0  0  0  0  0  0
   -4.4552    5.3296   -0.6151 C   0  0  0  0  0  0  0  0  0  0  0  0
   -4.1701    4.0407   -0.1484 C   0  0  0  0  0  0  0  0  0  0  0  0
   -4.9127    2.9357   -0.5933 C   0  0  0  0  0  0  0  0  0  0  0  0
   -4.6126    1.5704   -0.1280 C   0  0  0  0  0  0  0  0  0  0  0  0
   -4.9627    0.9992    1.4101 S   0  0  0  0  0  0  0  0  0  0  0  0
   -4.3933   -0.5625    1.1557 C   0  0  0  0  0  0  0  0  0  0  0  0
   -4.4905   -1.6717    2.1564 C   0  0  0  0  0  0  0  0  0  0  0  0
   -5.8643   -2.3311    2.0947 C   0  0  0  0  0  0  0  0  0  0  0  0
   -3.9343   -0.6606   -0.1579 C   0  0  0  0  0  0  0  0  0  0  0  0
   -4.0366    0.5423   -0.8746 C   0  0  0  0  0  0  0  0  0  0  0  0
   -3.4524    0.7353   -2.5247 Cl  0  0  0  0  0  0  0  0  0  0  0  0
   -3.3198   -2.1504   -0.8633 Cl  0  0  0  0  0  0  0  0  0  0  0  0
   -5.8925    3.1822   -1.5656 C   0  0  0  0  0  0  0  0  0  0  0  0
   -6.6855    2.0511   -2.5025 S   0  0  0  0  0  0  0  0  0  0  0  0
   -3.0232    3.9769    0.6503 C   0  0  0  0  0  0  0  0  0  0  0  0
   -2.4203    5.2141    0.8384 C   0  0  0  0  0  0  0  0  0  0  0  0
   -3.2993    6.3906    0.0048 S   0  0  0  0  0  0  0  0  0  0  0  0
   -1.0209    5.3624    1.2326 C   0  0  0  0  0  0  0  0  0  0  0  0
    0.0388    4.7623    0.5626 C   0  0  0  0  0  0  0  0  0  0  0  0
    1.2695    4.9621    1.1979 C   0  0  0  0  0  0  0  0  0  0  0  0
    2.5147    4.4739    0.7580 C   0  0  0  0  0  0  0  0  0  0  0  0
    2.6456    3.7472   -0.5158 C   0  0  0  0  0  0  0  0  0  0  0  0
    2.4541    4.4464   -2.0322 S   0  0  0  0  0  0  0  0  0  0  0  0
    2.5916    3.0135   -2.9035 C   0  0  0  0  0  0  0  0  0  0  0  0
    2.5350    2.9209   -4.3938 C   0  0  0  0  0  0  0  0  0  0  0  0
    3.9292    2.7693   -4.9892 C   0  0  0  0  0  0  0  0  0  0  0  0
    2.7849    1.9598   -2.0091 C   0  0  0  0  0  0  0  0  0  0  0  0
    2.9392    0.2817   -2.5061 Cl  0  0  0  0  0  0  0  0  0  0  0  0
    2.8138    2.3759   -0.6698 C   0  0  0  0  0  0  0  0  0  0  0  0
    2.9888    1.2716    0.6817 Cl  0  0  0  0  0  0  0  0  0  0  0  0
    3.6212    4.7220    1.5847 C   0  0  0  0  0  0  0  0  0  0  0  0
    3.5219    5.4459    2.7764 C   0  0  0  0  0  0  0  0  0  0  0  0
    2.2760    5.9647    3.1984 C   0  0  0  0  0  0  0  0  0  0  0  0
    2.1349    6.7295    4.4504 C   0  0  0  0  0  0  0  0  0  0  0  0
    1.2154    6.2455    5.7726 S   0  0  0  0  0  0  0  0  0  0  0  0
    1.5793    7.5728    6.7414 C   0  0  0  0  0  0  0  0  0  0  0  0
    1.0206    7.8051    8.1120 C   0  0  0  0  0  0  0  0  0  0  0  0
   -0.3201    8.5275    8.0317 C   0  0  0  0  0  0  0  0  0  0  0  0
    2.4152    8.4293    6.0271 C   0  0  0  0  0  0  0  0  0  0  0  0
    2.7306    7.9542    4.7440 C   0  0  0  0  0  0  0  0  0  0  0  0
    3.7289    8.8468    3.6026 Cl  0  0  0  0  0  0  0  0  0  0  0  0
    3.0026    9.9659    6.6552 Cl  0  0  0  0  0  0  0  0  0  0  0  0
    1.1648    5.6941    2.3843 C   0  0  0  0  0  0  0  0  0  0  0  0
   -0.4504    6.1273    2.6247 S   0  0  0  0  0  0  0  0  0  0  0  0
    4.7461    5.5482    3.4606 C   0  0  0  0  0  0  0  0  0  0  0  0
    5.7960    4.9245    2.7950 C   0  0  0  0  0  0  0  0  0  0  0  0
    5.2186    4.2369    1.3673 S   0  0  0  0  0  0  0  0  0  0  0  0
    8.3823   -7.6102   10.1945 H   0  0  0  0  0  0  0  0  0  0  0  0
    8.9426   -6.3099    8.0098 H   0  0  0  0  0  0  0  0  0  0  0  0
   10.9712   -3.1565    2.7680 H   0  0  0  0  0  0  0  0  0  0  0  0
   10.8059   -4.8338    2.1499 H   0  0  0  0  0  0  0  0  0  0  0  0
   12.4002   -5.6545    3.9081 H   0  0  0  0  0  0  0  0  0  0  0  0
   13.1431   -4.3852    2.8579 H   0  0  0  0  0  0  0  0  0  0  0  0
   12.5843   -3.9603    4.5176 H   0  0  0  0  0  0  0  0  0  0  0  0
    0.7020   -9.2590   10.7001 H   0  0  0  0  0  0  0  0  0  0  0  0
    0.2532  -10.7345    9.7812 H   0  0  0  0  0  0  0  0  0  0  0  0
   -1.6710   -9.1758    9.9116 H   0  0  0  0  0  0  0  0  0  0  0  0
   -1.1145   -9.3129    8.1993 H   0  0  0  0  0  0  0  0  0  0  0  0
   -0.6857   -7.8511    9.1782 H   0  0  0  0  0  0  0  0  0  0  0  0
    2.5984   -7.4926    4.9484 H   0  0  0  0  0  0  0  0  0  0  0  0
    2.2163   -4.1337    3.1961 H   0  0  0  0  0  0  0  0  0  0  0  0
   -2.0850    0.6307    2.7884 H   0  0  0  0  0  0  0  0  0  0  0  0
   -0.7608    1.4090    3.7133 H   0  0  0  0  0  0  0  0  0  0  0  0
   -0.9203   -0.3857    5.4642 H   0  0  0  0  0  0  0  0  0  0  0  0
   -2.2456   -1.1817    4.5206 H   0  0  0  0  0  0  0  0  0  0  0  0
   -2.5009    0.4568    5.2281 H   0  0  0  0  0  0  0  0  0  0  0  0
    4.5989   -8.4891   -5.1409 H   0  0  0  0  0  0  0  0  0  0  0  0
    3.5874   -9.9608   -4.9780 H   0  0  0  0  0  0  0  0  0  0  0  0
    3.2815   -8.9445   -7.2119 H   0  0  0  0  0  0  0  0  0  0  0  0
    2.8034   -7.3723   -6.4704 H   0  0  0  0  0  0  0  0  0  0  0  0
    1.7438   -8.8362   -6.2766 H   0  0  0  0  0  0  0  0  0  0  0  0
    0.7432   -4.9037   -3.7542 H   0  0  0  0  0  0  0  0  0  0  0  0
   -1.8458   -3.8554   -4.8011 H   0  0  0  0  0  0  0  0  0  0  0  0
   -6.3604   -7.3438   -6.0031 H   0  0  0  0  0  0  0  0  0  0  0  0
   -7.3677   -5.9635   -5.4477 H   0  0  0  0  0  0  0  0  0  0  0  0
   -7.8941   -5.3697   -7.8294 H   0  0  0  0  0  0  0  0  0  0  0  0
   -8.3707   -7.0654   -7.4385 H   0  0  0  0  0  0  0  0  0  0  0  0
   -6.8767   -6.7595   -8.3981 H   0  0  0  0  0  0  0  0  0  0  0  0
   -0.7343    5.4516   -4.2181 H   0  0  0  0  0  0  0  0  0  0  0  0
    0.6572    5.7317   -5.3275 H   0  0  0  0  0  0  0  0  0  0  0  0
   -1.1068    7.4392   -5.6877 H   0  0  0  0  0  0  0  0  0  0  0  0
   -2.3264    6.1477   -6.0038 H   0  0  0  0  0  0  0  0  0  0  0  0
   -0.9460    6.3986   -7.1575 H   0  0  0  0  0  0  0  0  0  0  0  0
   -3.8887    2.3773   -7.2330 H   0  0  0  0  0  0  0  0  0  0  0  0
   -8.8852    3.8656   -6.0634 H   0  0  0  0  0  0  0  0  0  0  0  0
   -7.2180    2.4624   -9.3524 H   0  0  0  0  0  0  0  0  0  0  0  0
   -8.4386    3.6765   -8.8029 H   0  0  0  0  0  0  0  0  0  0  0  0
   -8.8491    1.9132   -8.7911 H   0  0  0  0  0  0  0  0  0  0  0  0
   -7.0783    5.2872   -3.8932 H   0  0  0  0  0  0  0  0  0  0  0  0
   -8.7220   10.0237   -2.9248 H   0  0  0  0  0  0  0  0  0  0  0  0
   -7.3498   11.0310   -3.4882 H   0  0  0  0  0  0  0  0  0  0  0  0
   -8.1033   10.4570   -0.5457 H   0  0  0  0  0  0  0  0  0  0  0  0
   -6.6815   11.4403   -1.0904 H   0  0  0  0  0  0  0  0  0  0  0  0
   -8.3567   11.9992   -1.4427 H   0  0  0  0  0  0  0  0  0  0  0  0
   -4.3275   -1.2649    3.1754 H   0  0  0  0  0  0  0  0  0  0  0  0
   -3.7035   -2.4293    1.9669 H   0  0  0  0  0  0  0  0  0  0  0  0
   -6.0362   -2.7629    1.0850 H   0  0  0  0  0  0  0  0  0  0  0  0
   -6.6600   -1.5879    2.3182 H   0  0  0  0  0  0  0  0  0  0  0  0
   -5.9209   -3.1465    2.8434 H   0  0  0  0  0  0  0  0  0  0  0  0
   -2.5799    3.0502    0.9945 H   0  0  0  0  0  0  0  0  0  0  0  0
   -0.0877    4.1863   -0.3458 H   0  0  0  0  0  0  0  0  0  0  0  0
    1.8966    2.0628   -4.6987 H   0  0  0  0  0  0  0  0  0  0  0  0
    2.0832    3.8521   -4.7891 H   0  0  0  0  0  0  0  0  0  0  0  0
    4.3949    1.8194   -4.6505 H   0  0  0  0  0  0  0  0  0  0  0  0
    4.5707    3.6236   -4.6883 H   0  0  0  0  0  0  0  0  0  0  0  0
    3.8524    2.7513   -6.0955 H   0  0  0  0  0  0  0  0  0  0  0  0
    1.7315    8.4051    8.7201 H   0  0  0  0  0  0  0  0  0  0  0  0
    0.8790    6.8264    8.6175 H   0  0  0  0  0  0  0  0  0  0  0  0
   -1.0542    7.9161    7.4639 H   0  0  0  0  0  0  0  0  0  0  0  0
   -0.7119    8.6956    9.0564 H   0  0  0  0  0  0  0  0  0  0  0  0
   -0.2001    9.5121    7.5316 H   0  0  0  0  0  0  0  0  0  0  0  0
    4.8722    6.0502    4.4120 H   0  0  0  0  0  0  0  0  0  0  0  0
    6.8176    4.8828    3.1419 H   0  0  0  0  0  0  0  0  0  0  0  0
  1  2  2  0
  2  3  1  0
  3  4  2  0
  4  5  1  0
  5  6  1  0
  6  7  1  0
  7  8  1  0
  8  9  1  0
  7 10  2  0
 10 11  1  0
 10 12  1  0
 12 13  1  0
  4 14  1  0
 14 15  2  0
 15 16  1  0
 16 17  1  0
 17 18  1  0
 18 19  1  0
 19 20  1  0
 20 21  1  0
 19 22  2  0
 22 23  1  0
 23 24  1  0
 22 25  1  0
 16 26  2  0
 26 27  1  0
 15 28  1  0
 28 29  2  0
 29 30  1  0
 29 31  1  0
 31 32  2  0
 32 33  1  0
 33 34  2  0
 34 35  1  0
 35 36  1  0
 36 37  1  0
 37 38  1  0
 38 39  1  0
 37 40  2  0
 40 41  1  0
 40 42  1  0
 42 43  1  0
 34 44  1  0
 44 45  2  0
 45 46  1  0
 46 47  1  0
 47 48  1  0
 48 49  1  0
 49 50  1  0
 50 51  1  0
 49 52  2  0
 52 53  1  0
 53 54  1  0
 52 55  1  0
 46 56  2  0
 56 57  1  0
 45 58  1  0
 58 59  2  0
 59 60  1  0
 59 61  1  0
 61 62  2  0
 62 63  1  0
 63 64  2  0
 64 65  1  0
 65 66  1  0
 66 67  1  0
 67 68  1  0
 68 69  1  0
 67 70  2  0
 70 71  1  0
 70 72  1  0
 72 73  1  0
 64 74  1  0
 74 75  2  0
 75 76  1  0
 76 77  1  0
 77 78  1  0
 78 79  1  0
 79 80  1  0
 80 81  1  0
 79 82  2  0
 82 83  1  0
 83 84  1  0
 82 85  1  0
 76 86  2  0
 86 87  1  0
 75 88  1  0
 88 89  2  0
 89 90  1  0
 89 91  1  0
 91 92  1  0
 92 93  1  0
 93 94  2  0
 94 95  1  0
 95 96  1  0
 93 97  1  0
 97 98  2  0
 98 99  1  0
 99100  2  0
100101  1  0
101102  1  0
102103  1  0
103104  1  0
104105  1  0
103106  2  0
106107  1  0
106108  1  0
108109  1  0
100110  1  0
110111  2  0
111112  1  0
112113  1  0
113114  1  0
114115  1  0
115116  1  0
116117  1  0
115118  2  0
118119  1  0
119120  1  0
118121  1  0
112122  2  0
122123  1  0
111124  1  0
124125  2  0
125126  1  0
125127  1  0
127128  2  0
128129  1  0
129130  2  0
130131  1  0
131132  1  0
132133  1  0
133134  1  0
134135  1  0
133136  2  0
136137  1  0
136138  1  0
138139  1  0
130140  1  0
140141  2  0
141142  1  0
142143  1  0
143144  1  0
144145  1  0
145146  1  0
146147  1  0
145148  2  0
148149  1  0
149150  1  0
148151  1  0
142152  2  0
152153  1  0
141154  1  0
154155  2  0
155156  1  0
 27  1  1  0
 57 31  1  0
 87 61  1  0
 95 91  2  0
123 97  1  0
153127  1  0
 26  3  1  0
 56 33  1  0
 86 63  1  0
122 99  1  0
152129  1  0
 12  5  2  0
 30 14  1  0
 42 35  2  0
 60 44  1  0
 72 65  2  0
 90 74  1  0
108101  2  0
126110  1  0
138131  2  0
156140  1  0
 23 17  2  0
 53 47  2  0
 83 77  2  0
119113  2  0
149143  2  0
  1157  1  0
  2158  1  0
  8159  1  0
  8160  1  0
  9161  1  0
  9162  1  0
  9163  1  0
 20164  1  0
 20165  1  0
 21166  1  0
 21167  1  0
 21168  1  0
 28169  1  0
 32170  1  0
 38171  1  0
 38172  1  0
 39173  1  0
 39174  1  0
 39175  1  0
 50176  1  0
 50177  1  0
 51178  1  0
 51179  1  0
 51180  1  0
 58181  1  0
 62182  1  0
 68183  1  0
 68184  1  0
 69185  1  0
 69186  1  0
 69187  1  0
 80188  1  0
 80189  1  0
 81190  1  0
 81191  1  0
 81192  1  0
 88193  1  0
 94194  1  0
 96195  1  0
 96196  1  0
 96197  1  0
 98198  1  0
104199  1  0
104200  1  0
105201  1  0
105202  1  0
105203  1  0
116204  1  0
116205  1  0
117206  1  0
117207  1  0
117208  1  0
124209  1  0
128210  1  0
134211  1  0
134212  1  0
135213  1  0
135214  1  0
135215  1  0
146216  1  0
146217  1  0
147218  1  0
147219  1  0
147220  1  0
154221  1  0
155222  1  0
M  END

