
     RDKit          3D

232253  0  0  0  0  0  0  0  0999 V2000
    1.9085   -8.5948   10.5760 C   0  0  0  0  0  0  0  0  0  0  0  0
    0.6992   -7.9198   10.4473 C   0  0  0  0  0  0  0  0  0  0  0  0
    0.2896   -7.7681    9.1124 C   0  0  0  0  0  0  0  0  0  0  0  0
   -0.8849   -7.1293    8.6681 C   0  0  0  0  0  0  0  0  0  0  0  0
   -1.8146   -6.4548    9.5959 C   0  0  0  0  0  0  0  0  0  0  0  0
   -3.1290   -6.9226    9.7474 C   0  0  0  0  0  0  0  0  0  0  0  0
   -4.0238   -6.2468   10.5778 C   0  0  0  0  0  0  0  0  0  0  0  0
   -3.6177   -5.0928   11.2613 C   0  0  0  0  0  0  0  0  0  0  0  0
   -4.7869   -4.2155   12.3005 S   0  0  0  0  0  0  0  0  0  0  0  0
   -5.3553   -3.1313   10.9470 C   0  0  0  0  0  0  0  0  0  0  0  0
   -6.3682   -2.1266   11.4757 C   0  0  0  0  0  0  0  0  0  0  0  0
   -2.3034   -4.6271   11.1197 C   0  0  0  0  0  0  0  0  0  0  0  0
   -1.9029   -3.4990   11.7604 F   0  0  0  0  0  0  0  0  0  0  0  0
   -1.4057   -5.3050   10.2898 C   0  0  0  0  0  0  0  0  0  0  0  0
   -1.1043   -7.1005    7.2811 C   0  0  0  0  0  0  0  0  0  0  0  0
   -0.1973   -7.6416    6.3621 C   0  0  0  0  0  0  0  0  0  0  0  0
    0.9712   -8.2970    6.8064 C   0  0  0  0  0  0  0  0  0  0  0  0
    1.9066   -8.9542    5.8660 C   0  0  0  0  0  0  0  0  0  0  0  0
    2.5972   -8.2042    4.9003 C   0  0  0  0  0  0  0  0  0  0  0  0
    3.4376   -8.8414    3.9809 C   0  0  0  0  0  0  0  0  0  0  0  0
    3.6059  -10.2305    4.0277 C   0  0  0  0  0  0  0  0  0  0  0  0
    4.6793  -11.0409    2.8367 S   0  0  0  0  0  0  0  0  0  0  0  0
    3.3354  -11.3224    1.6350 C   0  0  0  0  0  0  0  0  0  0  0  0
    3.8758  -12.0415    0.4083 C   0  0  0  0  0  0  0  0  0  0  0  0
    2.9395  -10.9800    5.0066 C   0  0  0  0  0  0  0  0  0  0  0  0
    2.0927  -10.3460    5.9200 C   0  0  0  0  0  0  0  0  0  0  0  0
    3.0991  -12.3268    5.0680 F   0  0  0  0  0  0  0  0  0  0  0  0
    1.1783   -8.3408    8.1972 C   0  0  0  0  0  0  0  0  0  0  0  0
    2.4706   -9.0121    9.0404 S   0  0  0  0  0  0  0  0  0  0  0  0
   -0.5850   -7.4401    5.0282 C   0  0  0  0  0  0  0  0  0  0  0  0
   -1.7907   -6.7510    4.9133 C   0  0  0  0  0  0  0  0  0  0  0  0
   -2.3829   -6.3846    6.4475 S   0  0  0  0  0  0  0  0  0  0  0  0
   -2.3487   -6.2405    3.6599 C   0  0  0  0  0  0  0  0  0  0  0  0
   -1.6036   -5.6247    2.6608 C   0  0  0  0  0  0  0  0  0  0  0  0
   -2.3981   -5.1135    1.6250 C   0  0  0  0  0  0  0  0  0  0  0  0
   -1.9472   -4.3354    0.5396 C   0  0  0  0  0  0  0  0  0  0  0  0
   -0.5407   -3.8834    0.4266 C   0  0  0  0  0  0  0  0  0  0  0  0
    0.5038   -4.8074    0.2665 C   0  0  0  0  0  0  0  0  0  0  0  0
    1.8285   -4.3663    0.1825 C   0  0  0  0  0  0  0  0  0  0  0  0
    2.1237   -2.9988    0.2613 C   0  0  0  0  0  0  0  0  0  0  0  0
    3.8258   -2.4352    0.1157 S   0  0  0  0  0  0  0  0  0  0  0  0
    4.2610   -2.6827    1.8759 C   0  0  0  0  0  0  0  0  0  0  0  0
    3.6745   -1.5885    2.7609 C   0  0  0  0  0  0  0  0  0  0  0  0
    1.0828   -2.0714    0.4092 C   0  0  0  0  0  0  0  0  0  0  0  0
    1.3475   -0.7420    0.4621 F   0  0  0  0  0  0  0  0  0  0  0  0
   -0.2397   -2.5133    0.5005 C   0  0  0  0  0  0  0  0  0  0  0  0
   -2.9299   -3.8720   -0.3498 C   0  0  0  0  0  0  0  0  0  0  0  0
   -4.3001   -4.1049   -0.1679 C   0  0  0  0  0  0  0  0  0  0  0  0
   -4.7491   -4.8841    0.9210 C   0  0  0  0  0  0  0  0  0  0  0  0
   -6.1734   -5.2333    1.1052 C   0  0  0  0  0  0  0  0  0  0  0  0
   -7.1416   -4.2345    1.3091 C   0  0  0  0  0  0  0  0  0  0  0  0
   -8.4902   -4.5803    1.4414 C   0  0  0  0  0  0  0  0  0  0  0  0
   -8.8835   -5.9237    1.3745 C   0  0  0  0  0  0  0  0  0  0  0  0
  -10.6187   -6.3597    1.5509 S   0  0  0  0  0  0  0  0  0  0  0  0
  -10.9529   -6.4510   -0.2437 C   0  0  0  0  0  0  0  0  0  0  0  0
  -11.1866   -5.0651   -0.8294 C   0  0  0  0  0  0  0  0  0  0  0  0
   -7.9184   -6.9241    1.1970 C   0  0  0  0  0  0  0  0  0  0  0  0
   -6.5712   -6.5795    1.0602 C   0  0  0  0  0  0  0  0  0  0  0  0
   -8.2813   -8.2297    1.1416 F   0  0  0  0  0  0  0  0  0  0  0  0
   -3.7641   -5.3608    1.8081 C   0  0  0  0  0  0  0  0  0  0  0  0
   -3.9876   -6.1661    3.2722 S   0  0  0  0  0  0  0  0  0  0  0  0
   -5.0981   -3.4518   -1.1276 C   0  0  0  0  0  0  0  0  0  0  0  0
   -4.3472   -2.7386   -2.0602 C   0  0  0  0  0  0  0  0  0  0  0  0
   -2.7097   -2.9035   -1.6997 S   0  0  0  0  0  0  0  0  0  0  0  0
   -4.8434   -1.6786   -2.9409 C   0  0  0  0  0  0  0  0  0  0  0  0
   -5.5363   -0.5702   -2.4538 C   0  0  0  0  0  0  0  0  0  0  0  0
   -5.3239    0.5946   -3.2150 C   0  0  0  0  0  0  0  0  0  0  0  0
   -5.6810    1.9084   -2.8390 C   0  0  0  0  0  0  0  0  0  0  0  0
   -6.4539    2.1908   -1.6131 C   0  0  0  0  0  0  0  0  0  0  0  0
   -5.8981    1.9418   -0.3482 C   0  0  0  0  0  0  0  0  0  0  0  0
   -6.6307    2.2200    0.8084 C   0  0  0  0  0  0  0  0  0  0  0  0
   -7.9204    2.7558    0.7122 C   0  0  0  0  0  0  0  0  0  0  0  0
   -8.8730    3.0689    2.2039 S   0  0  0  0  0  0  0  0  0  0  0  0
   -8.4337    4.8386    2.3251 C   0  0  0  0  0  0  0  0  0  0  0  0
   -7.1020    5.0242    3.0389 C   0  0  0  0  0  0  0  0  0  0  0  0
   -8.4757    3.0144   -0.5513 C   0  0  0  0  0  0  0  0  0  0  0  0
   -9.7277    3.5242   -0.6589 F   0  0  0  0  0  0  0  0  0  0  0  0
   -7.7407    2.7416   -1.7071 C   0  0  0  0  0  0  0  0  0  0  0  0
   -5.1213    2.9583   -3.5868 C   0  0  0  0  0  0  0  0  0  0  0  0
   -4.2905    2.7344   -4.6894 C   0  0  0  0  0  0  0  0  0  0  0  0
   -4.0115    1.4243   -5.1265 C   0  0  0  0  0  0  0  0  0  0  0  0
   -3.1096    1.1673   -6.2683 C   0  0  0  0  0  0  0  0  0  0  0  0
   -1.8716    0.5358   -6.0742 C   0  0  0  0  0  0  0  0  0  0  0  0
   -1.0308    0.2865   -7.1620 C   0  0  0  0  0  0  0  0  0  0  0  0
   -1.4155    0.6728   -8.4523 C   0  0  0  0  0  0  0  0  0  0  0  0
   -0.3161    0.3571   -9.8374 S   0  0  0  0  0  0  0  0  0  0  0  0
   -0.9205   -1.3422  -10.1456 C   0  0  0  0  0  0  0  0  0  0  0  0
   -2.1377   -1.3321  -11.0600 C   0  0  0  0  0  0  0  0  0  0  0  0
   -2.6383    1.3351   -8.6459 C   0  0  0  0  0  0  0  0  0  0  0  0
   -3.4812    1.5783   -7.5582 C   0  0  0  0  0  0  0  0  0  0  0  0
   -3.0046    1.7533   -9.8818 F   0  0  0  0  0  0  0  0  0  0  0  0
   -4.5187    0.3752   -4.3382 C   0  0  0  0  0  0  0  0  0  0  0  0
   -4.0459   -1.2367   -4.3552 S   0  0  0  0  0  0  0  0  0  0  0  0
   -3.6008    3.8854   -5.1002 C   0  0  0  0  0  0  0  0  0  0  0  0
   -3.8498    4.9974   -4.2938 C   0  0  0  0  0  0  0  0  0  0  0  0
   -4.9854    4.5688   -3.1199 S   0  0  0  0  0  0  0  0  0  0  0  0
   -2.8913    6.1003   -4.1190 C   0  0  0  0  0  0  0  0  0  0  0  0
   -3.0283    7.1688   -3.2387 C   0  0  0  0  0  0  0  0  0  0  0  0
   -1.8165    7.8346   -2.9569 C   0  0  0  0  0  0  0  0  0  0  0  0
   -1.7340    9.0103   -2.0595 C   0  0  0  0  0  0  0  0  0  0  0  0
   -0.8109    9.8542   -2.2300 O   0  0  0  0  0  0  0  0  0  0  0  0
   -2.7388    9.2537   -0.9640 C   0  0  0  0  0  0  0  0  0  0  0  0
   -2.7044    8.1367    0.0759 C   0  0  0  0  0  0  0  0  0  0  0  0
   -0.7144    7.2638   -3.6128 C   0  0  0  0  0  0  0  0  0  0  0  0
   -1.2725    5.9792   -4.5387 S   0  0  0  0  0  0  0  0  0  0  0  0
    0.7189    7.4325   -3.3073 C   0  0  0  0  0  0  0  0  0  0  0  0
    1.2550    7.7003   -2.0499 C   0  0  0  0  0  0  0  0  0  0  0  0
    2.6390    7.4777   -1.9657 C   0  0  0  0  0  0  0  0  0  0  0  0
    3.3841    7.7220   -0.7158 C   0  0  0  0  0  0  0  0  0  0  0  0
    2.8838    7.3581    0.3828 O   0  0  0  0  0  0  0  0  0  0  0  0
    4.6803    8.4811   -0.7176 C   0  0  0  0  0  0  0  0  0  0  0  0
    4.4357    9.9429   -0.3713 C   0  0  0  0  0  0  0  0  0  0  0  0
    3.1951    6.9814   -3.1513 C   0  0  0  0  0  0  0  0  0  0  0  0
    1.9608    6.8627   -4.2884 S   0  0  0  0  0  0  0  0  0  0  0  0
    4.4878    6.2908   -3.2999 C   0  0  0  0  0  0  0  0  0  0  0  0
    5.1813    6.1165   -4.4986 C   0  0  0  0  0  0  0  0  0  0  0  0
    6.2810    5.2494   -4.3703 C   0  0  0  0  0  0  0  0  0  0  0  0
    7.1888    4.8931   -5.3869 C   0  0  0  0  0  0  0  0  0  0  0  0
    7.1000    5.4487   -6.7492 C   0  0  0  0  0  0  0  0  0  0  0  0
    6.0578    5.0684   -7.6077 C   0  0  0  0  0  0  0  0  0  0  0  0
    6.0075    5.5688   -8.9128 C   0  0  0  0  0  0  0  0  0  0  0  0
    7.0016    6.4450   -9.3700 C   0  0  0  0  0  0  0  0  0  0  0  0
    6.9615    7.0483  -11.0598 S   0  0  0  0  0  0  0  0  0  0  0  0
    8.0549    5.7431  -11.7245 C   0  0  0  0  0  0  0  0  0  0  0  0
    7.2555    4.5002  -12.0943 C   0  0  0  0  0  0  0  0  0  0  0  0
    8.0309    6.8415   -8.5049 C   0  0  0  0  0  0  0  0  0  0  0  0
    8.9945    7.6981   -8.9303 F   0  0  0  0  0  0  0  0  0  0  0  0
    8.0830    6.3423   -7.2034 C   0  0  0  0  0  0  0  0  0  0  0  0
    8.2188    4.0015   -5.0364 C   0  0  0  0  0  0  0  0  0  0  0  0
    8.3506    3.4705   -3.7509 C   0  0  0  0  0  0  0  0  0  0  0  0
    7.4452    3.8309   -2.7329 C   0  0  0  0  0  0  0  0  0  0  0  0
    7.5164    3.2469   -1.3793 C   0  0  0  0  0  0  0  0  0  0  0  0
    8.5960    3.5435   -0.5346 C   0  0  0  0  0  0  0  0  0  0  0  0
    8.6758    2.9580    0.7338 C   0  0  0  0  0  0  0  0  0  0  0  0
    7.6798    2.0719    1.1608 C   0  0  0  0  0  0  0  0  0  0  0  0
    7.8305    1.2625    2.7528 S   0  0  0  0  0  0  0  0  0  0  0  0
    8.6366   -0.2099    2.0424 C   0  0  0  0  0  0  0  0  0  0  0  0
    8.9216   -1.2296    3.1322 C   0  0  0  0  0  0  0  0  0  0  0  0
    6.5862    1.7918    0.3278 C   0  0  0  0  0  0  0  0  0  0  0  0
    6.5072    2.3760   -0.9387 C   0  0  0  0  0  0  0  0  0  0  0  0
    5.6161    0.9330    0.7317 F   0  0  0  0  0  0  0  0  0  0  0  0
    6.4264    4.7321   -3.0792 C   0  0  0  0  0  0  0  0  0  0  0  0
    5.2109    5.3484   -2.0995 S   0  0  0  0  0  0  0  0  0  0  0  0
    9.4196    2.5658   -3.6355 C   0  0  0  0  0  0  0  0  0  0  0  0
   10.1243    2.3960   -4.8246 C   0  0  0  0  0  0  0  0  0  0  0  0
    9.4230    3.3583   -6.0185 S   0  0  0  0  0  0  0  0  0  0  0  0
    2.4051   -8.8238   11.5099 H   0  0  0  0  0  0  0  0  0  0  0  0
    0.1398   -7.5564   11.2993 H   0  0  0  0  0  0  0  0  0  0  0  0
   -3.4598   -7.8029    9.2102 H   0  0  0  0  0  0  0  0  0  0  0  0
   -5.0397   -6.6105   10.6792 H   0  0  0  0  0  0  0  0  0  0  0  0
   -4.4881   -2.5814   10.5216 H   0  0  0  0  0  0  0  0  0  0  0  0
   -5.8255   -3.7454   10.1478 H   0  0  0  0  0  0  0  0  0  0  0  0
   -5.9004   -1.4841   12.2527 H   0  0  0  0  0  0  0  0  0  0  0  0
   -6.7246   -1.4823   10.6440 H   0  0  0  0  0  0  0  0  0  0  0  0
   -7.2405   -2.6570   11.9143 H   0  0  0  0  0  0  0  0  0  0  0  0
   -0.3992   -4.9226   10.1646 H   0  0  0  0  0  0  0  0  0  0  0  0
    2.4754   -7.1290    4.8530 H   0  0  0  0  0  0  0  0  0  0  0  0
    3.9507   -8.2555    3.2281 H   0  0  0  0  0  0  0  0  0  0  0  0
    2.5431  -11.9460    2.1015 H   0  0  0  0  0  0  0  0  0  0  0  0
    2.8982  -10.3482    1.3263 H   0  0  0  0  0  0  0  0  0  0  0  0
    3.0544  -12.2033   -0.3232 H   0  0  0  0  0  0  0  0  0  0  0  0
    4.2969  -13.0296    0.6965 H   0  0  0  0  0  0  0  0  0  0  0  0
    4.6681  -11.4307   -0.0760 H   0  0  0  0  0  0  0  0  0  0  0  0
    1.5668  -10.9381    6.6589 H   0  0  0  0  0  0  0  0  0  0  0  0
   -0.0115   -7.7597    4.1697 H   0  0  0  0  0  0  0  0  0  0  0  0
   -0.5308   -5.5034    2.7225 H   0  0  0  0  0  0  0  0  0  0  0  0
    0.2907   -5.8678    0.2046 H   0  0  0  0  0  0  0  0  0  0  0  0
    2.6269   -5.0886    0.0594 H   0  0  0  0  0  0  0  0  0  0  0  0
    5.3666   -2.6478    1.9614 H   0  0  0  0  0  0  0  0  0  0  0  0
    3.9217   -3.6799    2.2281 H   0  0  0  0  0  0  0  0  0  0  0  0
    3.9872   -0.5892    2.3928 H   0  0  0  0  0  0  0  0  0  0  0  0
    2.5666   -1.6479    2.7746 H   0  0  0  0  0  0  0  0  0  0  0  0
    4.0418   -1.7157    3.8015 H   0  0  0  0  0  0  0  0  0  0  0  0
   -1.0344   -1.7858    0.6356 H   0  0  0  0  0  0  0  0  0  0  0  0
   -6.8533   -3.1924    1.3607 H   0  0  0  0  0  0  0  0  0  0  0  0
   -9.2295   -3.8056    1.5925 H   0  0  0  0  0  0  0  0  0  0  0  0
  -11.8668   -7.0614   -0.3936 H   0  0  0  0  0  0  0  0  0  0  0  0
  -10.1160   -6.9530   -0.7754 H   0  0  0  0  0  0  0  0  0  0  0  0
  -10.2511   -4.4684   -0.7996 H   0  0  0  0  0  0  0  0  0  0  0  0
  -11.5096   -5.1578   -1.8885 H   0  0  0  0  0  0  0  0  0  0  0  0
  -11.9788   -4.5372   -0.2607 H   0  0  0  0  0  0  0  0  0  0  0  0
   -5.8359   -7.3597    0.9048 H   0  0  0  0  0  0  0  0  0  0  0  0
   -6.1795   -3.4452   -1.1197 H   0  0  0  0  0  0  0  0  0  0  0  0
   -6.0306   -0.5712   -1.4907 H   0  0  0  0  0  0  0  0  0  0  0  0
   -4.8976    1.5292   -0.2609 H   0  0  0  0  0  0  0  0  0  0  0  0
   -6.1975    2.0094    1.7791 H   0  0  0  0  0  0  0  0  0  0  0  0
   -9.2271    5.3497    2.9086 H   0  0  0  0  0  0  0  0  0  0  0  0
   -8.3962    5.3057    1.3197 H   0  0  0  0  0  0  0  0  0  0  0  0
   -6.9045    6.1089    3.1784 H   0  0  0  0  0  0  0  0  0  0  0  0
   -7.1315    4.5404    4.0366 H   0  0  0  0  0  0  0  0  0  0  0  0
   -6.2751    4.5884    2.4395 H   0  0  0  0  0  0  0  0  0  0  0  0
   -8.1749    2.9464   -2.6760 H   0  0  0  0  0  0  0  0  0  0  0  0
   -1.5527    0.2436   -5.0810 H   0  0  0  0  0  0  0  0  0  0  0  0
   -0.0802   -0.2070   -7.0019 H   0  0  0  0  0  0  0  0  0  0  0  0
   -1.1678   -1.8616   -9.1940 H   0  0  0  0  0  0  0  0  0  0  0  0
   -0.1080   -1.9128  -10.6409 H   0  0  0  0  0  0  0  0  0  0  0  0
   -2.4374   -2.3751  -11.2931 H   0  0  0  0  0  0  0  0  0  0  0  0
   -1.8960   -0.8106  -12.0090 H   0  0  0  0  0  0  0  0  0  0  0  0
   -2.9908   -0.8272  -10.5629 H   0  0  0  0  0  0  0  0  0  0  0  0
   -4.4231    2.0858   -7.7178 H   0  0  0  0  0  0  0  0  0  0  0  0
   -2.8183    3.8686   -5.8485 H   0  0  0  0  0  0  0  0  0  0  0  0
   -3.9733    7.4220   -2.7752 H   0  0  0  0  0  0  0  0  0  0  0  0
   -2.5114   10.2119   -0.4530 H   0  0  0  0  0  0  0  0  0  0  0  0
   -3.7570    9.3375   -1.3938 H   0  0  0  0  0  0  0  0  0  0  0  0
   -1.6898    8.0545    0.5228 H   0  0  0  0  0  0  0  0  0  0  0  0
   -3.4311    8.3673    0.8845 H   0  0  0  0  0  0  0  0  0  0  0  0
   -2.9878    7.1641   -0.3765 H   0  0  0  0  0  0  0  0  0  0  0  0
    0.6609    7.9918   -1.1920 H   0  0  0  0  0  0  0  0  0  0  0  0
    5.1689    8.4305   -1.7153 H   0  0  0  0  0  0  0  0  0  0  0  0
    5.3752    8.0285    0.0258 H   0  0  0  0  0  0  0  0  0  0  0  0
    4.0352   10.0341    0.6626 H   0  0  0  0  0  0  0  0  0  0  0  0
    5.3928   10.5028   -0.4340 H   0  0  0  0  0  0  0  0  0  0  0  0
    3.7108   10.3966   -1.0826 H   0  0  0  0  0  0  0  0  0  0  0  0
    4.8853    6.5878   -5.4278 H   0  0  0  0  0  0  0  0  0  0  0  0
    5.2975    4.3741   -7.2703 H   0  0  0  0  0  0  0  0  0  0  0  0
    5.2045    5.2625   -9.5704 H   0  0  0  0  0  0  0  0  0  0  0  0
    8.5489    6.1321  -12.6389 H   0  0  0  0  0  0  0  0  0  0  0  0
    8.8531    5.4792  -11.0002 H   0  0  0  0  0  0  0  0  0  0  0  0
    7.9263    3.7499  -12.5645 H   0  0  0  0  0  0  0  0  0  0  0  0
    6.8049    4.0429  -11.1871 H   0  0  0  0  0  0  0  0  0  0  0  0
    6.4550    4.7638  -12.8164 H   0  0  0  0  0  0  0  0  0  0  0  0
    8.8914    6.6386   -6.5464 H   0  0  0  0  0  0  0  0  0  0  0  0
    9.3716    4.2249   -0.8578 H   0  0  0  0  0  0  0  0  0  0  0  0
    9.5181    3.1877    1.3758 H   0  0  0  0  0  0  0  0  0  0  0  0
    7.9651   -0.6666    1.2855 H   0  0  0  0  0  0  0  0  0  0  0  0
    9.5936    0.0874    1.5565 H   0  0  0  0  0  0  0  0  0  0  0  0
    9.6515   -0.8240    3.8603 H   0  0  0  0  0  0  0  0  0  0  0  0
    7.9824   -1.5056    3.6620 H   0  0  0  0  0  0  0  0  0  0  0  0
    9.3467   -2.1449    2.6768 H   0  0  0  0  0  0  0  0  0  0  0  0
    5.6684    2.1417   -1.5827 H   0  0  0  0  0  0  0  0  0  0  0  0
    9.6754    2.0407   -2.7241 H   0  0  0  0  0  0  0  0  0  0  0  0
   10.9794    1.7482   -4.9589 H   0  0  0  0  0  0  0  0  0  0  0  0
  1  2  2  0
  2  3  1  0
  3  4  2  0
  4  5  1  0
  5  6  2  0
  6  7  1  0
  7  8  2  0
  8  9  1  0
  9 10  1  0
 10 11  1  0
  8 12  1  0
 12 13  1  0
 12 14  2  0
  4 15  1  0
 15 16  2  0
 16 17  1  0
 17 18  1  0
 18 19  2  0
 19 20  1  0
 20 21  2  0
 21 22  1  0
 22 23  1  0
 23 24  1  0
 21 25  1  0
 25 26  2  0
 25 27  1  0
 17 28  2  0
 28 29  1  0
 16 30  1  0
 30 31  2  0
 31 32  1  0
 31 33  1  0
 33 34  2  0
 34 35  1  0
 35 36  2  0
 36 37  1  0
 37 38  2  0
 38 39  1  0
 39 40  2  0
 40 41  1  0
 41 42  1  0
 42 43  1  0
 40 44  1  0
 44 45  1  0
 44 46  2  0
 36 47  1  0
 47 48  2  0
 48 49  1  0
 49 50  1  0
 50 51  2  0
 51 52  1  0
 52 53  2  0
 53 54  1  0
 54 55  1  0
 55 56  1  0
 53 57  1  0
 57 58  2  0
 57 59  1  0
 49 60  2  0
 60 61  1  0
 48 62  1  0
 62 63  2  0
 63 64  1  0
 63 65  1  0
 65 66  2  0
 66 67  1  0
 67 68  2  0
 68 69  1  0
 69 70  2  0
 70 71  1  0
 71 72  2  0
 72 73  1  0
 73 74  1  0
 74 75  1  0
 72 76  1  0
 76 77  1  0
 76 78  2  0
 68 79  1  0
 79 80  2  0
 80 81  1  0
 81 82  1  0
 82 83  2  0
 83 84  1  0
 84 85  2  0
 85 86  1  0
 86 87  1  0
 87 88  1  0
 85 89  1  0
 89 90  2  0
 89 91  1  0
 81 92  2  0
 92 93  1  0
 80 94  1  0
 94 95  2  0
 95 96  1  0
 95 97  1  0
 97 98  2  0
 98 99  1  0
 99100  1  0
100101  2  0
100102  1  0
102103  1  0
 99104  2  0
104105  1  0
104106  1  0
106107  2  0
107108  1  0
108109  1  0
109110  2  0
109111  1  0
111112  1  0
108113  2  0
113114  1  0
113115  1  0
115116  2  0
116117  1  0
117118  2  0
118119  1  0
119120  2  0
120121  1  0
121122  2  0
122123  1  0
123124  1  0
124125  1  0
122126  1  0
126127  1  0
126128  2  0
118129  1  0
129130  2  0
130131  1  0
131132  1  0
132133  2  0
133134  1  0
134135  2  0
135136  1  0
136137  1  0
137138  1  0
135139  1  0
139140  2  0
139141  1  0
131142  2  0
142143  1  0
130144  1  0
144145  2  0
145146  1  0
 29  1  1  0
 61 33  1  0
 93 65  1  0
105 97  1  0
114106  1  0
143115  1  0
 28  3  1  0
 60 35  1  0
 92 67  1  0
142117  1  0
 14  5  1  0
 32 15  1  0
 46 37  1  0
 64 47  1  0
 78 69  1  0
 96 79  1  0
128119  1  0
146129  1  0
 26 18  1  0
 58 50  1  0
 90 82  1  0
140132  1  0
  1147  1  0
  2148  1  0
  6149  1  0
  7150  1  0
 10151  1  0
 10152  1  0
 11153  1  0
 11154  1  0
 11155  1  0
 14156  1  0
 19157  1  0
 20158  1  0
 23159  1  0
 23160  1  0
 24161  1  0
 24162  1  0
 24163  1  0
 26164  1  0
 30165  1  0
 34166  1  0
 38167  1  0
 39168  1  0
 42169  1  0
 42170  1  0
 43171  1  0
 43172  1  0
 43173  1  0
 46174  1  0
 51175  1  0
 52176  1  0
 55177  1  0
 55178  1  0
 56179  1  0
 56180  1  0
 56181  1  0
 58182  1  0
 62183  1  0
 66184  1  0
 70185  1  0
 71186  1  0
 74187  1  0
 74188  1  0
 75189  1  0
 75190  1  0
 75191  1  0
 78192  1  0
 83193  1  0
 84194  1  0
 87195  1  0
 87196  1  0
 88197  1  0
 88198  1  0
 88199  1  0
 90200  1  0
 94201  1  0
 98202  1  0
102203  1  0
102204  1  0
103205  1  0
103206  1  0
103207  1  0
107208  1  0
111209  1  0
111210  1  0
112211  1  0
112212  1  0
112213  1  0
116214  1  0
120215  1  0
121216  1  0
124217  1  0
124218  1  0
125219  1  0
125220  1  0
125221  1  0
128222  1  0
133223  1  0
134224  1  0
137225  1  0
137226  1  0
138227  1  0
138228  1  0
138229  1  0
140230  1  0
144231  1  0
145232  1  0
M  END

