
     RDKit          3D

267293  0  0  0  0  0  0  0  0999 V2000
    2.2828   -4.1837    9.8891 C   0  0  0  0  0  0  0  0  0  0  0  0
    1.4906   -3.0423    9.9675 C   0  0  0  0  0  0  0  0  0  0  0  0
    0.6287   -2.8814    8.8653 C   0  0  0  0  0  0  0  0  0  0  0  0
   -0.3096   -1.8445    8.6820 C   0  0  0  0  0  0  0  0  0  0  0  0
   -0.4291   -0.7161    9.6318 C   0  0  0  0  0  0  0  0  0  0  0  0
    0.6812    0.0963    9.9123 C   0  0  0  0  0  0  0  0  0  0  0  0
    0.5674    1.1579   10.8141 C   0  0  0  0  0  0  0  0  0  0  0  0
   -0.6637    1.4375   11.4186 C   0  0  0  0  0  0  0  0  0  0  0  0
   -0.7964    2.8139   12.5661 S   0  0  0  0  0  0  0  0  0  0  0  0
   -1.1449    4.0677   11.2784 C   0  0  0  0  0  0  0  0  0  0  0  0
   -2.6457    4.2814   11.1344 C   0  0  0  0  0  0  0  0  0  0  0  0
   -1.7760    0.6295   11.1474 C   0  0  0  0  0  0  0  0  0  0  0  0
   -2.9730    0.8829   11.7300 F   0  0  0  0  0  0  0  0  0  0  0  0
   -1.6586   -0.4417   10.2527 C   0  0  0  0  0  0  0  0  0  0  0  0
   -1.1244   -1.9265    7.5377 C   0  0  0  0  0  0  0  0  0  0  0  0
   -1.0174   -2.9633    6.6019 C   0  0  0  0  0  0  0  0  0  0  0  0
   -0.0597   -3.9880    6.7740 C   0  0  0  0  0  0  0  0  0  0  0  0
    0.1098   -5.0892    5.7948 C   0  0  0  0  0  0  0  0  0  0  0  0
    1.3734   -5.3541    5.2406 C   0  0  0  0  0  0  0  0  0  0  0  0
    1.5380   -6.3950    4.3257 C   0  0  0  0  0  0  0  0  0  0  0  0
    0.4380   -7.1587    3.9215 C   0  0  0  0  0  0  0  0  0  0  0  0
    0.6561   -8.4621    2.7036 S   0  0  0  0  0  0  0  0  0  0  0  0
    0.6994   -7.3378    1.2600 C   0  0  0  0  0  0  0  0  0  0  0  0
   -0.7043   -6.9609    0.8082 C   0  0  0  0  0  0  0  0  0  0  0  0
   -0.8228   -6.9099    4.4794 C   0  0  0  0  0  0  0  0  0  0  0  0
   -0.9823   -5.8884    5.4216 C   0  0  0  0  0  0  0  0  0  0  0  0
   -1.8917   -7.6611    4.1257 F   0  0  0  0  0  0  0  0  0  0  0  0
    0.7442   -3.9119    7.9277 C   0  0  0  0  0  0  0  0  0  0  0  0
    1.9094   -5.0037    8.4653 S   0  0  0  0  0  0  0  0  0  0  0  0
   -1.9064   -2.8231    5.5210 C   0  0  0  0  0  0  0  0  0  0  0  0
   -2.7165   -1.6931    5.6205 C   0  0  0  0  0  0  0  0  0  0  0  0
   -2.3081   -0.8429    7.0198 S   0  0  0  0  0  0  0  0  0  0  0  0
   -3.7202   -1.2668    4.6305 C   0  0  0  0  0  0  0  0  0  0  0  0
   -4.2030   -2.0416    3.5774 C   0  0  0  0  0  0  0  0  0  0  0  0
   -5.0179   -1.3159    2.6921 C   0  0  0  0  0  0  0  0  0  0  0  0
   -5.5941   -1.8050    1.5040 C   0  0  0  0  0  0  0  0  0  0  0  0
   -5.4727   -3.2135    1.0720 C   0  0  0  0  0  0  0  0  0  0  0  0
   -4.2182   -3.7729    0.7842 C   0  0  0  0  0  0  0  0  0  0  0  0
   -4.1250   -5.0878    0.3190 C   0  0  0  0  0  0  0  0  0  0  0  0
   -5.2833   -5.8508    0.1273 C   0  0  0  0  0  0  0  0  0  0  0  0
   -5.1543   -7.5330   -0.4902 S   0  0  0  0  0  0  0  0  0  0  0  0
   -5.3862   -8.3328    1.1365 C   0  0  0  0  0  0  0  0  0  0  0  0
   -4.1039   -8.3086    1.9533 C   0  0  0  0  0  0  0  0  0  0  0  0
   -6.5384   -5.2899    0.3947 C   0  0  0  0  0  0  0  0  0  0  0  0
   -7.6707   -6.0090    0.1939 F   0  0  0  0  0  0  0  0  0  0  0  0
   -6.6309   -3.9803    0.8719 C   0  0  0  0  0  0  0  0  0  0  0  0
   -6.2524   -0.8690    0.6938 C   0  0  0  0  0  0  0  0  0  0  0  0
   -6.3528    0.4906    1.0153 C   0  0  0  0  0  0  0  0  0  0  0  0
   -5.8517    0.9639    2.2498 C   0  0  0  0  0  0  0  0  0  0  0  0
   -5.9657    2.3799    2.6748 C   0  0  0  0  0  0  0  0  0  0  0  0
   -5.4038    3.4150    1.9073 C   0  0  0  0  0  0  0  0  0  0  0  0
   -5.5077    4.7440    2.3312 C   0  0  0  0  0  0  0  0  0  0  0  0
   -6.1480    5.0491    3.5377 C   0  0  0  0  0  0  0  0  0  0  0  0
   -6.2473    6.7579    4.0888 S   0  0  0  0  0  0  0  0  0  0  0  0
   -7.9768    7.0283    3.5450 C   0  0  0  0  0  0  0  0  0  0  0  0
   -8.8498    7.3660    4.7475 C   0  0  0  0  0  0  0  0  0  0  0  0
   -6.6898    4.0192    4.3189 C   0  0  0  0  0  0  0  0  0  0  0  0
   -6.6047    2.6946    3.8849 C   0  0  0  0  0  0  0  0  0  0  0  0
   -7.2986    4.2985    5.4999 F   0  0  0  0  0  0  0  0  0  0  0  0
   -5.1880    0.0237    3.0638 C   0  0  0  0  0  0  0  0  0  0  0  0
   -4.3393    0.2976    4.4919 S   0  0  0  0  0  0  0  0  0  0  0  0
   -6.8840    1.2639   -0.0393 C   0  0  0  0  0  0  0  0  0  0  0  0
   -7.1624    0.5148   -1.1896 C   0  0  0  0  0  0  0  0  0  0  0  0
   -6.8012   -1.1040   -0.8720 S   0  0  0  0  0  0  0  0  0  0  0  0
   -7.1513    1.0404   -2.5642 C   0  0  0  0  0  0  0  0  0  0  0  0
   -6.2977    2.0772   -2.9422 C   0  0  0  0  0  0  0  0  0  0  0  0
   -5.8211    1.9563   -4.2579 C   0  0  0  0  0  0  0  0  0  0  0  0
   -4.7132    2.6479   -4.7808 C   0  0  0  0  0  0  0  0  0  0  0  0
   -4.0367    3.7031   -4.0037 C   0  0  0  0  0  0  0  0  0  0  0  0
   -4.4614    5.0335   -4.1015 C   0  0  0  0  0  0  0  0  0  0  0  0
   -3.8274    6.0286   -3.3532 C   0  0  0  0  0  0  0  0  0  0  0  0
   -2.7620    5.7012   -2.5038 C   0  0  0  0  0  0  0  0  0  0  0  0
   -1.9566    6.9912   -1.5462 S   0  0  0  0  0  0  0  0  0  0  0  0
   -0.8017    7.4886   -2.8744 C   0  0  0  0  0  0  0  0  0  0  0  0
    0.4044    6.5606   -2.9340 C   0  0  0  0  0  0  0  0  0  0  0  0
   -2.3503    4.3647   -2.3883 C   0  0  0  0  0  0  0  0  0  0  0  0
   -1.3459    4.0253   -1.5413 F   0  0  0  0  0  0  0  0  0  0  0  0
   -2.9835    3.3709   -3.1389 C   0  0  0  0  0  0  0  0  0  0  0  0
   -4.1270    2.1224   -5.9454 C   0  0  0  0  0  0  0  0  0  0  0  0
   -4.6304    0.9921   -6.6011 C   0  0  0  0  0  0  0  0  0  0  0  0
   -5.8185    0.3761   -6.1462 C   0  0  0  0  0  0  0  0  0  0  0  0
   -6.3887   -0.8245   -6.7922 C   0  0  0  0  0  0  0  0  0  0  0  0
   -5.6706   -2.0277   -6.8288 C   0  0  0  0  0  0  0  0  0  0  0  0
   -6.2166   -3.1559   -7.4455 C   0  0  0  0  0  0  0  0  0  0  0  0
   -7.4909   -3.0934   -8.0237 C   0  0  0  0  0  0  0  0  0  0  0  0
   -8.1867   -4.5480   -8.8153 S   0  0  0  0  0  0  0  0  0  0  0  0
   -7.6838   -4.0767  -10.5077 C   0  0  0  0  0  0  0  0  0  0  0  0
   -6.2419   -4.4784  -10.7828 C   0  0  0  0  0  0  0  0  0  0  0  0
   -8.2295   -1.9035   -7.9541 C   0  0  0  0  0  0  0  0  0  0  0  0
   -7.6794   -0.7730   -7.3434 C   0  0  0  0  0  0  0  0  0  0  0  0
   -9.4750   -1.8386   -8.4869 F   0  0  0  0  0  0  0  0  0  0  0  0
   -6.3685    0.8691   -4.9477 C   0  0  0  0  0  0  0  0  0  0  0  0
   -7.4005    0.0462   -3.9087 S   0  0  0  0  0  0  0  0  0  0  0  0
   -3.7407    0.4756   -7.5633 C   0  0  0  0  0  0  0  0  0  0  0  0
   -2.5277    1.1637   -7.6197 C   0  0  0  0  0  0  0  0  0  0  0  0
   -2.5995    2.4640   -6.5436 S   0  0  0  0  0  0  0  0  0  0  0  0
   -1.2421    0.5296   -7.9566 C   0  0  0  0  0  0  0  0  0  0  0  0
   -0.0215    1.2086   -7.9059 C   0  0  0  0  0  0  0  0  0  0  0  0
    1.0592    0.3915   -7.5258 C   0  0  0  0  0  0  0  0  0  0  0  0
    2.3480    0.8397   -7.1746 C   0  0  0  0  0  0  0  0  0  0  0  0
    2.7623    2.2528   -7.2939 C   0  0  0  0  0  0  0  0  0  0  0  0
    3.8434    2.5937   -8.1199 C   0  0  0  0  0  0  0  0  0  0  0  0
    4.3137    3.9081   -8.1544 C   0  0  0  0  0  0  0  0  0  0  0  0
    3.7141    4.8912   -7.3601 C   0  0  0  0  0  0  0  0  0  0  0  0
    4.3723    6.5621   -7.3597 S   0  0  0  0  0  0  0  0  0  0  0  0
    5.6278    6.1958   -6.0864 C   0  0  0  0  0  0  0  0  0  0  0  0
    6.3884    7.4607   -5.7254 C   0  0  0  0  0  0  0  0  0  0  0  0
    2.6187    4.5617   -6.5484 C   0  0  0  0  0  0  0  0  0  0  0  0
    2.0234    5.5057   -5.7779 F   0  0  0  0  0  0  0  0  0  0  0  0
    2.1516    3.2435   -6.5081 C   0  0  0  0  0  0  0  0  0  0  0  0
    3.1889   -0.0888   -6.5428 C   0  0  0  0  0  0  0  0  0  0  0  0
    2.8139   -1.4144   -6.2960 C   0  0  0  0  0  0  0  0  0  0  0  0
    1.5600   -1.8916   -6.7329 C   0  0  0  0  0  0  0  0  0  0  0  0
    1.1187   -3.2784   -6.4564 C   0  0  0  0  0  0  0  0  0  0  0  0
    1.8126   -4.3626   -7.0141 C   0  0  0  0  0  0  0  0  0  0  0  0
    1.3764   -5.6709   -6.7866 C   0  0  0  0  0  0  0  0  0  0  0  0
    0.2391   -5.9073   -6.0041 C   0  0  0  0  0  0  0  0  0  0  0  0
   -0.3492   -7.5856   -5.7655 S   0  0  0  0  0  0  0  0  0  0  0  0
   -1.4202   -7.5378   -7.2415 C   0  0  0  0  0  0  0  0  0  0  0  0
   -2.1312   -8.8716   -7.4133 C   0  0  0  0  0  0  0  0  0  0  0  0
   -0.4389   -4.8298   -5.4175 C   0  0  0  0  0  0  0  0  0  0  0  0
    0.0008   -3.5227   -5.6391 C   0  0  0  0  0  0  0  0  0  0  0  0
   -1.5318   -5.0478   -4.6442 F   0  0  0  0  0  0  0  0  0  0  0  0
    0.6978   -0.9482   -7.3311 C   0  0  0  0  0  0  0  0  0  0  0  0
   -0.9502   -1.1037   -7.6352 S   0  0  0  0  0  0  0  0  0  0  0  0
    3.6860   -2.0784   -5.4091 C   0  0  0  0  0  0  0  0  0  0  0  0
    4.7144   -1.2557   -4.9386 C   0  0  0  0  0  0  0  0  0  0  0  0
    4.5617    0.2645   -5.6474 S   0  0  0  0  0  0  0  0  0  0  0  0
    5.4467   -1.4559   -3.6824 C   0  0  0  0  0  0  0  0  0  0  0  0
    5.3866   -0.3566   -2.4151 S   0  0  0  0  0  0  0  0  0  0  0  0
    6.2842   -1.2592   -1.3262 C   0  0  0  0  0  0  0  0  0  0  0  0
    6.6591   -2.4549   -1.9453 C   0  0  0  0  0  0  0  0  0  0  0  0
    6.1668   -2.5747   -3.2639 C   0  0  0  0  0  0  0  0  0  0  0  0
    6.3447   -3.8257   -4.0795 C   0  0  0  0  0  0  0  0  0  0  0  0
    7.5323   -4.6242   -3.6194 C   0  0  0  0  0  0  0  0  0  0  0  0
    8.0722   -5.4386   -4.4161 O   0  0  0  0  0  0  0  0  0  0  0  0
    8.0453   -4.4983   -2.2394 C   0  0  0  0  0  0  0  0  0  0  0  0
    9.0176   -5.2067   -1.8647 O   0  0  0  0  0  0  0  0  0  0  0  0
    7.3852   -3.5747   -1.2532 C   0  0  0  0  0  0  0  0  0  0  0  0
    6.5080   -0.8448    0.0627 C   0  0  0  0  0  0  0  0  0  0  0  0
    5.4908   -0.4300    0.9184 C   0  0  0  0  0  0  0  0  0  0  0  0
    5.9705    0.2145    2.0697 C   0  0  0  0  0  0  0  0  0  0  0  0
    5.1868    0.7734    3.1044 C   0  0  0  0  0  0  0  0  0  0  0  0
    3.7106    0.6794    3.1197 C   0  0  0  0  0  0  0  0  0  0  0  0
    2.9499    1.2689    2.0999 C   0  0  0  0  0  0  0  0  0  0  0  0
    1.5548    1.1936    2.1300 C   0  0  0  0  0  0  0  0  0  0  0  0
    0.9102    0.5437    3.1878 C   0  0  0  0  0  0  0  0  0  0  0  0
   -0.8811    0.4606    3.2303 S   0  0  0  0  0  0  0  0  0  0  0  0
   -1.0922    2.0070    4.1836 C   0  0  0  0  0  0  0  0  0  0  0  0
   -1.2695    3.1926    3.2450 C   0  0  0  0  0  0  0  0  0  0  0  0
    1.6646   -0.0494    4.2085 C   0  0  0  0  0  0  0  0  0  0  0  0
    1.0507   -0.6874    5.2363 F   0  0  0  0  0  0  0  0  0  0  0  0
    3.0595    0.0174    4.1734 C   0  0  0  0  0  0  0  0  0  0  0  0
    5.8796    1.4358    4.1328 C   0  0  0  0  0  0  0  0  0  0  0  0
    7.2715    1.5489    4.1559 C   0  0  0  0  0  0  0  0  0  0  0  0
    8.0545    0.9756    3.1343 C   0  0  0  0  0  0  0  0  0  0  0  0
    9.5210    1.1315    3.1023 C   0  0  0  0  0  0  0  0  0  0  0  0
   10.3525    0.0263    3.3304 C   0  0  0  0  0  0  0  0  0  0  0  0
   11.7412    0.1823    3.3360 C   0  0  0  0  0  0  0  0  0  0  0  0
   12.3084    1.4393    3.0966 C   0  0  0  0  0  0  0  0  0  0  0  0
   14.0945    1.6331    3.1086 S   0  0  0  0  0  0  0  0  0  0  0  0
   14.2946    1.3984    1.3059 C   0  0  0  0  0  0  0  0  0  0  0  0
   14.4724   -0.0759    0.9698 C   0  0  0  0  0  0  0  0  0  0  0  0
   11.4777    2.5508    2.8792 C   0  0  0  0  0  0  0  0  0  0  0  0
   10.0895    2.3952    2.8848 C   0  0  0  0  0  0  0  0  0  0  0  0
   12.0125    3.7801    2.6682 F   0  0  0  0  0  0  0  0  0  0  0  0
    7.3679    0.3015    2.1078 C   0  0  0  0  0  0  0  0  0  0  0  0
    8.0018   -0.4021    0.7124 S   0  0  0  0  0  0  0  0  0  0  0  0
    7.7462    2.2702    5.2640 C   0  0  0  0  0  0  0  0  0  0  0  0
    6.7296    2.7328    6.0938 C   0  0  0  0  0  0  0  0  0  0  0  0
    5.2444    2.2447    5.4665 S   0  0  0  0  0  0  0  0  0  0  0  0
    3.0069   -4.4993   10.6266 H   0  0  0  0  0  0  0  0  0  0  0  0
    1.5341   -2.3660   10.8122 H   0  0  0  0  0  0  0  0  0  0  0  0
    1.6375   -0.0985    9.4424 H   0  0  0  0  0  0  0  0  0  0  0  0
    1.4347    1.7684   11.0329 H   0  0  0  0  0  0  0  0  0  0  0  0
   -0.6749    5.0223   11.5934 H   0  0  0  0  0  0  0  0  0  0  0  0
   -0.7100    3.7824   10.2983 H   0  0  0  0  0  0  0  0  0  0  0  0
   -3.1324    3.3553   10.7620 H   0  0  0  0  0  0  0  0  0  0  0  0
   -2.8327    5.0998   10.4048 H   0  0  0  0  0  0  0  0  0  0  0  0
   -3.0843    4.5719   12.1116 H   0  0  0  0  0  0  0  0  0  0  0  0
   -2.5236   -1.0626   10.0540 H   0  0  0  0  0  0  0  0  0  0  0  0
    2.2312   -4.7499    5.5111 H   0  0  0  0  0  0  0  0  0  0  0  0
    2.5197   -6.5926    3.9138 H   0  0  0  0  0  0  0  0  0  0  0  0
    1.2837   -6.4230    1.4917 H   0  0  0  0  0  0  0  0  0  0  0  0
    1.2127   -7.8619    0.4296 H   0  0  0  0  0  0  0  0  0  0  0  0
   -1.2594   -7.8659    0.4905 H   0  0  0  0  0  0  0  0  0  0  0  0
   -0.6382   -6.2677   -0.0583 H   0  0  0  0  0  0  0  0  0  0  0  0
   -1.2518   -6.4471    1.6247 H   0  0  0  0  0  0  0  0  0  0  0  0
   -1.9596   -5.7177    5.8578 H   0  0  0  0  0  0  0  0  0  0  0  0
   -1.9392   -3.4936    4.6759 H   0  0  0  0  0  0  0  0  0  0  0  0
   -3.9381   -3.0778    3.4338 H   0  0  0  0  0  0  0  0  0  0  0  0
   -3.3156   -3.1879    0.9038 H   0  0  0  0  0  0  0  0  0  0  0  0
   -3.1556   -5.5062    0.0859 H   0  0  0  0  0  0  0  0  0  0  0  0
   -6.2033   -7.8379    1.7026 H   0  0  0  0  0  0  0  0  0  0  0  0
   -5.6851   -9.3870    0.9652 H   0  0  0  0  0  0  0  0  0  0  0  0
   -3.7920   -7.2623    2.1551 H   0  0  0  0  0  0  0  0  0  0  0  0
   -4.2734   -8.8199    2.9254 H   0  0  0  0  0  0  0  0  0  0  0  0
   -3.2965   -8.8358    1.4067 H   0  0  0  0  0  0  0  0  0  0  0  0
   -7.6064   -3.5589    1.0748 H   0  0  0  0  0  0  0  0  0  0  0  0
   -4.8804    3.1910    0.9855 H   0  0  0  0  0  0  0  0  0  0  0  0
   -5.0698    5.5310    1.7278 H   0  0  0  0  0  0  0  0  0  0  0  0
   -8.3975    6.1404    3.0262 H   0  0  0  0  0  0  0  0  0  0  0  0
   -7.9961    7.8812    2.8335 H   0  0  0  0  0  0  0  0  0  0  0  0
   -8.4903    8.2942    5.2362 H   0  0  0  0  0  0  0  0  0  0  0  0
   -8.8289    6.5351    5.4852 H   0  0  0  0  0  0  0  0  0  0  0  0
   -9.9021    7.5207    4.4236 H   0  0  0  0  0  0  0  0  0  0  0  0
   -7.0371    1.9113    4.4949 H   0  0  0  0  0  0  0  0  0  0  0  0
   -6.9612    2.3420   -0.0172 H   0  0  0  0  0  0  0  0  0  0  0  0
   -5.8667    2.7648   -2.2236 H   0  0  0  0  0  0  0  0  0  0  0  0
   -5.2828    5.2984   -4.7558 H   0  0  0  0  0  0  0  0  0  0  0  0
   -4.1620    7.0538   -3.4366 H   0  0  0  0  0  0  0  0  0  0  0  0
   -0.4520    8.5196   -2.6598 H   0  0  0  0  0  0  0  0  0  0  0  0
   -1.3160    7.5046   -3.8584 H   0  0  0  0  0  0  0  0  0  0  0  0
    0.8844    6.4821   -1.9362 H   0  0  0  0  0  0  0  0  0  0  0  0
    1.1467    6.9647   -3.6536 H   0  0  0  0  0  0  0  0  0  0  0  0
    0.0998    5.5502   -3.2763 H   0  0  0  0  0  0  0  0  0  0  0  0
   -2.6616    2.3404   -3.0407 H   0  0  0  0  0  0  0  0  0  0  0  0
   -4.6890   -2.0937   -6.3759 H   0  0  0  0  0  0  0  0  0  0  0  0
   -5.6497   -4.0757   -7.4718 H   0  0  0  0  0  0  0  0  0  0  0  0
   -7.8143   -2.9847  -10.6688 H   0  0  0  0  0  0  0  0  0  0  0  0
   -8.3445   -4.6056  -11.2231 H   0  0  0  0  0  0  0  0  0  0  0  0
   -5.9836   -4.2342  -11.8359 H   0  0  0  0  0  0  0  0  0  0  0  0
   -6.1109   -5.5687  -10.6286 H   0  0  0  0  0  0  0  0  0  0  0  0
   -5.5502   -3.9224  -10.1159 H   0  0  0  0  0  0  0  0  0  0  0  0
   -8.2559    0.1431   -7.3007 H   0  0  0  0  0  0  0  0  0  0  0  0
   -3.8976   -0.4546   -8.0901 H   0  0  0  0  0  0  0  0  0  0  0  0
    0.0456    2.2855   -7.9800 H   0  0  0  0  0  0  0  0  0  0  0  0
    4.3376    1.8333   -8.7155 H   0  0  0  0  0  0  0  0  0  0  0  0
    5.1648    4.1558   -8.7738 H   0  0  0  0  0  0  0  0  0  0  0  0
    6.3450    5.4444   -6.4753 H   0  0  0  0  0  0  0  0  0  0  0  0
    5.1387    5.7909   -5.1746 H   0  0  0  0  0  0  0  0  0  0  0  0
    7.1493    7.2313   -4.9514 H   0  0  0  0  0  0  0  0  0  0  0  0
    5.6908    8.2300   -5.3264 H   0  0  0  0  0  0  0  0  0  0  0  0
    6.9057    7.8645   -6.6241 H   0  0  0  0  0  0  0  0  0  0  0  0
    1.3279    2.9927   -5.8531 H   0  0  0  0  0  0  0  0  0  0  0  0
    2.6809   -4.1953   -7.6390 H   0  0  0  0  0  0  0  0  0  0  0  0
    1.9108   -6.5000   -7.2310 H   0  0  0  0  0  0  0  0  0  0  0  0
   -2.1776   -6.7322   -7.1314 H   0  0  0  0  0  0  0  0  0  0  0  0
   -0.8055   -7.3351   -8.1434 H   0  0  0  0  0  0  0  0  0  0  0  0
   -2.7611   -8.8445   -8.3272 H   0  0  0  0  0  0  0  0  0  0  0  0
   -2.7848   -9.0726   -6.5368 H   0  0  0  0  0  0  0  0  0  0  0  0
   -1.3877   -9.6930   -7.5138 H   0  0  0  0  0  0  0  0  0  0  0  0
   -0.5292   -2.7008   -5.1767 H   0  0  0  0  0  0  0  0  0  0  0  0
    3.4856   -3.0563   -4.9949 H   0  0  0  0  0  0  0  0  0  0  0  0
    5.4323   -4.4517   -3.9822 H   0  0  0  0  0  0  0  0  0  0  0  0
    6.4805   -3.5545   -5.1471 H   0  0  0  0  0  0  0  0  0  0  0  0
    8.1598   -3.1550   -0.5770 H   0  0  0  0  0  0  0  0  0  0  0  0
    6.6582   -4.1566   -0.6477 H   0  0  0  0  0  0  0  0  0  0  0  0
    4.4427   -0.5579    0.6853 H   0  0  0  0  0  0  0  0  0  0  0  0
    3.4385    1.7903    1.2856 H   0  0  0  0  0  0  0  0  0  0  0  0
    0.9799    1.6465    1.3332 H   0  0  0  0  0  0  0  0  0  0  0  0
   -2.0005    1.9113    4.8123 H   0  0  0  0  0  0  0  0  0  0  0  0
   -0.2360    2.1845    4.8702 H   0  0  0  0  0  0  0  0  0  0  0  0
   -1.5192    4.0995    3.8341 H   0  0  0  0  0  0  0  0  0  0  0  0
   -0.3315    3.3830    2.6839 H   0  0  0  0  0  0  0  0  0  0  0  0
   -2.0939    2.9992    2.5240 H   0  0  0  0  0  0  0  0  0  0  0  0
    3.6340   -0.4454    4.9667 H   0  0  0  0  0  0  0  0  0  0  0  0
    9.9274   -0.9524    3.5178 H   0  0  0  0  0  0  0  0  0  0  0  0
   12.3742   -0.6727    3.5307 H   0  0  0  0  0  0  0  0  0  0  0  0
   13.4279    1.8089    0.7458 H   0  0  0  0  0  0  0  0  0  0  0  0
   15.2028    1.9495    0.9826 H   0  0  0  0  0  0  0  0  0  0  0  0
   13.5798   -0.6546    1.2835 H   0  0  0  0  0  0  0  0  0  0  0  0
   15.3728   -0.4787    1.4792 H   0  0  0  0  0  0  0  0  0  0  0  0
   14.5995   -0.1890   -0.1275 H   0  0  0  0  0  0  0  0  0  0  0  0
    9.4553    3.2584    2.7233 H   0  0  0  0  0  0  0  0  0  0  0  0
    8.7933    2.4519    5.4632 H   0  0  0  0  0  0  0  0  0  0  0  0
    6.8725    3.3067    6.9978 H   0  0  0  0  0  0  0  0  0  0  0  0
  1  2  2  0
  2  3  1  0
  3  4  2  0
  4  5  1  0
  5  6  2  0
  6  7  1  0
  7  8  2  0
  8  9  1  0
  9 10  1  0
 10 11  1  0
  8 12  1  0
 12 13  1  0
 12 14  2  0
  4 15  1  0
 15 16  2  0
 16 17  1  0
 17 18  1  0
 18 19  2  0
 19 20  1  0
 20 21  2  0
 21 22  1  0
 22 23  1  0
 23 24  1  0
 21 25  1  0
 25 26  2  0
 25 27  1  0
 17 28  2  0
 28 29  1  0
 16 30  1  0
 30 31  2  0
 31 32  1  0
 31 33  1  0
 33 34  2  0
 34 35  1  0
 35 36  2  0
 36 37  1  0
 37 38  2  0
 38 39  1  0
 39 40  2  0
 40 41  1  0
 41 42  1  0
 42 43  1  0
 40 44  1  0
 44 45  1  0
 44 46  2  0
 36 47  1  0
 47 48  2  0
 48 49  1  0
 49 50  1  0
 50 51  2  0
 51 52  1  0
 52 53  2  0
 53 54  1  0
 54 55  1  0
 55 56  1  0
 53 57  1  0
 57 58  2  0
 57 59  1  0
 49 60  2  0
 60 61  1  0
 48 62  1  0
 62 63  2  0
 63 64  1  0
 63 65  1  0
 65 66  2  0
 66 67  1  0
 67 68  2  0
 68 69  1  0
 69 70  2  0
 70 71  1  0
 71 72  2  0
 72 73  1  0
 73 74  1  0
 74 75  1  0
 72 76  1  0
 76 77  1  0
 76 78  2  0
 68 79  1  0
 79 80  2  0
 80 81  1  0
 81 82  1  0
 82 83  2  0
 83 84  1  0
 84 85  2  0
 85 86  1  0
 86 87  1  0
 87 88  1  0
 85 89  1  0
 89 90  2  0
 89 91  1  0
 81 92  2  0
 92 93  1  0
 80 94  1  0
 94 95  2  0
 95 96  1  0
 95 97  1  0
 97 98  2  0
 98 99  1  0
 99100  2  0
100101  1  0
101102  2  0
102103  1  0
103104  2  0
104105  1  0
105106  1  0
106107  1  0
104108  1  0
108109  1  0
108110  2  0
100111  1  0
111112  2  0
112113  1  0
113114  1  0
114115  2  0
115116  1  0
116117  2  0
117118  1  0
118119  1  0
119120  1  0
117121  1  0
121122  2  0
121123  1  0
113124  2  0
124125  1  0
112126  1  0
126127  2  0
127128  1  0
127129  1  0
129130  1  0
130131  1  0
131132  2  0
132133  1  0
133134  1  0
134135  1  0
135136  2  0
135137  1  0
137138  2  0
137139  1  0
131140  1  0
140141  2  0
141142  1  0
142143  2  0
143144  1  0
144145  2  0
145146  1  0
146147  2  0
147148  1  0
148149  1  0
149150  1  0
147151  1  0
151152  1  0
151153  2  0
143154  1  0
154155  2  0
155156  1  0
156157  1  0
157158  2  0
158159  1  0
159160  2  0
160161  1  0
161162  1  0
162163  1  0
160164  1  0
164165  2  0
164166  1  0
156167  2  0
167168  1  0
155169  1  0
169170  2  0
170171  1  0
 29  1  1  0
 61 33  1  0
 93 65  1  0
125 97  1  0
133129  2  0
168140  1  0
 28  3  1  0
 60 35  1  0
 92 67  1  0
124 99  1  0
139132  1  0
167142  1  0
 14  5  1  0
 32 15  1  0
 46 37  1  0
 64 47  1  0
 78 69  1  0
 96 79  1  0
110101  1  0
128111  1  0
153144  1  0
171154  1  0
 26 18  1  0
 58 50  1  0
 90 82  1  0
122114  1  0
165157  1  0
  1172  1  0
  2173  1  0
  6174  1  0
  7175  1  0
 10176  1  0
 10177  1  0
 11178  1  0
 11179  1  0
 11180  1  0
 14181  1  0
 19182  1  0
 20183  1  0
 23184  1  0
 23185  1  0
 24186  1  0
 24187  1  0
 24188  1  0
 26189  1  0
 30190  1  0
 34191  1  0
 38192  1  0
 39193  1  0
 42194  1  0
 42195  1  0
 43196  1  0
 43197  1  0
 43198  1  0
 46199  1  0
 51200  1  0
 52201  1  0
 55202  1  0
 55203  1  0
 56204  1  0
 56205  1  0
 56206  1  0
 58207  1  0
 62208  1  0
 66209  1  0
 70210  1  0
 71211  1  0
 74212  1  0
 74213  1  0
 75214  1  0
 75215  1  0
 75216  1  0
 78217  1  0
 83218  1  0
 84219  1  0
 87220  1  0
 87221  1  0
 88222  1  0
 88223  1  0
 88224  1  0
 90225  1  0
 94226  1  0
 98227  1  0
102228  1  0
103229  1  0
106230  1  0
106231  1  0
107232  1  0
107233  1  0
107234  1  0
110235  1  0
115236  1  0
116237  1  0
119238  1  0
119239  1  0
120240  1  0
120241  1  0
120242  1  0
122243  1  0
126244  1  0
134245  1  0
134246  1  0
139247  1  0
139248  1  0
141249  1  0
145250  1  0
146251  1  0
149252  1  0
149253  1  0
150254  1  0
150255  1  0
150256  1  0
153257  1  0
158258  1  0
159259  1  0
162260  1  0
162261  1  0
163262  1  0
163263  1  0
163264  1  0
165265  1  0
169266  1  0
170267  1  0
M  END

