
     RDKit          3D

252275  0  0  0  0  0  0  0  0999 V2000
    5.2056   -9.6709    7.3542 C   0  0  0  0  0  0  0  0  0  0  0  0
    4.8107   -8.3377    7.3603 C   0  0  0  0  0  0  0  0  0  0  0  0
    3.7981   -8.0531    6.4283 C   0  0  0  0  0  0  0  0  0  0  0  0
    3.2076   -6.7943    6.1982 C   0  0  0  0  0  0  0  0  0  0  0  0
    3.7900   -5.5790    6.7894 C   0  0  0  0  0  0  0  0  0  0  0  0
    5.0657   -5.1730    6.3758 C   0  0  0  0  0  0  0  0  0  0  0  0
    5.7211   -4.1321    7.0323 C   0  0  0  0  0  0  0  0  0  0  0  0
    5.0987   -3.4704    8.0945 C   0  0  0  0  0  0  0  0  0  0  0  0
    5.9951   -2.1865    8.9714 S   0  0  0  0  0  0  0  0  0  0  0  0
    5.6197   -0.8936    7.7403 C   0  0  0  0  0  0  0  0  0  0  0  0
    6.5590    0.2874    7.9222 C   0  0  0  0  0  0  0  0  0  0  0  0
    3.8053   -3.8485    8.4923 C   0  0  0  0  0  0  0  0  0  0  0  0
    3.1817   -3.1948    9.5027 F   0  0  0  0  0  0  0  0  0  0  0  0
    3.1517   -4.9041    7.8412 C   0  0  0  0  0  0  0  0  0  0  0  0
    2.1765   -6.7366    5.2392 C   0  0  0  0  0  0  0  0  0  0  0  0
    1.7852   -7.8554    4.4890 C   0  0  0  0  0  0  0  0  0  0  0  0
    2.4205   -9.1034    4.6832 C   0  0  0  0  0  0  0  0  0  0  0  0
    2.1102  -10.2966    3.8671 C   0  0  0  0  0  0  0  0  0  0  0  0
    3.1238  -10.8977    3.1048 C   0  0  0  0  0  0  0  0  0  0  0  0
    2.8921  -12.1151    2.4585 C   0  0  0  0  0  0  0  0  0  0  0  0
    1.6416  -12.7397    2.5673 C   0  0  0  0  0  0  0  0  0  0  0  0
    1.3663  -14.3292    1.7700 S   0  0  0  0  0  0  0  0  0  0  0  0
    0.9521  -13.6351    0.1319 C   0  0  0  0  0  0  0  0  0  0  0  0
   -0.4137  -12.9602    0.1268 C   0  0  0  0  0  0  0  0  0  0  0  0
    0.6223  -12.1378    3.3094 C   0  0  0  0  0  0  0  0  0  0  0  0
    0.8528  -10.9171    3.9591 C   0  0  0  0  0  0  0  0  0  0  0  0
   -0.5862  -12.7467    3.4340 F   0  0  0  0  0  0  0  0  0  0  0  0
    3.4091   -9.1649    5.6821 C   0  0  0  0  0  0  0  0  0  0  0  0
    4.3091  -10.4927    6.1887 S   0  0  0  0  0  0  0  0  0  0  0  0
    0.8108   -7.5572    3.5239 C   0  0  0  0  0  0  0  0  0  0  0  0
    0.4319   -6.2131    3.5287 C   0  0  0  0  0  0  0  0  0  0  0  0
    1.3153   -5.3898    4.7127 S   0  0  0  0  0  0  0  0  0  0  0  0
   -0.4728   -5.5870    2.5499 C   0  0  0  0  0  0  0  0  0  0  0  0
   -0.9127   -4.2621    2.5660 C   0  0  0  0  0  0  0  0  0  0  0  0
   -1.6253   -3.9086    1.4034 C   0  0  0  0  0  0  0  0  0  0  0  0
   -2.1472   -2.6349    1.0818 C   0  0  0  0  0  0  0  0  0  0  0  0
   -2.1004   -1.4891    2.0132 C   0  0  0  0  0  0  0  0  0  0  0  0
   -0.8732   -0.9845    2.4655 C   0  0  0  0  0  0  0  0  0  0  0  0
   -0.8386    0.1473    3.2830 C   0  0  0  0  0  0  0  0  0  0  0  0
   -2.0256    0.7741    3.6762 C   0  0  0  0  0  0  0  0  0  0  0  0
   -1.9571    2.2271    4.7272 S   0  0  0  0  0  0  0  0  0  0  0  0
   -1.8396    1.2536    6.2687 C   0  0  0  0  0  0  0  0  0  0  0  0
   -2.1455    2.1364    7.4700 C   0  0  0  0  0  0  0  0  0  0  0  0
   -3.2558    0.2690    3.2381 C   0  0  0  0  0  0  0  0  0  0  0  0
   -4.4134    0.8617    3.6157 F   0  0  0  0  0  0  0  0  0  0  0  0
   -3.2921   -0.8575    2.4087 C   0  0  0  0  0  0  0  0  0  0  0  0
   -2.7150   -2.4877   -0.1968 C   0  0  0  0  0  0  0  0  0  0  0  0
   -2.8080   -3.5402   -1.1135 C   0  0  0  0  0  0  0  0  0  0  0  0
   -2.3537   -4.8230   -0.7645 C   0  0  0  0  0  0  0  0  0  0  0  0
   -2.4546   -5.9714   -1.6775 C   0  0  0  0  0  0  0  0  0  0  0  0
   -3.4279   -6.9538   -1.4582 C   0  0  0  0  0  0  0  0  0  0  0  0
   -3.4827   -8.0853   -2.2761 C   0  0  0  0  0  0  0  0  0  0  0  0
   -2.5616   -8.2441   -3.3185 C   0  0  0  0  0  0  0  0  0  0  0  0
   -2.6002   -9.7378   -4.3162 S   0  0  0  0  0  0  0  0  0  0  0  0
   -3.8394   -9.1091   -5.5031 C   0  0  0  0  0  0  0  0  0  0  0  0
   -3.1981   -8.1958   -6.5431 C   0  0  0  0  0  0  0  0  0  0  0  0
   -1.5834   -7.2648   -3.5389 C   0  0  0  0  0  0  0  0  0  0  0  0
   -1.5354   -6.1252   -2.7258 C   0  0  0  0  0  0  0  0  0  0  0  0
   -0.6683   -7.4174   -4.5305 F   0  0  0  0  0  0  0  0  0  0  0  0
   -1.7542   -4.9661    0.4963 C   0  0  0  0  0  0  0  0  0  0  0  0
   -0.9907   -6.3266    1.1237 S   0  0  0  0  0  0  0  0  0  0  0  0
   -3.3194   -3.1506   -2.3641 C   0  0  0  0  0  0  0  0  0  0  0  0
   -3.5994   -1.7820   -2.4335 C   0  0  0  0  0  0  0  0  0  0  0  0
   -3.2413   -1.0771   -0.9411 S   0  0  0  0  0  0  0  0  0  0  0  0
   -3.9287   -0.9971   -3.6336 C   0  0  0  0  0  0  0  0  0  0  0  0
   -3.7867    0.6822   -3.7293 S   0  0  0  0  0  0  0  0  0  0  0  0
   -4.1560   -1.4285   -4.9395 C   0  0  0  0  0  0  0  0  0  0  0  0
   -4.1745   -2.7387   -5.6211 C   0  0  0  0  0  0  0  0  0  0  0  0
   -5.3119   -3.5341   -5.1397 N   0  0  0  0  0  0  0  0  0  0  0  0
   -5.2265   -4.9087   -5.6434 C   0  0  0  0  0  0  0  0  0  0  0  0
   -6.3634   -5.7498   -5.0774 C   0  0  0  0  0  0  0  0  0  0  0  0
   -4.3038   -2.4648   -7.0188 O   0  0  0  0  0  0  0  0  0  0  0  0
   -4.2036   -1.0540   -7.2122 C   0  0  0  0  0  0  0  0  0  0  0  0
   -3.0066   -0.7448   -7.8723 O   0  0  0  0  0  0  0  0  0  0  0  0
   -4.1937   -0.4537   -5.8701 C   0  0  0  0  0  0  0  0  0  0  0  0
   -3.9877    0.8350   -5.4030 C   0  0  0  0  0  0  0  0  0  0  0  0
   -3.7698    2.0426   -6.2167 C   0  0  0  0  0  0  0  0  0  0  0  0
   -3.2371    3.1480   -5.6852 C   0  0  0  0  0  0  0  0  0  0  0  0
   -2.9066    4.3591   -6.4486 C   0  0  0  0  0  0  0  0  0  0  0  0
   -1.8706    5.5622   -5.8822 S   0  0  0  0  0  0  0  0  0  0  0  0
   -3.3762    4.8175   -7.6723 C   0  0  0  0  0  0  0  0  0  0  0  0
   -4.2789    4.2949   -8.7144 C   0  0  0  0  0  0  0  0  0  0  0  0
   -5.6006    4.0037   -8.1404 N   0  0  0  0  0  0  0  0  0  0  0  0
   -6.3768    3.1272   -9.0228 C   0  0  0  0  0  0  0  0  0  0  0  0
   -7.6689    2.7020   -8.3327 C   0  0  0  0  0  0  0  0  0  0  0  0
   -4.3728    5.3133   -9.7131 O   0  0  0  0  0  0  0  0  0  0  0  0
   -3.5059    6.3912   -9.3468 C   0  0  0  0  0  0  0  0  0  0  0  0
   -2.5012    6.5357  -10.3079 O   0  0  0  0  0  0  0  0  0  0  0  0
   -2.9090    6.0244   -8.0515 C   0  0  0  0  0  0  0  0  0  0  0  0
   -2.0263    6.6440   -7.1748 C   0  0  0  0  0  0  0  0  0  0  0  0
   -1.3486    7.9458   -7.3982 C   0  0  0  0  0  0  0  0  0  0  0  0
   -0.4169    8.5159   -6.6091 C   0  0  0  0  0  0  0  0  0  0  0  0
    0.0596    7.9838   -5.3263 C   0  0  0  0  0  0  0  0  0  0  0  0
   -0.6853    7.8807   -4.1551 C   0  0  0  0  0  0  0  0  0  0  0  0
    0.0505    7.3288   -3.0910 C   0  0  0  0  0  0  0  0  0  0  0  0
   -0.4551    6.9826   -1.8199 C   0  0  0  0  0  0  0  0  0  0  0  0
   -1.8835    7.1349   -1.4848 C   0  0  0  0  0  0  0  0  0  0  0  0
   -2.7000    6.0005   -1.3648 C   0  0  0  0  0  0  0  0  0  0  0  0
   -4.0613    6.1417   -1.0839 C   0  0  0  0  0  0  0  0  0  0  0  0
   -4.6162    7.4178   -0.9228 C   0  0  0  0  0  0  0  0  0  0  0  0
   -6.3719    7.5887   -0.5771 S   0  0  0  0  0  0  0  0  0  0  0  0
   -6.8570    7.8668   -2.3180 C   0  0  0  0  0  0  0  0  0  0  0  0
   -6.9090    6.5571   -3.0960 C   0  0  0  0  0  0  0  0  0  0  0  0
   -3.7980    8.5510   -1.0145 C   0  0  0  0  0  0  0  0  0  0  0  0
   -4.3197    9.7894   -0.8491 F   0  0  0  0  0  0  0  0  0  0  0  0
   -2.4357    8.4102   -1.2997 C   0  0  0  0  0  0  0  0  0  0  0  0
    0.4378    6.3732   -0.9247 C   0  0  0  0  0  0  0  0  0  0  0  0
    1.7652    6.0938   -1.2595 C   0  0  0  0  0  0  0  0  0  0  0  0
    2.2705    6.4189   -2.5364 C   0  0  0  0  0  0  0  0  0  0  0  0
    3.6449    6.0544   -2.9465 C   0  0  0  0  0  0  0  0  0  0  0  0
    4.0717    4.7189   -2.8688 C   0  0  0  0  0  0  0  0  0  0  0  0
    5.4000    4.3900   -3.1351 C   0  0  0  0  0  0  0  0  0  0  0  0
    6.3040    5.3740   -3.5427 C   0  0  0  0  0  0  0  0  0  0  0  0
    8.0227    4.9447   -3.8387 S   0  0  0  0  0  0  0  0  0  0  0  0
    7.7238    4.1596   -5.4627 C   0  0  0  0  0  0  0  0  0  0  0  0
    7.5132    5.2049   -6.5500 C   0  0  0  0  0  0  0  0  0  0  0  0
    5.8719    6.7033   -3.6761 C   0  0  0  0  0  0  0  0  0  0  0  0
    4.5480    7.0414   -3.3754 C   0  0  0  0  0  0  0  0  0  0  0  0
    6.7395    7.6691   -4.0658 F   0  0  0  0  0  0  0  0  0  0  0  0
    1.3823    7.0475   -3.4266 C   0  0  0  0  0  0  0  0  0  0  0  0
    1.6379    7.4672   -5.0398 S   0  0  0  0  0  0  0  0  0  0  0  0
    2.4573    5.4190   -0.2399 C   0  0  0  0  0  0  0  0  0  0  0  0
    1.6739    5.1711    0.8813 C   0  0  0  0  0  0  0  0  0  0  0  0
    0.1207    5.7730    0.6195 S   0  0  0  0  0  0  0  0  0  0  0  0
    2.0123    4.1740    1.8958 C   0  0  0  0  0  0  0  0  0  0  0  0
    2.3729    2.8682    1.5887 C   0  0  0  0  0  0  0  0  0  0  0  0
    2.4861    2.0535    2.7200 C   0  0  0  0  0  0  0  0  0  0  0  0
    2.7599    0.6715    2.7205 C   0  0  0  0  0  0  0  0  0  0  0  0
    2.9136   -0.1045    1.4706 C   0  0  0  0  0  0  0  0  0  0  0  0
    1.8748   -0.1353    0.5272 C   0  0  0  0  0  0  0  0  0  0  0  0
    1.9631   -0.9644   -0.5920 C   0  0  0  0  0  0  0  0  0  0  0  0
    3.0970   -1.7563   -0.7893 C   0  0  0  0  0  0  0  0  0  0  0  0
    3.1538   -2.8866   -2.1816 S   0  0  0  0  0  0  0  0  0  0  0  0
    2.4848   -4.2822   -1.2076 C   0  0  0  0  0  0  0  0  0  0  0  0
    2.3715   -5.5168   -2.0876 C   0  0  0  0  0  0  0  0  0  0  0  0
    4.1638   -1.6884    0.1188 C   0  0  0  0  0  0  0  0  0  0  0  0
    5.2803   -2.4337   -0.0763 F   0  0  0  0  0  0  0  0  0  0  0  0
    4.0646   -0.8760    1.2513 C   0  0  0  0  0  0  0  0  0  0  0  0
    2.7437    0.0261    3.9661 C   0  0  0  0  0  0  0  0  0  0  0  0
    2.5004    0.7036    5.1632 C   0  0  0  0  0  0  0  0  0  0  0  0
    2.2950    2.1011    5.1761 C   0  0  0  0  0  0  0  0  0  0  0  0
    2.2510    2.8692    6.4438 C   0  0  0  0  0  0  0  0  0  0  0  0
    1.2313    3.7975    6.6976 C   0  0  0  0  0  0  0  0  0  0  0  0
    1.2649    4.5840    7.8548 C   0  0  0  0  0  0  0  0  0  0  0  0
    2.3156    4.4439    8.7726 C   0  0  0  0  0  0  0  0  0  0  0  0
    2.3744    5.4979   10.2289 S   0  0  0  0  0  0  0  0  0  0  0  0
    3.6858    6.6013    9.5856 C   0  0  0  0  0  0  0  0  0  0  0  0
    3.1483    7.5612    8.5316 C   0  0  0  0  0  0  0  0  0  0  0  0
    3.3032    3.4735    8.5539 C   0  0  0  0  0  0  0  0  0  0  0  0
    3.2784    2.7069    7.3874 C   0  0  0  0  0  0  0  0  0  0  0  0
    4.3073    3.2960    9.4483 F   0  0  0  0  0  0  0  0  0  0  0  0
    2.2454    2.7391    3.9185 C   0  0  0  0  0  0  0  0  0  0  0  0
    1.8629    4.3479    3.5631 S   0  0  0  0  0  0  0  0  0  0  0  0
    2.3945   -0.1617    6.2632 C   0  0  0  0  0  0  0  0  0  0  0  0
    2.5542   -1.5006    5.9288 C   0  0  0  0  0  0  0  0  0  0  0  0
    2.8296   -1.6262    4.2743 S   0  0  0  0  0  0  0  0  0  0  0  0
    5.9601  -10.1059    7.9970 H   0  0  0  0  0  0  0  0  0  0  0  0
    5.2440   -7.6062    8.0327 H   0  0  0  0  0  0  0  0  0  0  0  0
    5.5693   -5.6917    5.5695 H   0  0  0  0  0  0  0  0  0  0  0  0
    6.7185   -3.8495    6.7186 H   0  0  0  0  0  0  0  0  0  0  0  0
    5.7421   -1.2873    6.7050 H   0  0  0  0  0  0  0  0  0  0  0  0
    4.5730   -0.5567    7.8874 H   0  0  0  0  0  0  0  0  0  0  0  0
    7.6162   -0.0529    7.8664 H   0  0  0  0  0  0  0  0  0  0  0  0
    6.3753    0.7681    8.9058 H   0  0  0  0  0  0  0  0  0  0  0  0
    6.3846    1.0295    7.1186 H   0  0  0  0  0  0  0  0  0  0  0  0
    2.1685   -5.2132    8.1720 H   0  0  0  0  0  0  0  0  0  0  0  0
    4.1033  -10.4430    3.0383 H   0  0  0  0  0  0  0  0  0  0  0  0
    3.6849  -12.5750    1.8850 H   0  0  0  0  0  0  0  0  0  0  0  0
    1.7355  -12.9136   -0.1895 H   0  0  0  0  0  0  0  0  0  0  0  0
    0.9387  -14.4740   -0.5989 H   0  0  0  0  0  0  0  0  0  0  0  0
   -0.7147  -12.7397   -0.9180 H   0  0  0  0  0  0  0  0  0  0  0  0
   -0.3751  -12.0053    0.6909 H   0  0  0  0  0  0  0  0  0  0  0  0
   -1.1714  -13.6340    0.5781 H   0  0  0  0  0  0  0  0  0  0  0  0
    0.0638  -10.4797    4.5590 H   0  0  0  0  0  0  0  0  0  0  0  0
    0.4173   -8.2808    2.8223 H   0  0  0  0  0  0  0  0  0  0  0  0
   -0.6973   -3.5820    3.3763 H   0  0  0  0  0  0  0  0  0  0  0  0
    0.0526   -1.4593    2.1693 H   0  0  0  0  0  0  0  0  0  0  0  0
    0.1051    0.5367    3.6249 H   0  0  0  0  0  0  0  0  0  0  0  0
   -2.5722    0.4156    6.2514 H   0  0  0  0  0  0  0  0  0  0  0  0
   -0.8146    0.8373    6.3668 H   0  0  0  0  0  0  0  0  0  0  0  0
   -1.4070    2.9617    7.5396 H   0  0  0  0  0  0  0  0  0  0  0  0
   -2.0951    1.5279    8.3985 H   0  0  0  0  0  0  0  0  0  0  0  0
   -3.1699    2.5643    7.3791 H   0  0  0  0  0  0  0  0  0  0  0  0
   -4.2497   -1.2389    2.0700 H   0  0  0  0  0  0  0  0  0  0  0  0
   -4.1354   -6.8496   -0.6464 H   0  0  0  0  0  0  0  0  0  0  0  0
   -4.2349   -8.8412   -2.0952 H   0  0  0  0  0  0  0  0  0  0  0  0
   -4.6521   -8.5745   -4.9684 H   0  0  0  0  0  0  0  0  0  0  0  0
   -4.2906   -9.9829   -6.0213 H   0  0  0  0  0  0  0  0  0  0  0  0
   -2.3453   -8.7115   -7.0342 H   0  0  0  0  0  0  0  0  0  0  0  0
   -3.9479   -7.9265   -7.3173 H   0  0  0  0  0  0  0  0  0  0  0  0
   -2.8336   -7.2606   -6.0701 H   0  0  0  0  0  0  0  0  0  0  0  0
   -0.7740   -5.3776   -2.9003 H   0  0  0  0  0  0  0  0  0  0  0  0
   -3.4220   -3.8361   -3.1912 H   0  0  0  0  0  0  0  0  0  0  0  0
   -3.2075   -3.2593   -5.4362 H   0  0  0  0  0  0  0  0  0  0  0  0
   -6.1962   -3.1060   -5.5052 H   0  0  0  0  0  0  0  0  0  0  0  0
   -5.2856   -4.9223   -6.7540 H   0  0  0  0  0  0  0  0  0  0  0  0
   -4.2655   -5.3733   -5.3271 H   0  0  0  0  0  0  0  0  0  0  0  0
   -6.2982   -6.7872   -5.4657 H   0  0  0  0  0  0  0  0  0  0  0  0
   -7.3439   -5.3188   -5.3768 H   0  0  0  0  0  0  0  0  0  0  0  0
   -6.2965   -5.7786   -3.9691 H   0  0  0  0  0  0  0  0  0  0  0  0
   -5.0805   -0.6835   -7.7901 H   0  0  0  0  0  0  0  0  0  0  0  0
   -3.0730   -1.1583   -8.7693 H   0  0  0  0  0  0  0  0  0  0  0  0
   -3.9836    1.9845   -7.2727 H   0  0  0  0  0  0  0  0  0  0  0  0
   -2.9691    3.1646   -4.6366 H   0  0  0  0  0  0  0  0  0  0  0  0
   -3.8133    3.3885   -9.1580 H   0  0  0  0  0  0  0  0  0  0  0  0
   -6.1213    4.9056   -8.0253 H   0  0  0  0  0  0  0  0  0  0  0  0
   -5.8000    2.2036   -9.2557 H   0  0  0  0  0  0  0  0  0  0  0  0
   -6.6240    3.6486   -9.9722 H   0  0  0  0  0  0  0  0  0  0  0  0
   -7.4339    2.1940   -7.3746 H   0  0  0  0  0  0  0  0  0  0  0  0
   -8.3105    3.5853   -8.1344 H   0  0  0  0  0  0  0  0  0  0  0  0
   -8.2228    1.9999   -8.9956 H   0  0  0  0  0  0  0  0  0  0  0  0
   -4.0867    7.3366   -9.2447 H   0  0  0  0  0  0  0  0  0  0  0  0
   -2.9601    6.7681  -11.1560 H   0  0  0  0  0  0  0  0  0  0  0  0
   -1.5805    8.4581   -8.3243 H   0  0  0  0  0  0  0  0  0  0  0  0
    0.0739    9.4107   -6.9723 H   0  0  0  0  0  0  0  0  0  0  0  0
   -1.7299    8.1604   -4.0951 H   0  0  0  0  0  0  0  0  0  0  0  0
   -2.2878    5.0113   -1.5033 H   0  0  0  0  0  0  0  0  0  0  0  0
   -4.6865    5.2613   -1.0024 H   0  0  0  0  0  0  0  0  0  0  0  0
   -6.1613    8.5774   -2.8118 H   0  0  0  0  0  0  0  0  0  0  0  0
   -7.8676    8.3252   -2.3205 H   0  0  0  0  0  0  0  0  0  0  0  0
   -7.3178    6.7443   -4.1118 H   0  0  0  0  0  0  0  0  0  0  0  0
   -7.5641    5.8280   -2.5737 H   0  0  0  0  0  0  0  0  0  0  0  0
   -5.8913    6.1295   -3.2017 H   0  0  0  0  0  0  0  0  0  0  0  0
   -1.8108    9.2915   -1.3830 H   0  0  0  0  0  0  0  0  0  0  0  0
    3.3855    3.9379   -2.5611 H   0  0  0  0  0  0  0  0  0  0  0  0
    5.7254    3.3625   -3.0246 H   0  0  0  0  0  0  0  0  0  0  0  0
    6.8493    3.4738   -5.4139 H   0  0  0  0  0  0  0  0  0  0  0  0
    8.6163    3.5502   -5.7156 H   0  0  0  0  0  0  0  0  0  0  0  0
    7.4430    4.7015   -7.5362 H   0  0  0  0  0  0  0  0  0  0  0  0
    6.5707    5.7658   -6.3687 H   0  0  0  0  0  0  0  0  0  0  0  0
    8.3683    5.9149   -6.5680 H   0  0  0  0  0  0  0  0  0  0  0  0
    4.2349    8.0792   -3.4326 H   0  0  0  0  0  0  0  0  0  0  0  0
    3.4813    5.0768   -0.3148 H   0  0  0  0  0  0  0  0  0  0  0  0
    2.5042    2.5177    0.5757 H   0  0  0  0  0  0  0  0  0  0  0  0
    0.9729    0.4432    0.6826 H   0  0  0  0  0  0  0  0  0  0  0  0
    1.1382   -1.0095   -1.2943 H   0  0  0  0  0  0  0  0  0  0  0  0
    3.1659   -4.5061   -0.3597 H   0  0  0  0  0  0  0  0  0  0  0  0
    1.4784   -4.0191   -0.8144 H   0  0  0  0  0  0  0  0  0  0  0  0
    2.0243   -6.3836   -1.4790 H   0  0  0  0  0  0  0  0  0  0  0  0
    3.3624   -5.7625   -2.5236 H   0  0  0  0  0  0  0  0  0  0  0  0
    1.6420   -5.3361   -2.9060 H   0  0  0  0  0  0  0  0  0  0  0  0
    4.8728   -0.8666    1.9714 H   0  0  0  0  0  0  0  0  0  0  0  0
    0.4137    3.9185    6.0025 H   0  0  0  0  0  0  0  0  0  0  0  0
    0.4804    5.3108    8.0341 H   0  0  0  0  0  0  0  0  0  0  0  0
    4.0940    7.1958   10.4303 H   0  0  0  0  0  0  0  0  0  0  0  0
    4.5262    6.0069    9.1667 H   0  0  0  0  0  0  0  0  0  0  0  0
    2.3774    8.2265    8.9732 H   0  0  0  0  0  0  0  0  0  0  0  0
    3.9822    8.1802    8.1450 H   0  0  0  0  0  0  0  0  0  0  0  0
    2.7056    7.0026    7.6804 H   0  0  0  0  0  0  0  0  0  0  0  0
    4.0749    1.9954    7.2139 H   0  0  0  0  0  0  0  0  0  0  0  0
    2.1719    0.1644    7.2730 H   0  0  0  0  0  0  0  0  0  0  0  0
    2.4797   -2.3272    6.6158 H   0  0  0  0  0  0  0  0  0  0  0  0
  1  2  2  0
  2  3  1  0
  3  4  2  0
  4  5  1  0
  5  6  2  0
  6  7  1  0
  7  8  2  0
  8  9  1  0
  9 10  1  0
 10 11  1  0
  8 12  1  0
 12 13  1  0
 12 14  2  0
  4 15  1  0
 15 16  2  0
 16 17  1  0
 17 18  1  0
 18 19  2  0
 19 20  1  0
 20 21  2  0
 21 22  1  0
 22 23  1  0
 23 24  1  0
 21 25  1  0
 25 26  2  0
 25 27  1  0
 17 28  2  0
 28 29  1  0
 16 30  1  0
 30 31  2  0
 31 32  1  0
 31 33  1  0
 33 34  2  0
 34 35  1  0
 35 36  2  0
 36 37  1  0
 37 38  2  0
 38 39  1  0
 39 40  2  0
 40 41  1  0
 41 42  1  0
 42 43  1  0
 40 44  1  0
 44 45  1  0
 44 46  2  0
 36 47  1  0
 47 48  2  0
 48 49  1  0
 49 50  1  0
 50 51  2  0
 51 52  1  0
 52 53  2  0
 53 54  1  0
 54 55  1  0
 55 56  1  0
 53 57  1  0
 57 58  2  0
 57 59  1  0
 49 60  2  0
 60 61  1  0
 48 62  1  0
 62 63  2  0
 63 64  1  0
 63 65  1  0
 65 66  1  0
 65 67  2  0
 67 68  1  0
 68 69  1  0
 69 70  1  0
 70 71  1  0
 68 72  1  0
 72 73  1  0
 73 74  1  0
 73 75  1  0
 75 76  2  0
 76 77  1  0
 77 78  2  3
 78 79  1  0
 79 80  1  0
 79 81  2  0
 81 82  1  0
 82 83  1  0
 83 84  1  0
 84 85  1  0
 82 86  1  0
 86 87  1  0
 87 88  1  0
 87 89  1  0
 89 90  2  0
 90 91  1  0
 91 92  2  3
 92 93  1  0
 93 94  2  0
 94 95  1  0
 95 96  2  0
 96 97  1  0
 97 98  2  0
 98 99  1  0
 99100  2  0
100101  1  0
101102  1  0
102103  1  0
100104  1  0
104105  1  0
104106  2  0
 96107  1  0
107108  2  0
108109  1  0
109110  1  0
110111  2  0
111112  1  0
112113  2  0
113114  1  0
114115  1  0
115116  1  0
113117  1  0
117118  2  0
117119  1  0
109120  2  0
120121  1  0
108122  1  0
122123  2  0
123124  1  0
123125  1  0
125126  2  0
126127  1  0
127128  2  0
128129  1  0
129130  2  0
130131  1  0
131132  2  0
132133  1  0
133134  1  0
134135  1  0
132136  1  0
136137  1  0
136138  2  0
128139  1  0
139140  2  0
140141  1  0
141142  1  0
142143  2  0
143144  1  0
144145  2  0
145146  1  0
146147  1  0
147148  1  0
145149  1  0
149150  2  0
149151  1  0
141152  2  0
152153  1  0
140154  1  0
154155  2  0
155156  1  0
 29  1  1  0
 61 33  1  0
 76 66  1  0
 90 80  1  0
121 93  1  0
153125  1  0
 28  3  1  0
 60 35  1  0
 75 67  1  0
 89 81  1  0
120 95  1  0
152127  1  0
 14  5  1  0
 32 15  1  0
 46 37  1  0
 64 47  1  0
106 97  1  0
124107  1  0
138129  1  0
156139  1  0
 26 18  1  0
 58 50  1  0
118110  1  0
150142  1  0
  1157  1  0
  2158  1  0
  6159  1  0
  7160  1  0
 10161  1  0
 10162  1  0
 11163  1  0
 11164  1  0
 11165  1  0
 14166  1  0
 19167  1  0
 20168  1  0
 23169  1  0
 23170  1  0
 24171  1  0
 24172  1  0
 24173  1  0
 26174  1  0
 30175  1  0
 34176  1  0
 38177  1  0
 39178  1  0
 42179  1  0
 42180  1  0
 43181  1  0
 43182  1  0
 43183  1  0
 46184  1  0
 51185  1  0
 52186  1  0
 55187  1  0
 55188  1  0
 56189  1  0
 56190  1  0
 56191  1  0
 58192  1  0
 62193  1  0
 68194  1  0
 69195  1  0
 70196  1  0
 70197  1  0
 71198  1  0
 71199  1  0
 71200  1  0
 73201  1  0
 74202  1  0
 77203  1  0
 78204  1  0
 82205  1  0
 83206  1  0
 84207  1  0
 84208  1  0
 85209  1  0
 85210  1  0
 85211  1  0
 87212  1  0
 88213  1  0
 91214  1  0
 92215  1  0
 94216  1  0
 98217  1  0
 99218  1  0
102219  1  0
102220  1  0
103221  1  0
103222  1  0
103223  1  0
106224  1  0
111225  1  0
112226  1  0
115227  1  0
115228  1  0
116229  1  0
116230  1  0
116231  1  0
118232  1  0
122233  1  0
126234  1  0
130235  1  0
131236  1  0
134237  1  0
134238  1  0
135239  1  0
135240  1  0
135241  1  0
138242  1  0
143243  1  0
144244  1  0
147245  1  0
147246  1  0
148247  1  0
148248  1  0
148249  1  0
150250  1  0
154251  1  0
155252  1  0
M  END

