
     RDKit          3D

107122  0  0  0  0  0  0  0  0999 V2000
   13.0563    8.2367    2.2967 C   0  0  0  0  0  0  0  0  0  0  0  0
   12.3359    6.8533    3.0091 S   0  0  0  0  0  0  0  0  0  0  0  0
   10.8023    7.3094    2.5186 C   0  0  0  0  0  0  0  0  0  0  0  0
    9.4863    7.0003    2.7127 C   0  0  0  0  0  0  0  0  0  0  0  0
    8.7734    8.0160    2.1671 C   0  0  0  0  0  0  0  0  0  0  0  0
    9.5692    8.9671    1.6114 N   0  0  0  0  0  0  0  0  0  0  0  0
    9.1811   10.2940    1.1370 C   0  0  0  0  0  0  0  0  0  0  0  0
    9.1445   11.2834    2.2962 C   0  0  0  0  0  0  0  0  0  0  0  0
   10.8199    8.4923    1.8556 C   0  0  0  0  0  0  0  0  0  0  0  0
   12.0800    9.0607    1.7111 C   0  0  0  0  0  0  0  0  0  0  0  0
    7.4060    7.9658    2.3980 C   0  0  0  0  0  0  0  0  0  0  0  0
    7.0854    6.8257    3.1609 C   0  0  0  0  0  0  0  0  0  0  0  0
    8.5067    5.9427    3.5586 S   0  0  0  0  0  0  0  0  0  0  0  0
    5.7232    6.4476    3.5705 C   0  0  0  0  0  0  0  0  0  0  0  0
    5.3312    5.0280    4.4557 S   0  0  0  0  0  0  0  0  0  0  0  0
    3.6907    5.3611    4.4093 C   0  0  0  0  0  0  0  0  0  0  0  0
    2.4772    4.7905    4.6743 C   0  0  0  0  0  0  0  0  0  0  0  0
    1.5460    5.6043    4.1203 C   0  0  0  0  0  0  0  0  0  0  0  0
    2.1042    6.6764    3.4994 N   0  0  0  0  0  0  0  0  0  0  0  0
    1.4419    7.7383    2.7464 C   0  0  0  0  0  0  0  0  0  0  0  0
    1.0761    8.8847    3.6799 C   0  0  0  0  0  0  0  0  0  0  0  0
    3.4336    6.4925    3.7050 C   0  0  0  0  0  0  0  0  0  0  0  0
    4.5541    7.1537    3.2215 C   0  0  0  0  0  0  0  0  0  0  0  0
    0.2487    5.1073    4.1337 C   0  0  0  0  0  0  0  0  0  0  0  0
    0.2219    3.8355    4.7366 C   0  0  0  0  0  0  0  0  0  0  0  0
    1.8014    3.3662    5.2280 S   0  0  0  0  0  0  0  0  0  0  0  0
   -0.9607    2.9605    4.7995 C   0  0  0  0  0  0  0  0  0  0  0  0
   -0.9849    1.4263    5.5630 S   0  0  0  0  0  0  0  0  0  0  0  0
   -2.5431    1.1024    5.0463 C   0  0  0  0  0  0  0  0  0  0  0  0
   -3.2959   -0.0044    4.7818 C   0  0  0  0  0  0  0  0  0  0  0  0
   -4.1724    0.3508    3.8029 C   0  0  0  0  0  0  0  0  0  0  0  0
   -4.0302    1.6538    3.4455 N   0  0  0  0  0  0  0  0  0  0  0  0
   -4.6819    2.3713    2.3490 C   0  0  0  0  0  0  0  0  0  0  0  0
   -5.8141    3.2289    2.8961 C   0  0  0  0  0  0  0  0  0  0  0  0
   -3.0138    2.0892    4.2371 C   0  0  0  0  0  0  0  0  0  0  0  0
   -2.1530    3.1705    4.0805 C   0  0  0  0  0  0  0  0  0  0  0  0
   -4.7557   -0.7195    3.1265 C   0  0  0  0  0  0  0  0  0  0  0  0
   -4.2872   -1.9347    3.6507 C   0  0  0  0  0  0  0  0  0  0  0  0
   -3.1224   -1.6642    4.8757 S   0  0  0  0  0  0  0  0  0  0  0  0
   -4.5995   -3.2585    3.1081 C   0  0  0  0  0  0  0  0  0  0  0  0
   -4.9232   -3.4931    1.8573 O   0  0  0  0  0  0  0  0  0  0  0  0
   -5.0887   -4.7908    1.7904 C   0  0  0  0  0  0  0  0  0  0  0  0
   -4.8876   -5.3703    2.9887 N   0  0  0  0  0  0  0  0  0  0  0  0
   -4.5649   -4.3959    3.8246 N   0  0  0  0  0  0  0  0  0  0  0  0
   -5.3885   -5.5261    0.5609 C   0  0  0  0  0  0  0  0  0  0  0  0
   -5.0497   -4.9194   -1.0091 S   0  0  0  0  0  0  0  0  0  0  0  0
   -5.4766   -6.3708   -1.7244 C   0  0  0  0  0  0  0  0  0  0  0  0
   -5.3850   -7.0348   -2.9144 C   0  0  0  0  0  0  0  0  0  0  0  0
   -5.7215   -8.3237   -2.6664 C   0  0  0  0  0  0  0  0  0  0  0  0
   -6.0022   -8.5313   -1.3573 N   0  0  0  0  0  0  0  0  0  0  0  0
   -6.3500   -9.7896   -0.6934 C   0  0  0  0  0  0  0  0  0  0  0  0
   -7.8598   -9.9785   -0.6887 C   0  0  0  0  0  0  0  0  0  0  0  0
   -5.8466   -7.2992   -0.8069 C   0  0  0  0  0  0  0  0  0  0  0  0
   -5.8005   -6.8705    0.5132 C   0  0  0  0  0  0  0  0  0  0  0  0
   -5.5413   -9.1992   -3.7322 C   0  0  0  0  0  0  0  0  0  0  0  0
   -5.0232   -8.5069   -4.8438 C   0  0  0  0  0  0  0  0  0  0  0  0
   -4.7835   -6.8505   -4.4630 S   0  0  0  0  0  0  0  0  0  0  0  0
   -4.6309   -9.1371   -6.1155 C   0  0  0  0  0  0  0  0  0  0  0  0
   -5.0145  -10.7530   -6.5508 S   0  0  0  0  0  0  0  0  0  0  0  0
   -4.1699  -10.6414   -7.9893 C   0  0  0  0  0  0  0  0  0  0  0  0
   -3.6043  -11.4676   -8.9174 C   0  0  0  0  0  0  0  0  0  0  0  0
   -2.6677  -10.7270   -9.5613 C   0  0  0  0  0  0  0  0  0  0  0  0
   -2.6060   -9.4528   -9.0947 N   0  0  0  0  0  0  0  0  0  0  0  0
   -1.5565   -8.4662   -9.3388 C   0  0  0  0  0  0  0  0  0  0  0  0
   -0.4035   -8.6672   -8.3639 C   0  0  0  0  0  0  0  0  0  0  0  0
   -3.5479   -9.4421   -8.1157 C   0  0  0  0  0  0  0  0  0  0  0  0
   -3.7871   -8.5491   -7.0784 C   0  0  0  0  0  0  0  0  0  0  0  0
   -1.8097  -11.4540  -10.3786 C   0  0  0  0  0  0  0  0  0  0  0  0
   -2.1410  -12.8185  -10.3455 C   0  0  0  0  0  0  0  0  0  0  0  0
   -3.4388  -13.1000   -9.2622 S   0  0  0  0  0  0  0  0  0  0  0  0
   14.1137    8.4651    2.3315 H   0  0  0  0  0  0  0  0  0  0  0  0
    8.1793   10.2451    0.6566 H   0  0  0  0  0  0  0  0  0  0  0  0
    9.9069   10.6427    0.3712 H   0  0  0  0  0  0  0  0  0  0  0  0
    8.4309   10.9321    3.0703 H   0  0  0  0  0  0  0  0  0  0  0  0
    8.8202   12.2766    1.9275 H   0  0  0  0  0  0  0  0  0  0  0  0
   10.1536   11.3827    2.7509 H   0  0  0  0  0  0  0  0  0  0  0  0
   12.2832   10.0108    1.2371 H   0  0  0  0  0  0  0  0  0  0  0  0
    6.7026    8.7169    2.0615 H   0  0  0  0  0  0  0  0  0  0  0  0
    2.1102    8.1105    1.9414 H   0  0  0  0  0  0  0  0  0  0  0  0
    0.5256    7.3412    2.2606 H   0  0  0  0  0  0  0  0  0  0  0  0
    0.5744    9.6901    3.1057 H   0  0  0  0  0  0  0  0  0  0  0  0
    0.3867    8.5198    4.4693 H   0  0  0  0  0  0  0  0  0  0  0  0
    1.9949    9.2877    4.1595 H   0  0  0  0  0  0  0  0  0  0  0  0
    4.5200    8.0500    2.6184 H   0  0  0  0  0  0  0  0  0  0  0  0
   -0.6035    5.6017    3.6828 H   0  0  0  0  0  0  0  0  0  0  0  0
   -5.0941    1.6567    1.6047 H   0  0  0  0  0  0  0  0  0  0  0  0
   -3.9409    3.0120    1.8254 H   0  0  0  0  0  0  0  0  0  0  0  0
   -6.5421    2.5858    3.4356 H   0  0  0  0  0  0  0  0  0  0  0  0
   -6.3380    3.7402    2.0606 H   0  0  0  0  0  0  0  0  0  0  0  0
   -5.4114    3.9934    3.5963 H   0  0  0  0  0  0  0  0  0  0  0  0
   -2.3286    3.9890    3.3950 H   0  0  0  0  0  0  0  0  0  0  0  0
   -5.4094   -0.6322    2.2677 H   0  0  0  0  0  0  0  0  0  0  0  0
   -5.9727   -9.7870    0.3504 H   0  0  0  0  0  0  0  0  0  0  0  0
   -5.8694  -10.6476   -1.2113 H   0  0  0  0  0  0  0  0  0  0  0  0
   -8.1121  -10.9256   -0.1680 H   0  0  0  0  0  0  0  0  0  0  0  0
   -8.2383  -10.0268   -1.7287 H   0  0  0  0  0  0  0  0  0  0  0  0
   -8.3507   -9.1337   -0.1620 H   0  0  0  0  0  0  0  0  0  0  0  0
   -6.0000   -7.4928    1.3748 H   0  0  0  0  0  0  0  0  0  0  0  0
   -5.7115  -10.2641   -3.6899 H   0  0  0  0  0  0  0  0  0  0  0  0
   -1.9667   -7.4433   -9.2278 H   0  0  0  0  0  0  0  0  0  0  0  0
   -1.1847   -8.5616  -10.3784 H   0  0  0  0  0  0  0  0  0  0  0  0
    0.0158   -9.6908   -8.4667 H   0  0  0  0  0  0  0  0  0  0  0  0
    0.3957   -7.9263   -8.5848 H   0  0  0  0  0  0  0  0  0  0  0  0
   -0.7603   -8.5207   -7.3217 H   0  0  0  0  0  0  0  0  0  0  0  0
   -3.3219   -7.5757   -6.9867 H   0  0  0  0  0  0  0  0  0  0  0  0
   -0.9709  -11.0380  -10.9213 H   0  0  0  0  0  0  0  0  0  0  0  0
   -1.6111  -13.5926  -10.8848 H   0  0  0  0  0  0  0  0  0  0  0  0
  1  2  1  0
  2  3  1  0
  3  4  1  0
  4  5  2  0
  5  6  1  0
  6  7  1  0
  7  8  1  0
  6  9  1  0
  9 10  1  0
  5 11  1  0
 11 12  2  0
 12 13  1  0
 12 14  1  0
 14 15  1  0
 15 16  1  0
 16 17  1  0
 17 18  2  0
 18 19  1  0
 19 20  1  0
 20 21  1  0
 19 22  1  0
 22 23  1  0
 18 24  1  0
 24 25  2  0
 25 26  1  0
 25 27  1  0
 27 28  1  0
 28 29  1  0
 29 30  1  0
 30 31  2  0
 31 32  1  0
 32 33  1  0
 33 34  1  0
 32 35  1  0
 35 36  1  0
 31 37  1  0
 37 38  2  0
 38 39  1  0
 38 40  1  0
 40 41  1  0
 41 42  1  0
 42 43  2  0
 43 44  1  0
 42 45  1  0
 45 46  1  0
 46 47  1  0
 47 48  1  0
 48 49  2  0
 49 50  1  0
 50 51  1  0
 51 52  1  0
 50 53  1  0
 53 54  1  0
 49 55  1  0
 55 56  2  0
 56 57  1  0
 56 58  1  0
 58 59  1  0
 59 60  1  0
 60 61  1  0
 61 62  2  0
 62 63  1  0
 63 64  1  0
 64 65  1  0
 63 66  1  0
 66 67  1  0
 62 68  1  0
 68 69  2  0
 69 70  1  0
 10  1  2  0
 23 14  2  0
 36 27  2  0
 44 40  2  0
 54 45  2  0
 67 58  2  0
  9  3  2  0
 22 16  2  0
 35 29  2  0
 53 47  2  0
 66 60  2  0
 13  4  1  0
 26 17  1  0
 39 30  1  0
 57 48  1  0
 70 61  1  0
  1 71  1  0
  7 72  1  0
  7 73  1  0
  8 74  1  0
  8 75  1  0
  8 76  1  0
 10 77  1  0
 11 78  1  0
 20 79  1  0
 20 80  1  0
 21 81  1  0
 21 82  1  0
 21 83  1  0
 23 84  1  0
 24 85  1  0
 33 86  1  0
 33 87  1  0
 34 88  1  0
 34 89  1  0
 34 90  1  0
 36 91  1  0
 37 92  1  0
 51 93  1  0
 51 94  1  0
 52 95  1  0
 52 96  1  0
 52 97  1  0
 54 98  1  0
 55 99  1  0
 64100  1  0
 64101  1  0
 65102  1  0
 65103  1  0
 65104  1  0
 67105  1  0
 68106  1  0
 69107  1  0
M  END

