
     RDKit          3D

113125  0  0  0  0  0  0  0  0999 V2000
    4.2402    1.4852    0.5142 C   0  0  0  0  0  0  0  0  0  0  0  0
    3.5148    1.2315   -0.9817 S   0  0  0  0  0  0  0  0  0  0  0  0
    2.7762    2.7425   -1.1298 C   0  0  0  0  0  0  0  0  0  0  0  0
    3.0880    3.4767    0.0238 C   0  0  0  0  0  0  0  0  0  0  0  0
    3.9195    2.7737    0.9207 C   0  0  0  0  0  0  0  0  0  0  0  0
    4.3983    3.3808    2.0874 C   0  0  0  0  0  0  0  0  0  0  0  0
    4.0023    4.6907    2.3825 C   0  0  0  0  0  0  0  0  0  0  0  0
    3.1618    5.3987    1.5077 C   0  0  0  0  0  0  0  0  0  0  0  0
    2.7091    4.8037    0.3181 C   0  0  0  0  0  0  0  0  0  0  0  0
    1.9471    5.5356   -0.5336 F   0  0  0  0  0  0  0  0  0  0  0  0
    1.9901    3.1931   -2.2933 C   0  0  0  0  0  0  0  0  0  0  0  0
    2.1979    2.6903   -3.5143 C   0  0  0  0  0  0  0  0  0  0  0  0
    1.3346    3.0454   -4.6496 C   0  0  0  0  0  0  0  0  0  0  0  0
    0.6175    1.8993   -5.6461 S   0  0  0  0  0  0  0  0  0  0  0  0
   -0.4008    2.9593   -6.4772 C   0  0  0  0  0  0  0  0  0  0  0  0
   -0.1293    4.2585   -6.0291 C   0  0  0  0  0  0  0  0  0  0  0  0
    0.8385    4.3023   -5.0012 C   0  0  0  0  0  0  0  0  0  0  0  0
    1.2371    5.5266   -4.4561 C   0  0  0  0  0  0  0  0  0  0  0  0
    0.6583    6.7113   -4.9292 C   0  0  0  0  0  0  0  0  0  0  0  0
   -0.3311    6.6716   -5.9228 C   0  0  0  0  0  0  0  0  0  0  0  0
   -0.7344    5.4472   -6.4792 C   0  0  0  0  0  0  0  0  0  0  0  0
   -1.6934    5.4421   -7.4409 F   0  0  0  0  0  0  0  0  0  0  0  0
   -1.3514    2.5739   -7.5339 C   0  0  0  0  0  0  0  0  0  0  0  0
   -2.1464    1.4945   -7.4958 C   0  0  0  0  0  0  0  0  0  0  0  0
   -2.3142    0.5980   -6.3304 C   0  0  0  0  0  0  0  0  0  0  0  0
   -2.3952    1.0720   -4.7134 S   0  0  0  0  0  0  0  0  0  0  0  0
   -2.6842   -0.4483   -4.0477 C   0  0  0  0  0  0  0  0  0  0  0  0
   -2.8033   -1.3621   -5.1079 C   0  0  0  0  0  0  0  0  0  0  0  0
   -2.5924   -0.7712   -6.3771 C   0  0  0  0  0  0  0  0  0  0  0  0
   -2.6961   -1.5345   -7.5465 C   0  0  0  0  0  0  0  0  0  0  0  0
   -3.0429   -2.8878   -7.4484 C   0  0  0  0  0  0  0  0  0  0  0  0
   -3.2853   -3.4715   -6.1948 C   0  0  0  0  0  0  0  0  0  0  0  0
   -3.1657   -2.7177   -5.0178 C   0  0  0  0  0  0  0  0  0  0  0  0
   -3.4707   -3.2955   -3.8279 F   0  0  0  0  0  0  0  0  0  0  0  0
   -2.7930   -0.6673   -2.5962 C   0  0  0  0  0  0  0  0  0  0  0  0
   -2.1142   -1.6263   -1.9561 C   0  0  0  0  0  0  0  0  0  0  0  0
   -2.1534   -1.7305   -0.5179 N   0  0  0  0  0  0  0  0  0  0  0  0
   -2.0144   -0.5660    0.3519 C   0  0  0  0  0  0  0  0  0  0  0  0
   -3.1321   -0.5883    1.3059 N   0  0  0  0  0  0  0  0  0  0  0  0
   -3.8870   -1.8264    1.0521 C   0  0  2  0  0  0  0  0  0  0  0  0
   -4.2494   -2.5152    2.3828 C   0  0  0  0  0  0  0  0  0  0  0  0
   -4.4271   -4.0378    2.1922 C   0  0  1  0  0  0  0  0  0  0  0  0
   -3.1224   -4.6969    1.7127 C   0  0  1  0  0  0  0  0  0  0  0  0
   -2.2007   -3.7277    0.9177 C   0  0  0  0  0  0  0  0  0  0  0  0
   -3.0249   -2.6928    0.1246 C   0  0  2  0  0  0  0  0  0  0  0  0
   -2.5440   -5.2300    2.9390 N   0  0  0  0  0  0  0  0  0  0  0  0
   -3.5754   -5.3462    3.9605 C   0  0  0  0  0  0  0  0  0  0  0  0
   -4.7741   -4.6539    3.4809 N   0  0  0  0  0  0  0  0  0  0  0  0
   -1.1696   -5.0710    3.3158 C   0  0  0  0  0  0  0  0  0  0  0  0
   -0.6189   -4.0373    4.5263 S   0  0  0  0  0  0  0  0  0  0  0  0
    1.0291   -4.3055    4.2944 C   0  0  0  0  0  0  0  0  0  0  0  0
    1.1511   -5.2989    3.3100 C   0  0  0  0  0  0  0  0  0  0  0  0
   -0.0746   -5.6989    2.7421 C   0  0  0  0  0  0  0  0  0  0  0  0
   -0.1205   -6.7069    1.7727 C   0  0  0  0  0  0  0  0  0  0  0  0
    1.0724   -7.3342    1.3851 C   0  0  0  0  0  0  0  0  0  0  0  0
    2.2975   -6.9441    1.9486 C   0  0  0  0  0  0  0  0  0  0  0  0
    2.3471   -5.9115    2.8995 C   0  0  0  0  0  0  0  0  0  0  0  0
    3.5449   -5.5379    3.4147 F   0  0  0  0  0  0  0  0  0  0  0  0
    2.0630   -3.9223    5.2628 C   0  0  0  0  0  0  0  0  0  0  0  0
    2.4816   -2.6708    5.5270 C   0  0  0  0  0  0  0  0  0  0  0  0
    2.0473   -1.4087    4.8843 C   0  0  0  0  0  0  0  0  0  0  0  0
    0.5902   -1.1066    4.0900 S   0  0  0  0  0  0  0  0  0  0  0  0
    0.7593    0.5526    3.8888 C   0  0  0  0  0  0  0  0  0  0  0  0
    1.9732    0.9234    4.4677 C   0  0  0  0  0  0  0  0  0  0  0  0
    2.6939   -0.1673    5.0100 C   0  0  0  0  0  0  0  0  0  0  0  0
    3.9328    0.0521    5.6314 C   0  0  0  0  0  0  0  0  0  0  0  0
    4.4256    1.3573    5.7446 C   0  0  0  0  0  0  0  0  0  0  0  0
    3.6890    2.4436    5.2518 C   0  0  0  0  0  0  0  0  0  0  0  0
    2.4604    2.2362    4.6071 C   0  0  0  0  0  0  0  0  0  0  0  0
    1.7571    3.3022    4.1589 F   0  0  0  0  0  0  0  0  0  0  0  0
   -0.2395    1.4340    3.2589 C   0  0  0  0  0  0  0  0  0  0  0  0
   -1.5380    1.2781    3.4820 C   0  0  0  0  0  0  0  0  0  0  0  0
    4.8723    0.7826    1.0399 H   0  0  0  0  0  0  0  0  0  0  0  0
    5.0644    2.8436    2.7556 H   0  0  0  0  0  0  0  0  0  0  0  0
    4.3664    5.1704    3.2860 H   0  0  0  0  0  0  0  0  0  0  0  0
    2.8785    6.4187    1.7369 H   0  0  0  0  0  0  0  0  0  0  0  0
    1.2404    3.9560   -2.1450 H   0  0  0  0  0  0  0  0  0  0  0  0
    2.9141    1.8834   -3.6588 H   0  0  0  0  0  0  0  0  0  0  0  0
    2.0068    5.5756   -3.6977 H   0  0  0  0  0  0  0  0  0  0  0  0
    0.9727    7.6621   -4.5174 H   0  0  0  0  0  0  0  0  0  0  0  0
   -0.7891    7.5898   -6.2629 H   0  0  0  0  0  0  0  0  0  0  0  0
   -1.3919    3.1925   -8.4175 H   0  0  0  0  0  0  0  0  0  0  0  0
   -2.7212    1.2638   -8.3850 H   0  0  0  0  0  0  0  0  0  0  0  0
   -2.5269   -1.0947   -8.5202 H   0  0  0  0  0  0  0  0  0  0  0  0
   -3.1429   -3.4792   -8.3536 H   0  0  0  0  0  0  0  0  0  0  0  0
   -3.5736   -4.5145   -6.1439 H   0  0  0  0  0  0  0  0  0  0  0  0
   -3.3495    0.0669   -2.0315 H   0  0  0  0  0  0  0  0  0  0  0  0
   -1.5463   -2.3590   -2.5205 H   0  0  0  0  0  0  0  0  0  0  0  0
   -1.9933    0.3867   -0.2249 H   0  0  0  0  0  0  0  0  0  0  0  0
   -1.0565   -0.6375    0.9065 H   0  0  0  0  0  0  0  0  0  0  0  0
   -3.7578    0.2269    1.1062 H   0  0  0  0  0  0  0  0  0  0  0  0
   -4.8304   -1.5845    0.5048 H   0  0  0  0  0  0  0  0  0  0  0  0
   -3.4455   -2.3360    3.1337 H   0  0  0  0  0  0  0  0  0  0  0  0
   -5.1904   -2.0687    2.7802 H   0  0  0  0  0  0  0  0  0  0  0  0
   -5.2409   -4.2129    1.4530 H   0  0  0  0  0  0  0  0  0  0  0  0
   -3.3796   -5.5475    1.0462 H   0  0  0  0  0  0  0  0  0  0  0  0
   -1.5131   -3.1806    1.6074 H   0  0  0  0  0  0  0  0  0  0  0  0
   -1.5638   -4.3122    0.2176 H   0  0  0  0  0  0  0  0  0  0  0  0
   -3.6601   -3.2173   -0.6252 H   0  0  0  0  0  0  0  0  0  0  0  0
   -3.7809   -6.4202    4.1457 H   0  0  0  0  0  0  0  0  0  0  0  0
   -3.2604   -4.8832    4.9186 H   0  0  0  0  0  0  0  0  0  0  0  0
   -5.5315   -5.3662    3.3180 H   0  0  0  0  0  0  0  0  0  0  0  0
   -1.0630   -7.0324    1.3503 H   0  0  0  0  0  0  0  0  0  0  0  0
    1.0463   -8.1337    0.6561 H   0  0  0  0  0  0  0  0  0  0  0  0
    3.2100   -7.4417    1.6426 H   0  0  0  0  0  0  0  0  0  0  0  0
    2.5428   -4.7336    5.7910 H   0  0  0  0  0  0  0  0  0  0  0  0
    3.2546   -2.5908    6.2730 H   0  0  0  0  0  0  0  0  0  0  0  0
    4.5161   -0.7659    6.0292 H   0  0  0  0  0  0  0  0  0  0  0  0
    5.3776    1.5305    6.2328 H   0  0  0  0  0  0  0  0  0  0  0  0
    4.0798    3.4450    5.3562 H   0  0  0  0  0  0  0  0  0  0  0  0
    0.0935    2.2596    2.6432 H   0  0  0  0  0  0  0  0  0  0  0  0
   -2.2550    1.9570    3.0331 H   0  0  0  0  0  0  0  0  0  0  0  0
   -1.9129    0.4965    4.1288 H   0  0  0  0  0  0  0  0  0  0  0  0
  1  2  1  0
  2  3  1  0
  3  4  2  0
  4  5  1  0
  5  6  1  0
  6  7  2  0
  7  8  1  0
  8  9  2  0
  9 10  1  0
  3 11  1  0
 11 12  2  3
 12 13  1  0
 13 14  1  0
 14 15  1  0
 15 16  2  0
 16 17  1  0
 17 18  1  0
 18 19  2  0
 19 20  1  0
 20 21  2  0
 21 22  1  0
 15 23  1  0
 23 24  2  3
 24 25  1  0
 25 26  1  0
 26 27  1  0
 27 28  2  0
 28 29  1  0
 29 30  1  0
 30 31  2  0
 31 32  1  0
 32 33  2  0
 33 34  1  0
 27 35  1  0
 35 36  2  3
 36 37  1  0
 37 38  1  0
 38 39  1  0
 39 40  1  0
 40 41  1  0
 41 42  1  0
 42 43  1  0
 43 44  1  0
 44 45  1  0
 43 46  1  0
 46 47  1  0
 47 48  1  0
 46 49  1  0
 49 50  1  0
 50 51  1  0
 51 52  2  0
 52 53  1  0
 53 54  1  0
 54 55  2  0
 55 56  1  0
 56 57  2  0
 57 58  1  0
 51 59  1  0
 59 60  2  3
 60 61  1  0
 61 62  1  0
 62 63  1  0
 63 64  2  0
 64 65  1  0
 65 66  1  0
 66 67  2  0
 67 68  1  0
 68 69  2  0
 69 70  1  0
 63 71  1  0
 71 72  2  3
  5  1  2  0
 17 13  2  0
 29 25  2  0
 45 37  1  0
 53 49  2  0
 65 61  2  0
  9  4  1  0
 21 16  1  0
 33 28  1  0
 45 40  1  0
 57 52  1  0
 69 64  1  0
 48 42  1  0
  1 73  1  0
  6 74  1  0
  7 75  1  0
  8 76  1  0
 11 77  1  0
 12 78  1  0
 18 79  1  0
 19 80  1  0
 20 81  1  0
 23 82  1  0
 24 83  1  0
 30 84  1  0
 31 85  1  0
 32 86  1  0
 35 87  1  0
 36 88  1  0
 38 89  1  0
 38 90  1  0
 39 91  1  0
 40 92  1  6
 41 93  1  0
 41 94  1  0
 42 95  1  6
 43 96  1  6
 44 97  1  0
 44 98  1  0
 45 99  1  6
 47100  1  0
 47101  1  0
 48102  1  0
 54103  1  0
 55104  1  0
 56105  1  0
 59106  1  0
 60107  1  0
 66108  1  0
 67109  1  0
 68110  1  0
 71111  1  0
 72112  1  0
 72113  1  0
M  END

