
     RDKit          3D

174193  0  0  0  0  0  0  0  0999 V2000
    1.2802    2.5589    4.0069 N   0  0  0  0  0  0  0  0  0  0  0  0
    1.9143    2.6446    5.3161 C   0  0  0  0  0  0  0  0  0  0  0  0
    3.2503    2.0468    5.2307 N   0  0  0  0  0  0  0  0  0  0  0  0
    3.2153    1.1644    4.0690 C   0  0  2  0  0  0  0  0  0  0  0  0
    4.3449    1.5114    3.0989 C   0  0  0  0  0  0  0  0  0  0  0  0
    4.2673    0.6125    1.8367 C   0  0  1  0  0  0  0  0  0  0  0  0
    2.8421    0.3273    1.3244 C   0  0  1  0  0  0  0  0  0  0  0  0
    1.8518    1.3774    1.8791 C   0  0  0  0  0  0  0  0  0  0  0  0
    1.8404    1.3422    3.4278 C   0  0  2  0  0  0  0  0  0  0  0  0
    2.8941    0.4055   -0.1541 N   0  0  0  0  0  0  0  0  0  0  0  0
    4.3228    0.6667   -0.4544 C   0  0  0  0  0  0  0  0  0  0  0  0
    4.9860    1.2076    0.7227 N   0  0  0  0  0  0  0  0  0  0  0  0
    2.5003   -0.8197   -0.7876 N   0  0  0  0  0  0  0  0  0  0  0  0
    1.1077   -1.2018   -0.4500 C   0  0  0  0  0  0  0  0  0  0  0  0
    0.3889   -1.5428   -1.6752 N   0  0  0  0  0  0  0  0  0  0  0  0
    1.0376   -0.7387   -2.6896 C   0  0  2  0  0  0  0  0  0  0  0  0
    0.8459   -1.2925   -4.1079 C   0  0  0  0  0  0  0  0  0  0  0  0
    1.5555   -2.6347   -4.3940 C   0  0  1  0  0  0  0  0  0  0  0  0
    2.7805   -2.9166   -3.5294 C   0  0  1  0  0  0  0  0  0  0  0  0
    3.4399   -1.6637   -2.9306 C   0  0  0  0  0  0  0  0  0  0  0  0
    2.4878   -0.6423   -2.2571 C   0  0  2  0  0  0  0  0  0  0  0  0
    2.3585   -3.8766   -2.4999 N   0  0  0  0  0  0  0  0  0  0  0  0
    1.0425   -4.3986   -2.9386 C   0  0  0  0  0  0  0  0  0  0  0  0
    0.6366   -3.7479   -4.1819 N   0  0  0  0  0  0  0  0  0  0  0  0
    3.3731   -4.8778   -2.3160 N   0  0  0  0  0  0  0  0  0  0  0  0
    3.5518   -5.8431   -3.4183 C   0  0  0  0  0  0  0  0  0  0  0  0
    3.3061   -7.1884   -2.9054 N   0  0  0  0  0  0  0  0  0  0  0  0
    3.5424   -7.1176   -1.4679 C   0  0  2  0  0  0  0  0  0  0  0  0
    2.6424   -8.1352   -0.7414 C   0  0  0  0  0  0  0  0  0  0  0  0
    2.5447   -7.8191    0.7603 C   0  0  1  0  0  0  0  0  0  0  0  0
    2.0294   -6.3932    1.0291 C   0  0  1  0  0  0  0  0  0  0  0  0
    2.0134   -5.4868   -0.2236 C   0  0  0  0  0  0  0  0  0  0  0  0
    3.3027   -5.6539   -1.0603 C   0  0  2  0  0  0  0  0  0  0  0  0
    0.6806   -6.6078    1.5061 N   0  0  0  0  0  0  0  0  0  0  0  0
    0.3473   -8.0135    1.5847 C   0  0  0  0  0  0  0  0  0  0  0  0
    1.5973   -8.7538    1.3984 N   0  0  0  0  0  0  0  0  0  0  0  0
   -0.2137   -5.5458    1.8336 C   0  0  0  0  0  0  0  0  0  0  0  0
    0.0634   -4.5978    2.8046 C   0  0  0  0  0  0  0  0  0  0  0  0
   -0.7084   -3.4377    2.6695 C   0  0  0  0  0  0  0  0  0  0  0  0
   -0.6387   -2.2998    3.4948 C   0  0  0  0  0  0  0  0  0  0  0  0
    0.3473   -2.1972    4.5918 C   0  0  0  0  0  0  0  0  0  0  0  0
    2.0090   -2.3517    4.3857 S   0  0  0  0  0  0  0  0  0  0  0  0
    2.4289   -2.0011    5.9737 C   0  0  0  0  0  0  0  0  0  0  0  0
    3.8319   -1.9341    6.4899 C   0  0  0  0  0  0  0  0  0  0  0  0
    4.2657   -3.2658    7.0886 C   0  0  0  0  0  0  0  0  0  0  0  0
    1.2606   -1.7772    6.7003 C   0  0  0  0  0  0  0  0  0  0  0  0
    1.2416   -1.3637    8.4078 Cl  0  0  0  0  0  0  0  0  0  0  0  0
    0.0924   -1.8937    5.9294 C   0  0  0  0  0  0  0  0  0  0  0  0
   -1.5269   -1.7530    6.6026 Cl  0  0  0  0  0  0  0  0  0  0  0  0
   -1.4755   -1.2213    3.1575 C   0  0  0  0  0  0  0  0  0  0  0  0
   -2.3242   -1.2410    2.0385 C   0  0  0  0  0  0  0  0  0  0  0  0
   -2.4118   -2.3981    1.2285 C   0  0  0  0  0  0  0  0  0  0  0  0
   -3.3161   -2.4777    0.0611 C   0  0  0  0  0  0  0  0  0  0  0  0
   -2.8331   -2.8431   -1.5107 S   0  0  0  0  0  0  0  0  0  0  0  0
   -4.3629   -2.7829   -2.2019 C   0  0  0  0  0  0  0  0  0  0  0  0
   -4.6404   -2.9477   -3.6640 C   0  0  0  0  0  0  0  0  0  0  0  0
   -4.6171   -1.5966   -4.3717 C   0  0  0  0  0  0  0  0  0  0  0  0
   -5.2864   -2.4759   -1.2036 C   0  0  0  0  0  0  0  0  0  0  0  0
   -4.7040   -2.3182    0.0644 C   0  0  0  0  0  0  0  0  0  0  0  0
   -5.6498   -2.0485    1.5206 Cl  0  0  0  0  0  0  0  0  0  0  0  0
   -7.0148   -2.3387   -1.4985 Cl  0  0  0  0  0  0  0  0  0  0  0  0
   -1.5819   -3.4773    1.5776 C   0  0  0  0  0  0  0  0  0  0  0  0
   -1.3923   -4.9525    0.7845 S   0  0  0  0  0  0  0  0  0  0  0  0
   -2.9876   -0.0130    1.8298 C   0  0  0  0  0  0  0  0  0  0  0  0
   -2.6802    0.9284    2.8096 C   0  0  0  0  0  0  0  0  0  0  0  0
   -1.5731    0.2834    3.9012 S   0  0  0  0  0  0  0  0  0  0  0  0
   -3.1606    2.2748    2.8569 N   0  0  0  0  0  0  0  0  0  0  0  0
   -3.7243    2.8361    4.0754 C   0  0  0  0  0  0  0  0  0  0  0  0
   -3.6403    4.2953    3.9724 N   0  0  0  0  0  0  0  0  0  0  0  0
   -2.7098    4.5870    2.8754 C   0  0  2  0  0  0  0  0  0  0  0  0
   -3.1802    5.8359    2.1034 C   0  0  0  0  0  0  0  0  0  0  0  0
   -2.5679    5.8613    0.6924 C   0  0  1  0  0  0  0  0  0  0  0  0
   -2.9703    4.6336   -0.1291 C   0  0  1  0  0  0  0  0  0  0  0  0
   -3.4406    3.4347    0.7154 C   0  0  0  0  0  0  0  0  0  0  0  0
   -2.6210    3.3172    2.0095 C   0  0  2  0  0  0  0  0  0  0  0  0
   -4.0518    5.1025   -0.9899 N   0  0  0  0  0  0  0  0  0  0  0  0
   -3.8792    6.5584   -1.1356 C   0  0  0  0  0  0  0  0  0  0  0  0
   -3.0454    7.0415   -0.0309 N   0  0  0  0  0  0  0  0  0  0  0  0
   -4.1599    4.3504   -2.2002 N   0  0  0  0  0  0  0  0  0  0  0  0
   -5.3710    4.7268   -2.9380 C   0  0  0  0  0  0  0  0  0  0  0  0
   -4.9826    5.5424   -4.0800 N   0  0  0  0  0  0  0  0  0  0  0  0
   -3.6241    5.1183   -4.4249 C   0  0  2  0  0  0  0  0  0  0  0  0
   -3.6243    4.1548   -5.6335 C   0  0  0  0  0  0  0  0  0  0  0  0
   -2.2138    3.5681   -5.8828 C   0  0  1  0  0  0  0  0  0  0  0  0
   -1.4967    3.1045   -4.6086 C   0  0  1  0  0  0  0  0  0  0  0  0
   -2.4172    3.0960   -3.3820 C   0  0  0  0  0  0  0  0  0  0  0  0
   -3.0374    4.4866   -3.1472 C   0  0  2  0  0  0  0  0  0  0  0  0
   -1.0192    1.7520   -4.8680 N   0  0  0  0  0  0  0  0  0  0  0  0
   -1.2007    1.5276   -6.2991 C   0  0  0  0  0  0  0  0  0  0  0  0
   -2.2498    2.4194   -6.7858 N   0  0  0  0  0  0  0  0  0  0  0  0
    1.6098    3.3854    3.4585 H   0  0  0  0  0  0  0  0  0  0  0  0
    1.2907    2.0971    6.0610 H   0  0  0  0  0  0  0  0  0  0  0  0
    2.0009    3.7028    5.6431 H   0  0  0  0  0  0  0  0  0  0  0  0
    3.4099    1.4743    6.0912 H   0  0  0  0  0  0  0  0  0  0  0  0
    3.3546    0.1107    4.3864 H   0  0  0  0  0  0  0  0  0  0  0  0
    5.3285    1.3693    3.5973 H   0  0  0  0  0  0  0  0  0  0  0  0
    4.2589    2.5903    2.8357 H   0  0  0  0  0  0  0  0  0  0  0  0
    4.7488   -0.3616    2.0789 H   0  0  0  0  0  0  0  0  0  0  0  0
    2.5313   -0.6818    1.6809 H   0  0  0  0  0  0  0  0  0  0  0  0
    0.8177    1.1924    1.5234 H   0  0  0  0  0  0  0  0  0  0  0  0
    2.1459    2.3797    1.5037 H   0  0  0  0  0  0  0  0  0  0  0  0
    1.2110    0.4840    3.7426 H   0  0  0  0  0  0  0  0  0  0  0  0
    4.4074    1.3856   -1.2993 H   0  0  0  0  0  0  0  0  0  0  0  0
    4.8596   -0.2653   -0.7443 H   0  0  0  0  0  0  0  0  0  0  0  0
    4.8211    2.2429    0.7072 H   0  0  0  0  0  0  0  0  0  0  0  0
    0.5634   -0.3899    0.0718 H   0  0  0  0  0  0  0  0  0  0  0  0
    1.1176   -2.0882    0.2170 H   0  0  0  0  0  0  0  0  0  0  0  0
   -0.6011   -1.2168   -1.5876 H   0  0  0  0  0  0  0  0  0  0  0  0
    0.5983    0.2890   -2.6697 H   0  0  0  0  0  0  0  0  0  0  0  0
    1.2541   -0.5364   -4.8132 H   0  0  0  0  0  0  0  0  0  0  0  0
   -0.2405   -1.3765   -4.3351 H   0  0  0  0  0  0  0  0  0  0  0  0
    1.8661   -2.6141   -5.4655 H   0  0  0  0  0  0  0  0  0  0  0  0
    3.5446   -3.3754   -4.1956 H   0  0  0  0  0  0  0  0  0  0  0  0
    3.9637   -1.1420   -3.7618 H   0  0  0  0  0  0  0  0  0  0  0  0
    4.2300   -1.9818   -2.2150 H   0  0  0  0  0  0  0  0  0  0  0  0
    2.8317    0.3712   -2.5570 H   0  0  0  0  0  0  0  0  0  0  0  0
    0.2883   -4.1439   -2.1688 H   0  0  0  0  0  0  0  0  0  0  0  0
    1.0110   -5.5040   -3.0496 H   0  0  0  0  0  0  0  0  0  0  0  0
    0.7622   -4.4328   -4.9643 H   0  0  0  0  0  0  0  0  0  0  0  0
    4.6021   -5.7640   -3.7800 H   0  0  0  0  0  0  0  0  0  0  0  0
    2.8921   -5.6507   -4.2870 H   0  0  0  0  0  0  0  0  0  0  0  0
    3.9877   -7.8527   -3.3381 H   0  0  0  0  0  0  0  0  0  0  0  0
    4.6082   -7.3774   -1.2520 H   0  0  0  0  0  0  0  0  0  0  0  0
    3.0580   -9.1589   -0.8763 H   0  0  0  0  0  0  0  0  0  0  0  0
    1.6223   -8.1270   -1.1931 H   0  0  0  0  0  0  0  0  0  0  0  0
    3.5577   -7.9398    1.2067 H   0  0  0  0  0  0  0  0  0  0  0  0
    2.6340   -5.9197    1.8338 H   0  0  0  0  0  0  0  0  0  0  0  0
    1.8976   -4.4260    0.0889 H   0  0  0  0  0  0  0  0  0  0  0  0
    1.1338   -5.7893   -0.8174 H   0  0  0  0  0  0  0  0  0  0  0  0
    4.1503   -5.3294   -0.4165 H   0  0  0  0  0  0  0  0  0  0  0  0
   -0.1078   -8.2470    2.5721 H   0  0  0  0  0  0  0  0  0  0  0  0
   -0.3677   -8.2707    0.7738 H   0  0  0  0  0  0  0  0  0  0  0  0
    1.9745   -8.9754    2.3492 H   0  0  0  0  0  0  0  0  0  0  0  0
    0.8233   -4.7445    3.5562 H   0  0  0  0  0  0  0  0  0  0  0  0
    4.5144   -1.6717    5.6550 H   0  0  0  0  0  0  0  0  0  0  0  0
    3.9131   -1.1347    7.2576 H   0  0  0  0  0  0  0  0  0  0  0  0
    3.5998   -3.5500    7.9305 H   0  0  0  0  0  0  0  0  0  0  0  0
    4.2483   -4.0620    6.3154 H   0  0  0  0  0  0  0  0  0  0  0  0
    5.3005   -3.1731    7.4799 H   0  0  0  0  0  0  0  0  0  0  0  0
   -3.8712   -3.6103   -4.1141 H   0  0  0  0  0  0  0  0  0  0  0  0
   -5.6291   -3.4306   -3.8119 H   0  0  0  0  0  0  0  0  0  0  0  0
   -3.6458   -1.0866   -4.1963 H   0  0  0  0  0  0  0  0  0  0  0  0
   -5.4385   -0.9517   -3.9937 H   0  0  0  0  0  0  0  0  0  0  0  0
   -4.7533   -1.7419   -5.4618 H   0  0  0  0  0  0  0  0  0  0  0  0
   -3.6596    0.1878    1.0056 H   0  0  0  0  0  0  0  0  0  0  0  0
   -4.7887    2.5330    4.1631 H   0  0  0  0  0  0  0  0  0  0  0  0
   -3.1640    2.4777    4.9671 H   0  0  0  0  0  0  0  0  0  0  0  0
   -3.2465    4.6855    4.8603 H   0  0  0  0  0  0  0  0  0  0  0  0
   -1.6918    4.7913    3.2922 H   0  0  0  0  0  0  0  0  0  0  0  0
   -4.2881    5.8434    2.0254 H   0  0  0  0  0  0  0  0  0  0  0  0
   -2.8718    6.7483    2.6593 H   0  0  0  0  0  0  0  0  0  0  0  0
   -1.4566    5.9011    0.7978 H   0  0  0  0  0  0  0  0  0  0  0  0
   -2.0763    4.3176   -0.7109 H   0  0  0  0  0  0  0  0  0  0  0  0
   -3.3413    2.5045    0.1200 H   0  0  0  0  0  0  0  0  0  0  0  0
   -4.5160    3.5508    0.9797 H   0  0  0  0  0  0  0  0  0  0  0  0
   -1.5541    3.1036    1.7620 H   0  0  0  0  0  0  0  0  0  0  0  0
   -3.4510    6.8579   -2.1127 H   0  0  0  0  0  0  0  0  0  0  0  0
   -4.8758    7.0415   -1.0542 H   0  0  0  0  0  0  0  0  0  0  0  0
   -2.2233    7.5477   -0.4354 H   0  0  0  0  0  0  0  0  0  0  0  0
   -6.1004    5.2805   -2.3045 H   0  0  0  0  0  0  0  0  0  0  0  0
   -5.8729    3.7968   -3.2913 H   0  0  0  0  0  0  0  0  0  0  0  0
   -5.6562    5.3914   -4.8695 H   0  0  0  0  0  0  0  0  0  0  0  0
   -3.0344    6.0203   -4.6980 H   0  0  0  0  0  0  0  0  0  0  0  0
   -3.9623    4.6924   -6.5483 H   0  0  0  0  0  0  0  0  0  0  0  0
   -4.3542    3.3369   -5.4369 H   0  0  0  0  0  0  0  0  0  0  0  0
   -1.5927    4.3598   -6.3632 H   0  0  0  0  0  0  0  0  0  0  0  0
   -0.6373    3.7828   -4.3987 H   0  0  0  0  0  0  0  0  0  0  0  0
   -3.2237    2.3419   -3.5272 H   0  0  0  0  0  0  0  0  0  0  0  0
   -1.8356    2.7878   -2.4889 H   0  0  0  0  0  0  0  0  0  0  0  0
   -2.2304    5.1499   -2.7632 H   0  0  0  0  0  0  0  0  0  0  0  0
    0.0003    1.6939   -4.6405 H   0  0  0  0  0  0  0  0  0  0  0  0
   -1.4738    0.4636   -6.4787 H   0  0  0  0  0  0  0  0  0  0  0  0
   -0.2580    1.7452   -6.8521 H   0  0  0  0  0  0  0  0  0  0  0  0
   -3.1548    1.9049   -6.6781 H   0  0  0  0  0  0  0  0  0  0  0  0
  1  2  1  0
  2  3  1  0
  3  4  1  0
  4  5  1  0
  5  6  1  0
  6  7  1  0
  7  8  1  0
  8  9  1  0
  7 10  1  0
 10 11  1  0
 11 12  1  0
 10 13  1  0
 13 14  1  0
 14 15  1  0
 15 16  1  0
 16 17  1  0
 17 18  1  0
 18 19  1  0
 19 20  1  0
 20 21  1  0
 19 22  1  0
 22 23  1  0
 23 24  1  0
 22 25  1  0
 25 26  1  0
 26 27  1  0
 27 28  1  0
 28 29  1  0
 29 30  1  0
 30 31  1  0
 31 32  1  0
 32 33  1  0
 31 34  1  0
 34 35  1  0
 35 36  1  0
 34 37  1  0
 37 38  2  0
 38 39  1  0
 39 40  2  0
 40 41  1  0
 41 42  1  0
 42 43  1  0
 43 44  1  0
 44 45  1  0
 43 46  2  0
 46 47  1  0
 46 48  1  0
 48 49  1  0
 40 50  1  0
 50 51  2  0
 51 52  1  0
 52 53  1  0
 53 54  1  0
 54 55  1  0
 55 56  1  0
 56 57  1  0
 55 58  2  0
 58 59  1  0
 59 60  1  0
 58 61  1  0
 52 62  2  0
 62 63  1  0
 51 64  1  0
 64 65  2  0
 65 66  1  0
 65 67  1  0
 67 68  1  0
 68 69  1  0
 69 70  1  0
 70 71  1  0
 71 72  1  0
 72 73  1  0
 73 74  1  0
 74 75  1  0
 73 76  1  0
 76 77  1  0
 77 78  1  0
 76 79  1  0
 79 80  1  0
 80 81  1  0
 81 82  1  0
 82 83  1  0
 83 84  1  0
 84 85  1  0
 85 86  1  0
 86 87  1  0
 85 88  1  0
 88 89  1  0
 89 90  1  0
  9  1  1  0
 21 13  1  0
 33 25  1  0
 63 37  1  0
 75 67  1  0
 87 79  1  0
  9  4  1  0
 21 16  1  0
 33 28  1  0
 62 39  1  0
 75 70  1  0
 87 82  1  0
 12  6  1  0
 24 18  1  0
 36 30  1  0
 48 41  2  0
 66 50  1  0
 78 72  1  0
 90 84  1  0
 59 53  2  0
  1 91  1  0
  2 92  1  0
  2 93  1  0
  3 94  1  0
  4 95  1  1
  5 96  1  0
  5 97  1  0
  6 98  1  1
  7 99  1  6
  8100  1  0
  8101  1  0
  9102  1  6
 11103  1  0
 11104  1  0
 12105  1  0
 14106  1  0
 14107  1  0
 15108  1  0
 16109  1  6
 17110  1  0
 17111  1  0
 18112  1  6
 19113  1  6
 20114  1  0
 20115  1  0
 21116  1  1
 23117  1  0
 23118  1  0
 24119  1  0
 26120  1  0
 26121  1  0
 27122  1  0
 28123  1  6
 29124  1  0
 29125  1  0
 30126  1  1
 31127  1  1
 32128  1  0
 32129  1  0
 33130  1  1
 35131  1  0
 35132  1  0
 36133  1  0
 38134  1  0
 44135  1  0
 44136  1  0
 45137  1  0
 45138  1  0
 45139  1  0
 56140  1  0
 56141  1  0
 57142  1  0
 57143  1  0
 57144  1  0
 64145  1  0
 68146  1  0
 68147  1  0
 69148  1  0
 70149  1  1
 71150  1  0
 71151  1  0
 72152  1  1
 73153  1  6
 74154  1  0
 74155  1  0
 75156  1  6
 77157  1  0
 77158  1  0
 78159  1  0
 80160  1  0
 80161  1  0
 81162  1  0
 82163  1  6
 83164  1  0
 83165  1  0
 84166  1  6
 85167  1  1
 86168  1  0
 86169  1  0
 87170  1  1
 88171  1  0
 89172  1  0
 89173  1  0
 90174  1  0
M  END

