
     RDKit          3D

190211  0  0  0  0  0  0  0  0999 V2000
    1.5842    5.6855    3.8703 N   0  0  0  0  0  0  0  0  0  0  0  0
    0.4390    5.8956    2.9790 C   0  0  0  0  0  0  0  0  0  0  0  0
    0.9212    6.2220    1.6293 N   0  0  0  0  0  0  0  0  0  0  0  0
    2.3694    6.0193    1.6461 C   0  0  2  0  0  0  0  0  0  0  0  0
    2.7939    5.1514    0.4430 C   0  0  0  0  0  0  0  0  0  0  0  0
    4.1513    4.4740    0.7130 C   0  0  1  0  0  0  0  0  0  0  0  0
    4.0888    3.5246    1.9344 C   0  0  1  0  0  0  0  0  0  0  0  0
    2.9211    3.8631    2.8947 C   0  0  0  0  0  0  0  0  0  0  0  0
    2.7091    5.3873    2.9965 C   0  0  2  0  0  0  0  0  0  0  0  0
    3.9531    2.2104    1.3259 N   0  0  0  0  0  0  0  0  0  0  0  0
    4.2104    2.2782   -0.1048 C   0  0  0  0  0  0  0  0  0  0  0  0
    4.5290    3.6672   -0.4505 N   0  0  0  0  0  0  0  0  0  0  0  0
    3.6635    0.9543    1.9759 C   0  0  0  0  0  0  0  0  0  0  0  0
    3.3684   -0.2274    1.2962 C   0  0  0  0  0  0  0  0  0  0  0  0
    3.0460   -1.2907    2.1485 C   0  0  0  0  0  0  0  0  0  0  0  0
    2.7283   -2.5951    1.7416 C   0  0  0  0  0  0  0  0  0  0  0  0
    2.9361   -3.0692    0.3608 C   0  0  0  0  0  0  0  0  0  0  0  0
    4.0368   -4.2774   -0.0292 S   0  0  0  0  0  0  0  0  0  0  0  0
    3.4593   -4.5696   -1.5724 C   0  0  0  0  0  0  0  0  0  0  0  0
    3.9020   -5.7227   -2.4178 C   0  0  0  0  0  0  0  0  0  0  0  0
    3.0845   -6.9710   -2.0790 C   0  0  0  0  0  0  0  0  0  0  0  0
    2.3572   -3.7435   -1.7956 C   0  0  0  0  0  0  0  0  0  0  0  0
    1.3422   -3.8836   -3.2259 Cl  0  0  0  0  0  0  0  0  0  0  0  0
    2.0753   -2.8848   -0.7163 C   0  0  0  0  0  0  0  0  0  0  0  0
    0.7053   -1.7807   -0.6659 Cl  0  0  0  0  0  0  0  0  0  0  0  0
    2.3706   -3.4931    2.7502 C   0  0  0  0  0  0  0  0  0  0  0  0
    2.4338   -3.1994    4.1092 C   0  0  0  0  0  0  0  0  0  0  0  0
    2.8505   -1.9111    4.5327 C   0  0  0  0  0  0  0  0  0  0  0  0
    3.0584   -1.5807    5.9528 C   0  0  0  0  0  0  0  0  0  0  0  0
    2.3393   -0.2866    6.7618 S   0  0  0  0  0  0  0  0  0  0  0  0
    3.1187   -0.5260    8.2314 C   0  0  0  0  0  0  0  0  0  0  0  0
    2.9278    0.3321    9.4486 C   0  0  0  0  0  0  0  0  0  0  0  0
    1.8013   -0.2162   10.3208 C   0  0  0  0  0  0  0  0  0  0  0  0
    3.9423   -1.6524    8.1215 C   0  0  0  0  0  0  0  0  0  0  0  0
    3.9209   -2.2318    6.8384 C   0  0  0  0  0  0  0  0  0  0  0  0
    4.9806   -3.5636    6.3847 Cl  0  0  0  0  0  0  0  0  0  0  0  0
    4.9464   -2.2591    9.4444 Cl  0  0  0  0  0  0  0  0  0  0  0  0
    3.1053   -0.9609    3.5120 C   0  0  0  0  0  0  0  0  0  0  0  0
    3.5636    0.6669    3.6421 S   0  0  0  0  0  0  0  0  0  0  0  0
    2.1359   -4.3302    4.9107 C   0  0  0  0  0  0  0  0  0  0  0  0
    1.8177   -5.4729    4.1619 C   0  0  0  0  0  0  0  0  0  0  0  0
    1.9457   -5.0852    2.5427 S   0  0  0  0  0  0  0  0  0  0  0  0
    1.9922   -6.8125    4.6107 N   0  0  0  0  0  0  0  0  0  0  0  0
    3.2609   -7.4912    4.4203 C   0  0  0  0  0  0  0  0  0  0  0  0
    3.0123   -8.9355    4.5077 N   0  0  0  0  0  0  0  0  0  0  0  0
    1.5700   -9.1238    4.7129 C   0  0  2  0  0  0  0  0  0  0  0  0
    0.9893   -9.9167    3.5186 C   0  0  0  0  0  0  0  0  0  0  0  0
    0.2725   -9.1015    2.4248 C   0  0  1  0  0  0  0  0  0  0  0  0
   -0.7253   -8.0707    2.9373 C   0  0  1  0  0  0  0  0  0  0  0  0
   -0.4547   -7.5165    4.3551 C   0  0  0  0  0  0  0  0  0  0  0  0
    0.9465   -7.7483    4.9815 C   0  0  2  0  0  0  0  0  0  0  0  0
   -0.7037   -6.9413    1.9760 N   0  0  0  0  0  0  0  0  0  0  0  0
    0.2294   -7.3880    0.9234 C   0  0  0  0  0  0  0  0  0  0  0  0
    1.1377   -8.3944    1.4918 N   0  0  0  0  0  0  0  0  0  0  0  0
   -1.9554   -6.6022    1.3591 N   0  0  0  0  0  0  0  0  0  0  0  0
   -3.1775   -6.9350    2.1253 C   0  0  0  0  0  0  0  0  0  0  0  0
   -4.1727   -5.9101    1.8555 N   0  0  0  0  0  0  0  0  0  0  0  0
   -3.3605   -4.7122    1.8158 C   0  0  2  0  0  0  0  0  0  0  0  0
   -4.1346   -3.5323    1.2285 C   0  0  0  0  0  0  0  0  0  0  0  0
   -4.0800   -3.4109   -0.2892 C   0  0  1  0  0  0  0  0  0  0  0  0
   -2.6945   -3.5430   -0.8674 C   0  0  1  0  0  0  0  0  0  0  0  0
   -1.9795   -4.8430   -0.3938 C   0  0  0  0  0  0  0  0  0  0  0  0
   -2.0436   -5.1361    1.1359 C   0  0  2  0  0  0  0  0  0  0  0  0
   -3.0238   -3.6364   -2.2849 N   0  0  0  0  0  0  0  0  0  0  0  0
   -4.2644   -4.4304   -2.3542 C   0  0  0  0  0  0  0  0  0  0  0  0
   -4.9128   -4.3595   -1.0357 N   0  0  0  0  0  0  0  0  0  0  0  0
   -2.9033   -2.4365   -3.0776 C   0  0  0  0  0  0  0  0  0  0  0  0
   -1.7142   -1.7529   -3.3271 C   0  0  0  0  0  0  0  0  0  0  0  0
   -1.9208   -0.4744   -3.8664 C   0  0  0  0  0  0  0  0  0  0  0  0
   -0.9227    0.4668   -4.1973 C   0  0  0  0  0  0  0  0  0  0  0  0
    0.5087    0.1286   -4.1536 C   0  0  0  0  0  0  0  0  0  0  0  0
    1.6610    0.8462   -3.1558 S   0  0  0  0  0  0  0  0  0  0  0  0
    2.9685   -0.0730   -3.7019 C   0  0  0  0  0  0  0  0  0  0  0  0
    4.3866    0.1005   -3.2626 C   0  0  0  0  0  0  0  0  0  0  0  0
    5.0849    1.1638   -4.1107 C   0  0  0  0  0  0  0  0  0  0  0  0
    2.5181   -0.9353   -4.6973 C   0  0  0  0  0  0  0  0  0  0  0  0
    3.5688   -2.0422   -5.5675 Cl  0  0  0  0  0  0  0  0  0  0  0  0
    1.1440   -0.8274   -4.9469 C   0  0  0  0  0  0  0  0  0  0  0  0
    0.3088   -1.7741   -6.1698 Cl  0  0  0  0  0  0  0  0  0  0  0  0
   -1.3554    1.7249   -4.6534 C   0  0  0  0  0  0  0  0  0  0  0  0
   -2.7111    2.0417   -4.7931 C   0  0  0  0  0  0  0  0  0  0  0  0
   -3.7070    1.0950   -4.4788 C   0  0  0  0  0  0  0  0  0  0  0  0
   -5.1448    1.4064   -4.5921 C   0  0  0  0  0  0  0  0  0  0  0  0
   -6.2283    1.4691   -3.3025 S   0  0  0  0  0  0  0  0  0  0  0  0
   -7.5615    1.9422   -4.2114 C   0  0  0  0  0  0  0  0  0  0  0  0
   -8.9423    2.1343   -3.6651 C   0  0  0  0  0  0  0  0  0  0  0  0
   -9.7439    0.8357   -3.7329 C   0  0  0  0  0  0  0  0  0  0  0  0
   -7.1735    2.0446   -5.5502 C   0  0  0  0  0  0  0  0  0  0  0  0
   -5.8203    1.7487   -5.7641 C   0  0  0  0  0  0  0  0  0  0  0  0
   -5.0733    1.7706   -7.3552 Cl  0  0  0  0  0  0  0  0  0  0  0  0
   -8.2801    2.4894   -6.8406 Cl  0  0  0  0  0  0  0  0  0  0  0  0
   -3.2732   -0.1549   -4.0147 C   0  0  0  0  0  0  0  0  0  0  0  0
   -4.2030   -1.4519   -3.5056 S   0  0  0  0  0  0  0  0  0  0  0  0
   -2.9295    3.3558   -5.2413 C   0  0  0  0  0  0  0  0  0  0  0  0
   -1.7481    4.0596   -5.4556 C   0  0  0  0  0  0  0  0  0  0  0  0
   -0.4336    3.0652   -5.0954 S   0  0  0  0  0  0  0  0  0  0  0  0
   -1.6530    5.4310   -5.8843 N   0  0  0  0  0  0  0  0  0  0  0  0
   -0.4568    5.9821   -6.4946 C   0  0  0  0  0  0  0  0  0  0  0  0
   -0.8099    7.2904   -7.0507 N   0  0  0  0  0  0  0  0  0  0  0  0
   -2.1275    7.6499   -6.5066 C   0  0  2  0  0  0  0  0  0  0  0  0
   -1.9517    8.7715   -5.4691 C   0  0  0  0  0  0  0  0  0  0  0  0
   -3.2861    9.1258   -4.7918 C   0  0  1  0  0  0  0  0  0  0  0  0
   -4.1257    7.9062   -4.4126 C   0  0  1  0  0  0  0  0  0  0  0  0
   -3.3347    6.5869   -4.4855 C   0  0  0  0  0  0  0  0  0  0  0  0
   -2.7503    6.3743   -5.9034 C   0  0  2  0  0  0  0  0  0  0  0  0
   -4.5940    8.1162   -3.0465 N   0  0  0  0  0  0  0  0  0  0  0  0
   -4.0580    9.4076   -2.6164 C   0  0  0  0  0  0  0  0  0  0  0  0
   -3.0321    9.8466   -3.5567 N   0  0  0  0  0  0  0  0  0  0  0  0
    1.7835    6.5954    4.3518 H   0  0  0  0  0  0  0  0  0  0  0  0
   -0.1628    4.9591    2.9363 H   0  0  0  0  0  0  0  0  0  0  0  0
   -0.2155    6.7102    3.3702 H   0  0  0  0  0  0  0  0  0  0  0  0
    0.7391    7.2351    1.4495 H   0  0  0  0  0  0  0  0  0  0  0  0
    2.8932    7.0013    1.5713 H   0  0  0  0  0  0  0  0  0  0  0  0
    2.8645    5.7896   -0.4660 H   0  0  0  0  0  0  0  0  0  0  0  0
    2.0244    4.3690    0.2454 H   0  0  0  0  0  0  0  0  0  0  0  0
    4.9070    5.2733    0.8897 H   0  0  0  0  0  0  0  0  0  0  0  0
    5.0524    3.5774    2.4900 H   0  0  0  0  0  0  0  0  0  0  0  0
    3.1600    3.4699    3.9100 H   0  0  0  0  0  0  0  0  0  0  0  0
    1.9762    3.3790    2.5560 H   0  0  0  0  0  0  0  0  0  0  0  0
    3.6419    5.8381    3.4041 H   0  0  0  0  0  0  0  0  0  0  0  0
    5.0635    1.6078   -0.3555 H   0  0  0  0  0  0  0  0  0  0  0  0
    3.3009    1.9617   -0.6614 H   0  0  0  0  0  0  0  0  0  0  0  0
    5.5702    3.7443   -0.5557 H   0  0  0  0  0  0  0  0  0  0  0  0
    3.3574   -0.3129    0.2207 H   0  0  0  0  0  0  0  0  0  0  0  0
    3.7840   -5.4789   -3.4962 H   0  0  0  0  0  0  0  0  0  0  0  0
    4.9736   -5.9343   -2.2215 H   0  0  0  0  0  0  0  0  0  0  0  0
    3.1874   -7.2184   -1.0038 H   0  0  0  0  0  0  0  0  0  0  0  0
    2.0052   -6.7993   -2.3103 H   0  0  0  0  0  0  0  0  0  0  0  0
    3.4520   -7.8306   -2.6763 H   0  0  0  0  0  0  0  0  0  0  0  0
    2.6729    1.3658    9.1233 H   0  0  0  0  0  0  0  0  0  0  0  0
    3.8705    0.3925   10.0327 H   0  0  0  0  0  0  0  0  0  0  0  0
    1.6759    0.4424   11.2080 H   0  0  0  0  0  0  0  0  0  0  0  0
    2.0415   -1.2446   10.6591 H   0  0  0  0  0  0  0  0  0  0  0  0
    0.8491   -0.2284    9.7512 H   0  0  0  0  0  0  0  0  0  0  0  0
    2.2127   -4.3428    5.9868 H   0  0  0  0  0  0  0  0  0  0  0  0
    3.9736   -7.1619    5.2193 H   0  0  0  0  0  0  0  0  0  0  0  0
    3.6985   -7.2539    3.4257 H   0  0  0  0  0  0  0  0  0  0  0  0
    3.5193   -9.3051    5.3496 H   0  0  0  0  0  0  0  0  0  0  0  0
    1.4064   -9.7630    5.6172 H   0  0  0  0  0  0  0  0  0  0  0  0
    1.7768  -10.5317    3.0310 H   0  0  0  0  0  0  0  0  0  0  0  0
    0.2586  -10.6443    3.9295 H   0  0  0  0  0  0  0  0  0  0  0  0
   -0.2900   -9.8555    1.8209 H   0  0  0  0  0  0  0  0  0  0  0  0
   -1.6849   -8.6299    2.9736 H   0  0  0  0  0  0  0  0  0  0  0  0
   -0.6943   -6.4303    4.3908 H   0  0  0  0  0  0  0  0  0  0  0  0
   -1.1943   -7.9855    5.0457 H   0  0  0  0  0  0  0  0  0  0  0  0
    0.8159   -7.6507    6.0855 H   0  0  0  0  0  0  0  0  0  0  0  0
    0.7965   -6.5236    0.5232 H   0  0  0  0  0  0  0  0  0  0  0  0
   -0.3187   -7.8613    0.0703 H   0  0  0  0  0  0  0  0  0  0  0  0
    1.8725   -7.8940    2.0314 H   0  0  0  0  0  0  0  0  0  0  0  0
   -2.9861   -6.9454    3.2153 H   0  0  0  0  0  0  0  0  0  0  0  0
   -3.5726   -7.9230    1.8009 H   0  0  0  0  0  0  0  0  0  0  0  0
   -4.8473   -5.8673    2.6609 H   0  0  0  0  0  0  0  0  0  0  0  0
   -3.1190   -4.4287    2.8732 H   0  0  0  0  0  0  0  0  0  0  0  0
   -3.7048   -2.6063    1.6602 H   0  0  0  0  0  0  0  0  0  0  0  0
   -5.1976   -3.5596    1.5593 H   0  0  0  0  0  0  0  0  0  0  0  0
   -4.4545   -2.3896   -0.5214 H   0  0  0  0  0  0  0  0  0  0  0  0
   -2.0841   -2.6349   -0.6202 H   0  0  0  0  0  0  0  0  0  0  0  0
   -0.9031   -4.7673   -0.6805 H   0  0  0  0  0  0  0  0  0  0  0  0
   -2.3889   -5.7226   -0.9440 H   0  0  0  0  0  0  0  0  0  0  0  0
   -1.2084   -4.5952    1.6433 H   0  0  0  0  0  0  0  0  0  0  0  0
   -4.0144   -5.4831   -2.6219 H   0  0  0  0  0  0  0  0  0  0  0  0
   -4.9628   -4.0485   -3.1252 H   0  0  0  0  0  0  0  0  0  0  0  0
   -4.8388   -5.3017   -0.5910 H   0  0  0  0  0  0  0  0  0  0  0  0
   -0.7474   -2.1487   -3.0774 H   0  0  0  0  0  0  0  0  0  0  0  0
    4.4058    0.4110   -2.1985 H   0  0  0  0  0  0  0  0  0  0  0  0
    4.9369   -0.8597   -3.3430 H   0  0  0  0  0  0  0  0  0  0  0  0
    5.1065    0.8527   -5.1787 H   0  0  0  0  0  0  0  0  0  0  0  0
    6.1339    1.2944   -3.7461 H   0  0  0  0  0  0  0  0  0  0  0  0
    4.5589    2.1391   -4.0132 H   0  0  0  0  0  0  0  0  0  0  0  0
   -9.4636    2.9281   -4.2417 H   0  0  0  0  0  0  0  0  0  0  0  0
   -8.8765    2.4731   -2.6079 H   0  0  0  0  0  0  0  0  0  0  0  0
   -9.7098    0.4079   -4.7545 H   0  0  0  0  0  0  0  0  0  0  0  0
  -10.7986    1.0426   -3.4451 H   0  0  0  0  0  0  0  0  0  0  0  0
   -9.3283    0.1048   -3.0103 H   0  0  0  0  0  0  0  0  0  0  0  0
   -3.9105    3.7722   -5.4228 H   0  0  0  0  0  0  0  0  0  0  0  0
   -0.0902    5.2965   -7.2945 H   0  0  0  0  0  0  0  0  0  0  0  0
    0.3374    6.1011   -5.7338 H   0  0  0  0  0  0  0  0  0  0  0  0
   -0.9194    7.1792   -8.0876 H   0  0  0  0  0  0  0  0  0  0  0  0
   -2.7905    8.0320   -7.3173 H   0  0  0  0  0  0  0  0  0  0  0  0
   -1.2150    8.4575   -4.7024 H   0  0  0  0  0  0  0  0  0  0  0  0
   -1.5456    9.6776   -5.9685 H   0  0  0  0  0  0  0  0  0  0  0  0
   -3.8872    9.7615   -5.4877 H   0  0  0  0  0  0  0  0  0  0  0  0
   -5.0018    7.8270   -5.1159 H   0  0  0  0  0  0  0  0  0  0  0  0
   -2.5222    6.5930   -3.7257 H   0  0  0  0  0  0  0  0  0  0  0  0
   -4.0244    5.7513   -4.2422 H   0  0  0  0  0  0  0  0  0  0  0  0
   -3.5414    5.9953   -6.5856 H   0  0  0  0  0  0  0  0  0  0  0  0
   -5.6414    8.1774   -3.0499 H   0  0  0  0  0  0  0  0  0  0  0  0
   -4.8695   10.1647   -2.5560 H   0  0  0  0  0  0  0  0  0  0  0  0
   -3.6015    9.2926   -1.6125 H   0  0  0  0  0  0  0  0  0  0  0  0
   -3.1242   10.8760   -3.7237 H   0  0  0  0  0  0  0  0  0  0  0  0
  1  2  1  0
  2  3  1  0
  3  4  1  0
  4  5  1  0
  5  6  1  0
  6  7  1  0
  7  8  1  0
  8  9  1  0
  7 10  1  0
 10 11  1  0
 11 12  1  0
 10 13  1  0
 13 14  2  0
 14 15  1  0
 15 16  2  0
 16 17  1  0
 17 18  1  0
 18 19  1  0
 19 20  1  0
 20 21  1  0
 19 22  2  0
 22 23  1  0
 22 24  1  0
 24 25  1  0
 16 26  1  0
 26 27  2  0
 27 28  1  0
 28 29  1  0
 29 30  1  0
 30 31  1  0
 31 32  1  0
 32 33  1  0
 31 34  2  0
 34 35  1  0
 35 36  1  0
 34 37  1  0
 28 38  2  0
 38 39  1  0
 27 40  1  0
 40 41  2  0
 41 42  1  0
 41 43  1  0
 43 44  1  0
 44 45  1  0
 45 46  1  0
 46 47  1  0
 47 48  1  0
 48 49  1  0
 49 50  1  0
 50 51  1  0
 49 52  1  0
 52 53  1  0
 53 54  1  0
 52 55  1  0
 55 56  1  0
 56 57  1  0
 57 58  1  0
 58 59  1  0
 59 60  1  0
 60 61  1  0
 61 62  1  0
 62 63  1  0
 61 64  1  0
 64 65  1  0
 65 66  1  0
 64 67  1  0
 67 68  2  0
 68 69  1  0
 69 70  2  0
 70 71  1  0
 71 72  1  0
 72 73  1  0
 73 74  1  0
 74 75  1  0
 73 76  2  0
 76 77  1  0
 76 78  1  0
 78 79  1  0
 70 80  1  0
 80 81  2  0
 81 82  1  0
 82 83  1  0
 83 84  1  0
 84 85  1  0
 85 86  1  0
 86 87  1  0
 85 88  2  0
 88 89  1  0
 89 90  1  0
 88 91  1  0
 82 92  2  0
 92 93  1  0
 81 94  1  0
 94 95  2  0
 95 96  1  0
 95 97  1  0
 97 98  1  0
 98 99  1  0
 99100  1  0
100101  1  0
101102  1  0
102103  1  0
103104  1  0
104105  1  0
103106  1  0
106107  1  0
107108  1  0
  9  1  1  0
 39 13  1  0
 51 43  1  0
 63 55  1  0
 93 67  1  0
105 97  1  0
  9  4  1  0
 38 15  1  0
 51 46  1  0
 63 58  1  0
 92 69  1  0
105100  1  0
 12  6  1  0
 24 17  2  0
 42 26  1  0
 54 48  1  0
 66 60  1  0
 78 71  2  0
 96 80  1  0
108102  1  0
 35 29  2  0
 89 83  2  0
  1109  1  0
  2110  1  0
  2111  1  0
  3112  1  0
  4113  1  6
  5114  1  0
  5115  1  0
  6116  1  1
  7117  1  1
  8118  1  0
  8119  1  0
  9120  1  1
 11121  1  0
 11122  1  0
 12123  1  0
 14124  1  0
 20125  1  0
 20126  1  0
 21127  1  0
 21128  1  0
 21129  1  0
 32130  1  0
 32131  1  0
 33132  1  0
 33133  1  0
 33134  1  0
 40135  1  0
 44136  1  0
 44137  1  0
 45138  1  0
 46139  1  1
 47140  1  0
 47141  1  0
 48142  1  6
 49143  1  1
 50144  1  0
 50145  1  0
 51146  1  1
 53147  1  0
 53148  1  0
 54149  1  0
 56150  1  0
 56151  1  0
 57152  1  0
 58153  1  1
 59154  1  0
 59155  1  0
 60156  1  1
 61157  1  6
 62158  1  0
 62159  1  0
 63160  1  1
 65161  1  0
 65162  1  0
 66163  1  0
 68164  1  0
 74165  1  0
 74166  1  0
 75167  1  0
 75168  1  0
 75169  1  0
 86170  1  0
 86171  1  0
 87172  1  0
 87173  1  0
 87174  1  0
 94175  1  0
 98176  1  0
 98177  1  0
 99178  1  0
100179  1  6
101180  1  0
101181  1  0
102182  1  6
103183  1  6
104184  1  0
104185  1  0
105186  1  6
106187  1  0
107188  1  0
107189  1  0
108190  1  0
M  END

