
     RDKit          3D

206229  0  0  0  0  0  0  0  0999 V2000
    8.0121   -3.6900   -8.6978 N   0  0  0  0  0  0  0  0  0  0  0  0
    9.1421   -2.8986   -9.1894 C   0  0  0  0  0  0  0  0  0  0  0  0
    9.1079   -1.5571   -8.6008 N   0  0  0  0  0  0  0  0  0  0  0  0
    8.1020   -1.5929   -7.5458 C   0  0  2  0  0  0  0  0  0  0  0  0
    8.7330   -1.7229   -6.1402 C   0  0  0  0  0  0  0  0  0  0  0  0
    7.6297   -1.7854   -5.0518 C   0  0  1  0  0  0  0  0  0  0  0  0
    6.3393   -2.4787   -5.5068 C   0  0  1  0  0  0  0  0  0  0  0  0
    6.6033   -3.4914   -6.6296 C   0  0  0  0  0  0  0  0  0  0  0  0
    7.2069   -2.7857   -7.8750 C   0  0  2  0  0  0  0  0  0  0  0  0
    5.8695   -3.1478   -4.3091 N   0  0  0  0  0  0  0  0  0  0  0  0
    6.8736   -3.0803   -3.2556 C   0  0  0  0  0  0  0  0  0  0  0  0
    8.0780   -2.4699   -3.8284 N   0  0  0  0  0  0  0  0  0  0  0  0
    4.4903   -3.4697   -4.0603 C   0  0  0  0  0  0  0  0  0  0  0  0
    3.4317   -3.1386   -4.9028 C   0  0  0  0  0  0  0  0  0  0  0  0
    2.1830   -3.3085   -4.2893 C   0  0  0  0  0  0  0  0  0  0  0  0
    0.9369   -2.9190   -4.8244 C   0  0  0  0  0  0  0  0  0  0  0  0
    0.8135   -2.2641   -6.1406 C   0  0  0  0  0  0  0  0  0  0  0  0
   -0.0699   -2.8804   -7.4337 S   0  0  0  0  0  0  0  0  0  0  0  0
    0.2307   -1.5966   -8.4782 C   0  0  0  0  0  0  0  0  0  0  0  0
   -0.2231   -1.5396   -9.9028 C   0  0  0  0  0  0  0  0  0  0  0  0
    0.7385   -2.3101  -10.8005 C   0  0  0  0  0  0  0  0  0  0  0  0
    1.0413   -0.6680   -7.8279 C   0  0  0  0  0  0  0  0  0  0  0  0
    1.6221    0.8139   -8.5770 Cl  0  0  0  0  0  0  0  0  0  0  0  0
    1.3507   -1.0307   -6.5083 C   0  0  0  0  0  0  0  0  0  0  0  0
    2.2790   -0.0074   -5.4174 Cl  0  0  0  0  0  0  0  0  0  0  0  0
   -0.1851   -3.0616   -3.9909 C   0  0  0  0  0  0  0  0  0  0  0  0
   -0.1027   -3.5853   -2.6966 C   0  0  0  0  0  0  0  0  0  0  0  0
    1.1352   -4.0040   -2.1733 C   0  0  0  0  0  0  0  0  0  0  0  0
    1.2417   -4.5670   -0.8182 C   0  0  0  0  0  0  0  0  0  0  0  0
    0.5659   -6.0362   -0.3579 S   0  0  0  0  0  0  0  0  0  0  0  0
    1.0180   -5.9405    1.2585 C   0  0  0  0  0  0  0  0  0  0  0  0
    0.6414   -6.9442    2.3056 C   0  0  0  0  0  0  0  0  0  0  0  0
   -0.6404   -6.5301    3.0163 C   0  0  0  0  0  0  0  0  0  0  0  0
    1.6873   -4.7345    1.4657 C   0  0  0  0  0  0  0  0  0  0  0  0
    1.8119   -3.9625    0.3016 C   0  0  0  0  0  0  0  0  0  0  0  0
    2.5583   -2.3682    0.2774 Cl  0  0  0  0  0  0  0  0  0  0  0  0
    2.2901   -4.2181    3.0321 Cl  0  0  0  0  0  0  0  0  0  0  0  0
    2.2678   -3.8258   -2.9901 C   0  0  0  0  0  0  0  0  0  0  0  0
    3.8888   -4.0385   -2.5892 S   0  0  0  0  0  0  0  0  0  0  0  0
   -1.2956   -3.4466   -1.9687 C   0  0  0  0  0  0  0  0  0  0  0  0
   -2.2935   -2.7772   -2.6783 C   0  0  0  0  0  0  0  0  0  0  0  0
   -1.7127   -2.3995   -4.2167 S   0  0  0  0  0  0  0  0  0  0  0  0
   -3.4221   -2.0861   -2.0420 C   0  0  0  0  0  0  0  0  0  0  0  0
   -3.8467   -0.8128   -2.4130 C   0  0  0  0  0  0  0  0  0  0  0  0
   -4.6193   -0.1832   -1.4287 C   0  0  0  0  0  0  0  0  0  0  0  0
   -5.0387    1.1577   -1.4489 C   0  0  0  0  0  0  0  0  0  0  0  0
   -4.8354    2.0157   -2.6267 C   0  0  0  0  0  0  0  0  0  0  0  0
   -5.6344    1.8157   -4.0892 S   0  0  0  0  0  0  0  0  0  0  0  0
   -4.9381    3.1426   -4.8545 C   0  0  0  0  0  0  0  0  0  0  0  0
   -5.3156    3.6214   -6.2241 C   0  0  0  0  0  0  0  0  0  0  0  0
   -6.5152    4.5605   -6.1524 C   0  0  0  0  0  0  0  0  0  0  0  0
   -4.0726    3.7709   -3.9601 C   0  0  0  0  0  0  0  0  0  0  0  0
   -3.1639    5.2266   -4.3451 Cl  0  0  0  0  0  0  0  0  0  0  0  0
   -4.0070    3.1338   -2.7102 C   0  0  0  0  0  0  0  0  0  0  0  0
   -2.9690    3.6799   -1.3978 Cl  0  0  0  0  0  0  0  0  0  0  0  0
   -5.6368    1.6535   -0.2796 C   0  0  0  0  0  0  0  0  0  0  0  0
   -5.8383    0.8654    0.8606 C   0  0  0  0  0  0  0  0  0  0  0  0
   -5.4904   -0.5016    0.8461 C   0  0  0  0  0  0  0  0  0  0  0  0
   -5.9044   -1.4313    1.9094 C   0  0  0  0  0  0  0  0  0  0  0  0
   -5.4103   -1.3881    3.5177 S   0  0  0  0  0  0  0  0  0  0  0  0
   -6.3779   -2.6677    4.0296 C   0  0  0  0  0  0  0  0  0  0  0  0
   -6.5277   -3.1059    5.4534 C   0  0  0  0  0  0  0  0  0  0  0  0
   -7.6319   -2.3119    6.1417 C   0  0  0  0  0  0  0  0  0  0  0  0
   -7.1242   -3.1278    2.9501 C   0  0  0  0  0  0  0  0  0  0  0  0
   -6.8537   -2.4396    1.7591 C   0  0  0  0  0  0  0  0  0  0  0  0
   -7.6811   -2.7751    0.2447 Cl  0  0  0  0  0  0  0  0  0  0  0  0
   -8.3042   -4.4297    3.0595 Cl  0  0  0  0  0  0  0  0  0  0  0  0
   -4.8422   -0.9797   -0.3034 C   0  0  0  0  0  0  0  0  0  0  0  0
   -4.0462   -2.4487   -0.5131 S   0  0  0  0  0  0  0  0  0  0  0  0
   -6.3655    1.5895    1.9444 C   0  0  0  0  0  0  0  0  0  0  0  0
   -6.5895    2.9246    1.6238 C   0  0  0  0  0  0  0  0  0  0  0  0
   -6.1486    3.2253    0.0260 S   0  0  0  0  0  0  0  0  0  0  0  0
   -6.8481    3.9607    2.5751 N   0  0  0  0  0  0  0  0  0  0  0  0
   -7.8627    4.9703    2.3587 C   0  0  0  0  0  0  0  0  0  0  0  0
   -7.7234    5.9583    3.4270 N   0  0  0  0  0  0  0  0  0  0  0  0
   -6.3565    5.8107    3.9488 C   0  0  2  0  0  0  0  0  0  0  0  0
   -5.4155    6.8732    3.3399 C   0  0  0  0  0  0  0  0  0  0  0  0
   -3.9786    6.7000    3.8551 C   0  0  1  0  0  0  0  0  0  0  0  0
   -3.5106    5.2328    3.9108 C   0  0  1  0  0  0  0  0  0  0  0  0
   -4.4314    4.2914    3.1150 C   0  0  0  0  0  0  0  0  0  0  0  0
   -5.9039    4.3763    3.6021 C   0  0  2  0  0  0  0  0  0  0  0  0
   -2.1875    5.2657    3.3143 N   0  0  0  0  0  0  0  0  0  0  0  0
   -1.8865    6.5715    2.7607 C   0  0  0  0  0  0  0  0  0  0  0  0
   -3.0536    7.4284    2.9760 N   0  0  0  0  0  0  0  0  0  0  0  0
   -1.1826    4.2411    3.4449 C   0  0  0  0  0  0  0  0  0  0  0  0
   -1.2071    3.1833    4.3536 C   0  0  0  0  0  0  0  0  0  0  0  0
   -0.0065    2.4502    4.3597 C   0  0  0  0  0  0  0  0  0  0  0  0
    0.3167    1.3927    5.2283 C   0  0  0  0  0  0  0  0  0  0  0  0
   -0.6445    0.8798    6.2101 C   0  0  0  0  0  0  0  0  0  0  0  0
   -1.9751   -0.0736    5.8353 S   0  0  0  0  0  0  0  0  0  0  0  0
   -2.5349   -0.2079    7.4209 C   0  0  0  0  0  0  0  0  0  0  0  0
   -3.8146   -0.8836    7.8085 C   0  0  0  0  0  0  0  0  0  0  0  0
   -5.0088   -0.0218    7.4185 C   0  0  0  0  0  0  0  0  0  0  0  0
   -1.6935    0.5192    8.2572 C   0  0  0  0  0  0  0  0  0  0  0  0
   -1.9388    0.6744    9.9922 Cl  0  0  0  0  0  0  0  0  0  0  0  0
   -0.6248    1.1206    7.5804 C   0  0  0  0  0  0  0  0  0  0  0  0
    0.5973    2.1052    8.3708 Cl  0  0  0  0  0  0  0  0  0  0  0  0
    1.6096    0.8506    5.1336 C   0  0  0  0  0  0  0  0  0  0  0  0
    2.5547    1.3119    4.2085 C   0  0  0  0  0  0  0  0  0  0  0  0
    2.2339    2.3718    3.3356 C   0  0  0  0  0  0  0  0  0  0  0  0
    3.2004    2.8918    2.3555 C   0  0  0  0  0  0  0  0  0  0  0  0
    4.6083    3.7295    2.7363 S   0  0  0  0  0  0  0  0  0  0  0  0
    5.1305    3.9287    1.1486 C   0  0  0  0  0  0  0  0  0  0  0  0
    6.4181    4.5914    0.7542 C   0  0  0  0  0  0  0  0  0  0  0  0
    7.5826    3.6093    0.8222 C   0  0  0  0  0  0  0  0  0  0  0  0
    4.2147    3.3081    0.2975 C   0  0  0  0  0  0  0  0  0  0  0  0
    3.1290    2.7353    0.9754 C   0  0  0  0  0  0  0  0  0  0  0  0
    1.8332    1.8637    0.1679 Cl  0  0  0  0  0  0  0  0  0  0  0  0
    4.4035    3.2395   -1.4531 Cl  0  0  0  0  0  0  0  0  0  0  0  0
    0.9417    2.9229    3.4449 C   0  0  0  0  0  0  0  0  0  0  0  0
    0.3063    4.2596    2.6406 S   0  0  0  0  0  0  0  0  0  0  0  0
    3.7767    0.6177    4.2711 C   0  0  0  0  0  0  0  0  0  0  0  0
    3.7726   -0.3645    5.2565 C   0  0  0  0  0  0  0  0  0  0  0  0
    2.2816   -0.3962    6.0454 S   0  0  0  0  0  0  0  0  0  0  0  0
    4.8793   -1.2113    5.5779 N   0  0  0  0  0  0  0  0  0  0  0  0
    5.4096   -1.3066    6.9245 C   0  0  0  0  0  0  0  0  0  0  0  0
    6.3207   -2.4509    6.9614 N   0  0  0  0  0  0  0  0  0  0  0  0
    6.0447   -3.2558    5.7653 C   0  0  2  0  0  0  0  0  0  0  0  0
    7.3713   -3.7453    5.1608 C   0  0  0  0  0  0  0  0  0  0  0  0
    7.1615   -4.2883    3.7393 C   0  0  1  0  0  0  0  0  0  0  0  0
    6.4598   -3.2893    2.8015 C   0  0  1  0  0  0  0  0  0  0  0  0
    5.9642   -2.0157    3.5136 C   0  0  0  0  0  0  0  0  0  0  0  0
    5.2100   -2.3875    4.8020 C   0  0  2  0  0  0  0  0  0  0  0  0
    7.4326   -2.9368    1.7748 N   0  0  0  0  0  0  0  0  0  0  0  0
    8.4185   -4.0133    1.7959 C   0  0  0  0  0  0  0  0  0  0  0  0
    8.4601   -4.5817    3.1419 N   0  0  0  0  0  0  0  0  0  0  0  0
    8.4077   -4.4640   -8.1108 H   0  0  0  0  0  0  0  0  0  0  0  0
    9.0647   -2.8096  -10.2923 H   0  0  0  0  0  0  0  0  0  0  0  0
   10.1081   -3.4042   -8.9529 H   0  0  0  0  0  0  0  0  0  0  0  0
   10.0532   -1.3153   -8.2203 H   0  0  0  0  0  0  0  0  0  0  0  0
    7.5076   -0.6507   -7.5875 H   0  0  0  0  0  0  0  0  0  0  0  0
    9.3794   -0.8376   -5.9396 H   0  0  0  0  0  0  0  0  0  0  0  0
    9.3794   -2.6301   -6.1159 H   0  0  0  0  0  0  0  0  0  0  0  0
    7.3676   -0.7369   -4.7757 H   0  0  0  0  0  0  0  0  0  0  0  0
    5.6111   -1.7097   -5.8446 H   0  0  0  0  0  0  0  0  0  0  0  0
    7.2924   -4.2704   -6.2369 H   0  0  0  0  0  0  0  0  0  0  0  0
    5.6529   -3.9958   -6.9116 H   0  0  0  0  0  0  0  0  0  0  0  0
    6.3616   -2.4158   -8.5018 H   0  0  0  0  0  0  0  0  0  0  0  0
    6.5047   -2.4405   -2.4262 H   0  0  0  0  0  0  0  0  0  0  0  0
    7.0893   -4.0999   -2.8666 H   0  0  0  0  0  0  0  0  0  0  0  0
    8.7282   -3.2522   -4.0812 H   0  0  0  0  0  0  0  0  0  0  0  0
    3.5568   -2.7298   -5.8955 H   0  0  0  0  0  0  0  0  0  0  0  0
   -1.2382   -1.9802   -9.9863 H   0  0  0  0  0  0  0  0  0  0  0  0
   -0.2899   -0.4852  -10.2476 H   0  0  0  0  0  0  0  0  0  0  0  0
    1.7774   -1.9361  -10.6748 H   0  0  0  0  0  0  0  0  0  0  0  0
    0.4391   -2.1826  -11.8624 H   0  0  0  0  0  0  0  0  0  0  0  0
    0.7079   -3.3908  -10.5496 H   0  0  0  0  0  0  0  0  0  0  0  0
    0.4903   -7.9369    1.8256 H   0  0  0  0  0  0  0  0  0  0  0  0
    1.4654   -7.0597    3.0428 H   0  0  0  0  0  0  0  0  0  0  0  0
   -0.9183   -7.3032    3.7633 H   0  0  0  0  0  0  0  0  0  0  0  0
   -0.4979   -5.5619    3.5409 H   0  0  0  0  0  0  0  0  0  0  0  0
   -1.4710   -6.4277    2.2851 H   0  0  0  0  0  0  0  0  0  0  0  0
   -1.3812   -3.6922   -0.9190 H   0  0  0  0  0  0  0  0  0  0  0  0
   -3.5036   -0.3128   -3.3054 H   0  0  0  0  0  0  0  0  0  0  0  0
   -5.5698    2.7476   -6.8623 H   0  0  0  0  0  0  0  0  0  0  0  0
   -4.4555    4.1487   -6.6930 H   0  0  0  0  0  0  0  0  0  0  0  0
   -6.7752    4.9134   -7.1693 H   0  0  0  0  0  0  0  0  0  0  0  0
   -7.3907    4.0265   -5.7252 H   0  0  0  0  0  0  0  0  0  0  0  0
   -6.2765    5.4426   -5.5204 H   0  0  0  0  0  0  0  0  0  0  0  0
   -5.5693   -2.9626    5.9884 H   0  0  0  0  0  0  0  0  0  0  0  0
   -6.7718   -4.1873    5.4973 H   0  0  0  0  0  0  0  0  0  0  0  0
   -7.4535   -1.2203    6.0358 H   0  0  0  0  0  0  0  0  0  0  0  0
   -7.6607   -2.5694    7.2250 H   0  0  0  0  0  0  0  0  0  0  0  0
   -8.6173   -2.5583    5.6903 H   0  0  0  0  0  0  0  0  0  0  0  0
   -6.5360    1.1823    2.9319 H   0  0  0  0  0  0  0  0  0  0  0  0
   -7.7163    5.4496    1.3622 H   0  0  0  0  0  0  0  0  0  0  0  0
   -8.8722    4.5125    2.4091 H   0  0  0  0  0  0  0  0  0  0  0  0
   -7.8975    6.9166    3.0440 H   0  0  0  0  0  0  0  0  0  0  0  0
   -6.3768    5.9413    5.0543 H   0  0  0  0  0  0  0  0  0  0  0  0
   -5.4311    6.7875    2.2307 H   0  0  0  0  0  0  0  0  0  0  0  0
   -5.7741    7.8907    3.6007 H   0  0  0  0  0  0  0  0  0  0  0  0
   -3.9230    7.1189    4.8876 H   0  0  0  0  0  0  0  0  0  0  0  0
   -3.4520    4.8997    4.9692 H   0  0  0  0  0  0  0  0  0  0  0  0
   -4.3709    4.5604    2.0388 H   0  0  0  0  0  0  0  0  0  0  0  0
   -4.0723    3.2442    3.2165 H   0  0  0  0  0  0  0  0  0  0  0  0
   -6.0300    3.7244    4.4937 H   0  0  0  0  0  0  0  0  0  0  0  0
   -0.9881    6.9965    3.2655 H   0  0  0  0  0  0  0  0  0  0  0  0
   -1.6956    6.4787    1.6726 H   0  0  0  0  0  0  0  0  0  0  0  0
   -2.7510    8.3087    3.4548 H   0  0  0  0  0  0  0  0  0  0  0  0
   -2.0322    2.9859    5.0237 H   0  0  0  0  0  0  0  0  0  0  0  0
   -3.8367   -1.0717    8.9021 H   0  0  0  0  0  0  0  0  0  0  0  0
   -3.8765   -1.8693    7.3026 H   0  0  0  0  0  0  0  0  0  0  0  0
   -5.0947    0.0351    6.3115 H   0  0  0  0  0  0  0  0  0  0  0  0
   -4.8993    1.0049    7.8281 H   0  0  0  0  0  0  0  0  0  0  0  0
   -5.9395   -0.4719    7.8253 H   0  0  0  0  0  0  0  0  0  0  0  0
    6.3367    5.0027   -0.2749 H   0  0  0  0  0  0  0  0  0  0  0  0
    6.6164    5.4432    1.4390 H   0  0  0  0  0  0  0  0  0  0  0  0
    7.7127    3.2382    1.8608 H   0  0  0  0  0  0  0  0  0  0  0  0
    7.4026    2.7474    0.1456 H   0  0  0  0  0  0  0  0  0  0  0  0
    8.5167    4.1200    0.5109 H   0  0  0  0  0  0  0  0  0  0  0  0
    4.6317    0.8287    3.6416 H   0  0  0  0  0  0  0  0  0  0  0  0
    4.5799   -1.4462    7.6545 H   0  0  0  0  0  0  0  0  0  0  0  0
    5.9689   -0.3806    7.1687 H   0  0  0  0  0  0  0  0  0  0  0  0
    6.1299   -3.0214    7.8188 H   0  0  0  0  0  0  0  0  0  0  0  0
    5.4402   -4.1493    6.0508 H   0  0  0  0  0  0  0  0  0  0  0  0
    7.7982   -4.5449    5.8047 H   0  0  0  0  0  0  0  0  0  0  0  0
    8.1045   -2.9087    5.1350 H   0  0  0  0  0  0  0  0  0  0  0  0
    6.5479   -5.2196    3.8031 H   0  0  0  0  0  0  0  0  0  0  0  0
    5.5813   -3.7979    2.3314 H   0  0  0  0  0  0  0  0  0  0  0  0
    6.8225   -1.3518    3.7571 H   0  0  0  0  0  0  0  0  0  0  0  0
    5.2855   -1.4625    2.8295 H   0  0  0  0  0  0  0  0  0  0  0  0
    4.2773   -2.9305    4.5357 H   0  0  0  0  0  0  0  0  0  0  0  0
    6.9604   -2.9229    0.8402 H   0  0  0  0  0  0  0  0  0  0  0  0
    9.4159   -3.6012    1.5404 H   0  0  0  0  0  0  0  0  0  0  0  0
    8.1510   -4.8001    1.0500 H   0  0  0  0  0  0  0  0  0  0  0  0
    8.5872   -5.6186    3.0714 H   0  0  0  0  0  0  0  0  0  0  0  0
  1  2  1  0
  2  3  1  0
  3  4  1  0
  4  5  1  0
  5  6  1  0
  6  7  1  0
  7  8  1  0
  8  9  1  0
  7 10  1  0
 10 11  1  0
 11 12  1  0
 10 13  1  0
 13 14  2  0
 14 15  1  0
 15 16  2  0
 16 17  1  0
 17 18  1  0
 18 19  1  0
 19 20  1  0
 20 21  1  0
 19 22  2  0
 22 23  1  0
 22 24  1  0
 24 25  1  0
 16 26  1  0
 26 27  2  0
 27 28  1  0
 28 29  1  0
 29 30  1  0
 30 31  1  0
 31 32  1  0
 32 33  1  0
 31 34  2  0
 34 35  1  0
 35 36  1  0
 34 37  1  0
 28 38  2  0
 38 39  1  0
 27 40  1  0
 40 41  2  0
 41 42  1  0
 41 43  1  0
 43 44  2  0
 44 45  1  0
 45 46  2  0
 46 47  1  0
 47 48  1  0
 48 49  1  0
 49 50  1  0
 50 51  1  0
 49 52  2  0
 52 53  1  0
 52 54  1  0
 54 55  1  0
 46 56  1  0
 56 57  2  0
 57 58  1  0
 58 59  1  0
 59 60  1  0
 60 61  1  0
 61 62  1  0
 62 63  1  0
 61 64  2  0
 64 65  1  0
 65 66  1  0
 64 67  1  0
 58 68  2  0
 68 69  1  0
 57 70  1  0
 70 71  2  0
 71 72  1  0
 71 73  1  0
 73 74  1  0
 74 75  1  0
 75 76  1  0
 76 77  1  0
 77 78  1  0
 78 79  1  0
 79 80  1  0
 80 81  1  0
 79 82  1  0
 82 83  1  0
 83 84  1  0
 82 85  1  0
 85 86  2  0
 86 87  1  0
 87 88  2  0
 88 89  1  0
 89 90  1  0
 90 91  1  0
 91 92  1  0
 92 93  1  0
 91 94  2  0
 94 95  1  0
 94 96  1  0
 96 97  1  0
 88 98  1  0
 98 99  2  0
 99100  1  0
100101  1  0
101102  1  0
102103  1  0
103104  1  0
104105  1  0
103106  2  0
106107  1  0
107108  1  0
106109  1  0
100110  2  0
110111  1  0
 99112  1  0
112113  2  0
113114  1  0
113115  1  0
115116  1  0
116117  1  0
117118  1  0
118119  1  0
119120  1  0
120121  1  0
121122  1  0
122123  1  0
121124  1  0
124125  1  0
125126  1  0
  9  1  1  0
 39 13  1  0
 69 43  1  0
 81 73  1  0
111 85  1  0
123115  1  0
  9  4  1  0
 38 15  1  0
 68 45  1  0
 81 76  1  0
110 87  1  0
123118  1  0
 12  6  1  0
 24 17  2  0
 42 26  1  0
 54 47  2  0
 72 56  1  0
 84 78  1  0
 96 89  2  0
114 98  1  0
126120  1  0
 35 29  2  0
 65 59  2  0
107101  2  0
  1127  1  0
  2128  1  0
  2129  1  0
  3130  1  0
  4131  1  1
  5132  1  0
  5133  1  0
  6134  1  1
  7135  1  6
  8136  1  0
  8137  1  0
  9138  1  6
 11139  1  0
 11140  1  0
 12141  1  0
 14142  1  0
 20143  1  0
 20144  1  0
 21145  1  0
 21146  1  0
 21147  1  0
 32148  1  0
 32149  1  0
 33150  1  0
 33151  1  0
 33152  1  0
 40153  1  0
 44154  1  0
 50155  1  0
 50156  1  0
 51157  1  0
 51158  1  0
 51159  1  0
 62160  1  0
 62161  1  0
 63162  1  0
 63163  1  0
 63164  1  0
 70165  1  0
 74166  1  0
 74167  1  0
 75168  1  0
 76169  1  1
 77170  1  0
 77171  1  0
 78172  1  1
 79173  1  1
 80174  1  0
 80175  1  0
 81176  1  1
 83177  1  0
 83178  1  0
 84179  1  0
 86180  1  0
 92181  1  0
 92182  1  0
 93183  1  0
 93184  1  0
 93185  1  0
104186  1  0
104187  1  0
105188  1  0
105189  1  0
105190  1  0
112191  1  0
116192  1  0
116193  1  0
117194  1  0
118195  1  1
119196  1  0
119197  1  0
120198  1  1
121199  1  6
122200  1  0
122201  1  0
123202  1  6
124203  1  0
125204  1  0
125205  1  0
126206  1  0
M  END

