
     RDKit          3D

218239  0  0  0  0  0  0  0  0999 V2000
    7.3009   -8.8557    3.3001 C   0  0  0  0  0  0  0  0  0  0  0  0
    7.1956   -7.7214    4.1008 C   0  0  0  0  0  0  0  0  0  0  0  0
    6.0347   -6.9707    3.8485 C   0  0  0  0  0  0  0  0  0  0  0  0
    5.6558   -5.7739    4.4869 C   0  0  0  0  0  0  0  0  0  0  0  0
    6.4659   -5.1704    5.5572 C   0  0  0  0  0  0  0  0  0  0  0  0
    8.0176   -4.5463    5.3564 S   0  0  0  0  0  0  0  0  0  0  0  0
    8.2315   -4.0999    6.9658 C   0  0  0  0  0  0  0  0  0  0  0  0
    9.4728   -3.4575    7.5156 C   0  0  0  0  0  0  0  0  0  0  0  0
    9.3139   -1.9435    7.5873 C   0  0  0  0  0  0  0  0  0  0  0  0
    7.0757   -4.4119    7.6783 C   0  0  0  0  0  0  0  0  0  0  0  0
    6.8814   -4.0909    9.3960 Cl  0  0  0  0  0  0  0  0  0  0  0  0
    6.0917   -5.0223    6.8895 C   0  0  0  0  0  0  0  0  0  0  0  0
    4.5581   -5.5881    7.5365 Cl  0  0  0  0  0  0  0  0  0  0  0  0
    4.4547   -5.1833    4.0601 C   0  0  0  0  0  0  0  0  0  0  0  0
    3.6415   -5.7393    3.0705 C   0  0  0  0  0  0  0  0  0  0  0  0
    4.0031   -6.9570    2.4575 C   0  0  0  0  0  0  0  0  0  0  0  0
    3.1805   -7.5911    1.4126 C   0  0  0  0  0  0  0  0  0  0  0  0
    3.1078   -7.0547   -0.1783 S   0  0  0  0  0  0  0  0  0  0  0  0
    2.3386   -8.4225   -0.7881 C   0  0  0  0  0  0  0  0  0  0  0  0
    2.0503   -8.6568   -2.2397 C   0  0  0  0  0  0  0  0  0  0  0  0
    0.5552   -8.6026   -2.5306 C   0  0  0  0  0  0  0  0  0  0  0  0
    2.1327   -9.3249    0.2564 C   0  0  0  0  0  0  0  0  0  0  0  0
    2.6021   -8.8563    1.4895 C   0  0  0  0  0  0  0  0  0  0  0  0
    2.5087   -9.7903    2.9779 Cl  0  0  0  0  0  0  0  0  0  0  0  0
    1.4335  -10.9230    0.0368 Cl  0  0  0  0  0  0  0  0  0  0  0  0
    5.2226   -7.5353    2.8584 C   0  0  0  0  0  0  0  0  0  0  0  0
    5.9593   -8.9379    2.2861 S   0  0  0  0  0  0  0  0  0  0  0  0
    2.4833   -4.9816    2.8107 C   0  0  0  0  0  0  0  0  0  0  0  0
    2.4033   -3.8306    3.6094 C   0  0  0  0  0  0  0  0  0  0  0  0
    3.7596   -3.7604    4.6103 S   0  0  0  0  0  0  0  0  0  0  0  0
    1.3186   -2.8893    3.7107 N   0  0  0  0  0  0  0  0  0  0  0  0
    1.3392   -1.9366    4.7422 N   0  0  0  0  0  0  0  0  0  0  0  0
    0.2588   -1.0023    4.4126 C   0  0  1  0  0  0  0  0  0  0  0  0
    0.8561    0.3882    4.1171 C   0  0  1  0  0  0  0  0  0  0  0  0
    2.0500    0.3705    3.1340 C   0  0  0  0  0  0  0  0  0  0  0  0
   -0.2806    1.3541    3.7278 C   0  0  2  0  0  0  0  0  0  0  0  0
   -1.2925    0.7987    2.6857 C   0  0  1  0  0  0  0  0  0  0  0  0
   -1.3910    1.7744    1.5983 N   0  0  0  0  0  0  0  0  0  0  0  0
   -1.0294    3.3473    2.3032 S   0  0  0  0  0  0  0  0  0  0  0  0
    0.2514    2.6311    3.2665 N   0  0  0  0  0  0  0  0  0  0  0  0
   -0.9727   -0.6211    2.1212 C   0  0  2  0  0  0  0  0  0  0  0  0
   -2.2063   -1.1374    1.3445 C   0  0  0  0  0  0  0  0  0  0  0  0
   -0.5677   -1.6214    3.2548 C   0  0  1  0  0  0  0  0  0  0  0  0
    0.2637   -2.7315    2.7973 N   0  0  0  0  0  0  0  0  0  0  0  0
   -0.3432   -3.8704    2.1818 C   0  0  0  0  0  0  0  0  0  0  0  0
   -0.3769   -4.0086    0.8497 C   0  0  0  0  0  0  0  0  0  0  0  0
   -1.1319   -5.0595    0.2210 N   0  0  0  0  0  0  0  0  0  0  0  0
   -1.7878   -6.0615    0.9650 N   0  0  0  0  0  0  0  0  0  0  0  0
   -2.5612   -6.7735   -0.0661 C   0  0  1  0  0  0  0  0  0  0  0  0
   -3.8187   -7.5267    0.4302 C   0  0  1  0  0  0  0  0  0  0  0  0
   -3.5073   -8.4260    1.6379 C   0  0  0  0  0  0  0  0  0  0  0  0
   -5.0600   -6.6367    0.6645 C   0  0  2  0  0  0  0  0  0  0  0  0
   -5.3188   -5.6703   -0.4808 C   0  0  1  0  0  0  0  0  0  0  0  0
   -6.3749   -4.7705   -0.0212 N   0  0  0  0  0  0  0  0  0  0  0  0
   -6.1878   -4.5606    1.7330 S   0  0  0  0  0  0  0  0  0  0  0  0
   -4.9755   -5.8448    1.8830 N   0  0  0  0  0  0  0  0  0  0  0  0
   -4.0595   -4.8467   -0.8521 C   0  0  2  0  0  0  0  0  0  0  0  0
   -4.3626   -3.8940   -2.0197 C   0  0  0  0  0  0  0  0  0  0  0  0
   -2.8329   -5.7466   -1.1747 C   0  0  1  0  0  0  0  0  0  0  0  0
   -1.6274   -4.9387   -1.0873 N   0  0  0  0  0  0  0  0  0  0  0  0
   -0.8381   -4.4564   -2.1963 C   0  0  0  0  0  0  0  0  0  0  0  0
   -1.2680   -4.5315   -3.4641 C   0  0  0  0  0  0  0  0  0  0  0  0
   -0.4519   -4.1535   -4.5808 N   0  0  0  0  0  0  0  0  0  0  0  0
   -0.4551   -4.9069   -5.7607 N   0  0  0  0  0  0  0  0  0  0  0  0
    0.3499   -4.0999   -6.6972 C   0  0  1  0  0  0  0  0  0  0  0  0
   -0.5255   -3.3250   -7.7180 C   0  0  1  0  0  0  0  0  0  0  0  0
   -1.6257   -2.4326   -7.0868 C   0  0  0  0  0  0  0  0  0  0  0  0
    0.3992   -2.5604   -8.6968 C   0  0  2  0  0  0  0  0  0  0  0  0
    1.6161   -1.8499   -8.0394 C   0  0  1  0  0  0  0  0  0  0  0  0
    1.7381   -0.5305   -8.6637 N   0  0  0  0  0  0  0  0  0  0  0  0
    0.1032    0.0158   -9.0174 S   0  0  0  0  0  0  0  0  0  0  0  0
   -0.3683   -1.6117   -9.5078 N   0  0  0  0  0  0  0  0  0  0  0  0
    1.5768   -1.7817   -6.4738 C   0  0  2  0  0  0  0  0  0  0  0  0
    2.9405   -1.2994   -5.9244 C   0  0  0  0  0  0  0  0  0  0  0  0
    1.2324   -3.1686   -5.8281 C   0  0  1  0  0  0  0  0  0  0  0  0
    0.4742   -3.1031   -4.5834 N   0  0  0  0  0  0  0  0  0  0  0  0
    0.3557   -1.9363   -3.7536 C   0  0  0  0  0  0  0  0  0  0  0  0
   -0.8273   -1.3472   -3.5694 C   0  0  0  0  0  0  0  0  0  0  0  0
   -0.9584   -0.0379   -2.9149 C   0  0  0  0  0  0  0  0  0  0  0  0
   -2.1194    0.7274   -2.9171 C   0  0  0  0  0  0  0  0  0  0  0  0
   -1.9437    1.9827   -2.3138 C   0  0  0  0  0  0  0  0  0  0  0  0
   -2.9191    2.9879   -2.1890 C   0  0  0  0  0  0  0  0  0  0  0  0
   -4.2481    2.8671   -2.8060 C   0  0  0  0  0  0  0  0  0  0  0  0
   -4.5256    2.9785   -4.4588 S   0  0  0  0  0  0  0  0  0  0  0  0
   -6.2037    2.9570   -4.3564 C   0  0  0  0  0  0  0  0  0  0  0  0
   -7.1205    3.1440   -5.5269 C   0  0  0  0  0  0  0  0  0  0  0  0
   -7.3287    4.6272   -5.8149 C   0  0  0  0  0  0  0  0  0  0  0  0
   -6.5694    2.8823   -3.0125 C   0  0  0  0  0  0  0  0  0  0  0  0
   -8.2389    2.9073   -2.4575 Cl  0  0  0  0  0  0  0  0  0  0  0  0
   -5.4701    2.8274   -2.1422 C   0  0  0  0  0  0  0  0  0  0  0  0
   -5.6220    2.7302   -0.3921 Cl  0  0  0  0  0  0  0  0  0  0  0  0
   -2.5327    4.1668   -1.5286 C   0  0  0  0  0  0  0  0  0  0  0  0
   -1.2349    4.3693   -1.0523 C   0  0  0  0  0  0  0  0  0  0  0  0
   -0.2440    3.3788   -1.2217 C   0  0  0  0  0  0  0  0  0  0  0  0
    1.1494    3.5856   -0.7782 C   0  0  0  0  0  0  0  0  0  0  0  0
    1.9723    2.5870    0.2942 S   0  0  0  0  0  0  0  0  0  0  0  0
    3.3971    3.4741    0.3042 C   0  0  0  0  0  0  0  0  0  0  0  0
    4.6510    3.0551    1.0139 C   0  0  0  0  0  0  0  0  0  0  0  0
    5.4968    2.1482    0.1240 C   0  0  0  0  0  0  0  0  0  0  0  0
    3.2637    4.5515   -0.5667 C   0  0  0  0  0  0  0  0  0  0  0  0
    2.0017    4.6151   -1.1741 C   0  0  0  0  0  0  0  0  0  0  0  0
    1.5808    5.8190   -2.3849 Cl  0  0  0  0  0  0  0  0  0  0  0  0
    4.5540    5.6947   -0.8964 Cl  0  0  0  0  0  0  0  0  0  0  0  0
   -0.6469    2.1816   -1.8305 C   0  0  0  0  0  0  0  0  0  0  0  0
    0.2840    0.8264   -2.1670 S   0  0  0  0  0  0  0  0  0  0  0  0
   -1.0800    5.5864   -0.3763 C   0  0  0  0  0  0  0  0  0  0  0  0
   -2.2457    6.3421   -0.3564 C   0  0  0  0  0  0  0  0  0  0  0  0
   -3.4838    5.5041   -1.1396 S   0  0  0  0  0  0  0  0  0  0  0  0
   -2.4125    7.5147    0.4523 N   0  0  0  0  0  0  0  0  0  0  0  0
   -1.7368    7.6439    1.6722 N   0  0  0  0  0  0  0  0  0  0  0  0
   -2.5353    8.6482    2.3941 C   0  0  1  0  0  0  0  0  0  0  0  0
   -1.7107    9.4455    3.4172 C   0  0  1  0  0  0  0  0  0  0  0  0
   -0.8535    8.5278    4.3037 C   0  0  0  0  0  0  0  0  0  0  0  0
   -0.8735   10.5729    2.7916 C   0  0  2  0  0  0  0  0  0  0  0  0
   -1.6905   11.5100    1.9240 C   0  0  1  0  0  0  0  0  0  0  0  0
   -0.7039   12.4150    1.3267 N   0  0  0  0  0  0  0  0  0  0  0  0
    0.8096   11.5180    1.0789 S   0  0  0  0  0  0  0  0  0  0  0  0
    0.2697   10.1128    2.0120 N   0  0  0  0  0  0  0  0  0  0  0  0
   -2.5422   10.7784    0.8362 C   0  0  2  0  0  0  0  0  0  0  0  0
   -3.5848   11.7577    0.2500 C   0  0  0  0  0  0  0  0  0  0  0  0
   -3.2802    9.4816    1.3261 C   0  0  1  0  0  0  0  0  0  0  0  0
   -3.3501    8.5294    0.2310 N   0  0  0  0  0  0  0  0  0  0  0  0
   -4.1463    8.7008   -0.9488 C   0  0  0  0  0  0  0  0  0  0  0  0
   -3.6085    8.6303   -2.1662 C   0  0  0  0  0  0  0  0  0  0  0  0
    8.1157   -9.5674    3.3262 H   0  0  0  0  0  0  0  0  0  0  0  0
    7.9433   -7.4583    4.8345 H   0  0  0  0  0  0  0  0  0  0  0  0
   10.3408   -3.7090    6.8679 H   0  0  0  0  0  0  0  0  0  0  0  0
    9.6878   -3.8591    8.5275 H   0  0  0  0  0  0  0  0  0  0  0  0
    8.4709   -1.6769    8.2614 H   0  0  0  0  0  0  0  0  0  0  0  0
   10.2454   -1.4883    7.9878 H   0  0  0  0  0  0  0  0  0  0  0  0
    9.1133   -1.5269    6.5766 H   0  0  0  0  0  0  0  0  0  0  0  0
    2.5600   -7.8765   -2.8498 H   0  0  0  0  0  0  0  0  0  0  0  0
    2.4563   -9.6458   -2.5445 H   0  0  0  0  0  0  0  0  0  0  0  0
    0.1181   -7.6471   -2.1685 H   0  0  0  0  0  0  0  0  0  0  0  0
    0.0340   -9.4592   -2.0485 H   0  0  0  0  0  0  0  0  0  0  0  0
    0.3972   -8.6857   -3.6245 H   0  0  0  0  0  0  0  0  0  0  0  0
    1.7400   -5.2940    2.0990 H   0  0  0  0  0  0  0  0  0  0  0  0
    1.0957   -2.4427    5.6290 H   0  0  0  0  0  0  0  0  0  0  0  0
   -0.4093   -0.8862    5.3010 H   0  0  0  0  0  0  0  0  0  0  0  0
    1.2781    0.7620    5.0771 H   0  0  0  0  0  0  0  0  0  0  0  0
    1.7727    0.0452    2.1152 H   0  0  0  0  0  0  0  0  0  0  0  0
    2.8503   -0.3103    3.5004 H   0  0  0  0  0  0  0  0  0  0  0  0
    2.4999    1.3822    3.0674 H   0  0  0  0  0  0  0  0  0  0  0  0
   -0.8651    1.5394    4.6630 H   0  0  0  0  0  0  0  0  0  0  0  0
   -2.2818    0.7358    3.2035 H   0  0  0  0  0  0  0  0  0  0  0  0
   -2.3883    1.8249    1.2847 H   0  0  0  0  0  0  0  0  0  0  0  0
    0.4056    3.2533    4.0926 H   0  0  0  0  0  0  0  0  0  0  0  0
   -0.1503   -0.5401    1.3821 H   0  0  0  0  0  0  0  0  0  0  0  0
   -3.0518   -1.3541    2.0306 H   0  0  0  0  0  0  0  0  0  0  0  0
   -1.9764   -2.0400    0.7626 H   0  0  0  0  0  0  0  0  0  0  0  0
   -2.5417   -0.3898    0.5967 H   0  0  0  0  0  0  0  0  0  0  0  0
   -1.4935   -2.0369    3.7166 H   0  0  0  0  0  0  0  0  0  0  0  0
   -0.7964   -4.6105    2.8292 H   0  0  0  0  0  0  0  0  0  0  0  0
    0.0948   -3.2502    0.2386 H   0  0  0  0  0  0  0  0  0  0  0  0
   -2.4668   -5.5771    1.5946 H   0  0  0  0  0  0  0  0  0  0  0  0
   -1.8833   -7.5465   -0.4988 H   0  0  0  0  0  0  0  0  0  0  0  0
   -4.1001   -8.2169   -0.3992 H   0  0  0  0  0  0  0  0  0  0  0  0
   -2.6937   -9.1384    1.3795 H   0  0  0  0  0  0  0  0  0  0  0  0
   -4.4063   -9.0157    1.9141 H   0  0  0  0  0  0  0  0  0  0  0  0
   -3.1885   -7.8294    2.5181 H   0  0  0  0  0  0  0  0  0  0  0  0
   -5.9447   -7.3122    0.7406 H   0  0  0  0  0  0  0  0  0  0  0  0
   -5.6627   -6.2393   -1.3790 H   0  0  0  0  0  0  0  0  0  0  0  0
   -7.2958   -5.2432   -0.1709 H   0  0  0  0  0  0  0  0  0  0  0  0
   -5.2614   -6.4414    2.6924 H   0  0  0  0  0  0  0  0  0  0  0  0
   -3.8042   -4.2063    0.0231 H   0  0  0  0  0  0  0  0  0  0  0  0
   -4.6051   -4.4607   -2.9426 H   0  0  0  0  0  0  0  0  0  0  0  0
   -3.4961   -3.2294   -2.2143 H   0  0  0  0  0  0  0  0  0  0  0  0
   -5.2222   -3.2365   -1.7731 H   0  0  0  0  0  0  0  0  0  0  0  0
   -2.9399   -6.2764   -2.1414 H   0  0  0  0  0  0  0  0  0  0  0  0
    0.1543   -4.0706   -2.0008 H   0  0  0  0  0  0  0  0  0  0  0  0
   -2.2294   -4.9679   -3.6919 H   0  0  0  0  0  0  0  0  0  0  0  0
   -1.4401   -5.0329   -6.0903 H   0  0  0  0  0  0  0  0  0  0  0  0
    1.0116   -4.7876   -7.2659 H   0  0  0  0  0  0  0  0  0  0  0  0
   -1.0720   -4.0854   -8.3174 H   0  0  0  0  0  0  0  0  0  0  0  0
   -2.3096   -2.0488   -7.8741 H   0  0  0  0  0  0  0  0  0  0  0  0
   -1.2183   -1.5599   -6.5491 H   0  0  0  0  0  0  0  0  0  0  0  0
   -2.2630   -2.9948   -6.3758 H   0  0  0  0  0  0  0  0  0  0  0  0
    0.8175   -3.3361   -9.3857 H   0  0  0  0  0  0  0  0  0  0  0  0
    2.5238   -2.4310   -8.3203 H   0  0  0  0  0  0  0  0  0  0  0  0
    2.1753    0.1792   -8.0365 H   0  0  0  0  0  0  0  0  0  0  0  0
   -0.0833   -1.7126  -10.5122 H   0  0  0  0  0  0  0  0  0  0  0  0
    0.8291   -1.0224   -6.1768 H   0  0  0  0  0  0  0  0  0  0  0  0
    3.0171   -1.4544   -4.8284 H   0  0  0  0  0  0  0  0  0  0  0  0
    3.0873   -0.2145   -6.0978 H   0  0  0  0  0  0  0  0  0  0  0  0
    3.7743   -1.8573   -6.3971 H   0  0  0  0  0  0  0  0  0  0  0  0
    2.1754   -3.7222   -5.6162 H   0  0  0  0  0  0  0  0  0  0  0  0
    1.2600   -1.4690   -3.3873 H   0  0  0  0  0  0  0  0  0  0  0  0
   -1.7166   -1.7899   -3.9991 H   0  0  0  0  0  0  0  0  0  0  0  0
   -3.0482    0.3914   -3.3600 H   0  0  0  0  0  0  0  0  0  0  0  0
   -8.1019    2.6647   -5.3273 H   0  0  0  0  0  0  0  0  0  0  0  0
   -6.6740    2.6574   -6.4214 H   0  0  0  0  0  0  0  0  0  0  0  0
   -7.9835    4.7510   -6.7023 H   0  0  0  0  0  0  0  0  0  0  0  0
   -6.3519    5.1218   -6.0222 H   0  0  0  0  0  0  0  0  0  0  0  0
   -7.8087    5.1264   -4.9423 H   0  0  0  0  0  0  0  0  0  0  0  0
    4.3915    2.5133    1.9467 H   0  0  0  0  0  0  0  0  0  0  0  0
    5.2421    3.9505    1.2994 H   0  0  0  0  0  0  0  0  0  0  0  0
    6.4466    1.9035    0.6426 H   0  0  0  0  0  0  0  0  0  0  0  0
    4.9469    1.2062   -0.0937 H   0  0  0  0  0  0  0  0  0  0  0  0
    5.7378    2.6692   -0.8272 H   0  0  0  0  0  0  0  0  0  0  0  0
   -0.1713    5.8908    0.1243 H   0  0  0  0  0  0  0  0  0  0  0  0
   -1.8150    6.7321    2.1824 H   0  0  0  0  0  0  0  0  0  0  0  0
   -3.3205    8.1036    2.9741 H   0  0  0  0  0  0  0  0  0  0  0  0
   -2.4457    9.9379    4.0922 H   0  0  0  0  0  0  0  0  0  0  0  0
   -1.4909    7.7541    4.7861 H   0  0  0  0  0  0  0  0  0  0  0  0
   -0.0643    8.0169    3.7102 H   0  0  0  0  0  0  0  0  0  0  0  0
   -0.3645    9.1219    5.1043 H   0  0  0  0  0  0  0  0  0  0  0  0
   -0.4694   11.1706    3.6409 H   0  0  0  0  0  0  0  0  0  0  0  0
   -2.3633   12.1000    2.5838 H   0  0  0  0  0  0  0  0  0  0  0  0
   -1.0074   12.7832    0.4000 H   0  0  0  0  0  0  0  0  0  0  0  0
   -0.0354    9.4124    1.3017 H   0  0  0  0  0  0  0  0  0  0  0  0
   -1.8527   10.4881    0.0103 H   0  0  0  0  0  0  0  0  0  0  0  0
   -4.3481   12.0078    1.0179 H   0  0  0  0  0  0  0  0  0  0  0  0
   -3.1312   12.7085   -0.0872 H   0  0  0  0  0  0  0  0  0  0  0  0
   -4.1051   11.3153   -0.6221 H   0  0  0  0  0  0  0  0  0  0  0  0
   -4.3039    9.7155    1.6947 H   0  0  0  0  0  0  0  0  0  0  0  0
   -5.1814    9.0046   -0.8497 H   0  0  0  0  0  0  0  0  0  0  0  0
   -4.2185    8.8212   -3.0384 H   0  0  0  0  0  0  0  0  0  0  0  0
   -2.5560    8.4146   -2.2963 H   0  0  0  0  0  0  0  0  0  0  0  0
  1  2  2  0
  2  3  1  0
  3  4  2  0
  4  5  1  0
  5  6  1  0
  6  7  1  0
  7  8  1  0
  8  9  1  0
  7 10  2  0
 10 11  1  0
 10 12  1  0
 12 13  1  0
  4 14  1  0
 14 15  2  0
 15 16  1  0
 16 17  1  0
 17 18  1  0
 18 19  1  0
 19 20  1  0
 20 21  1  0
 19 22  2  0
 22 23  1  0
 23 24  1  0
 22 25  1  0
 16 26  2  0
 26 27  1  0
 15 28  1  0
 28 29  2  0
 29 30  1  0
 29 31  1  0
 31 32  1  0
 32 33  1  0
 33 34  1  0
 34 35  1  0
 34 36  1  0
 36 37  1  0
 37 38  1  0
 38 39  1  0
 39 40  1  0
 37 41  1  0
 41 42  1  0
 41 43  1  0
 43 44  1  0
 44 45  1  0
 45 46  2  3
 46 47  1  0
 47 48  1  0
 48 49  1  0
 49 50  1  0
 50 51  1  0
 50 52  1  0
 52 53  1  0
 53 54  1  0
 54 55  1  0
 55 56  1  0
 53 57  1  0
 57 58  1  0
 57 59  1  0
 59 60  1  0
 60 61  1  0
 61 62  2  3
 62 63  1  0
 63 64  1  0
 64 65  1  0
 65 66  1  0
 66 67  1  0
 66 68  1  0
 68 69  1  0
 69 70  1  0
 70 71  1  0
 71 72  1  0
 69 73  1  0
 73 74  1  0
 73 75  1  0
 75 76  1  0
 76 77  1  0
 77 78  2  3
 78 79  1  0
 79 80  2  0
 80 81  1  0
 81 82  2  0
 82 83  1  0
 83 84  1  0
 84 85  1  0
 85 86  1  0
 86 87  1  0
 85 88  2  0
 88 89  1  0
 88 90  1  0
 90 91  1  0
 82 92  1  0
 92 93  2  0
 93 94  1  0
 94 95  1  0
 95 96  1  0
 96 97  1  0
 97 98  1  0
 98 99  1  0
 97100  2  0
100101  1  0
101102  1  0
100103  1  0
 94104  2  0
104105  1  0
 93106  1  0
106107  2  0
107108  1  0
107109  1  0
109110  1  0
110111  1  0
111112  1  0
112113  1  0
112114  1  0
114115  1  0
115116  1  0
116117  1  0
117118  1  0
115119  1  0
119120  1  0
119121  1  0
121122  1  0
122123  1  0
123124  2  3
 27  1  1  0
 44 31  1  0
 60 47  1  0
 76 63  1  0
105 79  1  0
122109  1  0
 26  3  1  0
 43 33  1  0
 59 49  1  0
 75 65  1  0
104 81  1  0
121111  1  0
 12  5  2  0
 30 14  1  0
 40 36  1  0
 56 52  1  0
 72 68  1  0
 90 83  2  0
108 92  1  0
118114  1  0
 23 17  2  0
101 95  2  0
  1125  1  0
  2126  1  0
  8127  1  0
  8128  1  0
  9129  1  0
  9130  1  0
  9131  1  0
 20132  1  0
 20133  1  0
 21134  1  0
 21135  1  0
 21136  1  0
 28137  1  0
 32138  1  0
 33139  1  1
 34140  1  1
 35141  1  0
 35142  1  0
 35143  1  0
 36144  1  1
 37145  1  1
 38146  1  0
 40147  1  0
 41148  1  6
 42149  1  0
 42150  1  0
 42151  1  0
 43152  1  1
 45153  1  0
 46154  1  0
 48155  1  0
 49156  1  6
 50157  1  6
 51158  1  0
 51159  1  0
 51160  1  0
 52161  1  1
 53162  1  6
 54163  1  0
 56164  1  0
 57165  1  1
 58166  1  0
 58167  1  0
 58168  1  0
 59169  1  6
 61170  1  0
 62171  1  0
 64172  1  0
 65173  1  6
 66174  1  6
 67175  1  0
 67176  1  0
 67177  1  0
 68178  1  6
 69179  1  1
 70180  1  0
 72181  1  0
 73182  1  6
 74183  1  0
 74184  1  0
 74185  1  0
 75186  1  1
 77187  1  0
 78188  1  0
 80189  1  0
 86190  1  0
 86191  1  0
 87192  1  0
 87193  1  0
 87194  1  0
 98195  1  0
 98196  1  0
 99197  1  0
 99198  1  0
 99199  1  0
106200  1  0
110201  1  0
111202  1  1
112203  1  1
113204  1  0
113205  1  0
113206  1  0
114207  1  1
115208  1  1
116209  1  0
118210  1  0
119211  1  6
120212  1  0
120213  1  0
120214  1  0
121215  1  1
123216  1  0
124217  1  0
124218  1  0
M  END

