
     RDKit          3D

240263  0  0  0  0  0  0  0  0999 V2000
   11.4384   -3.8495    0.9122 C   0  0  0  0  0  0  0  0  0  0  0  0
    9.7689   -3.6392    0.8628 S   0  0  0  0  0  0  0  0  0  0  0  0
    9.6680   -2.3967    2.0035 C   0  0  0  0  0  0  0  0  0  0  0  0
   10.9642   -2.1441    2.4541 C   0  0  0  0  0  0  0  0  0  0  0  0
   11.9393   -2.9512    1.8460 C   0  0  0  0  0  0  0  0  0  0  0  0
   13.2835   -2.8401    2.2067 C   0  0  0  0  0  0  0  0  0  0  0  0
   13.6562   -1.8904    3.1738 C   0  0  0  0  0  0  0  0  0  0  0  0
   15.3772   -1.7758    3.6693 S   0  0  0  0  0  0  0  0  0  0  0  0
   12.6859   -1.0514    3.7590 C   0  0  0  0  0  0  0  0  0  0  0  0
   13.0702   -0.1006    4.7039 O   0  0  0  0  0  0  0  0  0  0  0  0
   11.3320   -1.1800    3.3986 C   0  0  0  0  0  0  0  0  0  0  0  0
    8.4309   -1.8241    2.5689 C   0  0  0  0  0  0  0  0  0  0  0  0
    7.3369   -1.5100    1.8691 C   0  0  0  0  0  0  0  0  0  0  0  0
    7.2308   -1.6207    0.4097 C   0  0  0  0  0  0  0  0  0  0  0  0
    6.6694   -2.9818   -0.4099 S   0  0  0  0  0  0  0  0  0  0  0  0
    6.5006   -2.2563   -1.9305 C   0  0  0  0  0  0  0  0  0  0  0  0
    6.8456   -0.9046   -1.7906 C   0  0  0  0  0  0  0  0  0  0  0  0
    7.2314   -0.5552   -0.4875 C   0  0  0  0  0  0  0  0  0  0  0  0
    7.5376    0.7722   -0.1645 C   0  0  0  0  0  0  0  0  0  0  0  0
    7.4627    1.7594   -1.1570 C   0  0  0  0  0  0  0  0  0  0  0  0
    7.8594    3.4513   -0.7126 S   0  0  0  0  0  0  0  0  0  0  0  0
    7.0680    1.4123   -2.4729 C   0  0  0  0  0  0  0  0  0  0  0  0
    6.9685    2.3689   -3.4884 O   0  0  0  0  0  0  0  0  0  0  0  0
    6.7619    0.0815   -2.7840 C   0  0  0  0  0  0  0  0  0  0  0  0
    5.9020   -2.8875   -3.1205 C   0  0  0  0  0  0  0  0  0  0  0  0
    5.3569   -4.1156   -3.0975 C   0  0  0  0  0  0  0  0  0  0  0  0
    4.4319   -4.5615   -4.1570 C   0  0  0  0  0  0  0  0  0  0  0  0
    4.3336   -4.0162   -5.4401 C   0  0  0  0  0  0  0  0  0  0  0  0
    3.0750   -4.2145   -6.0276 C   0  0  0  0  0  0  0  0  0  0  0  0
    2.6057   -3.5495   -7.1746 C   0  0  0  0  0  0  0  0  0  0  0  0
    3.5174   -2.7171   -7.9786 C   0  0  0  0  0  0  0  0  0  0  0  0
    4.3463   -3.3232   -8.9320 C   0  0  0  0  0  0  0  0  0  0  0  0
    5.3362   -2.5776   -9.5744 C   0  0  0  0  0  0  0  0  0  0  0  0
    5.5199   -1.2271   -9.2547 C   0  0  0  0  0  0  0  0  0  0  0  0
    6.8389   -0.2950  -10.0429 S   0  0  0  0  0  0  0  0  0  0  0  0
    8.0715   -0.5900   -8.7247 C   0  0  0  0  0  0  0  0  0  0  0  0
    8.7551   -1.9406   -8.9002 C   0  0  0  0  0  0  0  0  0  0  0  0
    4.6703   -0.6104   -8.3240 C   0  0  0  0  0  0  0  0  0  0  0  0
    4.8373    0.6992   -8.0042 F   0  0  0  0  0  0  0  0  0  0  0  0
    3.6762   -1.3552   -7.6825 C   0  0  0  0  0  0  0  0  0  0  0  0
    1.2181   -3.5550   -7.3890 C   0  0  0  0  0  0  0  0  0  0  0  0
    0.3366   -4.2639   -6.5654 C   0  0  0  0  0  0  0  0  0  0  0  0
    0.8285   -5.0521   -5.5013 C   0  0  0  0  0  0  0  0  0  0  0  0
   -0.0771   -5.8165   -4.6192 C   0  0  0  0  0  0  0  0  0  0  0  0
   -0.6773   -6.9908   -5.0928 C   0  0  0  0  0  0  0  0  0  0  0  0
   -1.4503   -7.7784   -4.2357 C   0  0  0  0  0  0  0  0  0  0  0  0
   -1.6479   -7.3890   -2.9060 C   0  0  0  0  0  0  0  0  0  0  0  0
   -2.5570   -8.4656   -1.7908 S   0  0  0  0  0  0  0  0  0  0  0  0
   -4.1726   -7.6360   -1.9990 C   0  0  0  0  0  0  0  0  0  0  0  0
   -4.7699   -7.8983   -3.3755 C   0  0  0  0  0  0  0  0  0  0  0  0
   -1.0736   -6.1997   -2.4360 C   0  0  0  0  0  0  0  0  0  0  0  0
   -0.2933   -5.4148   -3.2917 C   0  0  0  0  0  0  0  0  0  0  0  0
   -1.2378   -5.8227   -1.1440 F   0  0  0  0  0  0  0  0  0  0  0  0
    2.2065   -4.9639   -5.2334 C   0  0  0  0  0  0  0  0  0  0  0  0
    2.9977   -5.3810   -3.8085 S   0  0  0  0  0  0  0  0  0  0  0  0
   -1.0028   -3.8743   -6.7248 C   0  0  0  0  0  0  0  0  0  0  0  0
   -1.1703   -2.8023   -7.6099 C   0  0  0  0  0  0  0  0  0  0  0  0
    0.3390   -2.4426   -8.2875 S   0  0  0  0  0  0  0  0  0  0  0  0
   -2.2093   -1.7664   -7.4214 C   0  0  0  0  0  0  0  0  0  0  0  0
   -3.2935   -1.8934   -6.5459 C   0  0  0  0  0  0  0  0  0  0  0  0
   -3.7360   -0.6661   -6.0178 C   0  0  0  0  0  0  0  0  0  0  0  0
   -4.6222   -0.5095   -4.9291 C   0  0  0  0  0  0  0  0  0  0  0  0
   -5.1882   -1.6684   -4.2068 C   0  0  0  0  0  0  0  0  0  0  0  0
   -4.3346   -2.5556   -3.5347 C   0  0  0  0  0  0  0  0  0  0  0  0
   -4.8566   -3.5855   -2.7557 C   0  0  0  0  0  0  0  0  0  0  0  0
   -6.2416   -3.7400   -2.6321 C   0  0  0  0  0  0  0  0  0  0  0  0
   -6.8953   -5.0449   -1.5858 S   0  0  0  0  0  0  0  0  0  0  0  0
   -6.7623   -4.0942   -0.0298 C   0  0  0  0  0  0  0  0  0  0  0  0
   -7.9578   -3.1667    0.1472 C   0  0  0  0  0  0  0  0  0  0  0  0
   -7.1043   -2.8737   -3.3207 C   0  0  0  0  0  0  0  0  0  0  0  0
   -8.4484   -3.0212   -3.2221 F   0  0  0  0  0  0  0  0  0  0  0  0
   -6.5781   -1.8301   -4.0928 C   0  0  0  0  0  0  0  0  0  0  0  0
   -4.7244    0.7806   -4.3772 C   0  0  0  0  0  0  0  0  0  0  0  0
   -3.9764    1.8666   -4.8399 C   0  0  0  0  0  0  0  0  0  0  0  0
   -3.1366    1.7230   -5.9675 C   0  0  0  0  0  0  0  0  0  0  0  0
   -2.2527    2.8141   -6.4405 C   0  0  0  0  0  0  0  0  0  0  0  0
   -1.2814    3.3671   -5.5919 C   0  0  0  0  0  0  0  0  0  0  0  0
   -0.4350    4.3774   -6.0513 C   0  0  0  0  0  0  0  0  0  0  0  0
   -0.5355    4.8326   -7.3726 C   0  0  0  0  0  0  0  0  0  0  0  0
    0.5772    6.1145   -7.9577 S   0  0  0  0  0  0  0  0  0  0  0  0
   -0.4574    7.5115   -7.3902 C   0  0  0  0  0  0  0  0  0  0  0  0
   -1.5759    7.8060   -8.3819 C   0  0  0  0  0  0  0  0  0  0  0  0
   -1.4798    4.2579   -8.2375 C   0  0  0  0  0  0  0  0  0  0  0  0
   -2.3392    3.2578   -7.7687 C   0  0  0  0  0  0  0  0  0  0  0  0
   -1.5615    4.6592   -9.5315 F   0  0  0  0  0  0  0  0  0  0  0  0
   -3.0504    0.4353   -6.5336 C   0  0  0  0  0  0  0  0  0  0  0  0
   -1.8818   -0.1182   -7.6038 S   0  0  0  0  0  0  0  0  0  0  0  0
   -4.0346    2.9815   -3.9795 C   0  0  0  0  0  0  0  0  0  0  0  0
   -4.8036    2.7562   -2.8387 C   0  0  0  0  0  0  0  0  0  0  0  0
   -5.4373    1.1947   -2.9151 S   0  0  0  0  0  0  0  0  0  0  0  0
   -4.6597    3.4738   -1.5682 C   0  0  0  0  0  0  0  0  0  0  0  0
   -3.4187    3.7847   -1.0068 C   0  0  0  0  0  0  0  0  0  0  0  0
   -3.4505    3.8760    0.3957 C   0  0  0  0  0  0  0  0  0  0  0  0
   -2.3230    3.9285    1.2471 C   0  0  0  0  0  0  0  0  0  0  0  0
   -0.9488    4.0228    0.7034 C   0  0  0  0  0  0  0  0  0  0  0  0
   -0.0673    2.9368    0.8038 C   0  0  0  0  0  0  0  0  0  0  0  0
    1.2303    3.0310    0.2950 C   0  0  0  0  0  0  0  0  0  0  0  0
    1.6682    4.2222   -0.2968 C   0  0  0  0  0  0  0  0  0  0  0  0
    3.3342    4.3288   -0.9645 S   0  0  0  0  0  0  0  0  0  0  0  0
    4.0848    5.0644    0.5307 C   0  0  0  0  0  0  0  0  0  0  0  0
    4.5202    3.9812    1.5078 C   0  0  0  0  0  0  0  0  0  0  0  0
    0.7875    5.3062   -0.4085 C   0  0  0  0  0  0  0  0  0  0  0  0
    1.1973    6.4677   -0.9807 F   0  0  0  0  0  0  0  0  0  0  0  0
   -0.5155    5.2071    0.0889 C   0  0  0  0  0  0  0  0  0  0  0  0
   -2.5543    3.7062    2.6200 C   0  0  0  0  0  0  0  0  0  0  0  0
   -3.8295    3.4860    3.1434 C   0  0  0  0  0  0  0  0  0  0  0  0
   -4.9584    3.4790    2.3000 C   0  0  0  0  0  0  0  0  0  0  0  0
   -6.2926    3.0878    2.8001 C   0  0  0  0  0  0  0  0  0  0  0  0
   -6.8572    1.8632    2.4105 C   0  0  0  0  0  0  0  0  0  0  0  0
   -8.1371    1.5101    2.8432 C   0  0  0  0  0  0  0  0  0  0  0  0
   -8.8676    2.3807    3.6599 C   0  0  0  0  0  0  0  0  0  0  0  0
  -10.5515    1.9555    4.1247 S   0  0  0  0  0  0  0  0  0  0  0  0
  -11.3090    2.5610    2.5710 C   0  0  0  0  0  0  0  0  0  0  0  0
  -11.4945    4.0727    2.6038 C   0  0  0  0  0  0  0  0  0  0  0  0
   -8.2858    3.5811    4.0964 C   0  0  0  0  0  0  0  0  0  0  0  0
   -7.0018    3.9327    3.6644 C   0  0  0  0  0  0  0  0  0  0  0  0
   -8.9620    4.4128    4.9266 F   0  0  0  0  0  0  0  0  0  0  0  0
   -4.7255    3.6692    0.9267 C   0  0  0  0  0  0  0  0  0  0  0  0
   -5.7985    3.3655   -0.3303 S   0  0  0  0  0  0  0  0  0  0  0  0
   -3.8143    3.0420    4.4747 C   0  0  0  0  0  0  0  0  0  0  0  0
   -2.5326    2.8723    4.9966 C   0  0  0  0  0  0  0  0  0  0  0  0
   -1.4221    3.3190    3.8064 S   0  0  0  0  0  0  0  0  0  0  0  0
   -2.2581    1.7695    5.9156 C   0  0  0  0  0  0  0  0  0  0  0  0
   -2.3747    0.4369    5.5395 C   0  0  0  0  0  0  0  0  0  0  0  0
   -2.2381   -0.4470    6.6101 C   0  0  0  0  0  0  0  0  0  0  0  0
   -2.3048   -1.8486    6.5265 C   0  0  0  0  0  0  0  0  0  0  0  0
   -2.5174   -2.5347    5.2369 C   0  0  0  0  0  0  0  0  0  0  0  0
   -3.7791   -2.5183    4.6265 C   0  0  0  0  0  0  0  0  0  0  0  0
   -3.9613   -3.1123    3.3748 C   0  0  0  0  0  0  0  0  0  0  0  0
   -2.8863   -3.7279    2.7231 C   0  0  0  0  0  0  0  0  0  0  0  0
   -3.1276   -4.4487    1.0913 S   0  0  0  0  0  0  0  0  0  0  0  0
   -3.7396   -6.0649    1.6967 C   0  0  0  0  0  0  0  0  0  0  0  0
   -2.5857   -6.9722    2.1002 C   0  0  0  0  0  0  0  0  0  0  0  0
   -1.6177   -3.7337    3.3274 C   0  0  0  0  0  0  0  0  0  0  0  0
   -0.5544   -4.2832    2.6875 F   0  0  0  0  0  0  0  0  0  0  0  0
   -1.4384   -3.1486    4.5844 C   0  0  0  0  0  0  0  0  0  0  0  0
   -2.1389   -2.5608    7.7241 C   0  0  0  0  0  0  0  0  0  0  0  0
   -1.9205   -1.9329    8.9525 C   0  0  0  0  0  0  0  0  0  0  0  0
   -1.8365   -0.5211    9.0342 C   0  0  0  0  0  0  0  0  0  0  0  0
   -1.5144    0.1746   10.3004 C   0  0  0  0  0  0  0  0  0  0  0  0
   -2.3741    1.1581   10.8128 C   0  0  0  0  0  0  0  0  0  0  0  0
   -2.0425    1.8351   11.9902 C   0  0  0  0  0  0  0  0  0  0  0  0
   -0.8528    1.5373   12.6626 C   0  0  0  0  0  0  0  0  0  0  0  0
   -0.4557    2.3806   14.2004 S   0  0  0  0  0  0  0  0  0  0  0  0
    0.6340    3.6327   13.4306 C   0  0  0  0  0  0  0  0  0  0  0  0
   -0.1798    4.8016   12.8834 C   0  0  0  0  0  0  0  0  0  0  0  0
   -0.0020    0.5432   12.1641 C   0  0  0  0  0  0  0  0  0  0  0  0
   -0.3291   -0.1300   10.9847 C   0  0  0  0  0  0  0  0  0  0  0  0
    1.1475    0.2276   12.8121 F   0  0  0  0  0  0  0  0  0  0  0  0
   -2.0132    0.1929    7.8318 C   0  0  0  0  0  0  0  0  0  0  0  0
   -1.9857    1.8662    7.5782 S   0  0  0  0  0  0  0  0  0  0  0  0
   -1.8361   -2.8409   10.0201 C   0  0  0  0  0  0  0  0  0  0  0  0
   -1.9746   -4.1671    9.6245 C   0  0  0  0  0  0  0  0  0  0  0  0
   -2.2057   -4.2246    7.9570 S   0  0  0  0  0  0  0  0  0  0  0  0
   12.0117   -4.5646    0.3379 H   0  0  0  0  0  0  0  0  0  0  0  0
   14.0290   -3.4839    1.7531 H   0  0  0  0  0  0  0  0  0  0  0  0
   15.1896   -2.6911    4.7225 H   0  0  0  0  0  0  0  0  0  0  0  0
   12.3923    0.5068    5.1507 H   0  0  0  0  0  0  0  0  0  0  0  0
   10.5885   -0.5305    3.8476 H   0  0  0  0  0  0  0  0  0  0  0  0
    8.4279   -1.5806    3.6223 H   0  0  0  0  0  0  0  0  0  0  0  0
    6.5229   -1.0117    2.3877 H   0  0  0  0  0  0  0  0  0  0  0  0
    7.8312    1.0383    0.8429 H   0  0  0  0  0  0  0  0  0  0  0  0
    9.2123    3.2867   -1.0646 H   0  0  0  0  0  0  0  0  0  0  0  0
    7.1646    3.3520   -3.3412 H   0  0  0  0  0  0  0  0  0  0  0  0
    6.4576   -0.1662   -3.7921 H   0  0  0  0  0  0  0  0  0  0  0  0
    5.7849   -2.2764   -4.0035 H   0  0  0  0  0  0  0  0  0  0  0  0
    5.4049   -4.7149   -2.1954 H   0  0  0  0  0  0  0  0  0  0  0  0
    5.0925   -3.3800   -5.8696 H   0  0  0  0  0  0  0  0  0  0  0  0
    4.2451   -4.3805   -9.1506 H   0  0  0  0  0  0  0  0  0  0  0  0
    5.9822   -3.0604  -10.2961 H   0  0  0  0  0  0  0  0  0  0  0  0
    7.5994   -0.5271   -7.7207 H   0  0  0  0  0  0  0  0  0  0  0  0
    8.8419    0.2081   -8.7889 H   0  0  0  0  0  0  0  0  0  0  0  0
    9.1620   -2.0295   -9.9294 H   0  0  0  0  0  0  0  0  0  0  0  0
    8.0396   -2.7668   -8.7091 H   0  0  0  0  0  0  0  0  0  0  0  0
    9.5958   -2.0294   -8.1802 H   0  0  0  0  0  0  0  0  0  0  0  0
    3.0557   -0.8858   -6.9256 H   0  0  0  0  0  0  0  0  0  0  0  0
   -0.5211   -7.3086   -6.1158 H   0  0  0  0  0  0  0  0  0  0  0  0
   -1.8786   -8.6995   -4.6045 H   0  0  0  0  0  0  0  0  0  0  0  0
   -4.0651   -6.5475   -1.8217 H   0  0  0  0  0  0  0  0  0  0  0  0
   -4.8650   -8.0386   -1.2294 H   0  0  0  0  0  0  0  0  0  0  0  0
   -5.8190   -7.5378   -3.3988 H   0  0  0  0  0  0  0  0  0  0  0  0
   -4.7574   -8.9853   -3.6019 H   0  0  0  0  0  0  0  0  0  0  0  0
   -4.2034   -7.3520   -4.1559 H   0  0  0  0  0  0  0  0  0  0  0  0
    0.1569   -4.5031   -2.9130 H   0  0  0  0  0  0  0  0  0  0  0  0
   -1.7861   -4.2240   -6.0652 H   0  0  0  0  0  0  0  0  0  0  0  0
   -3.6572   -2.8492   -6.1957 H   0  0  0  0  0  0  0  0  0  0  0  0
   -3.2581   -2.4257   -3.5855 H   0  0  0  0  0  0  0  0  0  0  0  0
   -4.1819   -4.2447   -2.2260 H   0  0  0  0  0  0  0  0  0  0  0  0
   -5.8249   -3.5012   -0.0086 H   0  0  0  0  0  0  0  0  0  0  0  0
   -6.7280   -4.8123    0.8165 H   0  0  0  0  0  0  0  0  0  0  0  0
   -7.9390   -2.3634   -0.6198 H   0  0  0  0  0  0  0  0  0  0  0  0
   -8.9083   -3.7365    0.0635 H   0  0  0  0  0  0  0  0  0  0  0  0
   -7.9080   -2.6907    1.1503 H   0  0  0  0  0  0  0  0  0  0  0  0
   -7.2511   -1.1454   -4.5937 H   0  0  0  0  0  0  0  0  0  0  0  0
   -1.1763    3.0119   -4.5745 H   0  0  0  0  0  0  0  0  0  0  0  0
    0.3009    4.8056   -5.3834 H   0  0  0  0  0  0  0  0  0  0  0  0
    0.1921    8.4080   -7.3044 H   0  0  0  0  0  0  0  0  0  0  0  0
   -0.8828    7.3047   -6.3856 H   0  0  0  0  0  0  0  0  0  0  0  0
   -1.1561    7.9324   -9.4017 H   0  0  0  0  0  0  0  0  0  0  0  0
   -2.0952    8.7439   -8.0900 H   0  0  0  0  0  0  0  0  0  0  0  0
   -2.3165    6.9790   -8.3874 H   0  0  0  0  0  0  0  0  0  0  0  0
   -3.0688    2.8246   -8.4440 H   0  0  0  0  0  0  0  0  0  0  0  0
   -3.4650    3.8889   -4.1188 H   0  0  0  0  0  0  0  0  0  0  0  0
   -2.5015    3.7740   -1.5817 H   0  0  0  0  0  0  0  0  0  0  0  0
   -0.3900    2.0121    1.2676 H   0  0  0  0  0  0  0  0  0  0  0  0
    1.8964    2.1820    0.3724 H   0  0  0  0  0  0  0  0  0  0  0  0
    3.3828    5.7633    1.0316 H   0  0  0  0  0  0  0  0  0  0  0  0
    4.9761    5.6438    0.2145 H   0  0  0  0  0  0  0  0  0  0  0  0
    5.1825    3.2468    1.0052 H   0  0  0  0  0  0  0  0  0  0  0  0
    3.6346    3.4535    1.9155 H   0  0  0  0  0  0  0  0  0  0  0  0
    5.0741    4.4439    2.3510 H   0  0  0  0  0  0  0  0  0  0  0  0
   -1.1881    6.0541    0.0055 H   0  0  0  0  0  0  0  0  0  0  0  0
   -6.3100    1.1851    1.7647 H   0  0  0  0  0  0  0  0  0  0  0  0
   -8.5702    0.5686    2.5260 H   0  0  0  0  0  0  0  0  0  0  0  0
  -10.6953    2.2723    1.6909 H   0  0  0  0  0  0  0  0  0  0  0  0
  -12.3036    2.0817    2.4585 H   0  0  0  0  0  0  0  0  0  0  0  0
  -11.9947    4.4114    1.6721 H   0  0  0  0  0  0  0  0  0  0  0  0
  -12.1237    4.3557    3.4731 H   0  0  0  0  0  0  0  0  0  0  0  0
  -10.5124    4.5817    2.6761 H   0  0  0  0  0  0  0  0  0  0  0  0
   -6.5667    4.8693    3.9902 H   0  0  0  0  0  0  0  0  0  0  0  0
   -4.6971    2.6731    4.9837 H   0  0  0  0  0  0  0  0  0  0  0  0
   -2.5749    0.1275    4.5211 H   0  0  0  0  0  0  0  0  0  0  0  0
   -4.6157   -2.0320    5.1152 H   0  0  0  0  0  0  0  0  0  0  0  0
   -4.9389   -3.0897    2.9081 H   0  0  0  0  0  0  0  0  0  0  0  0
   -4.4359   -5.9293    2.5500 H   0  0  0  0  0  0  0  0  0  0  0  0
   -4.3050   -6.5509    0.8730 H   0  0  0  0  0  0  0  0  0  0  0  0
   -1.9079   -7.1372    1.2409 H   0  0  0  0  0  0  0  0  0  0  0  0
   -2.9857   -7.9552    2.4275 H   0  0  0  0  0  0  0  0  0  0  0  0
   -2.0162   -6.5293    2.9415 H   0  0  0  0  0  0  0  0  0  0  0  0
   -0.4525   -3.1410    5.0358 H   0  0  0  0  0  0  0  0  0  0  0  0
   -3.3013    1.3972   10.3034 H   0  0  0  0  0  0  0  0  0  0  0  0
   -2.7164    2.5879   12.3822 H   0  0  0  0  0  0  0  0  0  0  0  0
    1.2444    3.1868   12.6156 H   0  0  0  0  0  0  0  0  0  0  0  0
    1.3321    4.0118   14.2047 H   0  0  0  0  0  0  0  0  0  0  0  0
    0.5152    5.6062   12.5519 H   0  0  0  0  0  0  0  0  0  0  0  0
   -0.7863    4.4767   12.0109 H   0  0  0  0  0  0  0  0  0  0  0  0
   -0.8501    5.2090   13.6707 H   0  0  0  0  0  0  0  0  0  0  0  0
    0.3502   -0.8830   10.5963 H   0  0  0  0  0  0  0  0  0  0  0  0
   -1.6886   -2.5574   11.0536 H   0  0  0  0  0  0  0  0  0  0  0  0
   -1.9457   -5.0270   10.2838 H   0  0  0  0  0  0  0  0  0  0  0  0
  1  2  1  0
  2  3  1  0
  3  4  2  0
  4  5  1  0
  5  6  1  0
  6  7  2  0
  7  8  1  0
  7  9  1  0
  9 10  1  0
  9 11  2  0
  3 12  1  0
 12 13  2  3
 13 14  1  0
 14 15  1  0
 15 16  1  0
 16 17  2  0
 17 18  1  0
 18 19  1  0
 19 20  2  0
 20 21  1  0
 20 22  1  0
 22 23  1  0
 22 24  2  0
 16 25  1  0
 25 26  2  3
 26 27  1  0
 27 28  2  0
 28 29  1  0
 29 30  2  0
 30 31  1  0
 31 32  2  0
 32 33  1  0
 33 34  2  0
 34 35  1  0
 35 36  1  0
 36 37  1  0
 34 38  1  0
 38 39  1  0
 38 40  2  0
 30 41  1  0
 41 42  2  0
 42 43  1  0
 43 44  1  0
 44 45  2  0
 45 46  1  0
 46 47  2  0
 47 48  1  0
 48 49  1  0
 49 50  1  0
 47 51  1  0
 51 52  2  0
 51 53  1  0
 43 54  2  0
 54 55  1  0
 42 56  1  0
 56 57  2  0
 57 58  1  0
 57 59  1  0
 59 60  2  0
 60 61  1  0
 61 62  2  0
 62 63  1  0
 63 64  2  0
 64 65  1  0
 65 66  2  0
 66 67  1  0
 67 68  1  0
 68 69  1  0
 66 70  1  0
 70 71  1  0
 70 72  2  0
 62 73  1  0
 73 74  2  0
 74 75  1  0
 75 76  1  0
 76 77  2  0
 77 78  1  0
 78 79  2  0
 79 80  1  0
 80 81  1  0
 81 82  1  0
 79 83  1  0
 83 84  2  0
 83 85  1  0
 75 86  2  0
 86 87  1  0
 74 88  1  0
 88 89  2  0
 89 90  1  0
 89 91  1  0
 91 92  2  0
 92 93  1  0
 93 94  2  0
 94 95  1  0
 95 96  2  0
 96 97  1  0
 97 98  2  0
 98 99  1  0
 99100  1  0
100101  1  0
 98102  1  0
102103  1  0
102104  2  0
 94105  1  0
105106  2  0
106107  1  0
107108  1  0
108109  2  0
109110  1  0
110111  2  0
111112  1  0
112113  1  0
113114  1  0
111115  1  0
115116  2  0
115117  1  0
107118  2  0
118119  1  0
106120  1  0
120121  2  0
121122  1  0
121123  1  0
123124  2  0
124125  1  0
125126  2  0
126127  1  0
127128  2  0
128129  1  0
129130  2  0
130131  1  0
131132  1  0
132133  1  0
130134  1  0
134135  1  0
134136  2  0
126137  1  0
137138  2  0
138139  1  0
139140  1  0
140141  2  0
141142  1  0
142143  2  0
143144  1  0
144145  1  0
145146  1  0
143147  1  0
147148  2  0
147149  1  0
139150  2  0
150151  1  0
138152  1  0
152153  2  0
153154  1  0
  5  1  2  0
 18 14  2  0
 55 27  1  0
 87 59  1  0
119 91  1  0
151123  1  0
 11  4  1  0
 24 17  1  0
 54 29  1  0
 86 61  1  0
118 93  1  0
150125  1  0
 40 31  1  0
 58 41  1  0
 72 63  1  0
 90 73  1  0
104 95  1  0
122105  1  0
136127  1  0
154137  1  0
 52 44  1  0
 84 76  1  0
116108  1  0
148140  1  0
  1155  1  0
  6156  1  0
  8157  1  0
 10158  1  0
 11159  1  0
 12160  1  0
 13161  1  0
 19162  1  0
 21163  1  0
 23164  1  0
 24165  1  0
 25166  1  0
 26167  1  0
 28168  1  0
 32169  1  0
 33170  1  0
 36171  1  0
 36172  1  0
 37173  1  0
 37174  1  0
 37175  1  0
 40176  1  0
 45177  1  0
 46178  1  0
 49179  1  0
 49180  1  0
 50181  1  0
 50182  1  0
 50183  1  0
 52184  1  0
 56185  1  0
 60186  1  0
 64187  1  0
 65188  1  0
 68189  1  0
 68190  1  0
 69191  1  0
 69192  1  0
 69193  1  0
 72194  1  0
 77195  1  0
 78196  1  0
 81197  1  0
 81198  1  0
 82199  1  0
 82200  1  0
 82201  1  0
 84202  1  0
 88203  1  0
 92204  1  0
 96205  1  0
 97206  1  0
100207  1  0
100208  1  0
101209  1  0
101210  1  0
101211  1  0
104212  1  0
109213  1  0
110214  1  0
113215  1  0
113216  1  0
114217  1  0
114218  1  0
114219  1  0
116220  1  0
120221  1  0
124222  1  0
128223  1  0
129224  1  0
132225  1  0
132226  1  0
133227  1  0
133228  1  0
133229  1  0
136230  1  0
141231  1  0
142232  1  0
145233  1  0
145234  1  0
146235  1  0
146236  1  0
146237  1  0
148238  1  0
152239  1  0
153240  1  0
M  END

