
     RDKit          3D

278307  0  0  0  0  0  0  0  0999 V2000
    0.0898   -7.4655   11.2046 C   0  0  0  0  0  0  0  0  0  0  0  0
    0.4918   -6.1687   10.8868 C   0  0  0  0  0  0  0  0  0  0  0  0
   -0.2695   -5.5935    9.8572 C   0  0  0  0  0  0  0  0  0  0  0  0
   -0.0988   -4.3067    9.3005 C   0  0  0  0  0  0  0  0  0  0  0  0
    1.0019   -3.4202    9.7200 C   0  0  0  0  0  0  0  0  0  0  0  0
    2.6363   -3.8031    9.5774 S   0  0  0  0  0  0  0  0  0  0  0  0
    3.2250   -2.3512   10.1821 C   0  0  0  0  0  0  0  0  0  0  0  0
    4.6727   -1.9663   10.2144 C   0  0  0  0  0  0  0  0  0  0  0  0
    5.0731   -1.2945    8.9074 C   0  0  0  0  0  0  0  0  0  0  0  0
    2.1417   -1.5217   10.4717 C   0  0  0  0  0  0  0  0  0  0  0  0
    2.3149    0.1224   11.0742 Cl  0  0  0  0  0  0  0  0  0  0  0  0
    0.8964   -2.1228   10.2211 C   0  0  0  0  0  0  0  0  0  0  0  0
   -0.6379   -1.3233   10.5563 Cl  0  0  0  0  0  0  0  0  0  0  0  0
   -0.9749   -3.9405    8.2596 C   0  0  0  0  0  0  0  0  0  0  0  0
   -1.9777   -4.7957    7.7908 C   0  0  0  0  0  0  0  0  0  0  0  0
   -2.1488   -6.0765    8.3482 C   0  0  0  0  0  0  0  0  0  0  0  0
   -3.1596   -7.0100    7.8298 C   0  0  0  0  0  0  0  0  0  0  0  0
   -3.1484   -7.6763    6.2829 S   0  0  0  0  0  0  0  0  0  0  0  0
   -4.5913   -8.5284    6.4378 C   0  0  0  0  0  0  0  0  0  0  0  0
   -5.2126   -9.3504    5.3484 C   0  0  0  0  0  0  0  0  0  0  0  0
   -6.0434   -8.4808    4.4128 C   0  0  0  0  0  0  0  0  0  0  0  0
   -5.1150   -8.2842    7.7098 C   0  0  0  0  0  0  0  0  0  0  0  0
   -4.3054   -7.4417    8.4925 C   0  0  0  0  0  0  0  0  0  0  0  0
   -4.7335   -6.9242   10.1164 Cl  0  0  0  0  0  0  0  0  0  0  0  0
   -6.6439   -8.9488    8.2817 Cl  0  0  0  0  0  0  0  0  0  0  0  0
   -1.2739   -6.4435    9.3829 C   0  0  0  0  0  0  0  0  0  0  0  0
   -1.2015   -7.9008   10.2153 S   0  0  0  0  0  0  0  0  0  0  0  0
   -2.7201   -4.2527    6.7350 C   0  0  0  0  0  0  0  0  0  0  0  0
   -2.2836   -2.9872    6.3536 C   0  0  0  0  0  0  0  0  0  0  0  0
   -0.9808   -2.5340    7.3307 S   0  0  0  0  0  0  0  0  0  0  0  0
   -2.8062   -2.2274    5.2075 C   0  0  0  0  0  0  0  0  0  0  0  0
   -2.3764   -0.9647    4.7985 C   0  0  0  0  0  0  0  0  0  0  0  0
   -2.9553   -0.5632    3.5825 C   0  0  0  0  0  0  0  0  0  0  0  0
   -2.6963    0.6383    2.8878 C   0  0  0  0  0  0  0  0  0  0  0  0
   -1.8359    1.6850    3.4602 C   0  0  0  0  0  0  0  0  0  0  0  0
   -0.4536    1.4893    3.5581 C   0  0  0  0  0  0  0  0  0  0  0  0
    0.3503    2.4207    4.2281 C   0  0  0  0  0  0  0  0  0  0  0  0
    1.6815    2.1781    4.3076 F   0  0  0  0  0  0  0  0  0  0  0  0
   -0.2353    3.5701    4.8114 C   0  0  0  0  0  0  0  0  0  0  0  0
    0.4970    4.5297    5.5341 O   0  0  0  0  0  0  0  0  0  0  0  0
    1.9039    4.5210    5.7380 C   0  0  0  0  0  0  0  0  0  0  0  0
    2.3033    5.7497    6.5431 C   0  0  0  0  0  0  0  0  0  0  0  0
   -1.6182    3.7650    4.6924 C   0  0  0  0  0  0  0  0  0  0  0  0
   -2.2006    4.8569    5.2484 F   0  0  0  0  0  0  0  0  0  0  0  0
   -2.4134    2.8334    4.0189 C   0  0  0  0  0  0  0  0  0  0  0  0
   -3.3275    0.7996    1.6401 C   0  0  0  0  0  0  0  0  0  0  0  0
   -4.1930   -0.1592    1.1075 C   0  0  0  0  0  0  0  0  0  0  0  0
   -4.4786   -1.3457    1.8138 C   0  0  0  0  0  0  0  0  0  0  0  0
   -5.3420   -2.4051    1.2452 C   0  0  0  0  0  0  0  0  0  0  0  0
   -4.8062   -3.6654    0.9546 C   0  0  0  0  0  0  0  0  0  0  0  0
   -5.6124   -4.6770    0.4328 C   0  0  0  0  0  0  0  0  0  0  0  0
   -6.9742   -4.4451    0.1932 C   0  0  0  0  0  0  0  0  0  0  0  0
   -7.7306   -5.5002   -0.3286 O   0  0  0  0  0  0  0  0  0  0  0  0
   -9.0815   -5.7840    0.0329 C   0  0  0  0  0  0  0  0  0  0  0  0
   -9.5173   -7.0847   -0.6296 C   0  0  0  0  0  0  0  0  0  0  0  0
   -7.5156   -3.1720    0.4716 C   0  0  0  0  0  0  0  0  0  0  0  0
   -6.6987   -2.1614    0.9944 C   0  0  0  0  0  0  0  0  0  0  0  0
   -8.8118   -2.8849    0.1948 F   0  0  0  0  0  0  0  0  0  0  0  0
   -5.0778   -5.9001    0.1920 F   0  0  0  0  0  0  0  0  0  0  0  0
   -3.8342   -1.5110    3.0517 C   0  0  0  0  0  0  0  0  0  0  0  0
   -3.9182   -2.8280    4.0902 S   0  0  0  0  0  0  0  0  0  0  0  0
   -4.6024    0.1342   -0.1989 C   0  0  0  0  0  0  0  0  0  0  0  0
   -4.0399    1.3071   -0.7011 C   0  0  0  0  0  0  0  0  0  0  0  0
   -3.0460    1.9935    0.4851 S   0  0  0  0  0  0  0  0  0  0  0  0
   -4.0230    1.6405   -2.1323 C   0  0  0  0  0  0  0  0  0  0  0  0
   -2.9273    2.1924   -2.8005 C   0  0  0  0  0  0  0  0  0  0  0  0
   -2.9329    1.9360   -4.1886 C   0  0  0  0  0  0  0  0  0  0  0  0
   -1.8486    2.1401   -5.0689 C   0  0  0  0  0  0  0  0  0  0  0  0
   -0.6452    2.8833   -4.6259 C   0  0  0  0  0  0  0  0  0  0  0  0
   -0.7594    4.2328   -4.2674 C   0  0  0  0  0  0  0  0  0  0  0  0
    0.3419    4.9271   -3.7645 C   0  0  0  0  0  0  0  0  0  0  0  0
    0.2043    6.2258   -3.4056 F   0  0  0  0  0  0  0  0  0  0  0  0
    1.5853    4.2943   -3.6385 C   0  0  0  0  0  0  0  0  0  0  0  0
    2.6571    5.0623   -3.1632 O   0  0  0  0  0  0  0  0  0  0  0  0
    4.0339    4.7888   -3.4230 C   0  0  0  0  0  0  0  0  0  0  0  0
    4.8638    6.0120   -3.0726 C   0  0  0  0  0  0  0  0  0  0  0  0
    1.7078    2.9382   -4.0052 C   0  0  0  0  0  0  0  0  0  0  0  0
    2.8785    2.2735   -3.8578 F   0  0  0  0  0  0  0  0  0  0  0  0
    0.5962    2.2378   -4.4878 C   0  0  0  0  0  0  0  0  0  0  0  0
   -1.9184    1.4887   -6.3186 C   0  0  0  0  0  0  0  0  0  0  0  0
   -3.0180    0.7171   -6.7062 C   0  0  0  0  0  0  0  0  0  0  0  0
   -4.1442    0.6149   -5.8667 C   0  0  0  0  0  0  0  0  0  0  0  0
   -5.2874   -0.2571   -6.1976 C   0  0  0  0  0  0  0  0  0  0  0  0
   -5.1452   -1.6511   -6.1636 C   0  0  0  0  0  0  0  0  0  0  0  0
   -6.2214   -2.4779   -6.5017 C   0  0  0  0  0  0  0  0  0  0  0  0
   -7.4531   -1.9177   -6.8796 C   0  0  0  0  0  0  0  0  0  0  0  0
   -8.4835   -2.7996   -7.2509 O   0  0  0  0  0  0  0  0  0  0  0  0
   -9.5228   -2.5152   -8.1926 C   0  0  0  0  0  0  0  0  0  0  0  0
   -8.9362   -2.2263   -9.5728 C   0  0  0  0  0  0  0  0  0  0  0  0
   -7.6016   -0.5132   -6.8742 C   0  0  0  0  0  0  0  0  0  0  0  0
   -6.5225    0.3046   -6.5338 C   0  0  0  0  0  0  0  0  0  0  0  0
   -8.7867    0.0759   -7.1652 F   0  0  0  0  0  0  0  0  0  0  0  0
   -6.0637   -3.8256   -6.4950 F   0  0  0  0  0  0  0  0  0  0  0  0
   -4.0586    1.2228   -4.6052 C   0  0  0  0  0  0  0  0  0  0  0  0
   -5.0240    0.8945   -3.2744 S   0  0  0  0  0  0  0  0  0  0  0  0
   -2.7810   -0.0581   -7.8562 C   0  0  0  0  0  0  0  0  0  0  0  0
   -1.4676    0.0334   -8.3334 C   0  0  0  0  0  0  0  0  0  0  0  0
   -0.6605    1.1900   -7.3933 S   0  0  0  0  0  0  0  0  0  0  0  0
   -0.7324   -1.1350   -8.8536 C   0  0  0  0  0  0  0  0  0  0  0  0
   -0.9609   -2.3990   -8.3016 C   0  0  0  0  0  0  0  0  0  0  0  0
    0.2144   -3.1293   -8.0572 C   0  0  0  0  0  0  0  0  0  0  0  0
    0.3379   -4.1785   -7.1205 C   0  0  0  0  0  0  0  0  0  0  0  0
   -0.8265   -4.8797   -6.5397 C   0  0  0  0  0  0  0  0  0  0  0  0
   -2.0324   -4.1885   -5.5845 S   0  0  0  0  0  0  0  0  0  0  0  0
   -2.8602   -5.6152   -5.2658 C   0  0  0  0  0  0  0  0  0  0  0  0
   -4.0672   -5.7285   -4.3870 C   0  0  0  0  0  0  0  0  0  0  0  0
   -3.6599   -5.8696   -2.9248 C   0  0  0  0  0  0  0  0  0  0  0  0
   -2.1736   -6.6682   -5.8734 C   0  0  0  0  0  0  0  0  0  0  0  0
   -2.6589   -8.3512   -5.7390 Cl  0  0  0  0  0  0  0  0  0  0  0  0
   -1.0329   -6.2556   -6.5819 C   0  0  0  0  0  0  0  0  0  0  0  0
    0.0222   -7.3590   -7.4591 Cl  0  0  0  0  0  0  0  0  0  0  0  0
    1.6230   -4.4024   -6.6055 C   0  0  0  0  0  0  0  0  0  0  0  0
    2.7641   -3.7681   -7.1123 C   0  0  0  0  0  0  0  0  0  0  0  0
    2.6644   -2.9315   -8.2599 C   0  0  0  0  0  0  0  0  0  0  0  0
    3.8256   -2.4398   -9.0582 C   0  0  0  0  0  0  0  0  0  0  0  0
    5.3172   -1.9089   -8.4710 S   0  0  0  0  0  0  0  0  0  0  0  0
    6.0629   -1.6658   -9.9504 C   0  0  0  0  0  0  0  0  0  0  0  0
    7.5128   -1.3282  -10.1344 C   0  0  0  0  0  0  0  0  0  0  0  0
    8.3404   -2.5939  -10.3426 C   0  0  0  0  0  0  0  0  0  0  0  0
    5.1523   -1.9964  -10.9499 C   0  0  0  0  0  0  0  0  0  0  0  0
    3.9102   -2.4327  -10.4584 C   0  0  0  0  0  0  0  0  0  0  0  0
    2.6518   -3.0332  -11.5324 Cl  0  0  0  0  0  0  0  0  0  0  0  0
    5.5379   -1.9187  -12.6689 Cl  0  0  0  0  0  0  0  0  0  0  0  0
    1.3551   -2.5391   -8.6108 C   0  0  0  0  0  0  0  0  0  0  0  0
    0.9112   -1.0443   -9.2469 S   0  0  0  0  0  0  0  0  0  0  0  0
    3.8485   -3.8306   -6.2117 C   0  0  0  0  0  0  0  0  0  0  0  0
    3.5301   -4.3824   -4.9604 C   0  0  0  0  0  0  0  0  0  0  0  0
    1.9506   -4.9691   -5.0543 S   0  0  0  0  0  0  0  0  0  0  0  0
    4.0927   -3.8498   -3.6967 C   0  0  0  0  0  0  0  0  0  0  0  0
    3.3799   -3.8075   -2.4849 C   0  0  0  0  0  0  0  0  0  0  0  0
    3.7236   -2.7123   -1.6667 C   0  0  0  0  0  0  0  0  0  0  0  0
    3.0045   -2.2760   -0.5348 C   0  0  0  0  0  0  0  0  0  0  0  0
    2.1465   -3.2052    0.2312 C   0  0  0  0  0  0  0  0  0  0  0  0
    2.7411   -4.6128    0.9407 S   0  0  0  0  0  0  0  0  0  0  0  0
    1.3426   -5.0190    1.7773 C   0  0  0  0  0  0  0  0  0  0  0  0
    1.1909   -6.2081    2.6824 C   0  0  0  0  0  0  0  0  0  0  0  0
    0.5406   -7.3746    1.9517 C   0  0  0  0  0  0  0  0  0  0  0  0
    0.3717   -4.0569    1.4964 C   0  0  0  0  0  0  0  0  0  0  0  0
   -1.2265   -4.0887    2.2046 Cl  0  0  0  0  0  0  0  0  0  0  0  0
    0.8147   -3.0397    0.6282 C   0  0  0  0  0  0  0  0  0  0  0  0
   -0.2329   -1.7516    0.0409 Cl  0  0  0  0  0  0  0  0  0  0  0  0
    3.2816   -0.9701   -0.0778 C   0  0  0  0  0  0  0  0  0  0  0  0
    4.2923   -0.1714   -0.6305 C   0  0  0  0  0  0  0  0  0  0  0  0
    5.0949   -0.6720   -1.6771 C   0  0  0  0  0  0  0  0  0  0  0  0
    6.1473    0.1378   -2.3112 C   0  0  0  0  0  0  0  0  0  0  0  0
    5.8760    1.5353   -3.1999 S   0  0  0  0  0  0  0  0  0  0  0  0
    7.4853    1.8248   -3.5989 C   0  0  0  0  0  0  0  0  0  0  0  0
    7.9712    3.0194   -4.3604 C   0  0  0  0  0  0  0  0  0  0  0  0
    8.3789    4.1365   -3.4079 C   0  0  0  0  0  0  0  0  0  0  0  0
    8.2669    0.8154   -3.0333 C   0  0  0  0  0  0  0  0  0  0  0  0
    7.5133   -0.1380   -2.3260 C   0  0  0  0  0  0  0  0  0  0  0  0
    8.2217   -1.5247   -1.5031 Cl  0  0  0  0  0  0  0  0  0  0  0  0
   10.0184    0.7468   -3.1839 Cl  0  0  0  0  0  0  0  0  0  0  0  0
    4.7508   -1.9320   -2.1959 C   0  0  0  0  0  0  0  0  0  0  0  0
    5.2185   -2.5830   -3.6722 S   0  0  0  0  0  0  0  0  0  0  0  0
    4.3376    1.1232   -0.0831 C   0  0  0  0  0  0  0  0  0  0  0  0
    3.3283    1.3512    0.8430 C   0  0  0  0  0  0  0  0  0  0  0  0
    2.4290   -0.0552    1.0469 S   0  0  0  0  0  0  0  0  0  0  0  0
    2.9120    2.6784    1.3079 C   0  0  0  0  0  0  0  0  0  0  0  0
    3.7478    3.6547    1.8426 C   0  0  0  0  0  0  0  0  0  0  0  0
    3.0944    4.8842    2.0670 C   0  0  0  0  0  0  0  0  0  0  0  0
    3.6549    6.0497    2.6383 C   0  0  0  0  0  0  0  0  0  0  0  0
    5.0613    6.1111    3.1165 C   0  0  0  0  0  0  0  0  0  0  0  0
    5.3453    6.5710    4.4122 C   0  0  0  0  0  0  0  0  0  0  0  0
    6.6610    6.6686    4.8662 C   0  0  0  0  0  0  0  0  0  0  0  0
    6.9038    7.1470    6.1133 F   0  0  0  0  0  0  0  0  0  0  0  0
    7.7298    6.2909    4.0420 C   0  0  0  0  0  0  0  0  0  0  0  0
    9.0244    6.4066    4.5731 O   0  0  0  0  0  0  0  0  0  0  0  0
   10.1736    5.6723    4.1607 C   0  0  0  0  0  0  0  0  0  0  0  0
    9.9866    4.1797    4.4168 C   0  0  0  0  0  0  0  0  0  0  0  0
    7.4522    5.8266    2.7376 C   0  0  0  0  0  0  0  0  0  0  0  0
    8.4435    5.4892    1.8739 F   0  0  0  0  0  0  0  0  0  0  0  0
    6.1298    5.7607    2.2752 C   0  0  0  0  0  0  0  0  0  0  0  0
    2.7917    7.1567    2.7742 C   0  0  0  0  0  0  0  0  0  0  0  0
    1.4459    7.1305    2.3857 C   0  0  0  0  0  0  0  0  0  0  0  0
    0.8845    5.9634    1.8273 C   0  0  0  0  0  0  0  0  0  0  0  0
   -0.5131    5.9139    1.3326 C   0  0  0  0  0  0  0  0  0  0  0  0
   -1.5961    6.2402    2.1671 C   0  0  0  0  0  0  0  0  0  0  0  0
   -2.9106    6.1903    1.6817 C   0  0  0  0  0  0  0  0  0  0  0  0
   -3.1533    5.7956    0.3498 C   0  0  0  0  0  0  0  0  0  0  0  0
   -4.4344    5.6979   -0.2176 O   0  0  0  0  0  0  0  0  0  0  0  0
   -5.6499    6.1549    0.3726 C   0  0  0  0  0  0  0  0  0  0  0  0
   -6.7608    6.0234   -0.6517 C   0  0  0  0  0  0  0  0  0  0  0  0
   -2.0719    5.4803   -0.4756 C   0  0  0  0  0  0  0  0  0  0  0  0
   -0.7648    5.5438    0.0038 C   0  0  0  0  0  0  0  0  0  0  0  0
   -2.2885    5.1257   -1.7621 F   0  0  0  0  0  0  0  0  0  0  0  0
   -3.9232    6.5327    2.5156 F   0  0  0  0  0  0  0  0  0  0  0  0
    1.7429    4.8553    1.6899 C   0  0  0  0  0  0  0  0  0  0  0  0
    1.3755    3.3224    1.0915 S   0  0  0  0  0  0  0  0  0  0  0  0
    0.7966    8.3637    2.5813 C   0  0  0  0  0  0  0  0  0  0  0  0
    1.6209    9.3406    3.1242 C   0  0  0  0  0  0  0  0  0  0  0  0
    3.1620    8.6963    3.3441 S   0  0  0  0  0  0  0  0  0  0  0  0
    0.5361   -8.0907   11.9637 H   0  0  0  0  0  0  0  0  0  0  0  0
    1.3076   -5.6709   11.3936 H   0  0  0  0  0  0  0  0  0  0  0  0
    4.8612   -1.2770   11.0642 H   0  0  0  0  0  0  0  0  0  0  0  0
    5.2926   -2.8761   10.3716 H   0  0  0  0  0  0  0  0  0  0  0  0
    4.4151   -0.4221    8.7022 H   0  0  0  0  0  0  0  0  0  0  0  0
    4.9927   -2.0166    8.0686 H   0  0  0  0  0  0  0  0  0  0  0  0
    6.1176   -0.9374    8.9715 H   0  0  0  0  0  0  0  0  0  0  0  0
   -4.4083   -9.8516    4.7658 H   0  0  0  0  0  0  0  0  0  0  0  0
   -5.8579  -10.1428    5.7838 H   0  0  0  0  0  0  0  0  0  0  0  0
   -6.8873   -8.0099    4.9626 H   0  0  0  0  0  0  0  0  0  0  0  0
   -5.4083   -7.6881    3.9629 H   0  0  0  0  0  0  0  0  0  0  0  0
   -6.4540   -9.1021    3.5894 H   0  0  0  0  0  0  0  0  0  0  0  0
   -3.5341   -4.7715    6.2439 H   0  0  0  0  0  0  0  0  0  0  0  0
   -1.6551   -0.3787    5.3502 H   0  0  0  0  0  0  0  0  0  0  0  0
    0.0021    0.6081    3.1269 H   0  0  0  0  0  0  0  0  0  0  0  0
    2.4336    4.5375    4.7644 H   0  0  0  0  0  0  0  0  0  0  0  0
    2.1974    3.6112    6.3038 H   0  0  0  0  0  0  0  0  0  0  0  0
    1.7583    5.7570    7.5078 H   0  0  0  0  0  0  0  0  0  0  0  0
    3.3925    5.7219    6.7460 H   0  0  0  0  0  0  0  0  0  0  0  0
    2.0572    6.6677    5.9680 H   0  0  0  0  0  0  0  0  0  0  0  0
   -3.4843    2.9872    3.9623 H   0  0  0  0  0  0  0  0  0  0  0  0
   -3.7606   -3.8660    1.1282 H   0  0  0  0  0  0  0  0  0  0  0  0
   -9.1549   -5.8961    1.1380 H   0  0  0  0  0  0  0  0  0  0  0  0
   -9.7689   -4.9772   -0.3026 H   0  0  0  0  0  0  0  0  0  0  0  0
   -8.8312   -7.9088   -0.3353 H   0  0  0  0  0  0  0  0  0  0  0  0
  -10.5483   -7.3385   -0.3146 H   0  0  0  0  0  0  0  0  0  0  0  0
   -9.4932   -6.9648   -1.7361 H   0  0  0  0  0  0  0  0  0  0  0  0
   -7.1240   -1.1861    1.1927 H   0  0  0  0  0  0  0  0  0  0  0  0
   -5.1984   -0.5376   -0.8020 H   0  0  0  0  0  0  0  0  0  0  0  0
   -2.0696    2.5945   -2.2799 H   0  0  0  0  0  0  0  0  0  0  0  0
   -1.7103    4.7427   -4.3675 H   0  0  0  0  0  0  0  0  0  0  0  0
    4.1674    4.5670   -4.5065 H   0  0  0  0  0  0  0  0  0  0  0  0
    4.3759    3.9299   -2.8117 H   0  0  0  0  0  0  0  0  0  0  0  0
    4.3493    6.9348   -3.4062 H   0  0  0  0  0  0  0  0  0  0  0  0
    5.0143    6.0549   -1.9728 H   0  0  0  0  0  0  0  0  0  0  0  0
    5.8562    5.9561   -3.5709 H   0  0  0  0  0  0  0  0  0  0  0  0
    0.6971    1.1898   -4.7298 H   0  0  0  0  0  0  0  0  0  0  0  0
   -4.1999   -2.0944   -5.8886 H   0  0  0  0  0  0  0  0  0  0  0  0
  -10.1806   -3.4089   -8.2656 H   0  0  0  0  0  0  0  0  0  0  0  0
  -10.1622   -1.6741   -7.8493 H   0  0  0  0  0  0  0  0  0  0  0  0
   -8.2750   -3.0573   -9.8888 H   0  0  0  0  0  0  0  0  0  0  0  0
   -8.3470   -1.2854   -9.5540 H   0  0  0  0  0  0  0  0  0  0  0  0
   -9.7555   -2.1139  -10.3158 H   0  0  0  0  0  0  0  0  0  0  0  0
   -6.6471    1.3783   -6.5383 H   0  0  0  0  0  0  0  0  0  0  0  0
   -3.4714   -0.8090   -8.2138 H   0  0  0  0  0  0  0  0  0  0  0  0
   -1.9028   -2.6493   -7.8392 H   0  0  0  0  0  0  0  0  0  0  0  0
   -4.6989   -4.8217   -4.5121 H   0  0  0  0  0  0  0  0  0  0  0  0
   -4.6797   -6.6069   -4.6903 H   0  0  0  0  0  0  0  0  0  0  0  0
   -3.1717   -4.9344   -2.5737 H   0  0  0  0  0  0  0  0  0  0  0  0
   -2.9539   -6.7212   -2.7913 H   0  0  0  0  0  0  0  0  0  0  0  0
   -4.5584   -6.0535   -2.3115 H   0  0  0  0  0  0  0  0  0  0  0  0
    7.8949   -0.7948   -9.2344 H   0  0  0  0  0  0  0  0  0  0  0  0
    7.6345   -0.6626  -11.0143 H   0  0  0  0  0  0  0  0  0  0  0  0
    8.0331   -3.1153  -11.2742 H   0  0  0  0  0  0  0  0  0  0  0  0
    8.2135   -3.2836   -9.4830 H   0  0  0  0  0  0  0  0  0  0  0  0
    9.4148   -2.3330  -10.4221 H   0  0  0  0  0  0  0  0  0  0  0  0
    4.7591   -3.2775   -6.3384 H   0  0  0  0  0  0  0  0  0  0  0  0
    2.5149   -4.4277   -2.2846 H   0  0  0  0  0  0  0  0  0  0  0  0
    2.1921   -6.5304    3.0479 H   0  0  0  0  0  0  0  0  0  0  0  0
    0.5759   -5.9335    3.5657 H   0  0  0  0  0  0  0  0  0  0  0  0
   -0.4816   -7.1018    1.6147 H   0  0  0  0  0  0  0  0  0  0  0  0
    0.4538   -8.2407    2.6448 H   0  0  0  0  0  0  0  0  0  0  0  0
    1.1577   -7.6771    1.0765 H   0  0  0  0  0  0  0  0  0  0  0  0
    8.8277    2.7380   -5.0057 H   0  0  0  0  0  0  0  0  0  0  0  0
    7.1540    3.3831   -5.0170 H   0  0  0  0  0  0  0  0  0  0  0  0
    9.2712    3.8405   -2.8211 H   0  0  0  0  0  0  0  0  0  0  0  0
    7.5467    4.3749   -2.7159 H   0  0  0  0  0  0  0  0  0  0  0  0
    8.6213    5.0479   -3.9943 H   0  0  0  0  0  0  0  0  0  0  0  0
    5.0151    1.8932   -0.4200 H   0  0  0  0  0  0  0  0  0  0  0  0
    4.7867    3.4676    2.0702 H   0  0  0  0  0  0  0  0  0  0  0  0
    4.5464    6.8813    5.0697 H   0  0  0  0  0  0  0  0  0  0  0  0
   10.4237    5.8749    3.0987 H   0  0  0  0  0  0  0  0  0  0  0  0
   11.0360    6.0212    4.7671 H   0  0  0  0  0  0  0  0  0  0  0  0
   10.9471    3.6455    4.2601 H   0  0  0  0  0  0  0  0  0  0  0  0
    9.2269    3.7584    3.7259 H   0  0  0  0  0  0  0  0  0  0  0  0
    9.6519    4.0144    5.4614 H   0  0  0  0  0  0  0  0  0  0  0  0
    5.9384    5.4432    1.2582 H   0  0  0  0  0  0  0  0  0  0  0  0
   -1.4236    6.5321    3.1971 H   0  0  0  0  0  0  0  0  0  0  0  0
   -5.5473    7.2234    0.6624 H   0  0  0  0  0  0  0  0  0  0  0  0
   -5.8915    5.5292    1.2586 H   0  0  0  0  0  0  0  0  0  0  0  0
   -6.9940    4.9458   -0.8146 H   0  0  0  0  0  0  0  0  0  0  0  0
   -6.4669    6.4795   -1.6210 H   0  0  0  0  0  0  0  0  0  0  0  0
   -7.6790    6.5313   -0.2772 H   0  0  0  0  0  0  0  0  0  0  0  0
    0.0553    5.3041   -0.6616 H   0  0  0  0  0  0  0  0  0  0  0  0
   -0.2323    8.5612    2.3244 H   0  0  0  0  0  0  0  0  0  0  0  0
    1.3221   10.3560    3.3483 H   0  0  0  0  0  0  0  0  0  0  0  0
  1  2  2  0
  2  3  1  0
  3  4  2  0
  4  5  1  0
  5  6  1  0
  6  7  1  0
  7  8  1  0
  8  9  1  0
  7 10  2  0
 10 11  1  0
 10 12  1  0
 12 13  1  0
  4 14  1  0
 14 15  2  0
 15 16  1  0
 16 17  1  0
 17 18  1  0
 18 19  1  0
 19 20  1  0
 20 21  1  0
 19 22  2  0
 22 23  1  0
 23 24  1  0
 22 25  1  0
 16 26  2  0
 26 27  1  0
 15 28  1  0
 28 29  2  0
 29 30  1  0
 29 31  1  0
 31 32  2  0
 32 33  1  0
 33 34  2  0
 34 35  1  0
 35 36  2  0
 36 37  1  0
 37 38  1  0
 37 39  2  0
 39 40  1  0
 40 41  1  0
 41 42  1  0
 39 43  1  0
 43 44  1  0
 43 45  2  0
 34 46  1  0
 46 47  2  0
 47 48  1  0
 48 49  1  0
 49 50  2  0
 50 51  1  0
 51 52  2  0
 52 53  1  0
 53 54  1  0
 54 55  1  0
 52 56  1  0
 56 57  2  0
 56 58  1  0
 51 59  1  0
 48 60  2  0
 60 61  1  0
 47 62  1  0
 62 63  2  0
 63 64  1  0
 63 65  1  0
 65 66  2  0
 66 67  1  0
 67 68  2  0
 68 69  1  0
 69 70  2  0
 70 71  1  0
 71 72  1  0
 71 73  2  0
 73 74  1  0
 74 75  1  0
 75 76  1  0
 73 77  1  0
 77 78  1  0
 77 79  2  0
 68 80  1  0
 80 81  2  0
 81 82  1  0
 82 83  1  0
 83 84  2  0
 84 85  1  0
 85 86  2  0
 86 87  1  0
 87 88  1  0
 88 89  1  0
 86 90  1  0
 90 91  2  0
 90 92  1  0
 85 93  1  0
 82 94  2  0
 94 95  1  0
 81 96  1  0
 96 97  2  0
 97 98  1  0
 97 99  1  0
 99100  2  0
100101  1  0
101102  2  0
102103  1  0
103104  1  0
104105  1  0
105106  1  0
106107  1  0
105108  2  0
108109  1  0
108110  1  0
110111  1  0
102112  1  0
112113  2  0
113114  1  0
114115  1  0
115116  1  0
116117  1  0
117118  1  0
118119  1  0
117120  2  0
120121  1  0
121122  1  0
120123  1  0
114124  2  0
124125  1  0
113126  1  0
126127  2  0
127128  1  0
127129  1  0
129130  2  0
130131  1  0
131132  2  0
132133  1  0
133134  1  0
134135  1  0
135136  1  0
136137  1  0
135138  2  0
138139  1  0
138140  1  0
140141  1  0
132142  1  0
142143  2  0
143144  1  0
144145  1  0
145146  1  0
146147  1  0
147148  1  0
148149  1  0
147150  2  0
150151  1  0
151152  1  0
150153  1  0
144154  2  0
154155  1  0
143156  1  0
156157  2  0
157158  1  0
157159  1  0
159160  2  0
160161  1  0
161162  2  0
162163  1  0
163164  2  0
164165  1  0
165166  1  0
165167  2  0
167168  1  0
168169  1  0
169170  1  0
167171  1  0
171172  1  0
171173  2  0
162174  1  0
174175  2  0
175176  1  0
176177  1  0
177178  2  0
178179  1  0
179180  2  0
180181  1  0
181182  1  0
182183  1  0
180184  1  0
184185  2  0
184186  1  0
179187  1  0
176188  2  0
188189  1  0
175190  1  0
190191  2  0
191192  1  0
 27  1  1  0
 61 31  1  0
 95 65  1  0
125 99  1  0
155129  1  0
189159  1  0
 26  3  1  0
 60 33  1  0
 94 67  1  0
124101  1  0
154131  1  0
188161  1  0
 12  5  2  0
 30 14  1  0
 45 35  1  0
 64 46  1  0
 79 69  1  0
 98 80  1  0
110103  2  0
128112  1  0
140133  2  0
158142  1  0
173163  1  0
192174  1  0
 23 17  2  0
 57 49  1  0
 91 83  1  0
121115  2  0
151145  2  0
185177  1  0
  1193  1  0
  2194  1  0
  8195  1  0
  8196  1  0
  9197  1  0
  9198  1  0
  9199  1  0
 20200  1  0
 20201  1  0
 21202  1  0
 21203  1  0
 21204  1  0
 28205  1  0
 32206  1  0
 36207  1  0
 41208  1  0
 41209  1  0
 42210  1  0
 42211  1  0
 42212  1  0
 45213  1  0
 50214  1  0
 54215  1  0
 54216  1  0
 55217  1  0
 55218  1  0
 55219  1  0
 57220  1  0
 62221  1  0
 66222  1  0
 70223  1  0
 75224  1  0
 75225  1  0
 76226  1  0
 76227  1  0
 76228  1  0
 79229  1  0
 84230  1  0
 88231  1  0
 88232  1  0
 89233  1  0
 89234  1  0
 89235  1  0
 91236  1  0
 96237  1  0
100238  1  0
106239  1  0
106240  1  0
107241  1  0
107242  1  0
107243  1  0
118244  1  0
118245  1  0
119246  1  0
119247  1  0
119248  1  0
126249  1  0
130250  1  0
136251  1  0
136252  1  0
137253  1  0
137254  1  0
137255  1  0
148256  1  0
148257  1  0
149258  1  0
149259  1  0
149260  1  0
156261  1  0
160262  1  0
164263  1  0
169264  1  0
169265  1  0
170266  1  0
170267  1  0
170268  1  0
173269  1  0
178270  1  0
182271  1  0
182272  1  0
183273  1  0
183274  1  0
183275  1  0
185276  1  0
190277  1  0
191278  1  0
M  END

