
     RDKit          3D

236257  0  0  0  0  0  0  0  0999 V2000
    3.3791   -8.1868    8.3134 C   0  0  0  0  0  0  0  0  0  0  0  0
    3.9352   -7.1265    7.5991 C   0  0  0  0  0  0  0  0  0  0  0  0
    3.1871   -6.7705    6.4618 C   0  0  0  0  0  0  0  0  0  0  0  0
    3.4792   -5.7336    5.5470 C   0  0  0  0  0  0  0  0  0  0  0  0
    4.6486   -4.8525    5.7418 C   0  0  0  0  0  0  0  0  0  0  0  0
    5.7291   -4.9042    4.8498 C   0  0  0  0  0  0  0  0  0  0  0  0
    6.9005   -4.1925    5.1241 C   0  0  0  0  0  0  0  0  0  0  0  0
    6.9975   -3.4126    6.2859 C   0  0  0  0  0  0  0  0  0  0  0  0
    8.5577   -2.6217    6.7093 S   0  0  0  0  0  0  0  0  0  0  0  0
    8.1912   -1.0356    5.8765 C   0  0  0  0  0  0  0  0  0  0  0  0
    8.6034   -1.0895    4.4105 C   0  0  0  0  0  0  0  0  0  0  0  0
    5.9043   -3.3276    7.1586 C   0  0  0  0  0  0  0  0  0  0  0  0
    5.9870   -2.5906    8.2939 F   0  0  0  0  0  0  0  0  0  0  0  0
    4.7338   -4.0406    6.8853 C   0  0  0  0  0  0  0  0  0  0  0  0
    2.5758   -5.5518    4.4799 C   0  0  0  0  0  0  0  0  0  0  0  0
    1.4411   -6.3484    4.3242 C   0  0  0  0  0  0  0  0  0  0  0  0
    1.1542   -7.3863    5.2317 C   0  0  0  0  0  0  0  0  0  0  0  0
   -0.0703   -8.1900    5.0999 C   0  0  0  0  0  0  0  0  0  0  0  0
   -1.2360   -7.8025    5.7722 C   0  0  0  0  0  0  0  0  0  0  0  0
   -2.4322   -8.4868    5.5509 C   0  0  0  0  0  0  0  0  0  0  0  0
   -2.4666   -9.5763    4.6719 C   0  0  0  0  0  0  0  0  0  0  0  0
   -4.0268  -10.4177    4.3534 S   0  0  0  0  0  0  0  0  0  0  0  0
   -3.9569  -11.4813    5.8389 C   0  0  0  0  0  0  0  0  0  0  0  0
   -2.9643  -12.6225    5.6579 C   0  0  0  0  0  0  0  0  0  0  0  0
   -1.2986   -9.9666    3.9992 C   0  0  0  0  0  0  0  0  0  0  0  0
   -0.1024   -9.2751    4.2162 C   0  0  0  0  0  0  0  0  0  0  0  0
   -1.3282  -11.0037    3.1240 F   0  0  0  0  0  0  0  0  0  0  0  0
    2.0495   -7.5689    6.2944 C   0  0  0  0  0  0  0  0  0  0  0  0
    1.9650   -8.6879    7.5410 S   0  0  0  0  0  0  0  0  0  0  0  0
    0.6085   -5.9399    3.2672 C   0  0  0  0  0  0  0  0  0  0  0  0
    1.0657   -4.8006    2.6009 C   0  0  0  0  0  0  0  0  0  0  0  0
    2.5379   -4.3428    3.3093 S   0  0  0  0  0  0  0  0  0  0  0  0
    0.2637   -4.0914    1.5635 C   0  0  0  0  0  0  0  0  0  0  0  0
   -1.1306   -4.7817    0.9308 S   0  0  0  0  0  0  0  0  0  0  0  0
   -1.7142   -3.4451    0.1135 C   0  0  0  0  0  0  0  0  0  0  0  0
   -0.7952   -2.4001    0.2824 C   0  0  0  0  0  0  0  0  0  0  0  0
    0.3048   -2.7446    1.1431 C   0  0  0  0  0  0  0  0  0  0  0  0
    1.3404   -1.7686    1.6755 C   0  0  0  0  0  0  0  0  0  0  0  0
    2.5957   -2.1680    1.2532 F   0  0  0  0  0  0  0  0  0  0  0  0
    1.1468   -0.4662    1.2616 F   0  0  0  0  0  0  0  0  0  0  0  0
    1.2888   -1.7515    3.0580 F   0  0  0  0  0  0  0  0  0  0  0  0
   -0.9995   -1.0448   -0.3709 C   0  0  0  0  0  0  0  0  0  0  0  0
    0.1489   -0.6741   -1.0514 F   0  0  0  0  0  0  0  0  0  0  0  0
   -1.3127   -0.1035    0.5959 F   0  0  0  0  0  0  0  0  0  0  0  0
   -2.0302   -1.0740   -1.2984 F   0  0  0  0  0  0  0  0  0  0  0  0
   -3.1611   -3.2755   -0.1178 C   0  0  0  0  0  0  0  0  0  0  0  0
   -3.9552   -4.2274   -0.6073 C   0  0  0  0  0  0  0  0  0  0  0  0
   -3.4922   -5.3568   -1.4287 C   0  0  0  0  0  0  0  0  0  0  0  0
   -3.0613   -5.1470   -3.0300 S   0  0  0  0  0  0  0  0  0  0  0  0
   -3.2348   -6.7415   -3.5259 C   0  0  0  0  0  0  0  0  0  0  0  0
   -3.5963   -7.5058   -2.3950 C   0  0  0  0  0  0  0  0  0  0  0  0
   -3.7670   -6.7140   -1.2149 C   0  0  0  0  0  0  0  0  0  0  0  0
   -4.1496   -7.2674    0.1451 C   0  0  0  0  0  0  0  0  0  0  0  0
   -3.2128   -8.2123    0.5341 F   0  0  0  0  0  0  0  0  0  0  0  0
   -5.4105   -7.8424    0.0719 F   0  0  0  0  0  0  0  0  0  0  0  0
   -4.1758   -6.2930    1.1219 F   0  0  0  0  0  0  0  0  0  0  0  0
   -3.7493   -9.0121   -2.4980 C   0  0  0  0  0  0  0  0  0  0  0  0
   -2.5147   -9.5655   -2.7857 F   0  0  0  0  0  0  0  0  0  0  0  0
   -4.2124   -9.6042   -1.3385 F   0  0  0  0  0  0  0  0  0  0  0  0
   -4.6378   -9.3288   -3.5104 F   0  0  0  0  0  0  0  0  0  0  0  0
   -3.0323   -7.2748   -4.9086 C   0  0  0  0  0  0  0  0  0  0  0  0
   -3.0239   -6.5853   -6.0641 C   0  0  0  0  0  0  0  0  0  0  0  0
   -3.2981   -5.1493   -6.2186 C   0  0  0  0  0  0  0  0  0  0  0  0
   -4.4025   -4.4540   -5.7282 C   0  0  0  0  0  0  0  0  0  0  0  0
   -4.3067   -3.0680   -5.9470 C   0  0  0  0  0  0  0  0  0  0  0  0
   -5.1518   -2.0865   -5.3972 C   0  0  0  0  0  0  0  0  0  0  0  0
   -6.2720   -2.4388   -4.5087 C   0  0  0  0  0  0  0  0  0  0  0  0
   -6.0377   -2.6559   -3.1460 C   0  0  0  0  0  0  0  0  0  0  0  0
   -7.1045   -2.9292   -2.2856 C   0  0  0  0  0  0  0  0  0  0  0  0
   -8.4098   -2.9861   -2.7826 C   0  0  0  0  0  0  0  0  0  0  0  0
   -9.7800   -3.2966   -1.6571 S   0  0  0  0  0  0  0  0  0  0  0  0
   -9.8484   -5.0987   -1.9535 C   0  0  0  0  0  0  0  0  0  0  0  0
   -8.7849   -5.8322   -1.1435 C   0  0  0  0  0  0  0  0  0  0  0  0
   -8.6487   -2.7560   -4.1461 C   0  0  0  0  0  0  0  0  0  0  0  0
   -9.9142   -2.7767   -4.6335 F   0  0  0  0  0  0  0  0  0  0  0  0
   -7.5821   -2.4830   -5.0046 C   0  0  0  0  0  0  0  0  0  0  0  0
   -4.7718   -0.7493   -5.5741 C   0  0  0  0  0  0  0  0  0  0  0  0
   -3.6278   -0.3772   -6.2871 C   0  0  0  0  0  0  0  0  0  0  0  0
   -2.8142   -1.3578   -6.8936 C   0  0  0  0  0  0  0  0  0  0  0  0
   -1.5700   -1.0045   -7.6067 C   0  0  0  0  0  0  0  0  0  0  0  0
   -0.4640   -0.4970   -6.9042 C   0  0  0  0  0  0  0  0  0  0  0  0
    0.7174   -0.1831   -7.5823 C   0  0  0  0  0  0  0  0  0  0  0  0
    0.8044   -0.3637   -8.9680 C   0  0  0  0  0  0  0  0  0  0  0  0
    2.3493   -0.0064   -9.8196 S   0  0  0  0  0  0  0  0  0  0  0  0
    2.0688    1.7966   -9.9798 C   0  0  0  0  0  0  0  0  0  0  0  0
    1.1024    2.1026  -11.1153 C   0  0  0  0  0  0  0  0  0  0  0  0
   -0.2930   -0.8800   -9.6716 C   0  0  0  0  0  0  0  0  0  0  0  0
   -1.4750   -1.1979   -8.9936 C   0  0  0  0  0  0  0  0  0  0  0  0
   -0.2154   -1.0827  -11.0105 F   0  0  0  0  0  0  0  0  0  0  0  0
   -3.1736   -2.7010   -6.6828 C   0  0  0  0  0  0  0  0  0  0  0  0
   -2.2682   -4.0779   -7.0203 S   0  0  0  0  0  0  0  0  0  0  0  0
   -3.3266    0.9935   -6.1635 C   0  0  0  0  0  0  0  0  0  0  0  0
   -4.1922    1.6693   -5.2998 C   0  0  0  0  0  0  0  0  0  0  0  0
   -5.3754    0.5877   -4.7617 S   0  0  0  0  0  0  0  0  0  0  0  0
   -3.8331    2.9060   -4.5841 C   0  0  0  0  0  0  0  0  0  0  0  0
   -4.1698    3.1387   -3.2484 C   0  0  0  0  0  0  0  0  0  0  0  0
   -3.3264    4.0678   -2.6172 C   0  0  0  0  0  0  0  0  0  0  0  0
   -3.2433    4.2925   -1.2238 C   0  0  0  0  0  0  0  0  0  0  0  0
   -4.1041    3.5780   -0.2599 C   0  0  0  0  0  0  0  0  0  0  0  0
   -4.9399    4.3003    0.6052 C   0  0  0  0  0  0  0  0  0  0  0  0
   -5.7801    3.6279    1.4957 C   0  0  0  0  0  0  0  0  0  0  0  0
   -5.7907    2.2260    1.5359 C   0  0  0  0  0  0  0  0  0  0  0  0
   -6.9320    1.3766    2.6393 S   0  0  0  0  0  0  0  0  0  0  0  0
   -5.6971    1.0371    3.9463 C   0  0  0  0  0  0  0  0  0  0  0  0
   -5.4423    2.2712    4.8072 C   0  0  0  0  0  0  0  0  0  0  0  0
   -4.9503    1.5010    0.6783 C   0  0  0  0  0  0  0  0  0  0  0  0
   -4.9649    0.1416    0.6883 F   0  0  0  0  0  0  0  0  0  0  0  0
   -4.1006    2.1727   -0.2014 C   0  0  0  0  0  0  0  0  0  0  0  0
   -2.1949    5.1169   -0.7794 C   0  0  0  0  0  0  0  0  0  0  0  0
   -1.2940    5.7207   -1.6601 C   0  0  0  0  0  0  0  0  0  0  0  0
   -1.3557    5.4722   -3.0494 C   0  0  0  0  0  0  0  0  0  0  0  0
   -0.2636    5.8867   -3.9644 C   0  0  0  0  0  0  0  0  0  0  0  0
    1.0644    5.4917   -3.7113 C   0  0  0  0  0  0  0  0  0  0  0  0
    2.1110    5.9984   -4.4862 C   0  0  0  0  0  0  0  0  0  0  0  0
    1.8413    6.8574   -5.5584 C   0  0  0  0  0  0  0  0  0  0  0  0
    3.2033    7.6118   -6.4641 S   0  0  0  0  0  0  0  0  0  0  0  0
    3.5073    6.1913   -7.5736 C   0  0  0  0  0  0  0  0  0  0  0  0
    4.9930    5.8557   -7.5762 C   0  0  0  0  0  0  0  0  0  0  0  0
    0.5101    7.1845   -5.8697 C   0  0  0  0  0  0  0  0  0  0  0  0
   -0.5353    6.7121   -5.0655 C   0  0  0  0  0  0  0  0  0  0  0  0
    0.2314    8.0073   -6.9117 F   0  0  0  0  0  0  0  0  0  0  0  0
   -2.3923    4.6358   -3.4936 C   0  0  0  0  0  0  0  0  0  0  0  0
   -2.5476    3.9190   -5.0042 S   0  0  0  0  0  0  0  0  0  0  0  0
   -0.2447    6.3732   -1.0028 C   0  0  0  0  0  0  0  0  0  0  0  0
   -0.2096    6.1417    0.3684 C   0  0  0  0  0  0  0  0  0  0  0  0
   -1.5910    5.2629    0.7901 S   0  0  0  0  0  0  0  0  0  0  0  0
    1.0740    6.0314    1.0667 C   0  0  0  0  0  0  0  0  0  0  0  0
    2.2308    5.6004    0.4304 C   0  0  0  0  0  0  0  0  0  0  0  0
    3.3232    5.4652    1.2822 C   0  0  0  0  0  0  0  0  0  0  0  0
    4.6103    5.0413    0.8929 C   0  0  0  0  0  0  0  0  0  0  0  0
    4.8768    4.5593   -0.4850 C   0  0  0  0  0  0  0  0  0  0  0  0
    4.1225    3.4913   -1.0055 C   0  0  0  0  0  0  0  0  0  0  0  0
    4.2719    3.1116   -2.3386 C   0  0  0  0  0  0  0  0  0  0  0  0
    5.1963    3.7666   -3.1587 C   0  0  0  0  0  0  0  0  0  0  0  0
    5.3124    3.3045   -4.8936 S   0  0  0  0  0  0  0  0  0  0  0  0
    6.4620    1.9058   -4.6391 C   0  0  0  0  0  0  0  0  0  0  0  0
    7.9084    2.3842   -4.6148 C   0  0  0  0  0  0  0  0  0  0  0  0
    5.9677    4.8186   -2.6377 C   0  0  0  0  0  0  0  0  0  0  0  0
    6.8474    5.4781   -3.4293 F   0  0  0  0  0  0  0  0  0  0  0  0
    5.8082    5.2121   -1.3050 C   0  0  0  0  0  0  0  0  0  0  0  0
    5.6031    5.0664    1.8875 C   0  0  0  0  0  0  0  0  0  0  0  0
    5.3363    5.4515    3.2079 C   0  0  0  0  0  0  0  0  0  0  0  0
    4.0313    5.8318    3.6011 C   0  0  0  0  0  0  0  0  0  0  0  0
    3.7240    6.2584    4.9789 C   0  0  0  0  0  0  0  0  0  0  0  0
    2.7894    5.5467    5.7478 C   0  0  0  0  0  0  0  0  0  0  0  0
    2.5079    5.9460    7.0559 C   0  0  0  0  0  0  0  0  0  0  0  0
    3.1459    7.0632    7.6038 C   0  0  0  0  0  0  0  0  0  0  0  0
    2.7893    7.5527    9.2985 S   0  0  0  0  0  0  0  0  0  0  0  0
    1.3151    8.5539    8.8867 C   0  0  0  0  0  0  0  0  0  0  0  0
    1.7086    9.9509    8.4256 C   0  0  0  0  0  0  0  0  0  0  0  0
    4.0860    7.7735    6.8405 C   0  0  0  0  0  0  0  0  0  0  0  0
    4.3655    7.3771    5.5302 C   0  0  0  0  0  0  0  0  0  0  0  0
    4.7356    8.8410    7.3685 F   0  0  0  0  0  0  0  0  0  0  0  0
    3.0364    5.8194    2.6042 C   0  0  0  0  0  0  0  0  0  0  0  0
    1.4017    6.2541    2.7143 S   0  0  0  0  0  0  0  0  0  0  0  0
    6.4757    5.3840    4.0339 C   0  0  0  0  0  0  0  0  0  0  0  0
    7.6175    4.9661    3.3609 C   0  0  0  0  0  0  0  0  0  0  0  0
    7.2264    4.6511    1.7495 S   0  0  0  0  0  0  0  0  0  0  0  0
    3.7863   -8.6074    9.2205 H   0  0  0  0  0  0  0  0  0  0  0  0
    4.8569   -6.6432    7.8999 H   0  0  0  0  0  0  0  0  0  0  0  0
    5.6804   -5.5330    3.9715 H   0  0  0  0  0  0  0  0  0  0  0  0
    7.7433   -4.2692    4.4516 H   0  0  0  0  0  0  0  0  0  0  0  0
    7.1151   -0.7812    5.9592 H   0  0  0  0  0  0  0  0  0  0  0  0
    8.7762   -0.2430    6.3885 H   0  0  0  0  0  0  0  0  0  0  0  0
    9.6702   -1.3947    4.3239 H   0  0  0  0  0  0  0  0  0  0  0  0
    7.9752   -1.8134    3.8584 H   0  0  0  0  0  0  0  0  0  0  0  0
    8.4778   -0.0873    3.9534 H   0  0  0  0  0  0  0  0  0  0  0  0
    3.9058   -3.9978    7.5848 H   0  0  0  0  0  0  0  0  0  0  0  0
   -1.2203   -6.9533    6.4472 H   0  0  0  0  0  0  0  0  0  0  0  0
   -3.3321   -8.1703    6.0609 H   0  0  0  0  0  0  0  0  0  0  0  0
   -4.9697  -11.9093    5.9910 H   0  0  0  0  0  0  0  0  0  0  0  0
   -3.6952  -10.8813    6.7392 H   0  0  0  0  0  0  0  0  0  0  0  0
   -3.0397  -13.3158    6.5208 H   0  0  0  0  0  0  0  0  0  0  0  0
   -1.9275  -12.2267    5.6109 H   0  0  0  0  0  0  0  0  0  0  0  0
   -3.1900  -13.1830    4.7269 H   0  0  0  0  0  0  0  0  0  0  0  0
    0.7943   -9.5739    3.6842 H   0  0  0  0  0  0  0  0  0  0  0  0
   -0.3335   -6.4212    3.0469 H   0  0  0  0  0  0  0  0  0  0  0  0
   -3.6364   -2.4207    0.3448 H   0  0  0  0  0  0  0  0  0  0  0  0
   -5.0213   -4.1648   -0.4202 H   0  0  0  0  0  0  0  0  0  0  0  0
   -2.8626   -8.3434   -5.0010 H   0  0  0  0  0  0  0  0  0  0  0  0
   -2.7708   -7.1233   -6.9715 H   0  0  0  0  0  0  0  0  0  0  0  0
   -5.2015   -4.9224   -5.1743 H   0  0  0  0  0  0  0  0  0  0  0  0
   -5.0310   -2.5945   -2.7501 H   0  0  0  0  0  0  0  0  0  0  0  0
   -6.9222   -3.0837   -1.2324 H   0  0  0  0  0  0  0  0  0  0  0  0
   -9.7314   -5.3275   -3.0337 H   0  0  0  0  0  0  0  0  0  0  0  0
  -10.8509   -5.4549   -1.6341 H   0  0  0  0  0  0  0  0  0  0  0  0
   -7.7698   -5.5751   -1.5070 H   0  0  0  0  0  0  0  0  0  0  0  0
   -8.8712   -5.5689   -0.0682 H   0  0  0  0  0  0  0  0  0  0  0  0
   -8.9300   -6.9256   -1.2503 H   0  0  0  0  0  0  0  0  0  0  0  0
   -7.7709   -2.2882   -6.0540 H   0  0  0  0  0  0  0  0  0  0  0  0
   -0.5183   -0.3520   -5.8325 H   0  0  0  0  0  0  0  0  0  0  0  0
    1.5653    0.2054   -7.0311 H   0  0  0  0  0  0  0  0  0  0  0  0
    1.6886    2.2263   -9.0280 H   0  0  0  0  0  0  0  0  0  0  0  0
    3.0484    2.2741  -10.2086 H   0  0  0  0  0  0  0  0  0  0  0  0
    0.0875    1.7238  -10.8706 H   0  0  0  0  0  0  0  0  0  0  0  0
    1.4539    1.6307  -12.0578 H   0  0  0  0  0  0  0  0  0  0  0  0
    1.0389    3.1985  -11.2706 H   0  0  0  0  0  0  0  0  0  0  0  0
   -2.3196   -1.5954   -9.5455 H   0  0  0  0  0  0  0  0  0  0  0  0
   -2.4371    1.4484   -6.5687 H   0  0  0  0  0  0  0  0  0  0  0  0
   -4.9123    2.5562   -2.7284 H   0  0  0  0  0  0  0  0  0  0  0  0
   -4.9581    5.3838    0.5728 H   0  0  0  0  0  0  0  0  0  0  0  0
   -6.4324    4.1932    2.1472 H   0  0  0  0  0  0  0  0  0  0  0  0
   -6.1031    0.2289    4.5909 H   0  0  0  0  0  0  0  0  0  0  0  0
   -4.7477    0.6699    3.4990 H   0  0  0  0  0  0  0  0  0  0  0  0
   -4.9725    3.0798    4.2051 H   0  0  0  0  0  0  0  0  0  0  0  0
   -6.3976    2.6395    5.2363 H   0  0  0  0  0  0  0  0  0  0  0  0
   -4.7558    2.0093    5.6399 H   0  0  0  0  0  0  0  0  0  0  0  0
   -3.4477    1.6014   -0.8492 H   0  0  0  0  0  0  0  0  0  0  0  0
    1.2914    4.8275   -2.8883 H   0  0  0  0  0  0  0  0  0  0  0  0
    3.1318    5.7476   -4.2336 H   0  0  0  0  0  0  0  0  0  0  0  0
    2.9351    5.2915   -7.2625 H   0  0  0  0  0  0  0  0  0  0  0  0
    3.1952    6.4689   -8.6036 H   0  0  0  0  0  0  0  0  0  0  0  0
    5.1724    4.9482   -8.1917 H   0  0  0  0  0  0  0  0  0  0  0  0
    5.5760    6.7013   -8.0010 H   0  0  0  0  0  0  0  0  0  0  0  0
    5.3365    5.6650   -6.5342 H   0  0  0  0  0  0  0  0  0  0  0  0
   -1.5535    7.0044   -5.2903 H   0  0  0  0  0  0  0  0  0  0  0  0
    0.5730    6.8577   -1.5214 H   0  0  0  0  0  0  0  0  0  0  0  0
    2.2682    5.3819   -0.6253 H   0  0  0  0  0  0  0  0  0  0  0  0
    3.3971    2.9819   -0.3858 H   0  0  0  0  0  0  0  0  0  0  0  0
    3.6586    2.3177   -2.7423 H   0  0  0  0  0  0  0  0  0  0  0  0
    6.3332    1.2000   -5.4891 H   0  0  0  0  0  0  0  0  0  0  0  0
    6.2232    1.3603   -3.7019 H   0  0  0  0  0  0  0  0  0  0  0  0
    8.1511    2.9049   -5.5655 H   0  0  0  0  0  0  0  0  0  0  0  0
    8.0733    3.0811   -3.7634 H   0  0  0  0  0  0  0  0  0  0  0  0
    8.5848    1.5154   -4.4983 H   0  0  0  0  0  0  0  0  0  0  0  0
    6.3920    6.0376   -0.9193 H   0  0  0  0  0  0  0  0  0  0  0  0
    2.2896    4.6763    5.3352 H   0  0  0  0  0  0  0  0  0  0  0  0
    1.7944    5.3860    7.6433 H   0  0  0  0  0  0  0  0  0  0  0  0
    0.6963    8.0541    8.1116 H   0  0  0  0  0  0  0  0  0  0  0  0
    0.6986    8.6453    9.8087 H   0  0  0  0  0  0  0  0  0  0  0  0
    0.7989   10.5670    8.2803 H   0  0  0  0  0  0  0  0  0  0  0  0
    2.2511    9.8985    7.4566 H   0  0  0  0  0  0  0  0  0  0  0  0
    2.3569   10.4361    9.1848 H   0  0  0  0  0  0  0  0  0  0  0  0
    5.0823    7.9387    4.9447 H   0  0  0  0  0  0  0  0  0  0  0  0
    6.4741    5.6221    5.0876 H   0  0  0  0  0  0  0  0  0  0  0  0
    8.5957    4.8513    3.8055 H   0  0  0  0  0  0  0  0  0  0  0  0
  1  2  2  0
  2  3  1  0
  3  4  2  0
  4  5  1  0
  5  6  2  0
  6  7  1  0
  7  8  2  0
  8  9  1  0
  9 10  1  0
 10 11  1  0
  8 12  1  0
 12 13  1  0
 12 14  2  0
  4 15  1  0
 15 16  2  0
 16 17  1  0
 17 18  1  0
 18 19  2  0
 19 20  1  0
 20 21  2  0
 21 22  1  0
 22 23  1  0
 23 24  1  0
 21 25  1  0
 25 26  2  0
 25 27  1  0
 17 28  2  0
 28 29  1  0
 16 30  1  0
 30 31  2  0
 31 32  1  0
 31 33  1  0
 33 34  1  0
 34 35  1  0
 35 36  2  0
 36 37  1  0
 37 38  1  0
 38 39  1  0
 38 40  1  0
 38 41  1  0
 36 42  1  0
 42 43  1  0
 42 44  1  0
 42 45  1  0
 35 46  1  0
 46 47  2  3
 47 48  1  0
 48 49  1  0
 49 50  1  0
 50 51  2  0
 51 52  1  0
 52 53  1  0
 53 54  1  0
 53 55  1  0
 53 56  1  0
 51 57  1  0
 57 58  1  0
 57 59  1  0
 57 60  1  0
 50 61  1  0
 61 62  2  3
 62 63  1  0
 63 64  2  0
 64 65  1  0
 65 66  2  0
 66 67  1  0
 67 68  2  0
 68 69  1  0
 69 70  2  0
 70 71  1  0
 71 72  1  0
 72 73  1  0
 70 74  1  0
 74 75  1  0
 74 76  2  0
 66 77  1  0
 77 78  2  0
 78 79  1  0
 79 80  1  0
 80 81  2  0
 81 82  1  0
 82 83  2  0
 83 84  1  0
 84 85  1  0
 85 86  1  0
 83 87  1  0
 87 88  2  0
 87 89  1  0
 79 90  2  0
 90 91  1  0
 78 92  1  0
 92 93  2  0
 93 94  1  0
 93 95  1  0
 95 96  2  0
 96 97  1  0
 97 98  2  0
 98 99  1  0
 99100  2  0
100101  1  0
101102  2  0
102103  1  0
103104  1  0
104105  1  0
102106  1  0
106107  1  0
106108  2  0
 98109  1  0
109110  2  0
110111  1  0
111112  1  0
112113  2  0
113114  1  0
114115  2  0
115116  1  0
116117  1  0
117118  1  0
115119  1  0
119120  2  0
119121  1  0
111122  2  0
122123  1  0
110124  1  0
124125  2  0
125126  1  0
125127  1  0
127128  2  0
128129  1  0
129130  2  0
130131  1  0
131132  2  0
132133  1  0
133134  2  0
134135  1  0
135136  1  0
136137  1  0
134138  1  0
138139  1  0
138140  2  0
130141  1  0
141142  2  0
142143  1  0
143144  1  0
144145  2  0
145146  1  0
146147  2  0
147148  1  0
148149  1  0
149150  1  0
147151  1  0
151152  2  0
151153  1  0
143154  2  0
154155  1  0
142156  1  0
156157  2  0
157158  1  0
 29  1  1  0
 37 33  2  0
 52 48  2  0
 91 63  1  0
123 95  1  0
155127  1  0
 28  3  1  0
 90 65  1  0
122 97  1  0
154129  1  0
 14  5  1  0
 32 15  1  0
 76 67  1  0
 94 77  1  0
108 99  1  0
126109  1  0
140131  1  0
158141  1  0
 26 18  1  0
 88 80  1  0
120112  1  0
152144  1  0
  1159  1  0
  2160  1  0
  6161  1  0
  7162  1  0
 10163  1  0
 10164  1  0
 11165  1  0
 11166  1  0
 11167  1  0
 14168  1  0
 19169  1  0
 20170  1  0
 23171  1  0
 23172  1  0
 24173  1  0
 24174  1  0
 24175  1  0
 26176  1  0
 30177  1  0
 46178  1  0
 47179  1  0
 61180  1  0
 62181  1  0
 64182  1  0
 68183  1  0
 69184  1  0
 72185  1  0
 72186  1  0
 73187  1  0
 73188  1  0
 73189  1  0
 76190  1  0
 81191  1  0
 82192  1  0
 85193  1  0
 85194  1  0
 86195  1  0
 86196  1  0
 86197  1  0
 88198  1  0
 92199  1  0
 96200  1  0
100201  1  0
101202  1  0
104203  1  0
104204  1  0
105205  1  0
105206  1  0
105207  1  0
108208  1  0
113209  1  0
114210  1  0
117211  1  0
117212  1  0
118213  1  0
118214  1  0
118215  1  0
120216  1  0
124217  1  0
128218  1  0
132219  1  0
133220  1  0
136221  1  0
136222  1  0
137223  1  0
137224  1  0
137225  1  0
140226  1  0
145227  1  0
146228  1  0
149229  1  0
149230  1  0
150231  1  0
150232  1  0
150233  1  0
152234  1  0
156235  1  0
157236  1  0
M  END

