
     RDKit          3D

221246  0  0  0  0  0  0  0  0999 V2000
    7.7103   14.1389    6.3795 C   0  0  0  0  0  0  0  0  0  0  0  0
    8.2602   14.2998    5.1108 C   0  0  0  0  0  0  0  0  0  0  0  0
    7.9088   13.2689    4.2156 C   0  0  0  0  0  0  0  0  0  0  0  0
    8.3084   13.1510    2.8675 C   0  0  0  0  0  0  0  0  0  0  0  0
    9.1937   14.1294    2.2231 C   0  0  0  0  0  0  0  0  0  0  0  0
   10.6988   13.7613    1.5743 S   0  0  0  0  0  0  0  0  0  0  0  0
   11.0391   15.3083    1.0151 C   0  0  0  0  0  0  0  0  0  0  0  0
   12.3186   15.6969    0.3378 C   0  0  0  0  0  0  0  0  0  0  0  0
   13.4031   16.0170    1.3623 C   0  0  0  0  0  0  0  0  0  0  0  0
    9.9787   16.1452    1.3502 C   0  0  0  0  0  0  0  0  0  0  0  0
    9.9424   17.8645    0.9876 Cl  0  0  0  0  0  0  0  0  0  0  0  0
    8.9329   15.4826    2.0143 C   0  0  0  0  0  0  0  0  0  0  0  0
    7.4337   16.2693    2.4909 Cl  0  0  0  0  0  0  0  0  0  0  0  0
    7.8657   12.0155    2.1711 C   0  0  0  0  0  0  0  0  0  0  0  0
    7.0911   11.0208    2.7807 C   0  0  0  0  0  0  0  0  0  0  0  0
    6.6979   11.1327    4.1238 C   0  0  0  0  0  0  0  0  0  0  0  0
    5.8194   10.1293    4.7531 C   0  0  0  0  0  0  0  0  0  0  0  0
    4.1680   10.3289    4.9685 S   0  0  0  0  0  0  0  0  0  0  0  0
    3.8417    8.7309    5.3722 C   0  0  0  0  0  0  0  0  0  0  0  0
    2.4616    8.1514    5.4950 C   0  0  0  0  0  0  0  0  0  0  0  0
    2.0475    7.4908    4.1824 C   0  0  0  0  0  0  0  0  0  0  0  0
    5.0415    8.0172    5.3606 C   0  0  0  0  0  0  0  0  0  0  0  0
    6.1474    8.7973    4.9813 C   0  0  0  0  0  0  0  0  0  0  0  0
    7.7547    8.1318    4.7373 Cl  0  0  0  0  0  0  0  0  0  0  0  0
    5.1461    6.2881    5.6875 Cl  0  0  0  0  0  0  0  0  0  0  0  0
    7.1099   12.2849    4.8101 C   0  0  0  0  0  0  0  0  0  0  0  0
    6.8242   12.7012    6.4146 S   0  0  0  0  0  0  0  0  0  0  0  0
    6.7655    9.9692    1.9102 C   0  0  0  0  0  0  0  0  0  0  0  0
    7.2621   10.1473    0.6262 C   0  0  0  0  0  0  0  0  0  0  0  0
    8.1001   11.6118    0.5452 S   0  0  0  0  0  0  0  0  0  0  0  0
    7.0514    9.1966   -0.4740 C   0  0  0  0  0  0  0  0  0  0  0  0
    7.2161    7.8210   -0.3373 C   0  0  0  0  0  0  0  0  0  0  0  0
    6.5274    7.0743   -1.3137 C   0  0  0  0  0  0  0  0  0  0  0  0
    6.3626    5.6650   -1.3541 C   0  0  0  0  0  0  0  0  0  0  0  0
    7.0346    4.7473   -0.4041 C   0  0  0  0  0  0  0  0  0  0  0  0
    7.1349    4.9489    1.2655 S   0  0  0  0  0  0  0  0  0  0  0  0
    8.1357    3.6324    1.5695 C   0  0  0  0  0  0  0  0  0  0  0  0
    8.7737    3.3503    2.8968 C   0  0  0  0  0  0  0  0  0  0  0  0
   10.2431    3.7851    2.9102 C   0  0  0  0  0  0  0  0  0  0  0  0
    8.3886    2.9880    0.3562 C   0  0  0  0  0  0  0  0  0  0  0  0
    9.4072    1.5581    0.2118 Cl  0  0  0  0  0  0  0  0  0  0  0  0
    7.7834    3.6124   -0.7452 C   0  0  0  0  0  0  0  0  0  0  0  0
    8.0815    3.1150   -2.4038 Cl  0  0  0  0  0  0  0  0  0  0  0  0
    5.4736    5.1645   -2.3314 C   0  0  0  0  0  0  0  0  0  0  0  0
    4.8239    5.9908   -3.2470 C   0  0  0  0  0  0  0  0  0  0  0  0
    5.0445    7.3800   -3.2428 C   0  0  0  0  0  0  0  0  0  0  0  0
    4.2438    8.2630   -4.1002 C   0  0  0  0  0  0  0  0  0  0  0  0
    4.6288    8.6594   -5.6809 S   0  0  0  0  0  0  0  0  0  0  0  0
    3.1630    9.4189   -6.0206 C   0  0  0  0  0  0  0  0  0  0  0  0
    2.8289   10.0532   -7.3348 C   0  0  0  0  0  0  0  0  0  0  0  0
    3.6235   11.3412   -7.5162 C   0  0  0  0  0  0  0  0  0  0  0  0
    2.3558    9.3720   -4.8858 C   0  0  0  0  0  0  0  0  0  0  0  0
    2.9624    8.7151   -3.8074 C   0  0  0  0  0  0  0  0  0  0  0  0
    2.1425    8.3652   -2.2976 Cl  0  0  0  0  0  0  0  0  0  0  0  0
    0.7336   10.0576   -4.8120 Cl  0  0  0  0  0  0  0  0  0  0  0  0
    5.8742    7.8967   -2.2355 C   0  0  0  0  0  0  0  0  0  0  0  0
    6.0973    9.5112   -1.8207 S   0  0  0  0  0  0  0  0  0  0  0  0
    3.8237    5.3427   -3.9858 C   0  0  0  0  0  0  0  0  0  0  0  0
    3.6100    4.0255   -3.5913 C   0  0  0  0  0  0  0  0  0  0  0  0
    4.7154    3.6511   -2.3759 S   0  0  0  0  0  0  0  0  0  0  0  0
    2.2756    3.4316   -3.6705 C   0  0  0  0  0  0  0  0  0  0  0  0
    1.9336    2.1799   -4.1652 C   0  0  0  0  0  0  0  0  0  0  0  0
    0.5440    1.9454   -4.0901 C   0  0  0  0  0  0  0  0  0  0  0  0
   -0.1292    0.7698   -4.4595 C   0  0  0  0  0  0  0  0  0  0  0  0
    0.5885   -0.3876   -5.0298 C   0  0  0  0  0  0  0  0  0  0  0  0
    0.8054   -1.8568   -4.2473 S   0  0  0  0  0  0  0  0  0  0  0  0
    1.7027   -2.5824   -5.4699 C   0  0  0  0  0  0  0  0  0  0  0  0
    2.2969   -3.9619   -5.3916 C   0  0  0  0  0  0  0  0  0  0  0  0
    3.7325   -3.8913   -4.8822 C   0  0  0  0  0  0  0  0  0  0  0  0
    1.8677   -1.6674   -6.5021 C   0  0  0  0  0  0  0  0  0  0  0  0
    2.7929   -2.0058   -7.9632 Cl  0  0  0  0  0  0  0  0  0  0  0  0
    1.2340   -0.4387   -6.2643 C   0  0  0  0  0  0  0  0  0  0  0  0
    1.2386    0.8927   -7.4065 Cl  0  0  0  0  0  0  0  0  0  0  0  0
   -1.5064    0.7040   -4.1598 C   0  0  0  0  0  0  0  0  0  0  0  0
   -2.1885    1.7415   -3.5290 C   0  0  0  0  0  0  0  0  0  0  0  0
   -1.5327    2.9381   -3.2110 C   0  0  0  0  0  0  0  0  0  0  0  0
   -2.2102    4.0500   -2.5258 C   0  0  0  0  0  0  0  0  0  0  0  0
   -2.5367    5.5434   -3.2239 S   0  0  0  0  0  0  0  0  0  0  0  0
   -3.1738    6.2508   -1.8387 C   0  0  0  0  0  0  0  0  0  0  0  0
   -3.6996    7.6576   -1.7676 C   0  0  0  0  0  0  0  0  0  0  0  0
   -5.2184    7.6756   -1.8806 C   0  0  0  0  0  0  0  0  0  0  0  0
   -3.1472    5.3179   -0.8072 C   0  0  0  0  0  0  0  0  0  0  0  0
   -2.6063    4.0823   -1.1901 C   0  0  0  0  0  0  0  0  0  0  0  0
   -2.3978    2.7271   -0.0874 Cl  0  0  0  0  0  0  0  0  0  0  0  0
   -3.7227    5.6480    0.8242 Cl  0  0  0  0  0  0  0  0  0  0  0  0
   -0.1685    3.0086   -3.5160 C   0  0  0  0  0  0  0  0  0  0  0  0
    0.8996    4.2339   -3.1233 S   0  0  0  0  0  0  0  0  0  0  0  0
   -3.5077    1.4217   -3.1864 C   0  0  0  0  0  0  0  0  0  0  0  0
   -3.8541    0.1207   -3.5378 C   0  0  0  0  0  0  0  0  0  0  0  0
   -2.5375   -0.6199   -4.2912 S   0  0  0  0  0  0  0  0  0  0  0  0
   -4.9224   -0.6375   -2.8833 C   0  0  0  0  0  0  0  0  0  0  0  0
   -5.1065   -0.6025   -1.5085 C   0  0  0  0  0  0  0  0  0  0  0  0
   -5.7417   -1.7433   -1.0065 C   0  0  0  0  0  0  0  0  0  0  0  0
   -5.8360   -2.0902    0.3503 C   0  0  0  0  0  0  0  0  0  0  0  0
   -5.3119   -1.2133    1.4100 C   0  0  0  0  0  0  0  0  0  0  0  0
   -6.0983    0.1323    2.0303 S   0  0  0  0  0  0  0  0  0  0  0  0
   -4.8591    0.5882    3.0744 C   0  0  0  0  0  0  0  0  0  0  0  0
   -4.9244    1.7391    4.0344 C   0  0  0  0  0  0  0  0  0  0  0  0
   -5.5744    1.3129    5.3478 C   0  0  0  0  0  0  0  0  0  0  0  0
   -3.8128   -0.3341    2.9622 C   0  0  0  0  0  0  0  0  0  0  0  0
   -2.3236   -0.2318    3.8845 Cl  0  0  0  0  0  0  0  0  0  0  0  0
   -4.0690   -1.3363    2.0145 C   0  0  0  0  0  0  0  0  0  0  0  0
   -2.9418   -2.6328    1.6308 Cl  0  0  0  0  0  0  0  0  0  0  0  0
   -6.2727   -3.3887    0.6470 C   0  0  0  0  0  0  0  0  0  0  0  0
   -6.6407   -4.3027   -0.3481 C   0  0  0  0  0  0  0  0  0  0  0  0
   -6.6029   -3.9330   -1.7100 C   0  0  0  0  0  0  0  0  0  0  0  0
   -7.0373   -4.8367   -2.7904 C   0  0  0  0  0  0  0  0  0  0  0  0
   -6.3724   -6.3397   -3.1405 S   0  0  0  0  0  0  0  0  0  0  0  0
   -7.3869   -6.6837   -4.4392 C   0  0  0  0  0  0  0  0  0  0  0  0
   -7.4086   -7.9910   -5.1756 C   0  0  0  0  0  0  0  0  0  0  0  0
   -8.5061   -8.8971   -4.6182 C   0  0  0  0  0  0  0  0  0  0  0  0
   -8.2766   -5.6277   -4.6077 C   0  0  0  0  0  0  0  0  0  0  0  0
   -8.0610   -4.5751   -3.6940 C   0  0  0  0  0  0  0  0  0  0  0  0
   -9.0352   -3.1119   -3.6650 Cl  0  0  0  0  0  0  0  0  0  0  0  0
   -9.5414   -5.6024   -5.8320 Cl  0  0  0  0  0  0  0  0  0  0  0  0
   -6.1176   -2.6467   -2.0022 C   0  0  0  0  0  0  0  0  0  0  0  0
   -5.6039   -2.0565   -3.4904 S   0  0  0  0  0  0  0  0  0  0  0  0
   -6.9456   -5.5769    0.1680 C   0  0  0  0  0  0  0  0  0  0  0  0
   -6.7847   -5.6494    1.5489 C   0  0  0  0  0  0  0  0  0  0  0  0
   -6.3122   -4.1525    2.1503 S   0  0  0  0  0  0  0  0  0  0  0  0
   -6.7924   -6.8979    2.3185 C   0  0  0  0  0  0  0  0  0  0  0  0
   -6.6052   -8.0822    1.7793 O   0  0  0  0  0  0  0  0  0  0  0  0
   -6.5982   -8.9990    2.7239 C   0  0  0  0  0  0  0  0  0  0  0  0
   -6.8140   -8.3869    3.9600 C   0  0  0  0  0  0  0  0  0  0  0  0
   -6.9342   -7.0424    3.6879 C   0  0  0  0  0  0  0  0  0  0  0  0
   -7.1758   -6.0279    4.6055 O   0  0  0  0  0  0  0  0  0  0  0  0
   -7.0070   -9.1591    5.5659 S   0  0  0  0  0  0  0  0  0  0  0  0
   -6.3677  -10.4208    2.4152 C   0  0  0  0  0  0  0  0  0  0  0  0
   -6.0306  -11.4412    3.3028 C   0  0  0  0  0  0  0  0  0  0  0  0
   -5.8490  -12.6814    2.6712 C   0  0  0  0  0  0  0  0  0  0  0  0
   -5.4327  -13.8692    3.2876 C   0  0  0  0  0  0  0  0  0  0  0  0
   -4.7413  -13.8305    4.5947 C   0  0  0  0  0  0  0  0  0  0  0  0
   -5.1733  -14.6782    5.9840 S   0  0  0  0  0  0  0  0  0  0  0  0
   -3.8736  -14.1478    6.9205 C   0  0  0  0  0  0  0  0  0  0  0  0
   -3.5705  -14.6044    8.3195 C   0  0  0  0  0  0  0  0  0  0  0  0
   -2.4359  -15.6277    8.3132 C   0  0  0  0  0  0  0  0  0  0  0  0
   -3.0757  -13.3085    6.1433 C   0  0  0  0  0  0  0  0  0  0  0  0
   -1.5886  -12.5649    6.7191 Cl  0  0  0  0  0  0  0  0  0  0  0  0
   -3.5557  -13.1368    4.8418 C   0  0  0  0  0  0  0  0  0  0  0  0
   -2.6725  -12.2495    3.6042 Cl  0  0  0  0  0  0  0  0  0  0  0  0
   -5.3998  -15.0194    2.4883 C   0  0  0  0  0  0  0  0  0  0  0  0
   -5.5828  -14.9759    1.1014 C   0  0  0  0  0  0  0  0  0  0  0  0
   -5.8424  -13.7488    0.4669 C   0  0  0  0  0  0  0  0  0  0  0  0
   -5.6322  -13.5606   -0.9753 C   0  0  0  0  0  0  0  0  0  0  0  0
   -6.7418  -13.8820   -2.1929 S   0  0  0  0  0  0  0  0  0  0  0  0
   -5.8163  -13.2399   -3.4434 C   0  0  0  0  0  0  0  0  0  0  0  0
   -6.2492  -13.1827   -4.8815 C   0  0  0  0  0  0  0  0  0  0  0  0
   -5.3643  -14.0564   -5.7680 C   0  0  0  0  0  0  0  0  0  0  0  0
   -4.6333  -12.7246   -2.9100 C   0  0  0  0  0  0  0  0  0  0  0  0
   -4.5312  -12.9146   -1.5294 C   0  0  0  0  0  0  0  0  0  0  0  0
   -3.1846  -12.3266   -0.5550 Cl  0  0  0  0  0  0  0  0  0  0  0  0
   -3.4140  -11.8795   -3.8582 Cl  0  0  0  0  0  0  0  0  0  0  0  0
   -6.0396  -12.6283    1.2966 C   0  0  0  0  0  0  0  0  0  0  0  0
   -6.4020  -11.0449    0.8470 S   0  0  0  0  0  0  0  0  0  0  0  0
   -5.4017  -16.2200    0.4753 C   0  0  0  0  0  0  0  0  0  0  0  0
   -5.1039  -17.2390    1.3688 C   0  0  0  0  0  0  0  0  0  0  0  0
   -5.0173  -16.5932    2.9287 S   0  0  0  0  0  0  0  0  0  0  0  0
    7.8502   14.8181    7.2143 H   0  0  0  0  0  0  0  0  0  0  0  0
    8.8943   15.1395    4.8597 H   0  0  0  0  0  0  0  0  0  0  0  0
   12.1534   16.5765   -0.3270 H   0  0  0  0  0  0  0  0  0  0  0  0
   12.6615   14.8560   -0.3021 H   0  0  0  0  0  0  0  0  0  0  0  0
   14.3188   16.3573    0.8354 H   0  0  0  0  0  0  0  0  0  0  0  0
   13.6421   15.1090    1.9556 H   0  0  0  0  0  0  0  0  0  0  0  0
   13.0635   16.8226    2.0466 H   0  0  0  0  0  0  0  0  0  0  0  0
    2.4373    7.3987    6.3105 H   0  0  0  0  0  0  0  0  0  0  0  0
    1.7284    8.9598    5.7301 H   0  0  0  0  0  0  0  0  0  0  0  0
    2.7208    6.6292    3.9661 H   0  0  0  0  0  0  0  0  0  0  0  0
    1.0048    7.1251    4.2536 H   0  0  0  0  0  0  0  0  0  0  0  0
    2.1136    8.2293    3.3566 H   0  0  0  0  0  0  0  0  0  0  0  0
    6.1661    9.1130    2.1923 H   0  0  0  0  0  0  0  0  0  0  0  0
    7.7697    7.4028    0.4812 H   0  0  0  0  0  0  0  0  0  0  0  0
    8.6896    2.2624    3.1348 H   0  0  0  0  0  0  0  0  0  0  0  0
    8.2433    3.9228    3.6980 H   0  0  0  0  0  0  0  0  0  0  0  0
   10.8603    3.1191    2.2710 H   0  0  0  0  0  0  0  0  0  0  0  0
   10.3411    4.8352    2.5693 H   0  0  0  0  0  0  0  0  0  0  0  0
   10.6256    3.7211    3.9467 H   0  0  0  0  0  0  0  0  0  0  0  0
    1.7447   10.2862   -7.3954 H   0  0  0  0  0  0  0  0  0  0  0  0
    3.0799    9.3488   -8.1586 H   0  0  0  0  0  0  0  0  0  0  0  0
    4.7110   11.1151   -7.6063 H   0  0  0  0  0  0  0  0  0  0  0  0
    3.2892   11.8715   -8.4352 H   0  0  0  0  0  0  0  0  0  0  0  0
    3.4727   12.0154   -6.6408 H   0  0  0  0  0  0  0  0  0  0  0  0
    3.1562    5.8541   -4.6625 H   0  0  0  0  0  0  0  0  0  0  0  0
    2.6558    1.4697   -4.5569 H   0  0  0  0  0  0  0  0  0  0  0  0
    1.6890   -4.5907   -4.7051 H   0  0  0  0  0  0  0  0  0  0  0  0
    2.2865   -4.4369   -6.3981 H   0  0  0  0  0  0  0  0  0  0  0  0
    4.1580   -4.9117   -4.8128 H   0  0  0  0  0  0  0  0  0  0  0  0
    4.3546   -3.2982   -5.5824 H   0  0  0  0  0  0  0  0  0  0  0  0
    3.7669   -3.4094   -3.8788 H   0  0  0  0  0  0  0  0  0  0  0  0
   -3.2713    8.2507   -2.6023 H   0  0  0  0  0  0  0  0  0  0  0  0
   -3.3860    8.1316   -0.8159 H   0  0  0  0  0  0  0  0  0  0  0  0
   -5.6710    7.0536   -1.0776 H   0  0  0  0  0  0  0  0  0  0  0  0
   -5.5864    8.7218   -1.7934 H   0  0  0  0  0  0  0  0  0  0  0  0
   -5.5326    7.2616   -2.8646 H   0  0  0  0  0  0  0  0  0  0  0  0
   -4.1514    2.0597   -2.6018 H   0  0  0  0  0  0  0  0  0  0  0  0
   -4.6535    0.1518   -0.8779 H   0  0  0  0  0  0  0  0  0  0  0  0
   -3.9064    2.1345    4.2315 H   0  0  0  0  0  0  0  0  0  0  0  0
   -5.5187    2.5617    3.5757 H   0  0  0  0  0  0  0  0  0  0  0  0
   -5.6302    2.1909    6.0325 H   0  0  0  0  0  0  0  0  0  0  0  0
   -4.9680    0.5128    5.8296 H   0  0  0  0  0  0  0  0  0  0  0  0
   -6.6057    0.9372    5.1714 H   0  0  0  0  0  0  0  0  0  0  0  0
   -7.5836   -7.8047   -6.2567 H   0  0  0  0  0  0  0  0  0  0  0  0
   -6.4278   -8.5006   -5.0659 H   0  0  0  0  0  0  0  0  0  0  0  0
   -9.5042   -8.4193   -4.7318 H   0  0  0  0  0  0  0  0  0  0  0  0
   -8.5127   -9.8634   -5.1719 H   0  0  0  0  0  0  0  0  0  0  0  0
   -8.3209   -9.1164   -3.5435 H   0  0  0  0  0  0  0  0  0  0  0  0
   -7.2084   -6.4306   -0.4341 H   0  0  0  0  0  0  0  0  0  0  0  0
   -7.2577   -6.2137    5.6000 H   0  0  0  0  0  0  0  0  0  0  0  0
   -5.6409   -9.0404    5.8689 H   0  0  0  0  0  0  0  0  0  0  0  0
   -5.9116  -11.3121    4.3628 H   0  0  0  0  0  0  0  0  0  0  0  0
   -3.2814  -13.7274    8.9354 H   0  0  0  0  0  0  0  0  0  0  0  0
   -4.4796  -15.0562    8.7680 H   0  0  0  0  0  0  0  0  0  0  0  0
   -1.5196  -15.2056    7.8545 H   0  0  0  0  0  0  0  0  0  0  0  0
   -2.7373  -16.5239    7.7368 H   0  0  0  0  0  0  0  0  0  0  0  0
   -2.2053  -15.9330    9.3537 H   0  0  0  0  0  0  0  0  0  0  0  0
   -7.2935  -13.5521   -4.9646 H   0  0  0  0  0  0  0  0  0  0  0  0
   -6.2243  -12.1279   -5.2416 H   0  0  0  0  0  0  0  0  0  0  0  0
   -5.3018  -15.0938   -5.3705 H   0  0  0  0  0  0  0  0  0  0  0  0
   -5.7883  -14.0828   -6.7911 H   0  0  0  0  0  0  0  0  0  0  0  0
   -4.3405  -13.6347   -5.8308 H   0  0  0  0  0  0  0  0  0  0  0  0
   -5.4968  -16.3760   -0.5941 H   0  0  0  0  0  0  0  0  0  0  0  0
   -4.9303  -18.2755    1.1012 H   0  0  0  0  0  0  0  0  0  0  0  0
  1  2  2  0
  2  3  1  0
  3  4  2  0
  4  5  1  0
  5  6  1  0
  6  7  1  0
  7  8  1  0
  8  9  1  0
  7 10  2  0
 10 11  1  0
 10 12  1  0
 12 13  1  0
  4 14  1  0
 14 15  2  0
 15 16  1  0
 16 17  1  0
 17 18  1  0
 18 19  1  0
 19 20  1  0
 20 21  1  0
 19 22  2  0
 22 23  1  0
 23 24  1  0
 22 25  1  0
 16 26  2  0
 26 27  1  0
 15 28  1  0
 28 29  2  0
 29 30  1  0
 29 31  1  0
 31 32  2  0
 32 33  1  0
 33 34  2  0
 34 35  1  0
 35 36  1  0
 36 37  1  0
 37 38  1  0
 38 39  1  0
 37 40  2  0
 40 41  1  0
 40 42  1  0
 42 43  1  0
 34 44  1  0
 44 45  2  0
 45 46  1  0
 46 47  1  0
 47 48  1  0
 48 49  1  0
 49 50  1  0
 50 51  1  0
 49 52  2  0
 52 53  1  0
 53 54  1  0
 52 55  1  0
 46 56  2  0
 56 57  1  0
 45 58  1  0
 58 59  2  0
 59 60  1  0
 59 61  1  0
 61 62  2  0
 62 63  1  0
 63 64  2  0
 64 65  1  0
 65 66  1  0
 66 67  1  0
 67 68  1  0
 68 69  1  0
 67 70  2  0
 70 71  1  0
 70 72  1  0
 72 73  1  0
 64 74  1  0
 74 75  2  0
 75 76  1  0
 76 77  1  0
 77 78  1  0
 78 79  1  0
 79 80  1  0
 80 81  1  0
 79 82  2  0
 82 83  1  0
 83 84  1  0
 82 85  1  0
 76 86  2  0
 86 87  1  0
 75 88  1  0
 88 89  2  0
 89 90  1  0
 89 91  1  0
 91 92  2  0
 92 93  1  0
 93 94  2  0
 94 95  1  0
 95 96  1  0
 96 97  1  0
 97 98  1  0
 98 99  1  0
 97100  2  0
100101  1  0
100102  1  0
102103  1  0
 94104  1  0
104105  2  0
105106  1  0
106107  1  0
107108  1  0
108109  1  0
109110  1  0
110111  1  0
109112  2  0
112113  1  0
113114  1  0
112115  1  0
106116  2  0
116117  1  0
105118  1  0
118119  2  0
119120  1  0
119121  1  0
121122  1  0
122123  1  0
123124  2  0
124125  1  0
125126  1  0
124127  1  0
123128  1  0
128129  2  0
129130  1  0
130131  2  0
131132  1  0
132133  1  0
133134  1  0
134135  1  0
135136  1  0
134137  2  0
137138  1  0
137139  1  0
139140  1  0
131141  1  0
141142  2  0
142143  1  0
143144  1  0
144145  1  0
145146  1  0
146147  1  0
147148  1  0
146149  2  0
149150  1  0
150151  1  0
149152  1  0
143153  2  0
153154  1  0
142155  1  0
155156  2  0
156157  1  0
 27  1  1  0
 57 31  1  0
 87 61  1  0
117 91  1  0
125121  2  0
154128  1  0
 26  3  1  0
 56 33  1  0
 86 63  1  0
116 93  1  0
153130  1  0
 12  5  2  0
 30 14  1  0
 42 35  2  0
 60 44  1  0
 72 65  2  0
 90 74  1  0
102 95  2  0
120104  1  0
139132  2  0
157141  1  0
 23 17  2  0
 53 47  2  0
 83 77  2  0
113107  2  0
150144  2  0
  1158  1  0
  2159  1  0
  8160  1  0
  8161  1  0
  9162  1  0
  9163  1  0
  9164  1  0
 20165  1  0
 20166  1  0
 21167  1  0
 21168  1  0
 21169  1  0
 28170  1  0
 32171  1  0
 38172  1  0
 38173  1  0
 39174  1  0
 39175  1  0
 39176  1  0
 50177  1  0
 50178  1  0
 51179  1  0
 51180  1  0
 51181  1  0
 58182  1  0
 62183  1  0
 68184  1  0
 68185  1  0
 69186  1  0
 69187  1  0
 69188  1  0
 80189  1  0
 80190  1  0
 81191  1  0
 81192  1  0
 81193  1  0
 88194  1  0
 92195  1  0
 98196  1  0
 98197  1  0
 99198  1  0
 99199  1  0
 99200  1  0
110201  1  0
110202  1  0
111203  1  0
111204  1  0
111205  1  0
118206  1  0
126207  1  0
127208  1  0
129209  1  0
135210  1  0
135211  1  0
136212  1  0
136213  1  0
136214  1  0
147215  1  0
147216  1  0
148217  1  0
148218  1  0
148219  1  0
155220  1  0
156221  1  0
M  END

