
     RDKit          3D

228252  0  0  0  0  0  0  0  0999 V2000
    6.6041   -3.4380    7.2205 C   0  0  0  0  0  0  0  0  0  0  0  0
    6.3133   -2.7944    6.0231 C   0  0  0  0  0  0  0  0  0  0  0  0
    4.9395   -2.7323    5.7451 C   0  0  0  0  0  0  0  0  0  0  0  0
    4.3386   -2.1452    4.6100 C   0  0  0  0  0  0  0  0  0  0  0  0
    5.1180   -1.3546    3.6347 C   0  0  0  0  0  0  0  0  0  0  0  0
    5.1033   -1.5742    1.9656 S   0  0  0  0  0  0  0  0  0  0  0  0
    6.0918   -0.2619    1.5937 C   0  0  0  0  0  0  0  0  0  0  0  0
    6.4366    0.1842    0.2025 C   0  0  0  0  0  0  0  0  0  0  0  0
    5.6697    1.4531   -0.1775 C   0  0  0  0  0  0  0  0  0  0  0  0
    6.4345    0.3823    2.7798 C   0  0  0  0  0  0  0  0  0  0  0  0
    7.4349    1.8270    2.8536 Cl  0  0  0  0  0  0  0  0  0  0  0  0
    5.8778   -0.2201    3.9207 C   0  0  0  0  0  0  0  0  0  0  0  0
    6.0214    0.4778    5.5297 Cl  0  0  0  0  0  0  0  0  0  0  0  0
    2.9396   -2.2565    4.5079 C   0  0  0  0  0  0  0  0  0  0  0  0
    2.1524   -2.8443    5.5059 C   0  0  0  0  0  0  0  0  0  0  0  0
    2.7558   -3.4109    6.6472 C   0  0  0  0  0  0  0  0  0  0  0  0
    1.9589   -4.0561    7.7064 C   0  0  0  0  0  0  0  0  0  0  0  0
    2.0155   -5.6934    8.0911 S   0  0  0  0  0  0  0  0  0  0  0  0
    0.8654   -5.6316    9.3159 C   0  0  0  0  0  0  0  0  0  0  0  0
    0.3780   -6.8193   10.0892 C   0  0  0  0  0  0  0  0  0  0  0  0
   -0.9311   -7.3455    9.5105 C   0  0  0  0  0  0  0  0  0  0  0  0
    0.4028   -4.3192    9.4275 C   0  0  0  0  0  0  0  0  0  0  0  0
    1.0250   -3.4358    8.5346 C   0  0  0  0  0  0  0  0  0  0  0  0
    0.6761   -1.7100    8.4861 Cl  0  0  0  0  0  0  0  0  0  0  0  0
   -0.8323   -3.8209   10.5771 Cl  0  0  0  0  0  0  0  0  0  0  0  0
    4.1564   -3.3514    6.7250 C   0  0  0  0  0  0  0  0  0  0  0  0
    5.1607   -3.9419    7.9356 S   0  0  0  0  0  0  0  0  0  0  0  0
    0.7772   -2.7892    5.2314 C   0  0  0  0  0  0  0  0  0  0  0  0
    0.4963   -2.1679    4.0189 C   0  0  0  0  0  0  0  0  0  0  0  0
    1.9345   -1.6982    3.2809 S   0  0  0  0  0  0  0  0  0  0  0  0
   -0.8382   -1.8423    3.5091 C   0  0  0  0  0  0  0  0  0  0  0  0
   -1.9332   -1.4730    4.2897 C   0  0  0  0  0  0  0  0  0  0  0  0
   -3.0308   -1.0519    3.5209 C   0  0  0  0  0  0  0  0  0  0  0  0
   -4.2695   -0.5815    4.0109 C   0  0  0  0  0  0  0  0  0  0  0  0
   -4.5976   -0.5982    5.4514 C   0  0  0  0  0  0  0  0  0  0  0  0
   -5.0073    0.7507    6.3737 S   0  0  0  0  0  0  0  0  0  0  0  0
   -5.2602   -0.0838    7.8158 C   0  0  0  0  0  0  0  0  0  0  0  0
   -5.6413    0.5537    9.1210 C   0  0  0  0  0  0  0  0  0  0  0  0
   -4.4218    0.7327   10.0167 C   0  0  0  0  0  0  0  0  0  0  0  0
   -5.0106   -1.4372    7.5945 C   0  0  0  0  0  0  0  0  0  0  0  0
   -5.1608   -2.6695    8.8432 Cl  0  0  0  0  0  0  0  0  0  0  0  0
   -4.6505   -1.7283    6.2700 C   0  0  0  0  0  0  0  0  0  0  0  0
   -4.3525   -3.3634    5.6942 Cl  0  0  0  0  0  0  0  0  0  0  0  0
   -5.1881   -0.1108    3.0565 C   0  0  0  0  0  0  0  0  0  0  0  0
   -4.9360   -0.1602    1.6822 C   0  0  0  0  0  0  0  0  0  0  0  0
   -3.7363   -0.7085    1.1911 C   0  0  0  0  0  0  0  0  0  0  0  0
   -3.5405   -0.9811   -0.2439 C   0  0  0  0  0  0  0  0  0  0  0  0
   -2.3182   -0.3445   -1.2145 S   0  0  0  0  0  0  0  0  0  0  0  0
   -2.7337   -1.2045   -2.6025 C   0  0  0  0  0  0  0  0  0  0  0  0
   -2.0424   -1.0758   -3.9233 C   0  0  0  0  0  0  0  0  0  0  0  0
   -2.8839   -0.2666   -4.9046 C   0  0  0  0  0  0  0  0  0  0  0  0
   -3.8403   -2.0044   -2.3222 C   0  0  0  0  0  0  0  0  0  0  0  0
   -4.2900   -1.8812   -0.9995 C   0  0  0  0  0  0  0  0  0  0  0  0
   -5.6361   -2.8125   -0.3557 Cl  0  0  0  0  0  0  0  0  0  0  0  0
   -4.5961   -3.0723   -3.5020 Cl  0  0  0  0  0  0  0  0  0  0  0  0
   -2.7842   -1.1037    2.1430 C   0  0  0  0  0  0  0  0  0  0  0  0
   -1.2244   -1.6658    1.8762 S   0  0  0  0  0  0  0  0  0  0  0  0
   -5.9673    0.3852    0.9085 C   0  0  0  0  0  0  0  0  0  0  0  0
   -7.0286    0.8546    1.6771 C   0  0  0  0  0  0  0  0  0  0  0  0
   -6.7115    0.5690    3.3083 S   0  0  0  0  0  0  0  0  0  0  0  0
   -8.2352    1.5106    1.1443 C   0  0  0  0  0  0  0  0  0  0  0  0
   -8.1915    2.5504    0.2866 C   0  0  0  0  0  0  0  0  0  0  0  0
   -6.8946    3.2384   -0.0606 C   0  0  0  0  0  0  0  0  0  0  0  0
   -9.4466    2.9766   -0.4402 C   0  0  0  0  0  0  0  0  0  0  0  0
   -9.7622    4.3828   -0.1876 N   0  0  0  0  0  0  0  0  0  0  0  0
  -10.6910    5.0621   -1.0482 C   0  0  0  0  0  0  0  0  0  0  0  0
  -10.4034    5.3568   -2.3224 C   0  0  0  0  0  0  0  0  0  0  0  0
   -9.0506    5.2349   -2.8734 C   0  0  0  0  0  0  0  0  0  0  0  0
   -7.9102    5.7915   -2.3123 C   0  0  0  0  0  0  0  0  0  0  0  0
   -6.7312    5.3737   -2.9473 C   0  0  0  0  0  0  0  0  0  0  0  0
   -5.4184    5.6720   -2.5340 C   0  0  0  0  0  0  0  0  0  0  0  0
   -5.1458    6.5832   -1.4057 C   0  0  0  0  0  0  0  0  0  0  0  0
   -4.2649    6.1814   -0.0281 S   0  0  0  0  0  0  0  0  0  0  0  0
   -4.2774    7.7171    0.6551 C   0  0  0  0  0  0  0  0  0  0  0  0
   -3.4876    8.1099    1.8708 C   0  0  0  0  0  0  0  0  0  0  0  0
   -2.0831    8.5562    1.4694 C   0  0  0  0  0  0  0  0  0  0  0  0
   -4.9479    8.5802   -0.2087 C   0  0  0  0  0  0  0  0  0  0  0  0
   -5.1133   10.3070    0.0832 Cl  0  0  0  0  0  0  0  0  0  0  0  0
   -5.4433    7.9447   -1.3570 C   0  0  0  0  0  0  0  0  0  0  0  0
   -6.2505    8.8057   -2.6604 Cl  0  0  0  0  0  0  0  0  0  0  0  0
   -4.3793    5.0218   -3.2197 C   0  0  0  0  0  0  0  0  0  0  0  0
   -4.6060    4.1488   -4.2876 C   0  0  0  0  0  0  0  0  0  0  0  0
   -5.9191    3.8647   -4.7116 C   0  0  0  0  0  0  0  0  0  0  0  0
   -6.1976    2.8399   -5.7292 C   0  0  0  0  0  0  0  0  0  0  0  0
   -6.9737    1.3767   -5.4289 S   0  0  0  0  0  0  0  0  0  0  0  0
   -6.9020    0.8037   -7.0069 C   0  0  0  0  0  0  0  0  0  0  0  0
   -7.4134   -0.5317   -7.4516 C   0  0  0  0  0  0  0  0  0  0  0  0
   -6.2770   -1.5442   -7.5548 C   0  0  0  0  0  0  0  0  0  0  0  0
   -6.2523    1.7521   -7.7946 C   0  0  0  0  0  0  0  0  0  0  0  0
   -5.8579    2.8939   -7.0784 C   0  0  0  0  0  0  0  0  0  0  0  0
   -5.0446    4.2679   -7.8163 Cl  0  0  0  0  0  0  0  0  0  0  0  0
   -5.9623    1.5475   -9.5170 Cl  0  0  0  0  0  0  0  0  0  0  0  0
   -6.9628    4.4932   -4.0101 C   0  0  0  0  0  0  0  0  0  0  0  0
   -8.6237    4.2554   -4.1775 S   0  0  0  0  0  0  0  0  0  0  0  0
   -3.4322    3.5368   -4.7554 C   0  0  0  0  0  0  0  0  0  0  0  0
   -2.3032    3.9028   -4.0301 C   0  0  0  0  0  0  0  0  0  0  0  0
   -2.7439    5.0135   -2.8436 S   0  0  0  0  0  0  0  0  0  0  0  0
   -1.0236    3.1907   -4.0516 C   0  0  0  0  0  0  0  0  0  0  0  0
   -0.2676    2.9267   -2.9132 C   0  0  0  0  0  0  0  0  0  0  0  0
    0.7385    1.9776   -3.1297 C   0  0  0  0  0  0  0  0  0  0  0  0
    1.5440    1.3931   -2.1330 C   0  0  0  0  0  0  0  0  0  0  0  0
    1.5619    1.8944   -0.7425 C   0  0  0  0  0  0  0  0  0  0  0  0
    1.3001    0.9626    0.6384 S   0  0  0  0  0  0  0  0  0  0  0  0
    1.5983    2.1899    1.7536 C   0  0  0  0  0  0  0  0  0  0  0  0
    1.5093    2.0291    3.2426 C   0  0  0  0  0  0  0  0  0  0  0  0
    0.0541    1.9398    3.6913 C   0  0  0  0  0  0  0  0  0  0  0  0
    1.8975    3.3572    1.0540 C   0  0  0  0  0  0  0  0  0  0  0  0
    2.2781    4.8873    1.8336 Cl  0  0  0  0  0  0  0  0  0  0  0  0
    1.8944    3.1894   -0.3391 C   0  0  0  0  0  0  0  0  0  0  0  0
    2.3406    4.4740   -1.4548 Cl  0  0  0  0  0  0  0  0  0  0  0  0
    2.3536    0.3185   -2.5314 C   0  0  0  0  0  0  0  0  0  0  0  0
    2.4515   -0.1102   -3.8606 C   0  0  0  0  0  0  0  0  0  0  0  0
    1.6474    0.4829   -4.8584 C   0  0  0  0  0  0  0  0  0  0  0  0
    1.6491    0.0062   -6.2540 C   0  0  0  0  0  0  0  0  0  0  0  0
    1.9493    0.9785   -7.5934 S   0  0  0  0  0  0  0  0  0  0  0  0
    1.7659   -0.2315   -8.7449 C   0  0  0  0  0  0  0  0  0  0  0  0
    1.8487   -0.0116  -10.2256 C   0  0  0  0  0  0  0  0  0  0  0  0
    0.4567    0.1513  -10.8286 C   0  0  0  0  0  0  0  0  0  0  0  0
    1.4473   -1.4221   -8.0943 C   0  0  0  0  0  0  0  0  0  0  0  0
    1.3700   -1.2884   -6.6982 C   0  0  0  0  0  0  0  0  0  0  0  0
    0.8815   -2.6061   -5.6378 Cl  0  0  0  0  0  0  0  0  0  0  0  0
    1.1400   -2.9338   -8.9355 Cl  0  0  0  0  0  0  0  0  0  0  0  0
    0.7899    1.5194   -4.4495 C   0  0  0  0  0  0  0  0  0  0  0  0
   -0.4348    2.2676   -5.3329 S   0  0  0  0  0  0  0  0  0  0  0  0
    3.3720   -1.1596   -4.0320 C   0  0  0  0  0  0  0  0  0  0  0  0
    3.9308   -1.5868   -2.8263 C   0  0  0  0  0  0  0  0  0  0  0  0
    3.3220   -0.6517   -1.5711 S   0  0  0  0  0  0  0  0  0  0  0  0
    4.8296   -2.7260   -2.6265 C   0  0  0  0  0  0  0  0  0  0  0  0
    5.7391   -3.2449   -3.5495 C   0  0  0  0  0  0  0  0  0  0  0  0
    6.4793   -4.3213   -3.0287 C   0  0  0  0  0  0  0  0  0  0  0  0
    7.5044   -5.0381   -3.6828 C   0  0  0  0  0  0  0  0  0  0  0  0
    7.9586   -4.6827   -5.0361 C   0  0  0  0  0  0  0  0  0  0  0  0
    8.8094   -3.2818   -5.4122 S   0  0  0  0  0  0  0  0  0  0  0  0
    9.0913   -3.6698   -7.0259 C   0  0  0  0  0  0  0  0  0  0  0  0
    9.9415   -2.8623   -7.9573 C   0  0  0  0  0  0  0  0  0  0  0  0
   11.3859   -3.3534   -7.9410 C   0  0  0  0  0  0  0  0  0  0  0  0
    8.5362   -4.9236   -7.2851 C   0  0  0  0  0  0  0  0  0  0  0  0
    8.6581   -5.7352   -8.8367 Cl  0  0  0  0  0  0  0  0  0  0  0  0
    7.9059   -5.4937   -6.1683 C   0  0  0  0  0  0  0  0  0  0  0  0
    7.1185   -7.0687   -6.1975 Cl  0  0  0  0  0  0  0  0  0  0  0  0
    8.1166   -6.0785   -2.9594 C   0  0  0  0  0  0  0  0  0  0  0  0
    7.7419   -6.4127   -1.6546 C   0  0  0  0  0  0  0  0  0  0  0  0
    6.7189   -5.6981   -1.0028 C   0  0  0  0  0  0  0  0  0  0  0  0
    6.2858   -6.0221    0.3667 C   0  0  0  0  0  0  0  0  0  0  0  0
    4.7649   -6.6199    0.7707 S   0  0  0  0  0  0  0  0  0  0  0  0
    5.0051   -6.6114    2.4329 C   0  0  0  0  0  0  0  0  0  0  0  0
    3.9649   -6.9907    3.4426 C   0  0  0  0  0  0  0  0  0  0  0  0
    3.1721   -5.7675    3.8862 C   0  0  0  0  0  0  0  0  0  0  0  0
    6.2754   -6.0952    2.6987 C   0  0  0  0  0  0  0  0  0  0  0  0
    6.9943   -5.7686    1.5375 C   0  0  0  0  0  0  0  0  0  0  0  0
    8.5916   -5.0357    1.5586 Cl  0  0  0  0  0  0  0  0  0  0  0  0
    6.9054   -5.8516    4.3220 Cl  0  0  0  0  0  0  0  0  0  0  0  0
    6.1134   -4.6548   -1.7182 C   0  0  0  0  0  0  0  0  0  0  0  0
    4.9239   -3.5994   -1.1832 S   0  0  0  0  0  0  0  0  0  0  0  0
    8.4885   -7.4738   -1.1221 C   0  0  0  0  0  0  0  0  0  0  0  0
    9.4565   -7.9582   -1.9984 C   0  0  0  0  0  0  0  0  0  0  0  0
    9.3861   -7.0754   -3.4351 S   0  0  0  0  0  0  0  0  0  0  0  0
    7.5956   -3.5954    7.6227 H   0  0  0  0  0  0  0  0  0  0  0  0
    7.0843   -2.3975    5.3760 H   0  0  0  0  0  0  0  0  0  0  0  0
    7.5288    0.3677    0.1287 H   0  0  0  0  0  0  0  0  0  0  0  0
    6.1813   -0.6263   -0.5147 H   0  0  0  0  0  0  0  0  0  0  0  0
    4.5965    1.3554    0.0877 H   0  0  0  0  0  0  0  0  0  0  0  0
    6.0805    2.3313    0.3674 H   0  0  0  0  0  0  0  0  0  0  0  0
    5.7656    1.6363   -1.2697 H   0  0  0  0  0  0  0  0  0  0  0  0
    0.2275   -6.5385   11.1542 H   0  0  0  0  0  0  0  0  0  0  0  0
    1.1446   -7.6243   10.0536 H   0  0  0  0  0  0  0  0  0  0  0  0
   -1.2647   -8.2315   10.0915 H   0  0  0  0  0  0  0  0  0  0  0  0
   -0.7884   -7.6453    8.4500 H   0  0  0  0  0  0  0  0  0  0  0  0
   -1.7239   -6.5684    9.5668 H   0  0  0  0  0  0  0  0  0  0  0  0
    0.0088   -3.1791    5.8887 H   0  0  0  0  0  0  0  0  0  0  0  0
   -1.9095   -1.4522    5.3711 H   0  0  0  0  0  0  0  0  0  0  0  0
   -6.3904   -0.0800    9.6405 H   0  0  0  0  0  0  0  0  0  0  0  0
   -6.1046    1.5436    8.9305 H   0  0  0  0  0  0  0  0  0  0  0  0
   -4.7339    1.1933   10.9780 H   0  0  0  0  0  0  0  0  0  0  0  0
   -3.6769    1.3966    9.5264 H   0  0  0  0  0  0  0  0  0  0  0  0
   -3.9475   -0.2463   10.2353 H   0  0  0  0  0  0  0  0  0  0  0  0
   -1.0633   -0.5755   -3.7778 H   0  0  0  0  0  0  0  0  0  0  0  0
   -1.8467   -2.0855   -4.3436 H   0  0  0  0  0  0  0  0  0  0  0  0
   -2.3031   -0.0803   -5.8297 H   0  0  0  0  0  0  0  0  0  0  0  0
   -3.8110   -0.8146   -5.1722 H   0  0  0  0  0  0  0  0  0  0  0  0
   -3.1599    0.7038   -4.4457 H   0  0  0  0  0  0  0  0  0  0  0  0
   -5.9452    0.4430   -0.1697 H   0  0  0  0  0  0  0  0  0  0  0  0
   -9.1878    1.0958    1.4464 H   0  0  0  0  0  0  0  0  0  0  0  0
   -6.4358    2.7579   -0.9518 H   0  0  0  0  0  0  0  0  0  0  0  0
   -7.0729    4.3092   -0.2668 H   0  0  0  0  0  0  0  0  0  0  0  0
   -6.1777    3.2077    0.7917 H   0  0  0  0  0  0  0  0  0  0  0  0
  -10.3203    2.3560   -0.1391 H   0  0  0  0  0  0  0  0  0  0  0  0
   -9.2804    2.8107   -1.5284 H   0  0  0  0  0  0  0  0  0  0  0  0
   -9.7518    4.6956    0.8091 H   0  0  0  0  0  0  0  0  0  0  0  0
  -11.6774    5.2955   -0.6666 H   0  0  0  0  0  0  0  0  0  0  0  0
  -11.1824    5.7443   -2.9645 H   0  0  0  0  0  0  0  0  0  0  0  0
   -7.9294    6.4268   -1.4344 H   0  0  0  0  0  0  0  0  0  0  0  0
   -3.4093    7.2403    2.5616 H   0  0  0  0  0  0  0  0  0  0  0  0
   -3.9987    8.9357    2.4061 H   0  0  0  0  0  0  0  0  0  0  0  0
   -2.1372    9.4606    0.8224 H   0  0  0  0  0  0  0  0  0  0  0  0
   -1.5709    7.7426    0.9160 H   0  0  0  0  0  0  0  0  0  0  0  0
   -1.4948    8.8064    2.3784 H   0  0  0  0  0  0  0  0  0  0  0  0
   -7.9147   -0.4322   -8.4361 H   0  0  0  0  0  0  0  0  0  0  0  0
   -8.1629   -0.9038   -6.7243 H   0  0  0  0  0  0  0  0  0  0  0  0
   -6.6867   -2.5295   -7.8644 H   0  0  0  0  0  0  0  0  0  0  0  0
   -5.5280   -1.2175   -8.3096 H   0  0  0  0  0  0  0  0  0  0  0  0
   -5.7733   -1.6573   -6.5690 H   0  0  0  0  0  0  0  0  0  0  0  0
   -3.4165    2.7871   -5.5337 H   0  0  0  0  0  0  0  0  0  0  0  0
   -0.5097    3.3317   -1.9394 H   0  0  0  0  0  0  0  0  0  0  0  0
    2.0000    2.8798    3.7596 H   0  0  0  0  0  0  0  0  0  0  0  0
    2.0475    1.1088    3.5443 H   0  0  0  0  0  0  0  0  0  0  0  0
   -0.4529    1.0878    3.1916 H   0  0  0  0  0  0  0  0  0  0  0  0
    0.0123    1.7802    4.7906 H   0  0  0  0  0  0  0  0  0  0  0  0
   -0.4794    2.8826    3.4396 H   0  0  0  0  0  0  0  0  0  0  0  0
    2.4435    0.9031  -10.4283 H   0  0  0  0  0  0  0  0  0  0  0  0
    2.3617   -0.8739  -10.7041 H   0  0  0  0  0  0  0  0  0  0  0  0
   -0.1513   -0.7617  -10.6552 H   0  0  0  0  0  0  0  0  0  0  0  0
    0.5460    0.3224  -11.9208 H   0  0  0  0  0  0  0  0  0  0  0  0
   -0.0608    1.0213  -10.3688 H   0  0  0  0  0  0  0  0  0  0  0  0
    3.6001   -1.6207   -4.9854 H   0  0  0  0  0  0  0  0  0  0  0  0
    5.8722   -2.8446   -4.5467 H   0  0  0  0  0  0  0  0  0  0  0  0
    9.5391   -2.9301   -8.9892 H   0  0  0  0  0  0  0  0  0  0  0  0
    9.9124   -1.7944   -7.6454 H   0  0  0  0  0  0  0  0  0  0  0  0
   12.0102   -2.6987   -8.5845 H   0  0  0  0  0  0  0  0  0  0  0  0
   11.4417   -4.3916   -8.3282 H   0  0  0  0  0  0  0  0  0  0  0  0
   11.7890   -3.3276   -6.9063 H   0  0  0  0  0  0  0  0  0  0  0  0
    4.4487   -7.4527    4.3281 H   0  0  0  0  0  0  0  0  0  0  0  0
    3.2714   -7.7346    3.0002 H   0  0  0  0  0  0  0  0  0  0  0  0
    3.8607   -5.0149    4.3211 H   0  0  0  0  0  0  0  0  0  0  0  0
    2.6333   -5.3198    3.0242 H   0  0  0  0  0  0  0  0  0  0  0  0
    2.4360   -6.0597    4.6565 H   0  0  0  0  0  0  0  0  0  0  0  0
    8.3388   -7.8790   -0.1300 H   0  0  0  0  0  0  0  0  0  0  0  0
   10.1406   -8.7712   -1.7897 H   0  0  0  0  0  0  0  0  0  0  0  0
  1  2  2  0
  2  3  1  0
  3  4  2  0
  4  5  1  0
  5  6  1  0
  6  7  1  0
  7  8  1  0
  8  9  1  0
  7 10  2  0
 10 11  1  0
 10 12  1  0
 12 13  1  0
  4 14  1  0
 14 15  2  0
 15 16  1  0
 16 17  1  0
 17 18  1  0
 18 19  1  0
 19 20  1  0
 20 21  1  0
 19 22  2  0
 22 23  1  0
 23 24  1  0
 22 25  1  0
 16 26  2  0
 26 27  1  0
 15 28  1  0
 28 29  2  0
 29 30  1  0
 29 31  1  0
 31 32  2  0
 32 33  1  0
 33 34  2  0
 34 35  1  0
 35 36  1  0
 36 37  1  0
 37 38  1  0
 38 39  1  0
 37 40  2  0
 40 41  1  0
 40 42  1  0
 42 43  1  0
 34 44  1  0
 44 45  2  0
 45 46  1  0
 46 47  1  0
 47 48  1  0
 48 49  1  0
 49 50  1  0
 50 51  1  0
 49 52  2  0
 52 53  1  0
 53 54  1  0
 52 55  1  0
 46 56  2  0
 56 57  1  0
 45 58  1  0
 58 59  2  0
 59 60  1  0
 59 61  1  0
 61 62  2  3
 62 63  1  0
 62 64  1  0
 64 65  1  0
 65 66  1  0
 66 67  2  3
 67 68  1  0
 68 69  2  0
 69 70  1  0
 70 71  2  0
 71 72  1  0
 72 73  1  0
 73 74  1  0
 74 75  1  0
 75 76  1  0
 74 77  2  0
 77 78  1  0
 77 79  1  0
 79 80  1  0
 71 81  1  0
 81 82  2  0
 82 83  1  0
 83 84  1  0
 84 85  1  0
 85 86  1  0
 86 87  1  0
 87 88  1  0
 86 89  2  0
 89 90  1  0
 90 91  1  0
 89 92  1  0
 83 93  2  0
 93 94  1  0
 82 95  1  0
 95 96  2  0
 96 97  1  0
 96 98  1  0
 98 99  2  0
 99100  1  0
100101  2  0
101102  1  0
102103  1  0
103104  1  0
104105  1  0
105106  1  0
104107  2  0
107108  1  0
107109  1  0
109110  1  0
101111  1  0
111112  2  0
112113  1  0
113114  1  0
114115  1  0
115116  1  0
116117  1  0
117118  1  0
116119  2  0
119120  1  0
120121  1  0
119122  1  0
113123  2  0
123124  1  0
112125  1  0
125126  2  0
126127  1  0
126128  1  0
128129  2  0
129130  1  0
130131  2  0
131132  1  0
132133  1  0
133134  1  0
134135  1  0
135136  1  0
134137  2  0
137138  1  0
137139  1  0
139140  1  0
131141  1  0
141142  2  0
142143  1  0
143144  1  0
144145  1  0
145146  1  0
146147  1  0
147148  1  0
146149  2  0
149150  1  0
150151  1  0
149152  1  0
143153  2  0
153154  1  0
142155  1  0
155156  2  0
156157  1  0
 27  1  1  0
 57 31  1  0
 94 68  1  0
124 98  1  0
154128  1  0
 26  3  1  0
 56 33  1  0
 93 70  1  0
123100  1  0
153130  1  0
 12  5  2  0
 30 14  1  0
 42 35  2  0
 60 44  1  0
 79 72  2  0
 97 81  1  0
109102  2  0
127111  1  0
139132  2  0
157141  1  0
 23 17  2  0
 53 47  2  0
 90 84  2  0
120114  2  0
150144  2  0
  1158  1  0
  2159  1  0
  8160  1  0
  8161  1  0
  9162  1  0
  9163  1  0
  9164  1  0
 20165  1  0
 20166  1  0
 21167  1  0
 21168  1  0
 21169  1  0
 28170  1  0
 32171  1  0
 38172  1  0
 38173  1  0
 39174  1  0
 39175  1  0
 39176  1  0
 50177  1  0
 50178  1  0
 51179  1  0
 51180  1  0
 51181  1  0
 58182  1  0
 61183  1  0
 63184  1  0
 63185  1  0
 63186  1  0
 64187  1  0
 64188  1  0
 65189  1  0
 66190  1  0
 67191  1  0
 69192  1  0
 75193  1  0
 75194  1  0
 76195  1  0
 76196  1  0
 76197  1  0
 87198  1  0
 87199  1  0
 88200  1  0
 88201  1  0
 88202  1  0
 95203  1  0
 99204  1  0
105205  1  0
105206  1  0
106207  1  0
106208  1  0
106209  1  0
117210  1  0
117211  1  0
118212  1  0
118213  1  0
118214  1  0
125215  1  0
129216  1  0
135217  1  0
135218  1  0
136219  1  0
136220  1  0
136221  1  0
147222  1  0
147223  1  0
148224  1  0
148225  1  0
148226  1  0
155227  1  0
156228  1  0
M  END

