
     RDKit          3D

234255  0  0  0  0  0  0  0  0999 V2000
    6.9194   -4.3714   11.1130 C   0  0  0  0  0  0  0  0  0  0  0  0
    6.2728   -3.2593   10.5816 C   0  0  0  0  0  0  0  0  0  0  0  0
    4.9577   -3.5303   10.1719 C   0  0  0  0  0  0  0  0  0  0  0  0
    4.0505   -2.6043    9.6287 C   0  0  0  0  0  0  0  0  0  0  0  0
    4.4159   -1.2013    9.3653 C   0  0  0  0  0  0  0  0  0  0  0  0
    5.1978   -0.8756    8.2466 C   0  0  0  0  0  0  0  0  0  0  0  0
    5.4757    0.4619    7.9547 C   0  0  0  0  0  0  0  0  0  0  0  0
    4.9723    1.4824    8.7706 C   0  0  0  0  0  0  0  0  0  0  0  0
    5.3205    3.1987    8.3683 S   0  0  0  0  0  0  0  0  0  0  0  0
    3.9446    3.3790    7.1743 C   0  0  0  0  0  0  0  0  0  0  0  0
    2.6197    3.6085    7.8910 C   0  0  0  0  0  0  0  0  0  0  0  0
    4.2139    1.1566    9.9058 C   0  0  0  0  0  0  0  0  0  0  0  0
    3.7437    2.1323   10.7236 F   0  0  0  0  0  0  0  0  0  0  0  0
    3.9295   -0.1811   10.1966 C   0  0  0  0  0  0  0  0  0  0  0  0
    2.7756   -3.0837    9.2960 C   0  0  0  0  0  0  0  0  0  0  0  0
    2.3943   -4.4187    9.4651 C   0  0  0  0  0  0  0  0  0  0  0  0
    3.2969   -5.3482   10.0294 C   0  0  0  0  0  0  0  0  0  0  0  0
    2.9218   -6.7581   10.2726 C   0  0  0  0  0  0  0  0  0  0  0  0
    1.8036   -7.0656   11.0655 C   0  0  0  0  0  0  0  0  0  0  0  0
    1.4668   -8.3984   11.3200 C   0  0  0  0  0  0  0  0  0  0  0  0
    2.2536   -9.4352   10.8057 C   0  0  0  0  0  0  0  0  0  0  0  0
    1.8187  -11.1427   11.1541 S   0  0  0  0  0  0  0  0  0  0  0  0
    2.6324  -11.1932   12.7910 C   0  0  0  0  0  0  0  0  0  0  0  0
    4.1400  -11.3658   12.6572 C   0  0  0  0  0  0  0  0  0  0  0  0
    3.3585   -9.1342    9.9949 C   0  0  0  0  0  0  0  0  0  0  0  0
    3.6896   -7.8012    9.7297 C   0  0  0  0  0  0  0  0  0  0  0  0
    4.1158  -10.1279    9.4677 F   0  0  0  0  0  0  0  0  0  0  0  0
    4.5756   -4.8599   10.3733 C   0  0  0  0  0  0  0  0  0  0  0  0
    5.8631   -5.6870   11.0745 S   0  0  0  0  0  0  0  0  0  0  0  0
    1.1085   -4.6921    8.9561 C   0  0  0  0  0  0  0  0  0  0  0  0
    0.4840   -3.5634    8.4187 C   0  0  0  0  0  0  0  0  0  0  0  0
    1.5297   -2.2436    8.5527 S   0  0  0  0  0  0  0  0  0  0  0  0
   -0.7835   -3.5274    7.6496 C   0  0  0  0  0  0  0  0  0  0  0  0
   -1.9812   -4.1522    8.0796 C   0  0  0  0  0  0  0  0  0  0  0  0
   -2.0525   -4.9311    9.3670 C   0  0  0  0  0  0  0  0  0  0  0  0
   -3.1433   -4.0366    7.2905 C   0  0  0  0  0  0  0  0  0  0  0  0
   -3.1428   -3.2679    6.1195 C   0  0  0  0  0  0  0  0  0  0  0  0
   -1.9537   -2.6255    5.7044 C   0  0  0  0  0  0  0  0  0  0  0  0
   -0.7889   -2.7859    6.4578 C   0  0  0  0  0  0  0  0  0  0  0  0
   -1.8920   -1.7832    4.4518 C   0  0  0  0  0  0  0  0  0  0  0  0
   -4.3965   -3.0502    5.3598 C   0  0  0  0  0  0  0  0  0  0  0  0
   -5.3083   -2.0503    5.7588 C   0  0  0  0  0  0  0  0  0  0  0  0
   -5.2568   -1.4601    7.1440 C   0  0  0  0  0  0  0  0  0  0  0  0
   -6.1494   -1.4723    4.7954 C   0  0  0  0  0  0  0  0  0  0  0  0
   -6.0941   -1.8653    3.4481 C   0  0  0  0  0  0  0  0  0  0  0  0
   -5.3135   -3.0001    3.0966 C   0  0  0  0  0  0  0  0  0  0  0  0
   -4.4859   -3.5862    4.0679 C   0  0  0  0  0  0  0  0  0  0  0  0
   -5.2116   -3.5064    1.6788 C   0  0  0  0  0  0  0  0  0  0  0  0
   -6.5296   -0.8627    2.4444 C   0  0  0  0  0  0  0  0  0  0  0  0
   -7.0524   -1.0904    1.1664 C   0  0  0  0  0  0  0  0  0  0  0  0
   -6.9017    0.0123    0.3015 C   0  0  0  0  0  0  0  0  0  0  0  0
   -7.0923    0.0066   -1.0978 C   0  0  0  0  0  0  0  0  0  0  0  0
   -7.6971   -1.1432   -1.7957 C   0  0  0  0  0  0  0  0  0  0  0  0
   -7.0123   -2.3637   -1.8907 C   0  0  0  0  0  0  0  0  0  0  0  0
   -7.6358   -3.4730   -2.4725 C   0  0  0  0  0  0  0  0  0  0  0  0
   -8.9374   -3.3632   -2.9784 C   0  0  0  0  0  0  0  0  0  0  0  0
   -9.7495   -4.8089   -3.6743 S   0  0  0  0  0  0  0  0  0  0  0  0
   -9.3225   -4.4277   -5.4098 C   0  0  0  0  0  0  0  0  0  0  0  0
   -7.8869   -4.8346   -5.7207 C   0  0  0  0  0  0  0  0  0  0  0  0
   -9.6169   -2.1412   -2.8984 C   0  0  0  0  0  0  0  0  0  0  0  0
  -10.8847   -2.0279   -3.3710 F   0  0  0  0  0  0  0  0  0  0  0  0
   -8.9987   -1.0335   -2.3107 C   0  0  0  0  0  0  0  0  0  0  0  0
   -6.5965    1.1154   -1.8125 C   0  0  0  0  0  0  0  0  0  0  0  0
   -6.0205    2.2196   -1.1754 C   0  0  0  0  0  0  0  0  0  0  0  0
   -5.8965    2.2584    0.2277 C   0  0  0  0  0  0  0  0  0  0  0  0
   -5.1122    3.3084    0.9159 C   0  0  0  0  0  0  0  0  0  0  0  0
   -5.7184    4.1386    1.8683 C   0  0  0  0  0  0  0  0  0  0  0  0
   -4.9606    5.1004    2.5447 C   0  0  0  0  0  0  0  0  0  0  0  0
   -3.5918    5.2344    2.2780 C   0  0  0  0  0  0  0  0  0  0  0  0
   -2.6242    6.4550    3.1668 S   0  0  0  0  0  0  0  0  0  0  0  0
   -2.1917    5.2982    4.5099 C   0  0  0  0  0  0  0  0  0  0  0  0
   -1.2965    5.9920    5.5246 C   0  0  0  0  0  0  0  0  0  0  0  0
   -2.9823    4.4069    1.3267 C   0  0  0  0  0  0  0  0  0  0  0  0
   -3.7343    3.4363    0.6605 C   0  0  0  0  0  0  0  0  0  0  0  0
   -1.6574    4.5280    1.0604 F   0  0  0  0  0  0  0  0  0  0  0  0
   -6.3323    1.1256    0.9283 C   0  0  0  0  0  0  0  0  0  0  0  0
   -5.9746    0.7289    2.5153 S   0  0  0  0  0  0  0  0  0  0  0  0
   -5.4130    3.1176   -2.0614 C   0  0  0  0  0  0  0  0  0  0  0  0
   -5.3803    2.6646   -3.3778 C   0  0  0  0  0  0  0  0  0  0  0  0
   -6.2468    1.2107   -3.4592 S   0  0  0  0  0  0  0  0  0  0  0  0
   -4.2989    3.0479   -4.3060 C   0  0  0  0  0  0  0  0  0  0  0  0
   -3.9823    2.3985   -5.5019 C   0  0  0  0  0  0  0  0  0  0  0  0
   -2.6501    2.6152   -5.9174 C   0  0  0  0  0  0  0  0  0  0  0  0
   -1.9977    2.0083   -7.0136 C   0  0  0  0  0  0  0  0  0  0  0  0
   -2.7034    1.1105   -7.9487 C   0  0  0  0  0  0  0  0  0  0  0  0
   -3.2781   -0.0856   -7.4885 C   0  0  0  0  0  0  0  0  0  0  0  0
   -4.0092   -0.8942   -8.3630 C   0  0  0  0  0  0  0  0  0  0  0  0
   -4.1574   -0.5195   -9.7057 C   0  0  0  0  0  0  0  0  0  0  0  0
   -5.1667   -1.5228  -10.7990 S   0  0  0  0  0  0  0  0  0  0  0  0
   -6.7497   -0.7491  -10.3036 C   0  0  0  0  0  0  0  0  0  0  0  0
   -6.9474    0.5965  -10.9931 C   0  0  0  0  0  0  0  0  0  0  0  0
   -3.5263    0.6377  -10.1817 C   0  0  0  0  0  0  0  0  0  0  0  0
   -3.6262    0.9866  -11.4904 F   0  0  0  0  0  0  0  0  0  0  0  0
   -2.8068    1.4521   -9.3045 C   0  0  0  0  0  0  0  0  0  0  0  0
   -0.6102    2.2259   -7.1319 C   0  0  0  0  0  0  0  0  0  0  0  0
    0.1097    2.9989   -6.2138 C   0  0  0  0  0  0  0  0  0  0  0  0
   -0.5512    3.6641   -5.1636 C   0  0  0  0  0  0  0  0  0  0  0  0
    0.1841    4.4686   -4.1647 C   0  0  0  0  0  0  0  0  0  0  0  0
    0.8006    5.6691   -4.5472 C   0  0  0  0  0  0  0  0  0  0  0  0
    1.4754    6.4441   -3.5986 C   0  0  0  0  0  0  0  0  0  0  0  0
    1.5340    6.0310   -2.2628 C   0  0  0  0  0  0  0  0  0  0  0  0
    2.4117    7.0297   -1.0556 S   0  0  0  0  0  0  0  0  0  0  0  0
    0.9258    7.8920   -0.4254 C   0  0  0  0  0  0  0  0  0  0  0  0
    0.5185    9.0339   -1.3490 C   0  0  0  0  0  0  0  0  0  0  0  0
    0.9352    4.8212   -1.8804 C   0  0  0  0  0  0  0  0  0  0  0  0
    0.2580    4.0460   -2.8266 C   0  0  0  0  0  0  0  0  0  0  0  0
    0.9984    4.4010   -0.5921 F   0  0  0  0  0  0  0  0  0  0  0  0
   -1.9345    3.4462   -5.0505 C   0  0  0  0  0  0  0  0  0  0  0  0
   -2.9443    3.9240   -3.8035 S   0  0  0  0  0  0  0  0  0  0  0  0
    1.5010    2.8911   -6.3714 C   0  0  0  0  0  0  0  0  0  0  0  0
    1.8662    2.0537   -7.4247 C   0  0  0  0  0  0  0  0  0  0  0  0
    0.4736    1.4374   -8.1512 S   0  0  0  0  0  0  0  0  0  0  0  0
    3.1988    1.4660   -7.5939 C   0  0  0  0  0  0  0  0  0  0  0  0
    3.8108    1.1604   -8.8086 C   0  0  0  0  0  0  0  0  0  0  0  0
    4.9962    0.4203   -8.6478 C   0  0  0  0  0  0  0  0  0  0  0  0
    5.8686   -0.0123   -9.6703 C   0  0  0  0  0  0  0  0  0  0  0  0
    5.6537    0.3262  -11.0948 C   0  0  0  0  0  0  0  0  0  0  0  0
    4.5093   -0.1182  -11.7756 C   0  0  0  0  0  0  0  0  0  0  0  0
    4.3484    0.1617  -13.1391 C   0  0  0  0  0  0  0  0  0  0  0  0
    5.3258    0.8931  -13.8266 C   0  0  0  0  0  0  0  0  0  0  0  0
    5.1368    1.2047  -15.5873 S   0  0  0  0  0  0  0  0  0  0  0  0
    4.0873    2.6891  -15.3928 C   0  0  0  0  0  0  0  0  0  0  0  0
    4.9143    3.9126  -15.0167 C   0  0  0  0  0  0  0  0  0  0  0  0
    6.4699    1.3355  -13.1516 C   0  0  0  0  0  0  0  0  0  0  0  0
    7.4392    2.0181  -13.8117 F   0  0  0  0  0  0  0  0  0  0  0  0
    6.6262    1.0641  -11.7887 C   0  0  0  0  0  0  0  0  0  0  0  0
    6.9926   -0.7612   -9.2679 C   0  0  0  0  0  0  0  0  0  0  0  0
    7.2560   -1.0782   -7.9320 C   0  0  0  0  0  0  0  0  0  0  0  0
    6.3953   -0.6313   -6.9103 C   0  0  0  0  0  0  0  0  0  0  0  0
    6.6272   -0.9689   -5.4923 C   0  0  0  0  0  0  0  0  0  0  0  0
    7.7605   -0.4777   -4.8258 C   0  0  0  0  0  0  0  0  0  0  0  0
    7.9779   -0.8013   -3.4839 C   0  0  0  0  0  0  0  0  0  0  0  0
    7.0709   -1.6199   -2.8002 C   0  0  0  0  0  0  0  0  0  0  0  0
    7.3619   -2.0109   -1.0736 S   0  0  0  0  0  0  0  0  0  0  0  0
    6.3773   -0.6167   -0.4171 C   0  0  0  0  0  0  0  0  0  0  0  0
    7.1539    0.0866    0.6862 C   0  0  0  0  0  0  0  0  0  0  0  0
    5.9434   -2.1211   -3.4643 C   0  0  0  0  0  0  0  0  0  0  0  0
    5.7191   -1.7903   -4.8051 C   0  0  0  0  0  0  0  0  0  0  0  0
    5.0593   -2.9202   -2.8126 F   0  0  0  0  0  0  0  0  0  0  0  0
    5.2798    0.1286   -7.3061 C   0  0  0  0  0  0  0  0  0  0  0  0
    4.0990    0.8121   -6.3264 S   0  0  0  0  0  0  0  0  0  0  0  0
    8.3960   -1.8833   -7.7677 C   0  0  0  0  0  0  0  0  0  0  0  0
    9.0306   -2.1867   -8.9689 C   0  0  0  0  0  0  0  0  0  0  0  0
    8.1747   -1.4711  -10.2331 S   0  0  0  0  0  0  0  0  0  0  0  0
    7.9337   -4.3874   11.4880 H   0  0  0  0  0  0  0  0  0  0  0  0
    6.7432   -2.2873   10.5020 H   0  0  0  0  0  0  0  0  0  0  0  0
    5.5711   -1.6548    7.5939 H   0  0  0  0  0  0  0  0  0  0  0  0
    6.0703    0.7076    7.0829 H   0  0  0  0  0  0  0  0  0  0  0  0
    4.1597    4.2582    6.5320 H   0  0  0  0  0  0  0  0  0  0  0  0
    3.8735    2.4869    6.5165 H   0  0  0  0  0  0  0  0  0  0  0  0
    2.3199    2.6997    8.4514 H   0  0  0  0  0  0  0  0  0  0  0  0
    2.7071    4.4646    8.5930 H   0  0  0  0  0  0  0  0  0  0  0  0
    1.8275    3.8373    7.1451 H   0  0  0  0  0  0  0  0  0  0  0  0
    3.3231   -0.4259   11.0610 H   0  0  0  0  0  0  0  0  0  0  0  0
    1.1989   -6.2738   11.4948 H   0  0  0  0  0  0  0  0  0  0  0  0
    0.6027   -8.6250   11.9331 H   0  0  0  0  0  0  0  0  0  0  0  0
    2.4029  -10.2769   13.3725 H   0  0  0  0  0  0  0  0  0  0  0  0
    2.2236  -12.0616   13.3501 H   0  0  0  0  0  0  0  0  0  0  0  0
    4.5870  -11.5067   13.6632 H   0  0  0  0  0  0  0  0  0  0  0  0
    4.3717  -12.2568   12.0370 H   0  0  0  0  0  0  0  0  0  0  0  0
    4.5954  -10.4656   12.1977 H   0  0  0  0  0  0  0  0  0  0  0  0
    4.5425   -7.5785    9.0999 H   0  0  0  0  0  0  0  0  0  0  0  0
    0.6809   -5.6819    8.9142 H   0  0  0  0  0  0  0  0  0  0  0  0
   -3.0988   -4.9927    9.7348 H   0  0  0  0  0  0  0  0  0  0  0  0
   -1.4563   -4.4380   10.1634 H   0  0  0  0  0  0  0  0  0  0  0  0
   -1.6758   -5.9622    9.1998 H   0  0  0  0  0  0  0  0  0  0  0  0
   -4.0614   -4.5215    7.6055 H   0  0  0  0  0  0  0  0  0  0  0  0
    0.1244   -2.3155    6.1147 H   0  0  0  0  0  0  0  0  0  0  0  0
   -2.8079   -1.1682    4.3342 H   0  0  0  0  0  0  0  0  0  0  0  0
   -1.7799   -2.4456    3.5683 H   0  0  0  0  0  0  0  0  0  0  0  0
   -1.0294   -1.0818    4.4810 H   0  0  0  0  0  0  0  0  0  0  0  0
   -4.3077   -0.8992    7.2765 H   0  0  0  0  0  0  0  0  0  0  0  0
   -5.3133   -2.2668    7.9036 H   0  0  0  0  0  0  0  0  0  0  0  0
   -6.1053   -0.7654    7.3231 H   0  0  0  0  0  0  0  0  0  0  0  0
   -6.7531   -0.6144    5.0693 H   0  0  0  0  0  0  0  0  0  0  0  0
   -3.7934   -4.3695    3.7803 H   0  0  0  0  0  0  0  0  0  0  0  0
   -4.4821   -4.3390    1.5881 H   0  0  0  0  0  0  0  0  0  0  0  0
   -6.1947   -3.8960    1.3427 H   0  0  0  0  0  0  0  0  0  0  0  0
   -4.8626   -2.6946    1.0072 H   0  0  0  0  0  0  0  0  0  0  0  0
   -7.4337   -2.0473    0.8461 H   0  0  0  0  0  0  0  0  0  0  0  0
   -6.0087   -2.4611   -1.4954 H   0  0  0  0  0  0  0  0  0  0  0  0
   -7.1122   -4.4192   -2.5182 H   0  0  0  0  0  0  0  0  0  0  0  0
  -10.0080   -5.0077   -6.0642 H   0  0  0  0  0  0  0  0  0  0  0  0
   -9.4666   -3.3461   -5.6279 H   0  0  0  0  0  0  0  0  0  0  0  0
   -7.1737   -4.1751   -5.1854 H   0  0  0  0  0  0  0  0  0  0  0  0
   -7.7017   -4.7428   -6.8119 H   0  0  0  0  0  0  0  0  0  0  0  0
   -7.7146   -5.8886   -5.4121 H   0  0  0  0  0  0  0  0  0  0  0  0
   -9.5401   -0.0976   -2.2276 H   0  0  0  0  0  0  0  0  0  0  0  0
   -6.7753    4.0380    2.0881 H   0  0  0  0  0  0  0  0  0  0  0  0
   -5.4355    5.7344    3.2820 H   0  0  0  0  0  0  0  0  0  0  0  0
   -3.1198    4.9512    5.0148 H   0  0  0  0  0  0  0  0  0  0  0  0
   -1.6553    4.4194    4.0905 H   0  0  0  0  0  0  0  0  0  0  0  0
   -0.3497    6.3162    5.0410 H   0  0  0  0  0  0  0  0  0  0  0  0
   -1.8147    6.8806    5.9489 H   0  0  0  0  0  0  0  0  0  0  0  0
   -1.0526    5.2898    6.3498 H   0  0  0  0  0  0  0  0  0  0  0  0
   -3.2459    2.7825   -0.0534 H   0  0  0  0  0  0  0  0  0  0  0  0
   -4.8704    3.9923   -1.7335 H   0  0  0  0  0  0  0  0  0  0  0  0
   -4.6652    1.7195   -5.9937 H   0  0  0  0  0  0  0  0  0  0  0  0
   -3.1768   -0.3818   -6.4507 H   0  0  0  0  0  0  0  0  0  0  0  0
   -4.4766   -1.7962   -7.9942 H   0  0  0  0  0  0  0  0  0  0  0  0
   -7.5758   -1.4281  -10.6048 H   0  0  0  0  0  0  0  0  0  0  0  0
   -6.7976   -0.6213   -9.2002 H   0  0  0  0  0  0  0  0  0  0  0  0
   -6.1968    1.3321  -10.6369 H   0  0  0  0  0  0  0  0  0  0  0  0
   -7.9593    0.9895  -10.7571 H   0  0  0  0  0  0  0  0  0  0  0  0
   -6.8555    0.4821  -12.0951 H   0  0  0  0  0  0  0  0  0  0  0  0
   -2.3476    2.3616   -9.6745 H   0  0  0  0  0  0  0  0  0  0  0  0
    0.7483    6.0076   -5.5755 H   0  0  0  0  0  0  0  0  0  0  0  0
    1.9478    7.3703   -3.9031 H   0  0  0  0  0  0  0  0  0  0  0  0
    1.1693    8.3134    0.5751 H   0  0  0  0  0  0  0  0  0  0  0  0
    0.0793    7.1809   -0.3010 H   0  0  0  0  0  0  0  0  0  0  0  0
   -0.3240    9.5967   -0.8933 H   0  0  0  0  0  0  0  0  0  0  0  0
    0.1865    8.6377   -2.3313 H   0  0  0  0  0  0  0  0  0  0  0  0
    1.3734    9.7303   -1.4997 H   0  0  0  0  0  0  0  0  0  0  0  0
   -0.2080    3.1161   -2.5208 H   0  0  0  0  0  0  0  0  0  0  0  0
    2.2220    3.3345   -5.6945 H   0  0  0  0  0  0  0  0  0  0  0  0
    3.4009    1.4602   -9.7624 H   0  0  0  0  0  0  0  0  0  0  0  0
    3.7526   -0.6981  -11.2584 H   0  0  0  0  0  0  0  0  0  0  0  0
    3.4671   -0.1927  -13.6573 H   0  0  0  0  0  0  0  0  0  0  0  0
    3.2965    2.5121  -14.6313 H   0  0  0  0  0  0  0  0  0  0  0  0
    3.5882    2.8839  -16.3674 H   0  0  0  0  0  0  0  0  0  0  0  0
    5.3326    3.7999  -13.9939 H   0  0  0  0  0  0  0  0  0  0  0  0
    5.7431    4.0590  -15.7444 H   0  0  0  0  0  0  0  0  0  0  0  0
    4.2673    4.8150  -15.0283 H   0  0  0  0  0  0  0  0  0  0  0  0
    7.5135    1.4156  -11.2751 H   0  0  0  0  0  0  0  0  0  0  0  0
    8.4669    0.1598   -5.3417 H   0  0  0  0  0  0  0  0  0  0  0  0
    8.8519   -0.4146   -2.9754 H   0  0  0  0  0  0  0  0  0  0  0  0
    6.1290    0.1270   -1.2068 H   0  0  0  0  0  0  0  0  0  0  0  0
    5.4281   -1.0161    0.0011 H   0  0  0  0  0  0  0  0  0  0  0  0
    8.0782    0.5377    0.2683 H   0  0  0  0  0  0  0  0  0  0  0  0
    7.4269   -0.6327    1.4876 H   0  0  0  0  0  0  0  0  0  0  0  0
    6.5274    0.8909    1.1249 H   0  0  0  0  0  0  0  0  0  0  0  0
    4.8416   -2.1803   -5.3134 H   0  0  0  0  0  0  0  0  0  0  0  0
    8.7520   -2.2474   -6.8134 H   0  0  0  0  0  0  0  0  0  0  0  0
    9.9181   -2.7954   -9.0729 H   0  0  0  0  0  0  0  0  0  0  0  0
  1  2  2  0
  2  3  1  0
  3  4  2  0
  4  5  1  0
  5  6  2  0
  6  7  1  0
  7  8  2  0
  8  9  1  0
  9 10  1  0
 10 11  1  0
  8 12  1  0
 12 13  1  0
 12 14  2  0
  4 15  1  0
 15 16  2  0
 16 17  1  0
 17 18  1  0
 18 19  2  0
 19 20  1  0
 20 21  2  0
 21 22  1  0
 22 23  1  0
 23 24  1  0
 21 25  1  0
 25 26  2  0
 25 27  1  0
 17 28  2  0
 28 29  1  0
 16 30  1  0
 30 31  2  0
 31 32  1  0
 31 33  1  0
 33 34  2  0
 34 35  1  0
 34 36  1  0
 36 37  2  0
 37 38  1  0
 38 39  2  0
 38 40  1  0
 37 41  1  0
 41 42  2  0
 42 43  1  0
 42 44  1  0
 44 45  2  0
 45 46  1  0
 46 47  2  0
 46 48  1  0
 45 49  1  0
 49 50  2  0
 50 51  1  0
 51 52  2  0
 52 53  1  0
 53 54  2  0
 54 55  1  0
 55 56  2  0
 56 57  1  0
 57 58  1  0
 58 59  1  0
 56 60  1  0
 60 61  1  0
 60 62  2  0
 52 63  1  0
 63 64  2  0
 64 65  1  0
 65 66  1  0
 66 67  2  0
 67 68  1  0
 68 69  2  0
 69 70  1  0
 70 71  1  0
 71 72  1  0
 69 73  1  0
 73 74  2  0
 73 75  1  0
 65 76  2  0
 76 77  1  0
 64 78  1  0
 78 79  2  0
 79 80  1  0
 79 81  1  0
 81 82  2  0
 82 83  1  0
 83 84  2  0
 84 85  1  0
 85 86  2  0
 86 87  1  0
 87 88  2  0
 88 89  1  0
 89 90  1  0
 90 91  1  0
 88 92  1  0
 92 93  1  0
 92 94  2  0
 84 95  1  0
 95 96  2  0
 96 97  1  0
 97 98  1  0
 98 99  2  0
 99100  1  0
100101  2  0
101102  1  0
102103  1  0
103104  1  0
101105  1  0
105106  2  0
105107  1  0
 97108  2  0
108109  1  0
 96110  1  0
110111  2  0
111112  1  0
111113  1  0
113114  2  0
114115  1  0
115116  2  0
116117  1  0
117118  2  0
118119  1  0
119120  2  0
120121  1  0
121122  1  0
122123  1  0
120124  1  0
124125  1  0
124126  2  0
116127  1  0
127128  2  0
128129  1  0
129130  1  0
130131  2  0
131132  1  0
132133  2  0
133134  1  0
134135  1  0
135136  1  0
133137  1  0
137138  2  0
137139  1  0
129140  2  0
140141  1  0
128142  1  0
142143  2  0
143144  1  0
 29  1  1  0
 39 33  1  0
 47 41  1  0
 77 49  1  0
109 81  1  0
141113  1  0
 28  3  1  0
 76 51  1  0
108 83  1  0
140115  1  0
 14  5  1  0
 32 15  1  0
 62 53  1  0
 80 63  1  0
 94 85  1  0
112 95  1  0
126117  1  0
144127  1  0
 26 18  1  0
 74 66  1  0
106 98  1  0
138130  1  0
  1145  1  0
  2146  1  0
  6147  1  0
  7148  1  0
 10149  1  0
 10150  1  0
 11151  1  0
 11152  1  0
 11153  1  0
 14154  1  0
 19155  1  0
 20156  1  0
 23157  1  0
 23158  1  0
 24159  1  0
 24160  1  0
 24161  1  0
 26162  1  0
 30163  1  0
 35164  1  0
 35165  1  0
 35166  1  0
 36167  1  0
 39168  1  0
 40169  1  0
 40170  1  0
 40171  1  0
 43172  1  0
 43173  1  0
 43174  1  0
 44175  1  0
 47176  1  0
 48177  1  0
 48178  1  0
 48179  1  0
 50180  1  0
 54181  1  0
 55182  1  0
 58183  1  0
 58184  1  0
 59185  1  0
 59186  1  0
 59187  1  0
 62188  1  0
 67189  1  0
 68190  1  0
 71191  1  0
 71192  1  0
 72193  1  0
 72194  1  0
 72195  1  0
 74196  1  0
 78197  1  0
 82198  1  0
 86199  1  0
 87200  1  0
 90201  1  0
 90202  1  0
 91203  1  0
 91204  1  0
 91205  1  0
 94206  1  0
 99207  1  0
100208  1  0
103209  1  0
103210  1  0
104211  1  0
104212  1  0
104213  1  0
106214  1  0
110215  1  0
114216  1  0
118217  1  0
119218  1  0
122219  1  0
122220  1  0
123221  1  0
123222  1  0
123223  1  0
126224  1  0
131225  1  0
132226  1  0
135227  1  0
135228  1  0
136229  1  0
136230  1  0
136231  1  0
138232  1  0
142233  1  0
143234  1  0
M  END

