
     RDKit          3D

216239  0  0  0  0  0  0  0  0999 V2000
   -1.1221   -6.7144   10.1023 C   0  0  0  0  0  0  0  0  0  0  0  0
   -1.6847   -7.2116    8.6078 S   0  0  0  0  0  0  0  0  0  0  0  0
   -1.2334   -5.8336    7.7657 C   0  0  0  0  0  0  0  0  0  0  0  0
   -0.5902   -4.9482    8.6417 C   0  0  0  0  0  0  0  0  0  0  0  0
   -0.5865   -5.4314    9.9764 C   0  0  0  0  0  0  0  0  0  0  0  0
   -0.0005   -4.6379   11.1352 C   0  0  2  0  0  0  0  0  0  0  0  0
   -0.7513   -4.8546   12.4726 C   0  0  0  0  0  0  0  0  0  0  0  0
   -0.4816   -6.1175   12.9679 F   0  0  0  0  0  0  0  0  0  0  0  0
   -2.1182   -4.7099   12.3007 F   0  0  0  0  0  0  0  0  0  0  0  0
   -0.3213   -3.9363   13.4176 F   0  0  0  0  0  0  0  0  0  0  0  0
    0.0343   -3.1421   10.7700 C   0  0  0  0  0  0  0  0  0  0  0  0
    0.7508   -2.9313    9.4355 C   0  0  0  0  0  0  0  0  0  0  0  0
    0.0049   -3.5897    8.2489 C   0  0  1  0  0  0  0  0  0  0  0  0
    0.9606   -3.6762    7.0237 C   0  0  0  0  0  0  0  0  0  0  0  0
    1.6879   -4.8542    7.0524 F   0  0  0  0  0  0  0  0  0  0  0  0
    0.2442   -3.6116    5.8433 F   0  0  0  0  0  0  0  0  0  0  0  0
    1.8506   -2.6105    7.0066 F   0  0  0  0  0  0  0  0  0  0  0  0
   -1.5598   -5.6329    6.3587 C   0  0  0  0  0  0  0  0  0  0  0  0
   -0.9085   -6.2485    5.2978 C   0  0  0  0  0  0  0  0  0  0  0  0
   -1.4374   -5.8741    4.0549 C   0  0  0  0  0  0  0  0  0  0  0  0
   -0.9475   -6.2645    2.7945 C   0  0  0  0  0  0  0  0  0  0  0  0
    0.2668   -7.0838    2.6581 C   0  0  0  0  0  0  0  0  0  0  0  0
    1.7687   -6.4808    2.2059 S   0  0  0  0  0  0  0  0  0  0  0  0
    2.6037   -7.9261    2.4208 C   0  0  0  0  0  0  0  0  0  0  0  0
    4.0632   -8.1074    2.1325 C   0  0  0  0  0  0  0  0  0  0  0  0
    4.2720   -8.5475    0.6872 C   0  0  0  0  0  0  0  0  0  0  0  0
    1.7052   -8.9117    2.8264 C   0  0  0  0  0  0  0  0  0  0  0  0
    2.1596  -10.5847    3.1219 Cl  0  0  0  0  0  0  0  0  0  0  0  0
    0.3935   -8.4319    2.9779 C   0  0  0  0  0  0  0  0  0  0  0  0
   -0.9513   -9.4259    3.5197 Cl  0  0  0  0  0  0  0  0  0  0  0  0
   -1.6128   -5.7590    1.6697 C   0  0  0  0  0  0  0  0  0  0  0  0
   -2.7229   -4.9134    1.7699 C   0  0  0  0  0  0  0  0  0  0  0  0
   -3.2005   -4.5033    3.0323 C   0  0  0  0  0  0  0  0  0  0  0  0
   -4.3168   -3.5489    3.1664 C   0  0  0  0  0  0  0  0  0  0  0  0
   -4.1649   -1.9704    3.7232 S   0  0  0  0  0  0  0  0  0  0  0  0
   -5.7799   -1.5418    3.4976 C   0  0  0  0  0  0  0  0  0  0  0  0
   -6.3433   -0.1642    3.7210 C   0  0  0  0  0  0  0  0  0  0  0  0
   -5.9326    0.3928    5.0807 C   0  0  0  0  0  0  0  0  0  0  0  0
   -6.4530   -2.6330    2.9472 C   0  0  0  0  0  0  0  0  0  0  0  0
   -5.6370   -3.7619    2.7735 C   0  0  0  0  0  0  0  0  0  0  0  0
   -6.2225   -5.2879    2.1250 Cl  0  0  0  0  0  0  0  0  0  0  0  0
   -8.1562   -2.6075    2.4933 Cl  0  0  0  0  0  0  0  0  0  0  0  0
   -2.5208   -4.9953    4.1578 C   0  0  0  0  0  0  0  0  0  0  0  0
   -2.8080   -4.6598    5.7831 S   0  0  0  0  0  0  0  0  0  0  0  0
   -3.2120   -4.4980    0.5239 C   0  0  0  0  0  0  0  0  0  0  0  0
   -2.4823   -5.0173   -0.5446 C   0  0  0  0  0  0  0  0  0  0  0  0
   -1.2245   -5.9765    0.0464 S   0  0  0  0  0  0  0  0  0  0  0  0
   -2.6523   -4.6102   -1.9437 C   0  0  0  0  0  0  0  0  0  0  0  0
   -3.7923   -3.9996   -2.4671 C   0  0  0  0  0  0  0  0  0  0  0  0
   -3.5844   -3.4427   -3.7374 C   0  0  0  0  0  0  0  0  0  0  0  0
   -4.4939   -2.6279   -4.4376 C   0  0  0  0  0  0  0  0  0  0  0  0
   -5.8293   -2.3275   -3.8937 C   0  0  0  0  0  0  0  0  0  0  0  0
   -6.3262   -0.8166   -3.3429 S   0  0  0  0  0  0  0  0  0  0  0  0
   -7.8667   -1.2929   -2.8712 C   0  0  0  0  0  0  0  0  0  0  0  0
   -8.9199   -0.3586   -2.3589 C   0  0  0  0  0  0  0  0  0  0  0  0
   -9.7456    0.1990   -3.5131 C   0  0  0  0  0  0  0  0  0  0  0  0
   -8.0171   -2.6518   -3.1459 C   0  0  0  0  0  0  0  0  0  0  0  0
   -9.5032   -3.5461   -2.8456 Cl  0  0  0  0  0  0  0  0  0  0  0  0
   -6.8701   -3.2354   -3.7087 C   0  0  0  0  0  0  0  0  0  0  0  0
   -6.7724   -4.9278   -4.1744 Cl  0  0  0  0  0  0  0  0  0  0  0  0
   -3.9984   -1.9545   -5.5680 C   0  0  0  0  0  0  0  0  0  0  0  0
   -2.6710   -2.0666   -5.9952 C   0  0  0  0  0  0  0  0  0  0  0  0
   -1.7762   -2.9262   -5.3234 C   0  0  0  0  0  0  0  0  0  0  0  0
   -0.3356   -2.9357   -5.6227 C   0  0  0  0  0  0  0  0  0  0  0  0
    0.3842   -3.7832   -6.8840 S   0  0  0  0  0  0  0  0  0  0  0  0
    1.9655   -3.3570   -6.4977 C   0  0  0  0  0  0  0  0  0  0  0  0
    3.1821   -3.8720   -7.2020 C   0  0  0  0  0  0  0  0  0  0  0  0
    3.6860   -5.1525   -6.5441 C   0  0  0  0  0  0  0  0  0  0  0  0
    1.9507   -2.5585   -5.3554 C   0  0  0  0  0  0  0  0  0  0  0  0
    0.6582   -2.3103   -4.8741 C   0  0  0  0  0  0  0  0  0  0  0  0
    0.3258   -1.3180   -3.4599 Cl  0  0  0  0  0  0  0  0  0  0  0  0
    3.4016   -1.9403   -4.5792 Cl  0  0  0  0  0  0  0  0  0  0  0  0
   -2.2727   -3.6075   -4.2003 C   0  0  0  0  0  0  0  0  0  0  0  0
   -1.3889   -4.4787   -3.0557 S   0  0  0  0  0  0  0  0  0  0  0  0
   -2.3160   -1.1051   -6.9571 C   0  0  0  0  0  0  0  0  0  0  0  0
   -3.3489   -0.2063   -7.2579 C   0  0  0  0  0  0  0  0  0  0  0  0
   -4.7189   -0.6779   -6.3854 S   0  0  0  0  0  0  0  0  0  0  0  0
   -3.0937    1.1995   -7.6339 C   0  0  0  0  0  0  0  0  0  0  0  0
   -3.7275    2.2583   -6.9785 C   0  0  0  0  0  0  0  0  0  0  0  0
   -2.9172    3.3942   -6.8308 C   0  0  0  0  0  0  0  0  0  0  0  0
   -3.1613    4.4444   -5.9233 C   0  0  0  0  0  0  0  0  0  0  0  0
   -4.3518    4.4420   -5.0581 C   0  0  0  0  0  0  0  0  0  0  0  0
   -4.5473    3.4482   -3.7132 S   0  0  0  0  0  0  0  0  0  0  0  0
   -5.9930    4.1348   -3.1919 C   0  0  0  0  0  0  0  0  0  0  0  0
   -6.6881    3.7685   -1.9156 C   0  0  0  0  0  0  0  0  0  0  0  0
   -6.3316    4.7485   -0.8028 C   0  0  0  0  0  0  0  0  0  0  0  0
   -6.3245    5.1793   -4.0543 C   0  0  0  0  0  0  0  0  0  0  0  0
   -7.7333    6.2023   -3.8378 Cl  0  0  0  0  0  0  0  0  0  0  0  0
   -5.3984    5.3584   -5.0940 C   0  0  0  0  0  0  0  0  0  0  0  0
   -5.5212    6.6288   -6.3075 Cl  0  0  0  0  0  0  0  0  0  0  0  0
   -2.0798    5.2850   -5.6238 C   0  0  0  0  0  0  0  0  0  0  0  0
   -0.8232    5.1336   -6.2166 C   0  0  0  0  0  0  0  0  0  0  0  0
   -0.6147    4.1579   -7.2150 C   0  0  0  0  0  0  0  0  0  0  0  0
    0.7301    3.9154   -7.7736 C   0  0  0  0  0  0  0  0  0  0  0  0
    1.6452    2.5259   -7.5245 S   0  0  0  0  0  0  0  0  0  0  0  0
    2.9957    3.0458   -8.3842 C   0  0  0  0  0  0  0  0  0  0  0  0
    4.2019    2.2019   -8.6541 C   0  0  0  0  0  0  0  0  0  0  0  0
    4.0667    1.4922   -9.9966 C   0  0  0  0  0  0  0  0  0  0  0  0
    2.7427    4.3209   -8.8858 C   0  0  0  0  0  0  0  0  0  0  0  0
    1.4779    4.8142   -8.5309 C   0  0  0  0  0  0  0  0  0  0  0  0
    0.8782    6.3922   -9.0307 Cl  0  0  0  0  0  0  0  0  0  0  0  0
    3.8803    5.2192   -9.8794 Cl  0  0  0  0  0  0  0  0  0  0  0  0
   -1.6793    3.2746   -7.4669 C   0  0  0  0  0  0  0  0  0  0  0  0
   -1.5856    1.7467   -8.1652 S   0  0  0  0  0  0  0  0  0  0  0  0
    0.2043    5.7757   -5.4995 C   0  0  0  0  0  0  0  0  0  0  0  0
   -0.2285    6.3563   -4.3035 C   0  0  0  0  0  0  0  0  0  0  0  0
   -1.9046    6.1887   -4.2201 S   0  0  0  0  0  0  0  0  0  0  0  0
    0.6131    6.3528   -3.0928 C   0  0  0  0  0  0  0  0  0  0  0  0
    0.1998    5.7477   -1.9025 C   0  0  0  0  0  0  0  0  0  0  0  0
    1.2589    5.3277   -1.0904 C   0  0  0  0  0  0  0  0  0  0  0  0
    1.1519    4.5044    0.0520 C   0  0  0  0  0  0  0  0  0  0  0  0
   -0.1454    3.9694    0.5177 C   0  0  0  0  0  0  0  0  0  0  0  0
   -1.1658    3.0018   -0.4166 S   0  0  0  0  0  0  0  0  0  0  0  0
   -2.2940    2.6972    0.7947 C   0  0  0  0  0  0  0  0  0  0  0  0
   -3.4770    1.7871    0.6414 C   0  0  0  0  0  0  0  0  0  0  0  0
   -3.0574    0.3252    0.7777 C   0  0  0  0  0  0  0  0  0  0  0  0
   -1.8706    3.3296    1.9634 C   0  0  0  0  0  0  0  0  0  0  0  0
   -2.7153    3.2081    3.4994 Cl  0  0  0  0  0  0  0  0  0  0  0  0
   -0.6765    4.0527    1.8032 C   0  0  0  0  0  0  0  0  0  0  0  0
    0.0688    4.9844    3.0964 Cl  0  0  0  0  0  0  0  0  0  0  0  0
    2.3586    4.0784    0.6363 C   0  0  0  0  0  0  0  0  0  0  0  0
    3.6129    4.4512    0.1441 C   0  0  0  0  0  0  0  0  0  0  0  0
    3.7137    5.2741   -0.9948 C   0  0  0  0  0  0  0  0  0  0  0  0
    5.0138    5.5879   -1.6029 C   0  0  0  0  0  0  0  0  0  0  0  0
    6.0451    6.8127   -1.0915 S   0  0  0  0  0  0  0  0  0  0  0  0
    7.2801    6.4693   -2.1848 C   0  0  0  0  0  0  0  0  0  0  0  0
    8.5862    7.2037   -2.2436 C   0  0  0  0  0  0  0  0  0  0  0  0
    9.5908    6.6029   -1.2679 C   0  0  0  0  0  0  0  0  0  0  0  0
    6.9066    5.3629   -2.9441 C   0  0  0  0  0  0  0  0  0  0  0  0
    5.6318    4.8724   -2.6197 C   0  0  0  0  0  0  0  0  0  0  0  0
    4.9021    3.4742   -3.3989 Cl  0  0  0  0  0  0  0  0  0  0  0  0
    7.9383    4.6348   -4.1682 Cl  0  0  0  0  0  0  0  0  0  0  0  0
    2.5124    5.6799   -1.6008 C   0  0  0  0  0  0  0  0  0  0  0  0
    2.3073    6.4257   -3.0960 S   0  0  0  0  0  0  0  0  0  0  0  0
    4.6815    3.8305    0.8166 C   0  0  0  0  0  0  0  0  0  0  0  0
    4.2665    2.9309    1.8063 C   0  0  0  0  0  0  0  0  0  0  0  0
    2.5760    2.9457    1.8596 S   0  0  0  0  0  0  0  0  0  0  0  0
    5.1778    2.0933    2.6155 C   0  0  0  0  0  0  0  0  0  0  0  0
    6.7820    2.5121    2.9012 S   0  0  0  0  0  0  0  0  0  0  0  0
    7.2450    1.1057    3.6807 C   0  0  0  0  0  0  0  0  0  0  0  0
    6.1428    0.2479    3.7069 C   0  0  0  0  0  0  0  0  0  0  0  0
    4.9729    0.8049    3.1476 C   0  0  0  0  0  0  0  0  0  0  0  0
    3.6694    0.0277    3.1462 C   0  0  2  0  0  0  0  0  0  0  0  0
    2.8326    0.3724    4.4016 C   0  0  0  0  0  0  0  0  0  0  0  0
    3.4425   -0.1142    5.5430 F   0  0  0  0  0  0  0  0  0  0  0  0
    1.5738   -0.1911    4.2951 F   0  0  0  0  0  0  0  0  0  0  0  0
    2.6854    1.7389    4.5441 F   0  0  0  0  0  0  0  0  0  0  0  0
    3.8770   -1.5208    3.0362 C   0  0  0  0  0  0  0  0  0  0  0  0
    5.3407   -1.9988    3.0961 C   0  0  0  0  0  0  0  0  0  0  0  0
    6.1610   -1.2066    4.1364 C   0  0  1  0  0  0  0  0  0  0  0  0
    7.5789   -1.8045    4.2896 C   0  0  0  0  0  0  0  0  0  0  0  0
    7.4978   -3.1578    4.5796 F   0  0  0  0  0  0  0  0  0  0  0  0
    8.2403   -1.1845    5.3384 F   0  0  0  0  0  0  0  0  0  0  0  0
    8.3119   -1.6401    3.1238 F   0  0  0  0  0  0  0  0  0  0  0  0
   -1.1864   -7.3018   11.0052 H   0  0  0  0  0  0  0  0  0  0  0  0
    1.0479   -4.9855   11.2800 H   0  0  0  0  0  0  0  0  0  0  0  0
   -0.9989   -2.7320   10.7101 H   0  0  0  0  0  0  0  0  0  0  0  0
    0.5870   -2.5775   11.5516 H   0  0  0  0  0  0  0  0  0  0  0  0
    0.8372   -1.8387    9.2511 H   0  0  0  0  0  0  0  0  0  0  0  0
    1.7814   -3.3438    9.5199 H   0  0  0  0  0  0  0  0  0  0  0  0
   -0.8440   -2.9234    7.9793 H   0  0  0  0  0  0  0  0  0  0  0  0
   -0.0631   -6.9128    5.4263 H   0  0  0  0  0  0  0  0  0  0  0  0
    4.5954   -7.1431    2.3015 H   0  0  0  0  0  0  0  0  0  0  0  0
    4.4981   -8.8604    2.8205 H   0  0  0  0  0  0  0  0  0  0  0  0
    3.7693   -9.5237    0.5055 H   0  0  0  0  0  0  0  0  0  0  0  0
    3.8562   -7.7853   -0.0100 H   0  0  0  0  0  0  0  0  0  0  0  0
    5.3620   -8.6543    0.4869 H   0  0  0  0  0  0  0  0  0  0  0  0
   -5.9906    0.5135    2.9158 H   0  0  0  0  0  0  0  0  0  0  0  0
   -7.4555   -0.1969    3.6826 H   0  0  0  0  0  0  0  0  0  0  0  0
   -6.2384   -0.3072    5.8884 H   0  0  0  0  0  0  0  0  0  0  0  0
   -4.8346    0.5508    5.1220 H   0  0  0  0  0  0  0  0  0  0  0  0
   -6.4347    1.3699    5.2478 H   0  0  0  0  0  0  0  0  0  0  0  0
   -4.0251   -3.7929    0.4032 H   0  0  0  0  0  0  0  0  0  0  0  0
   -4.7138   -3.8961   -1.9100 H   0  0  0  0  0  0  0  0  0  0  0  0
   -9.5864   -0.8825   -1.6420 H   0  0  0  0  0  0  0  0  0  0  0  0
   -8.4305    0.4859   -1.8237 H   0  0  0  0  0  0  0  0  0  0  0  0
   -9.0805    0.7124   -4.2458 H   0  0  0  0  0  0  0  0  0  0  0  0
  -10.4780    0.9409   -3.1274 H   0  0  0  0  0  0  0  0  0  0  0  0
  -10.2883   -0.6203   -4.0305 H   0  0  0  0  0  0  0  0  0  0  0  0
    2.9327   -4.0806   -8.2639 H   0  0  0  0  0  0  0  0  0  0  0  0
    3.9859   -3.1069   -7.1844 H   0  0  0  0  0  0  0  0  0  0  0  0
    2.9082   -5.9425   -6.6124 H   0  0  0  0  0  0  0  0  0  0  0  0
    4.6016   -5.5099   -7.0612 H   0  0  0  0  0  0  0  0  0  0  0  0
    3.9243   -4.9707   -5.4764 H   0  0  0  0  0  0  0  0  0  0  0  0
   -1.2970   -0.9635   -7.2898 H   0  0  0  0  0  0  0  0  0  0  0  0
   -4.6626    2.1346   -6.4405 H   0  0  0  0  0  0  0  0  0  0  0  0
   -6.3788    2.7470   -1.6057 H   0  0  0  0  0  0  0  0  0  0  0  0
   -7.7863    3.7587   -2.0715 H   0  0  0  0  0  0  0  0  0  0  0  0
   -6.6778    5.7681   -1.0663 H   0  0  0  0  0  0  0  0  0  0  0  0
   -6.8260    4.4416    0.1434 H   0  0  0  0  0  0  0  0  0  0  0  0
   -5.2337    4.7688   -0.6431 H   0  0  0  0  0  0  0  0  0  0  0  0
    4.3101    1.4443   -7.8461 H   0  0  0  0  0  0  0  0  0  0  0  0
    5.1119    2.8326   -8.6539 H   0  0  0  0  0  0  0  0  0  0  0  0
    3.1491    0.8619  -10.0092 H   0  0  0  0  0  0  0  0  0  0  0  0
    4.9481    0.8374  -10.1583 H   0  0  0  0  0  0  0  0  0  0  0  0
    4.0140    2.2331  -10.8221 H   0  0  0  0  0  0  0  0  0  0  0  0
    1.2524    5.6145   -5.7126 H   0  0  0  0  0  0  0  0  0  0  0  0
   -0.8341    5.5037   -1.6974 H   0  0  0  0  0  0  0  0  0  0  0  0
   -3.9332    1.9435   -0.3581 H   0  0  0  0  0  0  0  0  0  0  0  0
   -4.2523    2.0231    1.4063 H   0  0  0  0  0  0  0  0  0  0  0  0
   -2.5987    0.1470    1.7743 H   0  0  0  0  0  0  0  0  0  0  0  0
   -2.3292    0.0581   -0.0178 H   0  0  0  0  0  0  0  0  0  0  0  0
   -3.9471   -0.3308    0.6683 H   0  0  0  0  0  0  0  0  0  0  0  0
    8.4201    8.2724   -1.9837 H   0  0  0  0  0  0  0  0  0  0  0  0
    8.9950    7.1673   -3.2729 H   0  0  0  0  0  0  0  0  0  0  0  0
    9.7843    5.5366   -1.5167 H   0  0  0  0  0  0  0  0  0  0  0  0
   10.5479    7.1609   -1.3328 H   0  0  0  0  0  0  0  0  0  0  0  0
    9.2090    6.6719   -0.2257 H   0  0  0  0  0  0  0  0  0  0  0  0
    5.7216    3.9798    0.5483 H   0  0  0  0  0  0  0  0  0  0  0  0
    8.2424    0.8966    4.0337 H   0  0  0  0  0  0  0  0  0  0  0  0
    3.0843    0.3251    2.2522 H   0  0  0  0  0  0  0  0  0  0  0  0
    3.4363   -1.8816    2.0824 H   0  0  0  0  0  0  0  0  0  0  0  0
    3.3174   -2.0497    3.8415 H   0  0  0  0  0  0  0  0  0  0  0  0
    5.8053   -1.8783    2.0892 H   0  0  0  0  0  0  0  0  0  0  0  0
    5.3457   -3.0840    3.3406 H   0  0  0  0  0  0  0  0  0  0  0  0
    5.6545   -1.2907    5.1207 H   0  0  0  0  0  0  0  0  0  0  0  0
  1  2  1  0
  2  3  1  0
  3  4  2  0
  4  5  1  0
  5  6  1  0
  6  7  1  0
  7  8  1  0
  7  9  1  0
  7 10  1  0
  6 11  1  0
 11 12  1  0
 12 13  1  0
 13 14  1  0
 14 15  1  0
 14 16  1  0
 14 17  1  0
  3 18  1  0
 18 19  2  0
 19 20  1  0
 20 21  2  0
 21 22  1  0
 22 23  1  0
 23 24  1  0
 24 25  1  0
 25 26  1  0
 24 27  2  0
 27 28  1  0
 27 29  1  0
 29 30  1  0
 21 31  1  0
 31 32  2  0
 32 33  1  0
 33 34  1  0
 34 35  1  0
 35 36  1  0
 36 37  1  0
 37 38  1  0
 36 39  2  0
 39 40  1  0
 40 41  1  0
 39 42  1  0
 33 43  2  0
 43 44  1  0
 32 45  1  0
 45 46  2  0
 46 47  1  0
 46 48  1  0
 48 49  2  0
 49 50  1  0
 50 51  2  0
 51 52  1  0
 52 53  1  0
 53 54  1  0
 54 55  1  0
 55 56  1  0
 54 57  2  0
 57 58  1  0
 57 59  1  0
 59 60  1  0
 51 61  1  0
 61 62  2  0
 62 63  1  0
 63 64  1  0
 64 65  1  0
 65 66  1  0
 66 67  1  0
 67 68  1  0
 66 69  2  0
 69 70  1  0
 70 71  1  0
 69 72  1  0
 63 73  2  0
 73 74  1  0
 62 75  1  0
 75 76  2  0
 76 77  1  0
 76 78  1  0
 78 79  2  0
 79 80  1  0
 80 81  2  0
 81 82  1  0
 82 83  1  0
 83 84  1  0
 84 85  1  0
 85 86  1  0
 84 87  2  0
 87 88  1  0
 87 89  1  0
 89 90  1  0
 81 91  1  0
 91 92  2  0
 92 93  1  0
 93 94  1  0
 94 95  1  0
 95 96  1  0
 96 97  1  0
 97 98  1  0
 96 99  2  0
 99100  1  0
100101  1  0
 99102  1  0
 93103  2  0
103104  1  0
 92105  1  0
105106  2  0
106107  1  0
106108  1  0
108109  2  0
109110  1  0
110111  2  0
111112  1  0
112113  1  0
113114  1  0
114115  1  0
115116  1  0
114117  2  0
117118  1  0
117119  1  0
119120  1  0
111121  1  0
121122  2  0
122123  1  0
123124  1  0
124125  1  0
125126  1  0
126127  1  0
127128  1  0
126129  2  0
129130  1  0
130131  1  0
129132  1  0
123133  2  0
133134  1  0
122135  1  0
135136  2  0
136137  1  0
136138  1  0
138139  1  0
139140  1  0
140141  2  0
141142  1  0
142143  1  0
143144  1  0
144145  1  0
144146  1  0
144147  1  0
143148  1  0
148149  1  0
149150  1  0
150151  1  0
151152  1  0
151153  1  0
151154  1  0
  5  1  2  0
 44 18  1  0
 74 48  1  0
104 78  1  0
134108  1  0
142138  2  0
 13  4  1  0
 43 20  1  0
 73 50  1  0
103 80  1  0
133110  1  0
150141  1  0
 29 22  2  0
 47 31  1  0
 59 52  2  0
 77 61  1  0
 89 82  2  0
107 91  1  0
119112  2  0
137121  1  0
 40 34  2  0
 70 64  2  0
100 94  2  0
130124  2  0
  1155  1  0
  6156  1  1
 11157  1  0
 11158  1  0
 12159  1  0
 12160  1  0
 13161  1  6
 19162  1  0
 25163  1  0
 25164  1  0
 26165  1  0
 26166  1  0
 26167  1  0
 37168  1  0
 37169  1  0
 38170  1  0
 38171  1  0
 38172  1  0
 45173  1  0
 49174  1  0
 55175  1  0
 55176  1  0
 56177  1  0
 56178  1  0
 56179  1  0
 67180  1  0
 67181  1  0
 68182  1  0
 68183  1  0
 68184  1  0
 75185  1  0
 79186  1  0
 85187  1  0
 85188  1  0
 86189  1  0
 86190  1  0
 86191  1  0
 97192  1  0
 97193  1  0
 98194  1  0
 98195  1  0
 98196  1  0
105197  1  0
109198  1  0
115199  1  0
115200  1  0
116201  1  0
116202  1  0
116203  1  0
127204  1  0
127205  1  0
128206  1  0
128207  1  0
128208  1  0
135209  1  0
140210  1  0
143211  1  6
148212  1  0
148213  1  0
149214  1  0
149215  1  0
150216  1  1
M  END

