
     RDKit          3D

128143  0  0  0  0  0  0  0  0999 V2000
   14.7857   -3.1626    2.5229 C   0  0  0  0  0  0  0  0  0  0  0  0
   13.7933   -3.6057    3.8485 S   0  0  0  0  0  0  0  0  0  0  0  0
   12.4674   -3.8688    2.8655 C   0  0  0  0  0  0  0  0  0  0  0  0
   11.1139   -4.0332    2.9407 C   0  0  0  0  0  0  0  0  0  0  0  0
   10.6374   -3.8434    1.6850 C   0  0  0  0  0  0  0  0  0  0  0  0
   11.6281   -3.5738    0.7944 N   0  0  0  0  0  0  0  0  0  0  0  0
   11.4964   -3.1033   -0.5836 C   0  0  0  0  0  0  0  0  0  0  0  0
   11.2888   -1.5943   -0.6137 C   0  0  0  0  0  0  0  0  0  0  0  0
   12.7444   -3.5899    1.5679 C   0  0  0  0  0  0  0  0  0  0  0  0
   14.0499   -3.1767    1.3259 C   0  0  0  0  0  0  0  0  0  0  0  0
    9.2537   -3.7440    1.5930 C   0  0  0  0  0  0  0  0  0  0  0  0
    8.6721   -3.8749    2.8688 C   0  0  0  0  0  0  0  0  0  0  0  0
    9.8843   -4.0620    4.0716 S   0  0  0  0  0  0  0  0  0  0  0  0
    7.2318   -3.7556    3.1515 C   0  0  0  0  0  0  0  0  0  0  0  0
    6.0307   -3.4437    1.9603 S   0  0  0  0  0  0  0  0  0  0  0  0
    4.8119   -3.3989    3.1015 C   0  0  0  0  0  0  0  0  0  0  0  0
    3.4810   -3.1319    3.2396 C   0  0  0  0  0  0  0  0  0  0  0  0
    3.2157   -3.1790    4.5652 C   0  0  0  0  0  0  0  0  0  0  0  0
    4.3213   -3.4635    5.3007 N   0  0  0  0  0  0  0  0  0  0  0  0
    4.4358   -3.6101    6.7513 C   0  0  0  0  0  0  0  0  0  0  0  0
    4.1737   -5.0562    7.1557 C   0  0  0  0  0  0  0  0  0  0  0  0
    5.2864   -3.6023    4.3553 C   0  0  0  0  0  0  0  0  0  0  0  0
    6.6579   -3.8118    4.4370 C   0  0  0  0  0  0  0  0  0  0  0  0
    1.9111   -2.8580    4.9243 C   0  0  0  0  0  0  0  0  0  0  0  0
    1.1361   -2.5505    3.7782 C   0  0  0  0  0  0  0  0  0  0  0  0
    2.1314   -2.6788    2.3763 S   0  0  0  0  0  0  0  0  0  0  0  0
   -0.2876   -2.1081    3.6954 C   0  0  0  0  0  0  0  0  0  0  0  0
   -0.9940   -1.7559    2.2157 S   0  0  0  0  0  0  0  0  0  0  0  0
   -2.4897   -1.2720    2.7726 C   0  0  0  0  0  0  0  0  0  0  0  0
   -2.4664   -1.2842    4.1780 C   0  0  0  0  0  0  0  0  0  0  0  0
   -1.2626   -1.8513    4.6923 C   0  0  0  0  0  0  0  0  0  0  0  0
   -1.1183   -2.1920    6.1701 C   0  0  2  0  0  0  0  0  0  0  0  0
   -1.2393   -3.7205    6.3916 C   0  0  0  0  0  0  0  0  0  0  0  0
   -0.9613   -4.0193    7.7145 F   0  0  0  0  0  0  0  0  0  0  0  0
   -2.5233   -4.1490    6.0958 F   0  0  0  0  0  0  0  0  0  0  0  0
   -0.3616   -4.4275    5.5908 F   0  0  0  0  0  0  0  0  0  0  0  0
   -2.1312   -1.4563    7.0961 C   0  0  0  0  0  0  0  0  0  0  0  0
   -2.8278   -0.2780    6.4262 C   0  0  0  0  0  0  0  0  0  0  0  0
   -3.5351   -0.7292    5.1271 C   0  0  1  0  0  0  0  0  0  0  0  0
   -4.3733    0.4566    4.5740 C   0  0  0  0  0  0  0  0  0  0  0  0
   -3.5631    1.3568    3.9040 F   0  0  0  0  0  0  0  0  0  0  0  0
   -5.3605   -0.0056    3.7265 F   0  0  0  0  0  0  0  0  0  0  0  0
   -5.0201    1.1327    5.5957 F   0  0  0  0  0  0  0  0  0  0  0  0
   -3.5642   -0.8935    1.8519 C   0  0  0  0  0  0  0  0  0  0  0  0
   -3.4530    0.4534    0.8660 S   0  0  0  0  0  0  0  0  0  0  0  0
   -4.9243    0.2545    0.0932 C   0  0  0  0  0  0  0  0  0  0  0  0
   -5.5674   -0.8736    0.6286 C   0  0  0  0  0  0  0  0  0  0  0  0
   -4.7386   -1.5990    1.5292 C   0  0  0  0  0  0  0  0  0  0  0  0
   -5.1230   -2.9895    2.0491 C   0  0  2  0  0  0  0  0  0  0  0  0
   -3.9636   -4.0229    1.9832 C   0  0  0  0  0  0  0  0  0  0  0  0
   -3.2020   -3.8314    0.8426 F   0  0  0  0  0  0  0  0  0  0  0  0
   -4.4488   -5.3201    1.9662 F   0  0  0  0  0  0  0  0  0  0  0  0
   -3.1564   -3.9169    3.0982 F   0  0  0  0  0  0  0  0  0  0  0  0
   -6.3241   -3.5366    1.2437 C   0  0  0  0  0  0  0  0  0  0  0  0
   -7.4422   -2.5080    1.1636 C   0  0  0  0  0  0  0  0  0  0  0  0
   -7.0232   -1.2572    0.3539 C   0  0  1  0  0  0  0  0  0  0  0  0
   -8.0097   -0.1063    0.6905 C   0  0  0  0  0  0  0  0  0  0  0  0
   -7.9249    0.9154   -0.2329 F   0  0  0  0  0  0  0  0  0  0  0  0
   -9.3142   -0.5708    0.6732 F   0  0  0  0  0  0  0  0  0  0  0  0
   -7.7418    0.4082    1.9472 F   0  0  0  0  0  0  0  0  0  0  0  0
   -5.3260    1.0712   -1.0605 C   0  0  0  0  0  0  0  0  0  0  0  0
   -4.9756    2.7390   -1.2110 S   0  0  0  0  0  0  0  0  0  0  0  0
   -5.5742    2.8096   -2.7705 C   0  0  0  0  0  0  0  0  0  0  0  0
   -5.3636    3.5734   -3.8813 C   0  0  0  0  0  0  0  0  0  0  0  0
   -5.6089    2.7730   -4.9511 C   0  0  0  0  0  0  0  0  0  0  0  0
   -5.9806    1.5186   -4.5764 N   0  0  0  0  0  0  0  0  0  0  0  0
   -5.9763    0.3132   -5.4038 C   0  0  0  0  0  0  0  0  0  0  0  0
   -4.5621   -0.2393   -5.5477 C   0  0  0  0  0  0  0  0  0  0  0  0
   -5.9394    1.5783   -3.2185 C   0  0  0  0  0  0  0  0  0  0  0  0
   -5.8137    0.5592   -2.2759 C   0  0  0  0  0  0  0  0  0  0  0  0
   -5.1054    3.2497   -6.1614 C   0  0  0  0  0  0  0  0  0  0  0  0
   -4.4343    4.4721   -5.9654 C   0  0  0  0  0  0  0  0  0  0  0  0
   -4.4265    4.8913   -4.3048 S   0  0  0  0  0  0  0  0  0  0  0  0
   -3.7332    5.2357   -7.0103 C   0  0  0  0  0  0  0  0  0  0  0  0
   -2.7018    6.5724   -6.6919 S   0  0  0  0  0  0  0  0  0  0  0  0
   -2.3861    6.8058   -8.3144 C   0  0  0  0  0  0  0  0  0  0  0  0
   -1.8126    7.7070   -9.1633 C   0  0  0  0  0  0  0  0  0  0  0  0
   -2.1746    7.3310  -10.4142 C   0  0  0  0  0  0  0  0  0  0  0  0
   -2.9504    6.2150  -10.4145 N   0  0  0  0  0  0  0  0  0  0  0  0
   -3.6833    5.6331  -11.5360 C   0  0  0  0  0  0  0  0  0  0  0  0
   -5.0100    6.3590  -11.7352 C   0  0  0  0  0  0  0  0  0  0  0  0
   -3.0657    5.9259   -9.0920 C   0  0  0  0  0  0  0  0  0  0  0  0
   -3.8487    5.0108   -8.3966 C   0  0  0  0  0  0  0  0  0  0  0  0
   -1.8119    8.2204  -11.4189 C   0  0  0  0  0  0  0  0  0  0  0  0
   -1.1326    9.3217  -10.8701 C   0  0  0  0  0  0  0  0  0  0  0  0
   -1.0304    9.1841   -9.1625 S   0  0  0  0  0  0  0  0  0  0  0  0
   15.8194   -2.8581    2.6025 H   0  0  0  0  0  0  0  0  0  0  0  0
   10.6323   -3.6033   -1.0702 H   0  0  0  0  0  0  0  0  0  0  0  0
   12.4098   -3.3632   -1.1590 H   0  0  0  0  0  0  0  0  0  0  0  0
   12.1456   -1.0781   -0.1258 H   0  0  0  0  0  0  0  0  0  0  0  0
   11.2159   -1.2493   -1.6674 H   0  0  0  0  0  0  0  0  0  0  0  0
   10.3494   -1.3252   -0.0834 H   0  0  0  0  0  0  0  0  0  0  0  0
   14.4339   -2.8649    0.3642 H   0  0  0  0  0  0  0  0  0  0  0  0
    8.7130   -3.5345    0.6803 H   0  0  0  0  0  0  0  0  0  0  0  0
    5.4531   -3.3081    7.0846 H   0  0  0  0  0  0  0  0  0  0  0  0
    3.7025   -2.9450    7.2568 H   0  0  0  0  0  0  0  0  0  0  0  0
    4.1834   -5.1403    8.2618 H   0  0  0  0  0  0  0  0  0  0  0  0
    3.1807   -5.3832    6.7805 H   0  0  0  0  0  0  0  0  0  0  0  0
    4.9606   -5.7154    6.7336 H   0  0  0  0  0  0  0  0  0  0  0  0
    7.2039   -3.9603    5.3584 H   0  0  0  0  0  0  0  0  0  0  0  0
    1.5917   -2.8624    5.9490 H   0  0  0  0  0  0  0  0  0  0  0  0
   -0.1278   -1.8324    6.4984 H   0  0  0  0  0  0  0  0  0  0  0  0
   -1.6002   -1.0824    8.0012 H   0  0  0  0  0  0  0  0  0  0  0  0
   -2.9241   -2.1434    7.4699 H   0  0  0  0  0  0  0  0  0  0  0  0
   -3.5547    0.1358    7.1595 H   0  0  0  0  0  0  0  0  0  0  0  0
   -2.0836    0.5194    6.2003 H   0  0  0  0  0  0  0  0  0  0  0  0
   -4.2386   -1.5549    5.3772 H   0  0  0  0  0  0  0  0  0  0  0  0
   -5.4410   -2.8845    3.1095 H   0  0  0  0  0  0  0  0  0  0  0  0
   -6.7313   -4.4460    1.7369 H   0  0  0  0  0  0  0  0  0  0  0  0
   -6.0050   -3.8160    0.2143 H   0  0  0  0  0  0  0  0  0  0  0  0
   -8.3266   -2.9786    0.6813 H   0  0  0  0  0  0  0  0  0  0  0  0
   -7.7331   -2.2278    2.2032 H   0  0  0  0  0  0  0  0  0  0  0  0
   -7.1210   -1.5047   -0.7248 H   0  0  0  0  0  0  0  0  0  0  0  0
   -6.6305   -0.4596   -4.9441 H   0  0  0  0  0  0  0  0  0  0  0  0
   -6.3855    0.5483   -6.4101 H   0  0  0  0  0  0  0  0  0  0  0  0
   -4.5816   -1.1556   -6.1765 H   0  0  0  0  0  0  0  0  0  0  0  0
   -4.1469   -0.4967   -4.5494 H   0  0  0  0  0  0  0  0  0  0  0  0
   -3.9019    0.5113   -6.0338 H   0  0  0  0  0  0  0  0  0  0  0  0
   -5.9362   -0.4924   -2.4925 H   0  0  0  0  0  0  0  0  0  0  0  0
   -5.1347    2.7031   -7.0943 H   0  0  0  0  0  0  0  0  0  0  0  0
   -3.8731    4.5562  -11.3459 H   0  0  0  0  0  0  0  0  0  0  0  0
   -3.0736    5.7138  -12.4623 H   0  0  0  0  0  0  0  0  0  0  0  0
   -5.6542    6.2271  -10.8402 H   0  0  0  0  0  0  0  0  0  0  0  0
   -5.5329    5.9413  -12.6204 H   0  0  0  0  0  0  0  0  0  0  0  0
   -4.8332    7.4411  -11.9032 H   0  0  0  0  0  0  0  0  0  0  0  0
   -4.4846    4.2692   -8.8586 H   0  0  0  0  0  0  0  0  0  0  0  0
   -2.0499    8.1011  -12.4670 H   0  0  0  0  0  0  0  0  0  0  0  0
   -0.7597   10.1592  -11.4445 H   0  0  0  0  0  0  0  0  0  0  0  0
  1  2  1  0
  2  3  1  0
  3  4  1  0
  4  5  2  0
  5  6  1  0
  6  7  1  0
  7  8  1  0
  6  9  1  0
  9 10  1  0
  5 11  1  0
 11 12  2  0
 12 13  1  0
 12 14  1  0
 14 15  1  0
 15 16  1  0
 16 17  1  0
 17 18  2  0
 18 19  1  0
 19 20  1  0
 20 21  1  0
 19 22  1  0
 22 23  1  0
 18 24  1  0
 24 25  2  0
 25 26  1  0
 25 27  1  0
 27 28  1  0
 28 29  1  0
 29 30  2  0
 30 31  1  0
 31 32  1  0
 32 33  1  0
 33 34  1  0
 33 35  1  0
 33 36  1  0
 32 37  1  0
 37 38  1  0
 38 39  1  0
 39 40  1  0
 40 41  1  0
 40 42  1  0
 40 43  1  0
 29 44  1  0
 44 45  1  0
 45 46  1  0
 46 47  2  0
 47 48  1  0
 48 49  1  0
 49 50  1  0
 50 51  1  0
 50 52  1  0
 50 53  1  0
 49 54  1  0
 54 55  1  0
 55 56  1  0
 56 57  1  0
 57 58  1  0
 57 59  1  0
 57 60  1  0
 46 61  1  0
 61 62  1  0
 62 63  1  0
 63 64  1  0
 64 65  2  0
 65 66  1  0
 66 67  1  0
 67 68  1  0
 66 69  1  0
 69 70  1  0
 65 71  1  0
 71 72  2  0
 72 73  1  0
 72 74  1  0
 74 75  1  0
 75 76  1  0
 76 77  1  0
 77 78  2  0
 78 79  1  0
 79 80  1  0
 80 81  1  0
 79 82  1  0
 82 83  1  0
 78 84  1  0
 84 85  2  0
 85 86  1  0
 10  1  2  0
 23 14  2  0
 31 27  2  0
 48 44  2  0
 70 61  2  0
 83 74  2  0
  9  3  2  0
 22 16  2  0
 39 30  1  0
 56 47  1  0
 69 63  2  0
 82 76  2  0
 13  4  1  0
 26 17  1  0
 73 64  1  0
 86 77  1  0
  1 87  1  0
  7 88  1  0
  7 89  1  0
  8 90  1  0
  8 91  1  0
  8 92  1  0
 10 93  1  0
 11 94  1  0
 20 95  1  0
 20 96  1  0
 21 97  1  0
 21 98  1  0
 21 99  1  0
 23100  1  0
 24101  1  0
 32102  1  1
 37103  1  0
 37104  1  0
 38105  1  0
 38106  1  0
 39107  1  1
 49108  1  1
 54109  1  0
 54110  1  0
 55111  1  0
 55112  1  0
 56113  1  6
 67114  1  0
 67115  1  0
 68116  1  0
 68117  1  0
 68118  1  0
 70119  1  0
 71120  1  0
 80121  1  0
 80122  1  0
 81123  1  0
 81124  1  0
 81125  1  0
 83126  1  0
 84127  1  0
 85128  1  0
M  END

