
     RDKit          3D

197217  0  0  0  0  0  0  0  0999 V2000
   -1.0949    0.0362   12.3026 C   0  0  0  0  0  0  0  0  0  0  0  0
   -1.6969   -0.9227   11.0744 S   0  0  0  0  0  0  0  0  0  0  0  0
   -2.1846    0.3235   10.0684 C   0  0  0  0  0  0  0  0  0  0  0  0
   -1.8555    1.5578   10.6735 C   0  0  0  0  0  0  0  0  0  0  0  0
   -1.2860    1.3727   11.9617 C   0  0  0  0  0  0  0  0  0  0  0  0
   -0.7804    2.5068   12.8440 C   0  0  2  0  0  0  0  0  0  0  0  0
   -1.4346    2.4766   14.2465 C   0  0  0  0  0  0  0  0  0  0  0  0
   -1.0033    3.5578   14.9944 F   0  0  0  0  0  0  0  0  0  0  0  0
   -1.0917    1.3217   14.9282 F   0  0  0  0  0  0  0  0  0  0  0  0
   -2.8164    2.5316   14.1326 F   0  0  0  0  0  0  0  0  0  0  0  0
   -0.9704    3.9091   12.2097 C   0  0  0  0  0  0  0  0  0  0  0  0
   -0.9814    3.8898   10.6809 C   0  0  0  0  0  0  0  0  0  0  0  0
   -2.1200    2.9797   10.1625 C   0  0  1  0  0  0  0  0  0  0  0  0
   -2.2825    3.1737    8.6382 C   0  0  0  0  0  0  0  0  0  0  0  0
   -3.4384    2.5664    8.1867 F   0  0  0  0  0  0  0  0  0  0  0  0
   -1.1807    2.6777    7.9687 F   0  0  0  0  0  0  0  0  0  0  0  0
   -2.4031    4.5195    8.3403 F   0  0  0  0  0  0  0  0  0  0  0  0
   -2.7124    0.0408    8.7349 C   0  0  0  0  0  0  0  0  0  0  0  0
   -4.0288   -0.3101    8.4427 C   0  0  0  0  0  0  0  0  0  0  0  0
   -4.2153   -0.6382    7.0887 C   0  0  0  0  0  0  0  0  0  0  0  0
   -5.4362   -0.9728    6.4611 C   0  0  0  0  0  0  0  0  0  0  0  0
   -6.6962   -1.0749    7.2152 C   0  0  0  0  0  0  0  0  0  0  0  0
   -8.0670   -0.1288    6.9553 S   0  0  0  0  0  0  0  0  0  0  0  0
   -9.0280   -0.8721    8.1216 C   0  0  0  0  0  0  0  0  0  0  0  0
  -10.4576   -0.5137    8.3975 C   0  0  0  0  0  0  0  0  0  0  0  0
  -11.3983   -1.3535    7.5431 C   0  0  0  0  0  0  0  0  0  0  0  0
   -8.2933   -1.8957    8.7141 C   0  0  0  0  0  0  0  0  0  0  0  0
   -8.9370   -2.9542    9.9618 Cl  0  0  0  0  0  0  0  0  0  0  0  0
   -6.9879   -2.0081    8.2063 C   0  0  0  0  0  0  0  0  0  0  0  0
   -5.8530   -3.2460    8.7379 Cl  0  0  0  0  0  0  0  0  0  0  0  0
   -5.4002   -1.1840    5.0708 C   0  0  0  0  0  0  0  0  0  0  0  0
   -4.2137   -1.0993    4.3354 C   0  0  0  0  0  0  0  0  0  0  0  0
   -2.9962   -0.7774    4.9631 C   0  0  0  0  0  0  0  0  0  0  0  0
   -1.7635   -0.5518    4.1875 C   0  0  0  0  0  0  0  0  0  0  0  0
   -0.8013   -1.7589    3.5184 S   0  0  0  0  0  0  0  0  0  0  0  0
    0.2809   -0.7176    2.7510 C   0  0  0  0  0  0  0  0  0  0  0  0
    1.4683   -1.1581    1.9484 C   0  0  0  0  0  0  0  0  0  0  0  0
    2.7627   -0.9538    2.7257 C   0  0  0  0  0  0  0  0  0  0  0  0
   -0.1022    0.5967    3.0193 C   0  0  0  0  0  0  0  0  0  0  0  0
   -1.2450    0.6883    3.8279 C   0  0  0  0  0  0  0  0  0  0  0  0
   -1.9733    2.2154    4.3152 Cl  0  0  0  0  0  0  0  0  0  0  0  0
    0.7497    2.0075    2.4011 Cl  0  0  0  0  0  0  0  0  0  0  0  0
   -3.0362   -0.5587    6.3434 C   0  0  0  0  0  0  0  0  0  0  0  0
   -1.7621   -0.1249    7.3556 S   0  0  0  0  0  0  0  0  0  0  0  0
   -4.3990   -1.2899    2.9632 C   0  0  0  0  0  0  0  0  0  0  0  0
   -5.7241   -1.5475    2.6227 C   0  0  0  0  0  0  0  0  0  0  0  0
   -6.6825   -1.4889    4.0133 S   0  0  0  0  0  0  0  0  0  0  0  0
   -6.2138   -1.5000    1.2455 C   0  0  0  0  0  0  0  0  0  0  0  0
   -5.8791   -0.1710    0.2920 S   0  0  0  0  0  0  0  0  0  0  0  0
   -6.2970   -0.8292   -1.1839 C   0  0  0  0  0  0  0  0  0  0  0  0
   -6.8045   -2.1213   -0.9415 C   0  0  0  0  0  0  0  0  0  0  0  0
   -6.6439   -2.5504    0.4089 C   0  0  0  0  0  0  0  0  0  0  0  0
   -6.8680   -4.0087    0.8245 C   0  0  2  0  0  0  0  0  0  0  0  0
   -5.7745   -4.5826    1.7692 C   0  0  0  0  0  0  0  0  0  0  0  0
   -6.0408   -4.2345    3.0788 F   0  0  0  0  0  0  0  0  0  0  0  0
   -4.5184   -4.1183    1.4177 F   0  0  0  0  0  0  0  0  0  0  0  0
   -5.7498   -5.9674    1.7279 F   0  0  0  0  0  0  0  0  0  0  0  0
   -6.9618   -4.9090   -0.4339 C   0  0  0  0  0  0  0  0  0  0  0  0
   -7.9339   -4.3343   -1.4555 C   0  0  0  0  0  0  0  0  0  0  0  0
   -7.4132   -3.0002   -2.0285 C   0  0  1  0  0  0  0  0  0  0  0  0
   -8.5526   -2.2745   -2.7854 C   0  0  0  0  0  0  0  0  0  0  0  0
   -8.0592   -1.1941   -3.5001 F   0  0  0  0  0  0  0  0  0  0  0  0
   -9.5106   -1.8177   -1.8926 F   0  0  0  0  0  0  0  0  0  0  0  0
   -9.1530   -3.1414   -3.6832 F   0  0  0  0  0  0  0  0  0  0  0  0
   -5.5344   -0.4180   -2.3772 C   0  0  0  0  0  0  0  0  0  0  0  0
   -4.6144   -1.2794   -2.9763 C   0  0  0  0  0  0  0  0  0  0  0  0
   -3.5250   -0.6246   -3.5548 C   0  0  0  0  0  0  0  0  0  0  0  0
   -2.3682   -1.2554   -4.0375 C   0  0  0  0  0  0  0  0  0  0  0  0
   -2.2775   -2.7159   -4.1891 C   0  0  0  0  0  0  0  0  0  0  0  0
   -2.0952   -3.8064   -2.9226 S   0  0  0  0  0  0  0  0  0  0  0  0
   -2.2136   -5.1937   -3.8705 C   0  0  0  0  0  0  0  0  0  0  0  0
   -2.2122   -6.5925   -3.3312 C   0  0  0  0  0  0  0  0  0  0  0  0
   -3.6159   -7.0000   -2.8974 C   0  0  0  0  0  0  0  0  0  0  0  0
   -2.4176   -4.8139   -5.1989 C   0  0  0  0  0  0  0  0  0  0  0  0
   -2.6587   -5.9545   -6.5156 Cl  0  0  0  0  0  0  0  0  0  0  0  0
   -2.4459   -3.4220   -5.3754 C   0  0  0  0  0  0  0  0  0  0  0  0
   -2.7356   -2.6425   -6.9243 Cl  0  0  0  0  0  0  0  0  0  0  0  0
   -1.2827   -0.4337   -4.3490 C   0  0  0  0  0  0  0  0  0  0  0  0
   -1.3278    0.9595   -4.2293 C   0  0  0  0  0  0  0  0  0  0  0  0
   -2.5103    1.5987   -3.7987 C   0  0  0  0  0  0  0  0  0  0  0  0
   -2.6021    3.0605   -3.6765 C   0  0  0  0  0  0  0  0  0  0  0  0
   -1.8005    3.9951   -2.5240 S   0  0  0  0  0  0  0  0  0  0  0  0
   -2.2999    5.4871   -3.1252 C   0  0  0  0  0  0  0  0  0  0  0  0
   -1.9067    6.8185   -2.5501 C   0  0  0  0  0  0  0  0  0  0  0  0
   -0.4697    7.1674   -2.9175 C   0  0  0  0  0  0  0  0  0  0  0  0
   -3.0807    5.2698   -4.2606 C   0  0  0  0  0  0  0  0  0  0  0  0
   -3.2587    3.9081   -4.5614 C   0  0  0  0  0  0  0  0  0  0  0  0
   -4.1443    3.3424   -5.9628 Cl  0  0  0  0  0  0  0  0  0  0  0  0
   -3.7735    6.5656   -5.2278 Cl  0  0  0  0  0  0  0  0  0  0  0  0
   -3.5920    0.7664   -3.4549 C   0  0  0  0  0  0  0  0  0  0  0  0
   -4.9941    1.1721   -2.6221 S   0  0  0  0  0  0  0  0  0  0  0  0
   -0.0966    1.5721   -4.5277 C   0  0  0  0  0  0  0  0  0  0  0  0
    0.8965    0.6453   -4.8502 C   0  0  0  0  0  0  0  0  0  0  0  0
    0.2632   -0.9143   -4.7786 S   0  0  0  0  0  0  0  0  0  0  0  0
    2.3027    0.9221   -5.1647 C   0  0  0  0  0  0  0  0  0  0  0  0
    3.5474   -0.0307   -4.5858 S   0  0  0  0  0  0  0  0  0  0  0  0
    4.7734    0.6197   -5.5225 C   0  0  0  0  0  0  0  0  0  0  0  0
    4.2127    1.6151   -6.3551 C   0  0  0  0  0  0  0  0  0  0  0  0
    2.8124    1.7530   -6.1657 C   0  0  0  0  0  0  0  0  0  0  0  0
    1.9490    2.5836   -7.1022 C   0  0  2  0  0  0  0  0  0  0  0  0
    1.3385    1.6980   -8.2167 C   0  0  0  0  0  0  0  0  0  0  0  0
    0.4732    2.4573   -8.9895 F   0  0  0  0  0  0  0  0  0  0  0  0
    0.6202    0.6449   -7.6824 F   0  0  0  0  0  0  0  0  0  0  0  0
    2.3326    1.1835   -9.0304 F   0  0  0  0  0  0  0  0  0  0  0  0
    2.7117    3.8005   -7.7148 C   0  0  0  0  0  0  0  0  0  0  0  0
    4.2190    3.8581   -7.3988 C   0  0  0  0  0  0  0  0  0  0  0  0
    4.8870    2.4633   -7.4331 C   0  0  1  0  0  0  0  0  0  0  0  0
    6.4205    2.6157   -7.3146 C   0  0  0  0  0  0  0  0  0  0  0  0
    6.7718    3.0069   -6.0340 F   0  0  0  0  0  0  0  0  0  0  0  0
    6.8814    3.5754   -8.2030 F   0  0  0  0  0  0  0  0  0  0  0  0
    7.0490    1.4286   -7.6435 F   0  0  0  0  0  0  0  0  0  0  0  0
    6.0798   -0.0452   -5.5762 C   0  0  0  0  0  0  0  0  0  0  0  0
    6.2291   -1.3897   -5.9227 C   0  0  0  0  0  0  0  0  0  0  0  0
    7.4556   -1.9406   -5.5185 C   0  0  0  0  0  0  0  0  0  0  0  0
    7.8394   -3.2923   -5.6282 C   0  0  0  0  0  0  0  0  0  0  0  0
    6.9414   -4.3136   -6.2012 C   0  0  0  0  0  0  0  0  0  0  0  0
    6.2615   -5.5694   -5.3150 S   0  0  0  0  0  0  0  0  0  0  0  0
    5.3263   -6.1932   -6.5661 C   0  0  0  0  0  0  0  0  0  0  0  0
    4.3469   -7.3159   -6.4033 C   0  0  0  0  0  0  0  0  0  0  0  0
    3.0321   -6.8014   -5.8271 C   0  0  0  0  0  0  0  0  0  0  0  0
    5.5191   -5.4043   -7.7001 C   0  0  0  0  0  0  0  0  0  0  0  0
    4.6866   -5.6763   -9.2259 Cl  0  0  0  0  0  0  0  0  0  0  0  0
    6.4309   -4.3551   -7.4999 C   0  0  0  0  0  0  0  0  0  0  0  0
    6.8968   -3.2192   -8.7640 Cl  0  0  0  0  0  0  0  0  0  0  0  0
    9.0559   -3.6560   -5.0263 C   0  0  0  0  0  0  0  0  0  0  0  0
    9.8768   -2.7371   -4.3635 C   0  0  0  0  0  0  0  0  0  0  0  0
    9.4921   -1.3852   -4.2602 C   0  0  0  0  0  0  0  0  0  0  0  0
   10.3313   -0.3906   -3.5764 C   0  0  0  0  0  0  0  0  0  0  0  0
   11.1119    0.8863   -4.3402 S   0  0  0  0  0  0  0  0  0  0  0  0
   11.8786    1.4754   -2.9637 C   0  0  0  0  0  0  0  0  0  0  0  0
   12.7522    2.6913   -2.9320 C   0  0  0  0  0  0  0  0  0  0  0  0
   11.9247    3.9451   -2.6821 C   0  0  0  0  0  0  0  0  0  0  0  0
   11.5130    0.6844   -1.8733 C   0  0  0  0  0  0  0  0  0  0  0  0
   10.6496   -0.3672   -2.2203 C   0  0  0  0  0  0  0  0  0  0  0  0
   10.0031   -1.5108   -1.0457 Cl  0  0  0  0  0  0  0  0  0  0  0  0
   12.0777    0.9737   -0.2302 Cl  0  0  0  0  0  0  0  0  0  0  0  0
    8.2669   -1.0229   -4.8447 C   0  0  0  0  0  0  0  0  0  0  0  0
    7.4471    0.4406   -4.7116 S   0  0  0  0  0  0  0  0  0  0  0  0
   11.0426   -3.3189   -3.8409 C   0  0  0  0  0  0  0  0  0  0  0  0
   11.1314   -4.6865   -4.0876 C   0  0  0  0  0  0  0  0  0  0  0  0
    9.7733   -5.1766   -4.9573 S   0  0  0  0  0  0  0  0  0  0  0  0
   -0.6249   -0.3390   13.2012 H   0  0  0  0  0  0  0  0  0  0  0  0
    0.3140    2.3457   12.9768 H   0  0  0  0  0  0  0  0  0  0  0  0
   -0.1456    4.5704   12.5514 H   0  0  0  0  0  0  0  0  0  0  0  0
   -1.9170    4.3866   12.5541 H   0  0  0  0  0  0  0  0  0  0  0  0
    0.0012    3.5313   10.3006 H   0  0  0  0  0  0  0  0  0  0  0  0
   -1.1230    4.9351   10.3310 H   0  0  0  0  0  0  0  0  0  0  0  0
   -3.0708    3.3249   10.6290 H   0  0  0  0  0  0  0  0  0  0  0  0
   -4.8165   -0.3145    9.1884 H   0  0  0  0  0  0  0  0  0  0  0  0
  -10.6856   -0.6739    9.4743 H   0  0  0  0  0  0  0  0  0  0  0  0
  -10.6233    0.5610    8.1756 H   0  0  0  0  0  0  0  0  0  0  0  0
  -11.2191   -2.4373    7.7116 H   0  0  0  0  0  0  0  0  0  0  0  0
  -12.4522   -1.1280    7.8204 H   0  0  0  0  0  0  0  0  0  0  0  0
  -11.2534   -1.1210    6.4705 H   0  0  0  0  0  0  0  0  0  0  0  0
    1.3573   -2.2354    1.6984 H   0  0  0  0  0  0  0  0  0  0  0  0
    1.5047   -0.5893    0.9950 H   0  0  0  0  0  0  0  0  0  0  0  0
    2.7054   -1.4607    3.7112 H   0  0  0  0  0  0  0  0  0  0  0  0
    2.9494    0.1287    2.8821 H   0  0  0  0  0  0  0  0  0  0  0  0
    3.6112   -1.3771    2.1506 H   0  0  0  0  0  0  0  0  0  0  0  0
   -3.6080   -1.1935    2.2278 H   0  0  0  0  0  0  0  0  0  0  0  0
   -7.8477   -4.0650    1.3492 H   0  0  0  0  0  0  0  0  0  0  0  0
   -5.9540   -5.0198   -0.9004 H   0  0  0  0  0  0  0  0  0  0  0  0
   -7.3221   -5.9191   -0.1524 H   0  0  0  0  0  0  0  0  0  0  0  0
   -8.0496   -5.0669   -2.2851 H   0  0  0  0  0  0  0  0  0  0  0  0
   -8.9348   -4.2087   -0.9804 H   0  0  0  0  0  0  0  0  0  0  0  0
   -6.6254   -3.2546   -2.7697 H   0  0  0  0  0  0  0  0  0  0  0  0
   -4.6319   -2.3494   -2.8351 H   0  0  0  0  0  0  0  0  0  0  0  0
   -1.8461   -7.2979   -4.1030 H   0  0  0  0  0  0  0  0  0  0  0  0
   -1.5294   -6.6447   -2.4594 H   0  0  0  0  0  0  0  0  0  0  0  0
   -4.3057   -6.9965   -3.7716 H   0  0  0  0  0  0  0  0  0  0  0  0
   -3.5889   -8.0272   -2.4735 H   0  0  0  0  0  0  0  0  0  0  0  0
   -4.0061   -6.3012   -2.1242 H   0  0  0  0  0  0  0  0  0  0  0  0
   -1.9928    6.7722   -1.4411 H   0  0  0  0  0  0  0  0  0  0  0  0
   -2.5925    7.6183   -2.9093 H   0  0  0  0  0  0  0  0  0  0  0  0
   -0.2540    8.2209   -2.6310 H   0  0  0  0  0  0  0  0  0  0  0  0
    0.2282    6.5090   -2.3614 H   0  0  0  0  0  0  0  0  0  0  0  0
   -0.2985    7.0529   -4.0055 H   0  0  0  0  0  0  0  0  0  0  0  0
    0.0795    2.6368   -4.4664 H   0  0  0  0  0  0  0  0  0  0  0  0
    1.0995    2.9973   -6.5189 H   0  0  0  0  0  0  0  0  0  0  0  0
    2.2534    4.7448   -7.3440 H   0  0  0  0  0  0  0  0  0  0  0  0
    2.5977    3.8219   -8.8221 H   0  0  0  0  0  0  0  0  0  0  0  0
    4.6866    4.5349   -8.1415 H   0  0  0  0  0  0  0  0  0  0  0  0
    4.3615    4.3107   -6.3931 H   0  0  0  0  0  0  0  0  0  0  0  0
    4.6793    1.9979   -8.4201 H   0  0  0  0  0  0  0  0  0  0  0  0
    5.4276   -1.9666   -6.3682 H   0  0  0  0  0  0  0  0  0  0  0  0
    4.1563   -7.8116   -7.3787 H   0  0  0  0  0  0  0  0  0  0  0  0
    4.7746   -8.0750   -5.7131 H   0  0  0  0  0  0  0  0  0  0  0  0
    3.2081   -6.2791   -4.8636 H   0  0  0  0  0  0  0  0  0  0  0  0
    2.3433   -7.6548   -5.6488 H   0  0  0  0  0  0  0  0  0  0  0  0
    2.5472   -6.0981   -6.5393 H   0  0  0  0  0  0  0  0  0  0  0  0
   13.2819    2.7873   -3.9044 H   0  0  0  0  0  0  0  0  0  0  0  0
   13.5216    2.5831   -2.1372 H   0  0  0  0  0  0  0  0  0  0  0  0
   11.3866    3.8661   -1.7147 H   0  0  0  0  0  0  0  0  0  0  0  0
   12.5967    4.8270   -2.6462 H   0  0  0  0  0  0  0  0  0  0  0  0
   11.1912    4.0876   -3.5018 H   0  0  0  0  0  0  0  0  0  0  0  0
   11.8014   -2.7757   -3.2951 H   0  0  0  0  0  0  0  0  0  0  0  0
   11.9408   -5.3296   -3.7691 H   0  0  0  0  0  0  0  0  0  0  0  0
  1  2  1  0
  2  3  1  0
  3  4  2  0
  4  5  1  0
  5  6  1  0
  6  7  1  0
  7  8  1  0
  7  9  1  0
  7 10  1  0
  6 11  1  0
 11 12  1  0
 12 13  1  0
 13 14  1  0
 14 15  1  0
 14 16  1  0
 14 17  1  0
  3 18  1  0
 18 19  2  0
 19 20  1  0
 20 21  2  0
 21 22  1  0
 22 23  1  0
 23 24  1  0
 24 25  1  0
 25 26  1  0
 24 27  2  0
 27 28  1  0
 27 29  1  0
 29 30  1  0
 21 31  1  0
 31 32  2  0
 32 33  1  0
 33 34  1  0
 34 35  1  0
 35 36  1  0
 36 37  1  0
 37 38  1  0
 36 39  2  0
 39 40  1  0
 40 41  1  0
 39 42  1  0
 33 43  2  0
 43 44  1  0
 32 45  1  0
 45 46  2  0
 46 47  1  0
 46 48  1  0
 48 49  1  0
 49 50  1  0
 50 51  2  0
 51 52  1  0
 52 53  1  0
 53 54  1  0
 54 55  1  0
 54 56  1  0
 54 57  1  0
 53 58  1  0
 58 59  1  0
 59 60  1  0
 60 61  1  0
 61 62  1  0
 61 63  1  0
 61 64  1  0
 50 65  1  0
 65 66  2  0
 66 67  1  0
 67 68  2  0
 68 69  1  0
 69 70  1  0
 70 71  1  0
 71 72  1  0
 72 73  1  0
 71 74  2  0
 74 75  1  0
 74 76  1  0
 76 77  1  0
 68 78  1  0
 78 79  2  0
 79 80  1  0
 80 81  1  0
 81 82  1  0
 82 83  1  0
 83 84  1  0
 84 85  1  0
 83 86  2  0
 86 87  1  0
 87 88  1  0
 86 89  1  0
 80 90  2  0
 90 91  1  0
 79 92  1  0
 92 93  2  0
 93 94  1  0
 93 95  1  0
 95 96  1  0
 96 97  1  0
 97 98  2  0
 98 99  1  0
 99100  1  0
100101  1  0
101102  1  0
101103  1  0
101104  1  0
100105  1  0
105106  1  0
106107  1  0
107108  1  0
108109  1  0
108110  1  0
108111  1  0
 97112  1  0
112113  2  0
113114  1  0
114115  2  0
115116  1  0
116117  1  0
117118  1  0
118119  1  0
119120  1  0
118121  2  0
121122  1  0
121123  1  0
123124  1  0
115125  1  0
125126  2  0
126127  1  0
127128  1  0
128129  1  0
129130  1  0
130131  1  0
131132  1  0
130133  2  0
133134  1  0
134135  1  0
133136  1  0
127137  2  0
137138  1  0
126139  1  0
139140  2  0
140141  1  0
  5  1  2  0
 44 18  1  0
 52 48  2  0
 91 65  1  0
 99 95  2  0
138112  1  0
 13  4  1  0
 43 20  1  0
 60 51  1  0
 90 67  1  0
107 98  1  0
137114  1  0
 29 22  2  0
 47 31  1  0
 76 69  2  0
 94 78  1  0
123116  2  0
141125  1  0
 40 34  2  0
 87 81  2  0
134128  2  0
  1142  1  0
  6143  1  1
 11144  1  0
 11145  1  0
 12146  1  0
 12147  1  0
 13148  1  1
 19149  1  0
 25150  1  0
 25151  1  0
 26152  1  0
 26153  1  0
 26154  1  0
 37155  1  0
 37156  1  0
 38157  1  0
 38158  1  0
 38159  1  0
 45160  1  0
 53161  1  1
 58162  1  0
 58163  1  0
 59164  1  0
 59165  1  0
 60166  1  6
 66167  1  0
 72168  1  0
 72169  1  0
 73170  1  0
 73171  1  0
 73172  1  0
 84173  1  0
 84174  1  0
 85175  1  0
 85176  1  0
 85177  1  0
 92178  1  0
100179  1  1
105180  1  0
105181  1  0
106182  1  0
106183  1  0
107184  1  6
113185  1  0
119186  1  0
119187  1  0
120188  1  0
120189  1  0
120190  1  0
131191  1  0
131192  1  0
132193  1  0
132194  1  0
132195  1  0
139196  1  0
140197  1  0
M  END

