
     RDKit          3D

131145  0  0  0  0  0  0  0  0999 V2000
    8.5561   10.9220    6.0247 C   0  0  0  0  0  0  0  0  0  0  0  0
    6.9645   11.3213    5.5267 S   0  0  0  0  0  0  0  0  0  0  0  0
    6.3543    9.8505    6.0388 C   0  0  0  0  0  0  0  0  0  0  0  0
    5.2153    9.0921    6.0160 C   0  0  0  0  0  0  0  0  0  0  0  0
    5.5624    7.8832    6.5245 C   0  0  0  0  0  0  0  0  0  0  0  0
    6.8686    7.8268    6.8878 N   0  0  0  0  0  0  0  0  0  0  0  0
    7.6344    6.6602    7.3226 C   0  0  0  0  0  0  0  0  0  0  0  0
    8.1987    5.9188    6.1166 C   0  0  0  0  0  0  0  0  0  0  0  0
    7.3262    9.0628    6.5630 C   0  0  0  0  0  0  0  0  0  0  0  0
    8.5973    9.6267    6.5689 C   0  0  0  0  0  0  0  0  0  0  0  0
    4.5635    6.9223    6.4985 C   0  0  0  0  0  0  0  0  0  0  0  0
    3.3873    7.4610    5.9435 C   0  0  0  0  0  0  0  0  0  0  0  0
    3.6289    9.0987    5.4769 S   0  0  0  0  0  0  0  0  0  0  0  0
    2.1249    6.7146    5.7906 C   0  0  0  0  0  0  0  0  0  0  0  0
    1.9490    5.0419    6.1401 S   0  0  0  0  0  0  0  0  0  0  0  0
    0.3255    5.0575    5.7606 C   0  0  0  0  0  0  0  0  0  0  0  0
   -0.7203    4.2100    5.5414 C   0  0  0  0  0  0  0  0  0  0  0  0
   -1.7171    4.9564    5.0038 C   0  0  0  0  0  0  0  0  0  0  0  0
   -1.3484    6.2572    4.8499 N   0  0  0  0  0  0  0  0  0  0  0  0
   -2.0475    7.3377    4.1491 C   0  0  0  0  0  0  0  0  0  0  0  0
   -2.6494    8.3162    5.1478 C   0  0  0  0  0  0  0  0  0  0  0  0
   -0.0818    6.2784    5.3379 C   0  0  0  0  0  0  0  0  0  0  0  0
    0.9088    7.2577    5.3323 C   0  0  0  0  0  0  0  0  0  0  0  0
   -2.7920    4.2208    4.5088 C   0  0  0  0  0  0  0  0  0  0  0  0
   -2.5764    2.8460    4.7196 C   0  0  0  0  0  0  0  0  0  0  0  0
   -1.0290    2.5764    5.4012 S   0  0  0  0  0  0  0  0  0  0  0  0
   -3.3525    1.7885    4.0648 C   0  0  0  0  0  0  0  0  0  0  0  0
   -3.1328    1.4594    2.4351 S   0  0  0  0  0  0  0  0  0  0  0  0
   -4.0863    0.0907    2.3628 C   0  0  0  0  0  0  0  0  0  0  0  0
   -4.6333   -0.1372    3.6354 C   0  0  0  0  0  0  0  0  0  0  0  0
   -4.2049    0.8058    4.6107 C   0  0  0  0  0  0  0  0  0  0  0  0
   -4.7535    0.6890    6.0336 C   0  0  2  0  0  0  0  0  0  0  0  0
   -4.0278    1.4636    7.1498 C   0  0  0  0  0  0  0  0  0  0  0  0
   -4.6334    1.2083    8.3713 F   0  0  0  0  0  0  0  0  0  0  0  0
   -2.7098    1.0653    7.2395 F   0  0  0  0  0  0  0  0  0  0  0  0
   -4.1083    2.8268    6.9337 F   0  0  0  0  0  0  0  0  0  0  0  0
   -4.8013   -0.8119    6.3793 C   0  0  0  0  0  0  0  0  0  0  0  0
   -5.8041   -1.5420    5.4732 C   0  0  0  0  0  0  0  0  0  0  0  0
   -5.6417   -1.2459    3.9507 C   0  0  1  0  0  0  0  0  0  0  0  0
   -7.0181   -0.9425    3.3162 C   0  0  0  0  0  0  0  0  0  0  0  0
   -7.5269    0.2421    3.8197 F   0  0  0  0  0  0  0  0  0  0  0  0
   -7.9050   -1.9679    3.5997 F   0  0  0  0  0  0  0  0  0  0  0  0
   -6.9225   -0.8277    1.9414 F   0  0  0  0  0  0  0  0  0  0  0  0
   -4.2443   -0.7025    1.1340 C   0  0  0  0  0  0  0  0  0  0  0  0
   -4.0995   -2.4126    1.0310 S   0  0  0  0  0  0  0  0  0  0  0  0
   -4.2282   -2.3988   -0.6360 C   0  0  0  0  0  0  0  0  0  0  0  0
   -3.8993   -3.1915   -1.6996 C   0  0  0  0  0  0  0  0  0  0  0  0
   -3.7823   -2.3697   -2.7708 C   0  0  0  0  0  0  0  0  0  0  0  0
   -4.0413   -1.0798   -2.4511 N   0  0  0  0  0  0  0  0  0  0  0  0
   -3.7744    0.1134   -3.2536 C   0  0  0  0  0  0  0  0  0  0  0  0
   -2.2917    0.4988   -3.2005 C   0  0  0  0  0  0  0  0  0  0  0  0
   -4.3014   -1.1339   -1.1194 C   0  0  0  0  0  0  0  0  0  0  0  0
   -4.2979   -0.1396   -0.1509 C   0  0  0  0  0  0  0  0  0  0  0  0
   -3.1568   -2.9308   -3.8764 C   0  0  0  0  0  0  0  0  0  0  0  0
   -2.7716   -4.2582   -3.6130 C   0  0  0  0  0  0  0  0  0  0  0  0
   -3.2010   -4.6809   -2.0024 S   0  0  0  0  0  0  0  0  0  0  0  0
   -2.0997   -5.1218   -4.6150 C   0  0  0  0  0  0  0  0  0  0  0  0
   -2.1311   -4.7674   -6.2612 S   0  0  0  0  0  0  0  0  0  0  0  0
   -1.1603   -6.0292   -6.7660 C   0  0  0  0  0  0  0  0  0  0  0  0
   -0.8201   -6.7985   -5.6526 C   0  0  0  0  0  0  0  0  0  0  0  0
   -1.3057   -6.2713   -4.4303 C   0  0  0  0  0  0  0  0  0  0  0  0
   -0.7342   -6.7435   -3.1022 C   0  0  2  0  0  0  0  0  0  0  0  0
    0.4038   -5.7902   -2.6310 C   0  0  0  0  0  0  0  0  0  0  0  0
    1.1714   -5.3726   -3.7063 F   0  0  0  0  0  0  0  0  0  0  0  0
   -0.1414   -4.6779   -2.0239 F   0  0  0  0  0  0  0  0  0  0  0  0
    1.2404   -6.4044   -1.7131 F   0  0  0  0  0  0  0  0  0  0  0  0
   -0.2738   -8.2138   -3.1946 C   0  0  0  0  0  0  0  0  0  0  0  0
    0.6084   -8.4762   -4.4263 C   0  0  0  0  0  0  0  0  0  0  0  0
   -0.1229   -8.1448   -5.7476 C   0  0  1  0  0  0  0  0  0  0  0  0
   -1.1250   -9.2453   -6.1725 C   0  0  0  0  0  0  0  0  0  0  0  0
   -2.2127   -9.2961   -5.3218 F   0  0  0  0  0  0  0  0  0  0  0  0
   -0.4967  -10.4815   -6.1747 F   0  0  0  0  0  0  0  0  0  0  0  0
   -1.5798   -8.9912   -7.4509 F   0  0  0  0  0  0  0  0  0  0  0  0
   -0.6466   -6.1775   -8.1340 C   0  0  0  0  0  0  0  0  0  0  0  0
   -1.6040   -6.4326   -9.4863 S   0  0  0  0  0  0  0  0  0  0  0  0
   -0.3489   -6.5158  -10.5983 C   0  0  0  0  0  0  0  0  0  0  0  0
    0.8568   -6.3464   -9.9168 C   0  0  0  0  0  0  0  0  0  0  0  0
    0.6900   -6.1058   -8.5405 C   0  0  0  0  0  0  0  0  0  0  0  0
    1.8570   -5.6911   -7.6524 C   0  0  2  0  0  0  0  0  0  0  0  0
    1.9010   -4.1543   -7.5129 C   0  0  0  0  0  0  0  0  0  0  0  0
    2.9360   -3.7950   -6.6693 F   0  0  0  0  0  0  0  0  0  0  0  0
    0.7208   -3.6779   -6.9758 F   0  0  0  0  0  0  0  0  0  0  0  0
    2.0991   -3.5598   -8.7482 F   0  0  0  0  0  0  0  0  0  0  0  0
    3.2304   -6.2434   -8.1614 C   0  0  0  0  0  0  0  0  0  0  0  0
    3.1674   -7.0767   -9.4583 C   0  0  0  0  0  0  0  0  0  0  0  0
    2.2478   -6.4239  -10.5149 C   0  0  1  0  0  0  0  0  0  0  0  0
    2.3120   -7.1998  -11.8499 C   0  0  0  0  0  0  0  0  0  0  0  0
    3.6275   -7.3683  -12.2405 F   0  0  0  0  0  0  0  0  0  0  0  0
    1.7225   -8.4442  -11.7174 F   0  0  0  0  0  0  0  0  0  0  0  0
    1.6602   -6.4891  -12.8410 F   0  0  0  0  0  0  0  0  0  0  0  0
    9.4176   11.5663    5.9081 H   0  0  0  0  0  0  0  0  0  0  0  0
    6.9756    5.9879    7.9100 H   0  0  0  0  0  0  0  0  0  0  0  0
    8.4657    6.9846    7.9869 H   0  0  0  0  0  0  0  0  0  0  0  0
    7.3812    5.6663    5.4119 H   0  0  0  0  0  0  0  0  0  0  0  0
    8.9474    6.5515    5.6005 H   0  0  0  0  0  0  0  0  0  0  0  0
    8.6840    4.9784    6.4582 H   0  0  0  0  0  0  0  0  0  0  0  0
    9.4975    9.1342    6.9224 H   0  0  0  0  0  0  0  0  0  0  0  0
    4.6848    5.9002    6.8517 H   0  0  0  0  0  0  0  0  0  0  0  0
   -1.3248    7.8676    3.4919 H   0  0  0  0  0  0  0  0  0  0  0  0
   -2.8476    6.9262    3.4945 H   0  0  0  0  0  0  0  0  0  0  0  0
   -3.5716    7.8885    5.5841 H   0  0  0  0  0  0  0  0  0  0  0  0
   -1.9217    8.5374    5.9561 H   0  0  0  0  0  0  0  0  0  0  0  0
   -2.9004    9.2659    4.6339 H   0  0  0  0  0  0  0  0  0  0  0  0
    0.7653    8.2765    4.9987 H   0  0  0  0  0  0  0  0  0  0  0  0
   -3.6282    4.6345    3.9627 H   0  0  0  0  0  0  0  0  0  0  0  0
   -5.7988    1.0753    6.0151 H   0  0  0  0  0  0  0  0  0  0  0  0
   -3.7940   -1.2661    6.2497 H   0  0  0  0  0  0  0  0  0  0  0  0
   -5.1146   -0.9735    7.4317 H   0  0  0  0  0  0  0  0  0  0  0  0
   -6.8223   -1.2591    5.8228 H   0  0  0  0  0  0  0  0  0  0  0  0
   -5.7100   -2.6375    5.6523 H   0  0  0  0  0  0  0  0  0  0  0  0
   -5.2589   -2.1803    3.4950 H   0  0  0  0  0  0  0  0  0  0  0  0
   -4.3979    0.9637   -2.8750 H   0  0  0  0  0  0  0  0  0  0  0  0
   -4.0773   -0.0649   -4.3147 H   0  0  0  0  0  0  0  0  0  0  0  0
   -1.8944    0.3724   -2.1778 H   0  0  0  0  0  0  0  0  0  0  0  0
   -1.7130   -0.1444   -3.8985 H   0  0  0  0  0  0  0  0  0  0  0  0
   -2.1737    1.5633   -3.5066 H   0  0  0  0  0  0  0  0  0  0  0  0
   -4.2672    0.9197   -0.3578 H   0  0  0  0  0  0  0  0  0  0  0  0
   -2.9306   -2.3894   -4.7832 H   0  0  0  0  0  0  0  0  0  0  0  0
   -1.5271   -6.7384   -2.3323 H   0  0  0  0  0  0  0  0  0  0  0  0
    0.2810   -8.5139   -2.2776 H   0  0  0  0  0  0  0  0  0  0  0  0
   -1.1593   -8.8771   -3.2206 H   0  0  0  0  0  0  0  0  0  0  0  0
    0.9435   -9.5352   -4.4204 H   0  0  0  0  0  0  0  0  0  0  0  0
    1.5285   -7.8545   -4.3523 H   0  0  0  0  0  0  0  0  0  0  0  0
    0.6552   -8.1111   -6.5366 H   0  0  0  0  0  0  0  0  0  0  0  0
   -0.4770   -6.7006  -11.6518 H   0  0  0  0  0  0  0  0  0  0  0  0
    1.6930   -6.0962   -6.6330 H   0  0  0  0  0  0  0  0  0  0  0  0
    3.9533   -5.4140   -8.3314 H   0  0  0  0  0  0  0  0  0  0  0  0
    3.6753   -6.8799   -7.3678 H   0  0  0  0  0  0  0  0  0  0  0  0
    4.2052   -7.1740   -9.8497 H   0  0  0  0  0  0  0  0  0  0  0  0
    2.7926   -8.1012   -9.2193 H   0  0  0  0  0  0  0  0  0  0  0  0
    2.6037   -5.3858  -10.7006 H   0  0  0  0  0  0  0  0  0  0  0  0
  1  2  1  0
  2  3  1  0
  3  4  1  0
  4  5  2  0
  5  6  1  0
  6  7  1  0
  7  8  1  0
  6  9  1  0
  9 10  1  0
  5 11  1  0
 11 12  2  0
 12 13  1  0
 12 14  1  0
 14 15  1  0
 15 16  1  0
 16 17  1  0
 17 18  2  0
 18 19  1  0
 19 20  1  0
 20 21  1  0
 19 22  1  0
 22 23  1  0
 18 24  1  0
 24 25  2  0
 25 26  1  0
 25 27  1  0
 27 28  1  0
 28 29  1  0
 29 30  2  0
 30 31  1  0
 31 32  1  0
 32 33  1  0
 33 34  1  0
 33 35  1  0
 33 36  1  0
 32 37  1  0
 37 38  1  0
 38 39  1  0
 39 40  1  0
 40 41  1  0
 40 42  1  0
 40 43  1  0
 29 44  1  0
 44 45  1  0
 45 46  1  0
 46 47  1  0
 47 48  2  0
 48 49  1  0
 49 50  1  0
 50 51  1  0
 49 52  1  0
 52 53  1  0
 48 54  1  0
 54 55  2  0
 55 56  1  0
 55 57  1  0
 57 58  1  0
 58 59  1  0
 59 60  2  0
 60 61  1  0
 61 62  1  0
 62 63  1  0
 63 64  1  0
 63 65  1  0
 63 66  1  0
 62 67  1  0
 67 68  1  0
 68 69  1  0
 69 70  1  0
 70 71  1  0
 70 72  1  0
 70 73  1  0
 59 74  1  0
 74 75  1  0
 75 76  1  0
 76 77  2  0
 77 78  1  0
 78 79  1  0
 79 80  1  0
 80 81  1  0
 80 82  1  0
 80 83  1  0
 79 84  1  0
 84 85  1  0
 85 86  1  0
 86 87  1  0
 87 88  1  0
 87 89  1  0
 87 90  1  0
 10  1  2  0
 23 14  2  0
 31 27  2  0
 53 44  2  0
 61 57  2  0
 78 74  2  0
  9  3  2  0
 22 16  2  0
 39 30  1  0
 52 46  2  0
 69 60  1  0
 86 77  1  0
 13  4  1  0
 26 17  1  0
 56 47  1  0
  1 91  1  0
  7 92  1  0
  7 93  1  0
  8 94  1  0
  8 95  1  0
  8 96  1  0
 10 97  1  0
 11 98  1  0
 20 99  1  0
 20100  1  0
 21101  1  0
 21102  1  0
 21103  1  0
 23104  1  0
 24105  1  0
 32106  1  6
 37107  1  0
 37108  1  0
 38109  1  0
 38110  1  0
 39111  1  6
 50112  1  0
 50113  1  0
 51114  1  0
 51115  1  0
 51116  1  0
 53117  1  0
 54118  1  0
 62119  1  1
 67120  1  0
 67121  1  0
 68122  1  0
 68123  1  0
 69124  1  6
 76125  1  0
 79126  1  1
 84127  1  0
 84128  1  0
 85129  1  0
 85130  1  0
 86131  1  6
M  END

