
     RDKit          3D

 98109  0  0  0  0  0  0  0  0999 V2000
    5.6715   -2.1080    9.2153 C   0  0  0  0  0  0  0  0  0  0  0  0
    4.3635   -2.2818    8.0849 S   0  0  0  0  0  0  0  0  0  0  0  0
    4.5868   -0.7819    7.2449 C   0  0  0  0  0  0  0  0  0  0  0  0
    5.7060   -0.1699    7.8943 C   0  0  0  0  0  0  0  0  0  0  0  0
    6.2654    1.0343    7.6294 C   0  0  0  0  0  0  0  0  0  0  0  0
    7.3348    1.5426    8.3333 C   0  0  0  0  0  0  0  0  0  0  0  0
    8.0903    2.8318    8.1620 C   0  0  0  0  0  0  0  0  0  0  0  0
    7.6277    3.5817    6.9510 C   0  0  0  0  0  0  0  0  0  0  0  0
    7.7254    0.2401    9.5977 Se  0  0  0  0  0  2  0  0  0  0  0  0
    6.1263   -0.9477    8.8397 C   0  0  0  0  0  0  0  0  0  0  0  0
    3.8171   -0.4703    6.0535 C   0  0  0  0  0  0  0  0  0  0  0  0
    2.2036   -0.8743    5.6863 S   0  0  0  0  0  0  0  0  0  0  0  0
    2.1277   -0.2983    4.0915 C   0  0  0  0  0  0  0  0  0  0  0  0
    3.4482    0.2364    3.8401 C   0  0  0  0  0  0  0  0  0  0  0  0
    3.9312    0.7704    2.6725 C   0  0  0  0  0  0  0  0  0  0  0  0
    5.2142    1.1796    2.5378 C   0  0  0  0  0  0  0  0  0  0  0  0
    5.9451    1.7544    1.3743 C   0  0  0  0  0  0  0  0  0  0  0  0
    6.5764    0.6543    0.5824 C   0  0  0  0  0  0  0  0  0  0  0  0
    5.9402    0.8106    4.2307 Se  0  0  0  0  0  2  0  0  0  0  0  0
    4.2417    0.1046    4.8946 C   0  0  0  0  0  0  0  0  0  0  0  0
    0.9813   -0.3133    3.1826 C   0  0  0  0  0  0  0  0  0  0  0  0
    0.7576    0.5231    1.6912 S   0  0  0  0  0  0  0  0  0  0  0  0
   -0.7307   -0.1529    1.2062 C   0  0  0  0  0  0  0  0  0  0  0  0
   -1.0295   -1.0510    2.2694 C   0  0  0  0  0  0  0  0  0  0  0  0
   -2.1332   -1.8351    2.4239 C   0  0  0  0  0  0  0  0  0  0  0  0
   -2.3896   -2.6312    3.4604 C   0  0  0  0  0  0  0  0  0  0  0  0
   -3.4850   -3.5458    3.8584 C   0  0  0  0  0  0  0  0  0  0  0  0
   -3.2391   -4.1133    5.2398 C   0  0  0  0  0  0  0  0  0  0  0  0
   -0.7957   -2.3245    4.5763 Se  0  0  0  0  0  2  0  0  0  0  0  0
   -0.1029   -1.0412    3.1958 C   0  0  0  0  0  0  0  0  0  0  0  0
   -1.3897    0.0614   -0.0948 C   0  0  0  0  0  0  0  0  0  0  0  0
   -2.0040   -1.1149   -1.1556 S   0  0  0  0  0  0  0  0  0  0  0  0
   -2.7233   -0.0588   -2.3529 C   0  0  0  0  0  0  0  0  0  0  0  0
   -2.4398    1.2329   -1.8460 C   0  0  0  0  0  0  0  0  0  0  0  0
   -2.7696    2.4389   -2.3814 C   0  0  0  0  0  0  0  0  0  0  0  0
   -2.4529    3.6320   -1.8156 C   0  0  0  0  0  0  0  0  0  0  0  0
   -2.7561    5.0391   -2.2173 C   0  0  0  0  0  0  0  0  0  0  0  0
   -2.1202    5.9184   -1.1632 C   0  0  0  0  0  0  0  0  0  0  0  0
   -1.5463    3.1367   -0.2917 Se  0  0  0  0  0  2  0  0  0  0  0  0
   -1.7671    1.1696   -0.7136 C   0  0  0  0  0  0  0  0  0  0  0  0
   -3.4478   -0.5947   -3.4866 C   0  0  0  0  0  0  0  0  0  0  0  0
   -3.0014   -2.0849   -4.3237 S   0  0  0  0  0  0  0  0  0  0  0  0
   -4.2623   -2.1368   -5.4450 C   0  0  0  0  0  0  0  0  0  0  0  0
   -5.0476   -0.9717   -5.1535 C   0  0  0  0  0  0  0  0  0  0  0  0
   -6.2069   -0.5694   -5.7331 C   0  0  0  0  0  0  0  0  0  0  0  0
   -6.9187    0.5150   -5.3662 C   0  0  0  0  0  0  0  0  0  0  0  0
   -8.1979    1.1205   -5.8098 C   0  0  0  0  0  0  0  0  0  0  0  0
   -7.9374    2.1195   -6.8908 C   0  0  0  0  0  0  0  0  0  0  0  0
   -5.8731    1.2268   -3.9250 Se  0  0  0  0  0  2  0  0  0  0  0  0
   -4.5142   -0.3069   -4.1559 C   0  0  0  0  0  0  0  0  0  0  0  0
   -4.4466   -3.1339   -6.4911 C   0  0  0  0  0  0  0  0  0  0  0  0
   -5.6727   -3.3386   -7.6434 S   0  0  0  0  0  0  0  0  0  0  0  0
   -5.0334   -4.6530   -8.4940 C   0  0  0  0  0  0  0  0  0  0  0  0
   -3.7883   -4.9317   -7.8164 C   0  0  0  0  0  0  0  0  0  0  0  0
   -2.8829   -5.9093   -8.1320 C   0  0  0  0  0  0  0  0  0  0  0  0
   -1.7411   -6.1058   -7.4678 C   0  0  0  0  0  0  0  0  0  0  0  0
   -0.5931   -7.0453   -7.5908 C   0  0  0  0  0  0  0  0  0  0  0  0
    0.4115   -6.7491   -6.5022 C   0  0  0  0  0  0  0  0  0  0  0  0
   -1.8542   -4.7344   -6.1438 Se  0  0  0  0  0  2  0  0  0  0  0  0
   -3.5633   -4.1203   -6.8148 C   0  0  0  0  0  0  0  0  0  0  0  0
    5.9624   -2.8287    9.9911 H   0  0  0  0  0  0  0  0  0  0  0  0
    5.9030    1.7889    6.8537 H   0  0  0  0  0  0  0  0  0  0  0  0
    7.8818    3.5011    9.0378 H   0  0  0  0  0  0  0  0  0  0  0  0
    9.1509    2.5866    8.0601 H   0  0  0  0  0  0  0  0  0  0  0  0
    6.7820    4.2368    7.2395 H   0  0  0  0  0  0  0  0  0  0  0  0
    8.4210    4.3105    6.6022 H   0  0  0  0  0  0  0  0  0  0  0  0
    7.3837    2.9403    6.0775 H   0  0  0  0  0  0  0  0  0  0  0  0
    3.3259    0.9276    1.7176 H   0  0  0  0  0  0  0  0  0  0  0  0
    5.1724    2.3044    0.7683 H   0  0  0  0  0  0  0  0  0  0  0  0
    6.6315    2.5489    1.7245 H   0  0  0  0  0  0  0  0  0  0  0  0
    6.2498   -0.3314    0.9744 H   0  0  0  0  0  0  0  0  0  0  0  0
    7.6777    0.7757    0.6394 H   0  0  0  0  0  0  0  0  0  0  0  0
    6.2579    0.6959   -0.4562 H   0  0  0  0  0  0  0  0  0  0  0  0
   -2.9943   -1.8854    1.6375 H   0  0  0  0  0  0  0  0  0  0  0  0
   -3.5390   -4.3868    3.1396 H   0  0  0  0  0  0  0  0  0  0  0  0
   -4.4332   -2.9646    3.7990 H   0  0  0  0  0  0  0  0  0  0  0  0
   -2.2041   -4.4124    5.3708 H   0  0  0  0  0  0  0  0  0  0  0  0
   -3.9094   -4.9802    5.3265 H   0  0  0  0  0  0  0  0  0  0  0  0
   -3.5953   -3.3337    5.9466 H   0  0  0  0  0  0  0  0  0  0  0  0
   -3.3221    2.5840   -3.3756 H   0  0  0  0  0  0  0  0  0  0  0  0
   -3.8475    5.2310   -2.2111 H   0  0  0  0  0  0  0  0  0  0  0  0
   -2.2611    5.2672   -3.1587 H   0  0  0  0  0  0  0  0  0  0  0  0
   -1.4047    5.3372   -0.5018 H   0  0  0  0  0  0  0  0  0  0  0  0
   -1.4778    6.7167   -1.5930 H   0  0  0  0  0  0  0  0  0  0  0  0
   -2.8811    6.2876   -0.4540 H   0  0  0  0  0  0  0  0  0  0  0  0
   -6.7150   -1.1191   -6.6194 H   0  0  0  0  0  0  0  0  0  0  0  0
   -8.7899    0.2838   -6.2485 H   0  0  0  0  0  0  0  0  0  0  0  0
   -8.7113    1.5619   -4.9284 H   0  0  0  0  0  0  0  0  0  0  0  0
   -7.5800    3.0789   -6.4644 H   0  0  0  0  0  0  0  0  0  0  0  0
   -8.8798    2.2729   -7.4586 H   0  0  0  0  0  0  0  0  0  0  0  0
   -7.1482    1.6990   -7.5563 H   0  0  0  0  0  0  0  0  0  0  0  0
   -5.5212   -5.1053   -9.3320 H   0  0  0  0  0  0  0  0  0  0  0  0
   -3.0258   -6.6445   -8.9953 H   0  0  0  0  0  0  0  0  0  0  0  0
   -0.9870   -8.0742   -7.4822 H   0  0  0  0  0  0  0  0  0  0  0  0
   -0.1322   -7.0144   -8.6153 H   0  0  0  0  0  0  0  0  0  0  0  0
    1.3236   -6.3558   -7.0314 H   0  0  0  0  0  0  0  0  0  0  0  0
   -0.0084   -6.0205   -5.7976 H   0  0  0  0  0  0  0  0  0  0  0  0
    0.7494   -7.6784   -6.0030 H   0  0  0  0  0  0  0  0  0  0  0  0
  1  2  1  0
  2  3  1  0
  3  4  2  0
  4  5  1  0
  5  6  2  0
  6  7  1  0
  7  8  1  0
  6  9  1  0
  9 10  1  0
  3 11  1  0
 11 12  1  0
 12 13  1  0
 13 14  2  0
 14 15  1  0
 15 16  2  0
 16 17  1  0
 17 18  1  0
 16 19  1  0
 19 20  1  0
 13 21  1  0
 21 22  1  0
 22 23  1  0
 23 24  2  0
 24 25  1  0
 25 26  2  0
 26 27  1  0
 27 28  1  0
 26 29  1  0
 29 30  1  0
 23 31  1  0
 31 32  1  0
 32 33  1  0
 33 34  2  0
 34 35  1  0
 35 36  2  0
 36 37  1  0
 37 38  1  0
 36 39  1  0
 39 40  1  0
 33 41  1  0
 41 42  1  0
 42 43  1  0
 43 44  2  0
 44 45  1  0
 45 46  2  0
 46 47  1  0
 47 48  1  0
 46 49  1  0
 49 50  1  0
 43 51  1  0
 51 52  1  0
 52 53  1  0
 53 54  2  0
 54 55  1  0
 55 56  2  0
 56 57  1  0
 57 58  1  0
 56 59  1  0
 59 60  1  0
 10  1  2  0
 20 11  2  0
 30 21  2  0
 40 31  2  0
 50 41  2  0
 60 51  2  0
 10  4  1  0
 20 14  1  0
 30 24  1  0
 40 34  1  0
 50 44  1  0
 60 54  1  0
  1 61  1  0
  5 62  1  0
  7 63  1  0
  7 64  1  0
  8 65  1  0
  8 66  1  0
  8 67  1  0
 15 68  1  0
 17 69  1  0
 17 70  1  0
 18 71  1  0
 18 72  1  0
 18 73  1  0
 25 74  1  0
 27 75  1  0
 27 76  1  0
 28 77  1  0
 28 78  1  0
 28 79  1  0
 35 80  1  0
 37 81  1  0
 37 82  1  0
 38 83  1  0
 38 84  1  0
 38 85  1  0
 45 86  1  0
 47 87  1  0
 47 88  1  0
 48 89  1  0
 48 90  1  0
 48 91  1  0
 53 92  1  0
 55 93  1  0
 57 94  1  0
 57 95  1  0
 58 96  1  0
 58 97  1  0
 58 98  1  0
M  END

