
     RDKit          3D

156171  0  0  0  0  0  0  0  0999 V2000
    8.3839    7.5744    4.1704 C   0  0  0  0  0  0  0  0  0  0  0  0
    7.3921    6.2383    3.8094 S   0  0  0  0  0  0  0  0  0  0  0  0
    6.2379    6.6414    4.9530 C   0  0  0  0  0  0  0  0  0  0  0  0
    4.9398    6.1067    5.3251 C   0  0  0  0  0  0  0  0  0  0  0  0
    4.2788    6.8271    6.2843 C   0  0  0  0  0  0  0  0  0  0  0  0
    5.2541    8.3741    6.8556 Ge  0  0  0  0  0  4  0  0  0  0  0  0
    4.3546   10.0236    6.3409 C   0  0  0  0  0  0  0  0  0  0  0  0
    3.9480    9.9716    4.8745 C   0  0  0  0  0  0  0  0  0  0  0  0
    5.8370    8.2772    8.7105 C   0  0  0  0  0  0  0  0  0  0  0  0
    6.6693    9.4986    9.0682 C   0  0  0  0  0  0  0  0  0  0  0  0
    6.5867    7.7981    5.5982 C   0  0  0  0  0  0  0  0  0  0  0  0
    7.7877    8.3521    5.1724 C   0  0  0  0  0  0  0  0  0  0  0  0
    2.9883    6.3861    6.5493 C   0  0  0  0  0  0  0  0  0  0  0  0
    2.6363    5.3256    5.7119 C   0  0  0  0  0  0  0  0  0  0  0  0
    3.9547    4.8959    4.7175 S   0  0  0  0  0  0  0  0  0  0  0  0
    1.3808    4.5765    5.7835 C   0  0  0  0  0  0  0  0  0  0  0  0
    1.3412    3.0098    6.3672 S   0  0  0  0  0  0  0  0  0  0  0  0
   -0.3141    2.7648    6.2398 C   0  0  0  0  0  0  0  0  0  0  0  0
   -0.8763    3.9467    5.7302 C   0  0  0  0  0  0  0  0  0  0  0  0
    0.0668    4.9631    5.4522 C   0  0  0  0  0  0  0  0  0  0  0  0
   -0.4379    6.1951    4.7037 C   0  0  2  0  0  0  0  0  0  0  0  0
    0.5394    7.3542    4.4208 C   0  0  0  0  0  0  0  0  0  0  0  0
    1.6379    6.9129    3.7072 F   0  0  0  0  0  0  0  0  0  0  0  0
    0.9375    7.9654    5.5951 F   0  0  0  0  0  0  0  0  0  0  0  0
   -0.0956    8.3086    3.6416 F   0  0  0  0  0  0  0  0  0  0  0  0
   -1.7346    6.7328    5.3690 C   0  0  0  0  0  0  0  0  0  0  0  0
   -2.6875    5.6558    5.9471 C   0  0  0  0  0  0  0  0  0  0  0  0
   -2.3571    4.2009    5.5425 C   0  0  1  0  0  0  0  0  0  0  0  0
   -2.8733    3.8463    4.1183 C   0  0  0  0  0  0  0  0  0  0  0  0
   -2.0929    2.8640    3.5333 F   0  0  0  0  0  0  0  0  0  0  0  0
   -4.1716    3.3772    4.2071 F   0  0  0  0  0  0  0  0  0  0  0  0
   -2.8840    4.9437    3.2766 F   0  0  0  0  0  0  0  0  0  0  0  0
   -0.9557    1.4577    6.5123 C   0  0  0  0  0  0  0  0  0  0  0  0
   -2.4163    0.9031    5.8409 S   0  0  0  0  0  0  0  0  0  0  0  0
   -2.2350   -0.6756    6.3607 C   0  0  0  0  0  0  0  0  0  0  0  0
   -2.8051   -1.9174    5.8582 C   0  0  0  0  0  0  0  0  0  0  0  0
   -2.0538   -3.0395    6.1244 C   0  0  0  0  0  0  0  0  0  0  0  0
   -0.4561   -2.6353    7.1044 Ge  0  0  0  0  0  4  0  0  0  0  0  0
   -0.4245   -3.3797    8.9053 C   0  0  0  0  0  0  0  0  0  0  0  0
   -1.4238   -2.6600    9.7982 C   0  0  0  0  0  0  0  0  0  0  0  0
    1.1218   -3.0141    6.0202 C   0  0  0  0  0  0  0  0  0  0  0  0
    2.3645   -2.3669    6.6149 C   0  0  0  0  0  0  0  0  0  0  0  0
   -1.0308   -0.8105    7.0017 C   0  0  0  0  0  0  0  0  0  0  0  0
   -0.2980    0.3713    7.1072 C   0  0  0  0  0  0  0  0  0  0  0  0
   -2.3064   -4.1164    5.2754 C   0  0  0  0  0  0  0  0  0  0  0  0
   -3.2830   -3.8099    4.3199 C   0  0  0  0  0  0  0  0  0  0  0  0
   -3.7753   -2.1979    4.5200 S   0  0  0  0  0  0  0  0  0  0  0  0
   -3.5863   -4.6237    3.1313 C   0  0  0  0  0  0  0  0  0  0  0  0
   -4.1564   -3.9903    1.6581 S   0  0  0  0  0  0  0  0  0  0  0  0
   -3.9507   -5.4216    0.8121 C   0  0  0  0  0  0  0  0  0  0  0  0
   -3.8174   -5.7012   -0.6086 C   0  0  0  0  0  0  0  0  0  0  0  0
   -3.1810   -6.8778   -0.9047 C   0  0  0  0  0  0  0  0  0  0  0  0
   -2.6714   -7.8565    0.6648 Ge  0  0  0  0  0  4  0  0  0  0  0  0
   -0.7383   -8.0128    0.8696 C   0  0  0  0  0  0  0  0  0  0  0  0
   -0.3810   -8.4626    2.2789 C   0  0  0  0  0  0  0  0  0  0  0  0
   -3.6607   -9.5188    0.8844 C   0  0  0  0  0  0  0  0  0  0  0  0
   -3.1539  -10.5655   -0.0982 C   0  0  0  0  0  0  0  0  0  0  0  0
   -3.4131   -6.3799    1.6363 C   0  0  0  0  0  0  0  0  0  0  0  0
   -3.1961   -5.9563    2.9455 C   0  0  0  0  0  0  0  0  0  0  0  0
   -2.8043   -7.0120   -2.2402 C   0  0  0  0  0  0  0  0  0  0  0  0
   -3.1770   -5.8897   -2.9958 C   0  0  0  0  0  0  0  0  0  0  0  0
   -3.9236   -4.7441   -1.9800 S   0  0  0  0  0  0  0  0  0  0  0  0
   -2.8362   -5.6558   -4.4114 C   0  0  0  0  0  0  0  0  0  0  0  0
   -3.2592   -4.2591   -5.2944 S   0  0  0  0  0  0  0  0  0  0  0  0
   -2.4213   -4.7267   -6.6678 C   0  0  0  0  0  0  0  0  0  0  0  0
   -2.0452   -4.0572   -7.9056 C   0  0  0  0  0  0  0  0  0  0  0  0
   -1.1206   -4.7283   -8.6587 C   0  0  0  0  0  0  0  0  0  0  0  0
   -0.5640   -6.3792   -7.8553 Ge  0  0  0  0  0  4  0  0  0  0  0  0
    1.2848   -6.2933   -7.2401 C   0  0  0  0  0  0  0  0  0  0  0  0
    2.2494   -6.4679   -8.4036 C   0  0  0  0  0  0  0  0  0  0  0  0
   -1.0826   -7.9731   -8.8497 C   0  0  0  0  0  0  0  0  0  0  0  0
   -0.7138   -7.8429  -10.3211 C   0  0  0  0  0  0  0  0  0  0  0  0
   -1.7926   -5.9245   -6.4534 C   0  0  0  0  0  0  0  0  0  0  0  0
   -2.0085   -6.4731   -5.1934 C   0  0  0  0  0  0  0  0  0  0  0  0
   -0.6029   -3.9981   -9.7226 C   0  0  0  0  0  0  0  0  0  0  0  0
   -1.1768   -2.7242   -9.8063 C   0  0  0  0  0  0  0  0  0  0  0  0
   -2.2649   -2.5101   -8.5107 S   0  0  0  0  0  0  0  0  0  0  0  0
   -0.7449   -1.6854  -10.7604 C   0  0  0  0  0  0  0  0  0  0  0  0
    0.8179   -1.6022  -11.3821 S   0  0  0  0  0  0  0  0  0  0  0  0
    0.5932   -0.2432  -12.3335 C   0  0  0  0  0  0  0  0  0  0  0  0
   -0.7249    0.1775  -12.1902 C   0  0  0  0  0  0  0  0  0  0  0  0
   -1.4915   -0.6331  -11.3180 C   0  0  0  0  0  0  0  0  0  0  0  0
   -2.9970   -0.4732  -11.2028 C   0  0  2  0  0  0  0  0  0  0  0  0
   -3.7285   -1.5418  -12.0532 C   0  0  0  0  0  0  0  0  0  0  0  0
   -5.0864   -1.2848  -12.0930 F   0  0  0  0  0  0  0  0  0  0  0  0
   -3.2387   -1.5707  -13.3463 F   0  0  0  0  0  0  0  0  0  0  0  0
   -3.5515   -2.7942  -11.4958 F   0  0  0  0  0  0  0  0  0  0  0  0
   -3.4262    0.9668  -11.5693 C   0  0  0  0  0  0  0  0  0  0  0  0
   -2.8009    1.4567  -12.8844 C   0  0  0  0  0  0  0  0  0  0  0  0
   -1.2527    1.4306  -12.8591 C   0  0  1  0  0  0  0  0  0  0  0  0
   -0.6538    2.6992  -12.2048 C   0  0  0  0  0  0  0  0  0  0  0  0
   -0.9276    2.7340  -10.8484 F   0  0  0  0  0  0  0  0  0  0  0  0
   -1.1717    3.8383  -12.7969 F   0  0  0  0  0  0  0  0  0  0  0  0
    0.7197    2.7178  -12.3760 F   0  0  0  0  0  0  0  0  0  0  0  0
    9.3154    7.8113    3.6790 H   0  0  0  0  0  0  0  0  0  0  0  0
    5.0405   10.8799    6.5107 H   0  0  0  0  0  0  0  0  0  0  0  0
    3.4513   10.1520    6.9740 H   0  0  0  0  0  0  0  0  0  0  0  0
    3.4390   10.9173    4.5971 H   0  0  0  0  0  0  0  0  0  0  0  0
    3.2531    9.1252    4.6965 H   0  0  0  0  0  0  0  0  0  0  0  0
    4.8464    9.8468    4.2332 H   0  0  0  0  0  0  0  0  0  0  0  0
    4.9450    8.2240    9.3681 H   0  0  0  0  0  0  0  0  0  0  0  0
    6.4397    7.3547    8.8479 H   0  0  0  0  0  0  0  0  0  0  0  0
    7.0595    9.3932   10.1020 H   0  0  0  0  0  0  0  0  0  0  0  0
    6.0422   10.4145    9.0159 H   0  0  0  0  0  0  0  0  0  0  0  0
    7.5287    9.5956    8.3713 H   0  0  0  0  0  0  0  0  0  0  0  0
    8.2032    9.2739    5.5562 H   0  0  0  0  0  0  0  0  0  0  0  0
    2.3403    6.8238    7.2967 H   0  0  0  0  0  0  0  0  0  0  0  0
   -0.7135    5.8232    3.6946 H   0  0  0  0  0  0  0  0  0  0  0  0
   -1.4648    7.4257    6.1980 H   0  0  0  0  0  0  0  0  0  0  0  0
   -2.2973    7.3389    4.6237 H   0  0  0  0  0  0  0  0  0  0  0  0
   -3.7379    5.8949    5.6697 H   0  0  0  0  0  0  0  0  0  0  0  0
   -2.6434    5.7173    7.0572 H   0  0  0  0  0  0  0  0  0  0  0  0
   -2.9031    3.5602    6.2677 H   0  0  0  0  0  0  0  0  0  0  0  0
    0.5965   -3.2716    9.3296 H   0  0  0  0  0  0  0  0  0  0  0  0
   -0.6801   -4.4591    8.8502 H   0  0  0  0  0  0  0  0  0  0  0  0
   -1.1405   -1.5903    9.9065 H   0  0  0  0  0  0  0  0  0  0  0  0
   -1.4254   -3.1286   10.8052 H   0  0  0  0  0  0  0  0  0  0  0  0
   -2.4457   -2.7301    9.3678 H   0  0  0  0  0  0  0  0  0  0  0  0
    0.9511   -2.6237    4.9944 H   0  0  0  0  0  0  0  0  0  0  0  0
    1.2624   -4.1139    5.9630 H   0  0  0  0  0  0  0  0  0  0  0  0
    2.2400   -1.2656    6.6627 H   0  0  0  0  0  0  0  0  0  0  0  0
    2.5583   -2.7671    7.6306 H   0  0  0  0  0  0  0  0  0  0  0  0
    3.2405   -2.5906    5.9711 H   0  0  0  0  0  0  0  0  0  0  0  0
    0.7114    0.4102    7.4959 H   0  0  0  0  0  0  0  0  0  0  0  0
   -1.6965   -5.0083    5.2553 H   0  0  0  0  0  0  0  0  0  0  0  0
   -0.2709   -7.0261    0.6631 H   0  0  0  0  0  0  0  0  0  0  0  0
   -0.3586   -8.7524    0.1343 H   0  0  0  0  0  0  0  0  0  0  0  0
   -0.6809   -7.6893    3.0163 H   0  0  0  0  0  0  0  0  0  0  0  0
   -0.8898   -9.4207    2.5205 H   0  0  0  0  0  0  0  0  0  0  0  0
    0.7159   -8.6113    2.3574 H   0  0  0  0  0  0  0  0  0  0  0  0
   -4.7376   -9.3240    0.7035 H   0  0  0  0  0  0  0  0  0  0  0  0
   -3.5291   -9.8826    1.9235 H   0  0  0  0  0  0  0  0  0  0  0  0
   -3.7496  -11.4967    0.0081 H   0  0  0  0  0  0  0  0  0  0  0  0
   -2.0876  -10.7976    0.1046 H   0  0  0  0  0  0  0  0  0  0  0  0
   -3.2594  -10.1935   -1.1387 H   0  0  0  0  0  0  0  0  0  0  0  0
   -2.6963   -6.5588    3.6941 H   0  0  0  0  0  0  0  0  0  0  0  0
   -2.2331   -7.8513   -2.6171 H   0  0  0  0  0  0  0  0  0  0  0  0
    1.4554   -7.0870   -6.4829 H   0  0  0  0  0  0  0  0  0  0  0  0
    1.4507   -5.2997   -6.7696 H   0  0  0  0  0  0  0  0  0  0  0  0
    2.0267   -5.7304   -9.2032 H   0  0  0  0  0  0  0  0  0  0  0  0
    3.2885   -6.3059   -8.0515 H   0  0  0  0  0  0  0  0  0  0  0  0
    2.1702   -7.4961   -8.8145 H   0  0  0  0  0  0  0  0  0  0  0  0
   -0.5734   -8.8547   -8.4074 H   0  0  0  0  0  0  0  0  0  0  0  0
   -2.1803   -8.1103   -8.7568 H   0  0  0  0  0  0  0  0  0  0  0  0
   -1.0136   -8.7654  -10.8610 H   0  0  0  0  0  0  0  0  0  0  0  0
   -1.2433   -6.9780  -10.7758 H   0  0  0  0  0  0  0  0  0  0  0  0
    0.3806   -7.7029  -10.4381 H   0  0  0  0  0  0  0  0  0  0  0  0
   -1.5329   -7.3805   -4.8495 H   0  0  0  0  0  0  0  0  0  0  0  0
    0.1836   -4.3604  -10.3718 H   0  0  0  0  0  0  0  0  0  0  0  0
    1.3491    0.2284  -12.9469 H   0  0  0  0  0  0  0  0  0  0  0  0
   -3.2984   -0.6203  -10.1460 H   0  0  0  0  0  0  0  0  0  0  0  0
   -4.5318    1.0365  -11.6420 H   0  0  0  0  0  0  0  0  0  0  0  0
   -3.1328    1.6518  -10.7477 H   0  0  0  0  0  0  0  0  0  0  0  0
   -3.1770    2.4797  -13.0992 H   0  0  0  0  0  0  0  0  0  0  0  0
   -3.1629    0.8255  -13.7215 H   0  0  0  0  0  0  0  0  0  0  0  0
   -0.9107    1.4189  -13.9177 H   0  0  0  0  0  0  0  0  0  0  0  0
  1  2  1  0
  2  3  1  0
  3  4  1  0
  4  5  2  0
  5  6  1  0
  6  7  1  0
  7  8  1  0
  6  9  1  0
  9 10  1  0
  6 11  1  0
 11 12  1  0
  5 13  1  0
 13 14  2  0
 14 15  1  0
 14 16  1  0
 16 17  1  0
 17 18  1  0
 18 19  2  0
 19 20  1  0
 20 21  1  0
 21 22  1  0
 22 23  1  0
 22 24  1  0
 22 25  1  0
 21 26  1  0
 26 27  1  0
 27 28  1  0
 28 29  1  0
 29 30  1  0
 29 31  1  0
 29 32  1  0
 18 33  1  0
 33 34  1  0
 34 35  1  0
 35 36  1  0
 36 37  2  0
 37 38  1  0
 38 39  1  0
 39 40  1  0
 38 41  1  0
 41 42  1  0
 38 43  1  0
 43 44  1  0
 37 45  1  0
 45 46  2  0
 46 47  1  0
 46 48  1  0
 48 49  1  0
 49 50  1  0
 50 51  1  0
 51 52  2  0
 52 53  1  0
 53 54  1  0
 54 55  1  0
 53 56  1  0
 56 57  1  0
 53 58  1  0
 58 59  1  0
 52 60  1  0
 60 61  2  0
 61 62  1  0
 61 63  1  0
 63 64  1  0
 64 65  1  0
 65 66  1  0
 66 67  2  0
 67 68  1  0
 68 69  1  0
 69 70  1  0
 68 71  1  0
 71 72  1  0
 68 73  1  0
 73 74  1  0
 67 75  1  0
 75 76  2  0
 76 77  1  0
 76 78  1  0
 78 79  1  0
 79 80  1  0
 80 81  2  0
 81 82  1  0
 82 83  1  0
 83 84  1  0
 84 85  1  0
 84 86  1  0
 84 87  1  0
 83 88  1  0
 88 89  1  0
 89 90  1  0
 90 91  1  0
 91 92  1  0
 91 93  1  0
 91 94  1  0
 12  1  2  0
 20 16  2  0
 44 33  2  0
 59 48  2  0
 74 63  2  0
 82 78  2  0
 11  3  2  0
 28 19  1  0
 43 35  2  0
 58 50  2  0
 73 65  2  0
 90 81  1  0
 15  4  1  0
 47 36  1  0
 62 51  1  0
 77 66  1  0
  1 95  1  0
  7 96  1  0
  7 97  1  0
  8 98  1  0
  8 99  1  0
  8100  1  0
  9101  1  0
  9102  1  0
 10103  1  0
 10104  1  0
 10105  1  0
 12106  1  0
 13107  1  0
 21108  1  6
 26109  1  0
 26110  1  0
 27111  1  0
 27112  1  0
 28113  1  1
 39114  1  0
 39115  1  0
 40116  1  0
 40117  1  0
 40118  1  0
 41119  1  0
 41120  1  0
 42121  1  0
 42122  1  0
 42123  1  0
 44124  1  0
 45125  1  0
 54126  1  0
 54127  1  0
 55128  1  0
 55129  1  0
 55130  1  0
 56131  1  0
 56132  1  0
 57133  1  0
 57134  1  0
 57135  1  0
 59136  1  0
 60137  1  0
 69138  1  0
 69139  1  0
 70140  1  0
 70141  1  0
 70142  1  0
 71143  1  0
 71144  1  0
 72145  1  0
 72146  1  0
 72147  1  0
 74148  1  0
 75149  1  0
 80150  1  0
 83151  1  1
 88152  1  0
 88153  1  0
 89154  1  0
 89155  1  0
 90156  1  6
M  END

