
     RDKit          3D

197217  0  0  0  0  0  0  0  0999 V2000
   11.8227   -2.5176   -5.7622 C   0  0  0  0  0  0  0  0  0  0  0  0
   11.1699   -3.7063   -5.4439 C   0  0  0  0  0  0  0  0  0  0  0  0
   10.3606   -3.6055   -4.3001 C   0  0  0  0  0  0  0  0  0  0  0  0
    9.5667   -4.6295   -3.7371 C   0  0  0  0  0  0  0  0  0  0  0  0
    9.5045   -5.9799   -4.3247 C   0  0  0  0  0  0  0  0  0  0  0  0
    8.1376   -6.6442   -5.0459 S   0  0  0  0  0  0  0  0  0  0  0  0
    8.8610   -8.0969   -5.4941 C   0  0  0  0  0  0  0  0  0  0  0  0
    8.1823   -9.1715   -6.2882 C   0  0  0  0  0  0  0  0  0  0  0  0
    8.3971   -8.9539   -7.7807 C   0  0  0  0  0  0  0  0  0  0  0  0
   10.1973   -8.0723   -5.0972 C   0  0  0  0  0  0  0  0  0  0  0  0
   11.3300   -9.3798   -5.4110 Cl  0  0  0  0  0  0  0  0  0  0  0  0
   10.5549   -6.8883   -4.4340 C   0  0  0  0  0  0  0  0  0  0  0  0
   12.1655   -6.5904   -3.7875 Cl  0  0  0  0  0  0  0  0  0  0  0  0
    8.7912   -4.2872   -2.6147 C   0  0  0  0  0  0  0  0  0  0  0  0
    8.8016   -3.0035   -2.0597 C   0  0  0  0  0  0  0  0  0  0  0  0
    9.6028   -1.9868   -2.6146 C   0  0  0  0  0  0  0  0  0  0  0  0
    9.5997   -0.6209   -2.0674 C   0  0  0  0  0  0  0  0  0  0  0  0
    8.8124    0.6848   -2.7715 S   0  0  0  0  0  0  0  0  0  0  0  0
    9.0743    1.7678   -1.5048 C   0  0  0  0  0  0  0  0  0  0  0  0
    8.4866    3.1487   -1.4234 C   0  0  0  0  0  0  0  0  0  0  0  0
    8.7712    3.9579   -2.6850 C   0  0  0  0  0  0  0  0  0  0  0  0
    9.7568    1.0937   -0.4884 C   0  0  0  0  0  0  0  0  0  0  0  0
   10.0558   -0.2401   -0.8075 C   0  0  0  0  0  0  0  0  0  0  0  0
   10.8883   -1.3391    0.2879 Cl  0  0  0  0  0  0  0  0  0  0  0  0
   10.1623    1.8127    1.0646 Cl  0  0  0  0  0  0  0  0  0  0  0  0
   10.3673   -2.3237   -3.7420 C   0  0  0  0  0  0  0  0  0  0  0  0
   11.3877   -1.3357   -4.6413 S   0  0  0  0  0  0  0  0  0  0  0  0
    7.9218   -2.8607   -0.9773 C   0  0  0  0  0  0  0  0  0  0  0  0
    7.2331   -4.0349   -0.6724 C   0  0  0  0  0  0  0  0  0  0  0  0
    7.7104   -5.2489   -1.7495 S   0  0  0  0  0  0  0  0  0  0  0  0
    6.1643   -4.1570    0.3344 C   0  0  0  0  0  0  0  0  0  0  0  0
    5.6277   -3.0986    1.0700 C   0  0  0  0  0  0  0  0  0  0  0  0
    4.5111   -3.4702    1.8340 C   0  0  0  0  0  0  0  0  0  0  0  0
    3.6854   -2.6000    2.5717 C   0  0  0  0  0  0  0  0  0  0  0  0
    3.9029   -1.1393    2.5952 C   0  0  0  0  0  0  0  0  0  0  0  0
    3.8545   -0.1482    1.2350 S   0  0  0  0  0  0  0  0  0  0  0  0
    4.0561    1.3045    2.0609 C   0  0  0  0  0  0  0  0  0  0  0  0
    4.0212    2.6576    1.4195 C   0  0  0  0  0  0  0  0  0  0  0  0
    2.6051    3.2196    1.4271 C   0  0  0  0  0  0  0  0  0  0  0  0
    4.1298    1.0328    3.4268 C   0  0  0  0  0  0  0  0  0  0  0  0
    4.2864    2.2783    4.6578 Cl  0  0  0  0  0  0  0  0  0  0  0  0
    4.0492   -0.3366    3.7260 C   0  0  0  0  0  0  0  0  0  0  0  0
    4.1562   -0.9752    5.3620 Cl  0  0  0  0  0  0  0  0  0  0  0  0
    2.5494   -3.1692    3.1708 C   0  0  0  0  0  0  0  0  0  0  0  0
    2.2366   -4.5268    3.0817 C   0  0  0  0  0  0  0  0  0  0  0  0
    3.0777   -5.4000    2.3588 C   0  0  0  0  0  0  0  0  0  0  0  0
    2.7345   -6.8192    2.1602 C   0  0  0  0  0  0  0  0  0  0  0  0
    1.3474   -7.3699    1.3855 S   0  0  0  0  0  0  0  0  0  0  0  0
    1.6487   -9.0071    1.6147 C   0  0  0  0  0  0  0  0  0  0  0  0
    0.6956  -10.1013    1.2484 C   0  0  0  0  0  0  0  0  0  0  0  0
   -0.2487  -10.3971    2.4097 C   0  0  0  0  0  0  0  0  0  0  0  0
    2.8436   -9.1459    2.3209 C   0  0  0  0  0  0  0  0  0  0  0  0
    3.4558   -7.9185    2.6197 C   0  0  0  0  0  0  0  0  0  0  0  0
    4.9405   -7.7811    3.5514 Cl  0  0  0  0  0  0  0  0  0  0  0  0
    3.4928  -10.6971    2.8349 Cl  0  0  0  0  0  0  0  0  0  0  0  0
    4.2054   -4.8323    1.7372 C   0  0  0  0  0  0  0  0  0  0  0  0
    5.2823   -5.5607    0.6643 S   0  0  0  0  0  0  0  0  0  0  0  0
    0.9993   -4.8523    3.6802 C   0  0  0  0  0  0  0  0  0  0  0  0
    0.2998   -3.7310    4.1537 C   0  0  0  0  0  0  0  0  0  0  0  0
    1.2777   -2.3727    3.9060 S   0  0  0  0  0  0  0  0  0  0  0  0
   -1.1081   -3.5988    4.6203 C   0  0  0  0  0  0  0  0  0  0  0  0
   -1.7001   -2.0940    5.0494 S   0  0  0  0  0  0  0  0  0  0  0  0
   -3.3229   -2.4664    5.1615 C   0  0  0  0  0  0  0  0  0  0  0  0
   -3.4469   -3.8476    4.9488 C   0  0  0  0  0  0  0  0  0  0  0  0
   -2.2247   -4.4700    4.5630 C   0  0  0  0  0  0  0  0  0  0  0  0
   -2.2239   -5.8774    3.9842 C   0  0  2  0  0  0  0  0  0  0  0  0
   -2.2353   -5.8276    2.4363 C   0  0  0  0  0  0  0  0  0  0  0  0
   -1.1940   -5.0664    1.9394 F   0  0  0  0  0  0  0  0  0  0  0  0
   -3.4232   -5.2770    1.9830 F   0  0  0  0  0  0  0  0  0  0  0  0
   -2.1152   -7.1100    1.9278 F   0  0  0  0  0  0  0  0  0  0  0  0
   -3.4139   -6.7549    4.4803 C   0  0  0  0  0  0  0  0  0  0  0  0
   -4.2785   -6.1035    5.5626 C   0  0  0  0  0  0  0  0  0  0  0  0
   -4.7098   -4.6730    5.1651 C   0  0  1  0  0  0  0  0  0  0  0  0
   -5.6522   -4.1115    6.2678 C   0  0  0  0  0  0  0  0  0  0  0  0
   -6.3304   -2.9961    5.8183 F   0  0  0  0  0  0  0  0  0  0  0  0
   -6.6096   -5.0485    6.6161 F   0  0  0  0  0  0  0  0  0  0  0  0
   -4.9332   -3.7778    7.4027 F   0  0  0  0  0  0  0  0  0  0  0  0
   -4.3064   -1.4162    4.8474 C   0  0  0  0  0  0  0  0  0  0  0  0
   -4.0786   -0.0776    5.1690 C   0  0  0  0  0  0  0  0  0  0  0  0
   -4.6539    0.8239    4.2621 C   0  0  0  0  0  0  0  0  0  0  0  0
   -4.3779    2.2011    4.2071 C   0  0  0  0  0  0  0  0  0  0  0  0
   -3.5217    2.8556    5.2110 C   0  0  0  0  0  0  0  0  0  0  0  0
   -3.9704    3.1464    6.8048 S   0  0  0  0  0  0  0  0  0  0  0  0
   -2.5107    3.8333    7.2764 C   0  0  0  0  0  0  0  0  0  0  0  0
   -2.2329    4.3915    8.6382 C   0  0  0  0  0  0  0  0  0  0  0  0
   -2.4674    5.8980    8.6618 C   0  0  0  0  0  0  0  0  0  0  0  0
   -1.6491    3.8526    6.1812 C   0  0  0  0  0  0  0  0  0  0  0  0
   -0.0220    4.5100    6.2354 Cl  0  0  0  0  0  0  0  0  0  0  0  0
   -2.2124    3.2909    5.0260 C   0  0  0  0  0  0  0  0  0  0  0  0
   -1.3194    3.0831    3.5228 Cl  0  0  0  0  0  0  0  0  0  0  0  0
   -4.8247    2.8917    3.0721 C   0  0  0  0  0  0  0  0  0  0  0  0
   -5.5512    2.2764    2.0484 C   0  0  0  0  0  0  0  0  0  0  0  0
   -5.9035    0.9113    2.1414 C   0  0  0  0  0  0  0  0  0  0  0  0
   -6.7459    0.2572    1.1181 C   0  0  0  0  0  0  0  0  0  0  0  0
   -6.3583   -1.1517    0.2750 S   0  0  0  0  0  0  0  0  0  0  0  0
   -7.7879   -1.2401   -0.6099 C   0  0  0  0  0  0  0  0  0  0  0  0
   -8.1583   -2.3658   -1.5254 C   0  0  0  0  0  0  0  0  0  0  0  0
   -8.9144   -3.4502   -0.7657 C   0  0  0  0  0  0  0  0  0  0  0  0
   -8.6055   -0.1743   -0.2357 C   0  0  0  0  0  0  0  0  0  0  0  0
   -8.0225    0.6648    0.7251 C   0  0  0  0  0  0  0  0  0  0  0  0
   -8.8662    2.0391    1.4268 Cl  0  0  0  0  0  0  0  0  0  0  0  0
  -10.2213    0.0813   -0.8870 Cl  0  0  0  0  0  0  0  0  0  0  0  0
   -5.3904    0.2021    3.2482 C   0  0  0  0  0  0  0  0  0  0  0  0
   -5.2843   -1.4628    3.4668 S   0  0  0  0  0  0  0  0  0  0  0  0
   -5.7156    3.1025    0.9208 C   0  0  0  0  0  0  0  0  0  0  0  0
   -5.1383    4.3657    1.0711 C   0  0  0  0  0  0  0  0  0  0  0  0
   -4.4224    4.4478    2.5963 S   0  0  0  0  0  0  0  0  0  0  0  0
   -4.8310    5.2897   -0.0382 C   0  0  0  0  0  0  0  0  0  0  0  0
   -4.4884    4.7515   -1.5880 S   0  0  0  0  0  0  0  0  0  0  0  0
   -3.9433    6.2076   -2.2102 C   0  0  0  0  0  0  0  0  0  0  0  0
   -4.0381    7.1802   -1.2009 C   0  0  0  0  0  0  0  0  0  0  0  0
   -4.5443    6.6639    0.0213 C   0  0  0  0  0  0  0  0  0  0  0  0
   -4.9030    7.5600    1.1967 C   0  0  2  0  0  0  0  0  0  0  0  0
   -6.4365    7.7622    1.2784 C   0  0  0  0  0  0  0  0  0  0  0  0
   -6.9429    8.2282    0.0790 F   0  0  0  0  0  0  0  0  0  0  0  0
   -7.0558    6.5634    1.5763 F   0  0  0  0  0  0  0  0  0  0  0  0
   -6.7541    8.6627    2.2786 F   0  0  0  0  0  0  0  0  0  0  0  0
   -4.1332    8.8982    1.1437 C   0  0  0  0  0  0  0  0  0  0  0  0
   -4.1445    9.5267   -0.2542 C   0  0  0  0  0  0  0  0  0  0  0  0
   -3.5082    8.6047   -1.3194 C   0  0  1  0  0  0  0  0  0  0  0  0
   -1.9589    8.6314   -1.2695 C   0  0  0  0  0  0  0  0  0  0  0  0
   -1.4947    9.9351   -1.1863 F   0  0  0  0  0  0  0  0  0  0  0  0
   -1.4392    8.0778   -2.4224 F   0  0  0  0  0  0  0  0  0  0  0  0
   -1.4817    7.9175   -0.1833 F   0  0  0  0  0  0  0  0  0  0  0  0
   -3.4439    6.3797   -3.5908 C   0  0  0  0  0  0  0  0  0  0  0  0
   -3.9379    7.6168   -4.6144 S   0  0  0  0  0  0  0  0  0  0  0  0
   -3.0081    7.1801   -5.9363 C   0  0  0  0  0  0  0  0  0  0  0  0
   -2.2971    6.0300   -5.6096 C   0  0  0  0  0  0  0  0  0  0  0  0
   -2.5345    5.5678   -4.2925 C   0  0  0  0  0  0  0  0  0  0  0  0
   -1.7692    4.3904   -3.7026 C   0  0  2  0  0  0  0  0  0  0  0  0
   -0.6639    4.8619   -2.7254 C   0  0  0  0  0  0  0  0  0  0  0  0
   -1.2356    5.3616   -1.5708 F   0  0  0  0  0  0  0  0  0  0  0  0
    0.1530    3.8050   -2.3627 F   0  0  0  0  0  0  0  0  0  0  0  0
    0.1150    5.8534   -3.2955 F   0  0  0  0  0  0  0  0  0  0  0  0
   -1.2105    3.4823   -4.8251 C   0  0  0  0  0  0  0  0  0  0  0  0
   -0.4960    4.2797   -5.9247 C   0  0  0  0  0  0  0  0  0  0  0  0
   -1.4275    5.3033   -6.6159 C   0  0  1  0  0  0  0  0  0  0  0  0
   -2.2916    4.6586   -7.7275 C   0  0  0  0  0  0  0  0  0  0  0  0
   -2.9337    5.6409   -8.4597 F   0  0  0  0  0  0  0  0  0  0  0  0
   -1.4968    3.9328   -8.5978 F   0  0  0  0  0  0  0  0  0  0  0  0
   -3.2483    3.8195   -7.1845 F   0  0  0  0  0  0  0  0  0  0  0  0
   12.4907   -2.3763   -6.5995 H   0  0  0  0  0  0  0  0  0  0  0  0
   11.2772   -4.6059   -6.0334 H   0  0  0  0  0  0  0  0  0  0  0  0
    7.0929   -9.1610   -6.0690 H   0  0  0  0  0  0  0  0  0  0  0  0
    8.5788  -10.1688   -5.9963 H   0  0  0  0  0  0  0  0  0  0  0  0
    9.4798   -8.9932   -8.0269 H   0  0  0  0  0  0  0  0  0  0  0  0
    7.8737   -9.7476   -8.3522 H   0  0  0  0  0  0  0  0  0  0  0  0
    7.9888   -7.9665   -8.0923 H   0  0  0  0  0  0  0  0  0  0  0  0
    8.9092    3.6979   -0.5555 H   0  0  0  0  0  0  0  0  0  0  0  0
    7.3880    3.0662   -1.2750 H   0  0  0  0  0  0  0  0  0  0  0  0
    8.3953    4.9943   -2.5573 H   0  0  0  0  0  0  0  0  0  0  0  0
    8.2509    3.5067   -3.5588 H   0  0  0  0  0  0  0  0  0  0  0  0
    9.8636    3.9973   -2.8864 H   0  0  0  0  0  0  0  0  0  0  0  0
    7.7744   -1.9281   -0.4489 H   0  0  0  0  0  0  0  0  0  0  0  0
    6.0072   -2.0881    1.0201 H   0  0  0  0  0  0  0  0  0  0  0  0
    4.7014    3.3524    1.9599 H   0  0  0  0  0  0  0  0  0  0  0  0
    4.3785    2.5785    0.3712 H   0  0  0  0  0  0  0  0  0  0  0  0
    2.5947    4.2063    0.9157 H   0  0  0  0  0  0  0  0  0  0  0  0
    2.2463    3.3557    2.4704 H   0  0  0  0  0  0  0  0  0  0  0  0
    1.9146    2.5351    0.8881 H   0  0  0  0  0  0  0  0  0  0  0  0
    0.1016   -9.7947    0.3616 H   0  0  0  0  0  0  0  0  0  0  0  0
    1.2551  -11.0220    0.9814 H   0  0  0  0  0  0  0  0  0  0  0  0
   -0.8259   -9.4872    2.6800 H   0  0  0  0  0  0  0  0  0  0  0  0
   -0.9618  -11.1967    2.1163 H   0  0  0  0  0  0  0  0  0  0  0  0
    0.3276  -10.7396    3.2957 H   0  0  0  0  0  0  0  0  0  0  0  0
    0.6285   -5.8577    3.7078 H   0  0  0  0  0  0  0  0  0  0  0  0
   -1.3090   -6.3899    4.3310 H   0  0  0  0  0  0  0  0  0  0  0  0
   -3.0169   -7.7171    4.8853 H   0  0  0  0  0  0  0  0  0  0  0  0
   -4.0900   -7.0382    3.6422 H   0  0  0  0  0  0  0  0  0  0  0  0
   -3.7044   -6.0782    6.5170 H   0  0  0  0  0  0  0  0  0  0  0  0
   -5.1662   -6.7544    5.7214 H   0  0  0  0  0  0  0  0  0  0  0  0
   -5.2750   -4.7219    4.2068 H   0  0  0  0  0  0  0  0  0  0  0  0
   -3.3713    0.2217    5.9314 H   0  0  0  0  0  0  0  0  0  0  0  0
   -1.1866    4.1688    8.9290 H   0  0  0  0  0  0  0  0  0  0  0  0
   -2.9012    3.9079    9.3800 H   0  0  0  0  0  0  0  0  0  0  0  0
   -3.5296    6.1263    8.4394 H   0  0  0  0  0  0  0  0  0  0  0  0
   -2.2229    6.2973    9.6682 H   0  0  0  0  0  0  0  0  0  0  0  0
   -1.8207    6.4035    7.9145 H   0  0  0  0  0  0  0  0  0  0  0  0
   -8.7914   -1.9840   -2.3553 H   0  0  0  0  0  0  0  0  0  0  0  0
   -7.2384   -2.8003   -1.9710 H   0  0  0  0  0  0  0  0  0  0  0  0
   -9.8223   -3.0271   -0.2829 H   0  0  0  0  0  0  0  0  0  0  0  0
   -9.2302   -4.2507   -1.4687 H   0  0  0  0  0  0  0  0  0  0  0  0
   -8.2636   -3.8959    0.0165 H   0  0  0  0  0  0  0  0  0  0  0  0
   -6.1581    2.7660   -0.0087 H   0  0  0  0  0  0  0  0  0  0  0  0
   -4.5884    7.0760    2.1403 H   0  0  0  0  0  0  0  0  0  0  0  0
   -3.0846    8.7256    1.4625 H   0  0  0  0  0  0  0  0  0  0  0  0
   -4.5502    9.6256    1.8714 H   0  0  0  0  0  0  0  0  0  0  0  0
   -3.6192   10.5047   -0.2160 H   0  0  0  0  0  0  0  0  0  0  0  0
   -5.1872    9.7628   -0.5505 H   0  0  0  0  0  0  0  0  0  0  0  0
   -3.8139    9.0243   -2.2980 H   0  0  0  0  0  0  0  0  0  0  0  0
   -2.9802    7.7027   -6.8843 H   0  0  0  0  0  0  0  0  0  0  0  0
   -2.4722    3.7552   -3.1281 H   0  0  0  0  0  0  0  0  0  0  0  0
   -2.0447    2.9029   -5.2712 H   0  0  0  0  0  0  0  0  0  0  0  0
   -0.5115    2.7264   -4.4102 H   0  0  0  0  0  0  0  0  0  0  0  0
    0.3726    4.8149   -5.4854 H   0  0  0  0  0  0  0  0  0  0  0  0
   -0.0707    3.5676   -6.6644 H   0  0  0  0  0  0  0  0  0  0  0  0
   -0.7739    6.0569   -7.1064 H   0  0  0  0  0  0  0  0  0  0  0  0
  1  2  2  0
  2  3  1  0
  3  4  2  0
  4  5  1  0
  5  6  1  0
  6  7  1  0
  7  8  1  0
  8  9  1  0
  7 10  2  0
 10 11  1  0
 10 12  1  0
 12 13  1  0
  4 14  1  0
 14 15  2  0
 15 16  1  0
 16 17  1  0
 17 18  1  0
 18 19  1  0
 19 20  1  0
 20 21  1  0
 19 22  2  0
 22 23  1  0
 23 24  1  0
 22 25  1  0
 16 26  2  0
 26 27  1  0
 15 28  1  0
 28 29  2  0
 29 30  1  0
 29 31  1  0
 31 32  2  0
 32 33  1  0
 33 34  2  0
 34 35  1  0
 35 36  1  0
 36 37  1  0
 37 38  1  0
 38 39  1  0
 37 40  2  0
 40 41  1  0
 40 42  1  0
 42 43  1  0
 34 44  1  0
 44 45  2  0
 45 46  1  0
 46 47  1  0
 47 48  1  0
 48 49  1  0
 49 50  1  0
 50 51  1  0
 49 52  2  0
 52 53  1  0
 53 54  1  0
 52 55  1  0
 46 56  2  0
 56 57  1  0
 45 58  1  0
 58 59  2  0
 59 60  1  0
 59 61  1  0
 61 62  1  0
 62 63  1  0
 63 64  2  0
 64 65  1  0
 65 66  1  0
 66 67  1  0
 67 68  1  0
 67 69  1  0
 67 70  1  0
 66 71  1  0
 71 72  1  0
 72 73  1  0
 73 74  1  0
 74 75  1  0
 74 76  1  0
 74 77  1  0
 63 78  1  0
 78 79  2  0
 79 80  1  0
 80 81  2  0
 81 82  1  0
 82 83  1  0
 83 84  1  0
 84 85  1  0
 85 86  1  0
 84 87  2  0
 87 88  1  0
 87 89  1  0
 89 90  1  0
 81 91  1  0
 91 92  2  0
 92 93  1  0
 93 94  1  0
 94 95  1  0
 95 96  1  0
 96 97  1  0
 97 98  1  0
 96 99  2  0
 99100  1  0
100101  1  0
 99102  1  0
 93103  2  0
103104  1  0
 92105  1  0
105106  2  0
106107  1  0
106108  1  0
108109  1  0
109110  1  0
110111  2  0
111112  1  0
112113  1  0
113114  1  0
114115  1  0
114116  1  0
114117  1  0
113118  1  0
118119  1  0
119120  1  0
120121  1  0
121122  1  0
121123  1  0
121124  1  0
110125  1  0
125126  1  0
126127  1  0
127128  2  0
128129  1  0
129130  1  0
130131  1  0
131132  1  0
131133  1  0
131134  1  0
130135  1  0
135136  1  0
136137  1  0
137138  1  0
138139  1  0
138140  1  0
138141  1  0
 27  1  1  0
 57 31  1  0
 65 61  2  0
104 78  1  0
112108  2  0
129125  2  0
 26  3  1  0
 56 33  1  0
 73 64  1  0
103 80  1  0
120111  1  0
137128  1  0
 12  5  2  0
 30 14  1  0
 42 35  2  0
 60 44  1  0
 89 82  2  0
107 91  1  0
 23 17  2  0
 53 47  2  0
100 94  2  0
  1142  1  0
  2143  1  0
  8144  1  0
  8145  1  0
  9146  1  0
  9147  1  0
  9148  1  0
 20149  1  0
 20150  1  0
 21151  1  0
 21152  1  0
 21153  1  0
 28154  1  0
 32155  1  0
 38156  1  0
 38157  1  0
 39158  1  0
 39159  1  0
 39160  1  0
 50161  1  0
 50162  1  0
 51163  1  0
 51164  1  0
 51165  1  0
 58166  1  0
 66167  1  6
 71168  1  0
 71169  1  0
 72170  1  0
 72171  1  0
 73172  1  6
 79173  1  0
 85174  1  0
 85175  1  0
 86176  1  0
 86177  1  0
 86178  1  0
 97179  1  0
 97180  1  0
 98181  1  0
 98182  1  0
 98183  1  0
105184  1  0
113185  1  1
118186  1  0
118187  1  0
119188  1  0
119189  1  0
120190  1  6
127191  1  0
130192  1  1
135193  1  0
135194  1  0
136195  1  0
136196  1  0
137197  1  6
M  END

