
     RDKit          3D

236257  0  0  0  0  0  0  0  0999 V2000
    2.2388   -0.0587   10.0908 C   0  0  0  0  0  0  0  0  0  0  0  0
    1.5516    1.0294    9.5602 C   0  0  0  0  0  0  0  0  0  0  0  0
    0.4797    0.6577    8.7267 C   0  0  0  0  0  0  0  0  0  0  0  0
   -0.3791    1.5304    8.0154 C   0  0  0  0  0  0  0  0  0  0  0  0
   -0.1887    2.9991    8.0194 C   0  0  0  0  0  0  0  0  0  0  0  0
    1.0382    3.5535    7.6243 C   0  0  0  0  0  0  0  0  0  0  0  0
    1.2139    4.9402    7.6082 C   0  0  0  0  0  0  0  0  0  0  0  0
    0.1553    5.7878    7.9540 C   0  0  0  0  0  0  0  0  0  0  0  0
    0.3735    7.5677    7.8891 S   0  0  0  0  0  0  0  0  0  0  0  0
   -0.0045    7.7234    6.1061 C   0  0  0  0  0  0  0  0  0  0  0  0
    1.2865    7.7579    5.2931 C   0  0  0  0  0  0  0  0  0  0  0  0
   -1.0727    5.2391    8.3547 C   0  0  0  0  0  0  0  0  0  0  0  0
   -2.1004    6.0493    8.7115 F   0  0  0  0  0  0  0  0  0  0  0  0
   -1.2412    3.8528    8.3933 C   0  0  0  0  0  0  0  0  0  0  0  0
   -1.4075    0.9315    7.2595 C   0  0  0  0  0  0  0  0  0  0  0  0
   -1.5786   -0.4544    7.1994 C   0  0  0  0  0  0  0  0  0  0  0  0
   -0.6987   -1.3266    7.8722 C   0  0  0  0  0  0  0  0  0  0  0  0
   -0.7908   -2.7974    7.7163 C   0  0  0  0  0  0  0  0  0  0  0  0
   -0.6938   -3.3734    6.4397 C   0  0  0  0  0  0  0  0  0  0  0  0
   -0.8330   -4.7529    6.2752 C   0  0  0  0  0  0  0  0  0  0  0  0
   -1.0556   -5.5723    7.3852 C   0  0  0  0  0  0  0  0  0  0  0  0
   -1.2325   -7.3421    7.1531 S   0  0  0  0  0  0  0  0  0  0  0  0
    0.5600   -7.6564    7.2998 C   0  0  0  0  0  0  0  0  0  0  0  0
    0.8687   -9.0857    6.8812 C   0  0  0  0  0  0  0  0  0  0  0  0
   -1.1385   -5.0069    8.6659 C   0  0  0  0  0  0  0  0  0  0  0  0
   -1.0114   -3.6231    8.8301 C   0  0  0  0  0  0  0  0  0  0  0  0
   -1.3521   -5.7934    9.7490 F   0  0  0  0  0  0  0  0  0  0  0  0
    0.3142   -0.7286    8.6430 C   0  0  0  0  0  0  0  0  0  0  0  0
    1.5153   -1.4800    9.5508 S   0  0  0  0  0  0  0  0  0  0  0  0
   -2.6531   -0.8434    6.3910 C   0  0  0  0  0  0  0  0  0  0  0  0
   -3.2894    0.2264    5.7591 C   0  0  0  0  0  0  0  0  0  0  0  0
   -2.5382    1.6611    6.2390 S   0  0  0  0  0  0  0  0  0  0  0  0
   -4.2825    0.0788    4.6744 C   0  0  0  0  0  0  0  0  0  0  0  0
   -4.6899   -1.1520    4.1689 C   0  0  0  0  0  0  0  0  0  0  0  0
   -5.3231   -1.0597    2.9250 C   0  0  0  0  0  0  0  0  0  0  0  0
   -5.6155   -2.1484    2.0796 C   0  0  0  0  0  0  0  0  0  0  0  0
   -5.2449   -3.5375    2.4409 C   0  0  0  0  0  0  0  0  0  0  0  0
   -3.9039   -3.8666    2.7089 C   0  0  0  0  0  0  0  0  0  0  0  0
   -3.5619   -5.1641    3.0992 C   0  0  0  0  0  0  0  0  0  0  0  0
   -4.5447   -6.1542    3.1874 C   0  0  0  0  0  0  0  0  0  0  0  0
   -4.0890   -7.8140    3.7025 S   0  0  0  0  0  0  0  0  0  0  0  0
   -3.4452   -8.3222    2.0682 C   0  0  0  0  0  0  0  0  0  0  0  0
   -4.5733   -8.6883    1.1122 C   0  0  0  0  0  0  0  0  0  0  0  0
   -5.8783   -5.8394    2.8923 C   0  0  0  0  0  0  0  0  0  0  0  0
   -6.8406   -6.7903    2.9742 F   0  0  0  0  0  0  0  0  0  0  0  0
   -6.2270   -4.5354    2.5244 C   0  0  0  0  0  0  0  0  0  0  0  0
   -6.0964   -1.8405    0.7984 C   0  0  0  0  0  0  0  0  0  0  0  0
   -6.3034   -0.5257    0.3655 C   0  0  0  0  0  0  0  0  0  0  0  0
   -6.0316    0.5657    1.2254 C   0  0  0  0  0  0  0  0  0  0  0  0
   -6.1999    1.9724    0.7958 C   0  0  0  0  0  0  0  0  0  0  0  0
   -5.4711    2.4855   -0.2908 C   0  0  0  0  0  0  0  0  0  0  0  0
   -5.6740    3.8026   -0.7156 C   0  0  0  0  0  0  0  0  0  0  0  0
   -6.6005    4.6208   -0.0561 C   0  0  0  0  0  0  0  0  0  0  0  0
   -6.8910    6.2961   -0.6307 S   0  0  0  0  0  0  0  0  0  0  0  0
   -8.3325    5.8680   -1.6696 C   0  0  0  0  0  0  0  0  0  0  0  0
   -7.8873    5.3660   -3.0354 C   0  0  0  0  0  0  0  0  0  0  0  0
   -7.2956    4.1264    1.0569 C   0  0  0  0  0  0  0  0  0  0  0  0
   -7.0975    2.8070    1.4780 C   0  0  0  0  0  0  0  0  0  0  0  0
   -8.1839    4.9135    1.7160 F   0  0  0  0  0  0  0  0  0  0  0  0
   -5.5162    0.2564    2.4988 C   0  0  0  0  0  0  0  0  0  0  0  0
   -4.8039    1.2979    3.6223 S   0  0  0  0  0  0  0  0  0  0  0  0
   -6.6090   -0.4445   -1.0038 C   0  0  0  0  0  0  0  0  0  0  0  0
   -6.5238   -1.6731   -1.6673 C   0  0  0  0  0  0  0  0  0  0  0  0
   -6.1955   -2.8696   -0.5218 S   0  0  0  0  0  0  0  0  0  0  0  0
   -6.1755   -1.7943   -3.0931 C   0  0  0  0  0  0  0  0  0  0  0  0
   -5.3448   -2.8019   -3.5918 C   0  0  0  0  0  0  0  0  0  0  0  0
   -4.6032   -2.4098   -4.7204 C   0  0  0  0  0  0  0  0  0  0  0  0
   -3.4917   -3.0951   -5.2620 C   0  0  0  0  0  0  0  0  0  0  0  0
   -3.0587   -4.4168   -4.7520 C   0  0  0  0  0  0  0  0  0  0  0  0
   -3.0907   -5.5332   -5.5995 C   0  0  0  0  0  0  0  0  0  0  0  0
   -2.7057   -6.7893   -5.1206 C   0  0  0  0  0  0  0  0  0  0  0  0
   -2.2733   -6.9377   -3.7968 C   0  0  0  0  0  0  0  0  0  0  0  0
   -1.8438   -8.5681   -3.1675 S   0  0  0  0  0  0  0  0  0  0  0  0
   -0.0538   -8.4219   -3.5087 C   0  0  0  0  0  0  0  0  0  0  0  0
    0.2589   -8.7990   -4.9497 C   0  0  0  0  0  0  0  0  0  0  0  0
   -2.2168   -5.8181   -2.9538 C   0  0  0  0  0  0  0  0  0  0  0  0
   -1.8115   -5.9488   -1.6656 F   0  0  0  0  0  0  0  0  0  0  0  0
   -2.6030   -4.5619   -3.4324 C   0  0  0  0  0  0  0  0  0  0  0  0
   -2.6945   -2.3873   -6.1761 C   0  0  0  0  0  0  0  0  0  0  0  0
   -2.9901   -1.0803   -6.5745 C   0  0  0  0  0  0  0  0  0  0  0  0
   -4.1484   -0.4314   -6.1038 C   0  0  0  0  0  0  0  0  0  0  0  0
   -4.4110    0.9905   -6.4097 C   0  0  0  0  0  0  0  0  0  0  0  0
   -4.1917    1.9794   -5.4350 C   0  0  0  0  0  0  0  0  0  0  0  0
   -4.4552    3.3192   -5.7262 C   0  0  0  0  0  0  0  0  0  0  0  0
   -4.9293    3.6840   -6.9937 C   0  0  0  0  0  0  0  0  0  0  0  0
   -5.2741    5.4085   -7.3515 S   0  0  0  0  0  0  0  0  0  0  0  0
   -6.9979    5.3104   -6.7620 C   0  0  0  0  0  0  0  0  0  0  0  0
   -7.6613    6.6766   -6.8530 C   0  0  0  0  0  0  0  0  0  0  0  0
   -5.1288    2.7000   -7.9740 C   0  0  0  0  0  0  0  0  0  0  0  0
   -4.8700    1.3572   -7.6809 C   0  0  0  0  0  0  0  0  0  0  0  0
   -5.5801    3.0393   -9.2072 F   0  0  0  0  0  0  0  0  0  0  0  0
   -4.9194   -1.1191   -5.1546 C   0  0  0  0  0  0  0  0  0  0  0  0
   -6.0780   -0.4680   -4.1277 S   0  0  0  0  0  0  0  0  0  0  0  0
   -1.9062   -0.4311   -7.1884 C   0  0  0  0  0  0  0  0  0  0  0  0
   -0.7277   -1.1803   -7.1895 C   0  0  0  0  0  0  0  0  0  0  0  0
   -1.0891   -2.7015   -6.5535 S   0  0  0  0  0  0  0  0  0  0  0  0
    0.5297   -0.5379   -6.8059 C   0  0  0  0  0  0  0  0  0  0  0  0
    0.6273    0.2095   -5.6369 C   0  0  0  0  0  0  0  0  0  0  0  0
    1.9444    0.4160   -5.2226 C   0  0  0  0  0  0  0  0  0  0  0  0
    2.3257    1.0407   -4.0240 C   0  0  0  0  0  0  0  0  0  0  0  0
    1.3284    1.4862   -3.0287 C   0  0  0  0  0  0  0  0  0  0  0  0
    0.6401    0.5378   -2.2556 C   0  0  0  0  0  0  0  0  0  0  0  0
   -0.3358    0.9513   -1.3421 C   0  0  0  0  0  0  0  0  0  0  0  0
   -0.6253    2.3115   -1.1896 C   0  0  0  0  0  0  0  0  0  0  0  0
   -1.9170    2.8246   -0.0498 S   0  0  0  0  0  0  0  0  0  0  0  0
   -0.8452    2.8825    1.4284 C   0  0  0  0  0  0  0  0  0  0  0  0
   -0.0524    4.1843    1.4819 C   0  0  0  0  0  0  0  0  0  0  0  0
    0.0523    3.2596   -1.9708 C   0  0  0  0  0  0  0  0  0  0  0  0
   -0.2496    4.5775   -1.8678 F   0  0  0  0  0  0  0  0  0  0  0  0
    1.0344    2.8484   -2.8800 C   0  0  0  0  0  0  0  0  0  0  0  0
    3.6983    1.1071   -3.7576 C   0  0  0  0  0  0  0  0  0  0  0  0
    4.6639    0.5841   -4.6246 C   0  0  0  0  0  0  0  0  0  0  0  0
    4.2777   -0.0506   -5.8298 C   0  0  0  0  0  0  0  0  0  0  0  0
    5.2765   -0.5939   -6.7781 C   0  0  0  0  0  0  0  0  0  0  0  0
    6.2457    0.2519   -7.3427 C   0  0  0  0  0  0  0  0  0  0  0  0
    7.1960   -0.2593   -8.2304 C   0  0  0  0  0  0  0  0  0  0  0  0
    7.1792   -1.6159   -8.5764 C   0  0  0  0  0  0  0  0  0  0  0  0
    8.4145   -2.2633   -9.7078 S   0  0  0  0  0  0  0  0  0  0  0  0
    7.5288   -1.7854  -11.2346 C   0  0  0  0  0  0  0  0  0  0  0  0
    6.3883   -2.7495  -11.5389 C   0  0  0  0  0  0  0  0  0  0  0  0
    6.2192   -2.4644   -8.0090 C   0  0  0  0  0  0  0  0  0  0  0  0
    5.2717   -1.9564   -7.1150 C   0  0  0  0  0  0  0  0  0  0  0  0
    6.2060   -3.7867   -8.3160 F   0  0  0  0  0  0  0  0  0  0  0  0
    2.8930   -0.1386   -6.0853 C   0  0  0  0  0  0  0  0  0  0  0  0
    2.0831   -0.9445   -7.3339 S   0  0  0  0  0  0  0  0  0  0  0  0
    5.9665    0.6620   -4.0958 C   0  0  0  0  0  0  0  0  0  0  0  0
    6.0019    1.2571   -2.8340 C   0  0  0  0  0  0  0  0  0  0  0  0
    4.4361    1.6494   -2.3544 S   0  0  0  0  0  0  0  0  0  0  0  0
    7.1442    1.2885   -1.9164 C   0  0  0  0  0  0  0  0  0  0  0  0
    7.0190    0.9813   -0.6491 O   0  0  0  0  0  0  0  0  0  0  0  0
    8.1888    1.0865   -0.0650 C   0  0  0  0  0  0  0  0  0  0  0  0
    9.1408    1.4936   -0.9799 C   0  0  0  0  0  0  0  0  0  0  0  0
    8.4674    1.6210   -2.1838 C   0  0  0  0  0  0  0  0  0  0  0  0
    9.0540    2.1000   -3.4500 C   0  0  0  0  0  0  0  0  0  0  0  0
   10.3068    2.1865   -3.5620 O   0  0  0  0  0  0  0  0  0  0  0  0
    8.2270    2.4796   -4.5090 O   0  0  0  0  0  0  0  0  0  0  0  0
    8.7330    2.9286   -5.7609 C   0  0  0  0  0  0  0  0  0  0  0  0
    8.4137    0.8027    1.3594 C   0  0  0  0  0  0  0  0  0  0  0  0
    7.5092    0.1034    2.0561 C   0  0  0  0  0  0  0  0  0  0  0  0
    7.5968   -0.1739    3.5038 C   0  0  0  0  0  0  0  0  0  0  0  0
    6.5111   -0.3620    4.2213 O   0  0  0  0  0  0  0  0  0  0  0  0
    6.8521   -0.5726    5.4715 C   0  0  0  0  0  0  0  0  0  0  0  0
    8.2325   -0.5168    5.5982 C   0  0  0  0  0  0  0  0  0  0  0  0
    8.7165   -0.2820    4.3251 C   0  0  0  0  0  0  0  0  0  0  0  0
   10.1413   -0.3116    3.9586 C   0  0  0  0  0  0  0  0  0  0  0  0
   11.0052    0.0638    4.7973 O   0  0  0  0  0  0  0  0  0  0  0  0
   10.5364   -0.8064    2.7122 O   0  0  0  0  0  0  0  0  0  0  0  0
   11.8948   -0.8130    2.2874 C   0  0  0  0  0  0  0  0  0  0  0  0
    5.8623   -0.8390    6.5343 C   0  0  0  0  0  0  0  0  0  0  0  0
    6.1990   -1.1951    7.7702 C   0  0  0  0  0  0  0  0  0  0  0  0
    3.0960   -0.0010   10.7475 H   0  0  0  0  0  0  0  0  0  0  0  0
    1.8313    2.0503    9.7781 H   0  0  0  0  0  0  0  0  0  0  0  0
    1.8596    2.9144    7.3244 H   0  0  0  0  0  0  0  0  0  0  0  0
    2.1713    5.3529    7.3172 H   0  0  0  0  0  0  0  0  0  0  0  0
   -0.6541    6.8942    5.7506 H   0  0  0  0  0  0  0  0  0  0  0  0
   -0.5524    8.6750    5.9481 H   0  0  0  0  0  0  0  0  0  0  0  0
    1.0475    7.9084    4.2182 H   0  0  0  0  0  0  0  0  0  0  0  0
    1.8427    6.8047    5.4045 H   0  0  0  0  0  0  0  0  0  0  0  0
    1.9276    8.5983    5.6362 H   0  0  0  0  0  0  0  0  0  0  0  0
   -2.1905    3.4415    8.7106 H   0  0  0  0  0  0  0  0  0  0  0  0
   -0.5193   -2.7540    5.5670 H   0  0  0  0  0  0  0  0  0  0  0  0
   -0.7636   -5.1855    5.2844 H   0  0  0  0  0  0  0  0  0  0  0  0
    0.8671   -7.5075    8.3552 H   0  0  0  0  0  0  0  0  0  0  0  0
    1.1284   -6.9539    6.6533 H   0  0  0  0  0  0  0  0  0  0  0  0
    0.3117   -9.8065    7.5177 H   0  0  0  0  0  0  0  0  0  0  0  0
    0.5894   -9.2358    5.8185 H   0  0  0  0  0  0  0  0  0  0  0  0
    1.9606   -9.2765    6.9843 H   0  0  0  0  0  0  0  0  0  0  0  0
   -1.1019   -3.1938    9.8196 H   0  0  0  0  0  0  0  0  0  0  0  0
   -2.9269   -1.8754    6.2355 H   0  0  0  0  0  0  0  0  0  0  0  0
   -4.4546   -2.0912    4.6414 H   0  0  0  0  0  0  0  0  0  0  0  0
   -3.1276   -3.1150    2.6299 H   0  0  0  0  0  0  0  0  0  0  0  0
   -2.5271   -5.3999    3.3172 H   0  0  0  0  0  0  0  0  0  0  0  0
   -2.7936   -9.2115    2.2121 H   0  0  0  0  0  0  0  0  0  0  0  0
   -2.8257   -7.5149    1.6248 H   0  0  0  0  0  0  0  0  0  0  0  0
   -5.2198   -9.4721    1.5617 H   0  0  0  0  0  0  0  0  0  0  0  0
   -4.1396   -9.0800    0.1667 H   0  0  0  0  0  0  0  0  0  0  0  0
   -5.1885   -7.7955    0.8733 H   0  0  0  0  0  0  0  0  0  0  0  0
   -7.2631   -4.2998    2.3112 H   0  0  0  0  0  0  0  0  0  0  0  0
   -4.7552    1.8640   -0.8158 H   0  0  0  0  0  0  0  0  0  0  0  0
   -5.1207    4.1823   -1.5651 H   0  0  0  0  0  0  0  0  0  0  0  0
   -8.9690    5.1022   -1.1736 H   0  0  0  0  0  0  0  0  0  0  0  0
   -8.9479    6.7813   -1.8112 H   0  0  0  0  0  0  0  0  0  0  0  0
   -7.2679    6.1406   -3.5396 H   0  0  0  0  0  0  0  0  0  0  0  0
   -7.2989    4.4309   -2.9348 H   0  0  0  0  0  0  0  0  0  0  0  0
   -8.7770    5.1514   -3.6638 H   0  0  0  0  0  0  0  0  0  0  0  0
   -7.6589    2.4287    2.3239 H   0  0  0  0  0  0  0  0  0  0  0  0
   -6.7301    0.4923   -1.5300 H   0  0  0  0  0  0  0  0  0  0  0  0
   -5.1623   -3.7216   -3.0544 H   0  0  0  0  0  0  0  0  0  0  0  0
   -3.4236   -5.4336   -6.6247 H   0  0  0  0  0  0  0  0  0  0  0  0
   -2.7482   -7.6465   -5.7781 H   0  0  0  0  0  0  0  0  0  0  0  0
    0.4829   -9.1157   -2.8282 H   0  0  0  0  0  0  0  0  0  0  0  0
    0.3098   -7.3926   -3.2976 H   0  0  0  0  0  0  0  0  0  0  0  0
    1.3597   -8.8075   -5.0985 H   0  0  0  0  0  0  0  0  0  0  0  0
   -0.1847   -8.0618   -5.6515 H   0  0  0  0  0  0  0  0  0  0  0  0
   -0.1365   -9.8121   -5.1814 H   0  0  0  0  0  0  0  0  0  0  0  0
   -2.5601   -3.7051   -2.7756 H   0  0  0  0  0  0  0  0  0  0  0  0
   -3.8189    1.7098   -4.4515 H   0  0  0  0  0  0  0  0  0  0  0  0
   -4.3013    4.0721   -4.9650 H   0  0  0  0  0  0  0  0  0  0  0  0
   -7.5642    4.5857   -7.3865 H   0  0  0  0  0  0  0  0  0  0  0  0
   -7.0117    4.9615   -5.7086 H   0  0  0  0  0  0  0  0  0  0  0  0
   -8.7021    6.6127   -6.4671 H   0  0  0  0  0  0  0  0  0  0  0  0
   -7.6894    7.0168   -7.9093 H   0  0  0  0  0  0  0  0  0  0  0  0
   -7.1008    7.4200   -6.2436 H   0  0  0  0  0  0  0  0  0  0  0  0
   -5.0330    0.6010   -8.4386 H   0  0  0  0  0  0  0  0  0  0  0  0
   -1.9052    0.6356   -7.3940 H   0  0  0  0  0  0  0  0  0  0  0  0
   -0.2363    0.5193   -5.0613 H   0  0  0  0  0  0  0  0  0  0  0  0
    0.8504   -0.5184   -2.3715 H   0  0  0  0  0  0  0  0  0  0  0  0
   -0.8689    0.2101   -0.7604 H   0  0  0  0  0  0  0  0  0  0  0  0
   -1.4991    2.8287    2.3255 H   0  0  0  0  0  0  0  0  0  0  0  0
   -0.1531    2.0103    1.4550 H   0  0  0  0  0  0  0  0  0  0  0  0
   -0.7407    5.0540    1.3908 H   0  0  0  0  0  0  0  0  0  0  0  0
    0.6999    4.2214    0.6674 H   0  0  0  0  0  0  0  0  0  0  0  0
    0.4781    4.2545    2.4568 H   0  0  0  0  0  0  0  0  0  0  0  0
    1.5474    3.5864   -3.4857 H   0  0  0  0  0  0  0  0  0  0  0  0
    6.2631    1.3077   -7.0938 H   0  0  0  0  0  0  0  0  0  0  0  0
    7.9405    0.4031   -8.6558 H   0  0  0  0  0  0  0  0  0  0  0  0
    7.1379   -0.7472  -11.1520 H   0  0  0  0  0  0  0  0  0  0  0  0
    8.2538   -1.8166  -12.0747 H   0  0  0  0  0  0  0  0  0  0  0  0
    5.9630   -2.5128  -12.5378 H   0  0  0  0  0  0  0  0  0  0  0  0
    5.5820   -2.6493  -10.7834 H   0  0  0  0  0  0  0  0  0  0  0  0
    6.7624   -3.7968  -11.5481 H   0  0  0  0  0  0  0  0  0  0  0  0
    4.5449   -2.6252   -6.6724 H   0  0  0  0  0  0  0  0  0  0  0  0
    6.8361    0.2241   -4.5717 H   0  0  0  0  0  0  0  0  0  0  0  0
   10.1894    1.6772   -0.7930 H   0  0  0  0  0  0  0  0  0  0  0  0
    9.3520    3.8386   -5.6136 H   0  0  0  0  0  0  0  0  0  0  0  0
    7.8840    3.1791   -6.4259 H   0  0  0  0  0  0  0  0  0  0  0  0
    9.3419    2.1277   -6.2324 H   0  0  0  0  0  0  0  0  0  0  0  0
    9.3064    1.1898    1.8280 H   0  0  0  0  0  0  0  0  0  0  0  0
    6.6006   -0.2226    1.5608 H   0  0  0  0  0  0  0  0  0  0  0  0
    8.8196   -0.6793    6.4918 H   0  0  0  0  0  0  0  0  0  0  0  0
   12.5136   -1.4047    2.9940 H   0  0  0  0  0  0  0  0  0  0  0  0
   11.9548   -1.2766    1.2830 H   0  0  0  0  0  0  0  0  0  0  0  0
   12.2775    0.2278    2.2299 H   0  0  0  0  0  0  0  0  0  0  0  0
    4.8126   -0.7606    6.2810 H   0  0  0  0  0  0  0  0  0  0  0  0
    5.4234   -1.3880    8.5039 H   0  0  0  0  0  0  0  0  0  0  0  0
    7.2309   -1.3104    8.0707 H   0  0  0  0  0  0  0  0  0  0  0  0
  1  2  2  0
  2  3  1  0
  3  4  2  0
  4  5  1  0
  5  6  2  0
  6  7  1  0
  7  8  2  0
  8  9  1  0
  9 10  1  0
 10 11  1  0
  8 12  1  0
 12 13  1  0
 12 14  2  0
  4 15  1  0
 15 16  2  0
 16 17  1  0
 17 18  1  0
 18 19  2  0
 19 20  1  0
 20 21  2  0
 21 22  1  0
 22 23  1  0
 23 24  1  0
 21 25  1  0
 25 26  2  0
 25 27  1  0
 17 28  2  0
 28 29  1  0
 16 30  1  0
 30 31  2  0
 31 32  1  0
 31 33  1  0
 33 34  2  0
 34 35  1  0
 35 36  2  0
 36 37  1  0
 37 38  2  0
 38 39  1  0
 39 40  2  0
 40 41  1  0
 41 42  1  0
 42 43  1  0
 40 44  1  0
 44 45  1  0
 44 46  2  0
 36 47  1  0
 47 48  2  0
 48 49  1  0
 49 50  1  0
 50 51  2  0
 51 52  1  0
 52 53  2  0
 53 54  1  0
 54 55  1  0
 55 56  1  0
 53 57  1  0
 57 58  2  0
 57 59  1  0
 49 60  2  0
 60 61  1  0
 48 62  1  0
 62 63  2  0
 63 64  1  0
 63 65  1  0
 65 66  2  0
 66 67  1  0
 67 68  2  0
 68 69  1  0
 69 70  2  0
 70 71  1  0
 71 72  2  0
 72 73  1  0
 73 74  1  0
 74 75  1  0
 72 76  1  0
 76 77  1  0
 76 78  2  0
 68 79  1  0
 79 80  2  0
 80 81  1  0
 81 82  1  0
 82 83  2  0
 83 84  1  0
 84 85  2  0
 85 86  1  0
 86 87  1  0
 87 88  1  0
 85 89  1  0
 89 90  2  0
 89 91  1  0
 81 92  2  0
 92 93  1  0
 80 94  1  0
 94 95  2  0
 95 96  1  0
 95 97  1  0
 97 98  2  0
 98 99  1  0
 99100  2  0
100101  1  0
101102  2  0
102103  1  0
103104  2  0
104105  1  0
105106  1  0
106107  1  0
104108  1  0
108109  1  0
108110  2  0
100111  1  0
111112  2  0
112113  1  0
113114  1  0
114115  2  0
115116  1  0
116117  2  0
117118  1  0
118119  1  0
119120  1  0
117121  1  0
121122  2  0
121123  1  0
113124  2  0
124125  1  0
112126  1  0
126127  2  0
127128  1  0
127129  1  0
129130  1  0
130131  1  0
131132  2  0
132133  1  0
133134  1  0
134135  2  0
134136  1  0
136137  1  0
131138  1  0
138139  2  3
139140  1  0
140141  1  0
141142  1  0
142143  2  0
143144  1  0
144145  1  0
145146  2  0
145147  1  0
147148  1  0
142149  1  0
149150  2  3
 29  1  1  0
 61 33  1  0
 93 65  1  0
125 97  1  0
133129  2  0
144140  2  0
 28  3  1  0
 60 35  1  0
 92 67  1  0
124 99  1  0
 14  5  1  0
 32 15  1  0
 46 37  1  0
 64 47  1  0
 78 69  1  0
 96 79  1  0
110101  1  0
128111  1  0
 26 18  1  0
 58 50  1  0
 90 82  1  0
122114  1  0
  1151  1  0
  2152  1  0
  6153  1  0
  7154  1  0
 10155  1  0
 10156  1  0
 11157  1  0
 11158  1  0
 11159  1  0
 14160  1  0
 19161  1  0
 20162  1  0
 23163  1  0
 23164  1  0
 24165  1  0
 24166  1  0
 24167  1  0
 26168  1  0
 30169  1  0
 34170  1  0
 38171  1  0
 39172  1  0
 42173  1  0
 42174  1  0
 43175  1  0
 43176  1  0
 43177  1  0
 46178  1  0
 51179  1  0
 52180  1  0
 55181  1  0
 55182  1  0
 56183  1  0
 56184  1  0
 56185  1  0
 58186  1  0
 62187  1  0
 66188  1  0
 70189  1  0
 71190  1  0
 74191  1  0
 74192  1  0
 75193  1  0
 75194  1  0
 75195  1  0
 78196  1  0
 83197  1  0
 84198  1  0
 87199  1  0
 87200  1  0
 88201  1  0
 88202  1  0
 88203  1  0
 90204  1  0
 94205  1  0
 98206  1  0
102207  1  0
103208  1  0
106209  1  0
106210  1  0
107211  1  0
107212  1  0
107213  1  0
110214  1  0
115215  1  0
116216  1  0
119217  1  0
119218  1  0
120219  1  0
120220  1  0
120221  1  0
122222  1  0
126223  1  0
132224  1  0
137225  1  0
137226  1  0
137227  1  0
138228  1  0
139229  1  0
143230  1  0
148231  1  0
148232  1  0
148233  1  0
149234  1  0
150235  1  0
150236  1  0
M  END

