
     RDKit          3D

222245  0  0  0  0  0  0  0  0999 V2000
    6.1572   -6.1509    9.6733 C   0  0  0  0  0  0  0  0  0  0  0  0
    7.0218   -5.5293    8.7786 C   0  0  0  0  0  0  0  0  0  0  0  0
    6.4951   -4.3457    8.2333 C   0  0  0  0  0  0  0  0  0  0  0  0
    7.1107   -3.5297    7.2645 C   0  0  0  0  0  0  0  0  0  0  0  0
    8.4348   -3.8508    6.6958 C   0  0  0  0  0  0  0  0  0  0  0  0
    9.5884   -3.7425    7.4821 C   0  0  0  0  0  0  0  0  0  0  0  0
   10.8438   -4.0238    6.9329 C   0  0  0  0  0  0  0  0  0  0  0  0
   10.9530   -4.4118    5.5910 C   0  0  0  0  0  0  0  0  0  0  0  0
   12.5698   -4.7668    4.8888 S   0  0  0  0  0  0  0  0  0  0  0  0
   12.7898   -3.1227    4.1218 C   0  0  0  0  0  0  0  0  0  0  0  0
   13.2275   -2.0878    5.1497 C   0  0  0  0  0  0  0  0  0  0  0  0
    9.7971   -4.5441    4.8078 C   0  0  0  0  0  0  0  0  0  0  0  0
    9.8871   -4.9461    3.5144 F   0  0  0  0  0  0  0  0  0  0  0  0
    8.5452   -4.2509    5.3548 C   0  0  0  0  0  0  0  0  0  0  0  0
    6.3845   -2.4122    6.8196 C   0  0  0  0  0  0  0  0  0  0  0  0
    5.1045   -2.1006    7.2904 C   0  0  0  0  0  0  0  0  0  0  0  0
    4.4794   -2.9259    8.2529 C   0  0  0  0  0  0  0  0  0  0  0  0
    3.0935   -2.6940    8.7170 C   0  0  0  0  0  0  0  0  0  0  0  0
    2.0295   -2.7179    7.8010 C   0  0  0  0  0  0  0  0  0  0  0  0
    0.7133   -2.5600    8.2439 C   0  0  0  0  0  0  0  0  0  0  0  0
    0.4476   -2.3690    9.6044 C   0  0  0  0  0  0  0  0  0  0  0  0
   -1.2522   -2.1977   10.1636 S   0  0  0  0  0  0  0  0  0  0  0  0
   -1.3633   -0.4073    9.8263 C   0  0  0  0  0  0  0  0  0  0  0  0
   -0.7399    0.4033   10.9547 C   0  0  0  0  0  0  0  0  0  0  0  0
    1.5036   -2.3546   10.5267 C   0  0  0  0  0  0  0  0  0  0  0  0
    2.8201   -2.5121   10.0823 C   0  0  0  0  0  0  0  0  0  0  0  0
    1.2604   -2.1965   11.8518 F   0  0  0  0  0  0  0  0  0  0  0  0
    5.2157   -4.0410    8.7072 C   0  0  0  0  0  0  0  0  0  0  0  0
    4.7408   -5.2439    9.7849 S   0  0  0  0  0  0  0  0  0  0  0  0
    4.5738   -0.9332    6.7105 C   0  0  0  0  0  0  0  0  0  0  0  0
    5.4365   -0.3461    5.7829 C   0  0  0  0  0  0  0  0  0  0  0  0
    6.8514   -1.2606    5.6891 S   0  0  0  0  0  0  0  0  0  0  0  0
    5.1521    0.8456    4.9617 C   0  0  0  0  0  0  0  0  0  0  0  0
    3.6996    1.7468    4.9949 S   0  0  0  0  0  0  0  0  0  0  0  0
    4.1594    2.7543    3.7323 C   0  0  0  0  0  0  0  0  0  0  0  0
    3.5091    3.7337    2.9887 C   0  0  0  0  0  0  0  0  0  0  0  0
    4.3032    4.1425    1.9027 C   0  0  0  0  0  0  0  0  0  0  0  0
    5.7754    3.2741    1.9096 S   0  0  0  0  0  0  0  0  0  0  0  0
    5.3919    2.4015    3.2883 C   0  0  0  0  0  0  0  0  0  0  0  0
    5.9920    1.3357    3.9478 C   0  0  0  0  0  0  0  0  0  0  0  0
    3.8510    5.0137    0.8037 C   0  0  0  0  0  0  0  0  0  0  0  0
    2.3479    5.8233    0.7619 S   0  0  0  0  0  0  0  0  0  0  0  0
    2.4851    6.2560   -0.8532 C   0  0  0  0  0  0  0  0  0  0  0  0
    1.5519    6.6800   -1.7936 C   0  0  0  0  0  0  0  0  0  0  0  0
    2.0329    6.4910   -3.1005 C   0  0  0  0  0  0  0  0  0  0  0  0
    3.5994    5.8139   -3.0320 S   0  0  0  0  0  0  0  0  0  0  0  0
    3.6504    5.7751   -1.3574 C   0  0  0  0  0  0  0  0  0  0  0  0
    4.4548    5.0758   -0.4608 C   0  0  0  0  0  0  0  0  0  0  0  0
    1.1593    6.4232   -4.2841 C   0  0  0  0  0  0  0  0  0  0  0  0
    1.2540    5.4189   -5.2476 C   0  0  0  0  0  0  0  0  0  0  0  0
    0.0583    5.2111   -5.9602 C   0  0  0  0  0  0  0  0  0  0  0  0
   -0.2178    4.1006   -6.7816 C   0  0  0  0  0  0  0  0  0  0  0  0
    0.8103    3.0719   -7.0518 C   0  0  0  0  0  0  0  0  0  0  0  0
    1.9086    3.3643   -7.8740 C   0  0  0  0  0  0  0  0  0  0  0  0
    2.8871    2.3929   -8.1094 C   0  0  0  0  0  0  0  0  0  0  0  0
    2.7777    1.1259   -7.5217 C   0  0  0  0  0  0  0  0  0  0  0  0
    4.0525   -0.1049   -7.8021 S   0  0  0  0  0  0  0  0  0  0  0  0
    5.0420    0.4279   -6.3655 C   0  0  0  0  0  0  0  0  0  0  0  0
    6.2660   -0.4599   -6.2169 C   0  0  0  0  0  0  0  0  0  0  0  0
    1.6856    0.8334   -6.6966 C   0  0  0  0  0  0  0  0  0  0  0  0
    1.5742   -0.3846   -6.1076 F   0  0  0  0  0  0  0  0  0  0  0  0
    0.7114    1.8054   -6.4556 C   0  0  0  0  0  0  0  0  0  0  0  0
   -1.5663    3.8851   -7.1250 C   0  0  0  0  0  0  0  0  0  0  0  0
   -2.5930    4.7420   -6.7176 C   0  0  0  0  0  0  0  0  0  0  0  0
   -2.3036    5.9070   -5.9803 C   0  0  0  0  0  0  0  0  0  0  0  0
   -3.3845    6.8039   -5.5154 C   0  0  0  0  0  0  0  0  0  0  0  0
   -4.1740    7.4841   -6.4528 C   0  0  0  0  0  0  0  0  0  0  0  0
   -5.2122    8.3187   -6.0278 C   0  0  0  0  0  0  0  0  0  0  0  0
   -5.4650    8.4831   -4.6605 C   0  0  0  0  0  0  0  0  0  0  0  0
   -6.7863    9.5762   -4.1219 S   0  0  0  0  0  0  0  0  0  0  0  0
   -5.7084   11.0360   -3.8886 C   0  0  0  0  0  0  0  0  0  0  0  0
   -5.4709   11.7572   -5.2089 C   0  0  0  0  0  0  0  0  0  0  0  0
   -4.7012    7.7783   -3.7200 C   0  0  0  0  0  0  0  0  0  0  0  0
   -3.6691    6.9374   -4.1463 C   0  0  0  0  0  0  0  0  0  0  0  0
   -4.9521    7.9105   -2.3935 F   0  0  0  0  0  0  0  0  0  0  0  0
   -0.9643    6.0888   -5.5815 C   0  0  0  0  0  0  0  0  0  0  0  0
   -0.3868    7.1013   -4.3676 S   0  0  0  0  0  0  0  0  0  0  0  0
   -3.8733    4.1739   -6.8495 C   0  0  0  0  0  0  0  0  0  0  0  0
   -3.8571    2.8443   -7.2833 C   0  0  0  0  0  0  0  0  0  0  0  0
   -2.2553    2.4477   -7.6517 S   0  0  0  0  0  0  0  0  0  0  0  0
   -4.7662    1.8312   -6.7132 C   0  0  0  0  0  0  0  0  0  0  0  0
   -4.5666    0.4539   -6.8607 C   0  0  0  0  0  0  0  0  0  0  0  0
   -4.9614   -0.2950   -5.7337 C   0  0  0  0  0  0  0  0  0  0  0  0
   -4.6658   -1.6556   -5.4928 C   0  0  0  0  0  0  0  0  0  0  0  0
   -3.9820   -2.5033   -6.4878 C   0  0  0  0  0  0  0  0  0  0  0  0
   -4.6360   -3.6247   -7.0198 C   0  0  0  0  0  0  0  0  0  0  0  0
   -3.9938   -4.4286   -7.9645 C   0  0  0  0  0  0  0  0  0  0  0  0
   -2.6936   -4.1199   -8.3842 C   0  0  0  0  0  0  0  0  0  0  0  0
   -1.8908   -5.1432   -9.6251 S   0  0  0  0  0  0  0  0  0  0  0  0
   -2.6724   -4.3157  -11.0549 C   0  0  0  0  0  0  0  0  0  0  0  0
   -1.9869   -2.9941  -11.3783 C   0  0  0  0  0  0  0  0  0  0  0  0
   -2.0232   -3.0241   -7.8261 C   0  0  0  0  0  0  0  0  0  0  0  0
   -0.7513   -2.7329   -8.2010 F   0  0  0  0  0  0  0  0  0  0  0  0
   -2.6648   -2.2193   -6.8798 C   0  0  0  0  0  0  0  0  0  0  0  0
   -4.9170   -2.1381   -4.1950 C   0  0  0  0  0  0  0  0  0  0  0  0
   -5.4150   -1.3250   -3.1713 C   0  0  0  0  0  0  0  0  0  0  0  0
   -5.7643    0.0126   -3.4296 C   0  0  0  0  0  0  0  0  0  0  0  0
   -6.1658    0.9352   -2.3548 C   0  0  0  0  0  0  0  0  0  0  0  0
   -5.2414    1.3150   -1.3713 C   0  0  0  0  0  0  0  0  0  0  0  0
   -5.6108    2.2181   -0.3719 C   0  0  0  0  0  0  0  0  0  0  0  0
   -6.9024    2.7542   -0.3523 C   0  0  0  0  0  0  0  0  0  0  0  0
   -7.3654    3.9091    0.9438 S   0  0  0  0  0  0  0  0  0  0  0  0
   -6.6793    5.3854    0.1142 C   0  0  0  0  0  0  0  0  0  0  0  0
   -7.5779    5.8510   -1.0247 C   0  0  0  0  0  0  0  0  0  0  0  0
   -7.8346    2.3671   -1.3268 C   0  0  0  0  0  0  0  0  0  0  0  0
   -7.4617    1.4684   -2.3316 C   0  0  0  0  0  0  0  0  0  0  0  0
   -9.0987    2.8596   -1.3058 F   0  0  0  0  0  0  0  0  0  0  0  0
   -5.5342    0.4909   -4.7281 C   0  0  0  0  0  0  0  0  0  0  0  0
   -5.5256    2.0895   -5.2242 S   0  0  0  0  0  0  0  0  0  0  0  0
   -5.3913   -1.9414   -1.9068 C   0  0  0  0  0  0  0  0  0  0  0  0
   -4.8575   -3.2272   -1.9428 C   0  0  0  0  0  0  0  0  0  0  0  0
   -4.4437   -3.6108   -3.5352 S   0  0  0  0  0  0  0  0  0  0  0  0
   -4.4178   -3.9974   -0.7734 C   0  0  0  0  0  0  0  0  0  0  0  0
   -3.9941   -3.4485    0.4365 C   0  0  0  0  0  0  0  0  0  0  0  0
   -3.3646   -4.3874    1.2736 C   0  0  0  0  0  0  0  0  0  0  0  0
   -2.7352   -4.1155    2.5032 C   0  0  0  0  0  0  0  0  0  0  0  0
   -2.6224   -2.7436    3.0231 C   0  0  0  0  0  0  0  0  0  0  0  0
   -1.4213   -2.0403    2.8573 C   0  0  0  0  0  0  0  0  0  0  0  0
   -1.3215   -0.7127    3.2764 C   0  0  0  0  0  0  0  0  0  0  0  0
   -2.4195   -0.0792    3.8717 C   0  0  0  0  0  0  0  0  0  0  0  0
   -2.2912    1.6473    4.3498 S   0  0  0  0  0  0  0  0  0  0  0  0
   -2.8943    2.2516    2.7383 C   0  0  0  0  0  0  0  0  0  0  0  0
   -2.8368    3.7712    2.6864 C   0  0  0  0  0  0  0  0  0  0  0  0
   -3.6135   -0.7896    4.0637 C   0  0  0  0  0  0  0  0  0  0  0  0
   -4.6828   -0.1864    4.6439 F   0  0  0  0  0  0  0  0  0  0  0  0
   -3.7179   -2.1160    3.6339 C   0  0  0  0  0  0  0  0  0  0  0  0
   -2.0955   -5.1884    3.1435 C   0  0  0  0  0  0  0  0  0  0  0  0
   -2.0472   -6.4736    2.5971 C   0  0  0  0  0  0  0  0  0  0  0  0
   -2.6519   -6.7429    1.3492 C   0  0  0  0  0  0  0  0  0  0  0  0
   -2.5405   -8.0613    0.6841 C   0  0  0  0  0  0  0  0  0  0  0  0
   -1.9749   -8.1567   -0.5953 C   0  0  0  0  0  0  0  0  0  0  0  0
   -1.8764   -9.3956   -1.2345 C   0  0  0  0  0  0  0  0  0  0  0  0
   -2.3386  -10.5512   -0.5977 C   0  0  0  0  0  0  0  0  0  0  0  0
   -2.2074  -12.1386   -1.4318 S   0  0  0  0  0  0  0  0  0  0  0  0
   -0.4590  -12.4354   -0.9853 C   0  0  0  0  0  0  0  0  0  0  0  0
   -0.2961  -12.7346    0.4997 C   0  0  0  0  0  0  0  0  0  0  0  0
   -2.9168  -10.4621    0.6755 C   0  0  0  0  0  0  0  0  0  0  0  0
   -3.0225   -9.2204    1.3128 C   0  0  0  0  0  0  0  0  0  0  0  0
   -3.3891  -11.5725    1.2937 F   0  0  0  0  0  0  0  0  0  0  0  0
   -3.3115   -5.6682    0.7189 C   0  0  0  0  0  0  0  0  0  0  0  0
   -4.0310   -5.6365   -0.8022 S   0  0  0  0  0  0  0  0  0  0  0  0
   -1.2999   -7.3722    3.3816 C   0  0  0  0  0  0  0  0  0  0  0  0
   -0.7850   -6.7936    4.5388 C   0  0  0  0  0  0  0  0  0  0  0  0
   -1.2331   -5.1694    4.5887 S   0  0  0  0  0  0  0  0  0  0  0  0
    6.3580   -7.0760   10.1991 H   0  0  0  0  0  0  0  0  0  0  0  0
    7.9926   -5.9347    8.5257 H   0  0  0  0  0  0  0  0  0  0  0  0
    9.5167   -3.4335    8.5181 H   0  0  0  0  0  0  0  0  0  0  0  0
   11.7302   -3.9327    7.5498 H   0  0  0  0  0  0  0  0  0  0  0  0
   13.5767   -3.2075    3.3426 H   0  0  0  0  0  0  0  0  0  0  0  0
   11.8550   -2.7913    3.6218 H   0  0  0  0  0  0  0  0  0  0  0  0
   12.4132   -1.9025    5.8817 H   0  0  0  0  0  0  0  0  0  0  0  0
   14.1339   -2.4389    5.6875 H   0  0  0  0  0  0  0  0  0  0  0  0
   13.4629   -1.1321    4.6380 H   0  0  0  0  0  0  0  0  0  0  0  0
    7.6600   -4.3447    4.7380 H   0  0  0  0  0  0  0  0  0  0  0  0
    2.2179   -2.8777    6.7470 H   0  0  0  0  0  0  0  0  0  0  0  0
   -0.1002   -2.5872    7.5285 H   0  0  0  0  0  0  0  0  0  0  0  0
   -0.8742   -0.1587    8.8620 H   0  0  0  0  0  0  0  0  0  0  0  0
   -2.4368   -0.1383    9.7426 H   0  0  0  0  0  0  0  0  0  0  0  0
   -1.1874    0.1121   11.9282 H   0  0  0  0  0  0  0  0  0  0  0  0
    0.3570    0.2400   10.9871 H   0  0  0  0  0  0  0  0  0  0  0  0
   -0.9324    1.4834   10.7828 H   0  0  0  0  0  0  0  0  0  0  0  0
    3.6293   -2.5026   10.8021 H   0  0  0  0  0  0  0  0  0  0  0  0
    3.6007   -0.5299    6.9526 H   0  0  0  0  0  0  0  0  0  0  0  0
    2.4988    4.0695    3.1770 H   0  0  0  0  0  0  0  0  0  0  0  0
    6.9475    0.9127    3.6731 H   0  0  0  0  0  0  0  0  0  0  0  0
    0.5336    6.9434   -1.5452 H   0  0  0  0  0  0  0  0  0  0  0  0
    5.3504    4.5388   -0.7469 H   0  0  0  0  0  0  0  0  0  0  0  0
    2.1070    4.7560   -5.3165 H   0  0  0  0  0  0  0  0  0  0  0  0
    2.0086    4.3431   -8.3264 H   0  0  0  0  0  0  0  0  0  0  0  0
    3.7358    2.6287   -8.7406 H   0  0  0  0  0  0  0  0  0  0  0  0
    5.3693    1.4802   -6.5125 H   0  0  0  0  0  0  0  0  0  0  0  0
    4.4284    0.3615   -5.4430 H   0  0  0  0  0  0  0  0  0  0  0  0
    6.9241   -0.3474   -7.1058 H   0  0  0  0  0  0  0  0  0  0  0  0
    6.8317   -0.1669   -5.3088 H   0  0  0  0  0  0  0  0  0  0  0  0
    5.9561   -1.5239   -6.1183 H   0  0  0  0  0  0  0  0  0  0  0  0
   -0.1160    1.5750   -5.7946 H   0  0  0  0  0  0  0  0  0  0  0  0
   -3.9830    7.3731   -7.5140 H   0  0  0  0  0  0  0  0  0  0  0  0
   -5.8149    8.8388   -6.7627 H   0  0  0  0  0  0  0  0  0  0  0  0
   -4.7364   10.7447   -3.4352 H   0  0  0  0  0  0  0  0  0  0  0  0
   -6.2168   11.7334   -3.1913 H   0  0  0  0  0  0  0  0  0  0  0  0
   -6.4399   12.0442   -5.6691 H   0  0  0  0  0  0  0  0  0  0  0  0
   -4.9074   11.1107   -5.9109 H   0  0  0  0  0  0  0  0  0  0  0  0
   -4.8750   12.6770   -5.0299 H   0  0  0  0  0  0  0  0  0  0  0  0
   -3.0979    6.3841   -3.4129 H   0  0  0  0  0  0  0  0  0  0  0  0
   -4.7624    4.6274   -6.4289 H   0  0  0  0  0  0  0  0  0  0  0  0
   -4.0022    0.0369   -7.6840 H   0  0  0  0  0  0  0  0  0  0  0  0
   -5.6443   -3.8692   -6.7095 H   0  0  0  0  0  0  0  0  0  0  0  0
   -4.5122   -5.2848   -8.3812 H   0  0  0  0  0  0  0  0  0  0  0  0
   -2.5792   -4.9878  -11.9340 H   0  0  0  0  0  0  0  0  0  0  0  0
   -3.7541   -4.1483  -10.8674 H   0  0  0  0  0  0  0  0  0  0  0  0
   -2.1320   -2.2681  -10.5522 H   0  0  0  0  0  0  0  0  0  0  0  0
   -2.4298   -2.5622  -12.2998 H   0  0  0  0  0  0  0  0  0  0  0  0
   -0.9005   -3.1550  -11.5441 H   0  0  0  0  0  0  0  0  0  0  0  0
   -2.1378   -1.3744   -6.4568 H   0  0  0  0  0  0  0  0  0  0  0  0
   -4.2322    0.9193   -1.3840 H   0  0  0  0  0  0  0  0  0  0  0  0
   -4.8879    2.5100    0.3783 H   0  0  0  0  0  0  0  0  0  0  0  0
   -5.6536    5.1834   -0.2652 H   0  0  0  0  0  0  0  0  0  0  0  0
   -6.6087    6.1988    0.8675 H   0  0  0  0  0  0  0  0  0  0  0  0
   -7.5628    5.1177   -1.8581 H   0  0  0  0  0  0  0  0  0  0  0  0
   -7.2161    6.8263   -1.4113 H   0  0  0  0  0  0  0  0  0  0  0  0
   -8.6215    5.9790   -0.6631 H   0  0  0  0  0  0  0  0  0  0  0  0
   -8.1812    1.1836   -3.0900 H   0  0  0  0  0  0  0  0  0  0  0  0
   -5.6841   -1.4507   -0.9878 H   0  0  0  0  0  0  0  0  0  0  0  0
   -4.0664   -2.3934    0.6669 H   0  0  0  0  0  0  0  0  0  0  0  0
   -0.5719   -2.5129    2.3781 H   0  0  0  0  0  0  0  0  0  0  0  0
   -0.3982   -0.1685    3.1163 H   0  0  0  0  0  0  0  0  0  0  0  0
   -3.9465    1.9199    2.5970 H   0  0  0  0  0  0  0  0  0  0  0  0
   -2.2679    1.8355    1.9207 H   0  0  0  0  0  0  0  0  0  0  0  0
   -3.2358    4.1245    1.7119 H   0  0  0  0  0  0  0  0  0  0  0  0
   -3.4488    4.2061    3.5048 H   0  0  0  0  0  0  0  0  0  0  0  0
   -1.7847    4.1154    2.7895 H   0  0  0  0  0  0  0  0  0  0  0  0
   -4.6500   -2.6518    3.7638 H   0  0  0  0  0  0  0  0  0  0  0  0
   -1.5925   -7.2765   -1.0961 H   0  0  0  0  0  0  0  0  0  0  0  0
   -1.4340   -9.4555   -2.2192 H   0  0  0  0  0  0  0  0  0  0  0  0
    0.1680  -11.5620   -1.2666 H   0  0  0  0  0  0  0  0  0  0  0  0
   -0.1047  -13.3106   -1.5675 H   0  0  0  0  0  0  0  0  0  0  0  0
   -1.0141  -13.5192    0.8221 H   0  0  0  0  0  0  0  0  0  0  0  0
    0.7368  -13.0974    0.6929 H   0  0  0  0  0  0  0  0  0  0  0  0
   -0.4563  -11.8147    1.1011 H   0  0  0  0  0  0  0  0  0  0  0  0
   -3.4728   -9.1654    2.2931 H   0  0  0  0  0  0  0  0  0  0  0  0
   -1.1132   -8.4044    3.1193 H   0  0  0  0  0  0  0  0  0  0  0  0
   -0.1797   -7.3018    5.2777 H   0  0  0  0  0  0  0  0  0  0  0  0
  1  2  2  0
  2  3  1  0
  3  4  2  0
  4  5  1  0
  5  6  2  0
  6  7  1  0
  7  8  2  0
  8  9  1  0
  9 10  1  0
 10 11  1  0
  8 12  1  0
 12 13  1  0
 12 14  2  0
  4 15  1  0
 15 16  2  0
 16 17  1  0
 17 18  1  0
 18 19  2  0
 19 20  1  0
 20 21  2  0
 21 22  1  0
 22 23  1  0
 23 24  1  0
 21 25  1  0
 25 26  2  0
 25 27  1  0
 17 28  2  0
 28 29  1  0
 16 30  1  0
 30 31  2  0
 31 32  1  0
 31 33  1  0
 33 34  1  0
 34 35  1  0
 35 36  1  0
 36 37  2  0
 37 38  1  0
 38 39  1  0
 39 40  1  0
 37 41  1  0
 41 42  1  0
 42 43  1  0
 43 44  1  0
 44 45  2  0
 45 46  1  0
 46 47  1  0
 47 48  1  0
 45 49  1  0
 49 50  2  0
 50 51  1  0
 51 52  2  0
 52 53  1  0
 53 54  2  0
 54 55  1  0
 55 56  2  0
 56 57  1  0
 57 58  1  0
 58 59  1  0
 56 60  1  0
 60 61  1  0
 60 62  2  0
 52 63  1  0
 63 64  2  0
 64 65  1  0
 65 66  1  0
 66 67  2  0
 67 68  1  0
 68 69  2  0
 69 70  1  0
 70 71  1  0
 71 72  1  0
 69 73  1  0
 73 74  2  0
 73 75  1  0
 65 76  2  0
 76 77  1  0
 64 78  1  0
 78 79  2  0
 79 80  1  0
 79 81  1  0
 81 82  2  0
 82 83  1  0
 83 84  2  0
 84 85  1  0
 85 86  2  0
 86 87  1  0
 87 88  2  0
 88 89  1  0
 89 90  1  0
 90 91  1  0
 88 92  1  0
 92 93  1  0
 92 94  2  0
 84 95  1  0
 95 96  2  0
 96 97  1  0
 97 98  1  0
 98 99  2  0
 99100  1  0
100101  2  0
101102  1  0
102103  1  0
103104  1  0
101105  1  0
105106  2  0
105107  1  0
 97108  2  0
108109  1  0
 96110  1  0
110111  2  0
111112  1  0
111113  1  0
113114  2  0
114115  1  0
115116  2  0
116117  1  0
117118  2  0
118119  1  0
119120  2  0
120121  1  0
121122  1  0
122123  1  0
120124  1  0
124125  1  0
124126  2  0
116127  1  0
127128  2  0
128129  1  0
129130  1  0
130131  2  0
131132  1  0
132133  2  0
133134  1  0
134135  1  0
135136  1  0
133137  1  0
137138  2  0
137139  1  0
129140  2  0
140141  1  0
128142  1  0
142143  2  0
143144  1  0
 29  1  1  0
 40 33  2  0
 48 41  2  0
 77 49  1  0
109 81  1  0
141113  1  0
 28  3  1  0
 39 35  2  0
 47 43  2  0
 76 51  1  0
108 83  1  0
140115  1  0
 14  5  1  0
 32 15  1  0
 62 53  1  0
 80 63  1  0
 94 85  1  0
112 95  1  0
126117  1  0
144127  1  0
 26 18  1  0
 74 66  1  0
106 98  1  0
138130  1  0
  1145  1  0
  2146  1  0
  6147  1  0
  7148  1  0
 10149  1  0
 10150  1  0
 11151  1  0
 11152  1  0
 11153  1  0
 14154  1  0
 19155  1  0
 20156  1  0
 23157  1  0
 23158  1  0
 24159  1  0
 24160  1  0
 24161  1  0
 26162  1  0
 30163  1  0
 36164  1  0
 40165  1  0
 44166  1  0
 48167  1  0
 50168  1  0
 54169  1  0
 55170  1  0
 58171  1  0
 58172  1  0
 59173  1  0
 59174  1  0
 59175  1  0
 62176  1  0
 67177  1  0
 68178  1  0
 71179  1  0
 71180  1  0
 72181  1  0
 72182  1  0
 72183  1  0
 74184  1  0
 78185  1  0
 82186  1  0
 86187  1  0
 87188  1  0
 90189  1  0
 90190  1  0
 91191  1  0
 91192  1  0
 91193  1  0
 94194  1  0
 99195  1  0
100196  1  0
103197  1  0
103198  1  0
104199  1  0
104200  1  0
104201  1  0
106202  1  0
110203  1  0
114204  1  0
118205  1  0
119206  1  0
122207  1  0
122208  1  0
123209  1  0
123210  1  0
123211  1  0
126212  1  0
131213  1  0
132214  1  0
135215  1  0
135216  1  0
136217  1  0
136218  1  0
136219  1  0
138220  1  0
142221  1  0
143222  1  0
M  END

