
     RDKit          3D

232253  0  0  0  0  0  0  0  0999 V2000
   -1.6581    0.4672    9.8165 C   0  0  0  0  0  0  0  0  0  0  0  0
   -2.6982    0.8899    8.9894 C   0  0  0  0  0  0  0  0  0  0  0  0
   -2.7833    0.1555    7.7913 C   0  0  0  0  0  0  0  0  0  0  0  0
   -3.7061    0.3613    6.7460 C   0  0  0  0  0  0  0  0  0  0  0  0
   -4.5910    1.5526    6.7072 C   0  0  0  0  0  0  0  0  0  0  0  0
   -4.0354    2.8384    6.8166 C   0  0  0  0  0  0  0  0  0  0  0  0
   -4.8445    3.9718    6.7009 C   0  0  0  0  0  0  0  0  0  0  0  0
   -6.2111    3.8350    6.4396 C   0  0  0  0  0  0  0  0  0  0  0  0
   -7.2372    5.2988    6.2217 S   0  0  0  0  0  0  0  0  0  0  0  0
   -6.7950    5.5702    4.4666 C   0  0  0  0  0  0  0  0  0  0  0  0
   -5.8596    6.7687    4.3498 C   0  0  0  0  0  0  0  0  0  0  0  0
   -6.7731    2.5568    6.3275 C   0  0  0  0  0  0  0  0  0  0  0  0
   -8.0980    2.4152    6.0737 F   0  0  0  0  0  0  0  0  0  0  0  0
   -5.9706    1.4195    6.4669 C   0  0  0  0  0  0  0  0  0  0  0  0
   -3.6401   -0.5337    5.6588 C   0  0  0  0  0  0  0  0  0  0  0  0
   -2.6605   -1.5302    5.5554 C   0  0  0  0  0  0  0  0  0  0  0  0
   -1.7172   -1.7131    6.5897 C   0  0  0  0  0  0  0  0  0  0  0  0
   -0.6162   -2.6909    6.4671 C   0  0  0  0  0  0  0  0  0  0  0  0
   -0.8820   -4.0683    6.3623 C   0  0  0  0  0  0  0  0  0  0  0  0
    0.1637   -4.9751    6.1934 C   0  0  0  0  0  0  0  0  0  0  0  0
    1.4863   -4.5195    6.1285 C   0  0  0  0  0  0  0  0  0  0  0  0
    2.8351   -5.6867    5.9194 S   0  0  0  0  0  0  0  0  0  0  0  0
    3.0828   -5.9773    7.7075 C   0  0  0  0  0  0  0  0  0  0  0  0
    2.4617   -7.3069    8.1091 C   0  0  0  0  0  0  0  0  0  0  0  0
    1.7555   -3.1473    6.2273 C   0  0  0  0  0  0  0  0  0  0  0  0
    0.7087   -2.2369    6.3985 C   0  0  0  0  0  0  0  0  0  0  0  0
    3.0292   -2.6937    6.1543 F   0  0  0  0  0  0  0  0  0  0  0  0
   -1.8199   -0.8572    7.7009 C   0  0  0  0  0  0  0  0  0  0  0  0
   -0.8570   -0.8234    9.0813 S   0  0  0  0  0  0  0  0  0  0  0  0
   -2.6836   -2.2039    4.3172 C   0  0  0  0  0  0  0  0  0  0  0  0
   -3.7024   -1.7532    3.4792 C   0  0  0  0  0  0  0  0  0  0  0  0
   -4.5422   -0.5089    4.2435 S   0  0  0  0  0  0  0  0  0  0  0  0
   -3.8938   -2.1190    2.0705 C   0  0  0  0  0  0  0  0  0  0  0  0
   -2.8653   -2.4120    1.1756 C   0  0  0  0  0  0  0  0  0  0  0  0
   -3.2918   -2.3911   -0.1613 C   0  0  0  0  0  0  0  0  0  0  0  0
   -2.4772   -2.5160   -1.3050 C   0  0  0  0  0  0  0  0  0  0  0  0
   -1.0570   -2.9243   -1.2296 C   0  0  0  0  0  0  0  0  0  0  0  0
   -0.6618   -4.1182   -1.8468 C   0  0  0  0  0  0  0  0  0  0  0  0
    0.6624   -4.5524   -1.7596 C   0  0  0  0  0  0  0  0  0  0  0  0
    1.5999   -3.8088   -1.0366 C   0  0  0  0  0  0  0  0  0  0  0  0
    3.2815   -4.4194   -0.8920 S   0  0  0  0  0  0  0  0  0  0  0  0
    3.0322   -5.2884    0.6930 C   0  0  0  0  0  0  0  0  0  0  0  0
    2.2314   -6.5731    0.5062 C   0  0  0  0  0  0  0  0  0  0  0  0
    1.2194   -2.5929   -0.4468 C   0  0  0  0  0  0  0  0  0  0  0  0
    2.1285   -1.8509    0.2253 F   0  0  0  0  0  0  0  0  0  0  0  0
   -0.1050   -2.1485   -0.5476 C   0  0  0  0  0  0  0  0  0  0  0  0
   -3.0991   -2.3152   -2.5514 C   0  0  0  0  0  0  0  0  0  0  0  0
   -4.4681   -2.0745   -2.6828 C   0  0  0  0  0  0  0  0  0  0  0  0
   -5.2990   -2.0046   -1.5460 C   0  0  0  0  0  0  0  0  0  0  0  0
   -6.7625   -1.8266   -1.6578 C   0  0  0  0  0  0  0  0  0  0  0  0
   -7.4021   -0.7472   -1.0229 C   0  0  0  0  0  0  0  0  0  0  0  0
   -8.7925   -0.6236   -1.0838 C   0  0  0  0  0  0  0  0  0  0  0  0
   -9.5542   -1.5553   -1.7966 C   0  0  0  0  0  0  0  0  0  0  0  0
  -11.3384   -1.3610   -1.9043 S   0  0  0  0  0  0  0  0  0  0  0  0
  -11.7372   -2.6531   -0.6701 C   0  0  0  0  0  0  0  0  0  0  0  0
  -11.5399   -2.1505    0.7543 C   0  0  0  0  0  0  0  0  0  0  0  0
   -8.9162   -2.6123   -2.4672 C   0  0  0  0  0  0  0  0  0  0  0  0
   -7.5291   -2.7481   -2.3887 C   0  0  0  0  0  0  0  0  0  0  0  0
   -9.6369   -3.5286   -3.1582 F   0  0  0  0  0  0  0  0  0  0  0  0
   -4.6649   -2.1345   -0.2962 C   0  0  0  0  0  0  0  0  0  0  0  0
   -5.3356   -1.9113    1.2264 S   0  0  0  0  0  0  0  0  0  0  0  0
   -4.8491   -1.7859   -4.0005 C   0  0  0  0  0  0  0  0  0  0  0  0
   -3.7720   -1.7617   -4.8800 C   0  0  0  0  0  0  0  0  0  0  0  0
   -2.3573   -2.1321   -4.0449 S   0  0  0  0  0  0  0  0  0  0  0  0
   -3.8322   -1.2473   -6.2518 C   0  0  0  0  0  0  0  0  0  0  0  0
   -4.5873   -2.0247   -7.5324 S   0  0  0  0  0  0  0  0  0  0  0  0
   -4.2848   -0.8286   -8.6777 C   0  0  0  0  0  0  0  0  0  0  0  0
   -3.6069    0.2124   -8.0568 C   0  0  0  0  0  0  0  0  0  0  0  0
   -3.3510   -0.0183   -6.7009 C   0  0  0  0  0  0  0  0  0  0  0  0
   -2.7397    0.9666   -5.8580 N   0  0  0  0  0  0  0  0  0  0  0  0
   -1.2948    0.8720   -5.6182 C   0  0  0  0  0  0  0  0  0  0  0  0
   -0.5064    1.4035   -6.8092 C   0  0  0  0  0  0  0  0  0  0  0  0
   -3.5851    1.8950   -5.1393 C   0  0  0  0  0  0  0  0  0  0  0  0
   -5.0904    1.5082   -4.4962 S   0  0  0  0  0  0  0  0  0  0  0  0
   -5.4466    3.0195   -3.8669 C   0  0  0  0  0  0  0  0  0  0  0  0
   -4.4039    3.8748   -4.1864 C   0  0  0  0  0  0  0  0  0  0  0  0
   -3.3612    3.2585   -4.8929 C   0  0  0  0  0  0  0  0  0  0  0  0
   -2.1929    3.9816   -5.3176 N   0  0  0  0  0  0  0  0  0  0  0  0
   -2.3015    4.9892   -6.3833 C   0  0  0  0  0  0  0  0  0  0  0  0
   -3.1068    4.4814   -7.5784 C   0  0  0  0  0  0  0  0  0  0  0  0
   -1.0724    4.0552   -4.4184 C   0  0  0  0  0  0  0  0  0  0  0  0
   -1.1105    3.6742   -3.0765 C   0  0  0  0  0  0  0  0  0  0  0  0
    0.1636    3.4559   -2.5336 C   0  0  0  0  0  0  0  0  0  0  0  0
    0.4331    2.8958   -1.2719 C   0  0  0  0  0  0  0  0  0  0  0  0
   -0.6523    2.7254   -0.2894 C   0  0  0  0  0  0  0  0  0  0  0  0
   -0.9071    3.7576    0.6247 C   0  0  0  0  0  0  0  0  0  0  0  0
   -2.0945    3.7658    1.3577 C   0  0  0  0  0  0  0  0  0  0  0  0
   -3.0385    2.7545    1.1734 C   0  0  0  0  0  0  0  0  0  0  0  0
   -4.6255    2.8600    2.0115 S   0  0  0  0  0  0  0  0  0  0  0  0
   -5.5243    3.5792    0.5841 C   0  0  0  0  0  0  0  0  0  0  0  0
   -5.1435    5.0395    0.3592 C   0  0  0  0  0  0  0  0  0  0  0  0
   -2.7617    1.6882    0.3022 C   0  0  0  0  0  0  0  0  0  0  0  0
   -3.6794    0.7159    0.0985 F   0  0  0  0  0  0  0  0  0  0  0  0
   -1.5729    1.6762   -0.4280 C   0  0  0  0  0  0  0  0  0  0  0  0
    1.7567    2.5018   -1.0197 C   0  0  0  0  0  0  0  0  0  0  0  0
    2.7853    2.7337   -1.9376 C   0  0  0  0  0  0  0  0  0  0  0  0
    2.5314    3.3945   -3.1601 C   0  0  0  0  0  0  0  0  0  0  0  0
    3.5929    3.6903   -4.1417 C   0  0  0  0  0  0  0  0  0  0  0  0
    3.9171    5.0255   -4.4194 C   0  0  0  0  0  0  0  0  0  0  0  0
    4.9379    5.3272   -5.3224 C   0  0  0  0  0  0  0  0  0  0  0  0
    5.6527    4.2979   -5.9451 C   0  0  0  0  0  0  0  0  0  0  0  0
    7.0570    4.7018   -6.9889 S   0  0  0  0  0  0  0  0  0  0  0  0
    8.2239    4.9607   -5.6063 C   0  0  0  0  0  0  0  0  0  0  0  0
    8.5999    3.6457   -4.9314 C   0  0  0  0  0  0  0  0  0  0  0  0
    5.2940    2.9636   -5.7172 C   0  0  0  0  0  0  0  0  0  0  0  0
    4.2670    2.6585   -4.8198 C   0  0  0  0  0  0  0  0  0  0  0  0
    5.9479    1.9615   -6.3536 F   0  0  0  0  0  0  0  0  0  0  0  0
    1.1939    3.7190   -3.4356 C   0  0  0  0  0  0  0  0  0  0  0  0
    0.5380    4.1827   -4.9144 S   0  0  0  0  0  0  0  0  0  0  0  0
    3.9887    2.1087   -1.5881 C   0  0  0  0  0  0  0  0  0  0  0  0
    3.8846    1.3110   -0.4530 C   0  0  0  0  0  0  0  0  0  0  0  0
    2.3218    1.4641    0.1833 S   0  0  0  0  0  0  0  0  0  0  0  0
    4.6966    0.0968   -0.3103 C   0  0  0  0  0  0  0  0  0  0  0  0
    5.0740   -0.6748   -1.4013 C   0  0  0  0  0  0  0  0  0  0  0  0
    5.7172   -1.8592   -1.0485 C   0  0  0  0  0  0  0  0  0  0  0  0
    6.1747   -2.8329   -1.9530 C   0  0  0  0  0  0  0  0  0  0  0  0
    5.9875   -2.6827   -3.4119 C   0  0  0  0  0  0  0  0  0  0  0  0
    4.6994   -2.6700   -3.9729 C   0  0  0  0  0  0  0  0  0  0  0  0
    4.5278   -2.4396   -5.3445 C   0  0  0  0  0  0  0  0  0  0  0  0
    5.6417   -2.2161   -6.1641 C   0  0  0  0  0  0  0  0  0  0  0  0
    5.4091   -1.8267   -7.9039 S   0  0  0  0  0  0  0  0  0  0  0  0
    5.6610   -3.5375   -8.5013 C   0  0  0  0  0  0  0  0  0  0  0  0
    4.4125   -4.3873   -8.2809 C   0  0  0  0  0  0  0  0  0  0  0  0
    6.9313   -2.2369   -5.6062 C   0  0  0  0  0  0  0  0  0  0  0  0
    8.0191   -2.0099   -6.3851 F   0  0  0  0  0  0  0  0  0  0  0  0
    7.1013   -2.4728   -4.2384 C   0  0  0  0  0  0  0  0  0  0  0  0
    6.8303   -3.9420   -1.4043 C   0  0  0  0  0  0  0  0  0  0  0  0
    7.0332   -4.0960   -0.0297 C   0  0  0  0  0  0  0  0  0  0  0  0
    6.5583   -3.1213    0.8842 C   0  0  0  0  0  0  0  0  0  0  0  0
    6.8056   -3.2451    2.3407 C   0  0  0  0  0  0  0  0  0  0  0  0
    7.5758   -2.2821    3.0097 C   0  0  0  0  0  0  0  0  0  0  0  0
    7.9556   -2.4849    4.3433 C   0  0  0  0  0  0  0  0  0  0  0  0
    7.5525   -3.6400    5.0215 C   0  0  0  0  0  0  0  0  0  0  0  0
    8.1602   -3.9829    6.6771 S   0  0  0  0  0  0  0  0  0  0  0  0
    6.7962   -3.1448    7.5486 C   0  0  0  0  0  0  0  0  0  0  0  0
    7.1886   -1.7103    7.8840 C   0  0  0  0  0  0  0  0  0  0  0  0
    6.7314   -4.5711    4.3767 C   0  0  0  0  0  0  0  0  0  0  0  0
    6.3676   -4.3762    3.0429 C   0  0  0  0  0  0  0  0  0  0  0  0
    6.3276   -5.6917    5.0220 F   0  0  0  0  0  0  0  0  0  0  0  0
    5.8906   -2.0033    0.3316 C   0  0  0  0  0  0  0  0  0  0  0  0
    5.1725   -0.6796    1.1145 S   0  0  0  0  0  0  0  0  0  0  0  0
    7.7629   -5.2584    0.2801 C   0  0  0  0  0  0  0  0  0  0  0  0
    8.0848   -6.0226   -0.8375 C   0  0  0  0  0  0  0  0  0  0  0  0
    7.4926   -5.2520   -2.2159 S   0  0  0  0  0  0  0  0  0  0  0  0
   -1.4203    0.8860   10.7808 H   0  0  0  0  0  0  0  0  0  0  0  0
   -3.3737    1.6871    9.2638 H   0  0  0  0  0  0  0  0  0  0  0  0
   -2.9700    2.9615    6.9782 H   0  0  0  0  0  0  0  0  0  0  0  0
   -4.4003    4.9561    6.7890 H   0  0  0  0  0  0  0  0  0  0  0  0
   -6.3166    4.6768    4.0107 H   0  0  0  0  0  0  0  0  0  0  0  0
   -7.7272    5.7777    3.9040 H   0  0  0  0  0  0  0  0  0  0  0  0
   -6.3507    7.6753    4.7659 H   0  0  0  0  0  0  0  0  0  0  0  0
   -5.6108    6.9566    3.2841 H   0  0  0  0  0  0  0  0  0  0  0  0
   -4.9219    6.5654    4.9093 H   0  0  0  0  0  0  0  0  0  0  0  0
   -6.4206    0.4412    6.3768 H   0  0  0  0  0  0  0  0  0  0  0  0
   -1.9056   -4.4312    6.4006 H   0  0  0  0  0  0  0  0  0  0  0  0
   -0.0516   -6.0335    6.1131 H   0  0  0  0  0  0  0  0  0  0  0  0
    2.6413   -5.1653    8.3215 H   0  0  0  0  0  0  0  0  0  0  0  0
    4.1734   -5.9988    7.9175 H   0  0  0  0  0  0  0  0  0  0  0  0
    2.9387   -8.1396    7.5498 H   0  0  0  0  0  0  0  0  0  0  0  0
    1.3708   -7.2964    7.9009 H   0  0  0  0  0  0  0  0  0  0  0  0
    2.6188   -7.4735    9.1946 H   0  0  0  0  0  0  0  0  0  0  0  0
    0.9271   -1.1765    6.4578 H   0  0  0  0  0  0  0  0  0  0  0  0
   -1.9735   -2.9679    4.0298 H   0  0  0  0  0  0  0  0  0  0  0  0
   -1.8380   -2.5398    1.4860 H   0  0  0  0  0  0  0  0  0  0  0  0
   -1.3812   -4.7223   -2.3857 H   0  0  0  0  0  0  0  0  0  0  0  0
    0.9474   -5.4771   -2.2396 H   0  0  0  0  0  0  0  0  0  0  0  0
    4.0307   -5.5560    1.0924 H   0  0  0  0  0  0  0  0  0  0  0  0
    2.5301   -4.6251    1.4266 H   0  0  0  0  0  0  0  0  0  0  0  0
    2.6594   -7.1737   -0.3275 H   0  0  0  0  0  0  0  0  0  0  0  0
    1.1662   -6.3425    0.2875 H   0  0  0  0  0  0  0  0  0  0  0  0
    2.2756   -7.1709    1.4400 H   0  0  0  0  0  0  0  0  0  0  0  0
   -0.3842   -1.2047   -0.0971 H   0  0  0  0  0  0  0  0  0  0  0  0
   -6.8278   -0.0117   -0.4825 H   0  0  0  0  0  0  0  0  0  0  0  0
   -9.2790    0.1992   -0.5769 H   0  0  0  0  0  0  0  0  0  0  0  0
  -12.7994   -2.9427   -0.8087 H   0  0  0  0  0  0  0  0  0  0  0  0
  -11.1193   -3.5662   -0.8327 H   0  0  0  0  0  0  0  0  0  0  0  0
  -12.1325   -1.2232    0.9129 H   0  0  0  0  0  0  0  0  0  0  0  0
  -11.8976   -2.9267    1.4684 H   0  0  0  0  0  0  0  0  0  0  0  0
  -10.4612   -1.9510    0.9575 H   0  0  0  0  0  0  0  0  0  0  0  0
   -7.0542   -3.5869   -2.8830 H   0  0  0  0  0  0  0  0  0  0  0  0
   -5.8477   -1.4989   -4.2905 H   0  0  0  0  0  0  0  0  0  0  0  0
   -4.5778   -0.8544   -9.7193 H   0  0  0  0  0  0  0  0  0  0  0  0
   -3.3206    1.1159   -8.5797 H   0  0  0  0  0  0  0  0  0  0  0  0
   -1.0000   -0.1911   -5.4714 H   0  0  0  0  0  0  0  0  0  0  0  0
   -1.0215    1.4022   -4.6920 H   0  0  0  0  0  0  0  0  0  0  0  0
   -0.6673    0.7662   -7.7023 H   0  0  0  0  0  0  0  0  0  0  0  0
   -0.8093    2.4412   -7.0387 H   0  0  0  0  0  0  0  0  0  0  0  0
    0.5710    1.4108   -6.5540 H   0  0  0  0  0  0  0  0  0  0  0  0
   -6.3325    3.2778   -3.3116 H   0  0  0  0  0  0  0  0  0  0  0  0
   -4.3861    4.9153   -3.8928 H   0  0  0  0  0  0  0  0  0  0  0  0
   -2.7872    5.8999   -5.9701 H   0  0  0  0  0  0  0  0  0  0  0  0
   -1.2890    5.2765   -6.7535 H   0  0  0  0  0  0  0  0  0  0  0  0
   -3.1354    5.2595   -8.3677 H   0  0  0  0  0  0  0  0  0  0  0  0
   -4.1492    4.2542   -7.2761 H   0  0  0  0  0  0  0  0  0  0  0  0
   -2.6492    3.5601   -7.9976 H   0  0  0  0  0  0  0  0  0  0  0  0
   -2.0291    3.4565   -2.5474 H   0  0  0  0  0  0  0  0  0  0  0  0
   -0.2274    4.5945    0.7138 H   0  0  0  0  0  0  0  0  0  0  0  0
   -2.3107    4.5976    2.0192 H   0  0  0  0  0  0  0  0  0  0  0  0
   -5.3135    2.9932   -0.3377 H   0  0  0  0  0  0  0  0  0  0  0  0
   -6.6168    3.5215    0.7861 H   0  0  0  0  0  0  0  0  0  0  0  0
   -5.7991    5.4811   -0.4244 H   0  0  0  0  0  0  0  0  0  0  0  0
   -4.0888    5.1277    0.0096 H   0  0  0  0  0  0  0  0  0  0  0  0
   -5.2760    5.6226    1.2956 H   0  0  0  0  0  0  0  0  0  0  0  0
   -1.4063    0.8958   -1.1610 H   0  0  0  0  0  0  0  0  0  0  0  0
    3.3923    5.8273   -3.9195 H   0  0  0  0  0  0  0  0  0  0  0  0
    5.1978    6.3588   -5.5030 H   0  0  0  0  0  0  0  0  0  0  0  0
    7.7822    5.6586   -4.8615 H   0  0  0  0  0  0  0  0  0  0  0  0
    9.1382    5.4332   -6.0142 H   0  0  0  0  0  0  0  0  0  0  0  0
    8.9512    2.9068   -5.6750 H   0  0  0  0  0  0  0  0  0  0  0  0
    7.7334    3.2332   -4.3812 H   0  0  0  0  0  0  0  0  0  0  0  0
    9.4152    3.8264   -4.2049 H   0  0  0  0  0  0  0  0  0  0  0  0
    4.0016    1.6226   -4.6437 H   0  0  0  0  0  0  0  0  0  0  0  0
    4.8582    2.0968   -2.2310 H   0  0  0  0  0  0  0  0  0  0  0  0
    4.8485   -0.3956   -2.4223 H   0  0  0  0  0  0  0  0  0  0  0  0
    3.8236   -2.8155   -3.3554 H   0  0  0  0  0  0  0  0  0  0  0  0
    3.5300   -2.4083   -5.7646 H   0  0  0  0  0  0  0  0  0  0  0  0
    6.5351   -4.0074   -7.9933 H   0  0  0  0  0  0  0  0  0  0  0  0
    5.8704   -3.4965   -9.5910 H   0  0  0  0  0  0  0  0  0  0  0  0
    4.2672   -4.5885   -7.1972 H   0  0  0  0  0  0  0  0  0  0  0  0
    4.5249   -5.3632   -8.8013 H   0  0  0  0  0  0  0  0  0  0  0  0
    3.5138   -3.8644   -8.6733 H   0  0  0  0  0  0  0  0  0  0  0  0
    8.0988   -2.4633   -3.8171 H   0  0  0  0  0  0  0  0  0  0  0  0
    7.9415   -1.4092    2.4811 H   0  0  0  0  0  0  0  0  0  0  0  0
    8.5972   -1.7585    4.8226 H   0  0  0  0  0  0  0  0  0  0  0  0
    5.8587   -3.1557    6.9487 H   0  0  0  0  0  0  0  0  0  0  0  0
    6.6079   -3.6935    8.4953 H   0  0  0  0  0  0  0  0  0  0  0  0
    8.1268   -1.7086    8.4810 H   0  0  0  0  0  0  0  0  0  0  0  0
    7.3423   -1.1281    6.9504 H   0  0  0  0  0  0  0  0  0  0  0  0
    6.3779   -1.2378    8.4738 H   0  0  0  0  0  0  0  0  0  0  0  0
    5.7799   -5.1313    2.5454 H   0  0  0  0  0  0  0  0  0  0  0  0
    8.0570   -5.5506    1.2799 H   0  0  0  0  0  0  0  0  0  0  0  0
    8.6432   -6.9482   -0.8160 H   0  0  0  0  0  0  0  0  0  0  0  0
  1  2  2  0
  2  3  1  0
  3  4  2  0
  4  5  1  0
  5  6  2  0
  6  7  1  0
  7  8  2  0
  8  9  1  0
  9 10  1  0
 10 11  1  0
  8 12  1  0
 12 13  1  0
 12 14  2  0
  4 15  1  0
 15 16  2  0
 16 17  1  0
 17 18  1  0
 18 19  2  0
 19 20  1  0
 20 21  2  0
 21 22  1  0
 22 23  1  0
 23 24  1  0
 21 25  1  0
 25 26  2  0
 25 27  1  0
 17 28  2  0
 28 29  1  0
 16 30  1  0
 30 31  2  0
 31 32  1  0
 31 33  1  0
 33 34  2  0
 34 35  1  0
 35 36  2  0
 36 37  1  0
 37 38  2  0
 38 39  1  0
 39 40  2  0
 40 41  1  0
 41 42  1  0
 42 43  1  0
 40 44  1  0
 44 45  1  0
 44 46  2  0
 36 47  1  0
 47 48  2  0
 48 49  1  0
 49 50  1  0
 50 51  2  0
 51 52  1  0
 52 53  2  0
 53 54  1  0
 54 55  1  0
 55 56  1  0
 53 57  1  0
 57 58  2  0
 57 59  1  0
 49 60  2  0
 60 61  1  0
 48 62  1  0
 62 63  2  0
 63 64  1  0
 63 65  1  0
 65 66  1  0
 66 67  1  0
 67 68  2  0
 68 69  1  0
 69 70  1  0
 70 71  1  0
 71 72  1  0
 70 73  1  0
 73 74  1  0
 74 75  1  0
 75 76  2  0
 76 77  1  0
 77 78  1  0
 78 79  1  0
 79 80  1  0
 78 81  1  0
 81 82  2  0
 82 83  1  0
 83 84  2  0
 84 85  1  0
 85 86  2  0
 86 87  1  0
 87 88  2  0
 88 89  1  0
 89 90  1  0
 90 91  1  0
 88 92  1  0
 92 93  1  0
 92 94  2  0
 84 95  1  0
 95 96  2  0
 96 97  1  0
 97 98  1  0
 98 99  2  0
 99100  1  0
100101  2  0
101102  1  0
102103  1  0
103104  1  0
101105  1  0
105106  2  0
105107  1  0
 97108  2  0
108109  1  0
 96110  1  0
110111  2  0
111112  1  0
111113  1  0
113114  2  0
114115  1  0
115116  2  0
116117  1  0
117118  2  0
118119  1  0
119120  2  0
120121  1  0
121122  1  0
122123  1  0
120124  1  0
124125  1  0
124126  2  0
116127  1  0
127128  2  0
128129  1  0
129130  1  0
130131  2  0
131132  1  0
132133  2  0
133134  1  0
134135  1  0
135136  1  0
133137  1  0
137138  2  0
137139  1  0
129140  2  0
140141  1  0
128142  1  0
142143  2  0
143144  1  0
 29  1  1  0
 61 33  1  0
 69 65  2  0
 77 73  2  0
109 81  1  0
141113  1  0
 28  3  1  0
 60 35  1  0
108 83  1  0
140115  1  0
 14  5  1  0
 32 15  1  0
 46 37  1  0
 64 47  1  0
 94 85  1  0
112 95  1  0
126117  1  0
144127  1  0
 26 18  1  0
 58 50  1  0
106 98  1  0
138130  1  0
  1145  1  0
  2146  1  0
  6147  1  0
  7148  1  0
 10149  1  0
 10150  1  0
 11151  1  0
 11152  1  0
 11153  1  0
 14154  1  0
 19155  1  0
 20156  1  0
 23157  1  0
 23158  1  0
 24159  1  0
 24160  1  0
 24161  1  0
 26162  1  0
 30163  1  0
 34164  1  0
 38165  1  0
 39166  1  0
 42167  1  0
 42168  1  0
 43169  1  0
 43170  1  0
 43171  1  0
 46172  1  0
 51173  1  0
 52174  1  0
 55175  1  0
 55176  1  0
 56177  1  0
 56178  1  0
 56179  1  0
 58180  1  0
 62181  1  0
 67182  1  0
 68183  1  0
 71184  1  0
 71185  1  0
 72186  1  0
 72187  1  0
 72188  1  0
 75189  1  0
 76190  1  0
 79191  1  0
 79192  1  0
 80193  1  0
 80194  1  0
 80195  1  0
 82196  1  0
 86197  1  0
 87198  1  0
 90199  1  0
 90200  1  0
 91201  1  0
 91202  1  0
 91203  1  0
 94204  1  0
 99205  1  0
100206  1  0
103207  1  0
103208  1  0
104209  1  0
104210  1  0
104211  1  0
106212  1  0
110213  1  0
114214  1  0
118215  1  0
119216  1  0
122217  1  0
122218  1  0
123219  1  0
123220  1  0
123221  1  0
126222  1  0
131223  1  0
132224  1  0
135225  1  0
135226  1  0
136227  1  0
136228  1  0
136229  1  0
138230  1  0
142231  1  0
143232  1  0
M  END

