
     RDKit          3D

200220  0  0  0  0  0  0  0  0999 V2000
    6.4506   -7.8566    7.7068 C   0  0  0  0  0  0  0  0  0  0  0  0
    6.4611   -6.4650    7.6865 C   0  0  0  0  0  0  0  0  0  0  0  0
    5.1804   -5.9025    7.5589 C   0  0  0  0  0  0  0  0  0  0  0  0
    4.8756   -4.5292    7.4454 C   0  0  0  0  0  0  0  0  0  0  0  0
    5.9315   -3.5026    7.3995 C   0  0  0  0  0  0  0  0  0  0  0  0
    7.0005   -3.1599    8.6545 S   0  0  0  0  0  0  0  0  0  0  0  0
    7.9365   -2.0590    7.7928 C   0  0  0  0  0  0  0  0  0  0  0  0
    9.2102   -1.4565    8.3010 C   0  0  0  0  0  0  0  0  0  0  0  0
   10.3945   -2.3646    7.9806 C   0  0  0  0  0  0  0  0  0  0  0  0
    7.4397   -1.9665    6.4952 C   0  0  0  0  0  0  0  0  0  0  0  0
    8.1811   -0.9828    5.2385 Cl  0  0  0  0  0  0  0  0  0  0  0  0
    6.3160   -2.7733    6.2745 C   0  0  0  0  0  0  0  0  0  0  0  0
    5.5363   -2.9252    4.7041 Cl  0  0  0  0  0  0  0  0  0  0  0  0
    3.5246   -4.1892    7.2685 C   0  0  0  0  0  0  0  0  0  0  0  0
    2.5159   -5.1512    7.1652 C   0  0  0  0  0  0  0  0  0  0  0  0
    2.8178   -6.5246    7.2636 C   0  0  0  0  0  0  0  0  0  0  0  0
    1.7863   -7.5622    7.0745 C   0  0  0  0  0  0  0  0  0  0  0  0
    0.8855   -7.7691    5.6661 S   0  0  0  0  0  0  0  0  0  0  0  0
   -0.0573   -9.0370    6.2395 C   0  0  0  0  0  0  0  0  0  0  0  0
   -1.1165   -9.7299    5.4392 C   0  0  0  0  0  0  0  0  0  0  0  0
   -0.5417  -10.9304    4.6963 C   0  0  0  0  0  0  0  0  0  0  0  0
    0.3360   -9.3334    7.5433 C   0  0  0  0  0  0  0  0  0  0  0  0
    1.3659   -8.5014    8.0154 C   0  0  0  0  0  0  0  0  0  0  0  0
    2.0070   -8.5936    9.6500 Cl  0  0  0  0  0  0  0  0  0  0  0  0
   -0.3868  -10.6131    8.5072 Cl  0  0  0  0  0  0  0  0  0  0  0  0
    4.1667   -6.8620    7.4754 C   0  0  0  0  0  0  0  0  0  0  0  0
    4.8606   -8.3932    7.5488 S   0  0  0  0  0  0  0  0  0  0  0  0
    1.2534   -4.5930    6.9114 C   0  0  0  0  0  0  0  0  0  0  0  0
    1.2752   -3.2030    6.8237 C   0  0  0  0  0  0  0  0  0  0  0  0
    2.8565   -2.6599    7.0492 S   0  0  0  0  0  0  0  0  0  0  0  0
    0.1934   -2.4067    6.2329 C   0  0  0  0  0  0  0  0  0  0  0  0
   -0.6566   -2.9081    4.8802 S   0  0  0  0  0  0  0  0  0  0  0  0
   -1.4930   -1.4750    4.5790 C   0  0  0  0  0  0  0  0  0  0  0  0
   -1.1210   -0.5693    5.5801 C   0  0  0  0  0  0  0  0  0  0  0  0
   -0.1645   -1.0818    6.4853 C   0  0  0  0  0  0  0  0  0  0  0  0
    0.3331   -0.2858    7.5164 C   0  0  0  0  0  0  0  0  0  0  0  0
   -0.1302    1.0357    7.6597 C   0  0  0  0  0  0  0  0  0  0  0  0
    0.4004    1.8938    8.7727 C   0  0  0  0  0  0  0  0  0  0  0  0
   -1.1288    1.5369    6.7910 C   0  0  0  0  0  0  0  0  0  0  0  0
   -1.6220    2.8354    7.0127 O   0  0  0  0  0  0  0  0  0  0  0  0
   -2.7472    3.3955    6.3464 C   0  0  0  0  0  0  0  0  0  0  0  0
   -1.6084    0.7325    5.7314 C   0  0  0  0  0  0  0  0  0  0  0  0
   -2.2123   -1.1819    3.3180 C   0  0  0  0  0  0  0  0  0  0  0  0
   -2.4000   -2.1548    2.4177 C   0  0  0  0  0  0  0  0  0  0  0  0
   -2.7163   -1.9179    1.0052 C   0  0  0  0  0  0  0  0  0  0  0  0
   -2.3009   -2.7863    0.0071 C   0  0  0  0  0  0  0  0  0  0  0  0
   -2.6342   -2.3476   -1.2777 C   0  0  0  0  0  0  0  0  0  0  0  0
   -2.2767   -2.9864   -2.4784 C   0  0  0  0  0  0  0  0  0  0  0  0
   -1.5041   -4.2409   -2.4921 C   0  0  0  0  0  0  0  0  0  0  0  0
    0.0735   -4.3891   -3.0528 S   0  0  0  0  0  0  0  0  0  0  0  0
    0.2576   -6.0107   -2.6520 C   0  0  0  0  0  0  0  0  0  0  0  0
    1.5182   -6.8000   -2.8477 C   0  0  0  0  0  0  0  0  0  0  0  0
    2.3503   -6.8206   -1.5693 C   0  0  0  0  0  0  0  0  0  0  0  0
   -0.9185   -6.4593   -2.0514 C   0  0  0  0  0  0  0  0  0  0  0  0
   -1.1384   -8.0954   -1.4487 Cl  0  0  0  0  0  0  0  0  0  0  0  0
   -1.9093   -5.4666   -1.9657 C   0  0  0  0  0  0  0  0  0  0  0  0
   -3.5029   -5.7521   -1.2820 Cl  0  0  0  0  0  0  0  0  0  0  0  0
   -2.6326   -2.3384   -3.6682 C   0  0  0  0  0  0  0  0  0  0  0  0
   -3.3543   -1.1428   -3.6911 C   0  0  0  0  0  0  0  0  0  0  0  0
   -3.7361   -0.5144   -2.4839 C   0  0  0  0  0  0  0  0  0  0  0  0
   -4.5851    0.6901   -2.4745 C   0  0  0  0  0  0  0  0  0  0  0  0
   -4.1883    2.1643   -1.7646 S   0  0  0  0  0  0  0  0  0  0  0  0
   -5.6466    2.9319   -2.1164 C   0  0  0  0  0  0  0  0  0  0  0  0
   -6.0312    4.2990   -1.6343 C   0  0  0  0  0  0  0  0  0  0  0  0
   -6.6940    4.2142   -0.2623 C   0  0  0  0  0  0  0  0  0  0  0  0
   -6.4781    2.0278   -2.7714 C   0  0  0  0  0  0  0  0  0  0  0  0
   -5.8828    0.7756   -2.9792 C   0  0  0  0  0  0  0  0  0  0  0  0
   -6.7353   -0.5844   -3.7050 Cl  0  0  0  0  0  0  0  0  0  0  0  0
   -8.1294    2.3984   -3.2484 Cl  0  0  0  0  0  0  0  0  0  0  0  0
   -3.3216   -1.1288   -1.2853 C   0  0  0  0  0  0  0  0  0  0  0  0
   -3.5039   -0.5934    0.3100 S   0  0  0  0  0  0  0  0  0  0  0  0
   -3.5624   -0.6565   -4.9955 C   0  0  0  0  0  0  0  0  0  0  0  0
   -3.0041   -1.4702   -5.9897 C   0  0  0  0  0  0  0  0  0  0  0  0
   -2.2494   -2.7803   -5.2373 S   0  0  0  0  0  0  0  0  0  0  0  0
   -2.8745   -1.0889   -7.4153 C   0  0  0  0  0  0  0  0  0  0  0  0
   -3.1760    0.4742   -7.9671 S   0  0  0  0  0  0  0  0  0  0  0  0
   -2.4520    0.3203   -9.4802 C   0  0  0  0  0  0  0  0  0  0  0  0
   -2.0171   -0.9978   -9.6077 C   0  0  0  0  0  0  0  0  0  0  0  0
   -2.2545   -1.7906   -8.4658 C   0  0  0  0  0  0  0  0  0  0  0  0
   -1.8793   -3.1422   -8.4718 C   0  0  0  0  0  0  0  0  0  0  0  0
   -1.2145   -3.6814   -9.5889 C   0  0  0  0  0  0  0  0  0  0  0  0
   -0.7748   -5.1176   -9.5736 C   0  0  0  0  0  0  0  0  0  0  0  0
   -0.9403   -2.8738  -10.7146 C   0  0  0  0  0  0  0  0  0  0  0  0
   -0.2548   -3.4433  -11.8012 O   0  0  0  0  0  0  0  0  0  0  0  0
    0.0624   -2.7520  -13.0073 C   0  0  0  0  0  0  0  0  0  0  0  0
   -1.3566   -1.5259  -10.7230 C   0  0  0  0  0  0  0  0  0  0  0  0
   -2.3331    1.3792  -10.5029 C   0  0  0  0  0  0  0  0  0  0  0  0
   -2.0483    2.6644  -10.2513 C   0  0  0  0  0  0  0  0  0  0  0  0
   -1.6463    3.2066   -8.9363 C   0  0  0  0  0  0  0  0  0  0  0  0
   -0.5841    2.4875   -7.8401 S   0  0  0  0  0  0  0  0  0  0  0  0
   -0.6195    3.7009   -6.6763 C   0  0  0  0  0  0  0  0  0  0  0  0
   -1.4142    4.7446   -7.1745 C   0  0  0  0  0  0  0  0  0  0  0  0
   -1.9868    4.4596   -8.4280 C   0  0  0  0  0  0  0  0  0  0  0  0
   -2.8252    5.3862   -9.0530 C   0  0  0  0  0  0  0  0  0  0  0  0
   -3.0670    6.6305   -8.4390 C   0  0  0  0  0  0  0  0  0  0  0  0
   -3.9726    7.6259   -9.1069 C   0  0  0  0  0  0  0  0  0  0  0  0
   -2.4387    6.9511   -7.2114 C   0  0  0  0  0  0  0  0  0  0  0  0
   -2.6497    8.2277   -6.6623 O   0  0  0  0  0  0  0  0  0  0  0  0
   -2.0300    8.7107   -5.4749 C   0  0  0  0  0  0  0  0  0  0  0  0
   -1.6118    5.9964   -6.5792 C   0  0  0  0  0  0  0  0  0  0  0  0
   -0.0384    3.5241   -5.3298 C   0  0  0  0  0  0  0  0  0  0  0  0
   -0.6678    3.9291   -4.2239 C   0  0  0  0  0  0  0  0  0  0  0  0
   -0.2160    3.5678   -2.8686 C   0  0  0  0  0  0  0  0  0  0  0  0
   -0.7358    4.1132   -1.6988 C   0  0  0  0  0  0  0  0  0  0  0  0
   -0.2246    3.5161   -0.5346 C   0  0  0  0  0  0  0  0  0  0  0  0
   -0.5376    3.8686    0.7932 C   0  0  0  0  0  0  0  0  0  0  0  0
   -1.4619    4.9716    1.1073 C   0  0  0  0  0  0  0  0  0  0  0  0
   -3.0816    5.0176    0.6681 S   0  0  0  0  0  0  0  0  0  0  0  0
   -3.3836    6.5665    1.2567 C   0  0  0  0  0  0  0  0  0  0  0  0
   -4.7074    7.2603    1.1871 C   0  0  0  0  0  0  0  0  0  0  0  0
   -5.5283    6.9820    2.4431 C   0  0  0  0  0  0  0  0  0  0  0  0
   -2.2136    7.0647    1.8249 C   0  0  0  0  0  0  0  0  0  0  0  0
   -2.0937    8.6578    2.5612 Cl  0  0  0  0  0  0  0  0  0  0  0  0
   -1.1327    6.1751    1.7309 C   0  0  0  0  0  0  0  0  0  0  0  0
    0.4879    6.5706    2.2823 Cl  0  0  0  0  0  0  0  0  0  0  0  0
    0.0889    3.1296    1.8101 C   0  0  0  0  0  0  0  0  0  0  0  0
    0.9933    2.0988    1.5463 C   0  0  0  0  0  0  0  0  0  0  0  0
    1.3305    1.7649    0.2189 C   0  0  0  0  0  0  0  0  0  0  0  0
    2.3152    0.7107   -0.0871 C   0  0  0  0  0  0  0  0  0  0  0  0
    3.9311    0.7460    0.3872 S   0  0  0  0  0  0  0  0  0  0  0  0
    4.3335   -0.7573   -0.2518 C   0  0  0  0  0  0  0  0  0  0  0  0
    5.7074   -1.3533   -0.2186 C   0  0  0  0  0  0  0  0  0  0  0  0
    6.5067   -0.9288   -1.4453 C   0  0  0  0  0  0  0  0  0  0  0  0
    3.2044   -1.3017   -0.8614 C   0  0  0  0  0  0  0  0  0  0  0  0
    2.0702   -0.4827   -0.7587 C   0  0  0  0  0  0  0  0  0  0  0  0
    0.4866   -0.9468   -1.3692 Cl  0  0  0  0  0  0  0  0  0  0  0  0
    3.1947   -2.8578   -1.6768 Cl  0  0  0  0  0  0  0  0  0  0  0  0
    0.6978    2.4980   -0.8006 C   0  0  0  0  0  0  0  0  0  0  0  0
    0.8875    2.3499   -2.4684 S   0  0  0  0  0  0  0  0  0  0  0  0
    1.4600    1.4660    2.7113 C   0  0  0  0  0  0  0  0  0  0  0  0
    0.9369    2.0078    3.8784 C   0  0  0  0  0  0  0  0  0  0  0  0
   -0.1195    3.2591    3.4740 S   0  0  0  0  0  0  0  0  0  0  0  0
    7.3253   -8.4870    7.7827 H   0  0  0  0  0  0  0  0  0  0  0  0
    7.3739   -5.8908    7.7400 H   0  0  0  0  0  0  0  0  0  0  0  0
    9.1398   -1.3156    9.4011 H   0  0  0  0  0  0  0  0  0  0  0  0
    9.3690   -0.4606    7.8357 H   0  0  0  0  0  0  0  0  0  0  0  0
   10.4986   -2.4850    6.8802 H   0  0  0  0  0  0  0  0  0  0  0  0
   10.2546   -3.3651    8.4427 H   0  0  0  0  0  0  0  0  0  0  0  0
   11.3267   -1.9168    8.3832 H   0  0  0  0  0  0  0  0  0  0  0  0
   -1.9422  -10.0620    6.1053 H   0  0  0  0  0  0  0  0  0  0  0  0
   -1.5427   -9.0168    4.6996 H   0  0  0  0  0  0  0  0  0  0  0  0
   -0.1424  -11.6754    5.4195 H   0  0  0  0  0  0  0  0  0  0  0  0
   -1.3396  -11.4113    4.0933 H   0  0  0  0  0  0  0  0  0  0  0  0
    0.2731  -10.6073    4.0133 H   0  0  0  0  0  0  0  0  0  0  0  0
    0.3576   -5.1752    6.7493 H   0  0  0  0  0  0  0  0  0  0  0  0
    1.0620   -0.6822    8.2118 H   0  0  0  0  0  0  0  0  0  0  0  0
    1.2610    1.4137    9.2845 H   0  0  0  0  0  0  0  0  0  0  0  0
    0.7395    2.8712    8.3671 H   0  0  0  0  0  0  0  0  0  0  0  0
   -0.4017    2.0691    9.5198 H   0  0  0  0  0  0  0  0  0  0  0  0
   -2.5393    3.5092    5.2618 H   0  0  0  0  0  0  0  0  0  0  0  0
   -2.9573    4.3988    6.7712 H   0  0  0  0  0  0  0  0  0  0  0  0
   -3.6396    2.7513    6.4971 H   0  0  0  0  0  0  0  0  0  0  0  0
   -2.3622    1.1085    5.0546 H   0  0  0  0  0  0  0  0  0  0  0  0
   -2.4313   -0.1555    3.0574 H   0  0  0  0  0  0  0  0  0  0  0  0
   -2.1544   -3.1779    2.6723 H   0  0  0  0  0  0  0  0  0  0  0  0
   -1.7304   -3.6850    0.2078 H   0  0  0  0  0  0  0  0  0  0  0  0
    1.2683   -7.8387   -3.1485 H   0  0  0  0  0  0  0  0  0  0  0  0
    2.1162   -6.3430   -3.6649 H   0  0  0  0  0  0  0  0  0  0  0  0
    1.7789   -7.2876   -0.7399 H   0  0  0  0  0  0  0  0  0  0  0  0
    2.6345   -5.7870   -1.2773 H   0  0  0  0  0  0  0  0  0  0  0  0
    3.2754   -7.4096   -1.7411 H   0  0  0  0  0  0  0  0  0  0  0  0
   -5.1244    4.9422   -1.5751 H   0  0  0  0  0  0  0  0  0  0  0  0
   -6.7337    4.7712   -2.3533 H   0  0  0  0  0  0  0  0  0  0  0  0
   -7.0103    5.2260    0.0634 H   0  0  0  0  0  0  0  0  0  0  0  0
   -7.5952    3.5624   -0.3100 H   0  0  0  0  0  0  0  0  0  0  0  0
   -5.9790    3.8036    0.4857 H   0  0  0  0  0  0  0  0  0  0  0  0
   -4.0550    0.2832   -5.2070 H   0  0  0  0  0  0  0  0  0  0  0  0
   -2.1213   -3.7904   -7.6461 H   0  0  0  0  0  0  0  0  0  0  0  0
   -1.1761   -5.6451  -10.4642 H   0  0  0  0  0  0  0  0  0  0  0  0
    0.3338   -5.1640   -9.5954 H   0  0  0  0  0  0  0  0  0  0  0  0
   -1.1312   -5.6468   -8.6654 H   0  0  0  0  0  0  0  0  0  0  0  0
   -0.8699   -2.4302  -13.5179 H   0  0  0  0  0  0  0  0  0  0  0  0
    0.6202   -3.4372  -13.6759 H   0  0  0  0  0  0  0  0  0  0  0  0
    0.7044   -1.8730  -12.7866 H   0  0  0  0  0  0  0  0  0  0  0  0
   -1.1621   -0.8943  -11.5771 H   0  0  0  0  0  0  0  0  0  0  0  0
   -2.5042    1.0969  -11.5338 H   0  0  0  0  0  0  0  0  0  0  0  0
   -2.0942    3.3607  -11.0803 H   0  0  0  0  0  0  0  0  0  0  0  0
   -3.2918    5.1499  -10.0009 H   0  0  0  0  0  0  0  0  0  0  0  0
   -4.7882    7.9138   -8.4113 H   0  0  0  0  0  0  0  0  0  0  0  0
   -3.3925    8.5309   -9.3808 H   0  0  0  0  0  0  0  0  0  0  0  0
   -4.4327    7.2099  -10.0266 H   0  0  0  0  0  0  0  0  0  0  0  0
   -2.3224    8.0796   -4.6082 H   0  0  0  0  0  0  0  0  0  0  0  0
   -0.9243    8.7121   -5.5924 H   0  0  0  0  0  0  0  0  0  0  0  0
   -2.3678    9.7487   -5.2857 H   0  0  0  0  0  0  0  0  0  0  0  0
   -1.1017    6.2421   -5.6609 H   0  0  0  0  0  0  0  0  0  0  0  0
    0.8470    2.9073   -5.2467 H   0  0  0  0  0  0  0  0  0  0  0  0
   -1.5958    4.4788   -4.3007 H   0  0  0  0  0  0  0  0  0  0  0  0
   -1.4606    4.9156   -1.7023 H   0  0  0  0  0  0  0  0  0  0  0  0
   -4.5598    8.3564    1.0722 H   0  0  0  0  0  0  0  0  0  0  0  0
   -5.2641    6.8998    0.2944 H   0  0  0  0  0  0  0  0  0  0  0  0
   -6.5345    7.4371    2.3363 H   0  0  0  0  0  0  0  0  0  0  0  0
   -5.6444    5.8892    2.6014 H   0  0  0  0  0  0  0  0  0  0  0  0
   -5.0281    7.4296    3.3280 H   0  0  0  0  0  0  0  0  0  0  0  0
    6.2328   -1.0096    0.6960 H   0  0  0  0  0  0  0  0  0  0  0  0
    5.6418   -2.4611   -0.1793 H   0  0  0  0  0  0  0  0  0  0  0  0
    7.4989   -1.4254   -1.4324 H   0  0  0  0  0  0  0  0  0  0  0  0
    5.9751   -1.2203   -2.3764 H   0  0  0  0  0  0  0  0  0  0  0  0
    6.6588    0.1699   -1.4410 H   0  0  0  0  0  0  0  0  0  0  0  0
    2.1450    0.6292    2.7156 H   0  0  0  0  0  0  0  0  0  0  0  0
    1.1621    1.6685    4.8813 H   0  0  0  0  0  0  0  0  0  0  0  0
  1  2  2  0
  2  3  1  0
  3  4  2  0
  4  5  1  0
  5  6  1  0
  6  7  1  0
  7  8  1  0
  8  9  1  0
  7 10  2  0
 10 11  1  0
 10 12  1  0
 12 13  1  0
  4 14  1  0
 14 15  2  0
 15 16  1  0
 16 17  1  0
 17 18  1  0
 18 19  1  0
 19 20  1  0
 20 21  1  0
 19 22  2  0
 22 23  1  0
 23 24  1  0
 22 25  1  0
 16 26  2  0
 26 27  1  0
 15 28  1  0
 28 29  2  0
 29 30  1  0
 29 31  1  0
 31 32  1  0
 32 33  1  0
 33 34  2  0
 34 35  1  0
 35 36  1  0
 36 37  2  0
 37 38  1  0
 37 39  1  0
 39 40  1  0
 40 41  1  0
 39 42  2  0
 33 43  1  0
 43 44  2  3
 44 45  1  0
 45 46  2  0
 46 47  1  0
 47 48  2  0
 48 49  1  0
 49 50  1  0
 50 51  1  0
 51 52  1  0
 52 53  1  0
 51 54  2  0
 54 55  1  0
 54 56  1  0
 56 57  1  0
 48 58  1  0
 58 59  2  0
 59 60  1  0
 60 61  1  0
 61 62  1  0
 62 63  1  0
 63 64  1  0
 64 65  1  0
 63 66  2  0
 66 67  1  0
 67 68  1  0
 66 69  1  0
 60 70  2  0
 70 71  1  0
 59 72  1  0
 72 73  2  0
 73 74  1  0
 73 75  1  0
 75 76  1  0
 76 77  1  0
 77 78  2  0
 78 79  1  0
 79 80  1  0
 80 81  2  0
 81 82  1  0
 81 83  1  0
 83 84  1  0
 84 85  1  0
 83 86  2  0
 77 87  1  0
 87 88  2  3
 88 89  1  0
 89 90  1  0
 90 91  1  0
 91 92  2  0
 92 93  1  0
 93 94  1  0
 94 95  2  0
 95 96  1  0
 95 97  1  0
 97 98  1  0
 98 99  1  0
 97100  2  0
 91101  1  0
101102  2  3
102103  1  0
103104  2  0
104105  1  0
105106  2  0
106107  1  0
107108  1  0
108109  1  0
109110  1  0
110111  1  0
109112  2  0
112113  1  0
112114  1  0
114115  1  0
106116  1  0
116117  2  0
117118  1  0
118119  1  0
119120  1  0
120121  1  0
121122  1  0
122123  1  0
121124  2  0
124125  1  0
125126  1  0
124127  1  0
118128  2  0
128129  1  0
117130  1  0
130131  2  0
131132  1  0
 27  1  1  0
 35 31  2  0
 71 45  1  0
 79 75  2  0
 93 89  2  0
129103  1  0
 26  3  1  0
 42 34  1  0
 70 47  1  0
 86 78  1  0
100 92  1  0
128105  1  0
 12  5  2  0
 30 14  1  0
 56 49  2  0
 74 58  1  0
114107  2  0
132116  1  0
 23 17  2  0
 67 61  2  0
125119  2  0
  1133  1  0
  2134  1  0
  8135  1  0
  8136  1  0
  9137  1  0
  9138  1  0
  9139  1  0
 20140  1  0
 20141  1  0
 21142  1  0
 21143  1  0
 21144  1  0
 28145  1  0
 36146  1  0
 38147  1  0
 38148  1  0
 38149  1  0
 41150  1  0
 41151  1  0
 41152  1  0
 42153  1  0
 43154  1  0
 44155  1  0
 46156  1  0
 52157  1  0
 52158  1  0
 53159  1  0
 53160  1  0
 53161  1  0
 64162  1  0
 64163  1  0
 65164  1  0
 65165  1  0
 65166  1  0
 72167  1  0
 80168  1  0
 82169  1  0
 82170  1  0
 82171  1  0
 85172  1  0
 85173  1  0
 85174  1  0
 86175  1  0
 87176  1  0
 88177  1  0
 94178  1  0
 96179  1  0
 96180  1  0
 96181  1  0
 99182  1  0
 99183  1  0
 99184  1  0
100185  1  0
101186  1  0
102187  1  0
104188  1  0
110189  1  0
110190  1  0
111191  1  0
111192  1  0
111193  1  0
122194  1  0
122195  1  0
123196  1  0
123197  1  0
123198  1  0
130199  1  0
131200  1  0
M  END

