
     RDKit          3D

236262  0  0  0  0  0  0  0  0999 V2000
    3.4837   -4.6594   12.7688 C   0  0  0  0  0  0  0  0  0  0  0  0
    4.1393   -3.4723   12.4563 C   0  0  0  0  0  0  0  0  0  0  0  0
    3.6017   -2.8195   11.3346 C   0  0  0  0  0  0  0  0  0  0  0  0
    4.0534   -1.6083   10.7689 C   0  0  0  0  0  0  0  0  0  0  0  0
    5.2219   -0.8838   11.3025 C   0  0  0  0  0  0  0  0  0  0  0  0
    5.1804    0.6770   11.9325 S   0  0  0  0  0  0  0  0  0  0  0  0
    6.8239    0.7752   12.2757 C   0  0  0  0  0  0  0  0  0  0  0  0
    7.5070    1.9923   12.8212 C   0  0  0  0  0  0  0  0  0  0  0  0
    8.0254    2.8727   11.6904 C   0  0  0  0  0  0  0  0  0  0  0  0
    7.4385   -0.4071   11.8647 C   0  0  0  0  0  0  0  0  0  0  0  0
    9.1681   -0.6963   11.9835 Cl  0  0  0  0  0  0  0  0  0  0  0  0
    6.5384   -1.3405   11.3271 C   0  0  0  0  0  0  0  0  0  0  0  0
    7.0382   -2.8940   10.6696 Cl  0  0  0  0  0  0  0  0  0  0  0  0
    3.3471   -1.1257    9.6528 C   0  0  0  0  0  0  0  0  0  0  0  0
    2.2606   -1.8096    9.0970 C   0  0  0  0  0  0  0  0  0  0  0  0
    1.8088   -3.0192    9.6614 C   0  0  0  0  0  0  0  0  0  0  0  0
    0.6634   -3.7577    9.0998 C   0  0  0  0  0  0  0  0  0  0  0  0
    0.6273   -4.4640    7.5712 S   0  0  0  0  0  0  0  0  0  0  0  0
   -0.9489   -5.0405    7.6788 C   0  0  0  0  0  0  0  0  0  0  0  0
   -1.6313   -5.8569    6.6230 C   0  0  0  0  0  0  0  0  0  0  0  0
   -1.5384   -7.3453    6.9434 C   0  0  0  0  0  0  0  0  0  0  0  0
   -1.4676   -4.6945    8.9266 C   0  0  0  0  0  0  0  0  0  0  0  0
   -0.5649   -3.9691    9.7195 C   0  0  0  0  0  0  0  0  0  0  0  0
   -0.9636   -3.3504   11.3190 Cl  0  0  0  0  0  0  0  0  0  0  0  0
   -3.0902   -5.1144    9.4535 Cl  0  0  0  0  0  0  0  0  0  0  0  0
    2.5054   -3.4934   10.7836 C   0  0  0  0  0  0  0  0  0  0  0  0
    2.2319   -4.9025   11.6630 S   0  0  0  0  0  0  0  0  0  0  0  0
    1.7186   -1.1669    7.9758 C   0  0  0  0  0  0  0  0  0  0  0  0
    2.3862    0.0120    7.6495 C   0  0  0  0  0  0  0  0  0  0  0  0
    3.6417    0.2675    8.7507 S   0  0  0  0  0  0  0  0  0  0  0  0
    2.0652    0.8657    6.4982 C   0  0  0  0  0  0  0  0  0  0  0  0
    2.6222    2.1111    6.2087 C   0  0  0  0  0  0  0  0  0  0  0  0
    2.1235    2.6689    5.0151 C   0  0  0  0  0  0  0  0  0  0  0  0
    2.5095    3.8982    4.4360 C   0  0  0  0  0  0  0  0  0  0  0  0
    3.5210    4.7710    5.0582 C   0  0  0  0  0  0  0  0  0  0  0  0
    5.1219    4.3380    5.3482 S   0  0  0  0  0  0  0  0  0  0  0  0
    5.5830    5.8059    6.0300 C   0  0  0  0  0  0  0  0  0  0  0  0
    6.9700    6.1300    6.4981 C   0  0  0  0  0  0  0  0  0  0  0  0
    7.7860    6.7693    5.3796 C   0  0  0  0  0  0  0  0  0  0  0  0
    4.4895    6.6666    6.0195 C   0  0  0  0  0  0  0  0  0  0  0  0
    4.5518    8.3204    6.6122 Cl  0  0  0  0  0  0  0  0  0  0  0  0
    3.3297    6.0843    5.4844 C   0  0  0  0  0  0  0  0  0  0  0  0
    1.7786    6.9156    5.4135 Cl  0  0  0  0  0  0  0  0  0  0  0  0
    1.9016    4.2457    3.2144 C   0  0  0  0  0  0  0  0  0  0  0  0
    0.9391    3.4332    2.6005 C   0  0  0  0  0  0  0  0  0  0  0  0
    0.5404    2.2131    3.1808 C   0  0  0  0  0  0  0  0  0  0  0  0
   -0.4148    1.3015    2.5124 C   0  0  0  0  0  0  0  0  0  0  0  0
   -0.2013    0.6503    0.9734 S   0  0  0  0  0  0  0  0  0  0  0  0
   -1.5695   -0.3243    0.9860 C   0  0  0  0  0  0  0  0  0  0  0  0
   -1.9461   -1.2691   -0.1152 C   0  0  0  0  0  0  0  0  0  0  0  0
   -1.1353   -2.5552   -0.0237 C   0  0  0  0  0  0  0  0  0  0  0  0
   -2.2121   -0.1669    2.2120 C   0  0  0  0  0  0  0  0  0  0  0  0
   -1.5795    0.7593    3.0573 C   0  0  0  0  0  0  0  0  0  0  0  0
   -2.2385    1.2311    4.6234 Cl  0  0  0  0  0  0  0  0  0  0  0  0
   -3.6476   -1.0648    2.6800 Cl  0  0  0  0  0  0  0  0  0  0  0  0
    1.1618    1.8626    4.3928 C   0  0  0  0  0  0  0  0  0  0  0  0
    0.9620    0.4565    5.2930 S   0  0  0  0  0  0  0  0  0  0  0  0
    0.4835    3.9519    1.3860 C   0  0  0  0  0  0  0  0  0  0  0  0
    1.1088    5.1402    1.0321 C   0  0  0  0  0  0  0  0  0  0  0  0
    2.2239    5.5767    2.2203 S   0  0  0  0  0  0  0  0  0  0  0  0
    0.9130    5.7751   -0.2667 C   0  0  0  0  0  0  0  0  0  0  0  0
   -0.1291    6.6688   -0.5162 C   0  0  0  0  0  0  0  0  0  0  0  0
   -0.6407    6.5796   -1.8243 C   0  0  0  0  0  0  0  0  0  0  0  0
   -1.8518    7.1466   -2.2775 C   0  0  0  0  0  0  0  0  0  0  0  0
   -2.6702    8.0280   -1.4270 C   0  0  0  0  0  0  0  0  0  0  0  0
   -2.9784    9.6481   -1.7535 S   0  0  0  0  0  0  0  0  0  0  0  0
   -4.0225    9.8946   -0.4551 C   0  0  0  0  0  0  0  0  0  0  0  0
   -4.6691   11.2063   -0.1176 C   0  0  0  0  0  0  0  0  0  0  0  0
   -3.8148   11.9944    0.8675 C   0  0  0  0  0  0  0  0  0  0  0  0
   -4.1388    8.7004    0.2580 C   0  0  0  0  0  0  0  0  0  0  0  0
   -5.1414    8.5196    1.6911 Cl  0  0  0  0  0  0  0  0  0  0  0  0
   -3.3930    7.6493   -0.2975 C   0  0  0  0  0  0  0  0  0  0  0  0
   -3.4203    6.0048    0.3325 Cl  0  0  0  0  0  0  0  0  0  0  0  0
   -2.3539    6.6818   -3.5055 C   0  0  0  0  0  0  0  0  0  0  0  0
   -1.6862    5.7245   -4.2736 C   0  0  0  0  0  0  0  0  0  0  0  0
   -0.4721    5.1641   -3.8281 C   0  0  0  0  0  0  0  0  0  0  0  0
   -0.0019    3.8649   -4.3475 C   0  0  0  0  0  0  0  0  0  0  0  0
    1.4996    3.5723   -5.0472 S   0  0  0  0  0  0  0  0  0  0  0  0
    1.3492    1.8917   -5.0884 C   0  0  0  0  0  0  0  0  0  0  0  0
    2.4402    0.9474   -5.4973 C   0  0  0  0  0  0  0  0  0  0  0  0
    3.3516    0.6356   -4.3136 C   0  0  0  0  0  0  0  0  0  0  0  0
    0.1327    1.5369   -4.5079 C   0  0  0  0  0  0  0  0  0  0  0  0
   -0.6234    2.6424   -4.0942 C   0  0  0  0  0  0  0  0  0  0  0  0
   -2.1446    2.4921   -3.2218 Cl  0  0  0  0  0  0  0  0  0  0  0  0
   -0.3717   -0.1284   -4.2397 Cl  0  0  0  0  0  0  0  0  0  0  0  0
    0.0345    5.6389   -2.6100 C   0  0  0  0  0  0  0  0  0  0  0  0
    1.2225    4.9093   -1.6770 S   0  0  0  0  0  0  0  0  0  0  0  0
   -2.4676    5.2058   -5.3142 C   0  0  0  0  0  0  0  0  0  0  0  0
   -3.7848    5.6625   -5.3075 C   0  0  0  0  0  0  0  0  0  0  0  0
   -3.9429    6.7890   -4.0572 S   0  0  0  0  0  0  0  0  0  0  0  0
   -4.8673    4.7698   -5.7400 C   0  0  0  0  0  0  0  0  0  0  0  0
   -4.7535    3.9779   -6.8856 C   0  0  0  0  0  0  0  0  0  0  0  0
   -5.3009    2.6908   -6.7339 C   0  0  0  0  0  0  0  0  0  0  0  0
   -5.0650    1.6030   -7.5972 C   0  0  0  0  0  0  0  0  0  0  0  0
   -4.3890    1.7885   -8.8900 C   0  0  0  0  0  0  0  0  0  0  0  0
   -5.1080    2.4713  -10.2472 S   0  0  0  0  0  0  0  0  0  0  0  0
   -3.7465    2.3741  -11.2332 C   0  0  0  0  0  0  0  0  0  0  0  0
   -3.7170    2.7753  -12.6767 C   0  0  0  0  0  0  0  0  0  0  0  0
   -4.1402    1.6142  -13.5689 C   0  0  0  0  0  0  0  0  0  0  0  0
   -2.7091    1.7912  -10.5058 C   0  0  0  0  0  0  0  0  0  0  0  0
   -1.1141    1.4718  -11.1737 Cl  0  0  0  0  0  0  0  0  0  0  0  0
   -3.0654    1.4784   -9.1838 C   0  0  0  0  0  0  0  0  0  0  0  0
   -1.9390    0.8130   -8.0064 Cl  0  0  0  0  0  0  0  0  0  0  0  0
   -5.3608    0.3219   -7.1049 C   0  0  0  0  0  0  0  0  0  0  0  0
   -5.8963    0.1133   -5.8307 C   0  0  0  0  0  0  0  0  0  0  0  0
   -6.2111    1.2078   -4.9987 C   0  0  0  0  0  0  0  0  0  0  0  0
   -6.6685    1.0279   -3.6084 C   0  0  0  0  0  0  0  0  0  0  0  0
   -8.1442    1.5716   -3.0127 S   0  0  0  0  0  0  0  0  0  0  0  0
   -7.9062    1.0362   -1.4344 C   0  0  0  0  0  0  0  0  0  0  0  0
   -8.8631    1.2629   -0.3028 C   0  0  0  0  0  0  0  0  0  0  0  0
   -8.5349    2.5568    0.4335 C   0  0  0  0  0  0  0  0  0  0  0  0
   -6.6425    0.4548   -1.3457 C   0  0  0  0  0  0  0  0  0  0  0  0
   -5.9487    0.4464   -2.5638 C   0  0  0  0  0  0  0  0  0  0  0  0
   -4.3085   -0.1695   -2.7271 Cl  0  0  0  0  0  0  0  0  0  0  0  0
   -5.9712   -0.1767    0.1499 Cl  0  0  0  0  0  0  0  0  0  0  0  0
   -5.8966    2.4889   -5.4863 C   0  0  0  0  0  0  0  0  0  0  0  0
   -5.7328    3.8938   -4.5833 S   0  0  0  0  0  0  0  0  0  0  0  0
   -5.8978   -1.2379   -5.4507 C   0  0  0  0  0  0  0  0  0  0  0  0
   -5.3299   -2.0798   -6.4024 C   0  0  0  0  0  0  0  0  0  0  0  0
   -4.8817   -1.1597   -7.7434 S   0  0  0  0  0  0  0  0  0  0  0  0
   -4.6393   -3.3203   -6.0409 C   0  0  0  0  0  0  0  0  0  0  0  0
   -3.4952   -3.3962   -4.8098 S   0  0  0  0  0  0  0  0  0  0  0  0
   -2.8603   -4.9110   -5.1872 C   0  0  0  0  0  0  0  0  0  0  0  0
   -3.5545   -5.3834   -6.3091 C   0  0  0  0  0  0  0  0  0  0  0  0
   -4.5305   -4.4885   -6.7894 C   0  0  0  0  0  0  0  0  0  0  0  0
   -5.2883   -4.8026   -7.9198 C   0  0  0  0  0  0  0  0  0  0  0  0
   -5.0767   -6.0271   -8.5800 C   0  0  0  0  0  0  0  0  0  0  0  0
   -5.9146   -6.3852   -9.7757 C   0  0  0  0  0  0  0  0  0  0  0  0
   -4.0948   -6.9291   -8.1057 C   0  0  0  0  0  0  0  0  0  0  0  0
   -3.9109   -8.1435   -8.7871 O   0  0  0  0  0  0  0  0  0  0  0  0
   -2.9395   -9.1258   -8.4414 C   0  0  0  0  0  0  0  0  0  0  0  0
   -3.3284   -6.5986   -6.9667 C   0  0  0  0  0  0  0  0  0  0  0  0
   -1.6866   -5.5312   -4.5353 C   0  0  0  0  0  0  0  0  0  0  0  0
   -0.9149   -4.8496   -3.6768 C   0  0  0  0  0  0  0  0  0  0  0  0
    0.3342   -5.3976   -3.1203 C   0  0  0  0  0  0  0  0  0  0  0  0
    1.2103   -4.6772   -2.3096 C   0  0  0  0  0  0  0  0  0  0  0  0
    2.3610   -5.4056   -1.9633 C   0  0  0  0  0  0  0  0  0  0  0  0
    3.4429   -4.9400   -1.1896 C   0  0  0  0  0  0  0  0  0  0  0  0
    3.4425   -3.6086   -0.5623 C   0  0  0  0  0  0  0  0  0  0  0  0
    4.4234   -2.3237   -1.0285 S   0  0  0  0  0  0  0  0  0  0  0  0
    3.9691   -1.2906    0.2228 C   0  0  0  0  0  0  0  0  0  0  0  0
    4.5201    0.0896    0.4299 C   0  0  0  0  0  0  0  0  0  0  0  0
    3.5096    1.1595    0.0270 C   0  0  0  0  0  0  0  0  0  0  0  0
    3.0446   -1.9518    1.0320 C   0  0  0  0  0  0  0  0  0  0  0  0
    2.3740   -1.2638    2.5028 Cl  0  0  0  0  0  0  0  0  0  0  0  0
    2.7467   -3.2497    0.5878 C   0  0  0  0  0  0  0  0  0  0  0  0
    1.6604   -4.3418    1.4389 Cl  0  0  0  0  0  0  0  0  0  0  0  0
    4.5177   -5.8228   -1.0001 C   0  0  0  0  0  0  0  0  0  0  0  0
    4.5352   -7.1133   -1.5370 C   0  0  0  0  0  0  0  0  0  0  0  0
    3.4529   -7.5833   -2.3082 C   0  0  0  0  0  0  0  0  0  0  0  0
    3.4426   -8.9355   -2.8942 C   0  0  0  0  0  0  0  0  0  0  0  0
    4.5009   -9.4696   -4.0891 S   0  0  0  0  0  0  0  0  0  0  0  0
    3.8834  -11.0317   -4.1858 C   0  0  0  0  0  0  0  0  0  0  0  0
    4.3685  -12.0794   -5.1427 C   0  0  0  0  0  0  0  0  0  0  0  0
    3.5747  -12.0334   -6.4450 C   0  0  0  0  0  0  0  0  0  0  0  0
    2.8218  -11.1509   -3.2875 C   0  0  0  0  0  0  0  0  0  0  0  0
    2.5794   -9.9757   -2.5594 C   0  0  0  0  0  0  0  0  0  0  0  0
    1.3382   -9.8449   -1.3197 Cl  0  0  0  0  0  0  0  0  0  0  0  0
    1.8870  -12.6261   -3.0785 Cl  0  0  0  0  0  0  0  0  0  0  0  0
    2.3793   -6.6969   -2.5022 C   0  0  0  0  0  0  0  0  0  0  0  0
    0.9830   -6.9332   -3.4104 S   0  0  0  0  0  0  0  0  0  0  0  0
    5.6831   -7.8404   -1.1815 C   0  0  0  0  0  0  0  0  0  0  0  0
    6.5580   -7.1216   -0.3737 C   0  0  0  0  0  0  0  0  0  0  0  0
    5.9143   -5.5865   -0.0920 S   0  0  0  0  0  0  0  0  0  0  0  0
    3.7390   -5.3187   13.5868 H   0  0  0  0  0  0  0  0  0  0  0  0
    4.9825   -3.1039   13.0263 H   0  0  0  0  0  0  0  0  0  0  0  0
    8.3516    1.6916   13.4796 H   0  0  0  0  0  0  0  0  0  0  0  0
    6.7867    2.5753   13.4361 H   0  0  0  0  0  0  0  0  0  0  0  0
    8.5141    3.7739   12.1162 H   0  0  0  0  0  0  0  0  0  0  0  0
    8.7681    2.3180   11.0785 H   0  0  0  0  0  0  0  0  0  0  0  0
    7.1847    3.2008   11.0439 H   0  0  0  0  0  0  0  0  0  0  0  0
   -2.6984   -5.5553    6.5450 H   0  0  0  0  0  0  0  0  0  0  0  0
   -1.1488   -5.6661    5.6407 H   0  0  0  0  0  0  0  0  0  0  0  0
   -2.0396   -7.9293    6.1428 H   0  0  0  0  0  0  0  0  0  0  0  0
   -2.0395   -7.5641    7.9092 H   0  0  0  0  0  0  0  0  0  0  0  0
   -0.4759   -7.6619    7.0029 H   0  0  0  0  0  0  0  0  0  0  0  0
    0.8714   -1.5412    7.4183 H   0  0  0  0  0  0  0  0  0  0  0  0
    3.3609    2.5904    6.8371 H   0  0  0  0  0  0  0  0  0  0  0  0
    6.9262    6.8205    7.3674 H   0  0  0  0  0  0  0  0  0  0  0  0
    7.4757    5.1981    6.8314 H   0  0  0  0  0  0  0  0  0  0  0  0
    8.8109    6.9919    5.7456 H   0  0  0  0  0  0  0  0  0  0  0  0
    7.8583    6.0797    4.5116 H   0  0  0  0  0  0  0  0  0  0  0  0
    7.3136    7.7205    5.0546 H   0  0  0  0  0  0  0  0  0  0  0  0
   -3.0293   -1.5092   -0.0698 H   0  0  0  0  0  0  0  0  0  0  0  0
   -1.7486   -0.7852   -1.0947 H   0  0  0  0  0  0  0  0  0  0  0  0
   -1.3176   -3.0584    0.9493 H   0  0  0  0  0  0  0  0  0  0  0  0
   -0.0529   -2.3287   -0.1239 H   0  0  0  0  0  0  0  0  0  0  0  0
   -1.4324   -3.2436   -0.8426 H   0  0  0  0  0  0  0  0  0  0  0  0
   -0.2606    3.4752    0.7610 H   0  0  0  0  0  0  0  0  0  0  0  0
   -0.6101    7.2307    0.2737 H   0  0  0  0  0  0  0  0  0  0  0  0
   -4.8012   11.8001   -1.0482 H   0  0  0  0  0  0  0  0  0  0  0  0
   -5.6756   11.0302    0.3185 H   0  0  0  0  0  0  0  0  0  0  0  0
   -4.3135   12.9578    1.1052 H   0  0  0  0  0  0  0  0  0  0  0  0
   -2.8239   12.2152    0.4201 H   0  0  0  0  0  0  0  0  0  0  0  0
   -3.6775   11.4207    1.8091 H   0  0  0  0  0  0  0  0  0  0  0  0
    3.0382    1.4046   -6.3134 H   0  0  0  0  0  0  0  0  0  0  0  0
    1.9986    0.0061   -5.8875 H   0  0  0  0  0  0  0  0  0  0  0  0
    4.0867   -0.1414   -4.6074 H   0  0  0  0  0  0  0  0  0  0  0  0
    2.7589    0.2605   -3.4523 H   0  0  0  0  0  0  0  0  0  0  0  0
    3.9024    1.5512   -4.0137 H   0  0  0  0  0  0  0  0  0  0  0  0
   -2.1490    4.3687   -5.9239 H   0  0  0  0  0  0  0  0  0  0  0  0
   -4.1100    4.2468   -7.7133 H   0  0  0  0  0  0  0  0  0  0  0  0
   -2.6964    3.1088  -12.9587 H   0  0  0  0  0  0  0  0  0  0  0  0
   -4.4118    3.6289  -12.8333 H   0  0  0  0  0  0  0  0  0  0  0  0
   -3.4465    0.7552  -13.4395 H   0  0  0  0  0  0  0  0  0  0  0  0
   -4.1171    1.9340  -14.6309 H   0  0  0  0  0  0  0  0  0  0  0  0
   -5.1720    1.2898  -13.3201 H   0  0  0  0  0  0  0  0  0  0  0  0
   -9.8989    1.3177   -0.7012 H   0  0  0  0  0  0  0  0  0  0  0  0
   -8.8162    0.4084    0.4049 H   0  0  0  0  0  0  0  0  0  0  0  0
   -8.6502    3.4264   -0.2465 H   0  0  0  0  0  0  0  0  0  0  0  0
   -7.4930    2.5313    0.8218 H   0  0  0  0  0  0  0  0  0  0  0  0
   -9.2298    2.6855    1.2902 H   0  0  0  0  0  0  0  0  0  0  0  0
   -6.1772   -1.5809   -4.4636 H   0  0  0  0  0  0  0  0  0  0  0  0
   -6.0421   -4.1102   -8.2757 H   0  0  0  0  0  0  0  0  0  0  0  0
   -6.5629   -7.2507   -9.5270 H   0  0  0  0  0  0  0  0  0  0  0  0
   -6.5599   -5.5379  -10.0911 H   0  0  0  0  0  0  0  0  0  0  0  0
   -5.2592   -6.6563  -10.6297 H   0  0  0  0  0  0  0  0  0  0  0  0
   -1.9193   -8.6935   -8.5093 H   0  0  0  0  0  0  0  0  0  0  0  0
   -3.0154   -9.9724   -9.1543 H   0  0  0  0  0  0  0  0  0  0  0  0
   -3.1284   -9.5085   -7.4171 H   0  0  0  0  0  0  0  0  0  0  0  0
   -2.5750   -7.2776   -6.5970 H   0  0  0  0  0  0  0  0  0  0  0  0
   -1.4135   -6.5398   -4.8097 H   0  0  0  0  0  0  0  0  0  0  0  0
   -1.1686   -3.8327   -3.4077 H   0  0  0  0  0  0  0  0  0  0  0  0
    1.0332   -3.6532   -2.0085 H   0  0  0  0  0  0  0  0  0  0  0  0
    5.4404    0.2155   -0.1798 H   0  0  0  0  0  0  0  0  0  0  0  0
    4.8010    0.2248    1.4962 H   0  0  0  0  0  0  0  0  0  0  0  0
    2.6373    1.1416    0.7096 H   0  0  0  0  0  0  0  0  0  0  0  0
    3.1690    0.9964   -1.0157 H   0  0  0  0  0  0  0  0  0  0  0  0
    3.9828    2.1609    0.0952 H   0  0  0  0  0  0  0  0  0  0  0  0
    5.4426  -11.9046   -5.3650 H   0  0  0  0  0  0  0  0  0  0  0  0
    4.2746  -13.0856   -4.6863 H   0  0  0  0  0  0  0  0  0  0  0  0
    3.6936  -11.0432   -6.9304 H   0  0  0  0  0  0  0  0  0  0  0  0
    2.4969  -12.2184   -6.2501 H   0  0  0  0  0  0  0  0  0  0  0  0
    3.9510  -12.8147   -7.1389 H   0  0  0  0  0  0  0  0  0  0  0  0
    5.8712   -8.8645   -1.4820 H   0  0  0  0  0  0  0  0  0  0  0  0
    7.4928   -7.4939    0.0218 H   0  0  0  0  0  0  0  0  0  0  0  0
  1  2  2  0
  2  3  1  0
  3  4  2  0
  4  5  1  0
  5  6  1  0
  6  7  1  0
  7  8  1  0
  8  9  1  0
  7 10  2  0
 10 11  1  0
 10 12  1  0
 12 13  1  0
  4 14  1  0
 14 15  2  0
 15 16  1  0
 16 17  1  0
 17 18  1  0
 18 19  1  0
 19 20  1  0
 20 21  1  0
 19 22  2  0
 22 23  1  0
 23 24  1  0
 22 25  1  0
 16 26  2  0
 26 27  1  0
 15 28  1  0
 28 29  2  0
 29 30  1  0
 29 31  1  0
 31 32  2  0
 32 33  1  0
 33 34  2  0
 34 35  1  0
 35 36  1  0
 36 37  1  0
 37 38  1  0
 38 39  1  0
 37 40  2  0
 40 41  1  0
 40 42  1  0
 42 43  1  0
 34 44  1  0
 44 45  2  0
 45 46  1  0
 46 47  1  0
 47 48  1  0
 48 49  1  0
 49 50  1  0
 50 51  1  0
 49 52  2  0
 52 53  1  0
 53 54  1  0
 52 55  1  0
 46 56  2  0
 56 57  1  0
 45 58  1  0
 58 59  2  0
 59 60  1  0
 59 61  1  0
 61 62  2  0
 62 63  1  0
 63 64  2  0
 64 65  1  0
 65 66  1  0
 66 67  1  0
 67 68  1  0
 68 69  1  0
 67 70  2  0
 70 71  1  0
 70 72  1  0
 72 73  1  0
 64 74  1  0
 74 75  2  0
 75 76  1  0
 76 77  1  0
 77 78  1  0
 78 79  1  0
 79 80  1  0
 80 81  1  0
 79 82  2  0
 82 83  1  0
 83 84  1  0
 82 85  1  0
 76 86  2  0
 86 87  1  0
 75 88  1  0
 88 89  2  0
 89 90  1  0
 89 91  1  0
 91 92  2  0
 92 93  1  0
 93 94  2  0
 94 95  1  0
 95 96  1  0
 96 97  1  0
 97 98  1  0
 98 99  1  0
 97100  2  0
100101  1  0
100102  1  0
102103  1  0
 94104  1  0
104105  2  0
105106  1  0
106107  1  0
107108  1  0
108109  1  0
109110  1  0
110111  1  0
109112  2  0
112113  1  0
113114  1  0
112115  1  0
106116  2  0
116117  1  0
105118  1  0
118119  2  0
119120  1  0
119121  1  0
121122  1  0
122123  1  0
123124  2  0
124125  1  0
125126  1  0
126127  2  0
127128  1  0
127129  1  0
129130  1  0
130131  1  0
129132  2  0
123133  1  0
133134  2  3
134135  1  0
135136  2  0
136137  1  0
137138  2  0
138139  1  0
139140  1  0
140141  1  0
141142  1  0
142143  1  0
141144  2  0
144145  1  0
144146  1  0
146147  1  0
138148  1  0
148149  2  0
149150  1  0
150151  1  0
151152  1  0
152153  1  0
153154  1  0
154155  1  0
153156  2  0
156157  1  0
157158  1  0
156159  1  0
150160  2  0
160161  1  0
149162  1  0
162163  2  0
163164  1  0
 27  1  1  0
 57 31  1  0
 87 61  1  0
117 91  1  0
125121  2  0
161135  1  0
 26  3  1  0
 56 33  1  0
 86 63  1  0
116 93  1  0
132124  1  0
160137  1  0
 12  5  2  0
 30 14  1  0
 42 35  2  0
 60 44  1  0
 72 65  2  0
 90 74  1  0
102 95  2  0
120104  1  0
146139  2  0
164148  1  0
 23 17  2  0
 53 47  2  0
 83 77  2  0
113107  2  0
157151  2  0
  1165  1  0
  2166  1  0
  8167  1  0
  8168  1  0
  9169  1  0
  9170  1  0
  9171  1  0
 20172  1  0
 20173  1  0
 21174  1  0
 21175  1  0
 21176  1  0
 28177  1  0
 32178  1  0
 38179  1  0
 38180  1  0
 39181  1  0
 39182  1  0
 39183  1  0
 50184  1  0
 50185  1  0
 51186  1  0
 51187  1  0
 51188  1  0
 58189  1  0
 62190  1  0
 68191  1  0
 68192  1  0
 69193  1  0
 69194  1  0
 69195  1  0
 80196  1  0
 80197  1  0
 81198  1  0
 81199  1  0
 81200  1  0
 88201  1  0
 92202  1  0
 98203  1  0
 98204  1  0
 99205  1  0
 99206  1  0
 99207  1  0
110208  1  0
110209  1  0
111210  1  0
111211  1  0
111212  1  0
118213  1  0
126214  1  0
128215  1  0
128216  1  0
128217  1  0
131218  1  0
131219  1  0
131220  1  0
132221  1  0
133222  1  0
134223  1  0
136224  1  0
142225  1  0
142226  1  0
143227  1  0
143228  1  0
143229  1  0
154230  1  0
154231  1  0
155232  1  0
155233  1  0
155234  1  0
162235  1  0
163236  1  0
M  END

