
     RDKit          3D

250273  0  0  0  0  0  0  0  0999 V2000
    1.1502   11.6842   -2.2635 C   0  0  0  0  0  0  0  0  0  0  0  0
   -0.0407   11.2140   -1.7179 C   0  0  0  0  0  0  0  0  0  0  0  0
    0.1358   10.1163   -0.8566 C   0  0  0  0  0  0  0  0  0  0  0  0
   -0.8765    9.4411   -0.1358 C   0  0  0  0  0  0  0  0  0  0  0  0
   -2.2923    9.8799   -0.1407 C   0  0  0  0  0  0  0  0  0  0  0  0
   -3.3197    8.9682   -0.4420 C   0  0  0  0  0  0  0  0  0  0  0  0
   -4.6580    9.3519   -0.3159 C   0  0  0  0  0  0  0  0  0  0  0  0
   -4.9864   10.6518    0.0878 C   0  0  0  0  0  0  0  0  0  0  0  0
   -6.6983   11.0910    0.4213 S   0  0  0  0  0  0  0  0  0  0  0  0
   -7.0945   11.6487   -1.2740 C   0  0  0  0  0  0  0  0  0  0  0  0
   -8.0382   10.6516   -1.9346 C   0  0  0  0  0  0  0  0  0  0  0  0
   -3.9643   11.5745    0.3526 C   0  0  0  0  0  0  0  0  0  0  0  0
   -4.2615   12.8375    0.7469 F   0  0  0  0  0  0  0  0  0  0  0  0
   -2.6262   11.1889    0.2312 C   0  0  0  0  0  0  0  0  0  0  0  0
   -0.4561    8.3663    0.6673 C   0  0  0  0  0  0  0  0  0  0  0  0
    0.8810    7.9767    0.7838 C   0  0  0  0  0  0  0  0  0  0  0  0
    1.8867    8.6505    0.0640 C   0  0  0  0  0  0  0  0  0  0  0  0
    3.3107    8.2686    0.1748 C   0  0  0  0  0  0  0  0  0  0  0  0
    3.9967    7.7574   -0.9343 C   0  0  0  0  0  0  0  0  0  0  0  0
    5.3187    7.3230   -0.8092 C   0  0  0  0  0  0  0  0  0  0  0  0
    5.9691    7.4073    0.4268 C   0  0  0  0  0  0  0  0  0  0  0  0
    7.6322    6.7476    0.6092 S   0  0  0  0  0  0  0  0  0  0  0  0
    8.4921    8.3186    0.2434 C   0  0  0  0  0  0  0  0  0  0  0  0
    9.7631    8.4130    1.0796 C   0  0  0  0  0  0  0  0  0  0  0  0
    5.2970    7.9389    1.5319 C   0  0  0  0  0  0  0  0  0  0  0  0
    3.9795    8.3801    1.4071 C   0  0  0  0  0  0  0  0  0  0  0  0
    5.9234    8.0395    2.7345 F   0  0  0  0  0  0  0  0  0  0  0  0
    1.4736    9.7136   -0.7554 C   0  0  0  0  0  0  0  0  0  0  0  0
    2.4241   10.7350   -1.6950 S   0  0  0  0  0  0  0  0  0  0  0  0
    1.0727    6.9227    1.6967 C   0  0  0  0  0  0  0  0  0  0  0  0
   -0.1093    6.5022    2.3046 C   0  0  0  0  0  0  0  0  0  0  0  0
   -1.3839    7.4435    1.7243 S   0  0  0  0  0  0  0  0  0  0  0  0
   -0.1991    5.5949    3.4596 C   0  0  0  0  0  0  0  0  0  0  0  0
    0.9220    5.5883    4.7162 S   0  0  0  0  0  0  0  0  0  0  0  0
    0.0412    4.6354    5.7804 C   0  0  0  0  0  0  0  0  0  0  0  0
   -1.1851    4.3308    5.1699 C   0  0  0  0  0  0  0  0  0  0  0  0
   -1.3013    4.8417    3.8634 C   0  0  0  0  0  0  0  0  0  0  0  0
   -2.4479    4.5936    3.1015 C   0  0  0  0  0  0  0  0  0  0  0  0
   -3.5180    3.8859    3.6674 C   0  0  0  0  0  0  0  0  0  0  0  0
   -4.7534    3.6109    2.8493 C   0  0  0  0  0  0  0  0  0  0  0  0
   -3.4286    3.4027    4.9935 C   0  0  0  0  0  0  0  0  0  0  0  0
   -4.5216    2.6995    5.5213 O   0  0  0  0  0  0  0  0  0  0  0  0
   -4.4812    1.9371    6.7173 C   0  0  0  0  0  0  0  0  0  0  0  0
   -2.2571    3.6371    5.7496 C   0  0  0  0  0  0  0  0  0  0  0  0
    0.4706    4.3806    7.1732 C   0  0  0  0  0  0  0  0  0  0  0  0
    0.4586    3.1905    7.7899 C   0  0  0  0  0  0  0  0  0  0  0  0
    0.1116    1.9113    7.1523 C   0  0  0  0  0  0  0  0  0  0  0  0
   -0.5730    0.8833    7.7898 C   0  0  0  0  0  0  0  0  0  0  0  0
   -0.8901   -0.1807    6.9285 C   0  0  0  0  0  0  0  0  0  0  0  0
   -1.6409   -1.3325    7.2543 C   0  0  0  0  0  0  0  0  0  0  0  0
   -2.1944   -1.5652    8.6135 C   0  0  0  0  0  0  0  0  0  0  0  0
   -3.0622   -0.6322    9.1991 C   0  0  0  0  0  0  0  0  0  0  0  0
   -3.5961   -0.8565   10.4696 C   0  0  0  0  0  0  0  0  0  0  0  0
   -3.2475   -2.0079   11.1853 C   0  0  0  0  0  0  0  0  0  0  0  0
   -3.9351   -2.2816   12.8194 S   0  0  0  0  0  0  0  0  0  0  0  0
   -2.5411   -1.5032   13.7138 C   0  0  0  0  0  0  0  0  0  0  0  0
   -2.6938    0.0148   13.7582 C   0  0  0  0  0  0  0  0  0  0  0  0
   -2.4077   -2.9599   10.5973 C   0  0  0  0  0  0  0  0  0  0  0  0
   -2.0878   -4.0983   11.2667 F   0  0  0  0  0  0  0  0  0  0  0  0
   -1.8779   -2.7393    9.3189 C   0  0  0  0  0  0  0  0  0  0  0  0
   -1.8898   -2.2376    6.2064 C   0  0  0  0  0  0  0  0  0  0  0  0
   -1.4195   -2.0409    4.9035 C   0  0  0  0  0  0  0  0  0  0  0  0
   -0.6514   -0.9015    4.5789 C   0  0  0  0  0  0  0  0  0  0  0  0
   -0.1888   -0.6269    3.1920 C   0  0  0  0  0  0  0  0  0  0  0  0
   -0.5530    0.5657    2.5456 C   0  0  0  0  0  0  0  0  0  0  0  0
   -0.1619    0.8011    1.2221 C   0  0  0  0  0  0  0  0  0  0  0  0
    0.5828   -0.1575    0.5287 C   0  0  0  0  0  0  0  0  0  0  0  0
    1.0159    0.1196   -1.1969 S   0  0  0  0  0  0  0  0  0  0  0  0
    2.6539    0.8367   -0.8399 C   0  0  0  0  0  0  0  0  0  0  0  0
    2.5463    2.3354   -0.5878 C   0  0  0  0  0  0  0  0  0  0  0  0
    0.9457   -1.3530    1.1642 C   0  0  0  0  0  0  0  0  0  0  0  0
    0.5732   -1.5803    2.4942 C   0  0  0  0  0  0  0  0  0  0  0  0
    1.6416   -2.3014    0.4916 F   0  0  0  0  0  0  0  0  0  0  0  0
   -0.4066    0.0059    5.6260 C   0  0  0  0  0  0  0  0  0  0  0  0
    0.4078    1.4749    5.5481 S   0  0  0  0  0  0  0  0  0  0  0  0
   -1.8925   -3.0024    3.9979 C   0  0  0  0  0  0  0  0  0  0  0  0
   -2.7357   -3.9537    4.5767 C   0  0  0  0  0  0  0  0  0  0  0  0
   -2.8961   -3.5830    6.2167 S   0  0  0  0  0  0  0  0  0  0  0  0
   -3.5337   -4.9288    3.7973 C   0  0  0  0  0  0  0  0  0  0  0  0
   -3.6679   -4.8438    2.1201 S   0  0  0  0  0  0  0  0  0  0  0  0
   -4.8468   -6.0247    1.9102 C   0  0  0  0  0  0  0  0  0  0  0  0
   -5.1757   -6.5026    3.1839 C   0  0  0  0  0  0  0  0  0  0  0  0
   -4.4339   -5.9147    4.2325 C   0  0  0  0  0  0  0  0  0  0  0  0
   -4.6457   -6.3275    5.5524 C   0  0  0  0  0  0  0  0  0  0  0  0
   -5.6411   -7.2791    5.8409 C   0  0  0  0  0  0  0  0  0  0  0  0
   -5.8945   -7.6878    7.2654 C   0  0  0  0  0  0  0  0  0  0  0  0
   -6.4121   -7.8389    4.7984 C   0  0  0  0  0  0  0  0  0  0  0  0
   -7.4168   -8.7670    5.1240 O   0  0  0  0  0  0  0  0  0  0  0  0
   -8.2944   -9.3720    4.1812 C   0  0  0  0  0  0  0  0  0  0  0  0
   -6.1614   -7.4583    3.4620 C   0  0  0  0  0  0  0  0  0  0  0  0
   -5.5664   -6.3089    0.6474 C   0  0  0  0  0  0  0  0  0  0  0  0
   -5.1060   -6.0491   -0.5843 C   0  0  0  0  0  0  0  0  0  0  0  0
   -3.7310   -5.6393   -0.8906 C   0  0  0  0  0  0  0  0  0  0  0  0
   -3.3789   -4.4266   -1.4743 C   0  0  0  0  0  0  0  0  0  0  0  0
   -2.0437   -4.4003   -1.9121 C   0  0  0  0  0  0  0  0  0  0  0  0
   -1.4105   -3.3311   -2.5714 C   0  0  0  0  0  0  0  0  0  0  0  0
   -2.0573   -2.0129   -2.7130 C   0  0  0  0  0  0  0  0  0  0  0  0
   -2.1961   -1.1826   -1.5882 C   0  0  0  0  0  0  0  0  0  0  0  0
   -2.7410    0.0963   -1.7252 C   0  0  0  0  0  0  0  0  0  0  0  0
   -3.1638    0.5483   -2.9802 C   0  0  0  0  0  0  0  0  0  0  0  0
   -3.8100    2.2115   -3.1514 S   0  0  0  0  0  0  0  0  0  0  0  0
   -2.1927    2.9105   -3.6339 C   0  0  0  0  0  0  0  0  0  0  0  0
   -2.3266    4.4027   -3.8842 C   0  0  0  0  0  0  0  0  0  0  0  0
   -3.0715   -0.2969   -4.0968 C   0  0  0  0  0  0  0  0  0  0  0  0
   -3.5045    0.1226   -5.3111 F   0  0  0  0  0  0  0  0  0  0  0  0
   -2.5064   -1.5692   -3.9621 C   0  0  0  0  0  0  0  0  0  0  0  0
   -0.1218   -3.5664   -3.0728 C   0  0  0  0  0  0  0  0  0  0  0  0
    0.5532   -4.7773   -2.8830 C   0  0  0  0  0  0  0  0  0  0  0  0
   -0.0557   -5.8339   -2.1699 C   0  0  0  0  0  0  0  0  0  0  0  0
    0.6261   -7.1334   -1.9708 C   0  0  0  0  0  0  0  0  0  0  0  0
    0.0608   -8.3122   -2.4824 C   0  0  0  0  0  0  0  0  0  0  0  0
    0.6962   -9.5386   -2.2880 C   0  0  0  0  0  0  0  0  0  0  0  0
    1.9025   -9.6047   -1.5842 C   0  0  0  0  0  0  0  0  0  0  0  0
    2.6653  -11.2022   -1.2710 S   0  0  0  0  0  0  0  0  0  0  0  0
    1.8187  -11.4701    0.3274 C   0  0  0  0  0  0  0  0  0  0  0  0
    0.4181  -12.0319    0.1247 C   0  0  0  0  0  0  0  0  0  0  0  0
    2.4905   -8.4293   -1.0986 C   0  0  0  0  0  0  0  0  0  0  0  0
    1.8555   -7.1977   -1.2959 C   0  0  0  0  0  0  0  0  0  0  0  0
    3.6754   -8.4785   -0.4361 F   0  0  0  0  0  0  0  0  0  0  0  0
   -1.3666   -5.6092   -1.7067 C   0  0  0  0  0  0  0  0  0  0  0  0
   -2.4136   -6.6931   -0.9494 S   0  0  0  0  0  0  0  0  0  0  0  0
    1.7944   -4.8227   -3.5416 C   0  0  0  0  0  0  0  0  0  0  0  0
    2.0738   -3.6560   -4.2532 C   0  0  0  0  0  0  0  0  0  0  0  0
    0.8018   -2.5631   -4.0547 S   0  0  0  0  0  0  0  0  0  0  0  0
    3.1814   -3.4747   -5.1958 C   0  0  0  0  0  0  0  0  0  0  0  0
    4.3946   -4.1641   -5.1898 C   0  0  0  0  0  0  0  0  0  0  0  0
    5.2157   -3.8314   -6.2818 C   0  0  0  0  0  0  0  0  0  0  0  0
    6.5091   -4.3332   -6.5514 C   0  0  0  0  0  0  0  0  0  0  0  0
    7.1619   -5.3428   -5.6943 C   0  0  0  0  0  0  0  0  0  0  0  0
    6.6041   -6.6248   -5.5533 C   0  0  0  0  0  0  0  0  0  0  0  0
    7.2513   -7.5913   -4.7778 C   0  0  0  0  0  0  0  0  0  0  0  0
    8.4564   -7.2893   -4.1364 C   0  0  0  0  0  0  0  0  0  0  0  0
    9.2772   -8.5330   -3.1360 S   0  0  0  0  0  0  0  0  0  0  0  0
    8.4169   -8.0388   -1.6072 C   0  0  0  0  0  0  0  0  0  0  0  0
    8.8591   -8.9267   -0.4559 C   0  0  0  0  0  0  0  0  0  0  0  0
    9.0186   -6.0107   -4.2747 C   0  0  0  0  0  0  0  0  0  0  0  0
   10.1877   -5.7041   -3.6621 F   0  0  0  0  0  0  0  0  0  0  0  0
    8.3725   -5.0438   -5.0482 C   0  0  0  0  0  0  0  0  0  0  0  0
    7.1486   -3.8391   -7.7021 C   0  0  0  0  0  0  0  0  0  0  0  0
    6.5463   -2.9218   -8.5718 C   0  0  0  0  0  0  0  0  0  0  0  0
    5.2490   -2.4444   -8.3115 C   0  0  0  0  0  0  0  0  0  0  0  0
    4.5335   -1.5797   -9.2659 C   0  0  0  0  0  0  0  0  0  0  0  0
    4.6883   -0.1901   -9.2240 C   0  0  0  0  0  0  0  0  0  0  0  0
    4.0171    0.6168  -10.1477 C   0  0  0  0  0  0  0  0  0  0  0  0
    3.1806    0.0380  -11.1126 C   0  0  0  0  0  0  0  0  0  0  0  0
    2.3774    1.0819  -12.3378 S   0  0  0  0  0  0  0  0  0  0  0  0
    0.9395    1.5128  -11.2952 C   0  0  0  0  0  0  0  0  0  0  0  0
   -0.0833    0.3822  -11.2611 C   0  0  0  0  0  0  0  0  0  0  0  0
    3.0337   -1.3554  -11.1600 C   0  0  0  0  0  0  0  0  0  0  0  0
    3.7049   -2.1617  -10.2360 C   0  0  0  0  0  0  0  0  0  0  0  0
    2.2573   -1.9325  -12.1108 F   0  0  0  0  0  0  0  0  0  0  0  0
    4.6292   -2.8951   -7.1394 C   0  0  0  0  0  0  0  0  0  0  0  0
    3.1161   -2.4650   -6.5502 S   0  0  0  0  0  0  0  0  0  0  0  0
    7.3459   -2.5927   -9.6768 C   0  0  0  0  0  0  0  0  0  0  0  0
    8.5704   -3.2520   -9.6796 C   0  0  0  0  0  0  0  0  0  0  0  0
    8.6653   -4.2415   -8.3165 S   0  0  0  0  0  0  0  0  0  0  0  0
    1.2448   12.5247   -2.9363 H   0  0  0  0  0  0  0  0  0  0  0  0
   -0.9997   11.6650   -1.9426 H   0  0  0  0  0  0  0  0  0  0  0  0
   -3.0845    7.9504   -0.7209 H   0  0  0  0  0  0  0  0  0  0  0  0
   -5.4431    8.6298   -0.5060 H   0  0  0  0  0  0  0  0  0  0  0  0
   -7.6019   12.6366   -1.2074 H   0  0  0  0  0  0  0  0  0  0  0  0
   -6.1830   11.7750   -1.9003 H   0  0  0  0  0  0  0  0  0  0  0  0
   -8.2997   11.0055   -2.9545 H   0  0  0  0  0  0  0  0  0  0  0  0
   -7.5487    9.6576   -2.0145 H   0  0  0  0  0  0  0  0  0  0  0  0
   -8.9728   10.5530   -1.3371 H   0  0  0  0  0  0  0  0  0  0  0  0
   -1.8461   11.9001    0.4875 H   0  0  0  0  0  0  0  0  0  0  0  0
    3.4906    7.6595   -1.8944 H   0  0  0  0  0  0  0  0  0  0  0  0
    5.8288    6.9059   -1.6670 H   0  0  0  0  0  0  0  0  0  0  0  0
    7.8527    9.1986    0.4736 H   0  0  0  0  0  0  0  0  0  0  0  0
    8.7610    8.3482   -0.8347 H   0  0  0  0  0  0  0  0  0  0  0  0
   10.3366    9.3184    0.7860 H   0  0  0  0  0  0  0  0  0  0  0  0
    9.5053    8.4895    2.1576 H   0  0  0  0  0  0  0  0  0  0  0  0
   10.4052    7.5173    0.9222 H   0  0  0  0  0  0  0  0  0  0  0  0
    3.4687    8.7931    2.2666 H   0  0  0  0  0  0  0  0  0  0  0  0
    2.0379    6.5013    1.9390 H   0  0  0  0  0  0  0  0  0  0  0  0
   -2.5125    4.9345    2.0783 H   0  0  0  0  0  0  0  0  0  0  0  0
   -5.6547    3.9302    3.4087 H   0  0  0  0  0  0  0  0  0  0  0  0
   -4.7331    4.1570    1.8830 H   0  0  0  0  0  0  0  0  0  0  0  0
   -4.8286    2.5228    2.6393 H   0  0  0  0  0  0  0  0  0  0  0  0
   -5.4557    1.4231    6.8512 H   0  0  0  0  0  0  0  0  0  0  0  0
   -3.6841    1.1713    6.6345 H   0  0  0  0  0  0  0  0  0  0  0  0
   -4.2986    2.5975    7.5936 H   0  0  0  0  0  0  0  0  0  0  0  0
   -2.1880    3.2916    6.7716 H   0  0  0  0  0  0  0  0  0  0  0  0
    0.8431    5.2303    7.7287 H   0  0  0  0  0  0  0  0  0  0  0  0
    0.7101    3.1629    8.8438 H   0  0  0  0  0  0  0  0  0  0  0  0
   -0.8607    0.9301    8.8314 H   0  0  0  0  0  0  0  0  0  0  0  0
   -3.3418    0.2674    8.6748 H   0  0  0  0  0  0  0  0  0  0  0  0
   -4.2684   -0.1294   10.9027 H   0  0  0  0  0  0  0  0  0  0  0  0
   -1.5697   -1.7758   13.2477 H   0  0  0  0  0  0  0  0  0  0  0  0
   -2.5390   -1.8916   14.7536 H   0  0  0  0  0  0  0  0  0  0  0  0
   -1.9102    0.4468   14.4165 H   0  0  0  0  0  0  0  0  0  0  0  0
   -2.5781    0.4490   12.7421 H   0  0  0  0  0  0  0  0  0  0  0  0
   -3.6915    0.2880   14.1633 H   0  0  0  0  0  0  0  0  0  0  0  0
   -1.2274   -3.4839    8.8792 H   0  0  0  0  0  0  0  0  0  0  0  0
   -1.1559    1.3100    3.0538 H   0  0  0  0  0  0  0  0  0  0  0  0
   -0.4558    1.7208    0.7369 H   0  0  0  0  0  0  0  0  0  0  0  0
    3.3095    0.6701   -1.7235 H   0  0  0  0  0  0  0  0  0  0  0  0
    3.1284    0.3340    0.0322 H   0  0  0  0  0  0  0  0  0  0  0  0
    1.9699    2.5331    0.3370 H   0  0  0  0  0  0  0  0  0  0  0  0
    3.5646    2.7655   -0.4666 H   0  0  0  0  0  0  0  0  0  0  0  0
    2.0505    2.8315   -1.4520 H   0  0  0  0  0  0  0  0  0  0  0  0
    0.8651   -2.5045    2.9749 H   0  0  0  0  0  0  0  0  0  0  0  0
   -1.6873   -2.9723    2.9376 H   0  0  0  0  0  0  0  0  0  0  0  0
   -4.0493   -5.9372    6.3569 H   0  0  0  0  0  0  0  0  0  0  0  0
   -5.1817   -7.1987    7.9677 H   0  0  0  0  0  0  0  0  0  0  0  0
   -6.9272   -7.4009    7.5599 H   0  0  0  0  0  0  0  0  0  0  0  0
   -5.7765   -8.7868    7.3684 H   0  0  0  0  0  0  0  0  0  0  0  0
   -8.8706   -8.5920    3.6386 H   0  0  0  0  0  0  0  0  0  0  0  0
   -9.0027  -10.0348    4.7160 H   0  0  0  0  0  0  0  0  0  0  0  0
   -7.7097   -9.9847    3.4600 H   0  0  0  0  0  0  0  0  0  0  0  0
   -6.7285   -7.8988    2.6511 H   0  0  0  0  0  0  0  0  0  0  0  0
   -6.5723   -6.6926    0.7187 H   0  0  0  0  0  0  0  0  0  0  0  0
   -5.7710   -6.1952   -1.4243 H   0  0  0  0  0  0  0  0  0  0  0  0
   -4.0771   -3.6116   -1.6204 H   0  0  0  0  0  0  0  0  0  0  0  0
   -1.8598   -1.5189   -0.6167 H   0  0  0  0  0  0  0  0  0  0  0  0
   -2.8217    0.7380   -0.8582 H   0  0  0  0  0  0  0  0  0  0  0  0
   -1.8360    2.4176   -4.5679 H   0  0  0  0  0  0  0  0  0  0  0  0
   -1.4509    2.7363   -2.8232 H   0  0  0  0  0  0  0  0  0  0  0  0
   -1.3583    4.8100   -4.2521 H   0  0  0  0  0  0  0  0  0  0  0  0
   -2.5994    4.9225   -2.9384 H   0  0  0  0  0  0  0  0  0  0  0  0
   -3.1046    4.5943   -4.6551 H   0  0  0  0  0  0  0  0  0  0  0  0
   -2.4237   -2.2076   -4.8359 H   0  0  0  0  0  0  0  0  0  0  0  0
   -0.8752   -8.2792   -3.0265 H   0  0  0  0  0  0  0  0  0  0  0  0
    0.2432  -10.4401   -2.6797 H   0  0  0  0  0  0  0  0  0  0  0  0
    2.4102  -12.2033    0.9154 H   0  0  0  0  0  0  0  0  0  0  0  0
    1.7762  -10.5233    0.9091 H   0  0  0  0  0  0  0  0  0  0  0  0
   -0.0416  -12.2619    1.1069 H   0  0  0  0  0  0  0  0  0  0  0  0
   -0.2328  -11.2981   -0.3916 H   0  0  0  0  0  0  0  0  0  0  0  0
    0.4663  -12.9693   -0.4689 H   0  0  0  0  0  0  0  0  0  0  0  0
    2.3105   -6.2971   -0.8996 H   0  0  0  0  0  0  0  0  0  0  0  0
    2.4315   -5.7001   -3.5762 H   0  0  0  0  0  0  0  0  0  0  0  0
    4.6682   -4.8751   -4.4190 H   0  0  0  0  0  0  0  0  0  0  0  0
    5.6805   -6.8805   -6.0581 H   0  0  0  0  0  0  0  0  0  0  0  0
    6.8175   -8.5797   -4.6765 H   0  0  0  0  0  0  0  0  0  0  0  0
    8.6522   -6.9757   -1.3710 H   0  0  0  0  0  0  0  0  0  0  0  0
    7.3188   -8.1481   -1.7510 H   0  0  0  0  0  0  0  0  0  0  0  0
    8.6545   -9.9939   -0.6941 H   0  0  0  0  0  0  0  0  0  0  0  0
    8.3006   -8.6488    0.4618 H   0  0  0  0  0  0  0  0  0  0  0  0
    9.9466   -8.7907   -0.2705 H   0  0  0  0  0  0  0  0  0  0  0  0
    8.8157   -4.0600   -5.1511 H   0  0  0  0  0  0  0  0  0  0  0  0
    5.3352    0.2669   -8.4848 H   0  0  0  0  0  0  0  0  0  0  0  0
    4.1484    1.6903  -10.1130 H   0  0  0  0  0  0  0  0  0  0  0  0
    0.4555    2.4127  -11.7312 H   0  0  0  0  0  0  0  0  0  0  0  0
    1.2642    1.7690  -10.2630 H   0  0  0  0  0  0  0  0  0  0  0  0
    0.3322   -0.5019  -10.7374 H   0  0  0  0  0  0  0  0  0  0  0  0
   -0.9890    0.7197  -10.7160 H   0  0  0  0  0  0  0  0  0  0  0  0
   -0.3745    0.0960  -12.2937 H   0  0  0  0  0  0  0  0  0  0  0  0
    3.5938   -3.2373  -10.2822 H   0  0  0  0  0  0  0  0  0  0  0  0
    7.0462   -1.9003  -10.4544 H   0  0  0  0  0  0  0  0  0  0  0  0
    9.3362   -3.1504  -10.4407 H   0  0  0  0  0  0  0  0  0  0  0  0
  1  2  2  0
  2  3  1  0
  3  4  2  0
  4  5  1  0
  5  6  2  0
  6  7  1  0
  7  8  2  0
  8  9  1  0
  9 10  1  0
 10 11  1  0
  8 12  1  0
 12 13  1  0
 12 14  2  0
  4 15  1  0
 15 16  2  0
 16 17  1  0
 17 18  1  0
 18 19  2  0
 19 20  1  0
 20 21  2  0
 21 22  1  0
 22 23  1  0
 23 24  1  0
 21 25  1  0
 25 26  2  0
 25 27  1  0
 17 28  2  0
 28 29  1  0
 16 30  1  0
 30 31  2  0
 31 32  1  0
 31 33  1  0
 33 34  1  0
 34 35  1  0
 35 36  2  0
 36 37  1  0
 37 38  1  0
 38 39  2  0
 39 40  1  0
 39 41  1  0
 41 42  1  0
 42 43  1  0
 41 44  2  0
 35 45  1  0
 45 46  2  3
 46 47  1  0
 47 48  2  0
 48 49  1  0
 49 50  2  0
 50 51  1  0
 51 52  2  0
 52 53  1  0
 53 54  2  0
 54 55  1  0
 55 56  1  0
 56 57  1  0
 54 58  1  0
 58 59  1  0
 58 60  2  0
 50 61  1  0
 61 62  2  0
 62 63  1  0
 63 64  1  0
 64 65  2  0
 65 66  1  0
 66 67  2  0
 67 68  1  0
 68 69  1  0
 69 70  1  0
 67 71  1  0
 71 72  2  0
 71 73  1  0
 63 74  2  0
 74 75  1  0
 62 76  1  0
 76 77  2  0
 77 78  1  0
 77 79  1  0
 79 80  1  0
 80 81  1  0
 81 82  2  0
 82 83  1  0
 83 84  1  0
 84 85  2  0
 85 86  1  0
 85 87  1  0
 87 88  1  0
 88 89  1  0
 87 90  2  0
 81 91  1  0
 91 92  2  3
 92 93  1  0
 93 94  2  0
 94 95  1  0
 95 96  2  0
 96 97  1  0
 97 98  2  0
 98 99  1  0
 99100  2  0
100101  1  0
101102  1  0
102103  1  0
100104  1  0
104105  1  0
104106  2  0
 96107  1  0
107108  2  0
108109  1  0
109110  1  0
110111  2  0
111112  1  0
112113  2  0
113114  1  0
114115  1  0
115116  1  0
113117  1  0
117118  2  0
117119  1  0
109120  2  0
120121  1  0
108122  1  0
122123  2  0
123124  1  0
123125  1  0
125126  2  0
126127  1  0
127128  2  0
128129  1  0
129130  2  0
130131  1  0
131132  2  0
132133  1  0
133134  1  0
134135  1  0
132136  1  0
136137  1  0
136138  2  0
128139  1  0
139140  2  0
140141  1  0
141142  1  0
142143  2  0
143144  1  0
144145  2  0
145146  1  0
146147  1  0
147148  1  0
145149  1  0
149150  2  0
149151  1  0
141152  2  0
152153  1  0
140154  1  0
154155  2  0
155156  1  0
 29  1  1  0
 37 33  2  0
 75 47  1  0
 83 79  2  0
121 93  1  0
153125  1  0
 28  3  1  0
 44 36  1  0
 74 49  1  0
 90 82  1  0
120 95  1  0
152127  1  0
 14  5  1  0
 32 15  1  0
 60 51  1  0
 78 61  1  0
106 97  1  0
124107  1  0
138129  1  0
156139  1  0
 26 18  1  0
 72 64  1  0
118110  1  0
150142  1  0
  1157  1  0
  2158  1  0
  6159  1  0
  7160  1  0
 10161  1  0
 10162  1  0
 11163  1  0
 11164  1  0
 11165  1  0
 14166  1  0
 19167  1  0
 20168  1  0
 23169  1  0
 23170  1  0
 24171  1  0
 24172  1  0
 24173  1  0
 26174  1  0
 30175  1  0
 38176  1  0
 40177  1  0
 40178  1  0
 40179  1  0
 43180  1  0
 43181  1  0
 43182  1  0
 44183  1  0
 45184  1  0
 46185  1  0
 48186  1  0
 52187  1  0
 53188  1  0
 56189  1  0
 56190  1  0
 57191  1  0
 57192  1  0
 57193  1  0
 60194  1  0
 65195  1  0
 66196  1  0
 69197  1  0
 69198  1  0
 70199  1  0
 70200  1  0
 70201  1  0
 72202  1  0
 76203  1  0
 84204  1  0
 86205  1  0
 86206  1  0
 86207  1  0
 89208  1  0
 89209  1  0
 89210  1  0
 90211  1  0
 91212  1  0
 92213  1  0
 94214  1  0
 98215  1  0
 99216  1  0
102217  1  0
102218  1  0
103219  1  0
103220  1  0
103221  1  0
106222  1  0
111223  1  0
112224  1  0
115225  1  0
115226  1  0
116227  1  0
116228  1  0
116229  1  0
118230  1  0
122231  1  0
126232  1  0
130233  1  0
131234  1  0
134235  1  0
134236  1  0
135237  1  0
135238  1  0
135239  1  0
138240  1  0
143241  1  0
144242  1  0
147243  1  0
147244  1  0
148245  1  0
148246  1  0
148247  1  0
150248  1  0
154249  1  0
155250  1  0
M  END

