
     RDKit          3D

276302  0  0  0  0  0  0  0  0999 V2000
    1.9900   -4.2197    7.6473 C   0  0  0  0  0  0  0  0  0  0  0  0
    2.0534   -2.8446    7.4433 C   0  0  0  0  0  0  0  0  0  0  0  0
    0.8163   -2.2768    7.0912 C   0  0  0  0  0  0  0  0  0  0  0  0
    0.5592   -0.9081    6.8484 C   0  0  0  0  0  0  0  0  0  0  0  0
    1.6359    0.1107    6.9186 C   0  0  0  0  0  0  0  0  0  0  0  0
    2.7755   -0.0025    6.1052 C   0  0  0  0  0  0  0  0  0  0  0  0
    3.8566    0.8658    6.2774 C   0  0  0  0  0  0  0  0  0  0  0  0
    3.8023    1.8755    7.2473 C   0  0  0  0  0  0  0  0  0  0  0  0
    5.2579    2.8741    7.5865 S   0  0  0  0  0  0  0  0  0  0  0  0
    4.9280    4.1379    6.3126 C   0  0  0  0  0  0  0  0  0  0  0  0
    5.7327    3.8348    5.0545 C   0  0  0  0  0  0  0  0  0  0  0  0
    2.6426    2.0334    8.0200 C   0  0  0  0  0  0  0  0  0  0  0  0
    2.5730    3.0079    8.9623 F   0  0  0  0  0  0  0  0  0  0  0  0
    1.5691    1.1495    7.8615 C   0  0  0  0  0  0  0  0  0  0  0  0
   -0.7834   -0.5552    6.6129 C   0  0  0  0  0  0  0  0  0  0  0  0
   -1.8208   -1.4949    6.5726 C   0  0  0  0  0  0  0  0  0  0  0  0
   -1.5519   -2.8671    6.7511 C   0  0  0  0  0  0  0  0  0  0  0  0
   -2.5973   -3.9042    6.6114 C   0  0  0  0  0  0  0  0  0  0  0  0
   -3.2605   -4.0711    5.3856 C   0  0  0  0  0  0  0  0  0  0  0  0
   -4.1691   -5.1183    5.2115 C   0  0  0  0  0  0  0  0  0  0  0  0
   -4.4097   -6.0192    6.2550 C   0  0  0  0  0  0  0  0  0  0  0  0
   -5.4978   -7.4236    5.9882 S   0  0  0  0  0  0  0  0  0  0  0  0
   -4.2287   -8.4673    5.1821 C   0  0  0  0  0  0  0  0  0  0  0  0
   -3.2449   -9.0531    6.1916 C   0  0  0  0  0  0  0  0  0  0  0  0
   -3.7872   -5.8285    7.4979 C   0  0  0  0  0  0  0  0  0  0  0  0
   -2.8842   -4.7766    7.6733 C   0  0  0  0  0  0  0  0  0  0  0  0
   -4.0312   -6.6787    8.5268 F   0  0  0  0  0  0  0  0  0  0  0  0
   -0.2193   -3.2173    7.0402 C   0  0  0  0  0  0  0  0  0  0  0  0
    0.4057   -4.7356    7.4061 S   0  0  0  0  0  0  0  0  0  0  0  0
   -3.0945   -0.9131    6.4333 C   0  0  0  0  0  0  0  0  0  0  0  0
   -3.0579    0.4813    6.3909 C   0  0  0  0  0  0  0  0  0  0  0  0
   -1.4448    0.9826    6.4498 S   0  0  0  0  0  0  0  0  0  0  0  0
   -4.2527    1.3523    6.4038 C   0  0  0  0  0  0  0  0  0  0  0  0
   -5.7416    0.9087    5.7557 S   0  0  0  0  0  0  0  0  0  0  0  0
   -6.6188    2.2716    6.2268 C   0  0  0  0  0  0  0  0  0  0  0  0
   -5.7475    3.0865    6.9593 C   0  0  0  0  0  0  0  0  0  0  0  0
   -4.4337    2.5807    7.0594 C   0  0  0  0  0  0  0  0  0  0  0  0
   -3.4865    3.2559    7.8412 C   0  0  0  0  0  0  0  0  0  0  0  0
   -3.8331    4.4543    8.4894 C   0  0  0  0  0  0  0  0  0  0  0  0
   -2.8017    5.1841    9.3019 C   0  0  0  0  0  0  0  0  0  0  0  0
   -5.1391    4.9796    8.3613 C   0  0  0  0  0  0  0  0  0  0  0  0
   -5.4485    6.1828    9.0184 O   0  0  0  0  0  0  0  0  0  0  0  0
   -6.7445    6.7663    9.0721 C   0  0  0  0  0  0  0  0  0  0  0  0
   -6.0984    4.2856    7.5960 C   0  0  0  0  0  0  0  0  0  0  0  0
   -8.0912    2.4354    6.1323 C   0  0  0  0  0  0  0  0  0  0  0  0
   -8.8836    1.8462    5.2261 C   0  0  0  0  0  0  0  0  0  0  0  0
   -8.3946    1.1026    4.0614 C   0  0  0  0  0  0  0  0  0  0  0  0
   -8.6220   -0.2479    3.8257 C   0  0  0  0  0  0  0  0  0  0  0  0
   -8.0204   -0.6971    2.6413 C   0  0  0  0  0  0  0  0  0  0  0  0
   -7.9796   -2.0252    2.1834 C   0  0  0  0  0  0  0  0  0  0  0  0
   -8.6081   -3.1314    2.9254 C   0  0  0  0  0  0  0  0  0  0  0  0
   -9.7557   -3.7520    2.4132 C   0  0  0  0  0  0  0  0  0  0  0  0
  -10.3531   -4.8050    3.1071 C   0  0  0  0  0  0  0  0  0  0  0  0
   -9.7956   -5.2671    4.3058 C   0  0  0  0  0  0  0  0  0  0  0  0
  -10.5873   -6.6110    5.2013 S   0  0  0  0  0  0  0  0  0  0  0  0
   -9.6104   -7.9405    4.4175 C   0  0  0  0  0  0  0  0  0  0  0  0
  -10.2167   -8.3437    3.0786 C   0  0  0  0  0  0  0  0  0  0  0  0
   -8.6430   -4.6501    4.8185 C   0  0  0  0  0  0  0  0  0  0  0  0
   -8.0936   -5.0821    5.9819 F   0  0  0  0  0  0  0  0  0  0  0  0
   -8.0531   -3.5854    4.1325 C   0  0  0  0  0  0  0  0  0  0  0  0
   -7.2543   -2.2699    1.0105 C   0  0  0  0  0  0  0  0  0  0  0  0
   -6.6163   -1.2570    0.2848 C   0  0  0  0  0  0  0  0  0  0  0  0
   -6.6824    0.0876    0.7220 C   0  0  0  0  0  0  0  0  0  0  0  0
   -6.0152    1.2027    0.0054 C   0  0  0  0  0  0  0  0  0  0  0  0
   -6.7669    2.3167   -0.3982 C   0  0  0  0  0  0  0  0  0  0  0  0
   -6.1389    3.4252   -0.9715 C   0  0  0  0  0  0  0  0  0  0  0  0
   -4.7539    3.4252   -1.1699 C   0  0  0  0  0  0  0  0  0  0  0  0
   -3.9558    4.8955   -1.8247 S   0  0  0  0  0  0  0  0  0  0  0  0
   -4.1928    4.4182   -3.5651 C   0  0  0  0  0  0  0  0  0  0  0  0
   -3.7958    5.5706   -4.4771 C   0  0  0  0  0  0  0  0  0  0  0  0
   -3.9976    2.3067   -0.7960 C   0  0  0  0  0  0  0  0  0  0  0  0
   -4.6249    1.2013   -0.2021 C   0  0  0  0  0  0  0  0  0  0  0  0
   -2.6537    2.2946   -0.9756 F   0  0  0  0  0  0  0  0  0  0  0  0
   -7.3808    0.3215    1.9239 C   0  0  0  0  0  0  0  0  0  0  0  0
   -7.5108    1.7630    2.7871 S   0  0  0  0  0  0  0  0  0  0  0  0
   -5.8492   -1.7585   -0.7822 C   0  0  0  0  0  0  0  0  0  0  0  0
   -5.8327   -3.1541   -0.8385 C   0  0  0  0  0  0  0  0  0  0  0  0
   -6.8064   -3.7630    0.3928 S   0  0  0  0  0  0  0  0  0  0  0  0
   -4.6817   -3.8902   -1.3460 C   0  0  0  0  0  0  0  0  0  0  0  0
   -4.2501   -3.9416   -2.6706 C   0  0  0  0  0  0  0  0  0  0  0  0
   -2.9270   -4.4058   -2.7886 C   0  0  0  0  0  0  0  0  0  0  0  0
   -2.1690   -4.4776   -3.9738 C   0  0  0  0  0  0  0  0  0  0  0  0
   -2.7720   -4.1995   -5.2864 C   0  0  0  0  0  0  0  0  0  0  0  0
   -3.2953   -5.2563   -6.0417 C   0  0  0  0  0  0  0  0  0  0  0  0
   -3.9266   -4.9991   -7.2596 C   0  0  0  0  0  0  0  0  0  0  0  0
   -4.0216   -3.6886   -7.7420 C   0  0  0  0  0  0  0  0  0  0  0  0
   -4.8436   -3.3845   -9.3084 S   0  0  0  0  0  0  0  0  0  0  0  0
   -3.3588   -3.7343  -10.3036 C   0  0  0  0  0  0  0  0  0  0  0  0
   -3.7491   -3.9523  -11.7576 C   0  0  0  0  0  0  0  0  0  0  0  0
   -3.4896   -2.6288   -6.9918 C   0  0  0  0  0  0  0  0  0  0  0  0
   -3.5865   -1.3531   -7.4432 F   0  0  0  0  0  0  0  0  0  0  0  0
   -2.8735   -2.8851   -5.7605 C   0  0  0  0  0  0  0  0  0  0  0  0
   -0.8027   -4.7830   -3.8402 C   0  0  0  0  0  0  0  0  0  0  0  0
   -0.2076   -5.0118   -2.5946 C   0  0  0  0  0  0  0  0  0  0  0  0
   -0.9680   -4.9544   -1.4132 C   0  0  0  0  0  0  0  0  0  0  0  0
   -0.3273   -4.8837   -0.0878 C   0  0  0  0  0  0  0  0  0  0  0  0
    0.3740   -3.7253    0.2754 C   0  0  0  0  0  0  0  0  0  0  0  0
    0.9487   -3.6188    1.5414 C   0  0  0  0  0  0  0  0  0  0  0  0
    0.8379   -4.6741    2.4525 C   0  0  0  0  0  0  0  0  0  0  0  0
    1.5678   -4.5099    4.0814 S   0  0  0  0  0  0  0  0  0  0  0  0
    3.2308   -5.0188    3.5362 C   0  0  0  0  0  0  0  0  0  0  0  0
    4.1894   -4.9933    4.7169 C   0  0  0  0  0  0  0  0  0  0  0  0
    0.1335   -5.8342    2.0952 C   0  0  0  0  0  0  0  0  0  0  0  0
   -0.4547   -5.9348    0.8291 C   0  0  0  0  0  0  0  0  0  0  0  0
    0.0058   -6.8592    2.9737 F   0  0  0  0  0  0  0  0  0  0  0  0
   -2.3346   -4.6821   -1.5533 C   0  0  0  0  0  0  0  0  0  0  0  0
   -3.4331   -4.3746   -0.3273 S   0  0  0  0  0  0  0  0  0  0  0  0
    1.1851   -5.1264   -2.6550 C   0  0  0  0  0  0  0  0  0  0  0  0
    1.7037   -4.9246   -3.9338 C   0  0  0  0  0  0  0  0  0  0  0  0
    0.4130   -4.6694   -5.0034 S   0  0  0  0  0  0  0  0  0  0  0  0
    3.0802   -4.4504   -4.1655 C   0  0  0  0  0  0  0  0  0  0  0  0
    3.5081   -3.8209   -5.3355 C   0  0  0  0  0  0  0  0  0  0  0  0
    4.5500   -2.8986   -5.1189 C   0  0  0  0  0  0  0  0  0  0  0  0
    5.0417   -1.9623   -6.0540 C   0  0  0  0  0  0  0  0  0  0  0  0
    4.6856   -2.0119   -7.4862 C   0  0  0  0  0  0  0  0  0  0  0  0
    3.3671   -1.7952   -7.9094 C   0  0  0  0  0  0  0  0  0  0  0  0
    3.0444   -1.8723   -9.2688 C   0  0  0  0  0  0  0  0  0  0  0  0
    4.0369   -2.1611  -10.2128 C   0  0  0  0  0  0  0  0  0  0  0  0
    3.6055   -2.2676  -11.9538 S   0  0  0  0  0  0  0  0  0  0  0  0
    3.0673   -4.0144  -11.8899 C   0  0  0  0  0  0  0  0  0  0  0  0
    4.2591   -4.9639  -11.9072 C   0  0  0  0  0  0  0  0  0  0  0  0
    5.3630   -2.3362   -9.7962 C   0  0  0  0  0  0  0  0  0  0  0  0
    6.3455   -2.5793  -10.7023 F   0  0  0  0  0  0  0  0  0  0  0  0
    5.6855   -2.2624   -8.4389 C   0  0  0  0  0  0  0  0  0  0  0  0
    5.8305   -0.9158   -5.5439 C   0  0  0  0  0  0  0  0  0  0  0  0
    6.1723   -0.8213   -4.1919 C   0  0  0  0  0  0  0  0  0  0  0  0
    5.8000   -1.8291   -3.2850 C   0  0  0  0  0  0  0  0  0  0  0  0
    6.1324   -1.7290   -1.8442 C   0  0  0  0  0  0  0  0  0  0  0  0
    5.1228   -1.5397   -0.8869 C   0  0  0  0  0  0  0  0  0  0  0  0
    5.4512   -1.4039    0.4650 C   0  0  0  0  0  0  0  0  0  0  0  0
    6.7885   -1.4606    0.8719 C   0  0  0  0  0  0  0  0  0  0  0  0
    7.2061   -1.2611    2.6074 S   0  0  0  0  0  0  0  0  0  0  0  0
    6.8472   -2.9897    3.0738 C   0  0  0  0  0  0  0  0  0  0  0  0
    8.0438   -3.6002    3.7848 C   0  0  0  0  0  0  0  0  0  0  0  0
    7.8012   -1.6536   -0.0767 C   0  0  0  0  0  0  0  0  0  0  0  0
    7.4720   -1.7742   -1.4339 C   0  0  0  0  0  0  0  0  0  0  0  0
    9.1011   -1.6963    0.3051 F   0  0  0  0  0  0  0  0  0  0  0  0
    4.9656   -2.8442   -3.7826 C   0  0  0  0  0  0  0  0  0  0  0  0
    4.0674   -3.9398   -2.8932 S   0  0  0  0  0  0  0  0  0  0  0  0
    6.6876    0.4345   -3.8381 C   0  0  0  0  0  0  0  0  0  0  0  0
    6.7195    1.3325   -4.9010 C   0  0  0  0  0  0  0  0  0  0  0  0
    6.1715    0.5514   -6.2955 S   0  0  0  0  0  0  0  0  0  0  0  0
    6.7414    2.7938   -4.7490 C   0  0  0  0  0  0  0  0  0  0  0  0
    6.3363    3.4726   -3.5971 C   0  0  0  0  0  0  0  0  0  0  0  0
    6.1476    4.8468   -3.8071 C   0  0  0  0  0  0  0  0  0  0  0  0
    5.6381    5.7752   -2.8705 C   0  0  0  0  0  0  0  0  0  0  0  0
    5.1104    5.3559   -1.5487 C   0  0  0  0  0  0  0  0  0  0  0  0
    4.0468    4.4403   -1.4763 C   0  0  0  0  0  0  0  0  0  0  0  0
    3.5058    4.0823   -0.2385 C   0  0  0  0  0  0  0  0  0  0  0  0
    4.0085    4.6428    0.9388 C   0  0  0  0  0  0  0  0  0  0  0  0
    3.2963    4.1707    2.5198 S   0  0  0  0  0  0  0  0  0  0  0  0
    2.1595    5.5962    2.6289 C   0  0  0  0  0  0  0  0  0  0  0  0
    0.8666    5.3217    1.8718 C   0  0  0  0  0  0  0  0  0  0  0  0
    5.0792    5.5481    0.8755 C   0  0  0  0  0  0  0  0  0  0  0  0
    5.5802    6.0947    2.0106 F   0  0  0  0  0  0  0  0  0  0  0  0
    5.6240    5.9062   -0.3637 C   0  0  0  0  0  0  0  0  0  0  0  0
    5.5212    7.1091   -3.3078 C   0  0  0  0  0  0  0  0  0  0  0  0
    5.8221    7.5043   -4.6163 C   0  0  0  0  0  0  0  0  0  0  0  0
    6.2758    6.5633   -5.5606 C   0  0  0  0  0  0  0  0  0  0  0  0
    6.4468    6.8987   -6.9829 C   0  0  0  0  0  0  0  0  0  0  0  0
    5.3758    6.7231   -7.8714 C   0  0  0  0  0  0  0  0  0  0  0  0
    5.5475    6.9646   -9.2363 C   0  0  0  0  0  0  0  0  0  0  0  0
    6.7945    7.3652   -9.7268 C   0  0  0  0  0  0  0  0  0  0  0  0
    7.0109    7.6327  -11.4910 S   0  0  0  0  0  0  0  0  0  0  0  0
    7.6460    5.9529  -11.8323 C   0  0  0  0  0  0  0  0  0  0  0  0
    6.5103    4.9419  -11.9423 C   0  0  0  0  0  0  0  0  0  0  0  0
    7.8642    7.5605   -8.8396 C   0  0  0  0  0  0  0  0  0  0  0  0
    7.6913    7.3207   -7.4708 C   0  0  0  0  0  0  0  0  0  0  0  0
    9.0770    7.9566   -9.3009 F   0  0  0  0  0  0  0  0  0  0  0  0
    6.4436    5.2440   -5.1148 C   0  0  0  0  0  0  0  0  0  0  0  0
    6.8818    3.8954   -6.0202 S   0  0  0  0  0  0  0  0  0  0  0  0
    5.5646    8.8629   -4.8577 C   0  0  0  0  0  0  0  0  0  0  0  0
    5.0588    9.5300   -3.7472 C   0  0  0  0  0  0  0  0  0  0  0  0
    4.9205    8.4376   -2.4693 S   0  0  0  0  0  0  0  0  0  0  0  0
    2.8208   -4.8497    7.9267 H   0  0  0  0  0  0  0  0  0  0  0  0
    2.9703   -2.2863    7.5727 H   0  0  0  0  0  0  0  0  0  0  0  0
    2.8428   -0.7939    5.3695 H   0  0  0  0  0  0  0  0  0  0  0  0
    4.7484    0.7335    5.6795 H   0  0  0  0  0  0  0  0  0  0  0  0
    3.8460    4.2074    6.0699 H   0  0  0  0  0  0  0  0  0  0  0  0
    5.2484    5.1226    6.7155 H   0  0  0  0  0  0  0  0  0  0  0  0
    6.8083    3.7003    5.3003 H   0  0  0  0  0  0  0  0  0  0  0  0
    5.6385    4.6851    4.3464 H   0  0  0  0  0  0  0  0  0  0  0  0
    5.3503    2.9142    4.5669 H   0  0  0  0  0  0  0  0  0  0  0  0
    0.7034    1.2476    8.5064 H   0  0  0  0  0  0  0  0  0  0  0  0
   -3.0481   -3.4089    4.5560 H   0  0  0  0  0  0  0  0  0  0  0  0
   -4.6563   -5.2463    4.2523 H   0  0  0  0  0  0  0  0  0  0  0  0
   -4.7476   -9.3048    4.6697 H   0  0  0  0  0  0  0  0  0  0  0  0
   -3.6771   -7.8826    4.4158 H   0  0  0  0  0  0  0  0  0  0  0  0
   -2.5600   -9.7539    5.6692 H   0  0  0  0  0  0  0  0  0  0  0  0
   -2.6316   -8.2547    6.6589 H   0  0  0  0  0  0  0  0  0  0  0  0
   -3.7879   -9.6140    6.9814 H   0  0  0  0  0  0  0  0  0  0  0  0
   -2.3940   -4.6522    8.6310 H   0  0  0  0  0  0  0  0  0  0  0  0
   -4.0191   -1.4785    6.4435 H   0  0  0  0  0  0  0  0  0  0  0  0
   -2.4970    2.8559    7.9836 H   0  0  0  0  0  0  0  0  0  0  0  0
   -1.9203    4.5412    9.5153 H   0  0  0  0  0  0  0  0  0  0  0  0
   -2.4587    6.0778    8.7406 H   0  0  0  0  0  0  0  0  0  0  0  0
   -3.2359    5.5078   10.2695 H   0  0  0  0  0  0  0  0  0  0  0  0
   -7.4562    6.0689    9.5637 H   0  0  0  0  0  0  0  0  0  0  0  0
   -7.0979    7.0116    8.0454 H   0  0  0  0  0  0  0  0  0  0  0  0
   -6.6975    7.7052    9.6641 H   0  0  0  0  0  0  0  0  0  0  0  0
   -7.1015    4.6728    7.4953 H   0  0  0  0  0  0  0  0  0  0  0  0
   -8.5791    3.0320    6.8922 H   0  0  0  0  0  0  0  0  0  0  0  0
   -9.9571    1.9500    5.3352 H   0  0  0  0  0  0  0  0  0  0  0  0
   -9.1650   -0.8859    4.5126 H   0  0  0  0  0  0  0  0  0  0  0  0
  -10.1881   -3.4150    1.4783 H   0  0  0  0  0  0  0  0  0  0  0  0
  -11.2503   -5.2644    2.7104 H   0  0  0  0  0  0  0  0  0  0  0  0
   -9.6259   -8.8177    5.0975 H   0  0  0  0  0  0  0  0  0  0  0  0
   -8.5528   -7.6241    4.2807 H   0  0  0  0  0  0  0  0  0  0  0  0
  -10.1034   -7.5242    2.3386 H   0  0  0  0  0  0  0  0  0  0  0  0
  -11.2972   -8.5833    3.1994 H   0  0  0  0  0  0  0  0  0  0  0  0
   -9.6913   -9.2413    2.6824 H   0  0  0  0  0  0  0  0  0  0  0  0
   -7.1598   -3.1215    4.5332 H   0  0  0  0  0  0  0  0  0  0  0  0
   -7.8384    2.3390   -0.2396 H   0  0  0  0  0  0  0  0  0  0  0  0
   -6.7296    4.2887   -1.2481 H   0  0  0  0  0  0  0  0  0  0  0  0
   -3.5651    3.5302   -3.7928 H   0  0  0  0  0  0  0  0  0  0  0  0
   -5.2586    4.1666   -3.7469 H   0  0  0  0  0  0  0  0  0  0  0  0
   -2.7313    5.8420   -4.3124 H   0  0  0  0  0  0  0  0  0  0  0  0
   -4.4374    6.4554   -4.2726 H   0  0  0  0  0  0  0  0  0  0  0  0
   -3.9314    5.2696   -5.5362 H   0  0  0  0  0  0  0  0  0  0  0  0
   -4.0219    0.3645    0.1278 H   0  0  0  0  0  0  0  0  0  0  0  0
   -5.2116   -1.1457   -1.4071 H   0  0  0  0  0  0  0  0  0  0  0  0
   -4.8441   -3.5828   -3.5018 H   0  0  0  0  0  0  0  0  0  0  0  0
   -3.2294   -6.2739   -5.6804 H   0  0  0  0  0  0  0  0  0  0  0  0
   -4.3376   -5.8192   -7.8338 H   0  0  0  0  0  0  0  0  0  0  0  0
   -2.6564   -2.8753  -10.2304 H   0  0  0  0  0  0  0  0  0  0  0  0
   -2.8476   -4.6492   -9.9314 H   0  0  0  0  0  0  0  0  0  0  0  0
   -2.8457   -4.1889  -12.3548 H   0  0  0  0  0  0  0  0  0  0  0  0
   -4.4578   -4.8053  -11.8366 H   0  0  0  0  0  0  0  0  0  0  0  0
   -4.2307   -3.0403  -12.1697 H   0  0  0  0  0  0  0  0  0  0  0  0
   -2.4850   -2.0617   -5.1731 H   0  0  0  0  0  0  0  0  0  0  0  0
    0.4643   -2.9010   -0.4226 H   0  0  0  0  0  0  0  0  0  0  0  0
    1.4842   -2.7173    1.8096 H   0  0  0  0  0  0  0  0  0  0  0  0
    3.1905   -6.0457    3.1131 H   0  0  0  0  0  0  0  0  0  0  0  0
    3.5978   -4.3163    2.7569 H   0  0  0  0  0  0  0  0  0  0  0  0
    3.8541   -5.7087    5.4966 H   0  0  0  0  0  0  0  0  0  0  0  0
    4.2355   -3.9710    5.1530 H   0  0  0  0  0  0  0  0  0  0  0  0
    5.2049   -5.2926    4.3787 H   0  0  0  0  0  0  0  0  0  0  0  0
   -1.0079   -6.8267    0.5591 H   0  0  0  0  0  0  0  0  0  0  0  0
    1.8076   -5.2235   -1.7754 H   0  0  0  0  0  0  0  0  0  0  0  0
    2.9809   -3.9170   -6.2746 H   0  0  0  0  0  0  0  0  0  0  0  0
    2.5900   -1.5745   -7.1914 H   0  0  0  0  0  0  0  0  0  0  0  0
    2.0212   -1.7139   -9.5843 H   0  0  0  0  0  0  0  0  0  0  0  0
    2.4432   -4.2128  -12.7869 H   0  0  0  0  0  0  0  0  0  0  0  0
    2.4433   -4.2019  -10.9889 H   0  0  0  0  0  0  0  0  0  0  0  0
    3.8975   -6.0099  -11.9958 H   0  0  0  0  0  0  0  0  0  0  0  0
    4.8434   -4.8759  -10.9689 H   0  0  0  0  0  0  0  0  0  0  0  0
    4.9169   -4.7384  -12.7747 H   0  0  0  0  0  0  0  0  0  0  0  0
    6.7114   -2.4087   -8.1274 H   0  0  0  0  0  0  0  0  0  0  0  0
    4.0852   -1.4887   -1.1893 H   0  0  0  0  0  0  0  0  0  0  0  0
    4.6635   -1.2619    1.1931 H   0  0  0  0  0  0  0  0  0  0  0  0
    5.9794   -2.9737    3.7622 H   0  0  0  0  0  0  0  0  0  0  0  0
    6.5860   -3.6221    2.1972 H   0  0  0  0  0  0  0  0  0  0  0  0
    7.7878   -4.6275    4.1200 H   0  0  0  0  0  0  0  0  0  0  0  0
    8.3170   -2.9958    4.6757 H   0  0  0  0  0  0  0  0  0  0  0  0
    8.9096   -3.6513    3.0924 H   0  0  0  0  0  0  0  0  0  0  0  0
    8.2643   -1.9019   -2.1618 H   0  0  0  0  0  0  0  0  0  0  0  0
    6.8967    0.7247   -2.8150 H   0  0  0  0  0  0  0  0  0  0  0  0
    6.1122    2.9757   -2.6618 H   0  0  0  0  0  0  0  0  0  0  0  0
    3.6327    4.0108   -2.3790 H   0  0  0  0  0  0  0  0  0  0  0  0
    2.6895    3.3758   -0.1959 H   0  0  0  0  0  0  0  0  0  0  0  0
    1.9200    5.7612    3.7005 H   0  0  0  0  0  0  0  0  0  0  0  0
    2.6415    6.5192    2.2405 H   0  0  0  0  0  0  0  0  0  0  0  0
    0.3932    4.3870    2.2405 H   0  0  0  0  0  0  0  0  0  0  0  0
    1.0648    5.2275    0.7835 H   0  0  0  0  0  0  0  0  0  0  0  0
    0.1625    6.1666    2.0300 H   0  0  0  0  0  0  0  0  0  0  0  0
    6.4446    6.6129   -0.4016 H   0  0  0  0  0  0  0  0  0  0  0  0
    4.4120    6.3896   -7.5064 H   0  0  0  0  0  0  0  0  0  0  0  0
    4.7154    6.8198   -9.9140 H   0  0  0  0  0  0  0  0  0  0  0  0
    8.1862    5.9840  -12.8017 H   0  0  0  0  0  0  0  0  0  0  0  0
    8.3669    5.6392  -11.0469 H   0  0  0  0  0  0  0  0  0  0  0  0
    6.0175    4.8036  -10.9587 H   0  0  0  0  0  0  0  0  0  0  0  0
    6.9203    3.9621  -12.2679 H   0  0  0  0  0  0  0  0  0  0  0  0
    5.7596    5.2806  -12.6891 H   0  0  0  0  0  0  0  0  0  0  0  0
    8.5264    7.4473   -6.7946 H   0  0  0  0  0  0  0  0  0  0  0  0
    5.7226    9.3476   -5.8140 H   0  0  0  0  0  0  0  0  0  0  0  0
    4.7786   10.5733   -3.7152 H   0  0  0  0  0  0  0  0  0  0  0  0
  1  2  2  0
  2  3  1  0
  3  4  2  0
  4  5  1  0
  5  6  2  0
  6  7  1  0
  7  8  2  0
  8  9  1  0
  9 10  1  0
 10 11  1  0
  8 12  1  0
 12 13  1  0
 12 14  2  0
  4 15  1  0
 15 16  2  0
 16 17  1  0
 17 18  1  0
 18 19  2  0
 19 20  1  0
 20 21  2  0
 21 22  1  0
 22 23  1  0
 23 24  1  0
 21 25  1  0
 25 26  2  0
 25 27  1  0
 17 28  2  0
 28 29  1  0
 16 30  1  0
 30 31  2  0
 31 32  1  0
 31 33  1  0
 33 34  1  0
 34 35  1  0
 35 36  2  0
 36 37  1  0
 37 38  1  0
 38 39  2  0
 39 40  1  0
 39 41  1  0
 41 42  1  0
 42 43  1  0
 41 44  2  0
 35 45  1  0
 45 46  2  3
 46 47  1  0
 47 48  2  0
 48 49  1  0
 49 50  2  0
 50 51  1  0
 51 52  2  0
 52 53  1  0
 53 54  2  0
 54 55  1  0
 55 56  1  0
 56 57  1  0
 54 58  1  0
 58 59  1  0
 58 60  2  0
 50 61  1  0
 61 62  2  0
 62 63  1  0
 63 64  1  0
 64 65  2  0
 65 66  1  0
 66 67  2  0
 67 68  1  0
 68 69  1  0
 69 70  1  0
 67 71  1  0
 71 72  2  0
 71 73  1  0
 63 74  2  0
 74 75  1  0
 62 76  1  0
 76 77  2  0
 77 78  1  0
 77 79  1  0
 79 80  2  0
 80 81  1  0
 81 82  2  0
 82 83  1  0
 83 84  2  0
 84 85  1  0
 85 86  2  0
 86 87  1  0
 87 88  1  0
 88 89  1  0
 86 90  1  0
 90 91  1  0
 90 92  2  0
 82 93  1  0
 93 94  2  0
 94 95  1  0
 95 96  1  0
 96 97  2  0
 97 98  1  0
 98 99  2  0
 99100  1  0
100101  1  0
101102  1  0
 99103  1  0
103104  2  0
103105  1  0
 95106  2  0
106107  1  0
 94108  1  0
108109  2  0
109110  1  0
109111  1  0
111112  2  0
112113  1  0
113114  2  0
114115  1  0
115116  2  0
116117  1  0
117118  2  0
118119  1  0
119120  1  0
120121  1  0
118122  1  0
122123  1  0
122124  2  0
114125  1  0
125126  2  0
126127  1  0
127128  1  0
128129  2  0
129130  1  0
130131  2  0
131132  1  0
132133  1  0
133134  1  0
131135  1  0
135136  2  0
135137  1  0
127138  2  0
138139  1  0
126140  1  0
140141  2  0
141142  1  0
141143  1  0
143144  2  0
144145  1  0
145146  2  0
146147  1  0
147148  2  0
148149  1  0
149150  2  0
150151  1  0
151152  1  0
152153  1  0
150154  1  0
154155  1  0
154156  2  0
146157  1  0
157158  2  0
158159  1  0
159160  1  0
160161  2  0
161162  1  0
162163  2  0
163164  1  0
164165  1  0
165166  1  0
163167  1  0
167168  2  0
167169  1  0
159170  2  0
170171  1  0
158172  1  0
172173  2  0
173174  1  0
 29  1  1  0
 37 33  2  0
 75 47  1  0
107 79  1  0
139111  1  0
171143  1  0
 28  3  1  0
 44 36  1  0
 74 49  1  0
106 81  1  0
138113  1  0
170145  1  0
 14  5  1  0
 32 15  1  0
 60 51  1  0
 78 61  1  0
 92 83  1  0
110 93  1  0
124115  1  0
142125  1  0
156147  1  0
174157  1  0
 26 18  1  0
 72 64  1  0
104 96  1  0
136128  1  0
168160  1  0
  1175  1  0
  2176  1  0
  6177  1  0
  7178  1  0
 10179  1  0
 10180  1  0
 11181  1  0
 11182  1  0
 11183  1  0
 14184  1  0
 19185  1  0
 20186  1  0
 23187  1  0
 23188  1  0
 24189  1  0
 24190  1  0
 24191  1  0
 26192  1  0
 30193  1  0
 38194  1  0
 40195  1  0
 40196  1  0
 40197  1  0
 43198  1  0
 43199  1  0
 43200  1  0
 44201  1  0
 45202  1  0
 46203  1  0
 48204  1  0
 52205  1  0
 53206  1  0
 56207  1  0
 56208  1  0
 57209  1  0
 57210  1  0
 57211  1  0
 60212  1  0
 65213  1  0
 66214  1  0
 69215  1  0
 69216  1  0
 70217  1  0
 70218  1  0
 70219  1  0
 72220  1  0
 76221  1  0
 80222  1  0
 84223  1  0
 85224  1  0
 88225  1  0
 88226  1  0
 89227  1  0
 89228  1  0
 89229  1  0
 92230  1  0
 97231  1  0
 98232  1  0
101233  1  0
101234  1  0
102235  1  0
102236  1  0
102237  1  0
104238  1  0
108239  1  0
112240  1  0
116241  1  0
117242  1  0
120243  1  0
120244  1  0
121245  1  0
121246  1  0
121247  1  0
124248  1  0
129249  1  0
130250  1  0
133251  1  0
133252  1  0
134253  1  0
134254  1  0
134255  1  0
136256  1  0
140257  1  0
144258  1  0
148259  1  0
149260  1  0
152261  1  0
152262  1  0
153263  1  0
153264  1  0
153265  1  0
156266  1  0
161267  1  0
162268  1  0
165269  1  0
165270  1  0
166271  1  0
166272  1  0
166273  1  0
168274  1  0
172275  1  0
173276  1  0
M  END

