
     RDKit          3D

176192  0  0  0  0  0  0  0  0999 V2000
    3.4924    3.0886    7.1536 C   0  0  0  0  0  0  0  0  0  0  0  0
    2.3352    3.5981    7.7550 C   0  0  0  0  0  0  0  0  0  0  0  0
    1.0734    3.0934    7.7064 N   0  0  0  0  0  0  0  0  0  0  0  0
    0.7032    1.7983    7.1157 C   0  0  0  0  0  0  0  0  0  0  0  0
    0.8831    0.6807    8.1332 C   0  0  0  0  0  0  0  0  0  0  0  0
    0.3231    3.9396    8.4782 C   0  0  0  0  0  0  0  0  0  0  0  0
    1.1170    4.9538    8.9909 C   0  0  0  0  0  0  0  0  0  0  0  0
    2.3889    4.7406    8.5246 C   0  0  0  0  0  0  0  0  0  0  0  0
    3.5724    5.4506    8.7229 C   0  0  0  0  0  0  0  0  0  0  0  0
    4.7392    4.9655    8.1063 C   0  0  0  0  0  0  0  0  0  0  0  0
    4.6994    3.7928    7.3264 C   0  0  0  0  0  0  0  0  0  0  0  0
    0.6186    5.9601    9.8153 C   0  0  0  0  0  0  0  0  0  0  0  0
   -0.7482    5.9420   10.1232 C   0  0  0  0  0  0  0  0  0  0  0  0
   -1.5815    4.9385    9.5957 C   0  0  0  0  0  0  0  0  0  0  0  0
   -1.0632    3.9230    8.7628 C   0  0  0  0  0  0  0  0  0  0  0  0
   -2.0014    2.9805    8.1467 C   0  0  0  0  0  0  0  0  0  0  0  0
   -2.7835    3.3749    7.1389 C   0  0  0  0  0  0  0  0  0  0  0  0
   -3.6924    2.4370    6.4723 C   0  0  0  0  0  0  0  0  0  0  0  0
   -3.4117    1.8367    5.2229 C   0  0  0  0  0  0  0  0  0  0  0  0
   -2.3443    2.0195    4.3854 N   0  0  0  0  0  0  0  0  0  0  0  0
   -1.4809    3.2160    4.3201 C   0  0  0  0  0  0  0  0  0  0  0  0
   -2.2599    4.4090    3.7696 C   0  0  0  0  0  0  0  0  0  0  0  0
   -2.5343    1.1225    3.3729 C   0  0  0  0  0  0  0  0  0  0  0  0
   -3.7386    0.4604    3.5254 C   0  0  0  0  0  0  0  0  0  0  0  0
   -4.2771    0.8900    4.7081 C   0  0  0  0  0  0  0  0  0  0  0  0
   -5.4469    0.5022    5.3557 C   0  0  0  0  0  0  0  0  0  0  0  0
   -5.7406    1.0945    6.5887 C   0  0  0  0  0  0  0  0  0  0  0  0
   -4.8697    2.0468    7.1468 C   0  0  0  0  0  0  0  0  0  0  0  0
   -4.2119   -0.4623    2.5964 C   0  0  0  0  0  0  0  0  0  0  0  0
   -3.4194   -0.7266    1.4738 C   0  0  0  0  0  0  0  0  0  0  0  0
   -2.1556   -0.1237    1.3366 C   0  0  0  0  0  0  0  0  0  0  0  0
   -1.6638    0.7701    2.3114 C   0  0  0  0  0  0  0  0  0  0  0  0
   -0.2011    0.9649    2.3597 C   0  0  0  0  0  0  0  0  0  0  0  0
    0.4760    0.6760    3.4795 C   0  0  0  0  0  0  0  0  0  0  0  0
    1.9234    0.4422    3.4675 C   0  0  0  0  0  0  0  0  0  0  0  0
    2.5030   -0.8417    3.2977 C   0  0  0  0  0  0  0  0  0  0  0  0
    1.8992   -2.0473    3.0508 N   0  0  0  0  0  0  0  0  0  0  0  0
    0.4755   -2.3771    3.2564 C   0  0  0  0  0  0  0  0  0  0  0  0
    0.1703   -2.5656    4.7389 C   0  0  0  0  0  0  0  0  0  0  0  0
    2.9333   -2.9318    2.8830 C   0  0  0  0  0  0  0  0  0  0  0  0
    4.1481   -2.3051    3.0907 C   0  0  0  0  0  0  0  0  0  0  0  0
    3.8782   -0.9821    3.3293 C   0  0  0  0  0  0  0  0  0  0  0  0
    4.7419    0.0913    3.5324 C   0  0  0  0  0  0  0  0  0  0  0  0
    4.1820    1.3657    3.6969 C   0  0  0  0  0  0  0  0  0  0  0  0
    2.7859    1.5378    3.6682 C   0  0  0  0  0  0  0  0  0  0  0  0
    5.3647   -2.9763    3.0165 C   0  0  0  0  0  0  0  0  0  0  0  0
    5.3439   -4.3400    2.6921 C   0  0  0  0  0  0  0  0  0  0  0  0
    4.1263   -4.9842    2.3969 C   0  0  0  0  0  0  0  0  0  0  0  0
    2.9049   -4.2844    2.4592 C   0  0  0  0  0  0  0  0  0  0  0  0
    1.7257   -4.8697    1.8104 C   0  0  0  0  0  0  0  0  0  0  0  0
    1.4461   -4.5490    0.5381 C   0  0  0  0  0  0  0  0  0  0  0  0
    0.1073   -4.7667   -0.0645 C   0  0  0  0  0  0  0  0  0  0  0  0
   -0.5842   -3.7922   -0.8504 C   0  0  0  0  0  0  0  0  0  0  0  0
   -0.1664   -2.5762   -1.3381 N   0  0  0  0  0  0  0  0  0  0  0  0
    1.2134   -2.0926   -1.4813 C   0  0  0  0  0  0  0  0  0  0  0  0
    1.6849   -1.3537   -0.2275 C   0  0  0  0  0  0  0  0  0  0  0  0
   -1.2866   -1.9946   -1.8731 C   0  0  0  0  0  0  0  0  0  0  0  0
   -2.3650   -2.8509   -1.7837 C   0  0  0  0  0  0  0  0  0  0  0  0
   -1.9249   -3.9834   -1.1498 C   0  0  0  0  0  0  0  0  0  0  0  0
   -2.6292   -5.1299   -0.7876 C   0  0  0  0  0  0  0  0  0  0  0  0
   -1.9436   -6.1290   -0.0947 C   0  0  0  0  0  0  0  0  0  0  0  0
   -0.5981   -5.9490    0.2720 C   0  0  0  0  0  0  0  0  0  0  0  0
   -3.6405   -2.5129   -2.2298 C   0  0  0  0  0  0  0  0  0  0  0  0
   -3.8281   -1.2357   -2.7712 C   0  0  0  0  0  0  0  0  0  0  0  0
   -2.7560   -0.3285   -2.8451 C   0  0  0  0  0  0  0  0  0  0  0  0
   -1.4625   -0.6916   -2.4137 C   0  0  0  0  0  0  0  0  0  0  0  0
   -0.4531    0.3705   -2.2780 C   0  0  0  0  0  0  0  0  0  0  0  0
    0.2285    0.9228   -3.2901 C   0  0  0  0  0  0  0  0  0  0  0  0
    0.0274    0.6210   -4.7214 C   0  0  0  0  0  0  0  0  0  0  0  0
   -1.3658    0.9854   -5.5918 S   0  0  0  0  0  0  0  0  0  0  0  0
   -0.7236    0.8146   -7.1382 C   0  0  0  0  0  0  0  0  0  0  0  0
    0.6472    0.5869   -6.9929 C   0  0  0  0  0  0  0  0  0  0  0  0
    1.0528    0.4440   -5.6518 C   0  0  0  0  0  0  0  0  0  0  0  0
    2.4000    0.2298   -5.3372 C   0  0  0  0  0  0  0  0  0  0  0  0
    3.3532    0.1830   -6.3708 C   0  0  0  0  0  0  0  0  0  0  0  0
    4.8020   -0.0533   -6.0441 C   0  0  0  0  0  0  0  0  0  0  0  0
    2.9631    0.4376   -7.7059 C   0  0  0  0  0  0  0  0  0  0  0  0
    3.9549    0.4954   -8.6991 O   0  0  0  0  0  0  0  0  0  0  0  0
    3.7327    0.8885  -10.0460 C   0  0  0  0  0  0  0  0  0  0  0  0
    1.6025    0.6480   -8.0085 C   0  0  0  0  0  0  0  0  0  0  0  0
   -1.4837    1.1368   -8.3617 C   0  0  0  0  0  0  0  0  0  0  0  0
   -1.6344    0.3262   -9.4249 C   0  0  0  0  0  0  0  0  0  0  0  0
   -0.8873   -0.9271   -9.6594 C   0  0  0  0  0  0  0  0  0  0  0  0
   -1.3009   -2.2255   -9.2418 C   0  0  0  0  0  0  0  0  0  0  0  0
   -2.4044   -2.6270   -8.5308 N   0  0  0  0  0  0  0  0  0  0  0  0
   -3.2585   -1.8132   -7.6489 C   0  0  0  0  0  0  0  0  0  0  0  0
   -2.8906   -2.0416   -6.1856 C   0  0  0  0  0  0  0  0  0  0  0  0
   -2.3702   -3.9982   -8.5593 C   0  0  0  0  0  0  0  0  0  0  0  0
   -1.2365   -4.4446   -9.2076 C   0  0  0  0  0  0  0  0  0  0  0  0
   -0.5818   -3.3342   -9.6659 C   0  0  0  0  0  0  0  0  0  0  0  0
    0.5452   -3.2497  -10.4779 C   0  0  0  0  0  0  0  0  0  0  0  0
    0.9246   -1.9893  -10.9385 C   0  0  0  0  0  0  0  0  0  0  0  0
    0.1948   -0.8484  -10.5659 C   0  0  0  0  0  0  0  0  0  0  0  0
   -0.9154   -5.7949   -9.3349 C   0  0  0  0  0  0  0  0  0  0  0  0
   -1.7852   -6.7301   -8.7683 C   0  0  0  0  0  0  0  0  0  0  0  0
   -2.9636   -6.3089   -8.1239 C   0  0  0  0  0  0  0  0  0  0  0  0
   -3.2987   -4.9380   -8.0370 C   0  0  0  0  0  0  0  0  0  0  0  0
   -4.6626   -4.5782   -7.6107 C   0  0  0  0  0  0  0  0  0  0  0  0
   -5.2093   -5.0646   -6.5019 C   0  0  0  0  0  0  0  0  0  0  0  0
    3.4800    2.1833    6.5633 H   0  0  0  0  0  0  0  0  0  0  0  0
   -0.3305    1.7966    6.7322 H   0  0  0  0  0  0  0  0  0  0  0  0
    1.3330    1.5891    6.2292 H   0  0  0  0  0  0  0  0  0  0  0  0
    1.9390    0.6305    8.4675 H   0  0  0  0  0  0  0  0  0  0  0  0
    0.6041   -0.2915    7.6722 H   0  0  0  0  0  0  0  0  0  0  0  0
    0.2326    0.8611    9.0140 H   0  0  0  0  0  0  0  0  0  0  0  0
    3.6007    6.3474    9.3257 H   0  0  0  0  0  0  0  0  0  0  0  0
    5.6770    5.4951    8.2314 H   0  0  0  0  0  0  0  0  0  0  0  0
    5.6060    3.4218    6.8617 H   0  0  0  0  0  0  0  0  0  0  0  0
    1.2597    6.7376   10.2079 H   0  0  0  0  0  0  0  0  0  0  0  0
   -1.1693    6.7087   10.7628 H   0  0  0  0  0  0  0  0  0  0  0  0
   -2.6409    4.9573    9.8293 H   0  0  0  0  0  0  0  0  0  0  0  0
   -2.0160    1.9510    8.4861 H   0  0  0  0  0  0  0  0  0  0  0  0
   -2.7412    4.3994    6.7868 H   0  0  0  0  0  0  0  0  0  0  0  0
   -1.0549    3.4592    5.3074 H   0  0  0  0  0  0  0  0  0  0  0  0
   -0.6120    3.0655    3.6592 H   0  0  0  0  0  0  0  0  0  0  0  0
   -3.1499    4.6243    4.3968 H   0  0  0  0  0  0  0  0  0  0  0  0
   -1.6013    5.3053    3.7544 H   0  0  0  0  0  0  0  0  0  0  0  0
   -2.5943    4.1927    2.7320 H   0  0  0  0  0  0  0  0  0  0  0  0
   -6.1073   -0.2417    4.9264 H   0  0  0  0  0  0  0  0  0  0  0  0
   -6.6355    0.8021    7.1279 H   0  0  0  0  0  0  0  0  0  0  0  0
   -5.1137    2.4801    8.1105 H   0  0  0  0  0  0  0  0  0  0  0  0
   -5.1607   -0.9634    2.7301 H   0  0  0  0  0  0  0  0  0  0  0  0
   -3.7531   -1.4454    0.7366 H   0  0  0  0  0  0  0  0  0  0  0  0
   -1.5143   -0.4440    0.5302 H   0  0  0  0  0  0  0  0  0  0  0  0
    0.3442    1.0700    1.4266 H   0  0  0  0  0  0  0  0  0  0  0  0
   -0.0573    0.4519    4.3932 H   0  0  0  0  0  0  0  0  0  0  0  0
   -0.1835   -1.6156    2.8194 H   0  0  0  0  0  0  0  0  0  0  0  0
    0.1607   -3.2825    2.7227 H   0  0  0  0  0  0  0  0  0  0  0  0
    0.4676   -1.6684    5.3183 H   0  0  0  0  0  0  0  0  0  0  0  0
   -0.9168   -2.7385    4.8777 H   0  0  0  0  0  0  0  0  0  0  0  0
    0.7247   -3.4468    5.1289 H   0  0  0  0  0  0  0  0  0  0  0  0
    5.8151   -0.0398    3.5419 H   0  0  0  0  0  0  0  0  0  0  0  0
    4.8271    2.2213    3.8513 H   0  0  0  0  0  0  0  0  0  0  0  0
    2.3762    2.5330    3.8000 H   0  0  0  0  0  0  0  0  0  0  0  0
    6.3015   -2.4652    3.1956 H   0  0  0  0  0  0  0  0  0  0  0  0
    6.2762   -4.8890    2.6222 H   0  0  0  0  0  0  0  0  0  0  0  0
    4.1437   -6.0128    2.0632 H   0  0  0  0  0  0  0  0  0  0  0  0
    1.0062   -5.3861    2.4332 H   0  0  0  0  0  0  0  0  0  0  0  0
    2.2149   -4.0448   -0.0082 H   0  0  0  0  0  0  0  0  0  0  0  0
    1.8860   -2.9295   -1.7442 H   0  0  0  0  0  0  0  0  0  0  0  0
    1.3124   -1.4395   -2.3660 H   0  0  0  0  0  0  0  0  0  0  0  0
    2.7015   -1.6837    0.0630 H   0  0  0  0  0  0  0  0  0  0  0  0
    1.7294   -0.2597   -0.4074 H   0  0  0  0  0  0  0  0  0  0  0  0
    0.9908   -1.5329    0.6181 H   0  0  0  0  0  0  0  0  0  0  0  0
   -3.6758   -5.2491   -1.0308 H   0  0  0  0  0  0  0  0  0  0  0  0
   -2.4641   -7.0355    0.1857 H   0  0  0  0  0  0  0  0  0  0  0  0
   -0.1149   -6.7328    0.8431 H   0  0  0  0  0  0  0  0  0  0  0  0
   -4.4704   -3.2010   -2.1383 H   0  0  0  0  0  0  0  0  0  0  0  0
   -4.8112   -0.9346   -3.1048 H   0  0  0  0  0  0  0  0  0  0  0  0
   -2.9533    0.6800   -3.1917 H   0  0  0  0  0  0  0  0  0  0  0  0
   -0.1872    0.6701   -1.2740 H   0  0  0  0  0  0  0  0  0  0  0  0
    1.0285    1.6080   -3.0363 H   0  0  0  0  0  0  0  0  0  0  0  0
    2.7057    0.0950   -4.3047 H   0  0  0  0  0  0  0  0  0  0  0  0
    5.3821    0.8762   -6.2167 H   0  0  0  0  0  0  0  0  0  0  0  0
    5.2080   -0.8595   -6.6959 H   0  0  0  0  0  0  0  0  0  0  0  0
    4.9363   -0.3649   -4.9844 H   0  0  0  0  0  0  0  0  0  0  0  0
    3.0609    0.1648  -10.5520 H   0  0  0  0  0  0  0  0  0  0  0  0
    3.2904    1.9083  -10.0806 H   0  0  0  0  0  0  0  0  0  0  0  0
    4.7027    0.9005  -10.5836 H   0  0  0  0  0  0  0  0  0  0  0  0
    1.3027    0.9152   -9.0043 H   0  0  0  0  0  0  0  0  0  0  0  0
   -2.1177    2.0137   -8.3155 H   0  0  0  0  0  0  0  0  0  0  0  0
   -2.2839    0.6580  -10.2226 H   0  0  0  0  0  0  0  0  0  0  0  0
   -4.3250   -2.0279   -7.8232 H   0  0  0  0  0  0  0  0  0  0  0  0
   -3.1780   -0.7422   -7.8589 H   0  0  0  0  0  0  0  0  0  0  0  0
   -3.4931   -1.3624   -5.5505 H   0  0  0  0  0  0  0  0  0  0  0  0
   -3.0973   -3.0852   -5.8797 H   0  0  0  0  0  0  0  0  0  0  0  0
   -1.8121   -1.8430   -6.0244 H   0  0  0  0  0  0  0  0  0  0  0  0
    1.0829   -4.1365  -10.7891 H   0  0  0  0  0  0  0  0  0  0  0  0
    1.7649   -1.8962  -11.6138 H   0  0  0  0  0  0  0  0  0  0  0  0
    0.4767    0.1048  -10.9937 H   0  0  0  0  0  0  0  0  0  0  0  0
   -0.0173   -6.1169   -9.8495 H   0  0  0  0  0  0  0  0  0  0  0  0
   -1.5682   -7.7890   -8.8488 H   0  0  0  0  0  0  0  0  0  0  0  0
   -3.6448   -7.0633   -7.7559 H   0  0  0  0  0  0  0  0  0  0  0  0
   -5.2608   -3.9449   -8.2521 H   0  0  0  0  0  0  0  0  0  0  0  0
   -6.2284   -4.8063   -6.2414 H   0  0  0  0  0  0  0  0  0  0  0  0
   -4.6494   -5.7061   -5.8354 H   0  0  0  0  0  0  0  0  0  0  0  0
  1  2  2  0
  2  3  1  0
  3  4  1  0
  4  5  1  0
  3  6  1  0
  6  7  2  0
  7  8  1  0
  8  9  2  0
  9 10  1  0
 10 11  2  0
  7 12  1  0
 12 13  2  0
 13 14  1  0
 14 15  2  0
 15 16  1  0
 16 17  2  3
 17 18  1  0
 18 19  2  0
 19 20  1  0
 20 21  1  0
 21 22  1  0
 20 23  1  0
 23 24  2  0
 24 25  1  0
 25 26  2  0
 26 27  1  0
 27 28  2  0
 24 29  1  0
 29 30  2  0
 30 31  1  0
 31 32  2  0
 32 33  1  0
 33 34  2  3
 34 35  1  0
 35 36  2  0
 36 37  1  0
 37 38  1  0
 38 39  1  0
 37 40  1  0
 40 41  2  0
 41 42  1  0
 42 43  2  0
 43 44  1  0
 44 45  2  0
 41 46  1  0
 46 47  2  0
 47 48  1  0
 48 49  2  0
 49 50  1  0
 50 51  2  3
 51 52  1  0
 52 53  2  0
 53 54  1  0
 54 55  1  0
 55 56  1  0
 54 57  1  0
 57 58  2  0
 58 59  1  0
 59 60  2  0
 60 61  1  0
 61 62  2  0
 58 63  1  0
 63 64  2  0
 64 65  1  0
 65 66  2  0
 66 67  1  0
 67 68  2  3
 68 69  1  0
 69 70  1  0
 70 71  1  0
 71 72  2  0
 72 73  1  0
 73 74  1  0
 74 75  2  0
 75 76  1  0
 75 77  1  0
 77 78  1  0
 78 79  1  0
 77 80  2  0
 71 81  1  0
 81 82  2  3
 82 83  1  0
 83 84  2  0
 84 85  1  0
 85 86  1  0
 86 87  1  0
 85 88  1  0
 88 89  2  0
 89 90  1  0
 90 91  2  0
 91 92  1  0
 92 93  2  0
 89 94  1  0
 94 95  2  0
 95 96  1  0
 96 97  2  0
 97 98  1  0
 98 99  2  3
 11  1  1  0
 28 18  1  0
 45 35  1  0
 62 52  1  0
 73 69  2  0
 93 83  1  0
  8  2  1  0
 25 19  1  0
 42 36  1  0
 59 53  1  0
 80 72  1  0
 90 84  1  0
 15  6  1  0
 32 23  1  0
 49 40  1  0
 66 57  1  0
 97 88  1  0
  1100  1  0
  4101  1  0
  4102  1  0
  5103  1  0
  5104  1  0
  5105  1  0
  9106  1  0
 10107  1  0
 11108  1  0
 12109  1  0
 13110  1  0
 14111  1  0
 16112  1  0
 17113  1  0
 21114  1  0
 21115  1  0
 22116  1  0
 22117  1  0
 22118  1  0
 26119  1  0
 27120  1  0
 28121  1  0
 29122  1  0
 30123  1  0
 31124  1  0
 33125  1  0
 34126  1  0
 38127  1  0
 38128  1  0
 39129  1  0
 39130  1  0
 39131  1  0
 43132  1  0
 44133  1  0
 45134  1  0
 46135  1  0
 47136  1  0
 48137  1  0
 50138  1  0
 51139  1  0
 55140  1  0
 55141  1  0
 56142  1  0
 56143  1  0
 56144  1  0
 60145  1  0
 61146  1  0
 62147  1  0
 63148  1  0
 64149  1  0
 65150  1  0
 67151  1  0
 68152  1  0
 74153  1  0
 76154  1  0
 76155  1  0
 76156  1  0
 79157  1  0
 79158  1  0
 79159  1  0
 80160  1  0
 81161  1  0
 82162  1  0
 86163  1  0
 86164  1  0
 87165  1  0
 87166  1  0
 87167  1  0
 91168  1  0
 92169  1  0
 93170  1  0
 94171  1  0
 95172  1  0
 96173  1  0
 98174  1  0
 99175  1  0
 99176  1  0
M  END

