
     RDKit          3D

200220  0  0  0  0  0  0  0  0999 V2000
    2.4607  -12.3204    6.8634 C   0  0  0  0  0  0  0  0  0  0  0  0
    3.2664  -11.2514    7.2469 C   0  0  0  0  0  0  0  0  0  0  0  0
    2.6689   -9.9979    7.0235 C   0  0  0  0  0  0  0  0  0  0  0  0
    3.2595   -8.7371    7.2469 C   0  0  0  0  0  0  0  0  0  0  0  0
    4.6270   -8.6022    7.7774 C   0  0  0  0  0  0  0  0  0  0  0  0
    5.1084   -9.0641    9.3216 S   0  0  0  0  0  0  0  0  0  0  0  0
    6.7240   -8.6320    9.1413 C   0  0  0  0  0  0  0  0  0  0  0  0
    7.7830   -8.8511   10.1785 C   0  0  0  0  0  0  0  0  0  0  0  0
    8.4096  -10.2311   10.0268 C   0  0  0  0  0  0  0  0  0  0  0  0
    6.9159   -8.1422    7.8502 C   0  0  0  0  0  0  0  0  0  0  0  0
    8.4786   -7.6337    7.2246 Cl  0  0  0  0  0  0  0  0  0  0  0  0
    5.7374   -8.1171    7.0860 C   0  0  0  0  0  0  0  0  0  0  0  0
    5.6878   -7.6083    5.4039 Cl  0  0  0  0  0  0  0  0  0  0  0  0
    2.4986   -7.6086    6.8986 C   0  0  0  0  0  0  0  0  0  0  0  0
    1.2203   -7.7087    6.3406 C   0  0  0  0  0  0  0  0  0  0  0  0
    0.6353   -8.9678    6.1005 C   0  0  0  0  0  0  0  0  0  0  0  0
   -0.6666   -9.1027    5.4167 C   0  0  0  0  0  0  0  0  0  0  0  0
   -0.9812   -8.5594    3.8556 S   0  0  0  0  0  0  0  0  0  0  0  0
   -2.5908   -9.0408    3.8160 C   0  0  0  0  0  0  0  0  0  0  0  0
   -3.4960   -8.8812    2.6323 C   0  0  0  0  0  0  0  0  0  0  0  0
   -3.4141  -10.1016    1.7238 C   0  0  0  0  0  0  0  0  0  0  0  0
   -2.8997   -9.6642    5.0247 C   0  0  0  0  0  0  0  0  0  0  0  0
   -1.8235   -9.6910    5.9263 C   0  0  0  0  0  0  0  0  0  0  0  0
   -1.9444  -10.3443    7.5548 Cl  0  0  0  0  0  0  0  0  0  0  0  0
   -4.4809  -10.3414    5.3894 Cl  0  0  0  0  0  0  0  0  0  0  0  0
    1.3911  -10.0949    6.4640 C   0  0  0  0  0  0  0  0  0  0  0  0
    1.0155  -11.7205    6.2367 S   0  0  0  0  0  0  0  0  0  0  0  0
    0.6536   -6.4627    6.0375 C   0  0  0  0  0  0  0  0  0  0  0  0
    1.4968   -5.3912    6.3281 C   0  0  0  0  0  0  0  0  0  0  0  0
    2.9342   -5.9837    6.9918 S   0  0  0  0  0  0  0  0  0  0  0  0
    1.2631   -4.0075    5.8864 C   0  0  0  0  0  0  0  0  0  0  0  0
    2.2208   -2.9920    5.8373 C   0  0  0  0  0  0  0  0  0  0  0  0
    1.8088   -1.8886    5.0692 C   0  0  0  0  0  0  0  0  0  0  0  0
    2.6002   -0.7742    4.7273 C   0  0  0  0  0  0  0  0  0  0  0  0
    3.9273   -0.5591    5.3229 C   0  0  0  0  0  0  0  0  0  0  0  0
    4.1863   -0.1609    6.9334 S   0  0  0  0  0  0  0  0  0  0  0  0
    5.8641   -0.0652    6.8347 C   0  0  0  0  0  0  0  0  0  0  0  0
    6.7769    0.2069    7.9998 C   0  0  0  0  0  0  0  0  0  0  0  0
    6.3656    1.4710    8.7532 C   0  0  0  0  0  0  0  0  0  0  0  0
    6.2467   -0.3746    5.5256 C   0  0  0  0  0  0  0  0  0  0  0  0
    7.9198   -0.4574    4.9911 Cl  0  0  0  0  0  0  0  0  0  0  0  0
    5.1588   -0.6452    4.6791 C   0  0  0  0  0  0  0  0  0  0  0  0
    5.3400   -1.1255    2.9952 Cl  0  0  0  0  0  0  0  0  0  0  0  0
    2.0749    0.1116    3.7690 C   0  0  0  0  0  0  0  0  0  0  0  0
    0.8043   -0.0601    3.2085 C   0  0  0  0  0  0  0  0  0  0  0  0
   -0.0291   -1.1238    3.6155 C   0  0  0  0  0  0  0  0  0  0  0  0
   -1.3908   -1.3160    3.0613 C   0  0  0  0  0  0  0  0  0  0  0  0
   -1.9546   -2.7295    2.3336 S   0  0  0  0  0  0  0  0  0  0  0  0
   -3.5173   -2.1825    2.0421 C   0  0  0  0  0  0  0  0  0  0  0  0
   -4.5981   -2.9952    1.3925 C   0  0  0  0  0  0  0  0  0  0  0  0
   -4.4383   -2.9999   -0.1219 C   0  0  0  0  0  0  0  0  0  0  0  0
   -3.6162   -0.8671    2.4892 C   0  0  0  0  0  0  0  0  0  0  0  0
   -2.4340   -0.3874    3.0760 C   0  0  0  0  0  0  0  0  0  0  0  0
   -2.3191    1.2005    3.8275 Cl  0  0  0  0  0  0  0  0  0  0  0  0
   -5.0819    0.0953    2.3606 Cl  0  0  0  0  0  0  0  0  0  0  0  0
    0.5265   -2.0378    4.5274 C   0  0  0  0  0  0  0  0  0  0  0  0
   -0.0971   -3.5189    5.0188 S   0  0  0  0  0  0  0  0  0  0  0  0
    0.5442    0.8306    2.1604 C   0  0  0  0  0  0  0  0  0  0  0  0
    1.5924    1.7080    1.9142 C   0  0  0  0  0  0  0  0  0  0  0  0
    2.8561    1.3842    2.9839 S   0  0  0  0  0  0  0  0  0  0  0  0
    1.7117    2.4907    0.6865 C   0  0  0  0  0  0  0  0  0  0  0  0
    1.6620    1.9325   -0.5843 C   0  0  0  0  0  0  0  0  0  0  0  0
    1.4999    2.8835   -1.6010 C   0  0  0  0  0  0  0  0  0  0  0  0
    1.3321    2.6061   -2.9747 C   0  0  0  0  0  0  0  0  0  0  0  0
    1.4314    1.2314   -3.5212 C   0  0  0  0  0  0  0  0  0  0  0  0
    0.2425    0.4706   -4.4381 S   0  0  0  0  0  0  0  0  0  0  0  0
    1.0333   -1.0010   -4.6069 C   0  0  0  0  0  0  0  0  0  0  0  0
    0.5010   -2.1701   -5.3805 C   0  0  0  0  0  0  0  0  0  0  0  0
    1.0154   -2.1519   -6.8148 C   0  0  0  0  0  0  0  0  0  0  0  0
    2.2735   -0.9062   -3.9779 C   0  0  0  0  0  0  0  0  0  0  0  0
    3.4512   -2.2107   -3.9679 Cl  0  0  0  0  0  0  0  0  0  0  0  0
    2.4998    0.3424   -3.3718 C   0  0  0  0  0  0  0  0  0  0  0  0
    4.0188    0.7637   -2.5906 Cl  0  0  0  0  0  0  0  0  0  0  0  0
    0.9651    3.6928   -3.7869 C   0  0  0  0  0  0  0  0  0  0  0  0
    0.8220    4.9942   -3.3005 C   0  0  0  0  0  0  0  0  0  0  0  0
    1.0775    5.2845   -1.9421 C   0  0  0  0  0  0  0  0  0  0  0  0
    0.9400    6.6515   -1.3963 C   0  0  0  0  0  0  0  0  0  0  0  0
   -0.0579    7.0855   -0.1115 S   0  0  0  0  0  0  0  0  0  0  0  0
    0.2778    8.7328   -0.1645 C   0  0  0  0  0  0  0  0  0  0  0  0
   -0.2805    9.7474    0.7852 C   0  0  0  0  0  0  0  0  0  0  0  0
    0.6267    9.8988    1.9998 C   0  0  0  0  0  0  0  0  0  0  0  0
    1.2094    8.9637   -1.1728 C   0  0  0  0  0  0  0  0  0  0  0  0
    1.5795    7.8006   -1.8653 C   0  0  0  0  0  0  0  0  0  0  0  0
    2.7887    7.7903   -3.1436 Cl  0  0  0  0  0  0  0  0  0  0  0  0
    1.8752   10.5515   -1.5327 Cl  0  0  0  0  0  0  0  0  0  0  0  0
    1.3912    4.1919   -1.1108 C   0  0  0  0  0  0  0  0  0  0  0  0
    1.5396    4.1613    0.5722 S   0  0  0  0  0  0  0  0  0  0  0  0
    0.2988    5.8820   -4.2570 C   0  0  0  0  0  0  0  0  0  0  0  0
    0.0408    5.2888   -5.4982 C   0  0  0  0  0  0  0  0  0  0  0  0
    0.4689    3.6631   -5.3883 S   0  0  0  0  0  0  0  0  0  0  0  0
   -0.7914    5.9033   -6.5638 C   0  0  0  0  0  0  0  0  0  0  0  0
   -1.6133    7.3584   -6.3312 S   0  0  0  0  0  0  0  0  0  0  0  0
   -2.7195    7.2054   -7.5812 C   0  0  0  0  0  0  0  0  0  0  0  0
   -2.4562    6.0001   -8.2260 C   0  0  0  0  0  0  0  0  0  0  0  0
   -1.3678    5.2849   -7.6899 C   0  0  0  0  0  0  0  0  0  0  0  0
   -0.9954    4.0620   -8.2684 C   0  0  0  0  0  0  0  0  0  0  0  0
   -1.7559    3.5230   -9.3236 C   0  0  0  0  0  0  0  0  0  0  0  0
   -1.3671    2.2000   -9.9279 C   0  0  0  0  0  0  0  0  0  0  0  0
   -2.8823    4.2169   -9.8181 C   0  0  0  0  0  0  0  0  0  0  0  0
   -3.6394    3.6337  -10.8486 O   0  0  0  0  0  0  0  0  0  0  0  0
   -4.8532    4.1740  -11.3598 C   0  0  0  0  0  0  0  0  0  0  0  0
   -3.2212    5.4698   -9.2698 C   0  0  0  0  0  0  0  0  0  0  0  0
   -3.9862    7.9539   -7.6489 C   0  0  0  0  0  0  0  0  0  0  0  0
   -5.0978    7.5187   -7.0389 C   0  0  0  0  0  0  0  0  0  0  0  0
   -5.1112    6.3084   -6.1957 C   0  0  0  0  0  0  0  0  0  0  0  0
   -5.5498    4.7749   -6.7330 S   0  0  0  0  0  0  0  0  0  0  0  0
   -4.9935    3.9158   -5.3913 C   0  0  0  0  0  0  0  0  0  0  0  0
   -4.4613    4.8420   -4.4794 C   0  0  0  0  0  0  0  0  0  0  0  0
   -4.5305    6.1700   -4.9341 C   0  0  0  0  0  0  0  0  0  0  0  0
   -4.0258    7.2152   -4.1588 C   0  0  0  0  0  0  0  0  0  0  0  0
   -3.4087    6.9349   -2.9270 C   0  0  0  0  0  0  0  0  0  0  0  0
   -2.7791    8.0610   -2.1561 C   0  0  0  0  0  0  0  0  0  0  0  0
   -3.3090    5.5987   -2.4729 C   0  0  0  0  0  0  0  0  0  0  0  0
   -2.6170    5.3326   -1.2795 O   0  0  0  0  0  0  0  0  0  0  0  0
   -2.2527    4.0290   -0.8346 C   0  0  0  0  0  0  0  0  0  0  0  0
   -3.8961    4.5613   -3.2275 C   0  0  0  0  0  0  0  0  0  0  0  0
   -5.0172    2.4411   -5.3199 C   0  0  0  0  0  0  0  0  0  0  0  0
   -4.0173    1.7309   -4.7908 C   0  0  0  0  0  0  0  0  0  0  0  0
   -4.0251    0.2573   -4.7582 C   0  0  0  0  0  0  0  0  0  0  0  0
   -4.8046   -0.7523   -5.8624 S   0  0  0  0  0  0  0  0  0  0  0  0
   -4.1610   -2.2042   -5.3033 C   0  0  0  0  0  0  0  0  0  0  0  0
   -3.3321   -1.9185   -4.2110 C   0  0  0  0  0  0  0  0  0  0  0  0
   -3.2678   -0.5480   -3.9068 C   0  0  0  0  0  0  0  0  0  0  0  0
   -2.5240   -0.1004   -2.8123 C   0  0  0  0  0  0  0  0  0  0  0  0
   -1.7792   -1.0205   -2.0545 C   0  0  0  0  0  0  0  0  0  0  0  0
   -0.9732   -0.5360   -0.8869 C   0  0  0  0  0  0  0  0  0  0  0  0
   -1.8172   -2.3968   -2.3678 C   0  0  0  0  0  0  0  0  0  0  0  0
   -1.0467   -3.2860   -1.5973 O   0  0  0  0  0  0  0  0  0  0  0  0
   -0.9371   -4.6841   -1.8453 C   0  0  0  0  0  0  0  0  0  0  0  0
   -2.6269   -2.8471   -3.4328 C   0  0  0  0  0  0  0  0  0  0  0  0
   -4.4493   -3.5059   -5.9287 C   0  0  0  0  0  0  0  0  0  0  0  0
   -3.4991   -4.4062   -6.1744 C   0  0  0  0  0  0  0  0  0  0  0  0
    2.7278  -13.3640    6.9400 H   0  0  0  0  0  0  0  0  0  0  0  0
    4.2609  -11.3871    7.6535 H   0  0  0  0  0  0  0  0  0  0  0  0
    7.3300   -8.7626   11.1895 H   0  0  0  0  0  0  0  0  0  0  0  0
    8.5699   -8.0731   10.0895 H   0  0  0  0  0  0  0  0  0  0  0  0
    7.6411  -11.0210   10.1746 H   0  0  0  0  0  0  0  0  0  0  0  0
    8.8569  -10.3449    9.0163 H   0  0  0  0  0  0  0  0  0  0  0  0
    9.2078  -10.3638   10.7864 H   0  0  0  0  0  0  0  0  0  0  0  0
   -4.5461   -8.7374    2.9669 H   0  0  0  0  0  0  0  0  0  0  0  0
   -3.1983   -7.9770    2.0583 H   0  0  0  0  0  0  0  0  0  0  0  0
   -2.3676  -10.2620    1.3843 H   0  0  0  0  0  0  0  0  0  0  0  0
   -3.7668  -11.0074    2.2618 H   0  0  0  0  0  0  0  0  0  0  0  0
   -4.0554   -9.9442    0.8298 H   0  0  0  0  0  0  0  0  0  0  0  0
   -0.3162   -6.3421    5.5765 H   0  0  0  0  0  0  0  0  0  0  0  0
    3.2139   -3.0904    6.2622 H   0  0  0  0  0  0  0  0  0  0  0  0
    7.8244    0.3294    7.6528 H   0  0  0  0  0  0  0  0  0  0  0  0
    6.7434   -0.6631    8.6920 H   0  0  0  0  0  0  0  0  0  0  0  0
    7.1089    1.6865    9.5486 H   0  0  0  0  0  0  0  0  0  0  0  0
    6.3235    2.3345    8.0573 H   0  0  0  0  0  0  0  0  0  0  0  0
    5.3714    1.3331    9.2276 H   0  0  0  0  0  0  0  0  0  0  0  0
   -4.5469   -4.0385    1.7687 H   0  0  0  0  0  0  0  0  0  0  0  0
   -5.5972   -2.5908    1.6572 H   0  0  0  0  0  0  0  0  0  0  0  0
   -3.4839   -3.4911   -0.3961 H   0  0  0  0  0  0  0  0  0  0  0  0
   -4.4517   -1.9622   -0.5163 H   0  0  0  0  0  0  0  0  0  0  0  0
   -5.2722   -3.5700   -0.5838 H   0  0  0  0  0  0  0  0  0  0  0  0
   -0.3469    0.8040    1.5531 H   0  0  0  0  0  0  0  0  0  0  0  0
    1.6818    0.8638   -0.7504 H   0  0  0  0  0  0  0  0  0  0  0  0
    0.8011   -3.1189   -4.8866 H   0  0  0  0  0  0  0  0  0  0  0  0
   -0.6078   -2.1300   -5.3947 H   0  0  0  0  0  0  0  0  0  0  0  0
    2.1235   -2.2207   -6.8309 H   0  0  0  0  0  0  0  0  0  0  0  0
    0.6973   -1.2174   -7.3254 H   0  0  0  0  0  0  0  0  0  0  0  0
    0.5979   -3.0182   -7.3693 H   0  0  0  0  0  0  0  0  0  0  0  0
   -0.3882   10.7280    0.2729 H   0  0  0  0  0  0  0  0  0  0  0  0
   -1.2902    9.4250    1.1167 H   0  0  0  0  0  0  0  0  0  0  0  0
    0.2136   10.6730    2.6791 H   0  0  0  0  0  0  0  0  0  0  0  0
    0.6936    8.9364    2.5516 H   0  0  0  0  0  0  0  0  0  0  0  0
    1.6455   10.2100    1.6827 H   0  0  0  0  0  0  0  0  0  0  0  0
    0.0322    6.9079   -4.0316 H   0  0  0  0  0  0  0  0  0  0  0  0
   -0.1138    3.5381   -7.9394 H   0  0  0  0  0  0  0  0  0  0  0  0
   -1.0855    2.3471  -10.9917 H   0  0  0  0  0  0  0  0  0  0  0  0
   -2.2244    1.4966   -9.8728 H   0  0  0  0  0  0  0  0  0  0  0  0
   -0.5102    1.7385   -9.3950 H   0  0  0  0  0  0  0  0  0  0  0  0
   -5.6035    4.2660  -10.5445 H   0  0  0  0  0  0  0  0  0  0  0  0
   -4.6668    5.1668  -11.8228 H   0  0  0  0  0  0  0  0  0  0  0  0
   -5.2546    3.4911  -12.1361 H   0  0  0  0  0  0  0  0  0  0  0  0
   -4.0729    6.0236   -9.6392 H   0  0  0  0  0  0  0  0  0  0  0  0
   -4.0234    8.8564   -8.2444 H   0  0  0  0  0  0  0  0  0  0  0  0
   -6.0202    8.0678   -7.1691 H   0  0  0  0  0  0  0  0  0  0  0  0
   -4.0803    8.2341   -4.5193 H   0  0  0  0  0  0  0  0  0  0  0  0
   -2.8172    7.8659   -1.0656 H   0  0  0  0  0  0  0  0  0  0  0  0
   -3.3173    9.0143   -2.3430 H   0  0  0  0  0  0  0  0  0  0  0  0
   -1.7241    8.1799   -2.4783 H   0  0  0  0  0  0  0  0  0  0  0  0
   -3.1602    3.4449   -0.5770 H   0  0  0  0  0  0  0  0  0  0  0  0
   -1.6209    4.1190    0.0726 H   0  0  0  0  0  0  0  0  0  0  0  0
   -1.6708    3.5059   -1.6233 H   0  0  0  0  0  0  0  0  0  0  0  0
   -3.9141    3.5589   -2.8337 H   0  0  0  0  0  0  0  0  0  0  0  0
   -5.8538    1.9328   -5.7819 H   0  0  0  0  0  0  0  0  0  0  0  0
   -3.1414    2.2329   -4.4054 H   0  0  0  0  0  0  0  0  0  0  0  0
   -2.5022    0.9495   -2.5561 H   0  0  0  0  0  0  0  0  0  0  0  0
   -1.4921   -0.8069    0.0533 H   0  0  0  0  0  0  0  0  0  0  0  0
   -0.8470    0.5660   -0.9172 H   0  0  0  0  0  0  0  0  0  0  0  0
    0.0363   -0.9985   -0.8959 H   0  0  0  0  0  0  0  0  0  0  0  0
   -1.9277   -5.1712   -1.7255 H   0  0  0  0  0  0  0  0  0  0  0  0
   -0.2312   -5.1272   -1.1134 H   0  0  0  0  0  0  0  0  0  0  0  0
   -0.5454   -4.8583   -2.8691 H   0  0  0  0  0  0  0  0  0  0  0  0
   -2.7077   -3.9031   -3.6397 H   0  0  0  0  0  0  0  0  0  0  0  0
   -5.4514   -3.6930   -6.2898 H   0  0  0  0  0  0  0  0  0  0  0  0
   -3.7502   -5.3322   -6.6748 H   0  0  0  0  0  0  0  0  0  0  0  0
   -2.4638   -4.2194   -5.9230 H   0  0  0  0  0  0  0  0  0  0  0  0
  1  2  2  0
  2  3  1  0
  3  4  2  0
  4  5  1  0
  5  6  1  0
  6  7  1  0
  7  8  1  0
  8  9  1  0
  7 10  2  0
 10 11  1  0
 10 12  1  0
 12 13  1  0
  4 14  1  0
 14 15  2  0
 15 16  1  0
 16 17  1  0
 17 18  1  0
 18 19  1  0
 19 20  1  0
 20 21  1  0
 19 22  2  0
 22 23  1  0
 23 24  1  0
 22 25  1  0
 16 26  2  0
 26 27  1  0
 15 28  1  0
 28 29  2  0
 29 30  1  0
 29 31  1  0
 31 32  2  0
 32 33  1  0
 33 34  2  0
 34 35  1  0
 35 36  1  0
 36 37  1  0
 37 38  1  0
 38 39  1  0
 37 40  2  0
 40 41  1  0
 40 42  1  0
 42 43  1  0
 34 44  1  0
 44 45  2  0
 45 46  1  0
 46 47  1  0
 47 48  1  0
 48 49  1  0
 49 50  1  0
 50 51  1  0
 49 52  2  0
 52 53  1  0
 53 54  1  0
 52 55  1  0
 46 56  2  0
 56 57  1  0
 45 58  1  0
 58 59  2  0
 59 60  1  0
 59 61  1  0
 61 62  2  0
 62 63  1  0
 63 64  2  0
 64 65  1  0
 65 66  1  0
 66 67  1  0
 67 68  1  0
 68 69  1  0
 67 70  2  0
 70 71  1  0
 70 72  1  0
 72 73  1  0
 64 74  1  0
 74 75  2  0
 75 76  1  0
 76 77  1  0
 77 78  1  0
 78 79  1  0
 79 80  1  0
 80 81  1  0
 79 82  2  0
 82 83  1  0
 83 84  1  0
 82 85  1  0
 76 86  2  0
 86 87  1  0
 75 88  1  0
 88 89  2  0
 89 90  1  0
 89 91  1  0
 91 92  1  0
 92 93  1  0
 93 94  2  0
 94 95  1  0
 95 96  1  0
 96 97  2  0
 97 98  1  0
 97 99  1  0
 99100  1  0
100101  1  0
 99102  2  0
 93103  1  0
103104  2  3
104105  1  0
105106  1  0
106107  1  0
107108  2  0
108109  1  0
109110  1  0
110111  2  0
111112  1  0
111113  1  0
113114  1  0
114115  1  0
113116  2  0
107117  1  0
117118  2  3
118119  1  0
119120  1  0
120121  1  0
121122  2  0
122123  1  0
123124  1  0
124125  2  0
125126  1  0
125127  1  0
127128  1  0
128129  1  0
127130  2  0
121131  1  0
131132  2  3
 27  1  1  0
 57 31  1  0
 87 61  1  0
 95 91  2  0
109105  2  0
123119  2  0
 26  3  1  0
 56 33  1  0
 86 63  1  0
102 94  1  0
116108  1  0
130122  1  0
 12  5  2  0
 30 14  1  0
 42 35  2  0
 60 44  1  0
 72 65  2  0
 90 74  1  0
 23 17  2  0
 53 47  2  0
 83 77  2  0
  1133  1  0
  2134  1  0
  8135  1  0
  8136  1  0
  9137  1  0
  9138  1  0
  9139  1  0
 20140  1  0
 20141  1  0
 21142  1  0
 21143  1  0
 21144  1  0
 28145  1  0
 32146  1  0
 38147  1  0
 38148  1  0
 39149  1  0
 39150  1  0
 39151  1  0
 50152  1  0
 50153  1  0
 51154  1  0
 51155  1  0
 51156  1  0
 58157  1  0
 62158  1  0
 68159  1  0
 68160  1  0
 69161  1  0
 69162  1  0
 69163  1  0
 80164  1  0
 80165  1  0
 81166  1  0
 81167  1  0
 81168  1  0
 88169  1  0
 96170  1  0
 98171  1  0
 98172  1  0
 98173  1  0
101174  1  0
101175  1  0
101176  1  0
102177  1  0
103178  1  0
104179  1  0
110180  1  0
112181  1  0
112182  1  0
112183  1  0
115184  1  0
115185  1  0
115186  1  0
116187  1  0
117188  1  0
118189  1  0
124190  1  0
126191  1  0
126192  1  0
126193  1  0
129194  1  0
129195  1  0
129196  1  0
130197  1  0
131198  1  0
132199  1  0
132200  1  0
M  END

