
     RDKit          3D

102109  0  0  0  0  0  0  0  0999 V2000
    7.7013   -1.4293    6.3436 C   0  0  0  0  0  0  0  0  0  0  0  0
    7.1334   -1.6517    5.0892 C   0  0  0  0  0  0  0  0  0  0  0  0
    6.3719   -0.6853    4.5103 N   0  0  0  0  0  0  0  0  0  0  0  0
    6.1344    0.5175    5.1056 C   0  0  0  0  0  0  0  0  0  0  0  0
    6.6946    0.7701    6.3747 C   0  0  0  0  0  0  0  0  0  0  0  0
    7.4777   -0.2115    6.9870 C   0  0  0  0  0  0  0  0  0  0  0  0
    5.2810    1.4817    4.3725 C   0  0  0  0  0  0  0  0  0  0  0  0
    5.0456    2.7462    4.7598 C   0  0  0  0  0  0  0  0  0  0  0  0
    4.1670    3.6698    4.0050 C   0  0  0  0  0  0  0  0  0  0  0  0
    3.9182    3.5270    2.6260 C   0  0  0  0  0  0  0  0  0  0  0  0
    3.0897    4.3976    1.9904 N   0  0  0  0  0  0  0  0  0  0  0  0
    2.4793    5.4256    2.6387 C   0  0  0  0  0  0  0  0  0  0  0  0
    2.7458    5.6340    3.9955 C   0  0  0  0  0  0  0  0  0  0  0  0
    3.5784    4.7497    4.6796 C   0  0  0  0  0  0  0  0  0  0  0  0
    1.6132    6.3781    1.9109 C   0  0  0  0  0  0  0  0  0  0  0  0
    0.8994    6.0935    0.8114 C   0  0  0  0  0  0  0  0  0  0  0  0
    0.6818    4.7435    0.2437 C   0  0  0  0  0  0  0  0  0  0  0  0
    0.6385    4.5838   -1.1477 C   0  0  0  0  0  0  0  0  0  0  0  0
    0.3265    3.3759   -1.6922 N   0  0  0  0  0  0  0  0  0  0  0  0
    0.0516    2.2838   -0.9231 C   0  0  0  0  0  0  0  0  0  0  0  0
    0.0829    2.4015    0.4721 C   0  0  0  0  0  0  0  0  0  0  0  0
    0.3764    3.6365    1.0537 C   0  0  0  0  0  0  0  0  0  0  0  0
   -0.3529    1.0047   -1.5397 C   0  0  0  0  0  0  0  0  0  0  0  0
   -0.6111    0.8911   -2.8497 C   0  0  0  0  0  0  0  0  0  0  0  0
   -1.1301   -0.3586   -3.4434 C   0  0  0  0  0  0  0  0  0  0  0  0
   -1.1064   -1.8810   -2.7155 S   0  0  0  0  0  0  0  0  0  0  0  0
   -1.9599   -2.7044   -3.9155 C   0  0  0  0  0  0  0  0  0  0  0  0
   -2.2539   -1.7886   -4.9272 C   0  0  0  0  0  0  0  0  0  0  0  0
   -1.7965   -0.4839   -4.6653 C   0  0  0  0  0  0  0  0  0  0  0  0
   -2.0538    0.5474   -5.5730 C   0  0  0  0  0  0  0  0  0  0  0  0
   -2.7836    0.2776   -6.7467 C   0  0  0  0  0  0  0  0  0  0  0  0
   -3.0863    1.3867   -7.7167 C   0  0  0  0  0  0  0  0  0  0  0  0
   -3.2489   -1.0292   -7.0090 C   0  0  0  0  0  0  0  0  0  0  0  0
   -3.9817   -1.2598   -8.1877 O   0  0  0  0  0  0  0  0  0  0  0  0
   -4.4841   -2.5285   -8.5907 C   0  0  0  0  0  0  0  0  0  0  0  0
   -2.9752   -2.0668   -6.0917 C   0  0  0  0  0  0  0  0  0  0  0  0
   -2.3657   -4.1264   -3.8904 C   0  0  0  0  0  0  0  0  0  0  0  0
   -2.7599   -4.7965   -2.7973 C   0  0  0  0  0  0  0  0  0  0  0  0
   -2.9074   -4.2180   -1.4471 C   0  0  0  0  0  0  0  0  0  0  0  0
   -2.2519   -4.9187   -0.0677 S   0  0  0  0  0  0  0  0  0  0  0  0
   -2.7509   -3.7435    1.0370 C   0  0  0  0  0  0  0  0  0  0  0  0
   -3.4983   -2.7982    0.3289 C   0  0  0  0  0  0  0  0  0  0  0  0
   -3.5999   -3.0675   -1.0497 C   0  0  0  0  0  0  0  0  0  0  0  0
   -4.3572   -2.2336   -1.8803 C   0  0  0  0  0  0  0  0  0  0  0  0
   -4.9490   -1.0761   -1.3456 C   0  0  0  0  0  0  0  0  0  0  0  0
   -5.7062   -0.1438   -2.2535 C   0  0  0  0  0  0  0  0  0  0  0  0
   -4.8401   -0.7948    0.0387 C   0  0  0  0  0  0  0  0  0  0  0  0
   -5.4706    0.3542    0.5433 O   0  0  0  0  0  0  0  0  0  0  0  0
   -5.4640    0.7463    1.9138 C   0  0  0  0  0  0  0  0  0  0  0  0
   -4.1083   -1.6656    0.8757 C   0  0  0  0  0  0  0  0  0  0  0  0
   -2.5708   -3.7995    2.5040 C   0  0  0  0  0  0  0  0  0  0  0  0
   -1.5251   -4.3603    3.1298 C   0  0  0  0  0  0  0  0  0  0  0  0
   -0.2990   -4.8343    2.4611 C   0  0  0  0  0  0  0  0  0  0  0  0
    0.1876   -6.1179    2.7294 C   0  0  0  0  0  0  0  0  0  0  0  0
    1.3036   -6.5707    2.1008 N   0  0  0  0  0  0  0  0  0  0  0  0
    1.9993   -5.8101    1.2101 C   0  0  0  0  0  0  0  0  0  0  0  0
    1.5603   -4.4973    0.9410 C   0  0  0  0  0  0  0  0  0  0  0  0
    0.4145   -4.0125    1.5750 C   0  0  0  0  0  0  0  0  0  0  0  0
    3.1898   -6.4131    0.5700 C   0  0  0  0  0  0  0  0  0  0  0  0
    3.7986   -5.9189   -0.5090 C   0  0  0  0  0  0  0  0  0  0  0  0
    8.3063   -2.1932    6.8149 H   0  0  0  0  0  0  0  0  0  0  0  0
    7.2961   -2.5934    4.5754 H   0  0  0  0  0  0  0  0  0  0  0  0
    6.5315    1.6951    6.9032 H   0  0  0  0  0  0  0  0  0  0  0  0
    7.9084   -0.0289    7.9640 H   0  0  0  0  0  0  0  0  0  0  0  0
    4.8138    1.1065    3.4679 H   0  0  0  0  0  0  0  0  0  0  0  0
    5.4727    3.1252    5.6761 H   0  0  0  0  0  0  0  0  0  0  0  0
    4.3897    2.7472    2.0419 H   0  0  0  0  0  0  0  0  0  0  0  0
    2.3062    6.4692    4.5170 H   0  0  0  0  0  0  0  0  0  0  0  0
    3.7672    4.9065    5.7346 H   0  0  0  0  0  0  0  0  0  0  0  0
    1.5916    7.4023    2.2682 H   0  0  0  0  0  0  0  0  0  0  0  0
    0.4020    6.9192    0.3094 H   0  0  0  0  0  0  0  0  0  0  0  0
    0.8435    5.4273   -1.7987 H   0  0  0  0  0  0  0  0  0  0  0  0
   -0.1535    1.5527    1.1022 H   0  0  0  0  0  0  0  0  0  0  0  0
    0.3502    3.7273    2.1341 H   0  0  0  0  0  0  0  0  0  0  0  0
   -0.5054    0.1565   -0.8840 H   0  0  0  0  0  0  0  0  0  0  0  0
   -0.5011    1.7576   -3.4885 H   0  0  0  0  0  0  0  0  0  0  0  0
   -1.7164    1.5539   -5.3698 H   0  0  0  0  0  0  0  0  0  0  0  0
   -4.1885    1.5230   -7.7855 H   0  0  0  0  0  0  0  0  0  0  0  0
   -2.6888    1.1275   -8.7255 H   0  0  0  0  0  0  0  0  0  0  0  0
   -2.6289    2.3488   -7.3967 H   0  0  0  0  0  0  0  0  0  0  0  0
   -3.6511   -3.2521   -8.7048 H   0  0  0  0  0  0  0  0  0  0  0  0
   -5.2218   -2.9020   -7.8532 H   0  0  0  0  0  0  0  0  0  0  0  0
   -4.9920   -2.4186   -9.5665 H   0  0  0  0  0  0  0  0  0  0  0  0
   -3.3443   -3.0665   -6.2711 H   0  0  0  0  0  0  0  0  0  0  0  0
   -2.3468   -4.6674   -4.8301 H   0  0  0  0  0  0  0  0  0  0  0  0
   -2.9415   -5.8589   -2.8999 H   0  0  0  0  0  0  0  0  0  0  0  0
   -4.4716   -2.4672   -2.9342 H   0  0  0  0  0  0  0  0  0  0  0  0
   -6.7875   -0.1780   -2.0028 H   0  0  0  0  0  0  0  0  0  0  0  0
   -5.3362    0.8967   -2.1251 H   0  0  0  0  0  0  0  0  0  0  0  0
   -5.5795   -0.4252   -3.3235 H   0  0  0  0  0  0  0  0  0  0  0  0
   -5.9367   -0.0414    2.5380 H   0  0  0  0  0  0  0  0  0  0  0  0
   -6.0405    1.6883    2.0247 H   0  0  0  0  0  0  0  0  0  0  0  0
   -4.4246    0.9207    2.2600 H   0  0  0  0  0  0  0  0  0  0  0  0
   -4.0042   -1.4607    1.9310 H   0  0  0  0  0  0  0  0  0  0  0  0
   -3.3713   -3.4064    3.1197 H   0  0  0  0  0  0  0  0  0  0  0  0
   -1.5717   -4.4646    4.2042 H   0  0  0  0  0  0  0  0  0  0  0  0
   -0.3274   -6.7642    3.4278 H   0  0  0  0  0  0  0  0  0  0  0  0
    2.0914   -3.8436    0.2605 H   0  0  0  0  0  0  0  0  0  0  0  0
    0.0849   -2.9992    1.3771 H   0  0  0  0  0  0  0  0  0  0  0  0
    3.5625   -7.3463    0.9768 H   0  0  0  0  0  0  0  0  0  0  0  0
    4.6513   -6.4366   -0.9283 H   0  0  0  0  0  0  0  0  0  0  0  0
    3.4635   -5.0191   -1.0032 H   0  0  0  0  0  0  0  0  0  0  0  0
  1  2  2  0
  2  3  1  0
  3  4  2  0
  4  5  1  0
  5  6  2  0
  4  7  1  0
  7  8  2  3
  8  9  1  0
  9 10  2  0
 10 11  1  0
 11 12  2  0
 12 13  1  0
 13 14  2  0
 12 15  1  0
 15 16  2  3
 16 17  1  0
 17 18  2  0
 18 19  1  0
 19 20  2  0
 20 21  1  0
 21 22  2  0
 20 23  1  0
 23 24  2  3
 24 25  1  0
 25 26  1  0
 26 27  1  0
 27 28  2  0
 28 29  1  0
 29 30  1  0
 30 31  2  0
 31 32  1  0
 31 33  1  0
 33 34  1  0
 34 35  1  0
 33 36  2  0
 27 37  1  0
 37 38  2  3
 38 39  1  0
 39 40  1  0
 40 41  1  0
 41 42  2  0
 42 43  1  0
 43 44  1  0
 44 45  2  0
 45 46  1  0
 45 47  1  0
 47 48  1  0
 48 49  1  0
 47 50  2  0
 41 51  1  0
 51 52  2  3
 52 53  1  0
 53 54  2  0
 54 55  1  0
 55 56  2  0
 56 57  1  0
 57 58  2  0
 56 59  1  0
 59 60  2  3
  6  1  1  0
 14  9  1  0
 22 17  1  0
 29 25  2  0
 43 39  2  0
 58 53  1  0
 36 28  1  0
 50 42  1  0
  1 61  1  0
  2 62  1  0
  5 63  1  0
  6 64  1  0
  7 65  1  0
  8 66  1  0
 10 67  1  0
 13 68  1  0
 14 69  1  0
 15 70  1  0
 16 71  1  0
 18 72  1  0
 21 73  1  0
 22 74  1  0
 23 75  1  0
 24 76  1  0
 30 77  1  0
 32 78  1  0
 32 79  1  0
 32 80  1  0
 35 81  1  0
 35 82  1  0
 35 83  1  0
 36 84  1  0
 37 85  1  0
 38 86  1  0
 44 87  1  0
 46 88  1  0
 46 89  1  0
 46 90  1  0
 49 91  1  0
 49 92  1  0
 49 93  1  0
 50 94  1  0
 51 95  1  0
 52 96  1  0
 54 97  1  0
 57 98  1  0
 58 99  1  0
 59100  1  0
 60101  1  0
 60102  1  0
M  END

