
     RDKit          3D

126132  0  0  0  0  0  0  0  0999 V2000
   11.1913    0.5057   -0.2056 C   0  0  0  0  0  0  0  0  0  0  0  0
    9.9557    1.0903   -0.5397 C   0  0  0  0  0  0  0  0  0  0  0  0
    9.9431    2.5252   -1.0175 C   0  0  0  0  0  0  0  0  0  0  0  0
    9.9420    3.4905    0.1619 C   0  0  0  0  0  0  0  0  0  0  0  0
    8.7680    0.3268   -0.3986 C   0  0  0  0  0  0  0  0  0  0  0  0
    8.8576   -1.0055    0.0466 C   0  0  0  0  0  0  0  0  0  0  0  0
   10.0953   -1.5686    0.3603 C   0  0  0  0  0  0  0  0  0  0  0  0
   11.2588   -0.8116    0.2453 C   0  0  0  0  0  0  0  0  0  0  0  0
    7.4343    0.9225   -0.6525 C   0  0  0  0  0  0  0  0  0  0  0  0
    6.4420    0.2325   -1.2270 C   0  0  0  0  0  0  0  0  0  0  0  0
    5.0762    0.7854   -1.3719 C   0  0  0  0  0  0  0  0  0  0  0  0
    3.9344    0.0296   -0.9942 C   0  0  0  0  0  0  0  0  0  0  0  0
    4.0951   -1.3803   -0.4425 C   0  0  0  0  0  0  0  0  0  0  0  0
    3.9483   -2.4190   -1.5482 C   0  0  0  0  0  0  0  0  0  0  0  0
    2.6397    0.5775   -1.2112 C   0  0  0  0  0  0  0  0  0  0  0  0
    2.5118    1.8540   -1.7823 C   0  0  0  0  0  0  0  0  0  0  0  0
    3.6399    2.5911   -2.1328 C   0  0  0  0  0  0  0  0  0  0  0  0
    4.9120    2.0633   -1.9275 C   0  0  0  0  0  0  0  0  0  0  0  0
    1.4201   -0.1658   -0.8240 C   0  0  0  0  0  0  0  0  0  0  0  0
    0.4054   -0.3689   -1.6721 C   0  0  0  0  0  0  0  0  0  0  0  0
   -0.6734   -1.3301   -1.3617 C   0  0  0  0  0  0  0  0  0  0  0  0
   -0.6199   -2.4648   -0.1229 S   0  0  0  0  0  0  0  0  0  0  0  0
   -1.9912   -3.3513   -0.5261 C   0  0  0  0  0  0  0  0  0  0  0  0
   -2.5200   -2.7533   -1.6781 C   0  0  0  0  0  0  0  0  0  0  0  0
   -1.7921   -1.6347   -2.1373 C   0  0  0  0  0  0  0  0  0  0  0  0
   -2.1916   -0.9533   -3.2906 C   0  0  0  0  0  0  0  0  0  0  0  0
   -3.3178   -1.3964   -4.0050 C   0  0  0  0  0  0  0  0  0  0  0  0
   -3.7539   -0.6595   -5.2410 C   0  0  0  0  0  0  0  0  0  0  0  0
   -4.0529   -2.5150   -3.5503 C   0  0  0  0  0  0  0  0  0  0  0  0
   -5.1756   -2.9293   -4.2876 O   0  0  0  0  0  0  0  0  0  0  0  0
   -5.9567   -4.0819   -3.9909 C   0  0  0  0  0  0  0  0  0  0  0  0
   -3.6473   -3.1927   -2.3789 C   0  0  0  0  0  0  0  0  0  0  0  0
   -2.4022   -4.6579    0.0552 C   0  0  0  0  0  0  0  0  0  0  0  0
   -2.1674   -5.0848    1.3103 C   0  0  0  0  0  0  0  0  0  0  0  0
   -1.5583   -4.2709    2.3813 C   0  0  0  0  0  0  0  0  0  0  0  0
   -2.3364   -3.7129    3.4357 C   0  0  0  0  0  0  0  0  0  0  0  0
   -3.7727   -4.1694    3.6392 C   0  0  0  0  0  0  0  0  0  0  0  0
   -4.7044   -3.7948    2.4816 C   0  0  0  0  0  0  0  0  0  0  0  0
   -1.6878   -2.8650    4.3828 C   0  0  0  0  0  0  0  0  0  0  0  0
   -0.2938   -2.7095    4.3254 C   0  0  0  0  0  0  0  0  0  0  0  0
    0.4614   -3.3468    3.3478 C   0  0  0  0  0  0  0  0  0  0  0  0
   -0.1634   -4.1386    2.3959 C   0  0  0  0  0  0  0  0  0  0  0  0
   -2.3638   -2.2372    5.5455 C   0  0  0  0  0  0  0  0  0  0  0  0
   -3.3389   -1.3158    5.4949 C   0  0  0  0  0  0  0  0  0  0  0  0
   -4.0455   -0.8765    4.2743 C   0  0  0  0  0  0  0  0  0  0  0  0
   -3.4377   -0.0951    3.2522 C   0  0  0  0  0  0  0  0  0  0  0  0
   -2.0330    0.4565    3.4246 C   0  0  0  0  0  0  0  0  0  0  0  0
   -2.0625    1.8112    4.1278 C   0  0  0  0  0  0  0  0  0  0  0  0
   -4.2133    0.2625    2.1151 C   0  0  0  0  0  0  0  0  0  0  0  0
   -5.5652   -0.1154    2.0456 C   0  0  0  0  0  0  0  0  0  0  0  0
   -6.1659   -0.8012    3.0933 C   0  0  0  0  0  0  0  0  0  0  0  0
   -5.4153   -1.1669    4.2059 C   0  0  0  0  0  0  0  0  0  0  0  0
   -3.6723    1.1146    1.0349 C   0  0  0  0  0  0  0  0  0  0  0  0
   -3.8962    0.8411   -0.2536 C   0  0  0  0  0  0  0  0  0  0  0  0
   -3.5045    1.7931   -1.3115 C   0  0  0  0  0  0  0  0  0  0  0  0
   -4.4744    2.4246   -2.1326 C   0  0  0  0  0  0  0  0  0  0  0  0
   -5.9542    2.1625   -1.8968 C   0  0  0  0  0  0  0  0  0  0  0  0
   -6.5126    3.1165   -0.8432 C   0  0  0  0  0  0  0  0  0  0  0  0
   -4.0440    3.3620   -3.1148 C   0  0  0  0  0  0  0  0  0  0  0  0
   -2.6683    3.6201   -3.2621 C   0  0  0  0  0  0  0  0  0  0  0  0
   -1.7320    2.9816   -2.4569 C   0  0  0  0  0  0  0  0  0  0  0  0
   -2.1459    2.0880   -1.4779 C   0  0  0  0  0  0  0  0  0  0  0  0
   -5.0185    4.1142   -3.9524 C   0  0  0  0  0  0  0  0  0  0  0  0
   -4.7715    4.4836   -5.2089 C   0  0  0  0  0  0  0  0  0  0  0  0
   12.1070    1.0773   -0.2939 H   0  0  0  0  0  0  0  0  0  0  0  0
   10.8449    2.7163   -1.6389 H   0  0  0  0  0  0  0  0  0  0  0  0
    9.0704    2.7255   -1.6684 H   0  0  0  0  0  0  0  0  0  0  0  0
   10.8438    3.3348    0.7926 H   0  0  0  0  0  0  0  0  0  0  0  0
    9.9504    4.5330   -0.2169 H   0  0  0  0  0  0  0  0  0  0  0  0
    9.0357    3.3433    0.7851 H   0  0  0  0  0  0  0  0  0  0  0  0
    7.9669   -1.6061    0.1851 H   0  0  0  0  0  0  0  0  0  0  0  0
   10.1472   -2.5889    0.7180 H   0  0  0  0  0  0  0  0  0  0  0  0
   12.2163   -1.2477    0.4988 H   0  0  0  0  0  0  0  0  0  0  0  0
    7.2589    1.9419   -0.3310 H   0  0  0  0  0  0  0  0  0  0  0  0
    6.6213   -0.7761   -1.5652 H   0  0  0  0  0  0  0  0  0  0  0  0
    5.0748   -1.5150    0.0549 H   0  0  0  0  0  0  0  0  0  0  0  0
    3.3580   -1.5900    0.3561 H   0  0  0  0  0  0  0  0  0  0  0  0
    4.7457   -2.2908   -2.3068 H   0  0  0  0  0  0  0  0  0  0  0  0
    4.0295   -3.4384   -1.1157 H   0  0  0  0  0  0  0  0  0  0  0  0
    2.9574   -2.3258   -2.0429 H   0  0  0  0  0  0  0  0  0  0  0  0
    1.5327    2.2875   -1.9418 H   0  0  0  0  0  0  0  0  0  0  0  0
    3.5266    3.5737   -2.5735 H   0  0  0  0  0  0  0  0  0  0  0  0
    5.7723    2.6450   -2.2336 H   0  0  0  0  0  0  0  0  0  0  0  0
    1.4024   -0.6386    0.1467 H   0  0  0  0  0  0  0  0  0  0  0  0
    0.4270    0.1010   -2.6466 H   0  0  0  0  0  0  0  0  0  0  0  0
   -1.6406   -0.0890   -3.6371 H   0  0  0  0  0  0  0  0  0  0  0  0
   -3.9517   -1.3742   -6.0653 H   0  0  0  0  0  0  0  0  0  0  0  0
   -4.6814   -0.0915   -5.0219 H   0  0  0  0  0  0  0  0  0  0  0  0
   -2.9757    0.0522   -5.5870 H   0  0  0  0  0  0  0  0  0  0  0  0
   -6.4110   -3.9887   -2.9831 H   0  0  0  0  0  0  0  0  0  0  0  0
   -6.7699   -4.1728   -4.7386 H   0  0  0  0  0  0  0  0  0  0  0  0
   -5.3244   -4.9930   -4.0432 H   0  0  0  0  0  0  0  0  0  0  0  0
   -4.2075   -4.0408   -2.0173 H   0  0  0  0  0  0  0  0  0  0  0  0
   -2.9689   -5.3251   -0.5847 H   0  0  0  0  0  0  0  0  0  0  0  0
   -2.5716   -6.0527    1.5985 H   0  0  0  0  0  0  0  0  0  0  0  0
   -4.1964   -3.7654    4.5826 H   0  0  0  0  0  0  0  0  0  0  0  0
   -3.7775   -5.2712    3.7686 H   0  0  0  0  0  0  0  0  0  0  0  0
   -4.7455   -4.6107    1.7336 H   0  0  0  0  0  0  0  0  0  0  0  0
   -5.7388   -3.6626    2.8688 H   0  0  0  0  0  0  0  0  0  0  0  0
   -4.3762   -2.8595    1.9874 H   0  0  0  0  0  0  0  0  0  0  0  0
    0.2141   -2.0942    5.0565 H   0  0  0  0  0  0  0  0  0  0  0  0
    1.5374   -3.2256    3.3308 H   0  0  0  0  0  0  0  0  0  0  0  0
    0.4410   -4.6301    1.6418 H   0  0  0  0  0  0  0  0  0  0  0  0
   -1.9473   -2.4585    6.5229 H   0  0  0  0  0  0  0  0  0  0  0  0
   -3.7263   -0.9510    6.4393 H   0  0  0  0  0  0  0  0  0  0  0  0
   -1.3989   -0.2257    4.0167 H   0  0  0  0  0  0  0  0  0  0  0  0
   -1.5178    0.5490    2.4440 H   0  0  0  0  0  0  0  0  0  0  0  0
   -1.0288    2.2070    4.2117 H   0  0  0  0  0  0  0  0  0  0  0  0
   -2.6772    2.5406    3.5599 H   0  0  0  0  0  0  0  0  0  0  0  0
   -2.4847    1.7017    5.1493 H   0  0  0  0  0  0  0  0  0  0  0  0
   -6.1765    0.1723    1.1983 H   0  0  0  0  0  0  0  0  0  0  0  0
   -7.2138   -1.0571    3.0423 H   0  0  0  0  0  0  0  0  0  0  0  0
   -5.8980   -1.7225    5.0022 H   0  0  0  0  0  0  0  0  0  0  0  0
   -3.1604    2.0282    1.3023 H   0  0  0  0  0  0  0  0  0  0  0  0
   -4.3987   -0.0742   -0.5371 H   0  0  0  0  0  0  0  0  0  0  0  0
   -6.1269    1.1154   -1.5668 H   0  0  0  0  0  0  0  0  0  0  0  0
   -6.5362    2.2597   -2.8381 H   0  0  0  0  0  0  0  0  0  0  0  0
   -6.3790    4.1715   -1.1574 H   0  0  0  0  0  0  0  0  0  0  0  0
   -5.9971    2.9612    0.1310 H   0  0  0  0  0  0  0  0  0  0  0  0
   -7.5943    2.9226   -0.7034 H   0  0  0  0  0  0  0  0  0  0  0  0
   -2.3118    4.3510   -3.9771 H   0  0  0  0  0  0  0  0  0  0  0  0
   -0.6787    3.1980   -2.5792 H   0  0  0  0  0  0  0  0  0  0  0  0
   -1.4039    1.6192   -0.8475 H   0  0  0  0  0  0  0  0  0  0  0  0
   -5.9916    4.3616   -3.5480 H   0  0  0  0  0  0  0  0  0  0  0  0
   -5.5240    5.0218   -5.7732 H   0  0  0  0  0  0  0  0  0  0  0  0
   -3.8443    4.2380   -5.7020 H   0  0  0  0  0  0  0  0  0  0  0  0
  1  2  2  0
  2  3  1  0
  3  4  1  0
  2  5  1  0
  5  6  2  0
  6  7  1  0
  7  8  2  0
  5  9  1  0
  9 10  2  3
 10 11  1  0
 11 12  2  0
 12 13  1  0
 13 14  1  0
 12 15  1  0
 15 16  2  0
 16 17  1  0
 17 18  2  0
 15 19  1  0
 19 20  2  3
 20 21  1  0
 21 22  1  0
 22 23  1  0
 23 24  2  0
 24 25  1  0
 25 26  1  0
 26 27  2  0
 27 28  1  0
 27 29  1  0
 29 30  1  0
 30 31  1  0
 29 32  2  0
 23 33  1  0
 33 34  2  3
 34 35  1  0
 35 36  2  0
 36 37  1  0
 37 38  1  0
 36 39  1  0
 39 40  2  0
 40 41  1  0
 41 42  2  0
 39 43  1  0
 43 44  2  3
 44 45  1  0
 45 46  2  0
 46 47  1  0
 47 48  1  0
 46 49  1  0
 49 50  2  0
 50 51  1  0
 51 52  2  0
 49 53  1  0
 53 54  2  3
 54 55  1  0
 55 56  2  0
 56 57  1  0
 57 58  1  0
 56 59  1  0
 59 60  2  0
 60 61  1  0
 61 62  2  0
 59 63  1  0
 63 64  2  3
  8  1  1  0
 18 11  1  0
 25 21  2  0
 42 35  1  0
 52 45  1  0
 62 55  1  0
 32 24  1  0
  1 65  1  0
  3 66  1  0
  3 67  1  0
  4 68  1  0
  4 69  1  0
  4 70  1  0
  6 71  1  0
  7 72  1  0
  8 73  1  0
  9 74  1  0
 10 75  1  0
 13 76  1  0
 13 77  1  0
 14 78  1  0
 14 79  1  0
 14 80  1  0
 16 81  1  0
 17 82  1  0
 18 83  1  0
 19 84  1  0
 20 85  1  0
 26 86  1  0
 28 87  1  0
 28 88  1  0
 28 89  1  0
 31 90  1  0
 31 91  1  0
 31 92  1  0
 32 93  1  0
 33 94  1  0
 34 95  1  0
 37 96  1  0
 37 97  1  0
 38 98  1  0
 38 99  1  0
 38100  1  0
 40101  1  0
 41102  1  0
 42103  1  0
 43104  1  0
 44105  1  0
 47106  1  0
 47107  1  0
 48108  1  0
 48109  1  0
 48110  1  0
 50111  1  0
 51112  1  0
 52113  1  0
 53114  1  0
 54115  1  0
 57116  1  0
 57117  1  0
 58118  1  0
 58119  1  0
 58120  1  0
 60121  1  0
 61122  1  0
 62123  1  0
 63124  1  0
 64125  1  0
 64126  1  0
M  END

