
     RDKit          3D

198215  0  0  0  0  0  0  0  0999 V2000
    5.7435   -7.4365    8.1753 C   0  0  0  0  0  0  0  0  0  0  0  0
    5.8693   -6.0801    7.8877 C   0  0  0  0  0  0  0  0  0  0  0  0
    4.7352   -5.5412    7.2574 C   0  0  0  0  0  0  0  0  0  0  0  0
    4.5709   -4.2139    6.8218 C   0  0  0  0  0  0  0  0  0  0  0  0
    5.6686   -3.2318    6.8879 C   0  0  0  0  0  0  0  0  0  0  0  0
    6.1210   -2.7394    8.1211 C   0  0  0  0  0  0  0  0  0  0  0  0
    7.1701   -1.8162    8.1635 C   0  0  0  0  0  0  0  0  0  0  0  0
    7.7808   -1.3896    6.9790 C   0  0  0  0  0  0  0  0  0  0  0  0
    9.1425   -0.2193    7.0478 S   0  0  0  0  0  0  0  0  0  0  0  0
    8.0955    1.2142    6.6379 C   0  0  0  0  0  0  0  0  0  0  0  0
    8.9271    2.4903    6.6361 C   0  0  0  0  0  0  0  0  0  0  0  0
    7.3385   -1.8892    5.7452 C   0  0  0  0  0  0  0  0  0  0  0  0
    7.9211   -1.4871    4.5884 F   0  0  0  0  0  0  0  0  0  0  0  0
    6.2786   -2.7984    5.7018 C   0  0  0  0  0  0  0  0  0  0  0  0
    3.3465   -3.8933    6.2117 C   0  0  0  0  0  0  0  0  0  0  0  0
    2.3439   -4.8418    5.9753 C   0  0  0  0  0  0  0  0  0  0  0  0
    2.5332   -6.1828    6.3658 C   0  0  0  0  0  0  0  0  0  0  0  0
    1.6131   -7.2643    5.9804 C   0  0  0  0  0  0  0  0  0  0  0  0
    1.8601   -7.9806    4.7996 C   0  0  0  0  0  0  0  0  0  0  0  0
    1.1455   -9.1451    4.5206 C   0  0  0  0  0  0  0  0  0  0  0  0
    0.1581   -9.5930    5.4046 C   0  0  0  0  0  0  0  0  0  0  0  0
   -0.6811  -11.1518    5.0841 S   0  0  0  0  0  0  0  0  0  0  0  0
   -1.8253  -10.5032    3.8131 C   0  0  0  0  0  0  0  0  0  0  0  0
   -1.5741  -11.2234    2.4951 C   0  0  0  0  0  0  0  0  0  0  0  0
   -0.1203   -8.8586    6.5684 C   0  0  0  0  0  0  0  0  0  0  0  0
    0.6087   -7.7027    6.8584 C   0  0  0  0  0  0  0  0  0  0  0  0
   -1.0605   -9.2962    7.4441 F   0  0  0  0  0  0  0  0  0  0  0  0
    3.7334   -6.4884    7.0292 C   0  0  0  0  0  0  0  0  0  0  0  0
    4.2465   -7.9801    7.6217 S   0  0  0  0  0  0  0  0  0  0  0  0
    1.2143   -4.3020    5.3361 C   0  0  0  0  0  0  0  0  0  0  0  0
    1.3360   -2.9318    5.0695 C   0  0  0  0  0  0  0  0  0  0  0  0
    2.8307   -2.3985    5.6522 S   0  0  0  0  0  0  0  0  0  0  0  0
    0.2795   -2.0778    4.4842 C   0  0  0  0  0  0  0  0  0  0  0  0
   -1.3585   -2.4730    4.5069 S   0  0  0  0  0  0  0  0  0  0  0  0
   -1.9267   -1.0729    3.7656 C   0  0  0  0  0  0  0  0  0  0  0  0
   -0.8303   -0.2692    3.4639 C   0  0  0  0  0  0  0  0  0  0  0  0
    0.4007   -0.8299    3.8513 C   0  0  0  0  0  0  0  0  0  0  0  0
    1.5928   -0.1718    3.5228 C   0  0  0  0  0  0  0  0  0  0  0  0
    1.5540    1.0504    2.8312 C   0  0  0  0  0  0  0  0  0  0  0  0
    2.8371    1.7615    2.4958 C   0  0  0  0  0  0  0  0  0  0  0  0
    0.3186    1.6075    2.4374 C   0  0  0  0  0  0  0  0  0  0  0  0
    0.3310    2.8063    1.7087 O   0  0  0  0  0  0  0  0  0  0  0  0
   -0.8190    3.4252    1.1474 C   0  0  0  0  0  0  0  0  0  0  0  0
   -0.8834    0.9407    2.7602 C   0  0  0  0  0  0  0  0  0  0  0  0
   -3.3258   -0.8563    3.3646 C   0  0  0  0  0  0  0  0  0  0  0  0
   -3.9092   -1.5049    2.3466 C   0  0  0  0  0  0  0  0  0  0  0  0
   -3.1722   -2.3131    1.3463 C   0  0  0  0  0  0  0  0  0  0  0  0
   -1.6120   -1.9909    0.8102 S   0  0  0  0  0  0  0  0  0  0  0  0
   -1.5468   -3.1029   -0.4485 C   0  0  0  0  0  0  0  0  0  0  0  0
   -2.7942   -3.7291   -0.5006 C   0  0  0  0  0  0  0  0  0  0  0  0
   -3.6921   -3.2956    0.4986 C   0  0  0  0  0  0  0  0  0  0  0  0
   -4.9820   -3.8226    0.5652 C   0  0  0  0  0  0  0  0  0  0  0  0
   -5.3817   -4.7982   -0.3661 C   0  0  0  0  0  0  0  0  0  0  0  0
   -6.7576   -5.3929   -0.2795 C   0  0  0  0  0  0  0  0  0  0  0  0
   -4.4840   -5.2419   -1.3663 C   0  0  0  0  0  0  0  0  0  0  0  0
   -4.9142   -6.2373   -2.2590 O   0  0  0  0  0  0  0  0  0  0  0  0
   -4.1698   -6.7055   -3.3764 C   0  0  0  0  0  0  0  0  0  0  0  0
   -3.1865   -4.6883   -1.4398 C   0  0  0  0  0  0  0  0  0  0  0  0
   -0.4916   -3.0989   -1.4771 C   0  0  0  0  0  0  0  0  0  0  0  0
    0.6812   -2.5114   -1.2236 C   0  0  0  0  0  0  0  0  0  0  0  0
    1.4391   -1.8371   -2.2773 C   0  0  0  0  0  0  0  0  0  0  0  0
    1.7575   -0.1939   -2.1818 S   0  0  0  0  0  0  0  0  0  0  0  0
    2.2170    0.0415   -3.7767 C   0  0  0  0  0  0  0  0  0  0  0  0
    2.1462   -1.2045   -4.4168 C   0  0  0  0  0  0  0  0  0  0  0  0
    1.6935   -2.2459   -3.5864 C   0  0  0  0  0  0  0  0  0  0  0  0
    1.5309   -3.5377   -4.0905 C   0  0  0  0  0  0  0  0  0  0  0  0
    1.8058   -3.7929   -5.4460 C   0  0  0  0  0  0  0  0  0  0  0  0
    1.6116   -5.1766   -5.9897 C   0  0  0  0  0  0  0  0  0  0  0  0
    2.3074   -2.7639   -6.2766 C   0  0  0  0  0  0  0  0  0  0  0  0
    2.6155   -3.0615   -7.6155 O   0  0  0  0  0  0  0  0  0  0  0  0
    3.0949   -2.1155   -8.5679 C   0  0  0  0  0  0  0  0  0  0  0  0
    2.4847   -1.4664   -5.7495 C   0  0  0  0  0  0  0  0  0  0  0  0
    2.2394    1.3885   -4.3720 C   0  0  0  0  0  0  0  0  0  0  0  0
    1.6028    1.6491   -5.5169 C   0  0  0  0  0  0  0  0  0  0  0  0
    1.1846    3.0067   -5.9143 C   0  0  0  0  0  0  0  0  0  0  0  0
    1.2802    4.3951   -4.9538 S   0  0  0  0  0  0  0  0  0  0  0  0
    0.3702    5.3951   -5.9634 C   0  0  0  0  0  0  0  0  0  0  0  0
   -0.0219    4.6532   -7.0734 C   0  0  0  0  0  0  0  0  0  0  0  0
    0.4256    3.3228   -7.0438 C   0  0  0  0  0  0  0  0  0  0  0  0
    0.0657    2.4392   -8.0688 C   0  0  0  0  0  0  0  0  0  0  0  0
   -0.7509    2.8898   -9.1203 C   0  0  0  0  0  0  0  0  0  0  0  0
   -1.1742    1.9070  -10.1767 C   0  0  0  0  0  0  0  0  0  0  0  0
   -1.2318    4.2195   -9.1316 C   0  0  0  0  0  0  0  0  0  0  0  0
   -2.0985    4.6177  -10.1634 O   0  0  0  0  0  0  0  0  0  0  0  0
   -2.7290    5.8905  -10.2396 C   0  0  0  0  0  0  0  0  0  0  0  0
   -0.8451    5.1076   -8.1074 C   0  0  0  0  0  0  0  0  0  0  0  0
    0.0673    6.8110   -5.7157 C   0  0  0  0  0  0  0  0  0  0  0  0
   -0.5904    7.2794   -4.6470 C   0  0  0  0  0  0  0  0  0  0  0  0
   -1.2546    6.4729   -3.6011 C   0  0  0  0  0  0  0  0  0  0  0  0
   -1.7572    5.1681   -3.6968 C   0  0  0  0  0  0  0  0  0  0  0  0
   -2.4299    4.7490   -2.5343 C   0  0  0  0  0  0  0  0  0  0  0  0
   -3.0526    3.5018   -2.3365 C   0  0  0  0  0  0  0  0  0  0  0  0
   -2.9613    2.4182   -3.3354 C   0  0  0  0  0  0  0  0  0  0  0  0
   -1.7221    1.8256   -3.6163 C   0  0  0  0  0  0  0  0  0  0  0  0
   -1.6340    0.7985   -4.5578 C   0  0  0  0  0  0  0  0  0  0  0  0
   -2.7774    0.3604   -5.2330 C   0  0  0  0  0  0  0  0  0  0  0  0
   -2.6313   -0.9315   -6.4680 S   0  0  0  0  0  0  0  0  0  0  0  0
   -2.6426   -2.2842   -5.2433 C   0  0  0  0  0  0  0  0  0  0  0  0
   -2.4148   -3.6136   -5.9421 C   0  0  0  0  0  0  0  0  0  0  0  0
   -4.0190    0.9494   -4.9559 C   0  0  0  0  0  0  0  0  0  0  0  0
   -5.1344    0.5413   -5.6103 F   0  0  0  0  0  0  0  0  0  0  0  0
   -4.1119    1.9743   -4.0078 C   0  0  0  0  0  0  0  0  0  0  0  0
   -3.7172    3.3082   -1.1138 C   0  0  0  0  0  0  0  0  0  0  0  0
   -3.7820    4.2967   -0.1270 C   0  0  0  0  0  0  0  0  0  0  0  0
   -3.1643    5.5475   -0.3264 C   0  0  0  0  0  0  0  0  0  0  0  0
   -3.2238    6.6319    0.6772 C   0  0  0  0  0  0  0  0  0  0  0  0
   -4.4601    7.1643    1.0727 C   0  0  0  0  0  0  0  0  0  0  0  0
   -4.5097    8.2376    1.9664 C   0  0  0  0  0  0  0  0  0  0  0  0
   -3.3268    8.7886    2.4712 C   0  0  0  0  0  0  0  0  0  0  0  0
   -3.3987   10.2052    3.5759 S   0  0  0  0  0  0  0  0  0  0  0  0
   -3.6887    9.2275    5.0942 C   0  0  0  0  0  0  0  0  0  0  0  0
   -2.3932    8.6471    5.6430 C   0  0  0  0  0  0  0  0  0  0  0  0
   -2.0884    8.2540    2.0854 C   0  0  0  0  0  0  0  0  0  0  0  0
   -2.0395    7.1764    1.1967 C   0  0  0  0  0  0  0  0  0  0  0  0
   -0.9313    8.7874    2.5545 F   0  0  0  0  0  0  0  0  0  0  0  0
   -2.4880    5.7326   -1.5455 C   0  0  0  0  0  0  0  0  0  0  0  0
   -1.7033    7.1116   -2.1056 S   0  0  0  0  0  0  0  0  0  0  0  0
   -4.4436    3.8653    1.0357 C   0  0  0  0  0  0  0  0  0  0  0  0
   -4.8938    2.5498    0.9565 C   0  0  0  0  0  0  0  0  0  0  0  0
   -4.4698    1.9128   -0.5466 S   0  0  0  0  0  0  0  0  0  0  0  0
    6.4920   -8.0450    8.6616 H   0  0  0  0  0  0  0  0  0  0  0  0
    6.7554   -5.5160    8.1295 H   0  0  0  0  0  0  0  0  0  0  0  0
    5.6621   -3.0741    9.0424 H   0  0  0  0  0  0  0  0  0  0  0  0
    7.5155   -1.4388    9.1193 H   0  0  0  0  0  0  0  0  0  0  0  0
    7.6559    1.0751    5.6287 H   0  0  0  0  0  0  0  0  0  0  0  0
    7.2756    1.3057    7.3813 H   0  0  0  0  0  0  0  0  0  0  0  0
    8.2920    3.3464    6.3174 H   0  0  0  0  0  0  0  0  0  0  0  0
    9.7751    2.3960    5.9263 H   0  0  0  0  0  0  0  0  0  0  0  0
    9.3127    2.6919    7.6549 H   0  0  0  0  0  0  0  0  0  0  0  0
    5.9378   -3.1819    4.7461 H   0  0  0  0  0  0  0  0  0  0  0  0
    2.6453   -7.6599    4.1226 H   0  0  0  0  0  0  0  0  0  0  0  0
    1.3735   -9.7065    3.6214 H   0  0  0  0  0  0  0  0  0  0  0  0
   -1.7073   -9.4098    3.6633 H   0  0  0  0  0  0  0  0  0  0  0  0
   -2.8649  -10.6960    4.1479 H   0  0  0  0  0  0  0  0  0  0  0  0
   -0.5279  -11.0444    2.1588 H   0  0  0  0  0  0  0  0  0  0  0  0
   -2.2680  -10.8476    1.7131 H   0  0  0  0  0  0  0  0  0  0  0  0
   -1.7344  -12.3174    2.6214 H   0  0  0  0  0  0  0  0  0  0  0  0
    0.4267   -7.1715    7.7868 H   0  0  0  0  0  0  0  0  0  0  0  0
    0.3380   -4.8839    5.0806 H   0  0  0  0  0  0  0  0  0  0  0  0
    2.5525   -0.6067    3.7552 H   0  0  0  0  0  0  0  0  0  0  0  0
    3.7264    1.1791    2.8147 H   0  0  0  0  0  0  0  0  0  0  0  0
    2.8606    2.7466    3.0067 H   0  0  0  0  0  0  0  0  0  0  0  0
    2.9025    1.9113    1.3976 H   0  0  0  0  0  0  0  0  0  0  0  0
   -0.4997    4.2979    0.5435 H   0  0  0  0  0  0  0  0  0  0  0  0
   -1.4951    3.7750    1.9567 H   0  0  0  0  0  0  0  0  0  0  0  0
   -1.3487    2.7119    0.4859 H   0  0  0  0  0  0  0  0  0  0  0  0
   -1.8431    1.3415    2.4536 H   0  0  0  0  0  0  0  0  0  0  0  0
   -3.9268   -0.2034    3.9840 H   0  0  0  0  0  0  0  0  0  0  0  0
   -4.9732   -1.3745    2.2117 H   0  0  0  0  0  0  0  0  0  0  0  0
   -5.6686   -3.4891    1.3379 H   0  0  0  0  0  0  0  0  0  0  0  0
   -7.2564   -5.3377   -1.2699 H   0  0  0  0  0  0  0  0  0  0  0  0
   -7.3920   -4.8494    0.4543 H   0  0  0  0  0  0  0  0  0  0  0  0
   -6.6863   -6.4557    0.0325 H   0  0  0  0  0  0  0  0  0  0  0  0
   -4.0003   -5.8791   -4.0943 H   0  0  0  0  0  0  0  0  0  0  0  0
   -4.7523   -7.5012   -3.8900 H   0  0  0  0  0  0  0  0  0  0  0  0
   -3.2015   -7.1343   -3.0441 H   0  0  0  0  0  0  0  0  0  0  0  0
   -2.4871   -5.0081   -2.2048 H   0  0  0  0  0  0  0  0  0  0  0  0
   -0.7597   -3.3647   -2.4879 H   0  0  0  0  0  0  0  0  0  0  0  0
    0.9241   -2.2162   -0.2093 H   0  0  0  0  0  0  0  0  0  0  0  0
    1.2029   -4.3385   -3.4406 H   0  0  0  0  0  0  0  0  0  0  0  0
    2.5985   -5.6764   -6.0907 H   0  0  0  0  0  0  0  0  0  0  0  0
    0.9660   -5.7886   -5.3225 H   0  0  0  0  0  0  0  0  0  0  0  0
    1.1173   -5.1330   -6.9831 H   0  0  0  0  0  0  0  0  0  0  0  0
    2.3748   -1.2746   -8.6684 H   0  0  0  0  0  0  0  0  0  0  0  0
    4.0914   -1.7355   -8.2640 H   0  0  0  0  0  0  0  0  0  0  0  0
    3.1962   -2.6148   -9.5540 H   0  0  0  0  0  0  0  0  0  0  0  0
    2.9044   -0.6805   -6.3621 H   0  0  0  0  0  0  0  0  0  0  0  0
    2.5493    2.2034   -3.7327 H   0  0  0  0  0  0  0  0  0  0  0  0
    1.2137    0.8301   -6.1000 H   0  0  0  0  0  0  0  0  0  0  0  0
    0.4087    1.4127   -8.0695 H   0  0  0  0  0  0  0  0  0  0  0  0
   -0.3461    1.1999  -10.3975 H   0  0  0  0  0  0  0  0  0  0  0  0
   -1.4369    2.4125  -11.1288 H   0  0  0  0  0  0  0  0  0  0  0  0
   -2.0510    1.3263   -9.8159 H   0  0  0  0  0  0  0  0  0  0  0  0
   -3.3778    5.9171  -11.1396 H   0  0  0  0  0  0  0  0  0  0  0  0
   -1.9639    6.6905  -10.3257 H   0  0  0  0  0  0  0  0  0  0  0  0
   -3.3591    6.0536   -9.3404 H   0  0  0  0  0  0  0  0  0  0  0  0
   -1.1976    6.1328   -8.0932 H   0  0  0  0  0  0  0  0  0  0  0  0
    0.3999    7.5228   -6.4647 H   0  0  0  0  0  0  0  0  0  0  0  0
   -0.6642    8.3520   -4.5450 H   0  0  0  0  0  0  0  0  0  0  0  0
   -1.6934    4.5622   -4.5869 H   0  0  0  0  0  0  0  0  0  0  0  0
   -0.8264    2.1562   -3.1020 H   0  0  0  0  0  0  0  0  0  0  0  0
   -0.6819    0.3303   -4.7496 H   0  0  0  0  0  0  0  0  0  0  0  0
   -1.8242   -2.1243   -4.5071 H   0  0  0  0  0  0  0  0  0  0  0  0
   -3.6154   -2.2985   -4.7007 H   0  0  0  0  0  0  0  0  0  0  0  0
   -2.4489   -4.4318   -5.1937 H   0  0  0  0  0  0  0  0  0  0  0  0
   -1.4138   -3.6181   -6.4242 H   0  0  0  0  0  0  0  0  0  0  0  0
   -3.2007   -3.7861   -6.7078 H   0  0  0  0  0  0  0  0  0  0  0  0
   -5.0729    2.4315   -3.8051 H   0  0  0  0  0  0  0  0  0  0  0  0
   -5.3818    6.7624    0.6711 H   0  0  0  0  0  0  0  0  0  0  0  0
   -5.4684    8.6468    2.2554 H   0  0  0  0  0  0  0  0  0  0  0  0
   -4.1230    9.9078    5.8568 H   0  0  0  0  0  0  0  0  0  0  0  0
   -4.4229    8.4165    4.9059 H   0  0  0  0  0  0  0  0  0  0  0  0
   -1.6652    9.4565    5.8478 H   0  0  0  0  0  0  0  0  0  0  0  0
   -1.9531    7.9258    4.9239 H   0  0  0  0  0  0  0  0  0  0  0  0
   -2.6016    8.1050    6.5855 H   0  0  0  0  0  0  0  0  0  0  0  0
   -1.0778    6.7712    0.9032 H   0  0  0  0  0  0  0  0  0  0  0  0
   -4.5756    4.4717    1.9201 H   0  0  0  0  0  0  0  0  0  0  0  0
   -5.4076    2.0161    1.7452 H   0  0  0  0  0  0  0  0  0  0  0  0
  1  2  2  0
  2  3  1  0
  3  4  2  0
  4  5  1  0
  5  6  2  0
  6  7  1  0
  7  8  2  0
  8  9  1  0
  9 10  1  0
 10 11  1  0
  8 12  1  0
 12 13  1  0
 12 14  2  0
  4 15  1  0
 15 16  2  0
 16 17  1  0
 17 18  1  0
 18 19  2  0
 19 20  1  0
 20 21  2  0
 21 22  1  0
 22 23  1  0
 23 24  1  0
 21 25  1  0
 25 26  2  0
 25 27  1  0
 17 28  2  0
 28 29  1  0
 16 30  1  0
 30 31  2  0
 31 32  1  0
 31 33  1  0
 33 34  1  0
 34 35  1  0
 35 36  2  0
 36 37  1  0
 37 38  1  0
 38 39  2  0
 39 40  1  0
 39 41  1  0
 41 42  1  0
 42 43  1  0
 41 44  2  0
 35 45  1  0
 45 46  2  3
 46 47  1  0
 47 48  1  0
 48 49  1  0
 49 50  2  0
 50 51  1  0
 51 52  1  0
 52 53  2  0
 53 54  1  0
 53 55  1  0
 55 56  1  0
 56 57  1  0
 55 58  2  0
 49 59  1  0
 59 60  2  3
 60 61  1  0
 61 62  1  0
 62 63  1  0
 63 64  2  0
 64 65  1  0
 65 66  1  0
 66 67  2  0
 67 68  1  0
 67 69  1  0
 69 70  1  0
 70 71  1  0
 69 72  2  0
 63 73  1  0
 73 74  2  3
 74 75  1  0
 75 76  1  0
 76 77  1  0
 77 78  2  0
 78 79  1  0
 79 80  1  0
 80 81  2  0
 81 82  1  0
 81 83  1  0
 83 84  1  0
 84 85  1  0
 83 86  2  0
 77 87  1  0
 87 88  2  3
 88 89  1  0
 89 90  2  0
 90 91  1  0
 91 92  2  0
 92 93  1  0
 93 94  2  0
 94 95  1  0
 95 96  2  0
 96 97  1  0
 97 98  1  0
 98 99  1  0
 96100  1  0
100101  1  0
100102  2  0
 92103  1  0
103104  2  0
104105  1  0
105106  1  0
106107  2  0
107108  1  0
108109  2  0
109110  1  0
110111  1  0
111112  1  0
109113  1  0
113114  2  0
113115  1  0
105116  2  0
116117  1  0
104118  1  0
118119  2  0
119120  1  0
 29  1  1  0
 37 33  2  0
 51 47  2  0
 65 61  2  0
 79 75  2  0
117 89  1  0
 28  3  1  0
 44 36  1  0
 58 50  1  0
 72 64  1  0
 86 78  1  0
116 91  1  0
 14  5  1  0
 32 15  1  0
102 93  1  0
120103  1  0
 26 18  1  0
114106  1  0
  1121  1  0
  2122  1  0
  6123  1  0
  7124  1  0
 10125  1  0
 10126  1  0
 11127  1  0
 11128  1  0
 11129  1  0
 14130  1  0
 19131  1  0
 20132  1  0
 23133  1  0
 23134  1  0
 24135  1  0
 24136  1  0
 24137  1  0
 26138  1  0
 30139  1  0
 38140  1  0
 40141  1  0
 40142  1  0
 40143  1  0
 43144  1  0
 43145  1  0
 43146  1  0
 44147  1  0
 45148  1  0
 46149  1  0
 52150  1  0
 54151  1  0
 54152  1  0
 54153  1  0
 57154  1  0
 57155  1  0
 57156  1  0
 58157  1  0
 59158  1  0
 60159  1  0
 66160  1  0
 68161  1  0
 68162  1  0
 68163  1  0
 71164  1  0
 71165  1  0
 71166  1  0
 72167  1  0
 73168  1  0
 74169  1  0
 80170  1  0
 82171  1  0
 82172  1  0
 82173  1  0
 85174  1  0
 85175  1  0
 85176  1  0
 86177  1  0
 87178  1  0
 88179  1  0
 90180  1  0
 94181  1  0
 95182  1  0
 98183  1  0
 98184  1  0
 99185  1  0
 99186  1  0
 99187  1  0
102188  1  0
107189  1  0
108190  1  0
111191  1  0
111192  1  0
112193  1  0
112194  1  0
112195  1  0
114196  1  0
118197  1  0
119198  1  0
M  END

