
     RDKit          3D

164178  0  0  0  0  0  0  0  0999 V2000
   -2.5591    4.9761    8.8542 C   0  0  0  0  0  0  0  0  0  0  0  0
   -3.6987    4.7136    7.6622 S   0  0  0  0  0  0  0  0  0  0  0  0
   -2.9266    5.5361    6.3829 C   0  0  0  0  0  0  0  0  0  0  0  0
   -1.7487    6.0720    6.9228 C   0  0  0  0  0  0  0  0  0  0  0  0
   -1.5367    5.7162    8.2719 C   0  0  0  0  0  0  0  0  0  0  0  0
   -0.4114    6.1419    8.9710 C   0  0  0  0  0  0  0  0  0  0  0  0
    0.5157    6.9768    8.3288 C   0  0  0  0  0  0  0  0  0  0  0  0
    1.6684    7.4989    9.1245 C   0  0  0  0  0  0  0  0  0  0  0  0
    0.3084    7.3680    6.9938 C   0  0  0  0  0  0  0  0  0  0  0  0
    1.2041    8.2863    6.4200 O   0  0  0  0  0  0  0  0  0  0  0  0
    0.8125    9.3624    5.5850 C   0  0  0  0  0  0  0  0  0  0  0  0
   -0.8095    6.8943    6.2639 C   0  0  0  0  0  0  0  0  0  0  0  0
   -3.4458    5.6814    4.9909 C   0  0  0  0  0  0  0  0  0  0  0  0
   -4.1190    4.7219    4.3144 C   0  0  0  0  0  0  0  0  0  0  0  0
   -4.2213    3.2981    4.7258 C   0  0  0  0  0  0  0  0  0  0  0  0
   -3.0345    2.4212    5.5132 S   0  0  0  0  0  0  0  0  0  0  0  0
   -3.8098    0.9414    5.5626 C   0  0  0  0  0  0  0  0  0  0  0  0
   -4.9672    1.0795    4.8499 C   0  0  0  0  0  0  0  0  0  0  0  0
   -5.1960    2.3759    4.3230 C   0  0  0  0  0  0  0  0  0  0  0  0
   -6.1070    2.5451    3.2822 C   0  0  0  0  0  0  0  0  0  0  0  0
   -6.7350    1.4168    2.6829 C   0  0  0  0  0  0  0  0  0  0  0  0
   -7.3671    1.5641    1.3328 C   0  0  0  0  0  0  0  0  0  0  0  0
   -6.4810    0.1371    3.2149 C   0  0  0  0  0  0  0  0  0  0  0  0
   -6.9258   -1.0053    2.5060 O   0  0  0  0  0  0  0  0  0  0  0  0
   -6.3512   -2.3308    2.6549 C   0  0  0  0  0  0  0  0  0  0  0  0
   -5.6934   -0.0070    4.3697 C   0  0  0  0  0  0  0  0  0  0  0  0
   -3.1602   -0.3502    5.8185 C   0  0  0  0  0  0  0  0  0  0  0  0
   -2.1817   -0.7050    4.9916 C   0  0  0  0  0  0  0  0  0  0  0  0
   -1.7051   -2.0780    4.8625 C   0  0  0  0  0  0  0  0  0  0  0  0
   -2.4662   -3.4762    5.4392 S   0  0  0  0  0  0  0  0  0  0  0  0
   -1.3724   -4.6038    4.8185 C   0  0  0  0  0  0  0  0  0  0  0  0
   -0.3439   -3.8820    4.1657 C   0  0  0  0  0  0  0  0  0  0  0  0
   -0.5595   -2.4699    4.1678 C   0  0  0  0  0  0  0  0  0  0  0  0
    0.3926   -1.6146    3.6128 C   0  0  0  0  0  0  0  0  0  0  0  0
    1.5115   -2.1325    2.9742 C   0  0  0  0  0  0  0  0  0  0  0  0
    2.5326   -1.2317    2.3329 C   0  0  0  0  0  0  0  0  0  0  0  0
    1.7645   -3.5278    3.0325 C   0  0  0  0  0  0  0  0  0  0  0  0
    2.9618   -4.0013    2.5019 O   0  0  0  0  0  0  0  0  0  0  0  0
    3.4748   -5.3148    2.7161 C   0  0  0  0  0  0  0  0  0  0  0  0
    0.8329   -4.3981    3.6331 C   0  0  0  0  0  0  0  0  0  0  0  0
   -1.3732   -6.0266    5.2227 C   0  0  0  0  0  0  0  0  0  0  0  0
   -1.0931   -7.1007    4.4591 C   0  0  0  0  0  0  0  0  0  0  0  0
   -0.8046   -7.0942    2.9944 C   0  0  0  0  0  0  0  0  0  0  0  0
   -1.5151   -6.1290    1.8116 S   0  0  0  0  0  0  0  0  0  0  0  0
   -0.6924   -6.7775    0.5032 C   0  0  0  0  0  0  0  0  0  0  0  0
    0.1257   -7.8039    0.9823 C   0  0  0  0  0  0  0  0  0  0  0  0
    0.0759   -7.9614    2.3644 C   0  0  0  0  0  0  0  0  0  0  0  0
    0.9474   -8.8511    3.0009 C   0  0  0  0  0  0  0  0  0  0  0  0
    1.8817   -9.5894    2.2412 C   0  0  0  0  0  0  0  0  0  0  0  0
    2.9493  -10.3664    2.9263 C   0  0  0  0  0  0  0  0  0  0  0  0
    1.9251   -9.4501    0.8316 C   0  0  0  0  0  0  0  0  0  0  0  0
    2.8732  -10.1580    0.0956 O   0  0  0  0  0  0  0  0  0  0  0  0
    3.3657   -9.6859   -1.1728 C   0  0  0  0  0  0  0  0  0  0  0  0
    0.9986   -8.5963    0.2140 C   0  0  0  0  0  0  0  0  0  0  0  0
   -0.6455   -6.1485   -0.8338 C   0  0  0  0  0  0  0  0  0  0  0  0
    0.5238   -5.8717   -1.4050 C   0  0  0  0  0  0  0  0  0  0  0  0
    0.6120   -4.8108   -2.4112 C   0  0  0  0  0  0  0  0  0  0  0  0
    0.7267   -3.4843   -2.0863 C   0  0  0  0  0  0  0  0  0  0  0  0
    0.9682   -2.6608   -3.2063 C   0  0  0  0  0  0  0  0  0  0  0  0
    1.0226   -1.2648   -3.1987 C   0  0  0  0  0  0  0  0  0  0  0  0
    0.2441   -0.4655   -2.2206 C   0  0  0  0  0  0  0  0  0  0  0  0
    0.3587   -0.5323   -0.5265 S   0  0  0  0  0  0  0  0  0  0  0  0
   -1.1177    0.2155   -0.1919 C   0  0  0  0  0  0  0  0  0  0  0  0
   -1.7714    0.2917    1.1425 C   0  0  0  0  0  0  0  0  0  0  0  0
   -1.7874    1.7161    1.6622 C   0  0  0  0  0  0  0  0  0  0  0  0
   -1.7129    0.5468   -1.3937 C   0  0  0  0  0  0  0  0  0  0  0  0
   -3.3239    1.2442   -1.5337 Cl  0  0  0  0  0  0  0  0  0  0  0  0
   -0.9837    0.1492   -2.5182 C   0  0  0  0  0  0  0  0  0  0  0  0
   -1.6557    0.2817   -4.1364 Cl  0  0  0  0  0  0  0  0  0  0  0  0
    1.4168   -0.6534   -4.4061 C   0  0  0  0  0  0  0  0  0  0  0  0
    1.4672   -1.3473   -5.5885 C   0  0  0  0  0  0  0  0  0  0  0  0
    1.4101   -2.7536   -5.6106 C   0  0  0  0  0  0  0  0  0  0  0  0
    1.9481   -3.4758   -6.7867 C   0  0  0  0  0  0  0  0  0  0  0  0
    3.3961   -3.0324   -7.5139 S   0  0  0  0  0  0  0  0  0  0  0  0
    3.3897   -4.2088   -8.6987 C   0  0  0  0  0  0  0  0  0  0  0  0
    4.4774   -4.4010   -9.7073 C   0  0  0  0  0  0  0  0  0  0  0  0
    5.8308   -4.5411   -9.0153 C   0  0  0  0  0  0  0  0  0  0  0  0
    2.2288   -4.9808   -8.5580 C   0  0  0  0  0  0  0  0  0  0  0  0
    1.4207   -4.5808   -7.4733 C   0  0  0  0  0  0  0  0  0  0  0  0
   -0.1643   -5.2661   -7.1554 Cl  0  0  0  0  0  0  0  0  0  0  0  0
    1.7919   -6.3128   -9.6155 Cl  0  0  0  0  0  0  0  0  0  0  0  0
    1.1295   -3.3989   -4.3796 C   0  0  0  0  0  0  0  0  0  0  0  0
    0.9509   -5.0293   -4.0376 S   0  0  0  0  0  0  0  0  0  0  0  0
    1.6480   -0.5032   -6.7163 C   0  0  0  0  0  0  0  0  0  0  0  0
    1.7165    0.8300   -6.3926 C   0  0  0  0  0  0  0  0  0  0  0  0
    1.6281    0.9756   -4.7308 S   0  0  0  0  0  0  0  0  0  0  0  0
    1.7959    1.9511   -7.3662 C   0  0  0  0  0  0  0  0  0  0  0  0
    2.5697    1.8917   -8.8529 S   0  0  0  0  0  0  0  0  0  0  0  0
    2.2726    3.4958   -9.3021 C   0  0  0  0  0  0  0  0  0  0  0  0
    1.5506    4.0938   -8.2539 C   0  0  0  0  0  0  0  0  0  0  0  0
    1.2322    3.2060   -7.2194 C   0  0  0  0  0  0  0  0  0  0  0  0
    0.3191    3.5643   -6.2192 C   0  0  0  0  0  0  0  0  0  0  0  0
   -0.1594    4.8819   -6.1773 C   0  0  0  0  0  0  0  0  0  0  0  0
   -1.1439    5.2820   -5.1093 C   0  0  0  0  0  0  0  0  0  0  0  0
    0.2841    5.8226   -7.1182 C   0  0  0  0  0  0  0  0  0  0  0  0
   -0.1056    7.1648   -6.9628 O   0  0  0  0  0  0  0  0  0  0  0  0
    0.4197    8.2511   -7.7356 C   0  0  0  0  0  0  0  0  0  0  0  0
    1.0928    5.4112   -8.1954 C   0  0  0  0  0  0  0  0  0  0  0  0
    2.5708    4.1089  -10.5940 C   0  0  0  0  0  0  0  0  0  0  0  0
    2.6903    3.4122  -11.7219 C   0  0  0  0  0  0  0  0  0  0  0  0
   -2.5382    4.5997    9.8815 H   0  0  0  0  0  0  0  0  0  0  0  0
   -0.2812    5.8723   10.0047 H   0  0  0  0  0  0  0  0  0  0  0  0
    2.0577    6.6872    9.7803 H   0  0  0  0  0  0  0  0  0  0  0  0
    1.3227    8.3498    9.7429 H   0  0  0  0  0  0  0  0  0  0  0  0
    2.4896    7.8281    8.4613 H   0  0  0  0  0  0  0  0  0  0  0  0
   -0.2013    9.7382    5.8790 H   0  0  0  0  0  0  0  0  0  0  0  0
    1.5762   10.1672    5.6900 H   0  0  0  0  0  0  0  0  0  0  0  0
    0.7830    9.0240    4.5286 H   0  0  0  0  0  0  0  0  0  0  0  0
   -0.9517    7.2147    5.2390 H   0  0  0  0  0  0  0  0  0  0  0  0
   -3.3247    6.6372    4.4878 H   0  0  0  0  0  0  0  0  0  0  0  0
   -4.5966    5.0002    3.3746 H   0  0  0  0  0  0  0  0  0  0  0  0
   -6.1761    3.4838    2.7905 H   0  0  0  0  0  0  0  0  0  0  0  0
   -8.0634    2.4226    1.2976 H   0  0  0  0  0  0  0  0  0  0  0  0
   -6.5539    1.7019    0.5995 H   0  0  0  0  0  0  0  0  0  0  0  0
   -7.9353    0.6576    1.0621 H   0  0  0  0  0  0  0  0  0  0  0  0
   -6.6408   -2.7453    3.6335 H   0  0  0  0  0  0  0  0  0  0  0  0
   -5.2286   -2.2731    2.5969 H   0  0  0  0  0  0  0  0  0  0  0  0
   -6.7112   -3.0202    1.8420 H   0  0  0  0  0  0  0  0  0  0  0  0
   -5.5069   -0.9953    4.7546 H   0  0  0  0  0  0  0  0  0  0  0  0
   -3.6725   -1.0858    6.4443 H   0  0  0  0  0  0  0  0  0  0  0  0
   -1.7956    0.0438    4.3163 H   0  0  0  0  0  0  0  0  0  0  0  0
    0.2574   -0.5601    3.6753 H   0  0  0  0  0  0  0  0  0  0  0  0
    2.2142   -0.1513    2.4396 H   0  0  0  0  0  0  0  0  0  0  0  0
    3.5073   -1.3626    2.8294 H   0  0  0  0  0  0  0  0  0  0  0  0
    2.6194   -1.4790    1.2624 H   0  0  0  0  0  0  0  0  0  0  0  0
    4.4971   -5.3826    2.3055 H   0  0  0  0  0  0  0  0  0  0  0  0
    2.8120   -6.0409    2.1993 H   0  0  0  0  0  0  0  0  0  0  0  0
    3.5082   -5.5122    3.8128 H   0  0  0  0  0  0  0  0  0  0  0  0
    1.0537   -5.4466    3.6715 H   0  0  0  0  0  0  0  0  0  0  0  0
   -1.6081   -6.2205    6.2525 H   0  0  0  0  0  0  0  0  0  0  0  0
   -1.0566   -8.0586    4.9637 H   0  0  0  0  0  0  0  0  0  0  0  0
    0.9212   -8.9879    4.0813 H   0  0  0  0  0  0  0  0  0  0  0  0
    3.9213   -9.8416    2.8190 H   0  0  0  0  0  0  0  0  0  0  0  0
    3.0286  -11.3752    2.4526 H   0  0  0  0  0  0  0  0  0  0  0  0
    2.7511  -10.5152    4.0021 H   0  0  0  0  0  0  0  0  0  0  0  0
    4.1169  -10.4215   -1.5476 H   0  0  0  0  0  0  0  0  0  0  0  0
    3.8485   -8.6977   -1.0234 H   0  0  0  0  0  0  0  0  0  0  0  0
    2.5573   -9.6279   -1.9194 H   0  0  0  0  0  0  0  0  0  0  0  0
    0.9760   -8.5021   -0.8566 H   0  0  0  0  0  0  0  0  0  0  0  0
   -1.5617   -5.7232   -1.2485 H   0  0  0  0  0  0  0  0  0  0  0  0
    1.4630   -6.2406   -0.9952 H   0  0  0  0  0  0  0  0  0  0  0  0
    0.7182   -3.1844   -1.0586 H   0  0  0  0  0  0  0  0  0  0  0  0
   -2.8145   -0.0893    1.0842 H   0  0  0  0  0  0  0  0  0  0  0  0
   -1.2475   -0.3653    1.8876 H   0  0  0  0  0  0  0  0  0  0  0  0
   -2.3136    1.7813    2.6488 H   0  0  0  0  0  0  0  0  0  0  0  0
   -0.7454    2.0700    1.8077 H   0  0  0  0  0  0  0  0  0  0  0  0
   -2.3027    2.3749    0.9441 H   0  0  0  0  0  0  0  0  0  0  0  0
    4.3059   -5.2826  -10.3764 H   0  0  0  0  0  0  0  0  0  0  0  0
    4.5133   -3.4818  -10.3551 H   0  0  0  0  0  0  0  0  0  0  0  0
    5.8698   -5.4649   -8.3879 H   0  0  0  0  0  0  0  0  0  0  0  0
    6.0421   -3.6600   -8.3539 H   0  0  0  0  0  0  0  0  0  0  0  0
    6.6520   -4.5844   -9.7721 H   0  0  0  0  0  0  0  0  0  0  0  0
    1.6930   -0.8586   -7.7348 H   0  0  0  0  0  0  0  0  0  0  0  0
   -0.0538    2.8408   -5.5110 H   0  0  0  0  0  0  0  0  0  0  0  0
   -1.2792    4.4599   -4.3689 H   0  0  0  0  0  0  0  0  0  0  0  0
   -0.7544    6.1808   -4.5646 H   0  0  0  0  0  0  0  0  0  0  0  0
   -2.1429    5.5018   -5.5525 H   0  0  0  0  0  0  0  0  0  0  0  0
    0.0491    8.1916   -8.7765 H   0  0  0  0  0  0  0  0  0  0  0  0
    1.5366    8.2006   -7.7207 H   0  0  0  0  0  0  0  0  0  0  0  0
    0.0983    9.2061   -7.2716 H   0  0  0  0  0  0  0  0  0  0  0  0
    1.3664    6.1042   -8.9768 H   0  0  0  0  0  0  0  0  0  0  0  0
    2.6078    5.1930  -10.6696 H   0  0  0  0  0  0  0  0  0  0  0  0
    2.8531    3.9285  -12.6475 H   0  0  0  0  0  0  0  0  0  0  0  0
    2.6123    2.3365  -11.7610 H   0  0  0  0  0  0  0  0  0  0  0  0
  1  2  1  0
  2  3  1  0
  3  4  2  0
  4  5  1  0
  5  6  1  0
  6  7  2  0
  7  8  1  0
  7  9  1  0
  9 10  1  0
 10 11  1  0
  9 12  2  0
  3 13  1  0
 13 14  2  3
 14 15  1  0
 15 16  1  0
 16 17  1  0
 17 18  2  0
 18 19  1  0
 19 20  1  0
 20 21  2  0
 21 22  1  0
 21 23  1  0
 23 24  1  0
 24 25  1  0
 23 26  2  0
 17 27  1  0
 27 28  2  3
 28 29  1  0
 29 30  1  0
 30 31  1  0
 31 32  2  0
 32 33  1  0
 33 34  1  0
 34 35  2  0
 35 36  1  0
 35 37  1  0
 37 38  1  0
 38 39  1  0
 37 40  2  0
 31 41  1  0
 41 42  2  3
 42 43  1  0
 43 44  1  0
 44 45  1  0
 45 46  2  0
 46 47  1  0
 47 48  1  0
 48 49  2  0
 49 50  1  0
 49 51  1  0
 51 52  1  0
 52 53  1  0
 51 54  2  0
 45 55  1  0
 55 56  2  3
 56 57  1  0
 57 58  2  0
 58 59  1  0
 59 60  2  0
 60 61  1  0
 61 62  1  0
 62 63  1  0
 63 64  1  0
 64 65  1  0
 63 66  2  0
 66 67  1  0
 66 68  1  0
 68 69  1  0
 60 70  1  0
 70 71  2  0
 71 72  1  0
 72 73  1  0
 73 74  1  0
 74 75  1  0
 75 76  1  0
 76 77  1  0
 75 78  2  0
 78 79  1  0
 79 80  1  0
 78 81  1  0
 72 82  2  0
 82 83  1  0
 71 84  1  0
 84 85  2  0
 85 86  1  0
 85 87  1  0
 87 88  1  0
 88 89  1  0
 89 90  2  0
 90 91  1  0
 91 92  1  0
 92 93  2  0
 93 94  1  0
 93 95  1  0
 95 96  1  0
 96 97  1  0
 95 98  2  0
 89 99  1  0
 99100  2  3
  5  1  2  0
 19 15  2  0
 33 29  2  0
 47 43  2  0
 83 57  1  0
 91 87  2  0
 12  4  1  0
 26 18  1  0
 40 32  1  0
 54 46  1  0
 82 59  1  0
 98 90  1  0
 68 61  2  0
 86 70  1  0
 79 73  2  0
  1101  1  0
  6102  1  0
  8103  1  0
  8104  1  0
  8105  1  0
 11106  1  0
 11107  1  0
 11108  1  0
 12109  1  0
 13110  1  0
 14111  1  0
 20112  1  0
 22113  1  0
 22114  1  0
 22115  1  0
 25116  1  0
 25117  1  0
 25118  1  0
 26119  1  0
 27120  1  0
 28121  1  0
 34122  1  0
 36123  1  0
 36124  1  0
 36125  1  0
 39126  1  0
 39127  1  0
 39128  1  0
 40129  1  0
 41130  1  0
 42131  1  0
 48132  1  0
 50133  1  0
 50134  1  0
 50135  1  0
 53136  1  0
 53137  1  0
 53138  1  0
 54139  1  0
 55140  1  0
 56141  1  0
 58142  1  0
 64143  1  0
 64144  1  0
 65145  1  0
 65146  1  0
 65147  1  0
 76148  1  0
 76149  1  0
 77150  1  0
 77151  1  0
 77152  1  0
 84153  1  0
 92154  1  0
 94155  1  0
 94156  1  0
 94157  1  0
 97158  1  0
 97159  1  0
 97160  1  0
 98161  1  0
 99162  1  0
100163  1  0
100164  1  0
M  END

