
     RDKit          3D

101112  0  0  0  0  0  0  0  0999 V2000
    5.3402    2.0210    7.7151 C   0  0  0  0  0  0  0  0  0  0  0  0
    3.7723    1.4301    7.5783 S   0  0  0  0  0  0  0  0  0  0  0  0
    3.8405    0.9720    5.9538 C   0  0  0  0  0  0  0  0  0  0  0  0
    5.1174    1.3034    5.4861 C   0  0  0  0  0  0  0  0  0  0  0  0
    5.9408    1.8840    6.4690 C   0  0  0  0  0  0  0  0  0  0  0  0
    7.2438    2.2878    6.1650 C   0  0  0  0  0  0  0  0  0  0  0  0
    7.7346    2.1100    4.8626 C   0  0  0  0  0  0  0  0  0  0  0  0
    9.0763    2.5517    4.5558 C   0  0  0  0  0  0  0  0  0  0  0  0
   10.1481    2.9103    4.3045 N   0  0  0  0  0  0  0  0  0  0  0  0
    6.9200    1.5048    3.8739 C   0  0  0  0  0  0  0  0  0  0  0  0
    7.4051    1.3000    2.5291 C   0  0  0  0  0  0  0  0  0  0  0  0
    7.7890    1.1350    1.4497 N   0  0  0  0  0  0  0  0  0  0  0  0
    5.6167    1.0883    4.1948 C   0  0  0  0  0  0  0  0  0  0  0  0
    2.6819    0.4846    5.1701 C   0  0  0  0  0  0  0  0  0  0  0  0
    2.2994    0.9866    3.6069 S   0  0  0  0  0  0  0  0  0  0  0  0
    0.8151    0.2059    3.4619 C   0  0  0  0  0  0  0  0  0  0  0  0
    0.5922   -0.4760    4.6666 C   0  0  0  0  0  0  0  0  0  0  0  0
    1.6303   -0.3281    5.6111 C   0  0  0  0  0  0  0  0  0  0  0  0
    1.5619   -0.9945    6.8435 C   0  0  0  0  0  0  0  0  0  0  0  0
    0.4344   -1.7709    7.1528 C   0  0  0  0  0  0  0  0  0  0  0  0
    0.3831   -2.4459    8.4275 C   0  0  0  0  0  0  0  0  0  0  0  0
    0.3350   -2.9828    9.4488 N   0  0  0  0  0  0  0  0  0  0  0  0
   -0.6278   -1.8790    6.2276 C   0  0  0  0  0  0  0  0  0  0  0  0
   -1.8054   -2.6624    6.5272 C   0  0  0  0  0  0  0  0  0  0  0  0
   -2.7448   -3.2959    6.7644 N   0  0  0  0  0  0  0  0  0  0  0  0
   -0.5490   -1.2262    4.9888 C   0  0  0  0  0  0  0  0  0  0  0  0
    0.0046    0.1415    2.2231 C   0  0  0  0  0  0  0  0  0  0  0  0
   -0.8006   -1.2392    1.6877 S   0  0  0  0  0  0  0  0  0  0  0  0
   -1.4312   -0.5982    0.2748 C   0  0  0  0  0  0  0  0  0  0  0  0
   -0.9684    0.7111    0.1575 C   0  0  0  0  0  0  0  0  0  0  0  0
   -0.1782    1.1316    1.2483 C   0  0  0  0  0  0  0  0  0  0  0  0
    0.3238    2.4396    1.2858 C   0  0  0  0  0  0  0  0  0  0  0  0
    0.0765    3.3088    0.2099 C   0  0  0  0  0  0  0  0  0  0  0  0
    0.6238    4.6441    0.2576 C   0  0  0  0  0  0  0  0  0  0  0  0
    1.0688    5.7127    0.2937 N   0  0  0  0  0  0  0  0  0  0  0  0
   -0.6823    2.8705   -0.9023 C   0  0  0  0  0  0  0  0  0  0  0  0
   -0.9553    3.7478   -2.0161 C   0  0  0  0  0  0  0  0  0  0  0  0
   -1.1777    4.4526   -2.9040 N   0  0  0  0  0  0  0  0  0  0  0  0
   -1.1990    1.5652   -0.9267 C   0  0  0  0  0  0  0  0  0  0  0  0
   -2.3363   -1.3351   -0.6172 C   0  0  0  0  0  0  0  0  0  0  0  0
   -2.0817   -2.9244   -1.0890 S   0  0  0  0  0  0  0  0  0  0  0  0
   -3.5480   -3.1457   -1.8864 C   0  0  0  0  0  0  0  0  0  0  0  0
   -4.2891   -1.9716   -1.7494 C   0  0  0  0  0  0  0  0  0  0  0  0
   -3.6155   -0.9630   -1.0375 C   0  0  0  0  0  0  0  0  0  0  0  0
   -4.2556    0.2469   -0.7541 C   0  0  0  0  0  0  0  0  0  0  0  0
   -5.5575    0.4739   -1.2346 C   0  0  0  0  0  0  0  0  0  0  0  0
   -6.2330    1.7894   -0.9608 C   0  0  0  0  0  0  0  0  0  0  0  0
   -6.2236   -0.5220   -1.9910 C   0  0  0  0  0  0  0  0  0  0  0  0
   -7.5159   -0.2542   -2.4767 O   0  0  0  0  0  0  0  0  0  0  0  0
   -8.3455   -1.2054   -3.1310 C   0  0  0  0  0  0  0  0  0  0  0  0
   -5.5829   -1.7565   -2.2374 C   0  0  0  0  0  0  0  0  0  0  0  0
   -3.9870   -4.4189   -2.4943 C   0  0  0  0  0  0  0  0  0  0  0  0
   -3.2083   -5.1352   -3.3132 C   0  0  0  0  0  0  0  0  0  0  0  0
   -1.9921   -4.5652   -3.9182 C   0  0  0  0  0  0  0  0  0  0  0  0
   -2.0015   -3.2189   -4.9177 S   0  0  0  0  0  0  0  0  0  0  0  0
   -0.3378   -2.9581   -4.9419 C   0  0  0  0  0  0  0  0  0  0  0  0
    0.2575   -3.9455   -4.1492 C   0  0  0  0  0  0  0  0  0  0  0  0
   -0.6678   -4.8416   -3.5788 C   0  0  0  0  0  0  0  0  0  0  0  0
   -0.2445   -5.8475   -2.7039 C   0  0  0  0  0  0  0  0  0  0  0  0
    1.1218   -5.9644   -2.3995 C   0  0  0  0  0  0  0  0  0  0  0  0
    1.5489   -7.0060   -1.4942 C   0  0  0  0  0  0  0  0  0  0  0  0
    1.8967   -7.8406   -0.7708 N   0  0  0  0  0  0  0  0  0  0  0  0
    2.0550   -5.0649   -2.9699 C   0  0  0  0  0  0  0  0  0  0  0  0
    3.4632   -5.1577   -2.6625 C   0  0  0  0  0  0  0  0  0  0  0  0
    4.5925   -5.2334   -2.4161 N   0  0  0  0  0  0  0  0  0  0  0  0
    1.6197   -4.0504   -3.8382 C   0  0  0  0  0  0  0  0  0  0  0  0
    0.3241   -1.8789   -5.7015 C   0  0  0  0  0  0  0  0  0  0  0  0
    1.6996   -2.0803   -6.6581 S   0  0  0  0  0  0  0  0  0  0  0  0
    1.7248   -0.5408   -7.3365 C   0  0  0  0  0  0  0  0  0  0  0  0
    0.6343    0.1559   -6.8287 C   0  0  0  0  0  0  0  0  0  0  0  0
   -0.1485   -0.5778   -5.9221 C   0  0  0  0  0  0  0  0  0  0  0  0
   -1.2696    0.0176   -5.3238 C   0  0  0  0  0  0  0  0  0  0  0  0
   -1.6319    1.3292   -5.6744 C   0  0  0  0  0  0  0  0  0  0  0  0
   -2.8114    1.9039   -5.0753 C   0  0  0  0  0  0  0  0  0  0  0  0
   -3.7617    2.3602   -4.5967 N   0  0  0  0  0  0  0  0  0  0  0  0
   -0.8490    2.0535   -6.6050 C   0  0  0  0  0  0  0  0  0  0  0  0
   -1.1983    3.4023   -6.9834 C   0  0  0  0  0  0  0  0  0  0  0  0
   -1.4753    4.4851   -7.2884 N   0  0  0  0  0  0  0  0  0  0  0  0
    0.2921    1.4651   -7.1748 C   0  0  0  0  0  0  0  0  0  0  0  0
    5.7882    2.4465    8.6029 H   0  0  0  0  0  0  0  0  0  0  0  0
    7.8691    2.7411    6.9273 H   0  0  0  0  0  0  0  0  0  0  0  0
    5.0163    0.5939    3.4447 H   0  0  0  0  0  0  0  0  0  0  0  0
    2.3816   -0.9437    7.5460 H   0  0  0  0  0  0  0  0  0  0  0  0
   -1.3839   -1.2949    4.3073 H   0  0  0  0  0  0  0  0  0  0  0  0
    0.8935    2.7956    2.1333 H   0  0  0  0  0  0  0  0  0  0  0  0
   -1.7708    1.2241   -1.7827 H   0  0  0  0  0  0  0  0  0  0  0  0
   -3.7609    1.0059   -0.1650 H   0  0  0  0  0  0  0  0  0  0  0  0
   -6.2959    2.3732   -1.9032 H   0  0  0  0  0  0  0  0  0  0  0  0
   -7.2574    1.6159   -0.5684 H   0  0  0  0  0  0  0  0  0  0  0  0
   -5.6800    2.3884   -0.2072 H   0  0  0  0  0  0  0  0  0  0  0  0
   -9.3244   -0.7335   -3.3590 H   0  0  0  0  0  0  0  0  0  0  0  0
   -7.8829   -1.5287   -4.0831 H   0  0  0  0  0  0  0  0  0  0  0  0
   -8.5153   -2.0804   -2.4700 H   0  0  0  0  0  0  0  0  0  0  0  0
   -6.0766   -2.5365   -2.8029 H   0  0  0  0  0  0  0  0  0  0  0  0
   -4.9558   -4.8141   -2.2111 H   0  0  0  0  0  0  0  0  0  0  0  0
   -3.5314   -6.1154   -3.6385 H   0  0  0  0  0  0  0  0  0  0  0  0
   -0.9658   -6.5235   -2.2582 H   0  0  0  0  0  0  0  0  0  0  0  0
    2.3360   -3.3460   -4.2358 H   0  0  0  0  0  0  0  0  0  0  0  0
    2.4497   -0.1711   -8.0501 H   0  0  0  0  0  0  0  0  0  0  0  0
   -1.8530   -0.5174   -4.5856 H   0  0  0  0  0  0  0  0  0  0  0  0
    0.8961    2.0167   -7.8869 H   0  0  0  0  0  0  0  0  0  0  0  0
  1  2  1  0
  2  3  1  0
  3  4  2  0
  4  5  1  0
  5  6  1  0
  6  7  2  0
  7  8  1  0
  8  9  3  0
  7 10  1  0
 10 11  1  0
 11 12  3  0
 10 13  2  0
  3 14  1  0
 14 15  1  0
 15 16  1  0
 16 17  2  0
 17 18  1  0
 18 19  1  0
 19 20  2  0
 20 21  1  0
 21 22  3  0
 20 23  1  0
 23 24  1  0
 24 25  3  0
 23 26  2  0
 16 27  1  0
 27 28  1  0
 28 29  1  0
 29 30  2  0
 30 31  1  0
 31 32  1  0
 32 33  2  0
 33 34  1  0
 34 35  3  0
 33 36  1  0
 36 37  1  0
 37 38  3  0
 36 39  2  0
 29 40  1  0
 40 41  1  0
 41 42  1  0
 42 43  2  0
 43 44  1  0
 44 45  1  0
 45 46  2  0
 46 47  1  0
 46 48  1  0
 48 49  1  0
 49 50  1  0
 48 51  2  0
 42 52  1  0
 52 53  2  3
 53 54  1  0
 54 55  1  0
 55 56  1  0
 56 57  2  0
 57 58  1  0
 58 59  1  0
 59 60  2  0
 60 61  1  0
 61 62  3  0
 60 63  1  0
 63 64  1  0
 64 65  3  0
 63 66  2  0
 56 67  1  0
 67 68  1  0
 68 69  1  0
 69 70  2  0
 70 71  1  0
 71 72  1  0
 72 73  2  0
 73 74  1  0
 74 75  3  0
 73 76  1  0
 76 77  1  0
 77 78  3  0
 76 79  2  0
  5  1  2  0
 18 14  2  0
 31 27  2  0
 44 40  2  0
 58 54  2  0
 71 67  2  0
 13  4  1  0
 26 17  1  0
 39 30  1  0
 51 43  1  0
 66 57  1  0
 79 70  1  0
  1 80  1  0
  6 81  1  0
 13 82  1  0
 19 83  1  0
 26 84  1  0
 32 85  1  0
 39 86  1  0
 45 87  1  0
 47 88  1  0
 47 89  1  0
 47 90  1  0
 50 91  1  0
 50 92  1  0
 50 93  1  0
 51 94  1  0
 52 95  1  0
 53 96  1  0
 59 97  1  0
 66 98  1  0
 69 99  1  0
 72100  1  0
 79101  1  0
M  END

