
     RDKit          3D

250273  0  0  0  0  0  0  0  0999 V2000
   -1.0673   -2.4039   10.7917 C   0  0  0  0  0  0  0  0  0  0  0  0
   -0.5153   -2.6414    9.5356 C   0  0  0  0  0  0  0  0  0  0  0  0
   -1.4503   -2.5430    8.4912 C   0  0  0  0  0  0  0  0  0  0  0  0
   -1.1957   -2.7413    7.1157 C   0  0  0  0  0  0  0  0  0  0  0  0
    0.1810   -2.9111    6.5918 C   0  0  0  0  0  0  0  0  0  0  0  0
    0.5199   -4.0324    5.8163 C   0  0  0  0  0  0  0  0  0  0  0  0
    1.8128   -4.1668    5.2993 C   0  0  0  0  0  0  0  0  0  0  0  0
    2.7765   -3.1805    5.5424 C   0  0  0  0  0  0  0  0  0  0  0  0
    4.4329   -3.3627    4.8630 S   0  0  0  0  0  0  0  0  0  0  0  0
    4.0211   -2.6544    3.2309 C   0  0  0  0  0  0  0  0  0  0  0  0
    4.1596   -1.1387    3.2377 C   0  0  0  0  0  0  0  0  0  0  0  0
    2.4490   -2.0657    6.3266 C   0  0  0  0  0  0  0  0  0  0  0  0
    3.3777   -1.1117    6.5947 F   0  0  0  0  0  0  0  0  0  0  0  0
    1.1565   -1.9310    6.8420 C   0  0  0  0  0  0  0  0  0  0  0  0
   -2.3052   -2.6536    6.2510 C   0  0  0  0  0  0  0  0  0  0  0  0
   -3.5874   -2.3128    6.6986 C   0  0  0  0  0  0  0  0  0  0  0  0
   -3.8352   -2.0945    8.0693 C   0  0  0  0  0  0  0  0  0  0  0  0
   -5.1758   -1.7116    8.5692 C   0  0  0  0  0  0  0  0  0  0  0  0
   -6.2839   -2.5433    8.3389 C   0  0  0  0  0  0  0  0  0  0  0  0
   -7.5605   -2.1475    8.7477 C   0  0  0  0  0  0  0  0  0  0  0  0
   -7.7391   -0.9183    9.3943 C   0  0  0  0  0  0  0  0  0  0  0  0
   -9.3898   -0.4020    9.8883 S   0  0  0  0  0  0  0  0  0  0  0  0
   -9.6902    0.6243    8.4049 C   0  0  0  0  0  0  0  0  0  0  0  0
  -10.2426   -0.2123    7.2606 C   0  0  0  0  0  0  0  0  0  0  0  0
   -6.6340   -0.1009    9.6564 C   0  0  0  0  0  0  0  0  0  0  0  0
   -5.3595   -0.4922    9.2409 C   0  0  0  0  0  0  0  0  0  0  0  0
   -6.7963    1.0901   10.2885 F   0  0  0  0  0  0  0  0  0  0  0  0
   -2.7397   -2.2323    8.9401 C   0  0  0  0  0  0  0  0  0  0  0  0
   -2.7132   -2.0775   10.6151 S   0  0  0  0  0  0  0  0  0  0  0  0
   -4.5116   -2.1529    5.6539 C   0  0  0  0  0  0  0  0  0  0  0  0
   -3.9637   -2.4081    4.3998 C   0  0  0  0  0  0  0  0  0  0  0  0
   -2.3295   -2.7908    4.5719 S   0  0  0  0  0  0  0  0  0  0  0  0
   -4.6403   -2.1937    3.1168 C   0  0  0  0  0  0  0  0  0  0  0  0
   -5.5428   -1.1633    2.8540 C   0  0  0  0  0  0  0  0  0  0  0  0
   -5.8380   -1.0315    1.4880 C   0  0  0  0  0  0  0  0  0  0  0  0
   -6.5528    0.0299    0.8877 C   0  0  0  0  0  0  0  0  0  0  0  0
   -7.0687    1.1689    1.6762 C   0  0  0  0  0  0  0  0  0  0  0  0
   -6.1853    1.9777    2.4110 C   0  0  0  0  0  0  0  0  0  0  0  0
   -6.6739    3.0327    3.1827 C   0  0  0  0  0  0  0  0  0  0  0  0
   -8.0497    3.2872    3.2353 C   0  0  0  0  0  0  0  0  0  0  0  0
   -8.6676    4.6428    4.2395 S   0  0  0  0  0  0  0  0  0  0  0  0
   -8.8578    3.6589    5.7680 C   0  0  0  0  0  0  0  0  0  0  0  0
   -7.5478    3.6031    6.5463 C   0  0  0  0  0  0  0  0  0  0  0  0
   -8.9325    2.5038    2.4791 C   0  0  0  0  0  0  0  0  0  0  0  0
  -10.2646    2.7576    2.5033 F   0  0  0  0  0  0  0  0  0  0  0  0
   -8.4421    1.4492    1.6999 C   0  0  0  0  0  0  0  0  0  0  0  0
   -6.5948    0.0458   -0.5211 C   0  0  0  0  0  0  0  0  0  0  0  0
   -5.9937   -0.9431   -1.3028 C   0  0  0  0  0  0  0  0  0  0  0  0
   -5.3021   -2.0114   -0.6998 C   0  0  0  0  0  0  0  0  0  0  0  0
   -4.5491   -2.9986   -1.4980 C   0  0  0  0  0  0  0  0  0  0  0  0
   -5.0649   -4.2874   -1.6895 C   0  0  0  0  0  0  0  0  0  0  0  0
   -4.3490   -5.2211   -2.4438 C   0  0  0  0  0  0  0  0  0  0  0  0
   -3.1117   -4.8786   -3.0009 C   0  0  0  0  0  0  0  0  0  0  0  0
   -2.1943   -6.1022   -3.9483 S   0  0  0  0  0  0  0  0  0  0  0  0
   -1.3664   -6.8431   -2.4970 C   0  0  0  0  0  0  0  0  0  0  0  0
   -0.0867   -6.0898   -2.1542 C   0  0  0  0  0  0  0  0  0  0  0  0
   -2.6037   -3.5840   -2.8272 C   0  0  0  0  0  0  0  0  0  0  0  0
   -3.3192   -2.6471   -2.0736 C   0  0  0  0  0  0  0  0  0  0  0  0
   -1.4195   -3.2303   -3.3829 F   0  0  0  0  0  0  0  0  0  0  0  0
   -5.2210   -2.0086    0.7004 C   0  0  0  0  0  0  0  0  0  0  0  0
   -4.2495   -2.9791    1.6742 S   0  0  0  0  0  0  0  0  0  0  0  0
   -5.9739   -0.6401   -2.6694 C   0  0  0  0  0  0  0  0  0  0  0  0
   -6.4636    0.6352   -2.9671 C   0  0  0  0  0  0  0  0  0  0  0  0
   -7.0278    1.3244   -1.5257 S   0  0  0  0  0  0  0  0  0  0  0  0
   -5.9817    1.4362   -4.1137 C   0  0  0  0  0  0  0  0  0  0  0  0
   -4.9739    0.9912   -4.9763 C   0  0  0  0  0  0  0  0  0  0  0  0
   -4.1561    2.0216   -5.4653 C   0  0  0  0  0  0  0  0  0  0  0  0
   -2.8829    1.8269   -6.0449 C   0  0  0  0  0  0  0  0  0  0  0  0
   -2.3707    0.4644   -6.3417 C   0  0  0  0  0  0  0  0  0  0  0  0
   -3.0205   -0.3363   -7.2941 C   0  0  0  0  0  0  0  0  0  0  0  0
   -2.5611   -1.6330   -7.5537 C   0  0  0  0  0  0  0  0  0  0  0  0
   -1.4502   -2.1373   -6.8683 C   0  0  0  0  0  0  0  0  0  0  0  0
   -0.8986   -3.8201   -7.1754 S   0  0  0  0  0  0  0  0  0  0  0  0
    0.2226   -3.3867   -8.5516 C   0  0  0  0  0  0  0  0  0  0  0  0
    1.5903   -2.9599   -8.0349 C   0  0  0  0  0  0  0  0  0  0  0  0
   -0.8081   -1.3494   -5.9060 C   0  0  0  0  0  0  0  0  0  0  0  0
    0.2636   -1.8301   -5.2260 F   0  0  0  0  0  0  0  0  0  0  0  0
   -1.2745   -0.0574   -5.6378 C   0  0  0  0  0  0  0  0  0  0  0  0
   -2.0437    2.9565   -6.1041 C   0  0  0  0  0  0  0  0  0  0  0  0
   -2.4535    4.2275   -5.6826 C   0  0  0  0  0  0  0  0  0  0  0  0
   -3.7615    4.4347   -5.1961 C   0  0  0  0  0  0  0  0  0  0  0  0
   -4.1675    5.7409   -4.6335 C   0  0  0  0  0  0  0  0  0  0  0  0
   -4.2969    5.9044   -3.2457 C   0  0  0  0  0  0  0  0  0  0  0  0
   -4.6532    7.1473   -2.7155 C   0  0  0  0  0  0  0  0  0  0  0  0
   -4.8860    8.2345   -3.5655 C   0  0  0  0  0  0  0  0  0  0  0  0
   -5.3608    9.8256   -2.8776 S   0  0  0  0  0  0  0  0  0  0  0  0
   -7.1613    9.5200   -2.9761 C   0  0  0  0  0  0  0  0  0  0  0  0
   -7.6590    8.8070   -1.7248 C   0  0  0  0  0  0  0  0  0  0  0  0
   -4.7275    8.0827   -4.9504 C   0  0  0  0  0  0  0  0  0  0  0  0
   -4.3669    6.8401   -5.4810 C   0  0  0  0  0  0  0  0  0  0  0  0
   -4.9249    9.1354   -5.7836 F   0  0  0  0  0  0  0  0  0  0  0  0
   -4.5744    3.2939   -5.0648 C   0  0  0  0  0  0  0  0  0  0  0  0
   -5.9332    3.1244   -4.0847 S   0  0  0  0  0  0  0  0  0  0  0  0
   -1.3885    5.1348   -5.5436 C   0  0  0  0  0  0  0  0  0  0  0  0
   -0.1441    4.5501   -5.7683 C   0  0  0  0  0  0  0  0  0  0  0  0
   -0.3767    2.9656   -6.2900 S   0  0  0  0  0  0  0  0  0  0  0  0
    1.1284    4.9612   -5.1529 C   0  0  0  0  0  0  0  0  0  0  0  0
    2.6112    4.4411   -5.7492 S   0  0  0  0  0  0  0  0  0  0  0  0
    3.5243    4.6754   -4.3620 C   0  0  0  0  0  0  0  0  0  0  0  0
    2.6718    5.1947   -3.3826 C   0  0  0  0  0  0  0  0  0  0  0  0
    1.3327    5.3166   -3.8039 C   0  0  0  0  0  0  0  0  0  0  0  0
    0.3359    5.6224   -2.8612 C   0  0  0  0  0  0  0  0  0  0  0  0
    0.6903    5.8884   -1.5252 C   0  0  0  0  0  0  0  0  0  0  0  0
   -0.3873    6.1580   -0.5090 C   0  0  0  0  0  0  0  0  0  0  0  0
    2.0434    5.8382   -1.1245 C   0  0  0  0  0  0  0  0  0  0  0  0
    2.3614    6.1053    0.2185 O   0  0  0  0  0  0  0  0  0  0  0  0
    3.6758    6.0362    0.7676 C   0  0  0  0  0  0  0  0  0  0  0  0
    3.0374    5.5099   -2.0696 C   0  0  0  0  0  0  0  0  0  0  0  0
    4.8191    3.9911   -4.1837 C   0  0  0  0  0  0  0  0  0  0  0  0
    5.0941    3.2609   -3.0994 C   0  0  0  0  0  0  0  0  0  0  0  0
    6.1957    2.2954   -3.0957 C   0  0  0  0  0  0  0  0  0  0  0  0
    7.4862    2.3143   -2.0195 S   0  0  0  0  0  0  0  0  0  0  0  0
    8.1842    0.8654   -2.5275 C   0  0  0  0  0  0  0  0  0  0  0  0
    7.4067    0.3508   -3.5727 C   0  0  0  0  0  0  0  0  0  0  0  0
    6.2784    1.1346   -3.8623 C   0  0  0  0  0  0  0  0  0  0  0  0
    5.3343    0.7034   -4.7972 C   0  0  0  0  0  0  0  0  0  0  0  0
    5.5335   -0.5144   -5.4744 C   0  0  0  0  0  0  0  0  0  0  0  0
    4.4802   -1.0166   -6.4244 C   0  0  0  0  0  0  0  0  0  0  0  0
    6.6894   -1.2906   -5.2151 C   0  0  0  0  0  0  0  0  0  0  0  0
    6.8527   -2.5000   -5.9065 O   0  0  0  0  0  0  0  0  0  0  0  0
    7.9385   -3.3986   -5.7123 C   0  0  0  0  0  0  0  0  0  0  0  0
    7.6383   -0.8422   -4.2668 C   0  0  0  0  0  0  0  0  0  0  0  0
    9.4312    0.3237   -1.9667 C   0  0  0  0  0  0  0  0  0  0  0  0
    9.5638   -0.8583   -1.3442 C   0  0  0  0  0  0  0  0  0  0  0  0
    8.4922   -1.8359   -1.0468 C   0  0  0  0  0  0  0  0  0  0  0  0
    8.7375   -3.1474   -0.6372 C   0  0  0  0  0  0  0  0  0  0  0  0
    7.5673   -3.9032   -0.4593 C   0  0  0  0  0  0  0  0  0  0  0  0
    7.5063   -5.2564   -0.0800 C   0  0  0  0  0  0  0  0  0  0  0  0
    8.7288   -6.0379    0.2003 C   0  0  0  0  0  0  0  0  0  0  0  0
    9.4995   -5.7590    1.3403 C   0  0  0  0  0  0  0  0  0  0  0  0
   10.6891   -6.4503    1.5710 C   0  0  0  0  0  0  0  0  0  0  0  0
   11.1219   -7.4319    0.6683 C   0  0  0  0  0  0  0  0  0  0  0  0
   12.6850   -8.2815    0.9324 S   0  0  0  0  0  0  0  0  0  0  0  0
   11.9700   -9.6862    1.8577 C   0  0  0  0  0  0  0  0  0  0  0  0
   11.9298   -9.3843    3.3509 C   0  0  0  0  0  0  0  0  0  0  0  0
   10.3519   -7.7137   -0.4725 C   0  0  0  0  0  0  0  0  0  0  0  0
   10.7743   -8.6432   -1.3689 F   0  0  0  0  0  0  0  0  0  0  0  0
    9.1586   -7.0237   -0.7011 C   0  0  0  0  0  0  0  0  0  0  0  0
    6.2311   -5.8433   -0.0284 C   0  0  0  0  0  0  0  0  0  0  0  0
    5.0597   -5.1427   -0.3419 C   0  0  0  0  0  0  0  0  0  0  0  0
    5.1157   -3.7763   -0.7133 C   0  0  0  0  0  0  0  0  0  0  0  0
    3.9079   -3.0023   -1.1032 C   0  0  0  0  0  0  0  0  0  0  0  0
    3.8675   -2.3125   -2.3289 C   0  0  0  0  0  0  0  0  0  0  0  0
    2.7404   -1.5642   -2.6844 C   0  0  0  0  0  0  0  0  0  0  0  0
    1.6380   -1.5006   -1.8232 C   0  0  0  0  0  0  0  0  0  0  0  0
    0.1775   -0.5638   -2.2902 S   0  0  0  0  0  0  0  0  0  0  0  0
    0.6794    0.9882   -1.4662 C   0  0  0  0  0  0  0  0  0  0  0  0
    1.5243    1.8478   -2.3953 C   0  0  0  0  0  0  0  0  0  0  0  0
    1.6590   -2.2068   -0.6131 C   0  0  0  0  0  0  0  0  0  0  0  0
    2.7894   -2.9458   -0.2545 C   0  0  0  0  0  0  0  0  0  0  0  0
    0.5866   -2.1759    0.2204 F   0  0  0  0  0  0  0  0  0  0  0  0
    6.3958   -3.1877   -0.7398 C   0  0  0  0  0  0  0  0  0  0  0  0
    6.8168   -1.6073   -1.1317 S   0  0  0  0  0  0  0  0  0  0  0  0
    3.9108   -5.9508   -0.2829 C   0  0  0  0  0  0  0  0  0  0  0  0
    4.1798   -7.2573    0.1108 C   0  0  0  0  0  0  0  0  0  0  0  0
    5.8389   -7.4327    0.3586 S   0  0  0  0  0  0  0  0  0  0  0  0
   -0.5284   -2.4333   11.7272 H   0  0  0  0  0  0  0  0  0  0  0  0
    0.5277   -2.8902    9.3961 H   0  0  0  0  0  0  0  0  0  0  0  0
   -0.2152   -4.8015    5.6163 H   0  0  0  0  0  0  0  0  0  0  0  0
    2.0630   -5.0349    4.7011 H   0  0  0  0  0  0  0  0  0  0  0  0
    2.9911   -2.9331    2.9346 H   0  0  0  0  0  0  0  0  0  0  0  0
    4.7254   -3.0728    2.4789 H   0  0  0  0  0  0  0  0  0  0  0  0
    3.9464   -0.7411    2.2254 H   0  0  0  0  0  0  0  0  0  0  0  0
    5.1923   -0.8483    3.5270 H   0  0  0  0  0  0  0  0  0  0  0  0
    3.4364   -0.6899    3.9485 H   0  0  0  0  0  0  0  0  0  0  0  0
    0.9103   -1.0559    7.4328 H   0  0  0  0  0  0  0  0  0  0  0  0
   -6.1586   -3.4938    7.8290 H   0  0  0  0  0  0  0  0  0  0  0  0
   -8.4083   -2.7926    8.5538 H   0  0  0  0  0  0  0  0  0  0  0  0
  -10.4324    1.4072    8.6682 H   0  0  0  0  0  0  0  0  0  0  0  0
   -8.7580    1.1310    8.0847 H   0  0  0  0  0  0  0  0  0  0  0  0
  -10.4653    0.4456    6.3956 H   0  0  0  0  0  0  0  0  0  0  0  0
  -11.1769   -0.7231    7.5755 H   0  0  0  0  0  0  0  0  0  0  0  0
   -9.4985   -0.9698    6.9419 H   0  0  0  0  0  0  0  0  0  0  0  0
   -4.5155    0.1643    9.4201 H   0  0  0  0  0  0  0  0  0  0  0  0
   -5.5370   -1.8359    5.7913 H   0  0  0  0  0  0  0  0  0  0  0  0
   -5.8957   -0.4817    3.6186 H   0  0  0  0  0  0  0  0  0  0  0  0
   -5.1184    1.7815    2.3902 H   0  0  0  0  0  0  0  0  0  0  0  0
   -5.9813    3.6450    3.7477 H   0  0  0  0  0  0  0  0  0  0  0  0
   -9.6238    4.1548    6.4000 H   0  0  0  0  0  0  0  0  0  0  0  0
   -9.2149    2.6314    5.5408 H   0  0  0  0  0  0  0  0  0  0  0  0
   -7.7319    3.1964    7.5629 H   0  0  0  0  0  0  0  0  0  0  0  0
   -6.8168    2.9493    6.0283 H   0  0  0  0  0  0  0  0  0  0  0  0
   -7.1178    4.6219    6.6526 H   0  0  0  0  0  0  0  0  0  0  0  0
   -9.1335    0.8418    1.1282 H   0  0  0  0  0  0  0  0  0  0  0  0
   -6.0198   -4.5635   -1.2588 H   0  0  0  0  0  0  0  0  0  0  0  0
   -4.7555   -6.2151   -2.5851 H   0  0  0  0  0  0  0  0  0  0  0  0
   -1.1069   -7.8924   -2.7466 H   0  0  0  0  0  0  0  0  0  0  0  0
   -2.0451   -6.8641   -1.6185 H   0  0  0  0  0  0  0  0  0  0  0  0
   -0.3206   -5.0530   -1.8382 H   0  0  0  0  0  0  0  0  0  0  0  0
    0.4311   -6.6011   -1.3167 H   0  0  0  0  0  0  0  0  0  0  0  0
    0.5918   -6.0653   -3.0343 H   0  0  0  0  0  0  0  0  0  0  0  0
   -2.9164   -1.6490   -1.9388 H   0  0  0  0  0  0  0  0  0  0  0  0
   -5.4717   -1.2694   -3.3923 H   0  0  0  0  0  0  0  0  0  0  0  0
   -4.7175   -0.0536   -5.0894 H   0  0  0  0  0  0  0  0  0  0  0  0
   -3.8796    0.0443   -7.8307 H   0  0  0  0  0  0  0  0  0  0  0  0
   -3.0719   -2.2408   -8.2901 H   0  0  0  0  0  0  0  0  0  0  0  0
    0.3474   -4.2905   -9.1845 H   0  0  0  0  0  0  0  0  0  0  0  0
   -0.2114   -2.5828   -9.1843 H   0  0  0  0  0  0  0  0  0  0  0  0
    2.0060   -3.7341   -7.3529 H   0  0  0  0  0  0  0  0  0  0  0  0
    2.2888   -2.8247   -8.8861 H   0  0  0  0  0  0  0  0  0  0  0  0
    1.5201   -1.9969   -7.4911 H   0  0  0  0  0  0  0  0  0  0  0  0
   -0.7826    0.5294   -4.8740 H   0  0  0  0  0  0  0  0  0  0  0  0
   -4.1161    5.0718   -2.5750 H   0  0  0  0  0  0  0  0  0  0  0  0
   -4.7475    7.2635   -1.6417 H   0  0  0  0  0  0  0  0  0  0  0  0
   -7.4185    8.9286   -3.8807 H   0  0  0  0  0  0  0  0  0  0  0  0
   -7.6765   10.5003   -3.0554 H   0  0  0  0  0  0  0  0  0  0  0  0
   -7.4313    9.4118   -0.8212 H   0  0  0  0  0  0  0  0  0  0  0  0
   -8.7573    8.6644   -1.7905 H   0  0  0  0  0  0  0  0  0  0  0  0
   -7.1819    7.8114   -1.6267 H   0  0  0  0  0  0  0  0  0  0  0  0
   -4.2501    6.7294   -6.5525 H   0  0  0  0  0  0  0  0  0  0  0  0
   -1.5015    6.1363   -5.1478 H   0  0  0  0  0  0  0  0  0  0  0  0
   -0.7081    5.6289   -3.1268 H   0  0  0  0  0  0  0  0  0  0  0  0
   -1.3555    6.4078   -0.9936 H   0  0  0  0  0  0  0  0  0  0  0  0
   -0.0983    7.0122    0.1402 H   0  0  0  0  0  0  0  0  0  0  0  0
   -0.5312    5.2539    0.1229 H   0  0  0  0  0  0  0  0  0  0  0  0
    3.6313    6.2984    1.8420 H   0  0  0  0  0  0  0  0  0  0  0  0
    4.3386    6.7633    0.2555 H   0  0  0  0  0  0  0  0  0  0  0  0
    4.0801    5.0052    0.6643 H   0  0  0  0  0  0  0  0  0  0  0  0
    4.0798    5.4798   -1.7758 H   0  0  0  0  0  0  0  0  0  0  0  0
    5.4376    3.8727   -5.0685 H   0  0  0  0  0  0  0  0  0  0  0  0
    4.4578    3.2811   -2.2278 H   0  0  0  0  0  0  0  0  0  0  0  0
    4.4401    1.2869   -4.9835 H   0  0  0  0  0  0  0  0  0  0  0  0
    3.7174   -0.2356   -6.6411 H   0  0  0  0  0  0  0  0  0  0  0  0
    3.9660   -1.8929   -5.9765 H   0  0  0  0  0  0  0  0  0  0  0  0
    4.9436   -1.3143   -7.3888 H   0  0  0  0  0  0  0  0  0  0  0  0
    7.8164   -4.2636   -6.3936 H   0  0  0  0  0  0  0  0  0  0  0  0
    7.9471   -3.7657   -4.6627 H   0  0  0  0  0  0  0  0  0  0  0  0
    8.9007   -2.8947   -5.9501 H   0  0  0  0  0  0  0  0  0  0  0  0
    8.5156   -1.4290   -4.0362 H   0  0  0  0  0  0  0  0  0  0  0  0
   10.3017    0.9649   -2.0215 H   0  0  0  0  0  0  0  0  0  0  0  0
   10.5602   -1.1281   -1.0149 H   0  0  0  0  0  0  0  0  0  0  0  0
    9.7356   -3.5428   -0.5010 H   0  0  0  0  0  0  0  0  0  0  0  0
    9.1811   -4.9971    2.0427 H   0  0  0  0  0  0  0  0  0  0  0  0
   11.2815   -6.2177    2.4472 H   0  0  0  0  0  0  0  0  0  0  0  0
   12.6182  -10.5766    1.6960 H   0  0  0  0  0  0  0  0  0  0  0  0
   10.9542   -9.9322    1.4861 H   0  0  0  0  0  0  0  0  0  0  0  0
   11.5237  -10.2613    3.8973 H   0  0  0  0  0  0  0  0  0  0  0  0
   12.9503   -9.1616    3.7264 H   0  0  0  0  0  0  0  0  0  0  0  0
   11.2730   -8.5121    3.5477 H   0  0  0  0  0  0  0  0  0  0  0  0
    8.5812   -7.2351   -1.5939 H   0  0  0  0  0  0  0  0  0  0  0  0
    4.7068   -2.3577   -3.0102 H   0  0  0  0  0  0  0  0  0  0  0  0
    2.7260   -1.0388   -3.6322 H   0  0  0  0  0  0  0  0  0  0  0  0
   -0.2428    1.5502   -1.2049 H   0  0  0  0  0  0  0  0  0  0  0  0
    1.2334    0.7822   -0.5253 H   0  0  0  0  0  0  0  0  0  0  0  0
    1.7586    2.8068   -1.8910 H   0  0  0  0  0  0  0  0  0  0  0  0
    0.9663    2.0676   -3.3304 H   0  0  0  0  0  0  0  0  0  0  0  0
    2.4769    1.3380   -2.6461 H   0  0  0  0  0  0  0  0  0  0  0  0
    2.7921   -3.4777    0.6861 H   0  0  0  0  0  0  0  0  0  0  0  0
    2.9149   -5.6192   -0.5358 H   0  0  0  0  0  0  0  0  0  0  0  0
    3.4450   -8.0438    0.2193 H   0  0  0  0  0  0  0  0  0  0  0  0
  1  2  2  0
  2  3  1  0
  3  4  2  0
  4  5  1  0
  5  6  2  0
  6  7  1  0
  7  8  2  0
  8  9  1  0
  9 10  1  0
 10 11  1  0
  8 12  1  0
 12 13  1  0
 12 14  2  0
  4 15  1  0
 15 16  2  0
 16 17  1  0
 17 18  1  0
 18 19  2  0
 19 20  1  0
 20 21  2  0
 21 22  1  0
 22 23  1  0
 23 24  1  0
 21 25  1  0
 25 26  2  0
 25 27  1  0
 17 28  2  0
 28 29  1  0
 16 30  1  0
 30 31  2  0
 31 32  1  0
 31 33  1  0
 33 34  2  0
 34 35  1  0
 35 36  2  0
 36 37  1  0
 37 38  2  0
 38 39  1  0
 39 40  2  0
 40 41  1  0
 41 42  1  0
 42 43  1  0
 40 44  1  0
 44 45  1  0
 44 46  2  0
 36 47  1  0
 47 48  2  0
 48 49  1  0
 49 50  1  0
 50 51  2  0
 51 52  1  0
 52 53  2  0
 53 54  1  0
 54 55  1  0
 55 56  1  0
 53 57  1  0
 57 58  2  0
 57 59  1  0
 49 60  2  0
 60 61  1  0
 48 62  1  0
 62 63  2  0
 63 64  1  0
 63 65  1  0
 65 66  2  0
 66 67  1  0
 67 68  2  0
 68 69  1  0
 69 70  2  0
 70 71  1  0
 71 72  2  0
 72 73  1  0
 73 74  1  0
 74 75  1  0
 72 76  1  0
 76 77  1  0
 76 78  2  0
 68 79  1  0
 79 80  2  0
 80 81  1  0
 81 82  1  0
 82 83  2  0
 83 84  1  0
 84 85  2  0
 85 86  1  0
 86 87  1  0
 87 88  1  0
 85 89  1  0
 89 90  2  0
 89 91  1  0
 81 92  2  0
 92 93  1  0
 80 94  1  0
 94 95  2  0
 95 96  1  0
 95 97  1  0
 97 98  1  0
 98 99  1  0
 99100  2  0
100101  1  0
101102  1  0
102103  2  0
103104  1  0
103105  1  0
105106  1  0
106107  1  0
105108  2  0
 99109  1  0
109110  2  3
110111  1  0
111112  1  0
112113  1  0
113114  2  0
114115  1  0
115116  1  0
116117  2  0
117118  1  0
117119  1  0
119120  1  0
120121  1  0
119122  2  0
113123  1  0
123124  2  3
124125  1  0
125126  2  0
126127  1  0
127128  2  0
128129  1  0
129130  2  0
130131  1  0
131132  2  0
132133  1  0
133134  1  0
134135  1  0
132136  1  0
136137  1  0
136138  2  0
128139  1  0
139140  2  0
140141  1  0
141142  1  0
142143  2  0
143144  1  0
144145  2  0
145146  1  0
146147  1  0
147148  1  0
145149  1  0
149150  2  0
149151  1  0
141152  2  0
152153  1  0
140154  1  0
154155  2  0
155156  1  0
 29  1  1  0
 61 33  1  0
 93 65  1  0
101 97  2  0
115111  2  0
153125  1  0
 28  3  1  0
 60 35  1  0
 92 67  1  0
108100  1  0
122114  1  0
152127  1  0
 14  5  1  0
 32 15  1  0
 46 37  1  0
 64 47  1  0
 78 69  1  0
 96 79  1  0
138129  1  0
156139  1  0
 26 18  1  0
 58 50  1  0
 90 82  1  0
150142  1  0
  1157  1  0
  2158  1  0
  6159  1  0
  7160  1  0
 10161  1  0
 10162  1  0
 11163  1  0
 11164  1  0
 11165  1  0
 14166  1  0
 19167  1  0
 20168  1  0
 23169  1  0
 23170  1  0
 24171  1  0
 24172  1  0
 24173  1  0
 26174  1  0
 30175  1  0
 34176  1  0
 38177  1  0
 39178  1  0
 42179  1  0
 42180  1  0
 43181  1  0
 43182  1  0
 43183  1  0
 46184  1  0
 51185  1  0
 52186  1  0
 55187  1  0
 55188  1  0
 56189  1  0
 56190  1  0
 56191  1  0
 58192  1  0
 62193  1  0
 66194  1  0
 70195  1  0
 71196  1  0
 74197  1  0
 74198  1  0
 75199  1  0
 75200  1  0
 75201  1  0
 78202  1  0
 83203  1  0
 84204  1  0
 87205  1  0
 87206  1  0
 88207  1  0
 88208  1  0
 88209  1  0
 90210  1  0
 94211  1  0
102212  1  0
104213  1  0
104214  1  0
104215  1  0
107216  1  0
107217  1  0
107218  1  0
108219  1  0
109220  1  0
110221  1  0
116222  1  0
118223  1  0
118224  1  0
118225  1  0
121226  1  0
121227  1  0
121228  1  0
122229  1  0
123230  1  0
124231  1  0
126232  1  0
130233  1  0
131234  1  0
134235  1  0
134236  1  0
135237  1  0
135238  1  0
135239  1  0
138240  1  0
143241  1  0
144242  1  0
147243  1  0
147244  1  0
148245  1  0
148246  1  0
148247  1  0
150248  1  0
154249  1  0
155250  1  0
M  END

