
     RDKit          3D

250273  0  0  0  0  0  0  0  0999 V2000
    6.2296  -12.3119    2.9044 C   0  0  0  0  0  0  0  0  0  0  0  0
    4.8882  -12.3849    1.8923 S   0  0  0  0  0  0  0  0  0  0  0  0
    5.3122  -11.1096    0.8695 C   0  0  0  0  0  0  0  0  0  0  0  0
    6.5382  -10.6087    1.3152 C   0  0  0  0  0  0  0  0  0  0  0  0
    7.0361  -11.2779    2.4472 C   0  0  0  0  0  0  0  0  0  0  0  0
    8.2472  -10.8997    3.0277 C   0  0  0  0  0  0  0  0  0  0  0  0
    8.9801   -9.8371    2.4660 C   0  0  0  0  0  0  0  0  0  0  0  0
   10.2871   -9.4213    3.0819 C   0  0  0  0  0  0  0  0  0  0  0  0
    8.5000   -9.1717    1.3124 C   0  0  0  0  0  0  0  0  0  0  0  0
    9.2739   -8.1346    0.7641 O   0  0  0  0  0  0  0  0  0  0  0  0
    8.9309   -7.3958   -0.4044 C   0  0  0  0  0  0  0  0  0  0  0  0
    7.2699   -9.5627    0.7383 C   0  0  0  0  0  0  0  0  0  0  0  0
    4.5117  -10.6055   -0.2650 C   0  0  0  0  0  0  0  0  0  0  0  0
    3.4630  -11.2771   -0.7508 C   0  0  0  0  0  0  0  0  0  0  0  0
    2.6543  -10.7851   -1.8816 C   0  0  0  0  0  0  0  0  0  0  0  0
    0.9850  -10.9782   -1.9627 S   0  0  0  0  0  0  0  0  0  0  0  0
    0.7513  -10.2074   -3.4369 C   0  0  0  0  0  0  0  0  0  0  0  0
    2.0063   -9.8291   -3.9256 C   0  0  0  0  0  0  0  0  0  0  0  0
    3.0697  -10.1453   -3.0585 C   0  0  0  0  0  0  0  0  0  0  0  0
    4.3907   -9.8769   -3.4407 C   0  0  0  0  0  0  0  0  0  0  0  0
    4.6442   -9.2202   -4.6589 C   0  0  0  0  0  0  0  0  0  0  0  0
    6.0622   -8.9078   -5.0550 C   0  0  0  0  0  0  0  0  0  0  0  0
    3.5757   -8.8927   -5.5251 C   0  0  0  0  0  0  0  0  0  0  0  0
    3.8637   -8.2444   -6.7383 O   0  0  0  0  0  0  0  0  0  0  0  0
    2.8825   -7.7947   -7.6671 C   0  0  0  0  0  0  0  0  0  0  0  0
    2.2540   -9.2239   -5.1611 C   0  0  0  0  0  0  0  0  0  0  0  0
   -0.5704  -10.0341   -4.0677 C   0  0  0  0  0  0  0  0  0  0  0  0
   -1.0739   -8.8756   -4.5253 C   0  0  0  0  0  0  0  0  0  0  0  0
   -0.4537   -7.5393   -4.3948 C   0  0  0  0  0  0  0  0  0  0  0  0
    0.4777   -7.1149   -3.4456 C   0  0  0  0  0  0  0  0  0  0  0  0
    0.8675   -5.7790   -3.6148 C   0  0  0  0  0  0  0  0  0  0  0  0
    1.8401   -5.1045   -2.8575 C   0  0  0  0  0  0  0  0  0  0  0  0
    2.5295   -5.7458   -1.7236 C   0  0  0  0  0  0  0  0  0  0  0  0
    3.8894   -6.0713   -1.8109 C   0  0  0  0  0  0  0  0  0  0  0  0
    4.5452   -6.6389   -0.7152 C   0  0  0  0  0  0  0  0  0  0  0  0
    3.8505   -6.8702    0.4787 C   0  0  0  0  0  0  0  0  0  0  0  0
    4.7050   -7.5629    1.8975 S   0  0  0  0  0  0  0  0  0  0  0  0
    5.1534   -5.9500    2.6322 C   0  0  0  0  0  0  0  0  0  0  0  0
    6.4755   -5.4458    2.0696 C   0  0  0  0  0  0  0  0  0  0  0  0
    2.4831   -6.5703    0.5592 C   0  0  0  0  0  0  0  0  0  0  0  0
    1.7938   -6.8098    1.7033 F   0  0  0  0  0  0  0  0  0  0  0  0
    1.8259   -6.0086   -0.5381 C   0  0  0  0  0  0  0  0  0  0  0  0
    2.0739   -3.7598   -3.1808 C   0  0  0  0  0  0  0  0  0  0  0  0
    1.3546   -3.0834   -4.1722 C   0  0  0  0  0  0  0  0  0  0  0  0
    0.3843   -3.7654   -4.9416 C   0  0  0  0  0  0  0  0  0  0  0  0
   -0.4424   -3.0695   -5.9510 C   0  0  0  0  0  0  0  0  0  0  0  0
    0.1571   -2.4130   -7.0368 C   0  0  0  0  0  0  0  0  0  0  0  0
   -0.6286   -1.7202   -7.9614 C   0  0  0  0  0  0  0  0  0  0  0  0
   -2.0204   -1.6725   -7.8078 C   0  0  0  0  0  0  0  0  0  0  0  0
   -3.0192   -0.7675   -8.9967 S   0  0  0  0  0  0  0  0  0  0  0  0
   -2.8516    0.8520   -8.1646 C   0  0  0  0  0  0  0  0  0  0  0  0
   -3.8246    0.9794   -6.9985 C   0  0  0  0  0  0  0  0  0  0  0  0
   -2.6262   -2.3491   -6.7400 C   0  0  0  0  0  0  0  0  0  0  0  0
   -1.8394   -3.0368   -5.8118 C   0  0  0  0  0  0  0  0  0  0  0  0
   -3.9765   -2.3380   -6.5949 F   0  0  0  0  0  0  0  0  0  0  0  0
    0.1869   -5.1277   -4.6465 C   0  0  0  0  0  0  0  0  0  0  0  0
   -0.8523   -6.2289   -5.3838 S   0  0  0  0  0  0  0  0  0  0  0  0
    1.6371   -1.7052   -4.2082 C   0  0  0  0  0  0  0  0  0  0  0  0
    2.5875   -1.3184   -3.2611 C   0  0  0  0  0  0  0  0  0  0  0  0
    3.0674   -2.6730   -2.3752 S   0  0  0  0  0  0  0  0  0  0  0  0
    2.9012    0.0661   -2.8760 C   0  0  0  0  0  0  0  0  0  0  0  0
    3.8058    0.4199   -1.8765 C   0  0  0  0  0  0  0  0  0  0  0  0
    3.6502    1.7447   -1.4382 C   0  0  0  0  0  0  0  0  0  0  0  0
    4.2792    2.3173   -0.3153 C   0  0  0  0  0  0  0  0  0  0  0  0
    5.2705    1.5628    0.4726 C   0  0  0  0  0  0  0  0  0  0  0  0
    4.8506    0.6910    1.4881 C   0  0  0  0  0  0  0  0  0  0  0  0
    5.7905   -0.0597    2.1974 C   0  0  0  0  0  0  0  0  0  0  0  0
    7.1548    0.0574    1.9004 C   0  0  0  0  0  0  0  0  0  0  0  0
    8.3554   -0.9402    2.7921 S   0  0  0  0  0  0  0  0  0  0  0  0
    8.7946    0.3641    3.9952 C   0  0  0  0  0  0  0  0  0  0  0  0
    7.7578    0.4606    5.1061 C   0  0  0  0  0  0  0  0  0  0  0  0
    7.5747    0.9299    0.8856 C   0  0  0  0  0  0  0  0  0  0  0  0
    8.8937    1.0509    0.5843 F   0  0  0  0  0  0  0  0  0  0  0  0
    6.6329    1.6823    0.1762 C   0  0  0  0  0  0  0  0  0  0  0  0
    3.7884    3.5555    0.1273 C   0  0  0  0  0  0  0  0  0  0  0  0
    2.7582    4.2339   -0.5326 C   0  0  0  0  0  0  0  0  0  0  0  0
    2.1830    3.6969   -1.7051 C   0  0  0  0  0  0  0  0  0  0  0  0
    1.0314    4.3362   -2.3670 C   0  0  0  0  0  0  0  0  0  0  0  0
    1.2449    5.2960   -3.3642 C   0  0  0  0  0  0  0  0  0  0  0  0
    0.1588    5.8978   -4.0034 C   0  0  0  0  0  0  0  0  0  0  0  0
   -1.1501    5.5489   -3.6460 C   0  0  0  0  0  0  0  0  0  0  0  0
   -2.5355    6.3435   -4.4672 S   0  0  0  0  0  0  0  0  0  0  0  0
   -2.5780    7.7446   -3.3000 C   0  0  0  0  0  0  0  0  0  0  0  0
   -3.5662    8.7960   -3.7820 C   0  0  0  0  0  0  0  0  0  0  0  0
   -1.3683    4.5838   -2.6523 C   0  0  0  0  0  0  0  0  0  0  0  0
   -0.2790    3.9793   -2.0138 C   0  0  0  0  0  0  0  0  0  0  0  0
   -2.6309    4.2243   -2.3097 F   0  0  0  0  0  0  0  0  0  0  0  0
    2.6425    2.4350   -2.1181 C   0  0  0  0  0  0  0  0  0  0  0  0
    1.9427    1.4073   -3.2516 S   0  0  0  0  0  0  0  0  0  0  0  0
    2.2324    5.3004    0.2156 C   0  0  0  0  0  0  0  0  0  0  0  0
    2.7888    5.4140    1.4934 C   0  0  0  0  0  0  0  0  0  0  0  0
    4.0093    4.2514    1.6396 S   0  0  0  0  0  0  0  0  0  0  0  0
    1.9427    5.7864    2.6344 C   0  0  0  0  0  0  0  0  0  0  0  0
    1.0268    6.8416    2.6117 C   0  0  0  0  0  0  0  0  0  0  0  0
   -0.1447    6.5815    3.3522 C   0  0  0  0  0  0  0  0  0  0  0  0
   -1.3177    7.3688    3.3439 C   0  0  0  0  0  0  0  0  0  0  0  0
   -1.3186    8.7490    2.8036 C   0  0  0  0  0  0  0  0  0  0  0  0
   -0.4324    9.6989    3.3325 C   0  0  0  0  0  0  0  0  0  0  0  0
   -0.4627   11.0224    2.8849 C   0  0  0  0  0  0  0  0  0  0  0  0
   -1.3919   11.4140    1.9131 C   0  0  0  0  0  0  0  0  0  0  0  0
   -1.4807   13.1344    1.4053 S   0  0  0  0  0  0  0  0  0  0  0  0
   -2.4399   13.6886    2.8629 C   0  0  0  0  0  0  0  0  0  0  0  0
   -3.9070   13.2931    2.7506 C   0  0  0  0  0  0  0  0  0  0  0  0
   -2.2463   10.4596    1.3439 C   0  0  0  0  0  0  0  0  0  0  0  0
   -3.1298   10.8154    0.3767 F   0  0  0  0  0  0  0  0  0  0  0  0
   -2.2028    9.1312    1.7807 C   0  0  0  0  0  0  0  0  0  0  0  0
   -2.4930    6.7508    3.8246 C   0  0  0  0  0  0  0  0  0  0  0  0
   -2.5050    5.4384    4.3155 C   0  0  0  0  0  0  0  0  0  0  0  0
   -1.3105    4.7045    4.4322 C   0  0  0  0  0  0  0  0  0  0  0  0
   -1.3165    3.2799    4.8291 C   0  0  0  0  0  0  0  0  0  0  0  0
   -1.6262    2.9140    6.1472 C   0  0  0  0  0  0  0  0  0  0  0  0
   -1.6488    1.5651    6.5132 C   0  0  0  0  0  0  0  0  0  0  0  0
   -1.3663    0.5732    5.5658 C   0  0  0  0  0  0  0  0  0  0  0  0
   -1.4147   -1.1577    6.0411 S   0  0  0  0  0  0  0  0  0  0  0  0
   -3.1686   -1.3482    5.5822 C   0  0  0  0  0  0  0  0  0  0  0  0
   -3.6326   -2.7670    5.8706 C   0  0  0  0  0  0  0  0  0  0  0  0
   -1.0507    0.9348    4.2497 C   0  0  0  0  0  0  0  0  0  0  0  0
   -1.0376    2.2827    3.8804 C   0  0  0  0  0  0  0  0  0  0  0  0
   -0.7657   -0.0145    3.3222 F   0  0  0  0  0  0  0  0  0  0  0  0
   -0.1454    5.3158    3.9448 C   0  0  0  0  0  0  0  0  0  0  0  0
    1.3179    4.5697    3.6178 S   0  0  0  0  0  0  0  0  0  0  0  0
   -3.7962    4.9121    4.4697 C   0  0  0  0  0  0  0  0  0  0  0  0
   -4.8012    5.8047    4.1082 C   0  0  0  0  0  0  0  0  0  0  0  0
   -4.0887    7.2600    3.6370 S   0  0  0  0  0  0  0  0  0  0  0  0
   -6.1175    5.3777    3.6252 C   0  0  0  0  0  0  0  0  0  0  0  0
   -7.2590    6.1715    3.5349 C   0  0  0  0  0  0  0  0  0  0  0  0
   -8.2555    5.5984    2.7227 C   0  0  0  0  0  0  0  0  0  0  0  0
   -9.5128    6.1555    2.4290 C   0  0  0  0  0  0  0  0  0  0  0  0
   -9.9903    7.3885    3.0736 C   0  0  0  0  0  0  0  0  0  0  0  0
  -10.7894    7.3073    4.2218 C   0  0  0  0  0  0  0  0  0  0  0  0
  -11.2767    8.4692    4.8224 C   0  0  0  0  0  0  0  0  0  0  0  0
  -10.9820    9.7220    4.2688 C   0  0  0  0  0  0  0  0  0  0  0  0
  -11.6343   11.2110    5.0370 S   0  0  0  0  0  0  0  0  0  0  0  0
  -13.2701   11.1154    4.2218 C   0  0  0  0  0  0  0  0  0  0  0  0
  -13.2019   11.6023    2.7795 C   0  0  0  0  0  0  0  0  0  0  0  0
  -10.1666    9.8082    3.1306 C   0  0  0  0  0  0  0  0  0  0  0  0
   -9.8574   11.0165    2.5950 F   0  0  0  0  0  0  0  0  0  0  0  0
   -9.6724    8.6423    2.5343 C   0  0  0  0  0  0  0  0  0  0  0  0
  -10.3186    5.4606    1.5129 C   0  0  0  0  0  0  0  0  0  0  0  0
   -9.9169    4.2678    0.9017 C   0  0  0  0  0  0  0  0  0  0  0  0
   -8.6665    3.6915    1.2121 C   0  0  0  0  0  0  0  0  0  0  0  0
   -8.1651    2.4790    0.5231 C   0  0  0  0  0  0  0  0  0  0  0  0
   -6.9856    2.5389   -0.2359 C   0  0  0  0  0  0  0  0  0  0  0  0
   -6.5240    1.4072   -0.9124 C   0  0  0  0  0  0  0  0  0  0  0  0
   -7.2465    0.2106   -0.8566 C   0  0  0  0  0  0  0  0  0  0  0  0
   -6.6702   -1.2230   -1.7738 S   0  0  0  0  0  0  0  0  0  0  0  0
   -7.6060   -0.8338   -3.2962 C   0  0  0  0  0  0  0  0  0  0  0  0
   -6.7793    0.0342   -4.2350 C   0  0  0  0  0  0  0  0  0  0  0  0
   -8.4175    0.1401   -0.0863 C   0  0  0  0  0  0  0  0  0  0  0  0
   -8.8717    1.2687    0.6029 C   0  0  0  0  0  0  0  0  0  0  0  0
   -9.1167   -1.0201   -0.0082 F   0  0  0  0  0  0  0  0  0  0  0  0
   -7.8694    4.3814    2.1450 C   0  0  0  0  0  0  0  0  0  0  0  0
   -6.3290    3.9910    2.6835 S   0  0  0  0  0  0  0  0  0  0  0  0
  -10.8525    3.7890   -0.0326 C   0  0  0  0  0  0  0  0  0  0  0  0
  -11.9856    4.5924   -0.1344 C   0  0  0  0  0  0  0  0  0  0  0  0
  -11.8277    5.9044    0.9166 S   0  0  0  0  0  0  0  0  0  0  0  0
    6.4261  -12.9516    3.7539 H   0  0  0  0  0  0  0  0  0  0  0  0
    8.6163  -11.4239    3.9034 H   0  0  0  0  0  0  0  0  0  0  0  0
   10.2470   -8.3468    3.3554 H   0  0  0  0  0  0  0  0  0  0  0  0
   11.1090   -9.5812    2.3543 H   0  0  0  0  0  0  0  0  0  0  0  0
   10.5106  -10.0053    3.9995 H   0  0  0  0  0  0  0  0  0  0  0  0
    9.7361   -6.6625   -0.6198 H   0  0  0  0  0  0  0  0  0  0  0  0
    8.8297   -8.0781   -1.2748 H   0  0  0  0  0  0  0  0  0  0  0  0
    7.9842   -6.8428   -0.2422 H   0  0  0  0  0  0  0  0  0  0  0  0
    6.8949   -9.0633   -0.1417 H   0  0  0  0  0  0  0  0  0  0  0  0
    4.7727   -9.6492   -0.6928 H   0  0  0  0  0  0  0  0  0  0  0  0
    3.1318  -12.1858   -0.2646 H   0  0  0  0  0  0  0  0  0  0  0  0
    5.2227  -10.1860   -2.8233 H   0  0  0  0  0  0  0  0  0  0  0  0
    6.1424   -7.8498   -5.3887 H   0  0  0  0  0  0  0  0  0  0  0  0
    6.7629   -9.0493   -4.2057 H   0  0  0  0  0  0  0  0  0  0  0  0
    6.3699   -9.5770   -5.8883 H   0  0  0  0  0  0  0  0  0  0  0  0
    2.2003   -7.0665   -7.1811 H   0  0  0  0  0  0  0  0  0  0  0  0
    2.3037   -8.6572   -8.0594 H   0  0  0  0  0  0  0  0  0  0  0  0
    3.3913   -7.2944   -8.5156 H   0  0  0  0  0  0  0  0  0  0  0  0
    1.4309   -9.0177   -5.8298 H   0  0  0  0  0  0  0  0  0  0  0  0
   -1.1932  -10.9164   -4.1418 H   0  0  0  0  0  0  0  0  0  0  0  0
   -2.0295   -8.9160   -5.0335 H   0  0  0  0  0  0  0  0  0  0  0  0
    0.8535   -7.7355   -2.6462 H   0  0  0  0  0  0  0  0  0  0  0  0
    4.4388   -5.8843   -2.7260 H   0  0  0  0  0  0  0  0  0  0  0  0
    5.5941   -6.8901   -0.7944 H   0  0  0  0  0  0  0  0  0  0  0  0
    5.2636   -6.0906    3.7281 H   0  0  0  0  0  0  0  0  0  0  0  0
    4.3554   -5.1977    2.4594 H   0  0  0  0  0  0  0  0  0  0  0  0
    6.7677   -4.5110    2.5907 H   0  0  0  0  0  0  0  0  0  0  0  0
    7.2719   -6.2056    2.2228 H   0  0  0  0  0  0  0  0  0  0  0  0
    6.3804   -5.2298    0.9861 H   0  0  0  0  0  0  0  0  0  0  0  0
    0.7737   -5.7636   -0.4639 H   0  0  0  0  0  0  0  0  0  0  0  0
    1.2330   -2.4311   -7.1604 H   0  0  0  0  0  0  0  0  0  0  0  0
   -0.1550   -1.2121   -8.7928 H   0  0  0  0  0  0  0  0  0  0  0  0
   -3.0804    1.6441   -8.9094 H   0  0  0  0  0  0  0  0  0  0  0  0
   -1.8099    1.0077   -7.8104 H   0  0  0  0  0  0  0  0  0  0  0  0
   -3.8019    2.0186   -6.6066 H   0  0  0  0  0  0  0  0  0  0  0  0
   -3.5396    0.2896   -6.1789 H   0  0  0  0  0  0  0  0  0  0  0  0
   -4.8591    0.7503   -7.3346 H   0  0  0  0  0  0  0  0  0  0  0  0
   -2.3175   -3.5299   -4.9762 H   0  0  0  0  0  0  0  0  0  0  0  0
    1.1229   -1.0007   -4.8497 H   0  0  0  0  0  0  0  0  0  0  0  0
    4.4769   -0.2898   -1.4096 H   0  0  0  0  0  0  0  0  0  0  0  0
    3.7983    0.5900    1.7189 H   0  0  0  0  0  0  0  0  0  0  0  0
    5.4578   -0.7392    2.9716 H   0  0  0  0  0  0  0  0  0  0  0  0
    9.7751    0.1015    4.4425 H   0  0  0  0  0  0  0  0  0  0  0  0
    8.9007    1.3473    3.4870 H   0  0  0  0  0  0  0  0  0  0  0  0
    8.1003    1.1945    5.8641 H   0  0  0  0  0  0  0  0  0  0  0  0
    7.6339   -0.5278    5.6006 H   0  0  0  0  0  0  0  0  0  0  0  0
    6.7827    0.7992    4.7021 H   0  0  0  0  0  0  0  0  0  0  0  0
    6.9642    2.3541   -0.6083 H   0  0  0  0  0  0  0  0  0  0  0  0
    2.2524    5.5766   -3.6457 H   0  0  0  0  0  0  0  0  0  0  0  0
    0.3329    6.6363   -4.7758 H   0  0  0  0  0  0  0  0  0  0  0  0
   -2.8879    7.3818   -2.2982 H   0  0  0  0  0  0  0  0  0  0  0  0
   -1.5700    8.2019   -3.2241 H   0  0  0  0  0  0  0  0  0  0  0  0
   -3.5390    9.6730   -3.1031 H   0  0  0  0  0  0  0  0  0  0  0  0
   -3.3013    9.1320   -4.8091 H   0  0  0  0  0  0  0  0  0  0  0  0
   -4.5951    8.3786   -3.7915 H   0  0  0  0  0  0  0  0  0  0  0  0
   -0.4533    3.2358   -1.2462 H   0  0  0  0  0  0  0  0  0  0  0  0
    1.3311    5.8250   -0.0728 H   0  0  0  0  0  0  0  0  0  0  0  0
    1.1255    7.6851    1.9374 H   0  0  0  0  0  0  0  0  0  0  0  0
    0.2674    9.4202    4.1115 H   0  0  0  0  0  0  0  0  0  0  0  0
    0.2169   11.7476    3.3137 H   0  0  0  0  0  0  0  0  0  0  0  0
   -2.3728   14.7962    2.9217 H   0  0  0  0  0  0  0  0  0  0  0  0
   -2.0059   13.2720    3.7967 H   0  0  0  0  0  0  0  0  0  0  0  0
   -4.0157   12.1884    2.7509 H   0  0  0  0  0  0  0  0  0  0  0  0
   -4.4629   13.6979    3.6210 H   0  0  0  0  0  0  0  0  0  0  0  0
   -4.3468   13.7114    1.8203 H   0  0  0  0  0  0  0  0  0  0  0  0
   -2.8647    8.4047    1.3272 H   0  0  0  0  0  0  0  0  0  0  0  0
   -1.8507    3.6707    6.8879 H   0  0  0  0  0  0  0  0  0  0  0  0
   -1.8894    1.2910    7.5336 H   0  0  0  0  0  0  0  0  0  0  0  0
   -3.7870   -0.6321    6.1668 H   0  0  0  0  0  0  0  0  0  0  0  0
   -3.2949   -1.1348    4.4993 H   0  0  0  0  0  0  0  0  0  0  0  0
   -4.7040   -2.8677    5.6001 H   0  0  0  0  0  0  0  0  0  0  0  0
   -3.5123   -2.9975    6.9503 H   0  0  0  0  0  0  0  0  0  0  0  0
   -3.0425   -3.4916    5.2723 H   0  0  0  0  0  0  0  0  0  0  0  0
   -0.8117    2.5499    2.8557 H   0  0  0  0  0  0  0  0  0  0  0  0
   -3.9941    3.8735    4.7008 H   0  0  0  0  0  0  0  0  0  0  0  0
   -7.3418    7.1466    3.9976 H   0  0  0  0  0  0  0  0  0  0  0  0
  -11.0373    6.3418    4.6465 H   0  0  0  0  0  0  0  0  0  0  0  0
  -11.8987    8.3959    5.7058 H   0  0  0  0  0  0  0  0  0  0  0  0
  -13.6637   10.0777    4.2554 H   0  0  0  0  0  0  0  0  0  0  0  0
  -13.9718   11.7676    4.7844 H   0  0  0  0  0  0  0  0  0  0  0  0
  -12.6120   10.9002    2.1571 H   0  0  0  0  0  0  0  0  0  0  0  0
  -12.7410   12.6124    2.7358 H   0  0  0  0  0  0  0  0  0  0  0  0
  -14.2268   11.6635    2.3612 H   0  0  0  0  0  0  0  0  0  0  0  0
   -9.0528    8.7153    1.6495 H   0  0  0  0  0  0  0  0  0  0  0  0
   -6.4294    3.4650   -0.3168 H   0  0  0  0  0  0  0  0  0  0  0  0
   -5.6101    1.4666   -1.4909 H   0  0  0  0  0  0  0  0  0  0  0  0
   -8.5677   -0.3276   -3.0608 H   0  0  0  0  0  0  0  0  0  0  0  0
   -7.8436   -1.7895   -3.8093 H   0  0  0  0  0  0  0  0  0  0  0  0
   -7.3574    0.2355   -5.1606 H   0  0  0  0  0  0  0  0  0  0  0  0
   -6.5254    0.9986   -3.7528 H   0  0  0  0  0  0  0  0  0  0  0  0
   -5.8421   -0.4921   -4.5107 H   0  0  0  0  0  0  0  0  0  0  0  0
   -9.7772    1.2031    1.1931 H   0  0  0  0  0  0  0  0  0  0  0  0
  -10.7183    2.8965   -0.6301 H   0  0  0  0  0  0  0  0  0  0  0  0
  -12.8241    4.4126   -0.7928 H   0  0  0  0  0  0  0  0  0  0  0  0
  1  2  1  0
  2  3  1  0
  3  4  2  0
  4  5  1  0
  5  6  1  0
  6  7  2  0
  7  8  1  0
  7  9  1  0
  9 10  1  0
 10 11  1  0
  9 12  2  0
  3 13  1  0
 13 14  2  3
 14 15  1  0
 15 16  1  0
 16 17  1  0
 17 18  2  0
 18 19  1  0
 19 20  1  0
 20 21  2  0
 21 22  1  0
 21 23  1  0
 23 24  1  0
 24 25  1  0
 23 26  2  0
 17 27  1  0
 27 28  2  3
 28 29  1  0
 29 30  2  0
 30 31  1  0
 31 32  2  0
 32 33  1  0
 33 34  2  0
 34 35  1  0
 35 36  2  0
 36 37  1  0
 37 38  1  0
 38 39  1  0
 36 40  1  0
 40 41  1  0
 40 42  2  0
 32 43  1  0
 43 44  2  0
 44 45  1  0
 45 46  1  0
 46 47  2  0
 47 48  1  0
 48 49  2  0
 49 50  1  0
 50 51  1  0
 51 52  1  0
 49 53  1  0
 53 54  2  0
 53 55  1  0
 45 56  2  0
 56 57  1  0
 44 58  1  0
 58 59  2  0
 59 60  1  0
 59 61  1  0
 61 62  2  0
 62 63  1  0
 63 64  2  0
 64 65  1  0
 65 66  2  0
 66 67  1  0
 67 68  2  0
 68 69  1  0
 69 70  1  0
 70 71  1  0
 68 72  1  0
 72 73  1  0
 72 74  2  0
 64 75  1  0
 75 76  2  0
 76 77  1  0
 77 78  1  0
 78 79  2  0
 79 80  1  0
 80 81  2  0
 81 82  1  0
 82 83  1  0
 83 84  1  0
 81 85  1  0
 85 86  2  0
 85 87  1  0
 77 88  2  0
 88 89  1  0
 76 90  1  0
 90 91  2  0
 91 92  1  0
 91 93  1  0
 93 94  2  0
 94 95  1  0
 95 96  2  0
 96 97  1  0
 97 98  2  0
 98 99  1  0
 99100  2  0
100101  1  0
101102  1  0
102103  1  0
100104  1  0
104105  1  0
104106  2  0
 96107  1  0
107108  2  0
108109  1  0
109110  1  0
110111  2  0
111112  1  0
112113  2  0
113114  1  0
114115  1  0
115116  1  0
113117  1  0
117118  2  0
117119  1  0
109120  2  0
120121  1  0
108122  1  0
122123  2  0
123124  1  0
123125  1  0
125126  2  0
126127  1  0
127128  2  0
128129  1  0
129130  2  0
130131  1  0
131132  2  0
132133  1  0
133134  1  0
134135  1  0
132136  1  0
136137  1  0
136138  2  0
128139  1  0
139140  2  0
140141  1  0
141142  1  0
142143  2  0
143144  1  0
144145  2  0
145146  1  0
146147  1  0
147148  1  0
145149  1  0
149150  2  0
149151  1  0
141152  2  0
152153  1  0
140154  1  0
154155  2  0
155156  1  0
  5  1  2  0
 19 15  2  0
 57 29  1  0
 89 61  1  0
121 93  1  0
153125  1  0
 12  4  1  0
 26 18  1  0
 56 31  1  0
 88 63  1  0
120 95  1  0
152127  1  0
 42 33  1  0
 60 43  1  0
 74 65  1  0
 92 75  1  0
106 97  1  0
124107  1  0
138129  1  0
156139  1  0
 54 46  1  0
 86 78  1  0
118110  1  0
150142  1  0
  1157  1  0
  6158  1  0
  8159  1  0
  8160  1  0
  8161  1  0
 11162  1  0
 11163  1  0
 11164  1  0
 12165  1  0
 13166  1  0
 14167  1  0
 20168  1  0
 22169  1  0
 22170  1  0
 22171  1  0
 25172  1  0
 25173  1  0
 25174  1  0
 26175  1  0
 27176  1  0
 28177  1  0
 30178  1  0
 34179  1  0
 35180  1  0
 38181  1  0
 38182  1  0
 39183  1  0
 39184  1  0
 39185  1  0
 42186  1  0
 47187  1  0
 48188  1  0
 51189  1  0
 51190  1  0
 52191  1  0
 52192  1  0
 52193  1  0
 54194  1  0
 58195  1  0
 62196  1  0
 66197  1  0
 67198  1  0
 70199  1  0
 70200  1  0
 71201  1  0
 71202  1  0
 71203  1  0
 74204  1  0
 79205  1  0
 80206  1  0
 83207  1  0
 83208  1  0
 84209  1  0
 84210  1  0
 84211  1  0
 86212  1  0
 90213  1  0
 94214  1  0
 98215  1  0
 99216  1  0
102217  1  0
102218  1  0
103219  1  0
103220  1  0
103221  1  0
106222  1  0
111223  1  0
112224  1  0
115225  1  0
115226  1  0
116227  1  0
116228  1  0
116229  1  0
118230  1  0
122231  1  0
126232  1  0
130233  1  0
131234  1  0
134235  1  0
134236  1  0
135237  1  0
135238  1  0
135239  1  0
138240  1  0
143241  1  0
144242  1  0
147243  1  0
147244  1  0
148245  1  0
148246  1  0
148247  1  0
150248  1  0
154249  1  0
155250  1  0
M  END

