
     RDKit          3D

224244  0  0  0  0  0  0  0  0999 V2000
    2.2852   -1.0355    6.7805 C   0  0  0  0  0  0  0  0  0  0  0  0
    1.5583    0.3308    7.4369 S   0  0  0  0  0  0  0  0  0  0  0  0
    1.9903    0.0853    9.0447 C   0  0  0  0  0  0  0  0  0  0  0  0
    2.7480   -1.0908    9.0869 C   0  0  0  0  0  0  0  0  0  0  0  0
    2.8804   -1.7158    7.8400 C   0  0  0  0  0  0  0  0  0  0  0  0
    3.5418   -2.9424    7.7263 C   0  0  0  0  0  0  0  0  0  0  0  0
    4.0178   -3.5850    8.8780 C   0  0  0  0  0  0  0  0  0  0  0  0
    4.5393   -4.9952    8.7580 C   0  0  0  0  0  0  0  0  0  0  0  0
    3.9376   -2.9262   10.1372 C   0  0  0  0  0  0  0  0  0  0  0  0
    4.4076   -3.5079   11.3226 O   0  0  0  0  0  0  0  0  0  0  0  0
    5.7689   -3.8380   11.5601 C   0  0  0  0  0  0  0  0  0  0  0  0
    3.2969   -1.6837   10.2290 C   0  0  0  0  0  0  0  0  0  0  0  0
    1.6209    0.9215   10.2204 C   0  0  0  0  0  0  0  0  0  0  0  0
    0.5195    1.6906   10.3421 C   0  0  0  0  0  0  0  0  0  0  0  0
   -0.4710    1.8902    9.2742 C   0  0  0  0  0  0  0  0  0  0  0  0
   -1.5600    1.0581    9.0194 C   0  0  0  0  0  0  0  0  0  0  0  0
   -2.2279    1.3874    7.8258 C   0  0  0  0  0  0  0  0  0  0  0  0
   -3.3037    0.6797    7.2325 C   0  0  0  0  0  0  0  0  0  0  0  0
   -3.8397   -0.5777    7.8020 C   0  0  0  0  0  0  0  0  0  0  0  0
   -5.1948   -0.6741    8.1545 C   0  0  0  0  0  0  0  0  0  0  0  0
   -5.7319   -1.8946    8.5572 C   0  0  0  0  0  0  0  0  0  0  0  0
   -4.9222   -3.0372    8.6161 C   0  0  0  0  0  0  0  0  0  0  0  0
   -5.6377   -4.6132    9.1100 S   0  0  0  0  0  0  0  0  0  0  0  0
   -6.3117   -5.0203    7.4562 C   0  0  0  0  0  0  0  0  0  0  0  0
   -5.2639   -5.7339    6.6111 C   0  0  0  0  0  0  0  0  0  0  0  0
   -3.5618   -2.9411    8.2914 C   0  0  0  0  0  0  0  0  0  0  0  0
   -2.7654   -4.0430    8.3571 F   0  0  0  0  0  0  0  0  0  0  0  0
   -3.0242   -1.7136    7.8866 C   0  0  0  0  0  0  0  0  0  0  0  0
   -3.7710    1.1609    5.9918 C   0  0  0  0  0  0  0  0  0  0  0  0
   -3.1522    2.2267    5.3200 C   0  0  0  0  0  0  0  0  0  0  0  0
   -2.0262    2.8779    5.8757 C   0  0  0  0  0  0  0  0  0  0  0  0
   -1.0846    3.6099    4.9943 C   0  0  0  0  0  0  0  0  0  0  0  0
   -1.4879    4.7169    4.2456 C   0  0  0  0  0  0  0  0  0  0  0  0
   -0.7330    5.1303    3.1370 C   0  0  0  0  0  0  0  0  0  0  0  0
    0.4495    4.4586    2.8048 C   0  0  0  0  0  0  0  0  0  0  0  0
    1.2423    4.7679    1.2231 S   0  0  0  0  0  0  0  0  0  0  0  0
    0.4724    3.2972    0.4610 C   0  0  0  0  0  0  0  0  0  0  0  0
    0.8249    3.1902   -1.0143 C   0  0  0  0  0  0  0  0  0  0  0  0
    0.9417    3.4641    3.6544 C   0  0  0  0  0  0  0  0  0  0  0  0
    0.1679    3.0273    4.7307 C   0  0  0  0  0  0  0  0  0  0  0  0
    2.0878    2.8059    3.3557 F   0  0  0  0  0  0  0  0  0  0  0  0
   -1.6433    2.4769    7.1660 C   0  0  0  0  0  0  0  0  0  0  0  0
   -0.3348    3.0610    8.0648 S   0  0  0  0  0  0  0  0  0  0  0  0
   -3.6763    2.4350    4.0402 C   0  0  0  0  0  0  0  0  0  0  0  0
   -4.6727    1.5355    3.6898 C   0  0  0  0  0  0  0  0  0  0  0  0
   -4.9108    0.4557    4.9650 S   0  0  0  0  0  0  0  0  0  0  0  0
   -5.1947    1.4216    2.3261 C   0  0  0  0  0  0  0  0  0  0  0  0
   -5.6302    0.2500    1.7060 C   0  0  0  0  0  0  0  0  0  0  0  0
   -5.6144    0.3424    0.2996 C   0  0  0  0  0  0  0  0  0  0  0  0
   -5.8051   -0.7166   -0.6143 C   0  0  0  0  0  0  0  0  0  0  0  0
   -6.2578   -2.0561   -0.1843 C   0  0  0  0  0  0  0  0  0  0  0  0
   -5.4384   -2.8701    0.6130 C   0  0  0  0  0  0  0  0  0  0  0  0
   -5.9135   -4.0941    1.0819 C   0  0  0  0  0  0  0  0  0  0  0  0
   -7.2074   -4.5235    0.7542 C   0  0  0  0  0  0  0  0  0  0  0  0
   -7.8443   -6.0616    1.4493 S   0  0  0  0  0  0  0  0  0  0  0  0
   -7.1566   -7.1411    0.1440 C   0  0  0  0  0  0  0  0  0  0  0  0
   -8.1159   -7.2414   -1.0321 C   0  0  0  0  0  0  0  0  0  0  0  0
   -8.0167   -3.7193   -0.0602 C   0  0  0  0  0  0  0  0  0  0  0  0
   -9.2725   -4.1128   -0.3841 F   0  0  0  0  0  0  0  0  0  0  0  0
   -7.5370   -2.4923   -0.5349 C   0  0  0  0  0  0  0  0  0  0  0  0
   -5.4788   -0.4601   -1.9646 C   0  0  0  0  0  0  0  0  0  0  0  0
   -5.0501    0.7934   -2.4034 C   0  0  0  0  0  0  0  0  0  0  0  0
   -4.9724    1.8764   -1.5138 C   0  0  0  0  0  0  0  0  0  0  0  0
   -4.4992    3.1995   -1.9598 C   0  0  0  0  0  0  0  0  0  0  0  0
   -3.1717    3.6005   -1.7332 C   0  0  0  0  0  0  0  0  0  0  0  0
   -2.7104    4.8235   -2.2369 C   0  0  0  0  0  0  0  0  0  0  0  0
   -3.5612    5.6441   -2.9817 C   0  0  0  0  0  0  0  0  0  0  0  0
   -2.9306    7.1698   -3.6829 S   0  0  0  0  0  0  0  0  0  0  0  0
   -2.6872    6.4867   -5.3595 C   0  0  0  0  0  0  0  0  0  0  0  0
   -1.4894    5.5478   -5.4081 C   0  0  0  0  0  0  0  0  0  0  0  0
   -4.8974    5.2699   -3.1708 C   0  0  0  0  0  0  0  0  0  0  0  0
   -5.3619    4.0445   -2.6760 C   0  0  0  0  0  0  0  0  0  0  0  0
   -5.7449    6.0743   -3.8612 F   0  0  0  0  0  0  0  0  0  0  0  0
   -5.2325    1.6065   -0.1648 C   0  0  0  0  0  0  0  0  0  0  0  0
   -4.8957    2.5870    1.1426 S   0  0  0  0  0  0  0  0  0  0  0  0
   -4.5690    0.7952   -3.7193 C   0  0  0  0  0  0  0  0  0  0  0  0
   -4.6073   -0.4595   -4.3138 C   0  0  0  0  0  0  0  0  0  0  0  0
   -5.2410   -1.5756   -3.2082 S   0  0  0  0  0  0  0  0  0  0  0  0
   -3.7007   -0.8200   -5.4054 C   0  0  0  0  0  0  0  0  0  0  0  0
   -2.0348   -0.6185   -5.3250 S   0  0  0  0  0  0  0  0  0  0  0  0
   -1.6790   -1.2252   -6.8565 C   0  0  0  0  0  0  0  0  0  0  0  0
   -2.8931   -1.5327   -7.4821 C   0  0  0  0  0  0  0  0  0  0  0  0
   -4.0208   -1.3230   -6.6605 C   0  0  0  0  0  0  0  0  0  0  0  0
   -5.3054   -1.5695   -7.1416 C   0  0  0  0  0  0  0  0  0  0  0  0
   -5.4760   -2.0240   -8.4635 C   0  0  0  0  0  0  0  0  0  0  0  0
   -6.8557   -2.2800   -8.9968 C   0  0  0  0  0  0  0  0  0  0  0  0
   -4.3465   -2.2560   -9.2861 C   0  0  0  0  0  0  0  0  0  0  0  0
   -4.5554   -2.7225  -10.5960 O   0  0  0  0  0  0  0  0  0  0  0  0
   -3.5166   -3.0131  -11.5245 C   0  0  0  0  0  0  0  0  0  0  0  0
   -3.0435   -2.0161   -8.7855 C   0  0  0  0  0  0  0  0  0  0  0  0
   -0.3288   -1.3017   -7.4582 C   0  0  0  0  0  0  0  0  0  0  0  0
    0.8071   -1.5175   -6.7777 C   0  0  0  0  0  0  0  0  0  0  0  0
    0.8846   -1.8865   -5.3514 C   0  0  0  0  0  0  0  0  0  0  0  0
    1.8820   -1.1283   -4.2279 S   0  0  0  0  0  0  0  0  0  0  0  0
    1.4590   -2.0499   -2.8810 C   0  0  0  0  0  0  0  0  0  0  0  0
    0.5282   -3.0114   -3.3134 C   0  0  0  0  0  0  0  0  0  0  0  0
    0.2237   -2.9298   -4.6891 C   0  0  0  0  0  0  0  0  0  0  0  0
   -0.6454   -3.8478   -5.2799 C   0  0  0  0  0  0  0  0  0  0  0  0
   -1.2612   -4.8324   -4.4847 C   0  0  0  0  0  0  0  0  0  0  0  0
   -2.2051   -5.8186   -5.1153 C   0  0  0  0  0  0  0  0  0  0  0  0
   -0.9608   -4.9224   -3.1043 C   0  0  0  0  0  0  0  0  0  0  0  0
   -1.5791   -5.9347   -2.3439 O   0  0  0  0  0  0  0  0  0  0  0  0
   -1.3841   -6.1285   -0.9457 C   0  0  0  0  0  0  0  0  0  0  0  0
   -0.0602   -4.0035   -2.5197 C   0  0  0  0  0  0  0  0  0  0  0  0
    1.9112   -1.8568   -1.4806 C   0  0  0  0  0  0  0  0  0  0  0  0
    3.0418   -1.2733   -1.0691 C   0  0  0  0  0  0  0  0  0  0  0  0
    4.0785   -0.7342   -1.9600 C   0  0  0  0  0  0  0  0  0  0  0  0
    4.0704    0.5327   -2.5385 C   0  0  0  0  0  0  0  0  0  0  0  0
    5.2315    0.7877   -3.2932 C   0  0  0  0  0  0  0  0  0  0  0  0
    5.5242    1.9634   -4.0234 C   0  0  0  0  0  0  0  0  0  0  0  0
    4.6371    3.1591   -4.0126 C   0  0  0  0  0  0  0  0  0  0  0  0
    5.1617    4.4130   -3.6535 C   0  0  0  0  0  0  0  0  0  0  0  0
    4.3657    5.5514   -3.6850 C   0  0  0  0  0  0  0  0  0  0  0  0
    3.0142    5.4617   -4.0225 C   0  0  0  0  0  0  0  0  0  0  0  0
    2.0279    6.9572   -4.1244 S   0  0  0  0  0  0  0  0  0  0  0  0
    1.5626    7.0168   -2.3606 C   0  0  0  0  0  0  0  0  0  0  0  0
    2.6104    7.7568   -1.5388 C   0  0  0  0  0  0  0  0  0  0  0  0
    2.4671    4.2086   -4.3464 C   0  0  0  0  0  0  0  0  0  0  0  0
    1.1597    4.0970   -4.6726 F   0  0  0  0  0  0  0  0  0  0  0  0
    3.2773    3.0683   -4.3582 C   0  0  0  0  0  0  0  0  0  0  0  0
    6.7594    1.9898   -4.7061 C   0  0  0  0  0  0  0  0  0  0  0  0
    7.6906    0.9530   -4.6227 C   0  0  0  0  0  0  0  0  0  0  0  0
    7.4251   -0.1871   -3.8413 C   0  0  0  0  0  0  0  0  0  0  0  0
    8.4589   -1.2163   -3.6035 C   0  0  0  0  0  0  0  0  0  0  0  0
    9.0810   -1.2971   -2.3464 C   0  0  0  0  0  0  0  0  0  0  0  0
   10.1661   -2.1592   -2.1545 C   0  0  0  0  0  0  0  0  0  0  0  0
   10.6322   -2.9492   -3.2087 C   0  0  0  0  0  0  0  0  0  0  0  0
   12.1057   -3.9626   -2.9748 S   0  0  0  0  0  0  0  0  0  0  0  0
   13.2341   -2.8545   -3.9070 C   0  0  0  0  0  0  0  0  0  0  0  0
   13.5243   -1.5550   -3.1554 C   0  0  0  0  0  0  0  0  0  0  0  0
    9.9730   -2.9206   -4.4438 C   0  0  0  0  0  0  0  0  0  0  0  0
    8.9011   -2.0463   -4.6450 C   0  0  0  0  0  0  0  0  0  0  0  0
   10.3957   -3.7008   -5.4683 F   0  0  0  0  0  0  0  0  0  0  0  0
    6.1786   -0.2496   -3.2104 C   0  0  0  0  0  0  0  0  0  0  0  0
    5.5507   -1.4928   -2.2607 S   0  0  0  0  0  0  0  0  0  0  0  0
    8.8774    1.2057   -5.3395 C   0  0  0  0  0  0  0  0  0  0  0  0
    8.8563    2.4178   -6.0170 C   0  0  0  0  0  0  0  0  0  0  0  0
    7.3888    3.1886   -5.7094 S   0  0  0  0  0  0  0  0  0  0  0  0
    2.2653   -1.3371    5.7491 H   0  0  0  0  0  0  0  0  0  0  0  0
    3.6042   -3.4255    6.7611 H   0  0  0  0  0  0  0  0  0  0  0  0
    4.1167   -5.5020    7.8637 H   0  0  0  0  0  0  0  0  0  0  0  0
    4.2221   -5.5898    9.6352 H   0  0  0  0  0  0  0  0  0  0  0  0
    5.6439   -4.9801    8.6734 H   0  0  0  0  0  0  0  0  0  0  0  0
    6.2835   -4.2565   10.6713 H   0  0  0  0  0  0  0  0  0  0  0  0
    6.3104   -2.9320   11.8950 H   0  0  0  0  0  0  0  0  0  0  0  0
    5.8275   -4.5835   12.3748 H   0  0  0  0  0  0  0  0  0  0  0  0
    3.2075   -1.2044   11.1990 H   0  0  0  0  0  0  0  0  0  0  0  0
    2.2873    0.8997   11.0587 H   0  0  0  0  0  0  0  0  0  0  0  0
    0.3329    2.1860   11.2865 H   0  0  0  0  0  0  0  0  0  0  0  0
   -1.8147    0.2101    9.6357 H   0  0  0  0  0  0  0  0  0  0  0  0
   -5.8349    0.1966    8.0895 H   0  0  0  0  0  0  0  0  0  0  0  0
   -6.7801   -1.9550    8.8137 H   0  0  0  0  0  0  0  0  0  0  0  0
   -6.6693   -4.1129    6.9337 H   0  0  0  0  0  0  0  0  0  0  0  0
   -7.1803   -5.6980    7.6013 H   0  0  0  0  0  0  0  0  0  0  0  0
   -4.9347   -6.6706    7.1147 H   0  0  0  0  0  0  0  0  0  0  0  0
   -4.3821   -5.0813    6.4306 H   0  0  0  0  0  0  0  0  0  0  0  0
   -5.7047   -6.0012    5.6210 H   0  0  0  0  0  0  0  0  0  0  0  0
   -1.9752   -1.6651    7.6105 H   0  0  0  0  0  0  0  0  0  0  0  0
   -2.4440    5.1976    4.4450 H   0  0  0  0  0  0  0  0  0  0  0  0
   -1.1120    5.9130    2.4944 H   0  0  0  0  0  0  0  0  0  0  0  0
   -0.6353    3.3494    0.5667 H   0  0  0  0  0  0  0  0  0  0  0  0
    0.8485    2.3850    0.9755 H   0  0  0  0  0  0  0  0  0  0  0  0
    1.9250    3.2497   -1.1555 H   0  0  0  0  0  0  0  0  0  0  0  0
    0.4624    2.2240   -1.4149 H   0  0  0  0  0  0  0  0  0  0  0  0
    0.3383    4.0075   -1.5776 H   0  0  0  0  0  0  0  0  0  0  0  0
    0.4967    2.1562    5.2974 H   0  0  0  0  0  0  0  0  0  0  0  0
   -3.2951    3.1701    3.3506 H   0  0  0  0  0  0  0  0  0  0  0  0
   -5.8352   -0.6612    2.2458 H   0  0  0  0  0  0  0  0  0  0  0  0
   -4.4376   -2.5476    0.8818 H   0  0  0  0  0  0  0  0  0  0  0  0
   -5.2822   -4.7093    1.7150 H   0  0  0  0  0  0  0  0  0  0  0  0
   -6.1693   -6.7720   -0.2018 H   0  0  0  0  0  0  0  0  0  0  0  0
   -7.0132   -8.1514    0.5763 H   0  0  0  0  0  0  0  0  0  0  0  0
   -8.1932   -6.2663   -1.5536 H   0  0  0  0  0  0  0  0  0  0  0  0
   -9.1231   -7.5571   -0.6937 H   0  0  0  0  0  0  0  0  0  0  0  0
   -7.7323   -7.9897   -1.7540 H   0  0  0  0  0  0  0  0  0  0  0  0
   -8.1751   -1.8737   -1.1503 H   0  0  0  0  0  0  0  0  0  0  0  0
   -2.4953    2.9505   -1.1928 H   0  0  0  0  0  0  0  0  0  0  0  0
   -1.6872    5.1180   -2.0588 H   0  0  0  0  0  0  0  0  0  0  0  0
   -2.5021    7.3324   -6.0515 H   0  0  0  0  0  0  0  0  0  0  0  0
   -3.5979    5.9522   -5.7037 H   0  0  0  0  0  0  0  0  0  0  0  0
   -1.2505    5.2942   -6.4616 H   0  0  0  0  0  0  0  0  0  0  0  0
   -0.6093    6.0361   -4.9486 H   0  0  0  0  0  0  0  0  0  0  0  0
   -1.7084    4.6046   -4.8671 H   0  0  0  0  0  0  0  0  0  0  0  0
   -6.3844    3.7521   -2.8610 H   0  0  0  0  0  0  0  0  0  0  0  0
   -4.0893    1.6492   -4.1829 H   0  0  0  0  0  0  0  0  0  0  0  0
   -6.1623   -1.3974   -6.5037 H   0  0  0  0  0  0  0  0  0  0  0  0
   -6.9683   -3.3557   -9.2328 H   0  0  0  0  0  0  0  0  0  0  0  0
   -7.6392   -1.9979   -8.2678 H   0  0  0  0  0  0  0  0  0  0  0  0
   -7.0155   -1.6869   -9.9213 H   0  0  0  0  0  0  0  0  0  0  0  0
   -2.8748   -3.8322  -11.1373 H   0  0  0  0  0  0  0  0  0  0  0  0
   -2.9090   -2.1069  -11.7145 H   0  0  0  0  0  0  0  0  0  0  0  0
   -3.9704   -3.3411  -12.4830 H   0  0  0  0  0  0  0  0  0  0  0  0
   -2.1748   -2.1949   -9.3987 H   0  0  0  0  0  0  0  0  0  0  0  0
   -0.2440   -1.1290   -8.5228 H   0  0  0  0  0  0  0  0  0  0  0  0
    1.7472   -1.4176   -7.3060 H   0  0  0  0  0  0  0  0  0  0  0  0
   -0.8475   -3.8094   -6.3417 H   0  0  0  0  0  0  0  0  0  0  0  0
   -1.7573   -6.8273   -5.1025 H   0  0  0  0  0  0  0  0  0  0  0  0
   -3.1636   -5.8278   -4.5477 H   0  0  0  0  0  0  0  0  0  0  0  0
   -2.4352   -5.5441   -6.1737 H   0  0  0  0  0  0  0  0  0  0  0  0
   -1.7219   -5.2299   -0.3887 H   0  0  0  0  0  0  0  0  0  0  0  0
   -1.9845   -6.9992   -0.6129 H   0  0  0  0  0  0  0  0  0  0  0  0
   -0.3190   -6.3364   -0.7350 H   0  0  0  0  0  0  0  0  0  0  0  0
    0.1889   -4.0877   -1.4731 H   0  0  0  0  0  0  0  0  0  0  0  0
    1.2810   -2.2744   -0.6978 H   0  0  0  0  0  0  0  0  0  0  0  0
    3.2637   -1.2695   -0.0051 H   0  0  0  0  0  0  0  0  0  0  0  0
    3.2490    1.2232   -2.4212 H   0  0  0  0  0  0  0  0  0  0  0  0
    6.2072    4.5114   -3.3696 H   0  0  0  0  0  0  0  0  0  0  0  0
    4.8054    6.5149   -3.4477 H   0  0  0  0  0  0  0  0  0  0  0  0
    1.4225    5.9946   -1.9526 H   0  0  0  0  0  0  0  0  0  0  0  0
    0.5954    7.5547   -2.2801 H   0  0  0  0  0  0  0  0  0  0  0  0
    3.5258    7.1429   -1.4258 H   0  0  0  0  0  0  0  0  0  0  0  0
    2.8827    8.7192   -2.0256 H   0  0  0  0  0  0  0  0  0  0  0  0
    2.2062    7.9745   -0.5299 H   0  0  0  0  0  0  0  0  0  0  0  0
    2.8512    2.1173   -4.6555 H   0  0  0  0  0  0  0  0  0  0  0  0
    8.7579   -0.6580   -1.5364 H   0  0  0  0  0  0  0  0  0  0  0  0
   10.6635   -2.1814   -1.1921 H   0  0  0  0  0  0  0  0  0  0  0  0
   14.1953   -3.3921   -4.0581 H   0  0  0  0  0  0  0  0  0  0  0  0
   12.8079   -2.6219   -4.9048 H   0  0  0  0  0  0  0  0  0  0  0  0
   12.5929   -0.9832   -2.9869 H   0  0  0  0  0  0  0  0  0  0  0  0
   14.0031   -1.7715   -2.1839 H   0  0  0  0  0  0  0  0  0  0  0  0
   14.2129   -0.9269   -3.7617 H   0  0  0  0  0  0  0  0  0  0  0  0
    8.4347   -1.9861   -5.6210 H   0  0  0  0  0  0  0  0  0  0  0  0
    9.7203    0.5356   -5.3839 H   0  0  0  0  0  0  0  0  0  0  0  0
    9.6524    2.8111   -6.6355 H   0  0  0  0  0  0  0  0  0  0  0  0
  1  2  1  0
  2  3  1  0
  3  4  2  0
  4  5  1  0
  5  6  1  0
  6  7  2  0
  7  8  1  0
  7  9  1  0
  9 10  1  0
 10 11  1  0
  9 12  2  0
  3 13  1  0
 13 14  2  3
 14 15  1  0
 15 16  2  0
 16 17  1  0
 17 18  2  0
 18 19  1  0
 19 20  2  0
 20 21  1  0
 21 22  2  0
 22 23  1  0
 23 24  1  0
 24 25  1  0
 22 26  1  0
 26 27  1  0
 26 28  2  0
 18 29  1  0
 29 30  2  0
 30 31  1  0
 31 32  1  0
 32 33  2  0
 33 34  1  0
 34 35  2  0
 35 36  1  0
 36 37  1  0
 37 38  1  0
 35 39  1  0
 39 40  2  0
 39 41  1  0
 31 42  2  0
 42 43  1  0
 30 44  1  0
 44 45  2  0
 45 46  1  0
 45 47  1  0
 47 48  2  0
 48 49  1  0
 49 50  2  0
 50 51  1  0
 51 52  2  0
 52 53  1  0
 53 54  2  0
 54 55  1  0
 55 56  1  0
 56 57  1  0
 54 58  1  0
 58 59  1  0
 58 60  2  0
 50 61  1  0
 61 62  2  0
 62 63  1  0
 63 64  1  0
 64 65  2  0
 65 66  1  0
 66 67  2  0
 67 68  1  0
 68 69  1  0
 69 70  1  0
 67 71  1  0
 71 72  2  0
 71 73  1  0
 63 74  2  0
 74 75  1  0
 62 76  1  0
 76 77  2  0
 77 78  1  0
 77 79  1  0
 79 80  1  0
 80 81  1  0
 81 82  2  0
 82 83  1  0
 83 84  1  0
 84 85  2  0
 85 86  1  0
 85 87  1  0
 87 88  1  0
 88 89  1  0
 87 90  2  0
 81 91  1  0
 91 92  2  3
 92 93  1  0
 93 94  1  0
 94 95  1  0
 95 96  2  0
 96 97  1  0
 97 98  1  0
 98 99  2  0
 99100  1  0
 99101  1  0
101102  1  0
102103  1  0
101104  2  0
 95105  1  0
105106  2  3
106107  1  0
107108  2  0
108109  1  0
109110  2  0
110111  1  0
111112  2  0
112113  1  0
113114  2  0
114115  1  0
115116  1  0
116117  1  0
114118  1  0
118119  1  0
118120  2  0
110121  1  0
121122  2  0
122123  1  0
123124  1  0
124125  2  0
125126  1  0
126127  2  0
127128  1  0
128129  1  0
129130  1  0
127131  1  0
131132  2  0
131133  1  0
123134  2  0
134135  1  0
122136  1  0
136137  2  0
137138  1  0
  5  1  2  0
 43 15  1  0
 75 47  1  0
 83 79  2  0
 97 93  2  0
135107  1  0
 12  4  1  0
 42 17  1  0
 74 49  1  0
 90 82  1  0
104 96  1  0
134109  1  0
 28 19  1  0
 46 29  1  0
 60 51  1  0
 78 61  1  0
120111  1  0
138121  1  0
 40 32  1  0
 72 64  1  0
132124  1  0
  1139  1  0
  6140  1  0
  8141  1  0
  8142  1  0
  8143  1  0
 11144  1  0
 11145  1  0
 11146  1  0
 12147  1  0
 13148  1  0
 14149  1  0
 16150  1  0
 20151  1  0
 21152  1  0
 24153  1  0
 24154  1  0
 25155  1  0
 25156  1  0
 25157  1  0
 28158  1  0
 33159  1  0
 34160  1  0
 37161  1  0
 37162  1  0
 38163  1  0
 38164  1  0
 38165  1  0
 40166  1  0
 44167  1  0
 48168  1  0
 52169  1  0
 53170  1  0
 56171  1  0
 56172  1  0
 57173  1  0
 57174  1  0
 57175  1  0
 60176  1  0
 65177  1  0
 66178  1  0
 69179  1  0
 69180  1  0
 70181  1  0
 70182  1  0
 70183  1  0
 72184  1  0
 76185  1  0
 84186  1  0
 86187  1  0
 86188  1  0
 86189  1  0
 89190  1  0
 89191  1  0
 89192  1  0
 90193  1  0
 91194  1  0
 92195  1  0
 98196  1  0
100197  1  0
100198  1  0
100199  1  0
103200  1  0
103201  1  0
103202  1  0
104203  1  0
105204  1  0
106205  1  0
108206  1  0
112207  1  0
113208  1  0
116209  1  0
116210  1  0
117211  1  0
117212  1  0
117213  1  0
120214  1  0
125215  1  0
126216  1  0
129217  1  0
129218  1  0
130219  1  0
130220  1  0
130221  1  0
132222  1  0
136223  1  0
137224  1  0
M  END

