
     RDKit          3D

142157  0  0  0  0  0  0  0  0999 V2000
   -4.8048    8.9451    4.8747 C   0  0  0  0  0  0  0  0  0  0  0  0
   -5.9257    7.8264    5.4326 S   0  0  0  0  0  0  0  0  0  0  0  0
   -4.8952    6.4959    5.5506 C   0  0  0  0  0  0  0  0  0  0  0  0
   -3.6241    6.9230    5.1190 C   0  0  0  0  0  0  0  0  0  0  0  0
   -3.5921    8.2846    4.7536 C   0  0  0  0  0  0  0  0  0  0  0  0
   -2.4238    8.8769    4.2765 C   0  0  0  0  0  0  0  0  0  0  0  0
   -1.2483    8.1154    4.1833 C   0  0  0  0  0  0  0  0  0  0  0  0
    0.0246    8.7555    3.7042 C   0  0  0  0  0  0  0  0  0  0  0  0
   -1.2539    6.7606    4.5862 C   0  0  0  0  0  0  0  0  0  0  0  0
   -0.0416    6.0520    4.5902 O   0  0  0  0  0  0  0  0  0  0  0  0
    0.1854    4.8635    5.3426 C   0  0  0  0  0  0  0  0  0  0  0  0
   -2.4622    6.1499    4.9902 C   0  0  0  0  0  0  0  0  0  0  0  0
   -5.4047    5.1465    5.8854 C   0  0  0  0  0  0  0  0  0  0  0  0
   -4.6677    4.1495    6.3812 C   0  0  0  0  0  0  0  0  0  0  0  0
   -5.1836    2.7750    6.5633 C   0  0  0  0  0  0  0  0  0  0  0  0
   -4.5354    1.7103    7.6990 S   0  0  0  0  0  0  0  0  0  0  0  0
   -5.4976    0.3787    7.3215 C   0  0  0  0  0  0  0  0  0  0  0  0
   -6.3459    0.7452    6.2801 C   0  0  0  0  0  0  0  0  0  0  0  0
   -6.1502    2.0657    5.8238 C   0  0  0  0  0  0  0  0  0  0  0  0
   -6.8317    2.5087    4.6790 C   0  0  0  0  0  0  0  0  0  0  0  0
   -7.7745    1.6702    4.0565 C   0  0  0  0  0  0  0  0  0  0  0  0
   -8.5556    2.1784    2.8758 C   0  0  0  0  0  0  0  0  0  0  0  0
   -8.0080    0.3683    4.5518 C   0  0  0  0  0  0  0  0  0  0  0  0
   -8.9785   -0.4289    3.9204 O   0  0  0  0  0  0  0  0  0  0  0  0
   -9.3661   -1.7258    4.3486 C   0  0  0  0  0  0  0  0  0  0  0  0
   -7.2630   -0.1017    5.6540 C   0  0  0  0  0  0  0  0  0  0  0  0
   -5.3265   -0.9808    7.8692 C   0  0  0  0  0  0  0  0  0  0  0  0
   -4.1767   -1.6761    7.7984 C   0  0  0  0  0  0  0  0  0  0  0  0
   -2.9662   -1.2117    7.0835 C   0  0  0  0  0  0  0  0  0  0  0  0
   -1.7037   -1.3058    7.7227 C   0  0  0  0  0  0  0  0  0  0  0  0
   -0.5546   -0.7490    7.1294 C   0  0  0  0  0  0  0  0  0  0  0  0
   -0.7056   -0.1234    5.8955 C   0  0  0  0  0  0  0  0  0  0  0  0
   -1.9220   -0.0564    5.2508 C   0  0  0  0  0  0  0  0  0  0  0  0
   -3.0611   -0.6331    5.7945 C   0  0  0  0  0  0  0  0  0  0  0  0
   -1.8428    0.6600    4.1481 O   0  0  0  0  0  0  0  0  0  0  0  0
   -0.5978    1.0821    4.0671 C   0  0  0  0  0  0  0  0  0  0  0  0
    0.1586    0.6081    5.1161 C   0  0  0  0  0  0  0  0  0  0  0  0
    1.4892    0.9671    5.2862 C   0  0  0  0  0  0  0  0  0  0  0  0
    2.0555    1.8390    4.3384 C   0  0  0  0  0  0  0  0  0  0  0  0
    1.2871    2.3421    3.2539 C   0  0  0  0  0  0  0  0  0  0  0  0
   -0.0695    1.9509    3.1217 C   0  0  0  0  0  0  0  0  0  0  0  0
    1.8753    3.4213    2.4262 C   0  0  0  0  0  0  0  0  0  0  0  0
    1.5446    3.7425    1.1678 C   0  0  0  0  0  0  0  0  0  0  0  0
    0.7081    2.9496    0.2456 C   0  0  0  0  0  0  0  0  0  0  0  0
   -0.1455    3.6418   -0.6562 C   0  0  0  0  0  0  0  0  0  0  0  0
   -0.8272    2.9529   -1.6720 C   0  0  0  0  0  0  0  0  0  0  0  0
   -0.6166    1.5832   -1.7807 C   0  0  0  0  0  0  0  0  0  0  0  0
    0.2158    0.8990   -0.9217 C   0  0  0  0  0  0  0  0  0  0  0  0
    0.8716    1.5460    0.1232 C   0  0  0  0  0  0  0  0  0  0  0  0
    0.3605   -0.3562   -1.3014 O   0  0  0  0  0  0  0  0  0  0  0  0
   -0.3240   -0.4901   -2.4231 C   0  0  0  0  0  0  0  0  0  0  0  0
   -0.9630    0.6830   -2.7588 C   0  0  0  0  0  0  0  0  0  0  0  0
   -1.6288    0.8446   -3.9723 C   0  0  0  0  0  0  0  0  0  0  0  0
   -1.6053   -0.2278   -4.8781 C   0  0  0  0  0  0  0  0  0  0  0  0
   -0.9335   -1.4372   -4.5477 C   0  0  0  0  0  0  0  0  0  0  0  0
   -0.3414   -1.5910   -3.2714 C   0  0  0  0  0  0  0  0  0  0  0  0
   -0.6837   -2.4702   -5.5667 C   0  0  0  0  0  0  0  0  0  0  0  0
   -0.2012   -2.1384   -6.7710 C   0  0  0  0  0  0  0  0  0  0  0  0
    0.4522   -3.1427   -7.6185 C   0  0  0  0  0  0  0  0  0  0  0  0
   -0.2714   -4.2512   -8.1329 C   0  0  0  0  0  0  0  0  0  0  0  0
    0.3915   -5.2559   -8.8647 C   0  0  0  0  0  0  0  0  0  0  0  0
    1.7702   -5.1320   -9.0326 C   0  0  0  0  0  0  0  0  0  0  0  0
    2.4781   -4.0677   -8.5204 C   0  0  0  0  0  0  0  0  0  0  0  0
    1.8410   -3.0356   -7.8392 C   0  0  0  0  0  0  0  0  0  0  0  0
    3.7723   -4.2200   -8.7021 O   0  0  0  0  0  0  0  0  0  0  0  0
    3.9317   -5.3753   -9.3104 C   0  0  0  0  0  0  0  0  0  0  0  0
    2.7185   -5.9784   -9.5589 C   0  0  0  0  0  0  0  0  0  0  0  0
    2.6290   -7.2435  -10.1361 C   0  0  0  0  0  0  0  0  0  0  0  0
    3.8299   -7.9112  -10.4418 C   0  0  0  0  0  0  0  0  0  0  0  0
    5.0809   -7.3166  -10.1419 C   0  0  0  0  0  0  0  0  0  0  0  0
    5.1323   -6.0026   -9.6181 C   0  0  0  0  0  0  0  0  0  0  0  0
    6.3183   -8.1024  -10.3369 C   0  0  0  0  0  0  0  0  0  0  0  0
    7.2868   -8.2601   -9.4153 C   0  0  0  0  0  0  0  0  0  0  0  0
    7.2360   -7.7836   -8.0085 C   0  0  0  0  0  0  0  0  0  0  0  0
    8.4418   -7.3635   -7.3851 C   0  0  0  0  0  0  0  0  0  0  0  0
    8.4499   -6.9232   -6.0458 C   0  0  0  0  0  0  0  0  0  0  0  0
    7.2380   -6.9102   -5.3645 C   0  0  0  0  0  0  0  0  0  0  0  0
    6.0635   -7.3292   -5.9516 C   0  0  0  0  0  0  0  0  0  0  0  0
    6.0337   -7.8045   -7.2571 C   0  0  0  0  0  0  0  0  0  0  0  0
    5.0478   -7.2127   -5.1201 O   0  0  0  0  0  0  0  0  0  0  0  0
    5.5351   -6.7271   -3.9948 C   0  0  0  0  0  0  0  0  0  0  0  0
    6.8949   -6.5257   -4.0892 C   0  0  0  0  0  0  0  0  0  0  0  0
    7.6453   -6.0374   -3.0223 C   0  0  0  0  0  0  0  0  0  0  0  0
    6.9633   -5.7344   -1.8294 C   0  0  0  0  0  0  0  0  0  0  0  0
    5.5553   -5.9027   -1.7285 C   0  0  0  0  0  0  0  0  0  0  0  0
    4.8337   -6.4241   -2.8332 C   0  0  0  0  0  0  0  0  0  0  0  0
    4.8916   -5.5533   -0.4510 C   0  0  0  0  0  0  0  0  0  0  0  0
    3.6046   -5.1957   -0.3661 C   0  0  0  0  0  0  0  0  0  0  0  0
   -5.0079    9.9818    4.6235 H   0  0  0  0  0  0  0  0  0  0  0  0
   -2.4291    9.9234    3.9869 H   0  0  0  0  0  0  0  0  0  0  0  0
    0.7204    8.8870    4.5577 H   0  0  0  0  0  0  0  0  0  0  0  0
    0.5009    8.1140    2.9297 H   0  0  0  0  0  0  0  0  0  0  0  0
   -0.1666    9.7494    3.2452 H   0  0  0  0  0  0  0  0  0  0  0  0
   -0.4354    4.0310    4.9525 H   0  0  0  0  0  0  0  0  0  0  0  0
    1.2531    4.5788    5.2655 H   0  0  0  0  0  0  0  0  0  0  0  0
   -0.0610    5.0401    6.4110 H   0  0  0  0  0  0  0  0  0  0  0  0
   -2.4767    5.0935    5.1756 H   0  0  0  0  0  0  0  0  0  0  0  0
   -6.4702    5.0003    5.7684 H   0  0  0  0  0  0  0  0  0  0  0  0
   -3.6762    4.3511    6.7597 H   0  0  0  0  0  0  0  0  0  0  0  0
   -6.6134    3.4699    4.2375 H   0  0  0  0  0  0  0  0  0  0  0  0
   -8.4910    1.4539    2.0362 H   0  0  0  0  0  0  0  0  0  0  0  0
   -9.6194    2.3053    3.1635 H   0  0  0  0  0  0  0  0  0  0  0  0
   -8.1720    3.1570    2.5186 H   0  0  0  0  0  0  0  0  0  0  0  0
   -8.5017   -2.4180    4.3038 H   0  0  0  0  0  0  0  0  0  0  0  0
   -9.7670   -1.6839    5.3839 H   0  0  0  0  0  0  0  0  0  0  0  0
  -10.1637   -2.1040    3.6784 H   0  0  0  0  0  0  0  0  0  0  0  0
   -7.3925   -1.1095    6.0204 H   0  0  0  0  0  0  0  0  0  0  0  0
   -6.1777   -1.4414    8.3521 H   0  0  0  0  0  0  0  0  0  0  0  0
   -4.1173   -2.6209    8.3252 H   0  0  0  0  0  0  0  0  0  0  0  0
   -1.6242   -1.7580    8.7048 H   0  0  0  0  0  0  0  0  0  0  0  0
    0.4012   -0.7752    7.6366 H   0  0  0  0  0  0  0  0  0  0  0  0
   -4.0008   -0.5754    5.2596 H   0  0  0  0  0  0  0  0  0  0  0  0
    2.0628    0.6132    6.1319 H   0  0  0  0  0  0  0  0  0  0  0  0
    3.0795    2.1595    4.4757 H   0  0  0  0  0  0  0  0  0  0  0  0
   -0.7225    2.3801    2.3734 H   0  0  0  0  0  0  0  0  0  0  0  0
    2.6046    4.0609    2.9137 H   0  0  0  0  0  0  0  0  0  0  0  0
    1.9605    4.6586    0.7630 H   0  0  0  0  0  0  0  0  0  0  0  0
   -0.2521    4.7149   -0.5827 H   0  0  0  0  0  0  0  0  0  0  0  0
   -1.4468    3.4830   -2.3827 H   0  0  0  0  0  0  0  0  0  0  0  0
    1.5629    0.9980    0.7516 H   0  0  0  0  0  0  0  0  0  0  0  0
   -2.0873    1.7902   -4.2391 H   0  0  0  0  0  0  0  0  0  0  0  0
   -2.0653   -0.1060   -5.8503 H   0  0  0  0  0  0  0  0  0  0  0  0
    0.2120   -2.4850   -3.0119 H   0  0  0  0  0  0  0  0  0  0  0  0
   -0.6629   -3.5116   -5.2536 H   0  0  0  0  0  0  0  0  0  0  0  0
   -0.0614   -1.0946   -7.0282 H   0  0  0  0  0  0  0  0  0  0  0  0
   -1.3386   -4.3373   -7.9583 H   0  0  0  0  0  0  0  0  0  0  0  0
   -0.1475   -6.1140   -9.2480 H   0  0  0  0  0  0  0  0  0  0  0  0
    2.4157   -2.2151   -7.4270 H   0  0  0  0  0  0  0  0  0  0  0  0
    1.6692   -7.7155  -10.3119 H   0  0  0  0  0  0  0  0  0  0  0  0
    3.7868   -8.9121  -10.8581 H   0  0  0  0  0  0  0  0  0  0  0  0
    6.0753   -5.5246   -9.3874 H   0  0  0  0  0  0  0  0  0  0  0  0
    6.4466   -8.5994  -11.2911 H   0  0  0  0  0  0  0  0  0  0  0  0
    8.1820   -8.7851   -9.7246 H   0  0  0  0  0  0  0  0  0  0  0  0
    9.3743   -7.3699   -7.9396 H   0  0  0  0  0  0  0  0  0  0  0  0
    9.3691   -6.6021   -5.5709 H   0  0  0  0  0  0  0  0  0  0  0  0
    5.1083   -8.1813   -7.6661 H   0  0  0  0  0  0  0  0  0  0  0  0
    8.7108   -5.8828   -3.1076 H   0  0  0  0  0  0  0  0  0  0  0  0
    7.5246   -5.3482   -0.9867 H   0  0  0  0  0  0  0  0  0  0  0  0
    3.7661   -6.5975   -2.7937 H   0  0  0  0  0  0  0  0  0  0  0  0
    5.4861   -5.5301    0.4534 H   0  0  0  0  0  0  0  0  0  0  0  0
    2.9707   -5.1230   -1.2417 H   0  0  0  0  0  0  0  0  0  0  0  0
    3.1842   -4.9248    0.5934 H   0  0  0  0  0  0  0  0  0  0  0  0
  1  2  1  0
  2  3  1  0
  3  4  2  0
  4  5  1  0
  5  6  1  0
  6  7  2  0
  7  8  1  0
  7  9  1  0
  9 10  1  0
 10 11  1  0
  9 12  2  0
  3 13  1  0
 13 14  2  3
 14 15  1  0
 15 16  1  0
 16 17  1  0
 17 18  2  0
 18 19  1  0
 19 20  1  0
 20 21  2  0
 21 22  1  0
 21 23  1  0
 23 24  1  0
 24 25  1  0
 23 26  2  0
 17 27  1  0
 27 28  2  3
 28 29  1  0
 29 30  2  0
 30 31  1  0
 31 32  2  0
 32 33  1  0
 33 34  2  0
 33 35  1  0
 35 36  1  0
 36 37  2  0
 37 38  1  0
 38 39  2  0
 39 40  1  0
 40 41  2  0
 40 42  1  0
 42 43  2  3
 43 44  1  0
 44 45  2  0
 45 46  1  0
 46 47  2  0
 47 48  1  0
 48 49  2  0
 48 50  1  0
 50 51  1  0
 51 52  2  0
 52 53  1  0
 53 54  2  0
 54 55  1  0
 55 56  2  0
 55 57  1  0
 57 58  2  3
 58 59  1  0
 59 60  2  0
 60 61  1  0
 61 62  2  0
 62 63  1  0
 63 64  2  0
 63 65  1  0
 65 66  1  0
 66 67  2  0
 67 68  1  0
 68 69  2  0
 69 70  1  0
 70 71  2  0
 70 72  1  0
 72 73  2  3
 73 74  1  0
 74 75  2  0
 75 76  1  0
 76 77  2  0
 77 78  1  0
 78 79  2  0
 78 80  1  0
 80 81  1  0
 81 82  2  0
 82 83  1  0
 83 84  2  0
 84 85  1  0
 85 86  2  0
 85 87  1  0
 87 88  2  3
  5  1  2  0
 19 15  2  0
 34 29  1  0
 41 36  1  0
 49 44  1  0
 56 51  1  0
 64 59  1  0
 71 66  1  0
 79 74  1  0
 86 81  1  0
 12  4  1  0
 26 18  1  0
 37 32  1  0
 52 47  1  0
 67 62  1  0
 82 77  1  0
  1 89  1  0
  6 90  1  0
  8 91  1  0
  8 92  1  0
  8 93  1  0
 11 94  1  0
 11 95  1  0
 11 96  1  0
 12 97  1  0
 13 98  1  0
 14 99  1  0
 20100  1  0
 22101  1  0
 22102  1  0
 22103  1  0
 25104  1  0
 25105  1  0
 25106  1  0
 26107  1  0
 27108  1  0
 28109  1  0
 30110  1  0
 31111  1  0
 34112  1  0
 38113  1  0
 39114  1  0
 41115  1  0
 42116  1  0
 43117  1  0
 45118  1  0
 46119  1  0
 49120  1  0
 53121  1  0
 54122  1  0
 56123  1  0
 57124  1  0
 58125  1  0
 60126  1  0
 61127  1  0
 64128  1  0
 68129  1  0
 69130  1  0
 71131  1  0
 72132  1  0
 73133  1  0
 75134  1  0
 76135  1  0
 79136  1  0
 83137  1  0
 84138  1  0
 86139  1  0
 87140  1  0
 88141  1  0
 88142  1  0
M  END

