
     RDKit          3D

141147  0  0  0  0  0  0  0  0999 V2000
   -1.5171    1.4608   -8.3783 C   0  0  0  0  0  0  0  0  0  0  0  0
   -2.2855    2.3773   -7.2238 S   0  0  0  0  0  0  0  0  0  0  0  0
   -0.9700    0.3551   -7.7438 C   0  0  0  0  0  0  0  0  0  0  0  0
   -0.1525   -0.6425   -8.5279 C   0  0  0  0  0  0  0  0  0  0  0  0
    1.3324   -0.2746   -8.4914 C   0  0  0  0  0  0  0  0  0  0  0  0
    2.1079   -1.2405   -9.2627 N   0  0  0  0  0  0  0  0  0  0  0  0
   -1.1981    0.3230   -6.3364 C   0  0  0  0  0  0  0  0  0  0  0  0
   -0.6735   -0.8048   -5.4681 C   0  0  0  0  0  0  0  0  0  0  0  0
   -1.7841   -1.7915   -5.0627 C   0  0  0  0  0  0  0  0  0  0  0  0
   -2.1713   -2.6694   -6.1654 N   0  0  0  0  0  0  0  0  0  0  0  0
   -1.9690    1.4263   -5.8699 C   0  0  0  0  0  0  0  0  0  0  0  0
   -2.4001    1.7644   -4.4652 C   0  0  0  0  0  0  0  0  0  0  0  0
   -1.8716    0.9384   -3.0963 S   0  0  0  0  0  0  0  0  0  0  0  0
   -3.2516    2.8069   -3.9942 C   0  0  0  0  0  0  0  0  0  0  0  0
   -4.0588    3.7538   -4.8643 C   0  0  0  0  0  0  0  0  0  0  0  0
   -5.4520    3.1939   -5.1768 C   0  0  0  0  0  0  0  0  0  0  0  0
   -5.3784    2.0768   -6.1119 N   0  0  0  0  0  0  0  0  0  0  0  0
   -3.3850    2.8308   -2.5724 C   0  0  0  0  0  0  0  0  0  0  0  0
   -4.0529    3.9542   -1.8007 C   0  0  0  0  0  0  0  0  0  0  0  0
   -3.1346    5.1768   -1.6716 C   0  0  0  0  0  0  0  0  0  0  0  0
   -2.0351    4.9056   -0.7508 N   0  0  0  0  0  0  0  0  0  0  0  0
   -2.6952    1.7985   -1.9376 C   0  0  0  0  0  0  0  0  0  0  0  0
   -2.5596    1.5587   -0.4942 C   0  0  0  0  0  0  0  0  0  0  0  0
   -1.0859    1.5583    0.3004 S   0  0  0  0  0  0  0  0  0  0  0  0
   -3.5815    1.3182    0.4340 C   0  0  0  0  0  0  0  0  0  0  0  0
   -5.0132    1.0415    0.0349 C   0  0  0  0  0  0  0  0  0  0  0  0
   -5.2626   -0.4658   -0.0593 C   0  0  0  0  0  0  0  0  0  0  0  0
   -6.6437   -0.7224   -0.4546 N   0  0  0  0  0  0  0  0  0  0  0  0
   -3.0990    1.1981    1.7614 C   0  0  0  0  0  0  0  0  0  0  0  0
   -3.9967    1.1835    2.9762 C   0  0  0  0  0  0  0  0  0  0  0  0
   -4.4441    2.6110    3.3225 C   0  0  0  0  0  0  0  0  0  0  0  0
   -5.3298    2.6261    4.4854 N   0  0  0  0  0  0  0  0  0  0  0  0
   -1.7025    1.2885    1.8359 C   0  0  0  0  0  0  0  0  0  0  0  0
   -0.8484    1.1561    3.0245 C   0  0  0  0  0  0  0  0  0  0  0  0
    0.4539    2.1718    3.3532 S   0  0  0  0  0  0  0  0  0  0  0  0
    1.1046    1.2692    4.6124 C   0  0  0  0  0  0  0  0  0  0  0  0
    0.3098    0.1363    4.7896 C   0  0  0  0  0  0  0  0  0  0  0  0
   -0.7532    0.0493    3.8751 C   0  0  0  0  0  0  0  0  0  0  0  0
   -1.5005   -1.1295    3.7783 C   0  0  0  0  0  0  0  0  0  0  0  0
   -1.2191   -2.2062    4.6393 C   0  0  0  0  0  0  0  0  0  0  0  0
   -1.9958   -3.4859    4.5131 C   0  0  0  0  0  0  0  0  0  0  0  0
   -0.1865   -2.0969    5.5997 C   0  0  0  0  0  0  0  0  0  0  0  0
    0.0543   -3.1828    6.4574 O   0  0  0  0  0  0  0  0  0  0  0  0
    1.0195   -3.1870    7.5047 C   0  0  0  0  0  0  0  0  0  0  0  0
    0.5853   -0.9173    5.6650 C   0  0  0  0  0  0  0  0  0  0  0  0
    2.4466    1.4960    5.1663 C   0  0  0  0  0  0  0  0  0  0  0  0
    3.5873    1.0004    4.6505 C   0  0  0  0  0  0  0  0  0  0  0  0
    3.7155    0.0677    3.4896 C   0  0  0  0  0  0  0  0  0  0  0  0
    2.4681   -0.7597    2.7288 S   0  0  0  0  0  0  0  0  0  0  0  0
    4.9150   -0.3513    2.8815 C   0  0  0  0  0  0  0  0  0  0  0  0
    6.2759    0.1502    3.3105 C   0  0  0  0  0  0  0  0  0  0  0  0
    6.6157    1.4634    2.6036 C   0  0  0  0  0  0  0  0  0  0  0  0
    7.9235    1.9462    3.0383 N   0  0  0  0  0  0  0  0  0  0  0  0
    4.7196   -1.2692    1.8095 C   0  0  0  0  0  0  0  0  0  0  0  0
    5.8408   -1.8657    0.9905 C   0  0  0  0  0  0  0  0  0  0  0  0
    6.2824   -3.2172    1.5655 C   0  0  0  0  0  0  0  0  0  0  0  0
    7.4120   -3.7667    0.8190 N   0  0  0  0  0  0  0  0  0  0  0  0
    3.3786   -1.6314    1.6411 C   0  0  0  0  0  0  0  0  0  0  0  0
    2.8160   -2.6519    0.7390 C   0  0  0  0  0  0  0  0  0  0  0  0
    2.9640   -2.6306   -0.9353 S   0  0  0  0  0  0  0  0  0  0  0  0
    2.0268   -3.7538    1.1043 C   0  0  0  0  0  0  0  0  0  0  0  0
    1.7294   -4.1313    2.5396 C   0  0  0  0  0  0  0  0  0  0  0  0
    2.9567   -4.7596    3.2039 C   0  0  0  0  0  0  0  0  0  0  0  0
    2.6030   -5.2960    4.5134 N   0  0  0  0  0  0  0  0  0  0  0  0
    1.6327   -4.5326   -0.0123 C   0  0  0  0  0  0  0  0  0  0  0  0
    0.7791   -5.7705    0.0614 C   0  0  0  0  0  0  0  0  0  0  0  0
   -0.7099   -5.3990    0.1209 C   0  0  0  0  0  0  0  0  0  0  0  0
   -1.5468   -6.5865    0.2722 N   0  0  0  0  0  0  0  0  0  0  0  0
    2.0671   -4.0175   -1.2312 C   0  0  0  0  0  0  0  0  0  0  0  0
   -1.4462    1.6951   -9.4323 H   0  0  0  0  0  0  0  0  0  0  0  0
   -0.4942   -0.6502   -9.5864 H   0  0  0  0  0  0  0  0  0  0  0  0
   -0.3081   -1.6703   -8.1419 H   0  0  0  0  0  0  0  0  0  0  0  0
    1.4703    0.7382   -8.9337 H   0  0  0  0  0  0  0  0  0  0  0  0
    1.7009   -0.2483   -7.4415 H   0  0  0  0  0  0  0  0  0  0  0  0
    2.1084   -2.1483   -8.7416 H   0  0  0  0  0  0  0  0  0  0  0  0
    3.1005   -0.9089   -9.2825 H   0  0  0  0  0  0  0  0  0  0  0  0
    0.1411   -1.3626   -5.9703 H   0  0  0  0  0  0  0  0  0  0  0  0
   -0.1730   -0.3895   -4.5757 H   0  0  0  0  0  0  0  0  0  0  0  0
   -1.4145   -2.4175   -4.2219 H   0  0  0  0  0  0  0  0  0  0  0  0
   -2.6837   -1.2476   -4.7041 H   0  0  0  0  0  0  0  0  0  0  0  0
   -1.3298   -3.1975   -6.4945 H   0  0  0  0  0  0  0  0  0  0  0  0
   -2.5214   -2.0868   -6.9597 H   0  0  0  0  0  0  0  0  0  0  0  0
   -4.1930    4.7226   -4.3475 H   0  0  0  0  0  0  0  0  0  0  0  0
   -3.5343    4.0537   -5.7840 H   0  0  0  0  0  0  0  0  0  0  0  0
   -5.9575    2.8741   -4.2393 H   0  0  0  0  0  0  0  0  0  0  0  0
   -6.0618    4.0027   -5.6294 H   0  0  0  0  0  0  0  0  0  0  0  0
   -6.3580    1.8211   -6.3744 H   0  0  0  0  0  0  0  0  0  0  0  0
   -4.9905    1.2476   -5.6079 H   0  0  0  0  0  0  0  0  0  0  0  0
   -4.3438    3.6336   -0.7811 H   0  0  0  0  0  0  0  0  0  0  0  0
   -4.9999    4.2482   -2.2989 H   0  0  0  0  0  0  0  0  0  0  0  0
   -2.7357    5.4829   -2.6635 H   0  0  0  0  0  0  0  0  0  0  0  0
   -3.7366    6.0232   -1.2741 H   0  0  0  0  0  0  0  0  0  0  0  0
   -1.5487    5.8121   -0.5587 H   0  0  0  0  0  0  0  0  0  0  0  0
   -1.3383    4.3018   -1.2430 H   0  0  0  0  0  0  0  0  0  0  0  0
   -5.7104    1.4980    0.7675 H   0  0  0  0  0  0  0  0  0  0  0  0
   -5.2423    1.4928   -0.9522 H   0  0  0  0  0  0  0  0  0  0  0  0
   -5.0564   -0.9552    0.9175 H   0  0  0  0  0  0  0  0  0  0  0  0
   -4.5807   -0.9036   -0.8196 H   0  0  0  0  0  0  0  0  0  0  0  0
   -7.2697   -0.4323    0.3329 H   0  0  0  0  0  0  0  0  0  0  0  0
   -6.7586   -1.7568   -0.5551 H   0  0  0  0  0  0  0  0  0  0  0  0
   -4.8820    0.5424    2.7919 H   0  0  0  0  0  0  0  0  0  0  0  0
   -3.4684    0.7556    3.8520 H   0  0  0  0  0  0  0  0  0  0  0  0
   -3.5522    3.2396    3.5384 H   0  0  0  0  0  0  0  0  0  0  0  0
   -4.9773    3.0644    2.4593 H   0  0  0  0  0  0  0  0  0  0  0  0
   -4.8226    2.2153    5.3027 H   0  0  0  0  0  0  0  0  0  0  0  0
   -6.1613    2.0236    4.2850 H   0  0  0  0  0  0  0  0  0  0  0  0
   -2.2673   -1.2276    3.0206 H   0  0  0  0  0  0  0  0  0  0  0  0
   -1.3038   -4.3178    4.2616 H   0  0  0  0  0  0  0  0  0  0  0  0
   -2.5062   -3.7119    5.4732 H   0  0  0  0  0  0  0  0  0  0  0  0
   -2.7661   -3.4231    3.7147 H   0  0  0  0  0  0  0  0  0  0  0  0
    2.0387   -3.0345    7.0888 H   0  0  0  0  0  0  0  0  0  0  0  0
    0.7864   -2.3912    8.2437 H   0  0  0  0  0  0  0  0  0  0  0  0
    0.9933   -4.1714    8.0158 H   0  0  0  0  0  0  0  0  0  0  0  0
    1.4118   -0.8290    6.3582 H   0  0  0  0  0  0  0  0  0  0  0  0
    2.5181    2.1686    6.0109 H   0  0  0  0  0  0  0  0  0  0  0  0
    4.4965    1.3235    5.1362 H   0  0  0  0  0  0  0  0  0  0  0  0
    6.3112    0.2948    4.4089 H   0  0  0  0  0  0  0  0  0  0  0  0
    7.0583   -0.6064    3.0954 H   0  0  0  0  0  0  0  0  0  0  0  0
    5.8457    2.2276    2.8520 H   0  0  0  0  0  0  0  0  0  0  0  0
    6.6172    1.3136    1.4999 H   0  0  0  0  0  0  0  0  0  0  0  0
    8.0788    2.8827    2.5975 H   0  0  0  0  0  0  0  0  0  0  0  0
    8.6536    1.3081    2.6461 H   0  0  0  0  0  0  0  0  0  0  0  0
    6.7030   -1.1700    0.9432 H   0  0  0  0  0  0  0  0  0  0  0  0
    5.5111   -2.0023   -0.0590 H   0  0  0  0  0  0  0  0  0  0  0  0
    6.5749   -3.0974    2.6316 H   0  0  0  0  0  0  0  0  0  0  0  0
    5.4368   -3.9371    1.5166 H   0  0  0  0  0  0  0  0  0  0  0  0
    8.2108   -3.0946    0.8726 H   0  0  0  0  0  0  0  0  0  0  0  0
    7.1397   -3.8574   -0.1876 H   0  0  0  0  0  0  0  0  0  0  0  0
    0.8790   -4.8393    2.5982 H   0  0  0  0  0  0  0  0  0  0  0  0
    1.4074   -3.2400    3.1158 H   0  0  0  0  0  0  0  0  0  0  0  0
    3.3392   -5.5876    2.5655 H   0  0  0  0  0  0  0  0  0  0  0  0
    3.7576   -3.9978    3.3160 H   0  0  0  0  0  0  0  0  0  0  0  0
    2.3821   -4.4912    5.1434 H   0  0  0  0  0  0  0  0  0  0  0  0
    3.4569   -5.7553    4.9091 H   0  0  0  0  0  0  0  0  0  0  0  0
    0.9618   -6.4031   -0.8361 H   0  0  0  0  0  0  0  0  0  0  0  0
    1.0656   -6.3802    0.9427 H   0  0  0  0  0  0  0  0  0  0  0  0
   -0.9009   -4.7121    0.9751 H   0  0  0  0  0  0  0  0  0  0  0  0
   -0.9981   -4.8684   -0.8133 H   0  0  0  0  0  0  0  0  0  0  0  0
   -1.3516   -7.2418   -0.5195 H   0  0  0  0  0  0  0  0  0  0  0  0
   -1.2867   -7.0710    1.1612 H   0  0  0  0  0  0  0  0  0  0  0  0
    1.8648   -4.4403   -2.2054 H   0  0  0  0  0  0  0  0  0  0  0  0
  1  2  1  0
  1  3  2  0
  3  4  1  0
  4  5  1  0
  5  6  1  0
  3  7  1  0
  7  8  1  0
  8  9  1  0
  9 10  1  0
  7 11  2  0
 11 12  1  0
 12 13  1  0
 12 14  2  0
 14 15  1  0
 15 16  1  0
 16 17  1  0
 14 18  1  0
 18 19  1  0
 19 20  1  0
 20 21  1  0
 18 22  2  0
 22 23  1  0
 23 24  1  0
 23 25  2  0
 25 26  1  0
 26 27  1  0
 27 28  1  0
 25 29  1  0
 29 30  1  0
 30 31  1  0
 31 32  1  0
 29 33  2  0
 33 34  1  0
 34 35  1  0
 35 36  1  0
 36 37  2  0
 37 38  1  0
 38 39  1  0
 39 40  2  0
 40 41  1  0
 40 42  1  0
 42 43  1  0
 43 44  1  0
 42 45  2  0
 36 46  1  0
 46 47  2  3
 47 48  1  0
 48 49  1  0
 48 50  2  0
 50 51  1  0
 51 52  1  0
 52 53  1  0
 50 54  1  0
 54 55  1  0
 55 56  1  0
 56 57  1  0
 54 58  2  0
 58 59  1  0
 59 60  1  0
 59 61  2  0
 61 62  1  0
 62 63  1  0
 63 64  1  0
 61 65  1  0
 65 66  1  0
 66 67  1  0
 67 68  1  0
 65 69  2  0
 11  2  1  0
 22 13  1  0
 33 24  1  0
 38 34  2  0
 58 49  1  0
 69 60  1  0
 45 37  1  0
  1 70  1  0
  4 71  1  0
  4 72  1  0
  5 73  1  0
  5 74  1  0
  6 75  1  0
  6 76  1  0
  8 77  1  0
  8 78  1  0
  9 79  1  0
  9 80  1  0
 10 81  1  0
 10 82  1  0
 15 83  1  0
 15 84  1  0
 16 85  1  0
 16 86  1  0
 17 87  1  0
 17 88  1  0
 19 89  1  0
 19 90  1  0
 20 91  1  0
 20 92  1  0
 21 93  1  0
 21 94  1  0
 26 95  1  0
 26 96  1  0
 27 97  1  0
 27 98  1  0
 28 99  1  0
 28100  1  0
 30101  1  0
 30102  1  0
 31103  1  0
 31104  1  0
 32105  1  0
 32106  1  0
 39107  1  0
 41108  1  0
 41109  1  0
 41110  1  0
 44111  1  0
 44112  1  0
 44113  1  0
 45114  1  0
 46115  1  0
 47116  1  0
 51117  1  0
 51118  1  0
 52119  1  0
 52120  1  0
 53121  1  0
 53122  1  0
 55123  1  0
 55124  1  0
 56125  1  0
 56126  1  0
 57127  1  0
 57128  1  0
 62129  1  0
 62130  1  0
 63131  1  0
 63132  1  0
 64133  1  0
 64134  1  0
 66135  1  0
 66136  1  0
 67137  1  0
 67138  1  0
 68139  1  0
 68140  1  0
 69141  1  0
M  END

