
     RDKit          3D

200220  0  0  0  0  0  0  0  0999 V2000
    6.5704   -4.0801    7.4283 C   0  0  0  0  0  0  0  0  0  0  0  0
    6.5225   -2.8497    6.7776 C   0  0  0  0  0  0  0  0  0  0  0  0
    5.2138   -2.4121    6.5145 C   0  0  0  0  0  0  0  0  0  0  0  0
    4.8421   -1.2070    5.8858 C   0  0  0  0  0  0  0  0  0  0  0  0
    5.8482   -0.2355    5.4424 C   0  0  0  0  0  0  0  0  0  0  0  0
    6.8470    0.6374    6.4765 S   0  0  0  0  0  0  0  0  0  0  0  0
    7.6724    1.4723    5.2723 C   0  0  0  0  0  0  0  0  0  0  0  0
    8.7933    2.4345    5.5119 C   0  0  0  0  0  0  0  0  0  0  0  0
   10.1512    1.7521    5.3258 C   0  0  0  0  0  0  0  0  0  0  0  0
    7.1821    1.0610    4.0204 C   0  0  0  0  0  0  0  0  0  0  0  0
    7.8005    1.6484    2.4951 Cl  0  0  0  0  0  0  0  0  0  0  0  0
    6.1542    0.1037    4.1324 C   0  0  0  0  0  0  0  0  0  0  0  0
    5.3810   -0.6351    2.7325 Cl  0  0  0  0  0  0  0  0  0  0  0  0
    3.4718   -0.9517    5.7423 C   0  0  0  0  0  0  0  0  0  0  0  0
    2.4895   -1.8454    6.1942 C   0  0  0  0  0  0  0  0  0  0  0  0
    2.8614   -3.0558    6.8191 C   0  0  0  0  0  0  0  0  0  0  0  0
    1.8660   -3.9934    7.3710 C   0  0  0  0  0  0  0  0  0  0  0  0
    1.7313   -5.6096    6.9329 S   0  0  0  0  0  0  0  0  0  0  0  0
    0.5363   -5.9998    8.0568 C   0  0  0  0  0  0  0  0  0  0  0  0
   -0.1156   -7.3436    8.1823 C   0  0  0  0  0  0  0  0  0  0  0  0
   -1.4071   -7.3845    7.3615 C   0  0  0  0  0  0  0  0  0  0  0  0
    0.2397   -4.8651    8.7971 C   0  0  0  0  0  0  0  0  0  0  0  0
    0.9888   -3.7368    8.4309 C   0  0  0  0  0  0  0  0  0  0  0  0
    0.8921   -2.1881    9.2538 Cl  0  0  0  0  0  0  0  0  0  0  0  0
   -0.9268   -4.8386   10.1100 Cl  0  0  0  0  0  0  0  0  0  0  0  0
    4.2363   -3.3087    6.9528 C   0  0  0  0  0  0  0  0  0  0  0  0
    4.9914   -4.6279    7.6752 S   0  0  0  0  0  0  0  0  0  0  0  0
    1.1881   -1.3918    5.9615 C   0  0  0  0  0  0  0  0  0  0  0  0
    1.1568   -0.1483    5.3348 C   0  0  0  0  0  0  0  0  0  0  0  0
    2.7277    0.3920    5.0575 S   0  0  0  0  0  0  0  0  0  0  0  0
   -0.0617    0.5253    4.8779 C   0  0  0  0  0  0  0  0  0  0  0  0
   -1.0441   -0.0401    3.6373 S   0  0  0  0  0  0  0  0  0  0  0  0
   -2.2395    1.1448    3.7547 C   0  0  0  0  0  0  0  0  0  0  0  0
   -1.8659    2.0188    4.7904 C   0  0  0  0  0  0  0  0  0  0  0  0
   -0.6554    1.6662    5.4133 C   0  0  0  0  0  0  0  0  0  0  0  0
   -0.1691    2.4132    6.4861 C   0  0  0  0  0  0  0  0  0  0  0  0
   -0.8987    3.5269    6.9481 C   0  0  0  0  0  0  0  0  0  0  0  0
   -0.3971    4.3075    8.1312 C   0  0  0  0  0  0  0  0  0  0  0  0
   -2.1225    3.8782    6.3342 C   0  0  0  0  0  0  0  0  0  0  0  0
   -2.8465    4.9757    6.8371 O   0  0  0  0  0  0  0  0  0  0  0  0
   -4.0941    5.4131    6.3161 C   0  0  0  0  0  0  0  0  0  0  0  0
   -2.5990    3.1213    5.2440 C   0  0  0  0  0  0  0  0  0  0  0  0
   -3.4522    1.2380    2.9083 C   0  0  0  0  0  0  0  0  0  0  0  0
   -3.7198    0.3288    1.9540 C   0  0  0  0  0  0  0  0  0  0  0  0
   -4.8553    0.4739    1.0306 C   0  0  0  0  0  0  0  0  0  0  0  0
   -4.7295    0.2287   -0.6260 S   0  0  0  0  0  0  0  0  0  0  0  0
   -6.2859    0.7402   -1.0251 C   0  0  0  0  0  0  0  0  0  0  0  0
   -6.9471    1.0840    0.1487 C   0  0  0  0  0  0  0  0  0  0  0  0
   -6.1546    0.9143    1.2981 C   0  0  0  0  0  0  0  0  0  0  0  0
   -6.7064    1.1208    2.5678 C   0  0  0  0  0  0  0  0  0  0  0  0
   -8.0568    1.5057    2.6847 C   0  0  0  0  0  0  0  0  0  0  0  0
   -8.6695    1.6168    4.0558 C   0  0  0  0  0  0  0  0  0  0  0  0
   -8.8522    1.6692    1.5294 C   0  0  0  0  0  0  0  0  0  0  0  0
  -10.2090    1.9917    1.6880 O   0  0  0  0  0  0  0  0  0  0  0  0
  -11.1416    2.1083    0.6193 C   0  0  0  0  0  0  0  0  0  0  0  0
   -8.2808    1.4896    0.2549 C   0  0  0  0  0  0  0  0  0  0  0  0
   -6.7231    1.0160   -2.4065 C   0  0  0  0  0  0  0  0  0  0  0  0
   -6.6124    0.0743   -3.3365 C   0  0  0  0  0  0  0  0  0  0  0  0
   -6.6922    0.2351   -4.8155 C   0  0  0  0  0  0  0  0  0  0  0  0
   -6.2866   -1.0864   -5.7860 S   0  0  0  0  0  0  0  0  0  0  0  0
   -6.1422   -0.2787   -7.2393 C   0  0  0  0  0  0  0  0  0  0  0  0
   -6.4362    1.0521   -7.0106 C   0  0  0  0  0  0  0  0  0  0  0  0
   -6.7425    1.3618   -5.6674 C   0  0  0  0  0  0  0  0  0  0  0  0
   -7.1804    2.6613   -5.3563 C   0  0  0  0  0  0  0  0  0  0  0  0
   -7.2859    3.6380   -6.3723 C   0  0  0  0  0  0  0  0  0  0  0  0
   -7.8266    4.9944   -6.0153 C   0  0  0  0  0  0  0  0  0  0  0  0
   -7.0563    3.2874   -7.7228 C   0  0  0  0  0  0  0  0  0  0  0  0
   -7.3919    4.2020   -8.7449 O   0  0  0  0  0  0  0  0  0  0  0  0
   -7.4059    3.8844  -10.1270 C   0  0  0  0  0  0  0  0  0  0  0  0
   -6.5593    2.0014   -8.0247 C   0  0  0  0  0  0  0  0  0  0  0  0
   -5.5989   -0.8569   -8.4748 C   0  0  0  0  0  0  0  0  0  0  0  0
   -4.3061   -0.7988   -8.8384 C   0  0  0  0  0  0  0  0  0  0  0  0
   -3.1765   -0.2731   -8.0247 C   0  0  0  0  0  0  0  0  0  0  0  0
   -1.8373   -0.4517   -8.3660 C   0  0  0  0  0  0  0  0  0  0  0  0
   -0.9494   -0.1142   -7.3280 C   0  0  0  0  0  0  0  0  0  0  0  0
    0.4290   -0.4155   -7.3016 C   0  0  0  0  0  0  0  0  0  0  0  0
    1.1708   -0.7215   -8.5468 C   0  0  0  0  0  0  0  0  0  0  0  0
    2.1861   -2.0464   -8.7973 S   0  0  0  0  0  0  0  0  0  0  0  0
    2.6359   -1.6435  -10.3649 C   0  0  0  0  0  0  0  0  0  0  0  0
    3.6464   -2.3842  -11.1834 C   0  0  0  0  0  0  0  0  0  0  0  0
    5.0488   -1.8194  -10.9618 C   0  0  0  0  0  0  0  0  0  0  0  0
    2.0212   -0.4391  -10.7148 C   0  0  0  0  0  0  0  0  0  0  0  0
    2.2549    0.3673  -12.2558 Cl  0  0  0  0  0  0  0  0  0  0  0  0
    1.2015    0.0719   -9.6958 C   0  0  0  0  0  0  0  0  0  0  0  0
    0.3615    1.6111   -9.8394 Cl  0  0  0  0  0  0  0  0  0  0  0  0
    1.0554   -0.3966   -6.0427 C   0  0  0  0  0  0  0  0  0  0  0  0
    0.3998    0.0680   -4.8897 C   0  0  0  0  0  0  0  0  0  0  0  0
   -0.8969    0.6307   -4.9735 C   0  0  0  0  0  0  0  0  0  0  0  0
   -1.4500    1.4867   -3.8871 C   0  0  0  0  0  0  0  0  0  0  0  0
   -3.0814    1.6386   -3.4759 S   0  0  0  0  0  0  0  0  0  0  0  0
   -2.9162    2.9051   -2.3753 C   0  0  0  0  0  0  0  0  0  0  0  0
   -4.0358    3.5949   -1.6680 C   0  0  0  0  0  0  0  0  0  0  0  0
   -4.3565    4.9539   -2.2963 C   0  0  0  0  0  0  0  0  0  0  0  0
   -1.5674    3.2499   -2.3220 C   0  0  0  0  0  0  0  0  0  0  0  0
   -0.7582    2.4847   -3.1754 C   0  0  0  0  0  0  0  0  0  0  0  0
    0.9340    2.9054   -3.4403 Cl  0  0  0  0  0  0  0  0  0  0  0  0
   -0.9532    4.5529   -1.3228 Cl  0  0  0  0  0  0  0  0  0  0  0  0
   -1.5762    0.3948   -6.1895 C   0  0  0  0  0  0  0  0  0  0  0  0
   -3.2206    0.3685   -6.4661 S   0  0  0  0  0  0  0  0  0  0  0  0
    1.1098   -0.2107   -3.7092 C   0  0  0  0  0  0  0  0  0  0  0  0
    2.3206   -0.8614   -3.9322 C   0  0  0  0  0  0  0  0  0  0  0  0
    2.5285   -1.0727   -5.5956 S   0  0  0  0  0  0  0  0  0  0  0  0
    3.1334   -1.5272   -2.9039 C   0  0  0  0  0  0  0  0  0  0  0  0
    2.6459   -2.0249   -1.7000 C   0  0  0  0  0  0  0  0  0  0  0  0
    3.5891   -2.8033   -1.0023 C   0  0  0  0  0  0  0  0  0  0  0  0
    3.3727   -3.4944    0.2146 C   0  0  0  0  0  0  0  0  0  0  0  0
    2.0321   -3.5906    0.8316 C   0  0  0  0  0  0  0  0  0  0  0  0
    1.6622   -3.1619    2.4206 S   0  0  0  0  0  0  0  0  0  0  0  0
    0.0461   -3.6336    2.3592 C   0  0  0  0  0  0  0  0  0  0  0  0
   -0.9274   -3.5662    3.4926 C   0  0  0  0  0  0  0  0  0  0  0  0
   -1.0476   -4.9110    4.2093 C   0  0  0  0  0  0  0  0  0  0  0  0
   -0.2205   -4.1570    1.0906 C   0  0  0  0  0  0  0  0  0  0  0  0
   -1.7751   -4.8118    0.6149 Cl  0  0  0  0  0  0  0  0  0  0  0  0
    0.8960   -4.1392    0.2412 C   0  0  0  0  0  0  0  0  0  0  0  0
    0.8764   -4.8432   -1.3676 Cl  0  0  0  0  0  0  0  0  0  0  0  0
    4.4730   -4.1937    0.7436 C   0  0  0  0  0  0  0  0  0  0  0  0
    5.7132   -4.2485    0.0995 C   0  0  0  0  0  0  0  0  0  0  0  0
    5.9163   -3.5816   -1.1304 C   0  0  0  0  0  0  0  0  0  0  0  0
    7.2007   -3.6448   -1.8525 C   0  0  0  0  0  0  0  0  0  0  0  0
    7.4070   -4.3272   -3.3706 S   0  0  0  0  0  0  0  0  0  0  0  0
    9.0462   -3.9794   -3.4975 C   0  0  0  0  0  0  0  0  0  0  0  0
    9.9203   -4.4054   -4.6451 C   0  0  0  0  0  0  0  0  0  0  0  0
   10.4819   -5.8008   -4.4017 C   0  0  0  0  0  0  0  0  0  0  0  0
    9.4620   -3.3276   -2.3424 C   0  0  0  0  0  0  0  0  0  0  0  0
    8.4147   -3.1360   -1.4127 C   0  0  0  0  0  0  0  0  0  0  0  0
    8.6263   -2.2959    0.1216 Cl  0  0  0  0  0  0  0  0  0  0  0  0
   11.1060   -2.7843   -2.0556 Cl  0  0  0  0  0  0  0  0  0  0  0  0
    4.8270   -2.8748   -1.6517 C   0  0  0  0  0  0  0  0  0  0  0  0
    4.7336   -2.0259   -3.1038 S   0  0  0  0  0  0  0  0  0  0  0  0
    6.6548   -5.0467    0.7771 C   0  0  0  0  0  0  0  0  0  0  0  0
    6.1471   -5.6208    1.9419 C   0  0  0  0  0  0  0  0  0  0  0  0
    4.5409   -5.1477    2.1292 S   0  0  0  0  0  0  0  0  0  0  0  0
    7.4705   -4.5962    7.7328 H   0  0  0  0  0  0  0  0  0  0  0  0
    7.4131   -2.2991    6.5130 H   0  0  0  0  0  0  0  0  0  0  0  0
    8.7235    2.8075    6.5535 H   0  0  0  0  0  0  0  0  0  0  0  0
    8.7025    3.3111    4.8335 H   0  0  0  0  0  0  0  0  0  0  0  0
   10.9454    2.4073    5.7196 H   0  0  0  0  0  0  0  0  0  0  0  0
   10.3424    1.5500    4.2550 H   0  0  0  0  0  0  0  0  0  0  0  0
   10.1760    0.7952    5.8915 H   0  0  0  0  0  0  0  0  0  0  0  0
    0.5769   -8.1264    7.8066 H   0  0  0  0  0  0  0  0  0  0  0  0
   -0.3406   -7.5601    9.2465 H   0  0  0  0  0  0  0  0  0  0  0  0
   -1.1812   -7.2420    6.2899 H   0  0  0  0  0  0  0  0  0  0  0  0
   -1.8986   -8.3689    7.4988 H   0  0  0  0  0  0  0  0  0  0  0  0
   -2.1002   -6.5889    7.7034 H   0  0  0  0  0  0  0  0  0  0  0  0
    0.3020   -1.9291    6.2419 H   0  0  0  0  0  0  0  0  0  0  0  0
    0.7574    2.1286    6.9713 H   0  0  0  0  0  0  0  0  0  0  0  0
    0.6446    4.0202    8.4009 H   0  0  0  0  0  0  0  0  0  0  0  0
   -0.3975    5.3963    7.8977 H   0  0  0  0  0  0  0  0  0  0  0  0
   -1.0537    4.1266    9.0046 H   0  0  0  0  0  0  0  0  0  0  0  0
   -4.8439    4.6007    6.3906 H   0  0  0  0  0  0  0  0  0  0  0  0
   -4.4490    6.2810    6.9141 H   0  0  0  0  0  0  0  0  0  0  0  0
   -3.9810    5.7329    5.2618 H   0  0  0  0  0  0  0  0  0  0  0  0
   -3.5305    3.3831    4.7764 H   0  0  0  0  0  0  0  0  0  0  0  0
   -4.0974    2.0948    3.0084 H   0  0  0  0  0  0  0  0  0  0  0  0
   -3.0457   -0.4809    1.7745 H   0  0  0  0  0  0  0  0  0  0  0  0
   -6.1284    0.9240    3.4559 H   0  0  0  0  0  0  0  0  0  0  0  0
   -9.2877    2.5419    4.1253 H   0  0  0  0  0  0  0  0  0  0  0  0
   -7.8973    1.6690    4.8505 H   0  0  0  0  0  0  0  0  0  0  0  0
   -9.3275    0.7476    4.2512 H   0  0  0  0  0  0  0  0  0  0  0  0
  -10.8502    2.9331   -0.0689 H   0  0  0  0  0  0  0  0  0  0  0  0
  -11.1873    1.1511    0.0651 H   0  0  0  0  0  0  0  0  0  0  0  0
  -12.1446    2.3167    1.0396 H   0  0  0  0  0  0  0  0  0  0  0  0
   -8.8772    1.5940   -0.6439 H   0  0  0  0  0  0  0  0  0  0  0  0
   -7.0887    2.0018   -2.6114 H   0  0  0  0  0  0  0  0  0  0  0  0
   -6.3568   -0.9165   -2.9864 H   0  0  0  0  0  0  0  0  0  0  0  0
   -7.5527    2.9260   -4.3881 H   0  0  0  0  0  0  0  0  0  0  0  0
   -7.5897    5.7460   -6.8005 H   0  0  0  0  0  0  0  0  0  0  0  0
   -7.3719    5.3484   -5.0636 H   0  0  0  0  0  0  0  0  0  0  0  0
   -8.9273    4.9336   -5.9114 H   0  0  0  0  0  0  0  0  0  0  0  0
   -8.0266    2.9729  -10.3039 H   0  0  0  0  0  0  0  0  0  0  0  0
   -6.3669    3.7143  -10.4870 H   0  0  0  0  0  0  0  0  0  0  0  0
   -7.8453    4.7332  -10.6988 H   0  0  0  0  0  0  0  0  0  0  0  0
   -6.3677    1.7199   -9.0458 H   0  0  0  0  0  0  0  0  0  0  0  0
   -6.3039   -1.3047   -9.1635 H   0  0  0  0  0  0  0  0  0  0  0  0
   -4.0466   -1.2406   -9.7900 H   0  0  0  0  0  0  0  0  0  0  0  0
   -1.5353   -0.9331   -9.2818 H   0  0  0  0  0  0  0  0  0  0  0  0
    3.3839   -2.3167  -12.2694 H   0  0  0  0  0  0  0  0  0  0  0  0
    3.6395   -3.4632  -10.8951 H   0  0  0  0  0  0  0  0  0  0  0  0
    5.0798   -0.7453  -11.2401 H   0  0  0  0  0  0  0  0  0  0  0  0
    5.3299   -1.9251   -9.8937 H   0  0  0  0  0  0  0  0  0  0  0  0
    5.7828   -2.3693  -11.5817 H   0  0  0  0  0  0  0  0  0  0  0  0
   -3.7701    3.7214   -0.5942 H   0  0  0  0  0  0  0  0  0  0  0  0
   -4.9468    2.9759   -1.7136 H   0  0  0  0  0  0  0  0  0  0  0  0
   -3.4546    5.5920   -2.3331 H   0  0  0  0  0  0  0  0  0  0  0  0
   -5.1179    5.4568   -1.6752 H   0  0  0  0  0  0  0  0  0  0  0  0
   -4.7681    4.8173   -3.3167 H   0  0  0  0  0  0  0  0  0  0  0  0
    0.7170   -0.0192   -2.7179 H   0  0  0  0  0  0  0  0  0  0  0  0
    1.6322   -1.8697   -1.3638 H   0  0  0  0  0  0  0  0  0  0  0  0
   -0.6013   -2.8013    4.2192 H   0  0  0  0  0  0  0  0  0  0  0  0
   -1.9251   -3.2673    3.1067 H   0  0  0  0  0  0  0  0  0  0  0  0
   -1.9091   -4.8884    4.9022 H   0  0  0  0  0  0  0  0  0  0  0  0
   -0.1210   -5.0987    4.7922 H   0  0  0  0  0  0  0  0  0  0  0  0
   -1.1875   -5.7389    3.4836 H   0  0  0  0  0  0  0  0  0  0  0  0
    9.3248   -4.4031   -5.5762 H   0  0  0  0  0  0  0  0  0  0  0  0
   10.7533   -3.6818   -4.7771 H   0  0  0  0  0  0  0  0  0  0  0  0
    9.6556   -6.5283   -4.2662 H   0  0  0  0  0  0  0  0  0  0  0  0
   11.0890   -6.1104   -5.2785 H   0  0  0  0  0  0  0  0  0  0  0  0
   11.1340   -5.7997   -3.5008 H   0  0  0  0  0  0  0  0  0  0  0  0
    7.6633   -5.2233    0.4295 H   0  0  0  0  0  0  0  0  0  0  0  0
    6.6978   -6.2665    2.6048 H   0  0  0  0  0  0  0  0  0  0  0  0
  1  2  2  0
  2  3  1  0
  3  4  2  0
  4  5  1  0
  5  6  1  0
  6  7  1  0
  7  8  1  0
  8  9  1  0
  7 10  2  0
 10 11  1  0
 10 12  1  0
 12 13  1  0
  4 14  1  0
 14 15  2  0
 15 16  1  0
 16 17  1  0
 17 18  1  0
 18 19  1  0
 19 20  1  0
 20 21  1  0
 19 22  2  0
 22 23  1  0
 23 24  1  0
 22 25  1  0
 16 26  2  0
 26 27  1  0
 15 28  1  0
 28 29  2  0
 29 30  1  0
 29 31  1  0
 31 32  1  0
 32 33  1  0
 33 34  2  0
 34 35  1  0
 35 36  1  0
 36 37  2  0
 37 38  1  0
 37 39  1  0
 39 40  1  0
 40 41  1  0
 39 42  2  0
 33 43  1  0
 43 44  2  3
 44 45  1  0
 45 46  1  0
 46 47  1  0
 47 48  2  0
 48 49  1  0
 49 50  1  0
 50 51  2  0
 51 52  1  0
 51 53  1  0
 53 54  1  0
 54 55  1  0
 53 56  2  0
 47 57  1  0
 57 58  2  3
 58 59  1  0
 59 60  1  0
 60 61  1  0
 61 62  2  0
 62 63  1  0
 63 64  1  0
 64 65  2  0
 65 66  1  0
 65 67  1  0
 67 68  1  0
 68 69  1  0
 67 70  2  0
 61 71  1  0
 71 72  2  3
 72 73  1  0
 73 74  2  0
 74 75  1  0
 75 76  2  0
 76 77  1  0
 77 78  1  0
 78 79  1  0
 79 80  1  0
 80 81  1  0
 79 82  2  0
 82 83  1  0
 82 84  1  0
 84 85  1  0
 76 86  1  0
 86 87  2  0
 87 88  1  0
 88 89  1  0
 89 90  1  0
 90 91  1  0
 91 92  1  0
 92 93  1  0
 91 94  2  0
 94 95  1  0
 95 96  1  0
 94 97  1  0
 88 98  2  0
 98 99  1  0
 87100  1  0
100101  2  0
101102  1  0
101103  1  0
103104  2  0
104105  1  0
105106  2  0
106107  1  0
107108  1  0
108109  1  0
109110  1  0
110111  1  0
109112  2  0
112113  1  0
112114  1  0
114115  1  0
106116  1  0
116117  2  0
117118  1  0
118119  1  0
119120  1  0
120121  1  0
121122  1  0
122123  1  0
121124  2  0
124125  1  0
125126  1  0
124127  1  0
118128  2  0
128129  1  0
117130  1  0
130131  2  0
131132  1  0
 27  1  1  0
 35 31  2  0
 49 45  2  0
 63 59  2  0
 99 73  1  0
129103  1  0
 26  3  1  0
 42 34  1  0
 56 48  1  0
 70 62  1  0
 98 75  1  0
128105  1  0
 12  5  2  0
 30 14  1  0
 84 77  2  0
102 86  1  0
114107  2  0
132116  1  0
 23 17  2  0
 95 89  2  0
125119  2  0
  1133  1  0
  2134  1  0
  8135  1  0
  8136  1  0
  9137  1  0
  9138  1  0
  9139  1  0
 20140  1  0
 20141  1  0
 21142  1  0
 21143  1  0
 21144  1  0
 28145  1  0
 36146  1  0
 38147  1  0
 38148  1  0
 38149  1  0
 41150  1  0
 41151  1  0
 41152  1  0
 42153  1  0
 43154  1  0
 44155  1  0
 50156  1  0
 52157  1  0
 52158  1  0
 52159  1  0
 55160  1  0
 55161  1  0
 55162  1  0
 56163  1  0
 57164  1  0
 58165  1  0
 64166  1  0
 66167  1  0
 66168  1  0
 66169  1  0
 69170  1  0
 69171  1  0
 69172  1  0
 70173  1  0
 71174  1  0
 72175  1  0
 74176  1  0
 80177  1  0
 80178  1  0
 81179  1  0
 81180  1  0
 81181  1  0
 92182  1  0
 92183  1  0
 93184  1  0
 93185  1  0
 93186  1  0
100187  1  0
104188  1  0
110189  1  0
110190  1  0
111191  1  0
111192  1  0
111193  1  0
122194  1  0
122195  1  0
123196  1  0
123197  1  0
123198  1  0
130199  1  0
131200  1  0
M  END

