
     RDKit          3D

250273  0  0  0  0  0  0  0  0999 V2000
    2.3741   -2.7868   11.0676 C   0  0  0  0  0  0  0  0  0  0  0  0
    1.9757   -1.5111   10.6698 C   0  0  0  0  0  0  0  0  0  0  0  0
    0.9091   -1.5222    9.7501 C   0  0  0  0  0  0  0  0  0  0  0  0
    0.2971   -0.3973    9.1538 C   0  0  0  0  0  0  0  0  0  0  0  0
    0.8572    0.9772    9.2904 C   0  0  0  0  0  0  0  0  0  0  0  0
    2.2300    1.2086    9.0833 C   0  0  0  0  0  0  0  0  0  0  0  0
    2.7429    2.5080    9.0915 C   0  0  0  0  0  0  0  0  0  0  0  0
    1.8861    3.5958    9.2701 C   0  0  0  0  0  0  0  0  0  0  0  0
    2.5438    5.2735    9.2241 S   0  0  0  0  0  0  0  0  0  0  0  0
    2.5718    5.4248    7.3969 C   0  0  0  0  0  0  0  0  0  0  0  0
    1.1628    5.4114    6.8070 C   0  0  0  0  0  0  0  0  0  0  0  0
    0.5266    3.3809    9.5238 C   0  0  0  0  0  0  0  0  0  0  0  0
   -0.3197    4.4256    9.7040 F   0  0  0  0  0  0  0  0  0  0  0  0
    0.0182    2.0757    9.5533 C   0  0  0  0  0  0  0  0  0  0  0  0
   -0.8153   -0.6519    8.3243 C   0  0  0  0  0  0  0  0  0  0  0  0
   -1.2790   -1.9424    8.0457 C   0  0  0  0  0  0  0  0  0  0  0  0
   -0.6189   -3.0607    8.5962 C   0  0  0  0  0  0  0  0  0  0  0  0
   -0.9770   -4.4381    8.2274 C   0  0  0  0  0  0  0  0  0  0  0  0
   -0.0677   -5.2082    7.4821 C   0  0  0  0  0  0  0  0  0  0  0  0
   -0.3532   -6.5434    7.1898 C   0  0  0  0  0  0  0  0  0  0  0  0
   -1.5540   -7.1159    7.6227 C   0  0  0  0  0  0  0  0  0  0  0  0
   -1.8868   -8.8445    7.2604 S   0  0  0  0  0  0  0  0  0  0  0  0
   -2.4962   -8.5590    5.5611 C   0  0  0  0  0  0  0  0  0  0  0  0
   -3.9777   -8.2087    5.5724 C   0  0  0  0  0  0  0  0  0  0  0  0
   -2.4695   -6.3483    8.3595 C   0  0  0  0  0  0  0  0  0  0  0  0
   -2.1848   -5.0112    8.6591 C   0  0  0  0  0  0  0  0  0  0  0  0
   -3.6249   -6.9058    8.8104 F   0  0  0  0  0  0  0  0  0  0  0  0
    0.4579   -2.8124    9.4557 C   0  0  0  0  0  0  0  0  0  0  0  0
    1.3940   -3.9263   10.3018 S   0  0  0  0  0  0  0  0  0  0  0  0
   -2.3662   -1.9703    7.1446 C   0  0  0  0  0  0  0  0  0  0  0  0
   -2.7464   -0.6919    6.7254 C   0  0  0  0  0  0  0  0  0  0  0  0
   -1.7318    0.4434    7.4435 S   0  0  0  0  0  0  0  0  0  0  0  0
   -3.7572   -0.3539    5.7096 C   0  0  0  0  0  0  0  0  0  0  0  0
   -4.0574    0.9450    5.3206 C   0  0  0  0  0  0  0  0  0  0  0  0
   -4.8520    1.0076    4.1671 C   0  0  0  0  0  0  0  0  0  0  0  0
   -5.1653    2.1800    3.4567 C   0  0  0  0  0  0  0  0  0  0  0  0
   -4.7728    3.5059    3.9443 C   0  0  0  0  0  0  0  0  0  0  0  0
   -3.4303    3.8971    3.9304 C   0  0  0  0  0  0  0  0  0  0  0  0
   -3.0591    5.1570    4.4119 C   0  0  0  0  0  0  0  0  0  0  0  0
   -4.0343    6.0302    4.9137 C   0  0  0  0  0  0  0  0  0  0  0  0
   -3.5607    7.6508    5.5232 S   0  0  0  0  0  0  0  0  0  0  0  0
   -3.7713    8.4981    3.9144 C   0  0  0  0  0  0  0  0  0  0  0  0
   -2.4486    9.1228    3.4847 C   0  0  0  0  0  0  0  0  0  0  0  0
   -5.3824    5.6371    4.9402 C   0  0  0  0  0  0  0  0  0  0  0  0
   -6.3307    6.4837    5.4082 F   0  0  0  0  0  0  0  0  0  0  0  0
   -5.7531    4.3808    4.4429 C   0  0  0  0  0  0  0  0  0  0  0  0
   -5.8025    2.0244    2.2234 C   0  0  0  0  0  0  0  0  0  0  0  0
   -6.1891    0.7763    1.7212 C   0  0  0  0  0  0  0  0  0  0  0  0
   -5.9378   -0.4032    2.4721 C   0  0  0  0  0  0  0  0  0  0  0  0
   -6.3562   -1.7559    2.0125 C   0  0  0  0  0  0  0  0  0  0  0  0
   -7.0771   -2.5936    2.8810 C   0  0  0  0  0  0  0  0  0  0  0  0
   -7.4738   -3.8693    2.4709 C   0  0  0  0  0  0  0  0  0  0  0  0
   -7.2016   -4.3058    1.1719 C   0  0  0  0  0  0  0  0  0  0  0  0
   -7.8077   -5.9095    0.6292 S   0  0  0  0  0  0  0  0  0  0  0  0
   -6.1992   -6.7686    0.7695 C   0  0  0  0  0  0  0  0  0  0  0  0
   -5.7701   -6.9313    2.2217 C   0  0  0  0  0  0  0  0  0  0  0  0
   -6.5190   -3.4675    0.2873 C   0  0  0  0  0  0  0  0  0  0  0  0
   -6.0490   -2.2235    0.7243 C   0  0  0  0  0  0  0  0  0  0  0  0
   -6.3487   -3.8356   -1.0041 F   0  0  0  0  0  0  0  0  0  0  0  0
   -5.2248   -0.2455    3.6755 C   0  0  0  0  0  0  0  0  0  0  0  0
   -4.5254   -1.4362    4.6513 S   0  0  0  0  0  0  0  0  0  0  0  0
   -6.7270    0.8710    0.4226 C   0  0  0  0  0  0  0  0  0  0  0  0
   -6.6266    2.1612   -0.1175 C   0  0  0  0  0  0  0  0  0  0  0  0
   -6.0303    3.2070    1.0540 S   0  0  0  0  0  0  0  0  0  0  0  0
   -6.7559    2.5338   -1.5414 C   0  0  0  0  0  0  0  0  0  0  0  0
   -7.1220    4.0913   -2.0742 S   0  0  0  0  0  0  0  0  0  0  0  0
   -6.8315    3.8426   -3.7041 C   0  0  0  0  0  0  0  0  0  0  0  0
   -6.4560    2.5036   -3.8736 C   0  0  0  0  0  0  0  0  0  0  0  0
   -6.3667    1.7834   -2.6670 C   0  0  0  0  0  0  0  0  0  0  0  0
   -5.8091    0.5026   -2.6628 C   0  0  0  0  0  0  0  0  0  0  0  0
   -5.4178   -0.1000   -3.8707 C   0  0  0  0  0  0  0  0  0  0  0  0
   -4.7608   -1.4526   -3.8315 C   0  0  0  0  0  0  0  0  0  0  0  0
   -5.5671    0.5975   -5.0918 C   0  0  0  0  0  0  0  0  0  0  0  0
   -5.1711   -0.0303   -6.2838 O   0  0  0  0  0  0  0  0  0  0  0  0
   -5.2689    0.5551   -7.5802 C   0  0  0  0  0  0  0  0  0  0  0  0
   -6.1084    1.8994   -5.0890 C   0  0  0  0  0  0  0  0  0  0  0  0
   -6.8300    4.9261   -4.7122 C   0  0  0  0  0  0  0  0  0  0  0  0
   -5.7863    5.2540   -5.4987 C   0  0  0  0  0  0  0  0  0  0  0  0
   -4.4220    4.6704   -5.4274 C   0  0  0  0  0  0  0  0  0  0  0  0
   -3.5203    4.6885   -6.4931 C   0  0  0  0  0  0  0  0  0  0  0  0
   -2.2851    4.0879   -6.1799 C   0  0  0  0  0  0  0  0  0  0  0  0
   -1.1743    3.9399   -7.0411 C   0  0  0  0  0  0  0  0  0  0  0  0
   -1.1371    4.5721   -8.3670 C   0  0  0  0  0  0  0  0  0  0  0  0
   -0.9837    5.9633   -8.4586 C   0  0  0  0  0  0  0  0  0  0  0  0
   -0.9003    6.5828   -9.7043 C   0  0  0  0  0  0  0  0  0  0  0  0
   -0.9914    5.8178  -10.8717 C   0  0  0  0  0  0  0  0  0  0  0  0
   -0.9191    6.6327  -12.4717 S   0  0  0  0  0  0  0  0  0  0  0  0
   -2.6712    7.1620  -12.4732 C   0  0  0  0  0  0  0  0  0  0  0  0
   -3.5935    6.0189  -12.8713 C   0  0  0  0  0  0  0  0  0  0  0  0
   -1.1291    4.4224  -10.7861 C   0  0  0  0  0  0  0  0  0  0  0  0
   -1.1832    3.6708  -11.9142 F   0  0  0  0  0  0  0  0  0  0  0  0
   -1.2001    3.7983   -9.5369 C   0  0  0  0  0  0  0  0  0  0  0  0
   -0.0512    3.2784   -6.5307 C   0  0  0  0  0  0  0  0  0  0  0  0
    0.0092    2.8068   -5.2189 C   0  0  0  0  0  0  0  0  0  0  0  0
   -1.0860    2.9821   -4.3466 C   0  0  0  0  0  0  0  0  0  0  0  0
   -1.0143    2.5667   -2.9442 C   0  0  0  0  0  0  0  0  0  0  0  0
   -0.3528    3.3871   -2.0249 C   0  0  0  0  0  0  0  0  0  0  0  0
   -0.2226    2.9875   -0.6949 C   0  0  0  0  0  0  0  0  0  0  0  0
   -0.7287    1.7517   -0.2798 C   0  0  0  0  0  0  0  0  0  0  0  0
   -0.4625    1.2190    1.4096 S   0  0  0  0  0  0  0  0  0  0  0  0
    1.1260    0.3660    1.0891 C   0  0  0  0  0  0  0  0  0  0  0  0
    2.2586    1.3413    0.7807 C   0  0  0  0  0  0  0  0  0  0  0  0
   -1.4226    0.9363   -1.1908 C   0  0  0  0  0  0  0  0  0  0  0  0
   -1.5679    1.3440   -2.5233 C   0  0  0  0  0  0  0  0  0  0  0  0
   -1.9448   -0.2512   -0.7983 F   0  0  0  0  0  0  0  0  0  0  0  0
   -2.2167    3.6228   -4.8636 C   0  0  0  0  0  0  0  0  0  0  0  0
   -3.6585    3.9866   -4.0859 S   0  0  0  0  0  0  0  0  0  0  0  0
    1.2070    2.1422   -4.9203 C   0  0  0  0  0  0  0  0  0  0  0  0
    2.0944    2.0957   -5.9966 C   0  0  0  0  0  0  0  0  0  0  0  0
    1.3770    2.8752   -7.3146 S   0  0  0  0  0  0  0  0  0  0  0  0
    3.3001    1.2464   -6.0234 C   0  0  0  0  0  0  0  0  0  0  0  0
    3.5478    0.0324   -4.8950 S   0  0  0  0  0  0  0  0  0  0  0  0
    4.8786   -0.6792   -5.6229 C   0  0  0  0  0  0  0  0  0  0  0  0
    5.1494    0.0171   -6.8022 C   0  0  0  0  0  0  0  0  0  0  0  0
    4.2862    1.1130   -7.0155 C   0  0  0  0  0  0  0  0  0  0  0  0
    4.4957    1.9561   -8.1123 C   0  0  0  0  0  0  0  0  0  0  0  0
    5.4973    1.6466   -9.0446 C   0  0  0  0  0  0  0  0  0  0  0  0
    5.7382    2.5657  -10.2098 C   0  0  0  0  0  0  0  0  0  0  0  0
    6.3369    0.5284   -8.8563 C   0  0  0  0  0  0  0  0  0  0  0  0
    7.2984    0.2614   -9.8538 O   0  0  0  0  0  0  0  0  0  0  0  0
    8.4162   -0.6257   -9.7536 C   0  0  0  0  0  0  0  0  0  0  0  0
    6.1780   -0.2755   -7.7033 C   0  0  0  0  0  0  0  0  0  0  0  0
    5.4685   -1.9198   -5.1226 C   0  0  0  0  0  0  0  0  0  0  0  0
    5.9480   -1.9237   -3.8829 C   0  0  0  0  0  0  0  0  0  0  0  0
    5.7127   -3.0423   -2.9647 C   0  0  0  0  0  0  0  0  0  0  0  0
    6.1423   -4.3582   -3.0994 C   0  0  0  0  0  0  0  0  0  0  0  0
    5.8125   -5.1487   -1.9808 C   0  0  0  0  0  0  0  0  0  0  0  0
    6.1719   -6.4949   -1.7719 C   0  0  0  0  0  0  0  0  0  0  0  0
    7.1049   -7.1891   -2.6850 C   0  0  0  0  0  0  0  0  0  0  0  0
    8.3684   -6.6293   -2.9449 C   0  0  0  0  0  0  0  0  0  0  0  0
    9.2600   -7.2646   -3.8073 C   0  0  0  0  0  0  0  0  0  0  0  0
    8.9159   -8.4909   -4.3875 C   0  0  0  0  0  0  0  0  0  0  0  0
   10.0895   -9.3393   -5.4514 S   0  0  0  0  0  0  0  0  0  0  0  0
   11.1165  -10.0293   -4.0976 C   0  0  0  0  0  0  0  0  0  0  0  0
   10.3232  -11.0188   -3.2460 C   0  0  0  0  0  0  0  0  0  0  0  0
    7.6515   -9.0541   -4.1420 C   0  0  0  0  0  0  0  0  0  0  0  0
    7.2983  -10.2336   -4.7148 F   0  0  0  0  0  0  0  0  0  0  0  0
    6.7466   -8.4039   -3.3021 C   0  0  0  0  0  0  0  0  0  0  0  0
    5.7330   -7.0989   -0.5871 C   0  0  0  0  0  0  0  0  0  0  0  0
    5.0020   -6.4045    0.3871 C   0  0  0  0  0  0  0  0  0  0  0  0
    4.6645   -5.0424    0.2014 C   0  0  0  0  0  0  0  0  0  0  0  0
    3.9736   -4.2432    1.2425 C   0  0  0  0  0  0  0  0  0  0  0  0
    2.7373   -4.6503    1.7731 C   0  0  0  0  0  0  0  0  0  0  0  0
    2.1096   -3.8931    2.7692 C   0  0  0  0  0  0  0  0  0  0  0  0
    2.6653   -2.6771    3.1986 C   0  0  0  0  0  0  0  0  0  0  0  0
    1.7469   -1.6473    4.3560 S   0  0  0  0  0  0  0  0  0  0  0  0
    2.9893   -1.6264    5.7003 C   0  0  0  0  0  0  0  0  0  0  0  0
    3.3986   -0.1889    5.9992 C   0  0  0  0  0  0  0  0  0  0  0  0
    3.8653   -2.2357    2.6215 C   0  0  0  0  0  0  0  0  0  0  0  0
    4.5449   -3.0381    1.6977 C   0  0  0  0  0  0  0  0  0  0  0  0
    4.4080   -1.0424    2.9819 F   0  0  0  0  0  0  0  0  0  0  0  0
    5.0863   -4.4518   -1.0069 C   0  0  0  0  0  0  0  0  0  0  0  0
    4.8930   -2.8586   -1.5124 S   0  0  0  0  0  0  0  0  0  0  0  0
    4.7347   -7.1852    1.5280 C   0  0  0  0  0  0  0  0  0  0  0  0
    5.2592   -8.4759    1.4436 C   0  0  0  0  0  0  0  0  0  0  0  0
    6.0546   -8.6545   -0.0266 S   0  0  0  0  0  0  0  0  0  0  0  0
    3.1695   -3.0041   11.7663 H   0  0  0  0  0  0  0  0  0  0  0  0
    2.4431   -0.6197   11.0569 H   0  0  0  0  0  0  0  0  0  0  0  0
    2.9067    0.3869    8.8945 H   0  0  0  0  0  0  0  0  0  0  0  0
    3.8036    2.6687    8.9314 H   0  0  0  0  0  0  0  0  0  0  0  0
    3.1819    4.6093    6.9542 H   0  0  0  0  0  0  0  0  0  0  0  0
    3.0563    6.3912    7.1455 H   0  0  0  0  0  0  0  0  0  0  0  0
    0.4555    5.9514    7.4712 H   0  0  0  0  0  0  0  0  0  0  0  0
    1.1655    5.9025    5.8112 H   0  0  0  0  0  0  0  0  0  0  0  0
    0.8228    4.3633    6.6764 H   0  0  0  0  0  0  0  0  0  0  0  0
   -1.0391    1.9247    9.7491 H   0  0  0  0  0  0  0  0  0  0  0  0
    0.8621   -4.7710    7.1365 H   0  0  0  0  0  0  0  0  0  0  0  0
    0.3587   -7.1283    6.6228 H   0  0  0  0  0  0  0  0  0  0  0  0
   -1.9174   -7.7595    5.0613 H   0  0  0  0  0  0  0  0  0  0  0  0
   -2.3538   -9.4955    4.9805 H   0  0  0  0  0  0  0  0  0  0  0  0
   -4.5627   -9.0651    5.9621 H   0  0  0  0  0  0  0  0  0  0  0  0
   -4.1664   -7.3096    6.1935 H   0  0  0  0  0  0  0  0  0  0  0  0
   -4.3070   -7.9951    4.5367 H   0  0  0  0  0  0  0  0  0  0  0  0
   -2.8893   -4.4293    9.2387 H   0  0  0  0  0  0  0  0  0  0  0  0
   -2.8371   -2.8765    6.7882 H   0  0  0  0  0  0  0  0  0  0  0  0
   -3.6409    1.8174    5.8081 H   0  0  0  0  0  0  0  0  0  0  0  0
   -2.6678    3.2230    3.5603 H   0  0  0  0  0  0  0  0  0  0  0  0
   -2.0165    5.4535    4.4022 H   0  0  0  0  0  0  0  0  0  0  0  0
   -4.1353    7.8133    3.1182 H   0  0  0  0  0  0  0  0  0  0  0  0
   -4.5211    9.3057    4.0466 H   0  0  0  0  0  0  0  0  0  0  0  0
   -2.6011    9.7308    2.5676 H   0  0  0  0  0  0  0  0  0  0  0  0
   -1.7046    8.3343    3.2598 H   0  0  0  0  0  0  0  0  0  0  0  0
   -2.0576    9.7725    4.2958 H   0  0  0  0  0  0  0  0  0  0  0  0
   -6.7958    4.0937    4.4610 H   0  0  0  0  0  0  0  0  0  0  0  0
   -7.3152   -2.2695    3.8833 H   0  0  0  0  0  0  0  0  0  0  0  0
   -7.9891   -4.5121    3.1731 H   0  0  0  0  0  0  0  0  0  0  0  0
   -5.4094   -6.2328    0.1962 H   0  0  0  0  0  0  0  0  0  0  0  0
   -6.3152   -7.7761    0.3198 H   0  0  0  0  0  0  0  0  0  0  0  0
   -6.6216   -7.2751    2.8455 H   0  0  0  0  0  0  0  0  0  0  0  0
   -5.3872   -5.9688    2.6228 H   0  0  0  0  0  0  0  0  0  0  0  0
   -4.9578   -7.6826    2.2832 H   0  0  0  0  0  0  0  0  0  0  0  0
   -5.4545   -1.6213    0.0498 H   0  0  0  0  0  0  0  0  0  0  0  0
   -7.1327    0.0426   -0.1235 H   0  0  0  0  0  0  0  0  0  0  0  0
   -5.6159   -0.0059   -1.7420 H   0  0  0  0  0  0  0  0  0  0  0  0
   -5.1596   -2.0563   -2.9907 H   0  0  0  0  0  0  0  0  0  0  0  0
   -3.6632   -1.3317   -3.6759 H   0  0  0  0  0  0  0  0  0  0  0  0
   -4.9357   -2.0145   -4.7758 H   0  0  0  0  0  0  0  0  0  0  0  0
   -4.6431    1.4643   -7.6410 H   0  0  0  0  0  0  0  0  0  0  0  0
   -4.9301   -0.1913   -8.3334 H   0  0  0  0  0  0  0  0  0  0  0  0
   -6.3269    0.7996   -7.8028 H   0  0  0  0  0  0  0  0  0  0  0  0
   -6.2227    2.4502   -6.0066 H   0  0  0  0  0  0  0  0  0  0  0  0
   -7.7337    5.4990   -4.8157 H   0  0  0  0  0  0  0  0  0  0  0  0
   -5.9525    6.0187   -6.2514 H   0  0  0  0  0  0  0  0  0  0  0  0
   -3.7508    5.1075   -7.4622 H   0  0  0  0  0  0  0  0  0  0  0  0
   -0.9224    6.5667   -7.5600 H   0  0  0  0  0  0  0  0  0  0  0  0
   -0.7682    7.6606   -9.7609 H   0  0  0  0  0  0  0  0  0  0  0  0
   -2.9560    7.5558  -11.4746 H   0  0  0  0  0  0  0  0  0  0  0  0
   -2.7793    7.9857  -13.2107 H   0  0  0  0  0  0  0  0  0  0  0  0
   -3.5232    5.1816  -12.1472 H   0  0  0  0  0  0  0  0  0  0  0  0
   -4.6422    6.3817  -12.8795 H   0  0  0  0  0  0  0  0  0  0  0  0
   -3.3310    5.6571  -13.8876 H   0  0  0  0  0  0  0  0  0  0  0  0
   -1.3001    2.7199   -9.4795 H   0  0  0  0  0  0  0  0  0  0  0  0
    0.0786    4.3247   -2.3469 H   0  0  0  0  0  0  0  0  0  0  0  0
    0.3014    3.6295    0.0029 H   0  0  0  0  0  0  0  0  0  0  0  0
    1.3895   -0.1879    2.0059 H   0  0  0  0  0  0  0  0  0  0  0  0
    1.0119   -0.3687    0.2727 H   0  0  0  0  0  0  0  0  0  0  0  0
    2.1679    1.7036   -0.2604 H   0  0  0  0  0  0  0  0  0  0  0  0
    2.2368    2.2062    1.4759 H   0  0  0  0  0  0  0  0  0  0  0  0
    3.2336    0.8137    0.8762 H   0  0  0  0  0  0  0  0  0  0  0  0
   -2.0842    0.7043   -3.2307 H   0  0  0  0  0  0  0  0  0  0  0  0
    1.3957    1.6658   -3.9603 H   0  0  0  0  0  0  0  0  0  0  0  0
    3.9204    2.8517   -8.2368 H   0  0  0  0  0  0  0  0  0  0  0  0
    6.5961    3.2465   -9.9977 H   0  0  0  0  0  0  0  0  0  0  0  0
    5.9502    1.9818  -11.1292 H   0  0  0  0  0  0  0  0  0  0  0  0
    4.8386    3.1850  -10.4216 H   0  0  0  0  0  0  0  0  0  0  0  0
    8.1874   -1.5154   -9.1471 H   0  0  0  0  0  0  0  0  0  0  0  0
    8.6461   -1.0035  -10.7705 H   0  0  0  0  0  0  0  0  0  0  0  0
    9.2888   -0.0799   -9.3470 H   0  0  0  0  0  0  0  0  0  0  0  0
    6.8257   -1.1187   -7.5004 H   0  0  0  0  0  0  0  0  0  0  0  0
    5.0890   -2.8310   -5.5486 H   0  0  0  0  0  0  0  0  0  0  0  0
    6.2102   -0.9853   -3.4229 H   0  0  0  0  0  0  0  0  0  0  0  0
    6.6811   -4.7138   -3.9558 H   0  0  0  0  0  0  0  0  0  0  0  0
    8.6444   -5.6895   -2.4801 H   0  0  0  0  0  0  0  0  0  0  0  0
   10.2145   -6.8043   -4.0306 H   0  0  0  0  0  0  0  0  0  0  0  0
   11.9766  -10.5593   -4.5571 H   0  0  0  0  0  0  0  0  0  0  0  0
   11.5223   -9.2094   -3.4664 H   0  0  0  0  0  0  0  0  0  0  0  0
    9.6174  -10.4717   -2.5930 H   0  0  0  0  0  0  0  0  0  0  0  0
   11.0157  -11.6004   -2.6026 H   0  0  0  0  0  0  0  0  0  0  0  0
    9.7605  -11.7184   -3.8999 H   0  0  0  0  0  0  0  0  0  0  0  0
    5.7759   -8.8436   -3.1103 H   0  0  0  0  0  0  0  0  0  0  0  0
    2.2612   -5.5570    1.4244 H   0  0  0  0  0  0  0  0  0  0  0  0
    1.1662   -4.2261    3.1815 H   0  0  0  0  0  0  0  0  0  0  0  0
    2.5287   -2.0622    6.6120 H   0  0  0  0  0  0  0  0  0  0  0  0
    3.8889   -2.2123    5.4387 H   0  0  0  0  0  0  0  0  0  0  0  0
    4.1053   -0.1736    6.8551 H   0  0  0  0  0  0  0  0  0  0  0  0
    3.9046    0.2717    5.1297 H   0  0  0  0  0  0  0  0  0  0  0  0
    2.5040    0.4099    6.2569 H   0  0  0  0  0  0  0  0  0  0  0  0
    5.4943   -2.7059    1.3112 H   0  0  0  0  0  0  0  0  0  0  0  0
    4.1976   -6.8308    2.3993 H   0  0  0  0  0  0  0  0  0  0  0  0
    5.1792   -9.2313    2.2118 H   0  0  0  0  0  0  0  0  0  0  0  0
  1  2  2  0
  2  3  1  0
  3  4  2  0
  4  5  1  0
  5  6  2  0
  6  7  1  0
  7  8  2  0
  8  9  1  0
  9 10  1  0
 10 11  1  0
  8 12  1  0
 12 13  1  0
 12 14  2  0
  4 15  1  0
 15 16  2  0
 16 17  1  0
 17 18  1  0
 18 19  2  0
 19 20  1  0
 20 21  2  0
 21 22  1  0
 22 23  1  0
 23 24  1  0
 21 25  1  0
 25 26  2  0
 25 27  1  0
 17 28  2  0
 28 29  1  0
 16 30  1  0
 30 31  2  0
 31 32  1  0
 31 33  1  0
 33 34  2  0
 34 35  1  0
 35 36  2  0
 36 37  1  0
 37 38  2  0
 38 39  1  0
 39 40  2  0
 40 41  1  0
 41 42  1  0
 42 43  1  0
 40 44  1  0
 44 45  1  0
 44 46  2  0
 36 47  1  0
 47 48  2  0
 48 49  1  0
 49 50  1  0
 50 51  2  0
 51 52  1  0
 52 53  2  0
 53 54  1  0
 54 55  1  0
 55 56  1  0
 53 57  1  0
 57 58  2  0
 57 59  1  0
 49 60  2  0
 60 61  1  0
 48 62  1  0
 62 63  2  0
 63 64  1  0
 63 65  1  0
 65 66  1  0
 66 67  1  0
 67 68  2  0
 68 69  1  0
 69 70  1  0
 70 71  2  0
 71 72  1  0
 71 73  1  0
 73 74  1  0
 74 75  1  0
 73 76  2  0
 67 77  1  0
 77 78  2  3
 78 79  1  0
 79 80  2  0
 80 81  1  0
 81 82  2  0
 82 83  1  0
 83 84  2  0
 84 85  1  0
 85 86  2  0
 86 87  1  0
 87 88  1  0
 88 89  1  0
 86 90  1  0
 90 91  1  0
 90 92  2  0
 82 93  1  0
 93 94  2  0
 94 95  1  0
 95 96  1  0
 96 97  2  0
 97 98  1  0
 98 99  2  0
 99100  1  0
100101  1  0
101102  1  0
 99103  1  0
103104  2  0
103105  1  0
 95106  2  0
106107  1  0
 94108  1  0
108109  2  0
109110  1  0
109111  1  0
111112  1  0
112113  1  0
113114  2  0
114115  1  0
115116  1  0
116117  2  0
117118  1  0
117119  1  0
119120  1  0
120121  1  0
119122  2  0
113123  1  0
123124  2  3
124125  1  0
125126  2  0
126127  1  0
127128  2  0
128129  1  0
129130  2  0
130131  1  0
131132  2  0
132133  1  0
133134  1  0
134135  1  0
132136  1  0
136137  1  0
136138  2  0
128139  1  0
139140  2  0
140141  1  0
141142  1  0
142143  2  0
143144  1  0
144145  2  0
145146  1  0
146147  1  0
147148  1  0
145149  1  0
149150  2  0
149151  1  0
141152  2  0
152153  1  0
140154  1  0
154155  2  0
155156  1  0
 29  1  1  0
 61 33  1  0
 69 65  2  0
107 79  1  0
115111  2  0
153125  1  0
 28  3  1  0
 60 35  1  0
 76 68  1  0
106 81  1  0
122114  1  0
152127  1  0
 14  5  1  0
 32 15  1  0
 46 37  1  0
 64 47  1  0
 92 83  1  0
110 93  1  0
138129  1  0
156139  1  0
 26 18  1  0
 58 50  1  0
104 96  1  0
150142  1  0
  1157  1  0
  2158  1  0
  6159  1  0
  7160  1  0
 10161  1  0
 10162  1  0
 11163  1  0
 11164  1  0
 11165  1  0
 14166  1  0
 19167  1  0
 20168  1  0
 23169  1  0
 23170  1  0
 24171  1  0
 24172  1  0
 24173  1  0
 26174  1  0
 30175  1  0
 34176  1  0
 38177  1  0
 39178  1  0
 42179  1  0
 42180  1  0
 43181  1  0
 43182  1  0
 43183  1  0
 46184  1  0
 51185  1  0
 52186  1  0
 55187  1  0
 55188  1  0
 56189  1  0
 56190  1  0
 56191  1  0
 58192  1  0
 62193  1  0
 70194  1  0
 72195  1  0
 72196  1  0
 72197  1  0
 75198  1  0
 75199  1  0
 75200  1  0
 76201  1  0
 77202  1  0
 78203  1  0
 80204  1  0
 84205  1  0
 85206  1  0
 88207  1  0
 88208  1  0
 89209  1  0
 89210  1  0
 89211  1  0
 92212  1  0
 97213  1  0
 98214  1  0
101215  1  0
101216  1  0
102217  1  0
102218  1  0
102219  1  0
104220  1  0
108221  1  0
116222  1  0
118223  1  0
118224  1  0
118225  1  0
121226  1  0
121227  1  0
121228  1  0
122229  1  0
123230  1  0
124231  1  0
126232  1  0
130233  1  0
131234  1  0
134235  1  0
134236  1  0
135237  1  0
135238  1  0
135239  1  0
138240  1  0
143241  1  0
144242  1  0
147243  1  0
147244  1  0
148245  1  0
148246  1  0
148247  1  0
150248  1  0
154249  1  0
155250  1  0
M  END

