
     RDKit          3D

224244  0  0  0  0  0  0  0  0999 V2000
    3.9430   -3.9328   -5.4484 C   0  0  0  0  0  0  0  0  0  0  0  0
    2.9748   -2.9783   -5.1473 C   0  0  0  0  0  0  0  0  0  0  0  0
    3.4792   -1.6677   -5.1235 C   0  0  0  0  0  0  0  0  0  0  0  0
    2.7428   -0.4958   -4.8614 C   0  0  0  0  0  0  0  0  0  0  0  0
    1.2921   -0.5397   -4.6065 C   0  0  0  0  0  0  0  0  0  0  0  0
    0.7966   -0.3891   -3.3041 C   0  0  0  0  0  0  0  0  0  0  0  0
   -0.5715   -0.5305   -3.0552 C   0  0  0  0  0  0  0  0  0  0  0  0
   -1.4536   -0.7934   -4.1073 C   0  0  0  0  0  0  0  0  0  0  0  0
   -3.1988   -1.0376   -3.7658 S   0  0  0  0  0  0  0  0  0  0  0  0
   -3.0482   -2.8555   -3.7411 C   0  0  0  0  0  0  0  0  0  0  0  0
   -4.4044   -3.4885   -3.4657 C   0  0  0  0  0  0  0  0  0  0  0  0
   -0.9681   -0.8983   -5.4191 C   0  0  0  0  0  0  0  0  0  0  0  0
   -1.8152   -1.1383   -6.4507 F   0  0  0  0  0  0  0  0  0  0  0  0
    0.4030   -0.7903   -5.6636 C   0  0  0  0  0  0  0  0  0  0  0  0
    3.4484    0.7161   -4.8736 C   0  0  0  0  0  0  0  0  0  0  0  0
    4.8183    0.7885   -5.1431 C   0  0  0  0  0  0  0  0  0  0  0  0
    5.5597   -0.3836   -5.4148 C   0  0  0  0  0  0  0  0  0  0  0  0
    7.0076   -0.3471   -5.7197 C   0  0  0  0  0  0  0  0  0  0  0  0
    7.4856    0.3960   -6.8090 C   0  0  0  0  0  0  0  0  0  0  0  0
    8.8562    0.4377   -7.0878 C   0  0  0  0  0  0  0  0  0  0  0  0
    9.7593   -0.2655   -6.2823 C   0  0  0  0  0  0  0  0  0  0  0  0
   11.5178   -0.2143   -6.6580 S   0  0  0  0  0  0  0  0  0  0  0  0
   11.8388    1.3626   -5.7907 C   0  0  0  0  0  0  0  0  0  0  0  0
   11.9088    1.1678   -4.2817 C   0  0  0  0  0  0  0  0  0  0  0  0
    9.2856   -1.0313   -5.2085 C   0  0  0  0  0  0  0  0  0  0  0  0
    7.9168   -1.0653   -4.9251 C   0  0  0  0  0  0  0  0  0  0  0  0
   10.1472   -1.7395   -4.4369 F   0  0  0  0  0  0  0  0  0  0  0  0
    4.8499   -1.6001   -5.3910 C   0  0  0  0  0  0  0  0  0  0  0  0
    5.4204   -3.1552   -5.6804 S   0  0  0  0  0  0  0  0  0  0  0  0
    5.3210    2.0997   -5.0813 C   0  0  0  0  0  0  0  0  0  0  0  0
    4.3434    3.0543   -4.7997 C   0  0  0  0  0  0  0  0  0  0  0  0
    2.8630    2.2636   -4.5816 S   0  0  0  0  0  0  0  0  0  0  0  0
    4.6176    4.4945   -4.6054 C   0  0  0  0  0  0  0  0  0  0  0  0
    6.1267    5.0858   -4.1340 S   0  0  0  0  0  0  0  0  0  0  0  0
    5.6975    6.7063   -4.0112 C   0  0  0  0  0  0  0  0  0  0  0  0
    4.3422    6.8142   -4.3282 C   0  0  0  0  0  0  0  0  0  0  0  0
    3.7340    5.5862   -4.6605 C   0  0  0  0  0  0  0  0  0  0  0  0
    2.3689    5.5487   -4.9746 C   0  0  0  0  0  0  0  0  0  0  0  0
    1.6019    6.7250   -4.8947 C   0  0  0  0  0  0  0  0  0  0  0  0
    0.1278    6.6729   -5.1834 C   0  0  0  0  0  0  0  0  0  0  0  0
    2.2046    7.9460   -4.5179 C   0  0  0  0  0  0  0  0  0  0  0  0
    1.4010    9.0939   -4.4167 O   0  0  0  0  0  0  0  0  0  0  0  0
    1.8612   10.3641   -3.9689 C   0  0  0  0  0  0  0  0  0  0  0  0
    3.5884    7.9872   -4.2488 C   0  0  0  0  0  0  0  0  0  0  0  0
    6.5464    7.7422   -3.3950 C   0  0  0  0  0  0  0  0  0  0  0  0
    6.7867    7.8002   -2.0755 C   0  0  0  0  0  0  0  0  0  0  0  0
    6.0891    6.9599   -1.0817 C   0  0  0  0  0  0  0  0  0  0  0  0
    6.6704    6.3967    0.0560 C   0  0  0  0  0  0  0  0  0  0  0  0
    5.7787    5.5680    0.7661 C   0  0  0  0  0  0  0  0  0  0  0  0
    6.0623    4.8010    1.9161 C   0  0  0  0  0  0  0  0  0  0  0  0
    7.3829    4.8346    2.5746 C   0  0  0  0  0  0  0  0  0  0  0  0
    7.5074    5.3708    3.8657 C   0  0  0  0  0  0  0  0  0  0  0  0
    8.7608    5.4313    4.4827 C   0  0  0  0  0  0  0  0  0  0  0  0
    9.8974    4.9615    3.8145 C   0  0  0  0  0  0  0  0  0  0  0  0
   11.5080    5.0883    4.6016 S   0  0  0  0  0  0  0  0  0  0  0  0
   11.8259    6.8056    4.0501 C   0  0  0  0  0  0  0  0  0  0  0  0
   12.2845    6.8469    2.5969 C   0  0  0  0  0  0  0  0  0  0  0  0
    9.7703    4.3879    2.5409 C   0  0  0  0  0  0  0  0  0  0  0  0
   10.8570    3.8939    1.8985 F   0  0  0  0  0  0  0  0  0  0  0  0
    8.5179    4.3301    1.9205 C   0  0  0  0  0  0  0  0  0  0  0  0
    5.0241    3.9878    2.4090 C   0  0  0  0  0  0  0  0  0  0  0  0
    3.7627    3.9326    1.8032 C   0  0  0  0  0  0  0  0  0  0  0  0
    3.4741    4.7242    0.6806 C   0  0  0  0  0  0  0  0  0  0  0  0
    2.1723    4.6808   -0.0076 C   0  0  0  0  0  0  0  0  0  0  0  0
    1.9406    3.7332   -1.0142 C   0  0  0  0  0  0  0  0  0  0  0  0
    0.7410    3.7528   -1.7287 C   0  0  0  0  0  0  0  0  0  0  0  0
   -0.2333    4.7164   -1.4412 C   0  0  0  0  0  0  0  0  0  0  0  0
   -1.7693    4.7412   -2.3737 S   0  0  0  0  0  0  0  0  0  0  0  0
   -2.7199    3.7491   -1.1665 C   0  0  0  0  0  0  0  0  0  0  0  0
   -2.4265    2.2630   -1.3233 C   0  0  0  0  0  0  0  0  0  0  0  0
    0.0040    5.6745   -0.4439 C   0  0  0  0  0  0  0  0  0  0  0  0
    1.2059    5.6539    0.2722 C   0  0  0  0  0  0  0  0  0  0  0  0
   -0.9250    6.6265   -0.1702 F   0  0  0  0  0  0  0  0  0  0  0  0
    4.5052    5.5305    0.1962 C   0  0  0  0  0  0  0  0  0  0  0  0
    4.4685    6.5030   -1.1562 S   0  0  0  0  0  0  0  0  0  0  0  0
    2.8971    3.0119    2.4007 C   0  0  0  0  0  0  0  0  0  0  0  0
    3.4836    2.3487    3.4703 C   0  0  0  0  0  0  0  0  0  0  0  0
    5.0695    2.8864    3.6868 S   0  0  0  0  0  0  0  0  0  0  0  0
    2.8363    1.2680    4.2106 C   0  0  0  0  0  0  0  0  0  0  0  0
    2.5885   -0.2630    3.5668 S   0  0  0  0  0  0  0  0  0  0  0  0
    1.4024   -0.7653    4.6580 C   0  0  0  0  0  0  0  0  0  0  0  0
    1.1656    0.2968    5.5376 C   0  0  0  0  0  0  0  0  0  0  0  0
    1.9504    1.4317    5.2735 C   0  0  0  0  0  0  0  0  0  0  0  0
    1.7527    2.6174    5.9862 C   0  0  0  0  0  0  0  0  0  0  0  0
    0.7793    2.6626    6.9985 C   0  0  0  0  0  0  0  0  0  0  0  0
    0.5399    3.9429    7.7455 C   0  0  0  0  0  0  0  0  0  0  0  0
   -0.0087    1.5206    7.2807 C   0  0  0  0  0  0  0  0  0  0  0  0
   -0.9860    1.6064    8.2877 O   0  0  0  0  0  0  0  0  0  0  0  0
   -1.8673    0.5471    8.6492 C   0  0  0  0  0  0  0  0  0  0  0  0
    0.1947    0.3324    6.5457 C   0  0  0  0  0  0  0  0  0  0  0  0
    0.5639   -1.9685    4.4972 C   0  0  0  0  0  0  0  0  0  0  0  0
    0.8181   -2.9058    3.5763 C   0  0  0  0  0  0  0  0  0  0  0  0
   -0.1915   -3.9253    3.2340 C   0  0  0  0  0  0  0  0  0  0  0  0
   -1.8478   -3.7456    3.4636 S   0  0  0  0  0  0  0  0  0  0  0  0
   -2.3358   -5.1686    2.7048 C   0  0  0  0  0  0  0  0  0  0  0  0
   -1.1830   -5.8159    2.2503 C   0  0  0  0  0  0  0  0  0  0  0  0
    0.0081   -5.1221    2.5422 C   0  0  0  0  0  0  0  0  0  0  0  0
    1.2469   -5.6548    2.1766 C   0  0  0  0  0  0  0  0  0  0  0  0
    1.3024   -6.9013    1.5268 C   0  0  0  0  0  0  0  0  0  0  0  0
    2.6381   -7.4994    1.1703 C   0  0  0  0  0  0  0  0  0  0  0  0
    0.1119   -7.6117    1.2491 C   0  0  0  0  0  0  0  0  0  0  0  0
    0.2118   -8.8743    0.6376 O   0  0  0  0  0  0  0  0  0  0  0  0
   -0.8908   -9.7315    0.3664 C   0  0  0  0  0  0  0  0  0  0  0  0
   -1.1379   -7.0532    1.5992 C   0  0  0  0  0  0  0  0  0  0  0  0
   -3.7389   -5.5947    2.5408 C   0  0  0  0  0  0  0  0  0  0  0  0
   -4.6987   -5.0854    3.3198 C   0  0  0  0  0  0  0  0  0  0  0  0
   -6.1180   -5.4362    3.1995 C   0  0  0  0  0  0  0  0  0  0  0  0
   -6.7889   -5.9078    2.0686 C   0  0  0  0  0  0  0  0  0  0  0  0
   -8.1769   -6.0318    2.2768 C   0  0  0  0  0  0  0  0  0  0  0  0
   -9.1518   -6.4135    1.3243 C   0  0  0  0  0  0  0  0  0  0  0  0
   -8.7965   -6.7647   -0.0683 C   0  0  0  0  0  0  0  0  0  0  0  0
   -7.9340   -7.8380   -0.3356 C   0  0  0  0  0  0  0  0  0  0  0  0
   -7.6223   -8.1766   -1.6552 C   0  0  0  0  0  0  0  0  0  0  0  0
   -8.1606   -7.4395   -2.7197 C   0  0  0  0  0  0  0  0  0  0  0  0
   -7.7857   -7.9014   -4.4151 S   0  0  0  0  0  0  0  0  0  0  0  0
   -6.3454   -6.7909   -4.5878 C   0  0  0  0  0  0  0  0  0  0  0  0
   -5.0790   -7.4779   -4.0974 C   0  0  0  0  0  0  0  0  0  0  0  0
   -9.0246   -6.3691   -2.4554 C   0  0  0  0  0  0  0  0  0  0  0  0
   -9.5635   -5.6538   -3.4761 F   0  0  0  0  0  0  0  0  0  0  0  0
   -9.3368   -6.0305   -1.1352 C   0  0  0  0  0  0  0  0  0  0  0  0
  -10.4945   -6.4098    1.7553 C   0  0  0  0  0  0  0  0  0  0  0  0
  -10.8707   -6.0484    3.0533 C   0  0  0  0  0  0  0  0  0  0  0  0
   -9.9012   -5.6560    3.9918 C   0  0  0  0  0  0  0  0  0  0  0  0
  -10.2417   -5.2431    5.3623 C   0  0  0  0  0  0  0  0  0  0  0  0
  -10.1377   -6.1615    6.4160 C   0  0  0  0  0  0  0  0  0  0  0  0
  -10.2959   -5.7332    7.7364 C   0  0  0  0  0  0  0  0  0  0  0  0
  -10.5452   -4.3818    8.0112 C   0  0  0  0  0  0  0  0  0  0  0  0
  -10.6576   -3.8271    9.7171 S   0  0  0  0  0  0  0  0  0  0  0  0
   -8.8987   -3.3277    9.8472 C   0  0  0  0  0  0  0  0  0  0  0  0
   -7.9900   -4.5312   10.0763 C   0  0  0  0  0  0  0  0  0  0  0  0
  -10.6945   -3.4700    6.9552 C   0  0  0  0  0  0  0  0  0  0  0  0
  -10.5381   -3.8992    5.6348 C   0  0  0  0  0  0  0  0  0  0  0  0
  -10.9519   -2.1628    7.2079 F   0  0  0  0  0  0  0  0  0  0  0  0
   -8.5658   -5.6602    3.5691 C   0  0  0  0  0  0  0  0  0  0  0  0
   -7.2220   -5.1678    4.4406 S   0  0  0  0  0  0  0  0  0  0  0  0
  -12.2566   -6.1236    3.2753 C   0  0  0  0  0  0  0  0  0  0  0  0
  -12.9643   -6.5524    2.1549 C   0  0  0  0  0  0  0  0  0  0  0  0
  -11.8772   -6.8344    0.8946 S   0  0  0  0  0  0  0  0  0  0  0  0
    3.7710   -4.9980   -5.5244 H   0  0  0  0  0  0  0  0  0  0  0  0
    1.9416   -3.2350   -4.9503 H   0  0  0  0  0  0  0  0  0  0  0  0
    1.4713   -0.1918   -2.4808 H   0  0  0  0  0  0  0  0  0  0  0  0
   -0.9435   -0.4436   -2.0436 H   0  0  0  0  0  0  0  0  0  0  0  0
   -2.3301   -3.1701   -2.9532 H   0  0  0  0  0  0  0  0  0  0  0  0
   -2.6835   -3.2050   -4.7290 H   0  0  0  0  0  0  0  0  0  0  0  0
   -4.3159   -4.5875   -3.5580 H   0  0  0  0  0  0  0  0  0  0  0  0
   -4.7414   -3.2396   -2.4389 H   0  0  0  0  0  0  0  0  0  0  0  0
   -5.1551   -3.1258   -4.1980 H   0  0  0  0  0  0  0  0  0  0  0  0
    0.7781   -0.9122   -6.6731 H   0  0  0  0  0  0  0  0  0  0  0  0
    6.7963    0.9428   -7.4424 H   0  0  0  0  0  0  0  0  0  0  0  0
    9.2143    1.0221   -7.9253 H   0  0  0  0  0  0  0  0  0  0  0  0
   11.0599    2.1119   -6.0427 H   0  0  0  0  0  0  0  0  0  0  0  0
   12.8164    1.7523   -6.1458 H   0  0  0  0  0  0  0  0  0  0  0  0
   12.6700    0.3991   -4.0285 H   0  0  0  0  0  0  0  0  0  0  0  0
   10.9227    0.8580   -3.8830 H   0  0  0  0  0  0  0  0  0  0  0  0
   12.1951    2.1254   -3.8013 H   0  0  0  0  0  0  0  0  0  0  0  0
    7.5637   -1.6480   -4.0830 H   0  0  0  0  0  0  0  0  0  0  0  0
    6.3619    2.3519   -5.2303 H   0  0  0  0  0  0  0  0  0  0  0  0
    1.8943    4.6316   -5.2773 H   0  0  0  0  0  0  0  0  0  0  0  0
   -0.4408    6.9297   -4.2647 H   0  0  0  0  0  0  0  0  0  0  0  0
   -0.1217    7.4027   -5.9814 H   0  0  0  0  0  0  0  0  0  0  0  0
   -0.1884    5.6649   -5.5244 H   0  0  0  0  0  0  0  0  0  0  0  0
    2.6485   10.7487   -4.6517 H   0  0  0  0  0  0  0  0  0  0  0  0
    1.0139   11.0778   -3.9719 H   0  0  0  0  0  0  0  0  0  0  0  0
    2.2561   10.2827   -2.9341 H   0  0  0  0  0  0  0  0  0  0  0  0
    4.0695    8.9102   -3.9597 H   0  0  0  0  0  0  0  0  0  0  0  0
    7.0782    8.4156   -4.0539 H   0  0  0  0  0  0  0  0  0  0  0  0
    7.5458    8.4866   -1.7189 H   0  0  0  0  0  0  0  0  0  0  0  0
    7.7070    6.5449    0.3265 H   0  0  0  0  0  0  0  0  0  0  0  0
    6.6402    5.7590    4.3842 H   0  0  0  0  0  0  0  0  0  0  0  0
    8.8474    5.8560    5.4739 H   0  0  0  0  0  0  0  0  0  0  0  0
   12.6291    7.2275    4.6895 H   0  0  0  0  0  0  0  0  0  0  0  0
   10.9191    7.4351    4.1804 H   0  0  0  0  0  0  0  0  0  0  0  0
   11.4514    6.5751    1.9161 H   0  0  0  0  0  0  0  0  0  0  0  0
   12.6179    7.8752    2.3455 H   0  0  0  0  0  0  0  0  0  0  0  0
   13.1318    6.1462    2.4401 H   0  0  0  0  0  0  0  0  0  0  0  0
    8.4320    3.8996    0.9309 H   0  0  0  0  0  0  0  0  0  0  0  0
    2.6983    2.9990   -1.2598 H   0  0  0  0  0  0  0  0  0  0  0  0
    0.5739    3.0256   -2.5114 H   0  0  0  0  0  0  0  0  0  0  0  0
   -2.4928    4.0727   -0.1281 H   0  0  0  0  0  0  0  0  0  0  0  0
   -3.8004    3.9235   -1.3519 H   0  0  0  0  0  0  0  0  0  0  0  0
   -2.5979    1.9448   -2.3731 H   0  0  0  0  0  0  0  0  0  0  0  0
   -1.3765    2.0460   -1.0381 H   0  0  0  0  0  0  0  0  0  0  0  0
   -3.0997    1.6853   -0.6575 H   0  0  0  0  0  0  0  0  0  0  0  0
    1.3907    6.4039    1.0322 H   0  0  0  0  0  0  0  0  0  0  0  0
    1.8888    2.8128    2.0562 H   0  0  0  0  0  0  0  0  0  0  0  0
    2.3430    3.4933    5.7547 H   0  0  0  0  0  0  0  0  0  0  0  0
    1.3427    4.6869    7.5486 H   0  0  0  0  0  0  0  0  0  0  0  0
   -0.4326    4.3777    7.4305 H   0  0  0  0  0  0  0  0  0  0  0  0
    0.5154    3.7452    8.8384 H   0  0  0  0  0  0  0  0  0  0  0  0
   -2.4942    0.2577    7.7811 H   0  0  0  0  0  0  0  0  0  0  0  0
   -1.2839   -0.3262    9.0096 H   0  0  0  0  0  0  0  0  0  0  0  0
   -2.5305    0.8894    9.4682 H   0  0  0  0  0  0  0  0  0  0  0  0
   -0.4052   -0.5423    6.7528 H   0  0  0  0  0  0  0  0  0  0  0  0
   -0.3387   -2.0458    5.0863 H   0  0  0  0  0  0  0  0  0  0  0  0
    1.7353   -2.8806    3.0081 H   0  0  0  0  0  0  0  0  0  0  0  0
    2.1623   -5.1260    2.4129 H   0  0  0  0  0  0  0  0  0  0  0  0
    2.6589   -7.7519    0.0905 H   0  0  0  0  0  0  0  0  0  0  0  0
    2.8001   -8.4206    1.7648 H   0  0  0  0  0  0  0  0  0  0  0  0
    3.4689   -6.7947    1.3788 H   0  0  0  0  0  0  0  0  0  0  0  0
   -0.5112  -10.6781   -0.0698 H   0  0  0  0  0  0  0  0  0  0  0  0
   -1.5769   -9.2535   -0.3637 H   0  0  0  0  0  0  0  0  0  0  0  0
   -1.4399   -9.9643    1.3035 H   0  0  0  0  0  0  0  0  0  0  0  0
   -2.0548   -7.5846    1.3894 H   0  0  0  0  0  0  0  0  0  0  0  0
   -3.9838   -6.3369    1.7931 H   0  0  0  0  0  0  0  0  0  0  0  0
   -4.4388   -4.4019    4.1187 H   0  0  0  0  0  0  0  0  0  0  0  0
   -6.3018   -6.0953    1.1230 H   0  0  0  0  0  0  0  0  0  0  0  0
   -7.5136   -8.4179    0.4747 H   0  0  0  0  0  0  0  0  0  0  0  0
   -6.9677   -9.0170   -1.8517 H   0  0  0  0  0  0  0  0  0  0  0  0
   -6.2265   -6.5459   -5.6641 H   0  0  0  0  0  0  0  0  0  0  0  0
   -6.5064   -5.8410   -4.0373 H   0  0  0  0  0  0  0  0  0  0  0  0
   -4.9465   -8.4515   -4.6149 H   0  0  0  0  0  0  0  0  0  0  0  0
   -4.1987   -6.8418   -4.3151 H   0  0  0  0  0  0  0  0  0  0  0  0
   -5.1316   -7.6515   -3.0049 H   0  0  0  0  0  0  0  0  0  0  0  0
  -10.0021   -5.1969   -0.9453 H   0  0  0  0  0  0  0  0  0  0  0  0
   -9.8962   -7.1975    6.2173 H   0  0  0  0  0  0  0  0  0  0  0  0
  -10.1921   -6.4428    8.5471 H   0  0  0  0  0  0  0  0  0  0  0  0
   -8.5757   -2.7765    8.9370 H   0  0  0  0  0  0  0  0  0  0  0  0
   -8.7987   -2.6427   10.7160 H   0  0  0  0  0  0  0  0  0  0  0  0
   -6.9536   -4.1806   10.2637 H   0  0  0  0  0  0  0  0  0  0  0  0
   -8.3351   -5.1106   10.9589 H   0  0  0  0  0  0  0  0  0  0  0  0
   -7.9780   -5.1891    9.1844 H   0  0  0  0  0  0  0  0  0  0  0  0
  -10.6049   -3.1822    4.8247 H   0  0  0  0  0  0  0  0  0  0  0  0
  -12.7347   -5.8818    4.2149 H   0  0  0  0  0  0  0  0  0  0  0  0
  -14.0392   -6.6837    2.1059 H   0  0  0  0  0  0  0  0  0  0  0  0
  1  2  2  0
  2  3  1  0
  3  4  2  0
  4  5  1  0
  5  6  2  0
  6  7  1  0
  7  8  2  0
  8  9  1  0
  9 10  1  0
 10 11  1  0
  8 12  1  0
 12 13  1  0
 12 14  2  0
  4 15  1  0
 15 16  2  0
 16 17  1  0
 17 18  1  0
 18 19  2  0
 19 20  1  0
 20 21  2  0
 21 22  1  0
 22 23  1  0
 23 24  1  0
 21 25  1  0
 25 26  2  0
 25 27  1  0
 17 28  2  0
 28 29  1  0
 16 30  1  0
 30 31  2  0
 31 32  1  0
 31 33  1  0
 33 34  1  0
 34 35  1  0
 35 36  2  0
 36 37  1  0
 37 38  1  0
 38 39  2  0
 39 40  1  0
 39 41  1  0
 41 42  1  0
 42 43  1  0
 41 44  2  0
 35 45  1  0
 45 46  2  3
 46 47  1  0
 47 48  2  0
 48 49  1  0
 49 50  2  0
 50 51  1  0
 51 52  2  0
 52 53  1  0
 53 54  2  0
 54 55  1  0
 55 56  1  0
 56 57  1  0
 54 58  1  0
 58 59  1  0
 58 60  2  0
 50 61  1  0
 61 62  2  0
 62 63  1  0
 63 64  1  0
 64 65  2  0
 65 66  1  0
 66 67  2  0
 67 68  1  0
 68 69  1  0
 69 70  1  0
 67 71  1  0
 71 72  2  0
 71 73  1  0
 63 74  2  0
 74 75  1  0
 62 76  1  0
 76 77  2  0
 77 78  1  0
 77 79  1  0
 79 80  1  0
 80 81  1  0
 81 82  2  0
 82 83  1  0
 83 84  1  0
 84 85  2  0
 85 86  1  0
 85 87  1  0
 87 88  1  0
 88 89  1  0
 87 90  2  0
 81 91  1  0
 91 92  2  3
 92 93  1  0
 93 94  1  0
 94 95  1  0
 95 96  2  0
 96 97  1  0
 97 98  1  0
 98 99  2  0
 99100  1  0
 99101  1  0
101102  1  0
102103  1  0
101104  2  0
 95105  1  0
105106  2  3
106107  1  0
107108  2  0
108109  1  0
109110  2  0
110111  1  0
111112  2  0
112113  1  0
113114  2  0
114115  1  0
115116  1  0
116117  1  0
114118  1  0
118119  1  0
118120  2  0
110121  1  0
121122  2  0
122123  1  0
123124  1  0
124125  2  0
125126  1  0
126127  2  0
127128  1  0
128129  1  0
129130  1  0
127131  1  0
131132  2  0
131133  1  0
123134  2  0
134135  1  0
122136  1  0
136137  2  0
137138  1  0
 29  1  1  0
 37 33  2  0
 75 47  1  0
 83 79  2  0
 97 93  2  0
135107  1  0
 28  3  1  0
 44 36  1  0
 74 49  1  0
 90 82  1  0
104 96  1  0
134109  1  0
 14  5  1  0
 32 15  1  0
 60 51  1  0
 78 61  1  0
120111  1  0
138121  1  0
 26 18  1  0
 72 64  1  0
132124  1  0
  1139  1  0
  2140  1  0
  6141  1  0
  7142  1  0
 10143  1  0
 10144  1  0
 11145  1  0
 11146  1  0
 11147  1  0
 14148  1  0
 19149  1  0
 20150  1  0
 23151  1  0
 23152  1  0
 24153  1  0
 24154  1  0
 24155  1  0
 26156  1  0
 30157  1  0
 38158  1  0
 40159  1  0
 40160  1  0
 40161  1  0
 43162  1  0
 43163  1  0
 43164  1  0
 44165  1  0
 45166  1  0
 46167  1  0
 48168  1  0
 52169  1  0
 53170  1  0
 56171  1  0
 56172  1  0
 57173  1  0
 57174  1  0
 57175  1  0
 60176  1  0
 65177  1  0
 66178  1  0
 69179  1  0
 69180  1  0
 70181  1  0
 70182  1  0
 70183  1  0
 72184  1  0
 76185  1  0
 84186  1  0
 86187  1  0
 86188  1  0
 86189  1  0
 89190  1  0
 89191  1  0
 89192  1  0
 90193  1  0
 91194  1  0
 92195  1  0
 98196  1  0
100197  1  0
100198  1  0
100199  1  0
103200  1  0
103201  1  0
103202  1  0
104203  1  0
105204  1  0
106205  1  0
108206  1  0
112207  1  0
113208  1  0
116209  1  0
116210  1  0
117211  1  0
117212  1  0
117213  1  0
120214  1  0
125215  1  0
126216  1  0
129217  1  0
129218  1  0
130219  1  0
130220  1  0
130221  1  0
132222  1  0
136223  1  0
137224  1  0
M  END

