
     RDKit          3D

122133  0  0  0  0  0  0  0  0999 V2000
    1.3049   -2.9648    4.0550 C   0  0  0  0  0  0  0  0  0  0  0  0
    1.4178   -2.0936    2.6179 S   0  0  0  0  0  0  0  0  0  0  0  0
    2.8469   -2.7935    2.0563 C   0  0  0  0  0  0  0  0  0  0  0  0
    3.2153   -3.7787    2.9673 C   0  0  0  0  0  0  0  0  0  0  0  0
    2.3668   -3.8612    4.0810 C   0  0  0  0  0  0  0  0  0  0  0  0
    2.5955   -4.8077    5.0803 C   0  0  0  0  0  0  0  0  0  0  0  0
    3.6804   -5.6988    4.9546 C   0  0  0  0  0  0  0  0  0  0  0  0
    3.9385   -6.7130    6.0319 C   0  0  0  0  0  0  0  0  0  0  0  0
    4.5417   -5.6197    3.8315 C   0  0  0  0  0  0  0  0  0  0  0  0
    5.6139   -6.5219    3.7368 O   0  0  0  0  0  0  0  0  0  0  0  0
    6.5478   -6.5554    2.6596 C   0  0  0  0  0  0  0  0  0  0  0  0
    4.3008   -4.6491    2.8347 C   0  0  0  0  0  0  0  0  0  0  0  0
    3.3939   -2.6514    0.7001 C   0  0  0  0  0  0  0  0  0  0  0  0
    4.1347   -1.6254    0.2753 C   0  0  0  0  0  0  0  0  0  0  0  0
    4.4767   -0.4196    1.0616 C   0  0  0  0  0  0  0  0  0  0  0  0
    3.3953    0.5113    1.9505 S   0  0  0  0  0  0  0  0  0  0  0  0
    4.3731    1.8692    2.1651 C   0  0  0  0  0  0  0  0  0  0  0  0
    5.6058    1.5758    1.5782 C   0  0  0  0  0  0  0  0  0  0  0  0
    5.6558    0.3190    0.9512 C   0  0  0  0  0  0  0  0  0  0  0  0
    6.8070   -0.0802    0.2655 C   0  0  0  0  0  0  0  0  0  0  0  0
    7.9367    0.7622    0.2297 C   0  0  0  0  0  0  0  0  0  0  0  0
    9.1237    0.3247   -0.5839 C   0  0  0  0  0  0  0  0  0  0  0  0
    7.8999    2.0148    0.9086 C   0  0  0  0  0  0  0  0  0  0  0  0
    8.9876    2.9015    0.9832 O   0  0  0  0  0  0  0  0  0  0  0  0
   10.3485    2.5242    1.1645 C   0  0  0  0  0  0  0  0  0  0  0  0
    6.7171    2.4228    1.5447 C   0  0  0  0  0  0  0  0  0  0  0  0
    3.9828    3.1710    2.7588 C   0  0  0  0  0  0  0  0  0  0  0  0
    2.7676    3.7380    2.6711 C   0  0  0  0  0  0  0  0  0  0  0  0
    1.5928    3.1322    2.0220 C   0  0  0  0  0  0  0  0  0  0  0  0
    0.2817    2.5997    2.9230 S   0  0  0  0  0  0  0  0  0  0  0  0
   -0.4624    1.7068    1.7142 C   0  0  0  0  0  0  0  0  0  0  0  0
    0.3470    1.7665    0.5755 C   0  0  0  0  0  0  0  0  0  0  0  0
    1.4632    2.6228    0.7163 C   0  0  0  0  0  0  0  0  0  0  0  0
    2.3491    2.8101   -0.3683 C   0  0  0  0  0  0  0  0  0  0  0  0
    3.4221    3.7737   -0.3333 C   0  0  0  0  0  0  0  0  0  0  0  0
    4.2812    4.5491   -0.3090 N   0  0  0  0  0  0  0  0  0  0  0  0
    2.1647    2.0443   -1.5320 C   0  0  0  0  0  0  0  0  0  0  0  0
    1.1230    1.1106   -1.6151 C   0  0  0  0  0  0  0  0  0  0  0  0
    0.2134    0.9650   -0.5617 C   0  0  0  0  0  0  0  0  0  0  0  0
   -1.6511    0.8744    1.9574 C   0  0  0  0  0  0  0  0  0  0  0  0
   -2.7541    0.8701    1.1995 C   0  0  0  0  0  0  0  0  0  0  0  0
   -2.9558    1.7009    0.0072 C   0  0  0  0  0  0  0  0  0  0  0  0
   -3.0272    1.0622   -1.5520 S   0  0  0  0  0  0  0  0  0  0  0  0
   -3.6171    2.4398   -2.3163 C   0  0  0  0  0  0  0  0  0  0  0  0
   -3.7422    3.4400   -1.3495 C   0  0  0  0  0  0  0  0  0  0  0  0
   -3.4078    3.0284   -0.0415 C   0  0  0  0  0  0  0  0  0  0  0  0
   -3.5751    3.9263    1.0409 C   0  0  0  0  0  0  0  0  0  0  0  0
   -3.3130    3.5640    2.4133 C   0  0  0  0  0  0  0  0  0  0  0  0
   -3.1116    3.2829    3.5189 N   0  0  0  0  0  0  0  0  0  0  0  0
   -4.0350    5.2268    0.7800 C   0  0  0  0  0  0  0  0  0  0  0  0
   -4.3478    5.6290   -0.5260 C   0  0  0  0  0  0  0  0  0  0  0  0
   -4.2057    4.7383   -1.5931 C   0  0  0  0  0  0  0  0  0  0  0  0
   -3.7726    2.6418   -3.7680 C   0  0  0  0  0  0  0  0  0  0  0  0
   -4.4408    1.8699   -4.6429 C   0  0  0  0  0  0  0  0  0  0  0  0
   -5.2399    0.6418   -4.3789 C   0  0  0  0  0  0  0  0  0  0  0  0
   -5.7902    0.1258   -2.8659 S   0  0  0  0  0  0  0  0  0  0  0  0
   -6.7690   -1.1318   -3.3813 C   0  0  0  0  0  0  0  0  0  0  0  0
   -6.7589   -1.1263   -4.7715 C   0  0  0  0  0  0  0  0  0  0  0  0
   -5.8629   -0.1882   -5.3445 C   0  0  0  0  0  0  0  0  0  0  0  0
   -5.6718   -0.1961   -6.7522 C   0  0  0  0  0  0  0  0  0  0  0  0
   -4.6306    0.5463   -7.4168 C   0  0  0  0  0  0  0  0  0  0  0  0
   -3.7907    1.1295   -7.9591 N   0  0  0  0  0  0  0  0  0  0  0  0
   -6.4484   -1.0591   -7.5439 C   0  0  0  0  0  0  0  0  0  0  0  0
   -7.3774   -1.9265   -6.9620 C   0  0  0  0  0  0  0  0  0  0  0  0
   -7.5246   -1.9765   -5.5766 C   0  0  0  0  0  0  0  0  0  0  0  0
   -7.5005   -2.0774   -2.5155 C   0  0  0  0  0  0  0  0  0  0  0  0
   -6.9515   -2.7626   -1.4992 C   0  0  0  0  0  0  0  0  0  0  0  0
   -5.5327   -2.7005   -1.0912 C   0  0  0  0  0  0  0  0  0  0  0  0
   -5.0676   -2.4220    0.5001 S   0  0  0  0  0  0  0  0  0  0  0  0
   -3.4003   -2.4137    0.2471 C   0  0  0  0  0  0  0  0  0  0  0  0
   -3.1815   -2.6174   -1.1179 C   0  0  0  0  0  0  0  0  0  0  0  0
   -4.3631   -2.8608   -1.8583 C   0  0  0  0  0  0  0  0  0  0  0  0
   -4.2624   -3.3197   -3.1918 C   0  0  0  0  0  0  0  0  0  0  0  0
   -5.3521   -3.9866   -3.8588 C   0  0  0  0  0  0  0  0  0  0  0  0
   -6.2174   -4.5421   -4.3884 N   0  0  0  0  0  0  0  0  0  0  0  0
   -3.0052   -3.3227   -3.8153 C   0  0  0  0  0  0  0  0  0  0  0  0
   -1.8550   -2.9521   -3.1077 C   0  0  0  0  0  0  0  0  0  0  0  0
   -1.9307   -2.6387   -1.7485 C   0  0  0  0  0  0  0  0  0  0  0  0
   -2.3680   -2.3304    1.3037 C   0  0  0  0  0  0  0  0  0  0  0  0
   -2.6694   -2.2869    2.5989 C   0  0  0  0  0  0  0  0  0  0  0  0
    0.5265   -2.8705    4.8001 H   0  0  0  0  0  0  0  0  0  0  0  0
    1.9340   -4.8580    5.9352 H   0  0  0  0  0  0  0  0  0  0  0  0
    4.8558   -6.4340    6.5943 H   0  0  0  0  0  0  0  0  0  0  0  0
    4.0796   -7.7182    5.5783 H   0  0  0  0  0  0  0  0  0  0  0  0
    3.0866   -6.7784    6.7433 H   0  0  0  0  0  0  0  0  0  0  0  0
    6.0190   -6.7650    1.7061 H   0  0  0  0  0  0  0  0  0  0  0  0
    7.2810   -7.3684    2.8425 H   0  0  0  0  0  0  0  0  0  0  0  0
    7.0914   -5.5893    2.5934 H   0  0  0  0  0  0  0  0  0  0  0  0
    4.9436   -4.5708    1.9693 H   0  0  0  0  0  0  0  0  0  0  0  0
    3.2881   -3.5065    0.0453 H   0  0  0  0  0  0  0  0  0  0  0  0
    4.5886   -1.7151   -0.7087 H   0  0  0  0  0  0  0  0  0  0  0  0
    6.8306   -1.0376   -0.2366 H   0  0  0  0  0  0  0  0  0  0  0  0
    9.4436    1.1453   -1.2623 H   0  0  0  0  0  0  0  0  0  0  0  0
    8.8778   -0.5516   -1.2252 H   0  0  0  0  0  0  0  0  0  0  0  0
    9.9530    0.0208    0.0871 H   0  0  0  0  0  0  0  0  0  0  0  0
   10.4212    1.6492    1.8456 H   0  0  0  0  0  0  0  0  0  0  0  0
   10.8293    2.3082    0.1909 H   0  0  0  0  0  0  0  0  0  0  0  0
   10.8958    3.3706    1.6271 H   0  0  0  0  0  0  0  0  0  0  0  0
    6.6863    3.3919    2.0251 H   0  0  0  0  0  0  0  0  0  0  0  0
    4.7526    3.7381    3.2649 H   0  0  0  0  0  0  0  0  0  0  0  0
    2.6054    4.6733    3.1931 H   0  0  0  0  0  0  0  0  0  0  0  0
    2.8406    2.1520   -2.3707 H   0  0  0  0  0  0  0  0  0  0  0  0
    1.0252    0.4883   -2.4936 H   0  0  0  0  0  0  0  0  0  0  0  0
   -0.5467    0.2000   -0.6180 H   0  0  0  0  0  0  0  0  0  0  0  0
   -1.6766    0.3234    2.8877 H   0  0  0  0  0  0  0  0  0  0  0  0
   -3.5947    0.2613    1.5119 H   0  0  0  0  0  0  0  0  0  0  0  0
   -4.1662    5.9339    1.5919 H   0  0  0  0  0  0  0  0  0  0  0  0
   -4.7158    6.6288   -0.7059 H   0  0  0  0  0  0  0  0  0  0  0  0
   -4.4773    5.0565   -2.5919 H   0  0  0  0  0  0  0  0  0  0  0  0
   -3.3524    3.5622   -4.1578 H   0  0  0  0  0  0  0  0  0  0  0  0
   -4.4739    2.2700   -5.6413 H   0  0  0  0  0  0  0  0  0  0  0  0
   -6.3176   -1.0826   -8.6201 H   0  0  0  0  0  0  0  0  0  0  0  0
   -7.9603   -2.5895   -7.5879 H   0  0  0  0  0  0  0  0  0  0  0  0
   -8.2259   -2.6779   -5.1437 H   0  0  0  0  0  0  0  0  0  0  0  0
   -8.5425   -2.2625   -2.7468 H   0  0  0  0  0  0  0  0  0  0  0  0
   -7.6091   -3.3664   -0.8860 H   0  0  0  0  0  0  0  0  0  0  0  0
   -2.9049   -3.6561   -4.8404 H   0  0  0  0  0  0  0  0  0  0  0  0
   -0.8928   -2.9654   -3.6016 H   0  0  0  0  0  0  0  0  0  0  0  0
   -1.0207   -2.4093   -1.2094 H   0  0  0  0  0  0  0  0  0  0  0  0
   -1.3218   -2.2959    1.0270 H   0  0  0  0  0  0  0  0  0  0  0  0
   -3.6952   -2.3011    2.9469 H   0  0  0  0  0  0  0  0  0  0  0  0
   -1.8776   -2.2125    3.3349 H   0  0  0  0  0  0  0  0  0  0  0  0
  1  2  1  0
  2  3  1  0
  3  4  2  0
  4  5  1  0
  5  6  1  0
  6  7  2  0
  7  8  1  0
  7  9  1  0
  9 10  1  0
 10 11  1  0
  9 12  2  0
  3 13  1  0
 13 14  2  3
 14 15  1  0
 15 16  1  0
 16 17  1  0
 17 18  2  0
 18 19  1  0
 19 20  1  0
 20 21  2  0
 21 22  1  0
 21 23  1  0
 23 24  1  0
 24 25  1  0
 23 26  2  0
 17 27  1  0
 27 28  2  3
 28 29  1  0
 29 30  1  0
 30 31  1  0
 31 32  2  0
 32 33  1  0
 33 34  1  0
 34 35  1  0
 35 36  3  0
 34 37  2  0
 37 38  1  0
 38 39  2  0
 31 40  1  0
 40 41  2  3
 41 42  1  0
 42 43  1  0
 43 44  1  0
 44 45  2  0
 45 46  1  0
 46 47  1  0
 47 48  1  0
 48 49  3  0
 47 50  2  0
 50 51  1  0
 51 52  2  0
 44 53  1  0
 53 54  2  3
 54 55  1  0
 55 56  1  0
 56 57  1  0
 57 58  2  0
 58 59  1  0
 59 60  1  0
 60 61  1  0
 61 62  3  0
 60 63  2  0
 63 64  1  0
 64 65  2  0
 57 66  1  0
 66 67  2  3
 67 68  1  0
 68 69  1  0
 69 70  1  0
 70 71  2  0
 71 72  1  0
 72 73  1  0
 73 74  1  0
 74 75  3  0
 73 76  2  0
 76 77  1  0
 77 78  2  0
 70 79  1  0
 79 80  2  3
  5  1  2  0
 19 15  2  0
 33 29  2  0
 46 42  2  0
 59 55  2  0
 72 68  2  0
 12  4  1  0
 26 18  1  0
 39 32  1  0
 52 45  1  0
 65 58  1  0
 78 71  1  0
  1 81  1  0
  6 82  1  0
  8 83  1  0
  8 84  1  0
  8 85  1  0
 11 86  1  0
 11 87  1  0
 11 88  1  0
 12 89  1  0
 13 90  1  0
 14 91  1  0
 20 92  1  0
 22 93  1  0
 22 94  1  0
 22 95  1  0
 25 96  1  0
 25 97  1  0
 25 98  1  0
 26 99  1  0
 27100  1  0
 28101  1  0
 37102  1  0
 38103  1  0
 39104  1  0
 40105  1  0
 41106  1  0
 50107  1  0
 51108  1  0
 52109  1  0
 53110  1  0
 54111  1  0
 63112  1  0
 64113  1  0
 65114  1  0
 66115  1  0
 67116  1  0
 76117  1  0
 77118  1  0
 78119  1  0
 79120  1  0
 80121  1  0
 80122  1  0
M  END

