
     RDKit          3D

250273  0  0  0  0  0  0  0  0999 V2000
    2.8039   -6.7336    8.9008 C   0  0  0  0  0  0  0  0  0  0  0  0
    3.1250   -5.4760    8.3916 C   0  0  0  0  0  0  0  0  0  0  0  0
    2.0931   -4.9214    7.6152 C   0  0  0  0  0  0  0  0  0  0  0  0
    2.1098   -3.6631    6.9736 C   0  0  0  0  0  0  0  0  0  0  0  0
    3.3179   -2.8187    6.9692 C   0  0  0  0  0  0  0  0  0  0  0  0
    4.2045   -2.8735    5.8849 C   0  0  0  0  0  0  0  0  0  0  0  0
    5.3884   -2.1289    5.9039 C   0  0  0  0  0  0  0  0  0  0  0  0
    5.6884   -1.3177    7.0038 C   0  0  0  0  0  0  0  0  0  0  0  0
    7.2636   -0.4432    7.0614 S   0  0  0  0  0  0  0  0  0  0  0  0
    6.6352    1.1129    6.3476 C   0  0  0  0  0  0  0  0  0  0  0  0
    6.6158    1.0604    4.8239 C   0  0  0  0  0  0  0  0  0  0  0  0
    4.7985   -1.2548    8.0907 C   0  0  0  0  0  0  0  0  0  0  0  0
    5.0917   -0.4935    9.1761 F   0  0  0  0  0  0  0  0  0  0  0  0
    3.6182   -2.0062    8.0748 C   0  0  0  0  0  0  0  0  0  0  0  0
    0.9515   -3.2939    6.2651 C   0  0  0  0  0  0  0  0  0  0  0  0
   -0.1651   -4.1359    6.1567 C   0  0  0  0  0  0  0  0  0  0  0  0
   -0.1715   -5.4015    6.7717 C   0  0  0  0  0  0  0  0  0  0  0  0
   -1.3210   -6.3138    6.6646 C   0  0  0  0  0  0  0  0  0  0  0  0
   -1.2057   -7.5069    5.9317 C   0  0  0  0  0  0  0  0  0  0  0  0
   -2.2959   -8.3769    5.8371 C   0  0  0  0  0  0  0  0  0  0  0  0
   -3.4984   -8.0720    6.4830 C   0  0  0  0  0  0  0  0  0  0  0  0
   -4.8718   -9.2281    6.4212 S   0  0  0  0  0  0  0  0  0  0  0  0
   -5.6991   -8.4286    5.0028 C   0  0  0  0  0  0  0  0  0  0  0  0
   -5.4937   -9.2422    3.7363 C   0  0  0  0  0  0  0  0  0  0  0  0
   -3.6128   -6.8844    7.2223 C   0  0  0  0  0  0  0  0  0  0  0  0
   -2.5291   -6.0043    7.3015 C   0  0  0  0  0  0  0  0  0  0  0  0
   -4.7686   -6.5737    7.8569 F   0  0  0  0  0  0  0  0  0  0  0  0
    0.9757   -5.7579    7.5027 C   0  0  0  0  0  0  0  0  0  0  0  0
    1.2607   -7.1660    8.3827 S   0  0  0  0  0  0  0  0  0  0  0  0
   -1.1840   -3.6021    5.3578 C   0  0  0  0  0  0  0  0  0  0  0  0
   -0.8675   -2.3368    4.8703 C   0  0  0  0  0  0  0  0  0  0  0  0
    0.6645   -1.8733    5.4108 S   0  0  0  0  0  0  0  0  0  0  0  0
   -1.7061   -1.5671    3.9439 C   0  0  0  0  0  0  0  0  0  0  0  0
   -2.1793   -2.0962    2.4233 S   0  0  0  0  0  0  0  0  0  0  0  0
   -3.1886   -0.7914    2.0469 C   0  0  0  0  0  0  0  0  0  0  0  0
   -3.1876    0.0712    3.1497 C   0  0  0  0  0  0  0  0  0  0  0  0
   -2.3476   -0.3599    4.1985 C   0  0  0  0  0  0  0  0  0  0  0  0
   -2.2403    0.3823    5.3792 C   0  0  0  0  0  0  0  0  0  0  0  0
   -3.0143    1.5474    5.5366 C   0  0  0  0  0  0  0  0  0  0  0  0
   -2.9089    2.3555    6.8002 C   0  0  0  0  0  0  0  0  0  0  0  0
   -3.9015    1.9583    4.5100 C   0  0  0  0  0  0  0  0  0  0  0  0
   -4.7006    3.0951    4.7283 O   0  0  0  0  0  0  0  0  0  0  0  0
   -5.8099    3.4887    3.9272 C   0  0  0  0  0  0  0  0  0  0  0  0
   -3.9725    1.2261    3.3065 C   0  0  0  0  0  0  0  0  0  0  0  0
   -3.9621   -0.6359    0.7943 C   0  0  0  0  0  0  0  0  0  0  0  0
   -3.9030   -1.5248   -0.2028 C   0  0  0  0  0  0  0  0  0  0  0  0
   -4.7491   -1.4678   -1.4197 C   0  0  0  0  0  0  0  0  0  0  0  0
   -4.2602   -2.1226   -2.8949 S   0  0  0  0  0  0  0  0  0  0  0  0
   -5.7350   -2.0042   -3.7056 C   0  0  0  0  0  0  0  0  0  0  0  0
   -6.6559   -1.4998   -2.7941 C   0  0  0  0  0  0  0  0  0  0  0  0
   -6.1162   -1.1867   -1.5265 C   0  0  0  0  0  0  0  0  0  0  0  0
   -6.9608   -0.7400   -0.5028 C   0  0  0  0  0  0  0  0  0  0  0  0
   -8.3268   -0.5534   -0.7599 C   0  0  0  0  0  0  0  0  0  0  0  0
   -9.2169   -0.0327    0.3273 C   0  0  0  0  0  0  0  0  0  0  0  0
   -8.8701   -0.8921   -2.0169 C   0  0  0  0  0  0  0  0  0  0  0  0
  -10.2556   -0.7651   -2.2060 O   0  0  0  0  0  0  0  0  0  0  0  0
  -10.9690   -1.2198   -3.3488 C   0  0  0  0  0  0  0  0  0  0  0  0
   -8.0242   -1.3546   -3.0431 C   0  0  0  0  0  0  0  0  0  0  0  0
   -6.0471   -2.7527   -4.9387 C   0  0  0  0  0  0  0  0  0  0  0  0
   -5.5133   -2.4778   -6.1343 C   0  0  0  0  0  0  0  0  0  0  0  0
   -4.8044   -1.2237   -6.4224 C   0  0  0  0  0  0  0  0  0  0  0  0
   -5.2665    0.0450   -6.0809 C   0  0  0  0  0  0  0  0  0  0  0  0
   -4.3121    1.0490   -6.2969 C   0  0  0  0  0  0  0  0  0  0  0  0
   -4.4113    2.3892   -5.8680 C   0  0  0  0  0  0  0  0  0  0  0  0
   -5.6234    2.9103   -5.2011 C   0  0  0  0  0  0  0  0  0  0  0  0
   -6.2669    4.0433   -5.7168 C   0  0  0  0  0  0  0  0  0  0  0  0
   -7.4276    4.5260   -5.1145 C   0  0  0  0  0  0  0  0  0  0  0  0
   -7.9746    3.8670   -4.0015 C   0  0  0  0  0  0  0  0  0  0  0  0
   -9.4741    4.4968   -3.2250 S   0  0  0  0  0  0  0  0  0  0  0  0
  -10.6223    3.8163   -4.4800 C   0  0  0  0  0  0  0  0  0  0  0  0
  -10.8680    2.3302   -4.2632 C   0  0  0  0  0  0  0  0  0  0  0  0
   -7.3158    2.7500   -3.4632 C   0  0  0  0  0  0  0  0  0  0  0  0
   -7.7936    2.1323   -2.3559 F   0  0  0  0  0  0  0  0  0  0  0  0
   -6.1333    2.2920   -4.0484 C   0  0  0  0  0  0  0  0  0  0  0  0
   -3.2475    3.1713   -5.9821 C   0  0  0  0  0  0  0  0  0  0  0  0
   -2.0638    2.6869   -6.5363 C   0  0  0  0  0  0  0  0  0  0  0  0
   -1.9949    1.3707   -7.0490 C   0  0  0  0  0  0  0  0  0  0  0  0
   -0.7235    0.8077   -7.5345 C   0  0  0  0  0  0  0  0  0  0  0  0
    0.2972    0.4854   -6.6238 C   0  0  0  0  0  0  0  0  0  0  0  0
    1.5476    0.0672   -7.0916 C   0  0  0  0  0  0  0  0  0  0  0  0
    1.7833   -0.0462   -8.4645 C   0  0  0  0  0  0  0  0  0  0  0  0
    3.4132   -0.4978   -9.0519 S   0  0  0  0  0  0  0  0  0  0  0  0
    3.9821    1.2381   -9.1101 C   0  0  0  0  0  0  0  0  0  0  0  0
    5.3873    1.3053   -9.6790 C   0  0  0  0  0  0  0  0  0  0  0  0
    0.7494    0.2312   -9.3764 C   0  0  0  0  0  0  0  0  0  0  0  0
   -0.5016    0.6494   -8.9106 C   0  0  0  0  0  0  0  0  0  0  0  0
    0.9615    0.1083  -10.7105 F   0  0  0  0  0  0  0  0  0  0  0  0
   -3.1315    0.5666   -6.8781 C   0  0  0  0  0  0  0  0  0  0  0  0
   -3.2633   -1.1006   -7.0884 S   0  0  0  0  0  0  0  0  0  0  0  0
   -0.9553    3.5105   -6.2737 C   0  0  0  0  0  0  0  0  0  0  0  0
   -1.2232    4.5658   -5.3947 C   0  0  0  0  0  0  0  0  0  0  0  0
   -2.8939    4.5724   -5.1219 S   0  0  0  0  0  0  0  0  0  0  0  0
   -0.2709    4.8373   -4.3021 C   0  0  0  0  0  0  0  0  0  0  0  0
   -0.5880    4.4440   -3.0004 C   0  0  0  0  0  0  0  0  0  0  0  0
    0.4988    3.9224   -2.2821 C   0  0  0  0  0  0  0  0  0  0  0  0
    0.3872    3.1111   -1.1334 C   0  0  0  0  0  0  0  0  0  0  0  0
   -0.9436    2.7924   -0.5914 C   0  0  0  0  0  0  0  0  0  0  0  0
   -1.8172    1.9872   -1.3476 C   0  0  0  0  0  0  0  0  0  0  0  0
   -3.1909    2.0202   -1.1000 C   0  0  0  0  0  0  0  0  0  0  0  0
   -3.6971    2.8284   -0.0786 C   0  0  0  0  0  0  0  0  0  0  0  0
   -5.4782    2.9930    0.1223 S   0  0  0  0  0  0  0  0  0  0  0  0
   -5.6526    4.4032   -1.0338 C   0  0  0  0  0  0  0  0  0  0  0  0
   -5.2555    5.7210   -0.3761 C   0  0  0  0  0  0  0  0  0  0  0  0
   -2.8163    3.5372    0.7537 C   0  0  0  0  0  0  0  0  0  0  0  0
   -3.2843    4.3014    1.7737 F   0  0  0  0  0  0  0  0  0  0  0  0
   -1.4500    3.5357    0.4848 C   0  0  0  0  0  0  0  0  0  0  0  0
    1.5598    2.4946   -0.6704 C   0  0  0  0  0  0  0  0  0  0  0  0
    2.7973    2.6799   -1.2953 C   0  0  0  0  0  0  0  0  0  0  0  0
    2.8997    3.4608   -2.4752 C   0  0  0  0  0  0  0  0  0  0  0  0
    4.1285    3.4910   -3.2938 C   0  0  0  0  0  0  0  0  0  0  0  0
    4.7648    4.7116   -3.5680 C   0  0  0  0  0  0  0  0  0  0  0  0
    5.9322    4.7364   -4.3363 C   0  0  0  0  0  0  0  0  0  0  0  0
    6.4474    3.5495   -4.8657 C   0  0  0  0  0  0  0  0  0  0  0  0
    7.9242    3.5957   -5.8855 S   0  0  0  0  0  0  0  0  0  0  0  0
    7.0079    3.6776   -7.4644 C   0  0  0  0  0  0  0  0  0  0  0  0
    6.6091    5.1082   -7.8056 C   0  0  0  0  0  0  0  0  0  0  0  0
    5.8061    2.3295   -4.6074 C   0  0  0  0  0  0  0  0  0  0  0  0
    4.6429    2.3023   -3.8324 C   0  0  0  0  0  0  0  0  0  0  0  0
    6.2952    1.1689   -5.1163 F   0  0  0  0  0  0  0  0  0  0  0  0
    1.7184    4.0605   -2.9428 C   0  0  0  0  0  0  0  0  0  0  0  0
    1.4080    4.6796   -4.4757 S   0  0  0  0  0  0  0  0  0  0  0  0
    3.8232    1.9120   -0.7250 C   0  0  0  0  0  0  0  0  0  0  0  0
    3.3795    1.0845    0.2967 C   0  0  0  0  0  0  0  0  0  0  0  0
    1.7226    1.3230    0.5357 S   0  0  0  0  0  0  0  0  0  0  0  0
    4.2076    0.0575    0.9420 C   0  0  0  0  0  0  0  0  0  0  0  0
    3.7877   -1.2211    1.3190 C   0  0  0  0  0  0  0  0  0  0  0  0
    4.8530   -2.0486    1.7278 C   0  0  0  0  0  0  0  0  0  0  0  0
    4.7803   -3.4173    2.0749 C   0  0  0  0  0  0  0  0  0  0  0  0
    3.5373   -4.2091    1.9563 C   0  0  0  0  0  0  0  0  0  0  0  0
    2.3976   -3.8737    2.7002 C   0  0  0  0  0  0  0  0  0  0  0  0
    1.2674   -4.6983    2.6721 C   0  0  0  0  0  0  0  0  0  0  0  0
    1.2564   -5.8526    1.8698 C   0  0  0  0  0  0  0  0  0  0  0  0
   -0.1600   -6.9609    1.9297 S   0  0  0  0  0  0  0  0  0  0  0  0
   -0.8735   -6.4345    0.3301 C   0  0  0  0  0  0  0  0  0  0  0  0
   -1.5481   -5.0729    0.4335 C   0  0  0  0  0  0  0  0  0  0  0  0
    2.3798   -6.1643    1.0889 C   0  0  0  0  0  0  0  0  0  0  0  0
    2.3973   -7.2763    0.3137 F   0  0  0  0  0  0  0  0  0  0  0  0
    3.5081   -5.3386    1.1243 C   0  0  0  0  0  0  0  0  0  0  0  0
    6.0038   -4.0471    2.4077 C   0  0  0  0  0  0  0  0  0  0  0  0
    7.2401   -3.4016    2.3380 C   0  0  0  0  0  0  0  0  0  0  0  0
    7.3150   -2.0610    1.9092 C   0  0  0  0  0  0  0  0  0  0  0  0
    8.6024   -1.4125    1.5881 C   0  0  0  0  0  0  0  0  0  0  0  0
    9.4619   -0.9777    2.6019 C   0  0  0  0  0  0  0  0  0  0  0  0
   10.6384   -0.2951    2.2769 C   0  0  0  0  0  0  0  0  0  0  0  0
   10.9591   -0.0473    0.9336 C   0  0  0  0  0  0  0  0  0  0  0  0
   12.4320    0.9095    0.5159 S   0  0  0  0  0  0  0  0  0  0  0  0
   13.5716   -0.5251    0.5104 C   0  0  0  0  0  0  0  0  0  0  0  0
   13.5769   -1.2180   -0.8482 C   0  0  0  0  0  0  0  0  0  0  0  0
   10.1054   -0.5048   -0.0815 C   0  0  0  0  0  0  0  0  0  0  0  0
    8.9316   -1.1791    0.2456 C   0  0  0  0  0  0  0  0  0  0  0  0
   10.3934   -0.2649   -1.3857 F   0  0  0  0  0  0  0  0  0  0  0  0
    6.0983   -1.4048    1.6520 C   0  0  0  0  0  0  0  0  0  0  0  0
    5.8832    0.1614    1.0899 S   0  0  0  0  0  0  0  0  0  0  0  0
    8.3243   -4.2334    2.6679 C   0  0  0  0  0  0  0  0  0  0  0  0
    7.9382   -5.5209    3.0224 C   0  0  0  0  0  0  0  0  0  0  0  0
    6.2601   -5.6391    2.9050 S   0  0  0  0  0  0  0  0  0  0  0  0
    3.4448   -7.3319    9.5363 H   0  0  0  0  0  0  0  0  0  0  0  0
    4.0608   -4.9749    8.6053 H   0  0  0  0  0  0  0  0  0  0  0  0
    3.9957   -3.5144    5.0403 H   0  0  0  0  0  0  0  0  0  0  0  0
    6.0822   -2.2070    5.0749 H   0  0  0  0  0  0  0  0  0  0  0  0
    7.3054    1.9370    6.6709 H   0  0  0  0  0  0  0  0  0  0  0  0
    5.6170    1.3452    6.7243 H   0  0  0  0  0  0  0  0  0  0  0  0
    7.6290    0.8109    4.4388 H   0  0  0  0  0  0  0  0  0  0  0  0
    5.8888    0.2989    4.4701 H   0  0  0  0  0  0  0  0  0  0  0  0
    6.3219    2.0534    4.4160 H   0  0  0  0  0  0  0  0  0  0  0  0
    2.9466   -1.9734    8.9238 H   0  0  0  0  0  0  0  0  0  0  0  0
   -0.2740   -7.7534    5.4346 H   0  0  0  0  0  0  0  0  0  0  0  0
   -2.1983   -9.2936    5.2622 H   0  0  0  0  0  0  0  0  0  0  0  0
   -5.3426   -7.3842    4.8290 H   0  0  0  0  0  0  0  0  0  0  0  0
   -6.7873   -8.3639    5.2225 H   0  0  0  0  0  0  0  0  0  0  0  0
   -5.8894  -10.2744    3.8794 H   0  0  0  0  0  0  0  0  0  0  0  0
   -6.0432   -8.7698    2.8987 H   0  0  0  0  0  0  0  0  0  0  0  0
   -4.4125   -9.2983    3.4823 H   0  0  0  0  0  0  0  0  0  0  0  0
   -2.6298   -5.0827    7.8615 H   0  0  0  0  0  0  0  0  0  0  0  0
   -2.1117   -4.1142    5.1355 H   0  0  0  0  0  0  0  0  0  0  0  0
   -1.5876    0.0507    6.1729 H   0  0  0  0  0  0  0  0  0  0  0  0
   -2.1864    1.9013    7.5188 H   0  0  0  0  0  0  0  0  0  0  0  0
   -3.8994    2.4175    7.2990 H   0  0  0  0  0  0  0  0  0  0  0  0
   -2.5669    3.3857    6.5647 H   0  0  0  0  0  0  0  0  0  0  0  0
   -6.5673    2.6790    3.8899 H   0  0  0  0  0  0  0  0  0  0  0  0
   -5.4806    3.7586    2.9075 H   0  0  0  0  0  0  0  0  0  0  0  0
   -6.2812    4.3837    4.3834 H   0  0  0  0  0  0  0  0  0  0  0  0
   -4.6347    1.5447    2.5171 H   0  0  0  0  0  0  0  0  0  0  0  0
   -4.5872    0.2281    0.6929 H   0  0  0  0  0  0  0  0  0  0  0  0
   -3.1935   -2.3433   -0.1453 H   0  0  0  0  0  0  0  0  0  0  0  0
   -6.5841   -0.5658    0.4862 H   0  0  0  0  0  0  0  0  0  0  0  0
   -9.8241    0.8201   -0.0575 H   0  0  0  0  0  0  0  0  0  0  0  0
   -9.9014   -0.8451    0.6656 H   0  0  0  0  0  0  0  0  0  0  0  0
   -8.6321    0.3288    1.1988 H   0  0  0  0  0  0  0  0  0  0  0  0
  -10.6194   -0.6849   -4.2552 H   0  0  0  0  0  0  0  0  0  0  0  0
  -12.0509   -1.0150   -3.2142 H   0  0  0  0  0  0  0  0  0  0  0  0
  -10.8269   -2.3150   -3.4771 H   0  0  0  0  0  0  0  0  0  0  0  0
   -8.4175   -1.6146   -4.0210 H   0  0  0  0  0  0  0  0  0  0  0  0
   -6.6473   -3.6487   -4.8339 H   0  0  0  0  0  0  0  0  0  0  0  0
   -5.6463   -3.1816   -6.9450 H   0  0  0  0  0  0  0  0  0  0  0  0
   -6.2409    0.2090   -5.6457 H   0  0  0  0  0  0  0  0  0  0  0  0
   -5.8859    4.5310   -6.6090 H   0  0  0  0  0  0  0  0  0  0  0  0
   -7.9281    5.3915   -5.5339 H   0  0  0  0  0  0  0  0  0  0  0  0
  -11.5875    4.3534   -4.3819 H   0  0  0  0  0  0  0  0  0  0  0  0
  -10.2412    3.9913   -5.5084 H   0  0  0  0  0  0  0  0  0  0  0  0
  -11.2942    2.1659   -3.2508 H   0  0  0  0  0  0  0  0  0  0  0  0
  -11.5931    1.9554   -5.0178 H   0  0  0  0  0  0  0  0  0  0  0  0
   -9.9227    1.7591   -4.3614 H   0  0  0  0  0  0  0  0  0  0  0  0
   -5.6263    1.4353   -3.6219 H   0  0  0  0  0  0  0  0  0  0  0  0
    0.1351    0.5994   -5.5592 H   0  0  0  0  0  0  0  0  0  0  0  0
    2.3378   -0.1540   -6.3821 H   0  0  0  0  0  0  0  0  0  0  0  0
    3.9847    1.6668   -8.0907 H   0  0  0  0  0  0  0  0  0  0  0  0
    3.3077    1.8402   -9.7502 H   0  0  0  0  0  0  0  0  0  0  0  0
    6.0916    0.7311   -9.0355 H   0  0  0  0  0  0  0  0  0  0  0  0
    5.7217    2.3639   -9.7304 H   0  0  0  0  0  0  0  0  0  0  0  0
    5.4043    0.8861  -10.7075 H   0  0  0  0  0  0  0  0  0  0  0  0
   -1.2866    0.8868   -9.6226 H   0  0  0  0  0  0  0  0  0  0  0  0
    0.0542    3.2101   -6.5201 H   0  0  0  0  0  0  0  0  0  0  0  0
   -1.6117    4.3441   -2.6690 H   0  0  0  0  0  0  0  0  0  0  0  0
   -1.4462    1.4307   -2.2041 H   0  0  0  0  0  0  0  0  0  0  0  0
   -3.8643    1.4498   -1.7326 H   0  0  0  0  0  0  0  0  0  0  0  0
   -5.0491    4.2386   -1.9537 H   0  0  0  0  0  0  0  0  0  0  0  0
   -6.7173    4.4716   -1.3312 H   0  0  0  0  0  0  0  0  0  0  0  0
   -5.5562    6.5697   -1.0269 H   0  0  0  0  0  0  0  0  0  0  0  0
   -5.7587    5.8310    0.6048 H   0  0  0  0  0  0  0  0  0  0  0  0
   -4.1594    5.7695   -0.2345 H   0  0  0  0  0  0  0  0  0  0  0  0
   -0.7866    4.1760    1.0540 H   0  0  0  0  0  0  0  0  0  0  0  0
    4.3574    5.6380   -3.1910 H   0  0  0  0  0  0  0  0  0  0  0  0
    6.4288    5.6793   -4.5215 H   0  0  0  0  0  0  0  0  0  0  0  0
    7.6705    3.2878   -8.2645 H   0  0  0  0  0  0  0  0  0  0  0  0
    6.1031    3.0379   -7.4212 H   0  0  0  0  0  0  0  0  0  0  0  0
    6.1999    5.1369   -8.8413 H   0  0  0  0  0  0  0  0  0  0  0  0
    5.8317    5.4768   -7.1008 H   0  0  0  0  0  0  0  0  0  0  0  0
    7.4960    5.7771   -7.7610 H   0  0  0  0  0  0  0  0  0  0  0  0
    4.1379    1.3574   -3.6565 H   0  0  0  0  0  0  0  0  0  0  0  0
    4.8437    1.9008   -1.0911 H   0  0  0  0  0  0  0  0  0  0  0  0
    2.7631   -1.5519    1.2523 H   0  0  0  0  0  0  0  0  0  0  0  0
    2.3984   -2.9944    3.3380 H   0  0  0  0  0  0  0  0  0  0  0  0
    0.4063   -4.4596    3.2845 H   0  0  0  0  0  0  0  0  0  0  0  0
   -1.6318   -7.1869    0.0310 H   0  0  0  0  0  0  0  0  0  0  0  0
   -0.0947   -6.4097   -0.4615 H   0  0  0  0  0  0  0  0  0  0  0  0
   -2.3971   -5.1091    1.1536 H   0  0  0  0  0  0  0  0  0  0  0  0
   -1.9387   -4.7798   -0.5679 H   0  0  0  0  0  0  0  0  0  0  0  0
   -0.8181   -4.3027    0.7577 H   0  0  0  0  0  0  0  0  0  0  0  0
    4.3704   -5.5999    0.5252 H   0  0  0  0  0  0  0  0  0  0  0  0
    9.2195   -1.1613    3.6408 H   0  0  0  0  0  0  0  0  0  0  0  0
   11.2890    0.0645    3.0678 H   0  0  0  0  0  0  0  0  0  0  0  0
   13.3111   -1.2479    1.3189 H   0  0  0  0  0  0  0  0  0  0  0  0
   14.5927   -0.1511    0.7189 H   0  0  0  0  0  0  0  0  0  0  0  0
   12.5895   -1.6812   -1.0429 H   0  0  0  0  0  0  0  0  0  0  0  0
   14.3574   -2.0108   -0.8731 H   0  0  0  0  0  0  0  0  0  0  0  0
   13.7902   -0.4789   -1.6539 H   0  0  0  0  0  0  0  0  0  0  0  0
    8.2722   -1.5133   -0.5438 H   0  0  0  0  0  0  0  0  0  0  0  0
    9.3591   -3.9145    2.6543 H   0  0  0  0  0  0  0  0  0  0  0  0
    8.6128   -6.3232    3.3008 H   0  0  0  0  0  0  0  0  0  0  0  0
  1  2  2  0
  2  3  1  0
  3  4  2  0
  4  5  1  0
  5  6  2  0
  6  7  1  0
  7  8  2  0
  8  9  1  0
  9 10  1  0
 10 11  1  0
  8 12  1  0
 12 13  1  0
 12 14  2  0
  4 15  1  0
 15 16  2  0
 16 17  1  0
 17 18  1  0
 18 19  2  0
 19 20  1  0
 20 21  2  0
 21 22  1  0
 22 23  1  0
 23 24  1  0
 21 25  1  0
 25 26  2  0
 25 27  1  0
 17 28  2  0
 28 29  1  0
 16 30  1  0
 30 31  2  0
 31 32  1  0
 31 33  1  0
 33 34  1  0
 34 35  1  0
 35 36  2  0
 36 37  1  0
 37 38  1  0
 38 39  2  0
 39 40  1  0
 39 41  1  0
 41 42  1  0
 42 43  1  0
 41 44  2  0
 35 45  1  0
 45 46  2  3
 46 47  1  0
 47 48  1  0
 48 49  1  0
 49 50  2  0
 50 51  1  0
 51 52  1  0
 52 53  2  0
 53 54  1  0
 53 55  1  0
 55 56  1  0
 56 57  1  0
 55 58  2  0
 49 59  1  0
 59 60  2  3
 60 61  1  0
 61 62  2  0
 62 63  1  0
 63 64  2  0
 64 65  1  0
 65 66  2  0
 66 67  1  0
 67 68  2  0
 68 69  1  0
 69 70  1  0
 70 71  1  0
 68 72  1  0
 72 73  1  0
 72 74  2  0
 64 75  1  0
 75 76  2  0
 76 77  1  0
 77 78  1  0
 78 79  2  0
 79 80  1  0
 80 81  2  0
 81 82  1  0
 82 83  1  0
 83 84  1  0
 81 85  1  0
 85 86  2  0
 85 87  1  0
 77 88  2  0
 88 89  1  0
 76 90  1  0
 90 91  2  0
 91 92  1  0
 91 93  1  0
 93 94  2  0
 94 95  1  0
 95 96  2  0
 96 97  1  0
 97 98  2  0
 98 99  1  0
 99100  2  0
100101  1  0
101102  1  0
102103  1  0
100104  1  0
104105  1  0
104106  2  0
 96107  1  0
107108  2  0
108109  1  0
109110  1  0
110111  2  0
111112  1  0
112113  2  0
113114  1  0
114115  1  0
115116  1  0
113117  1  0
117118  2  0
117119  1  0
109120  2  0
120121  1  0
108122  1  0
122123  2  0
123124  1  0
123125  1  0
125126  2  0
126127  1  0
127128  2  0
128129  1  0
129130  2  0
130131  1  0
131132  2  0
132133  1  0
133134  1  0
134135  1  0
132136  1  0
136137  1  0
136138  2  0
128139  1  0
139140  2  0
140141  1  0
141142  1  0
142143  2  0
143144  1  0
144145  2  0
145146  1  0
146147  1  0
147148  1  0
145149  1  0
149150  2  0
149151  1  0
141152  2  0
152153  1  0
140154  1  0
154155  2  0
155156  1  0
 29  1  1  0
 37 33  2  0
 51 47  2  0
 89 61  1  0
121 93  1  0
153125  1  0
 28  3  1  0
 44 36  1  0
 58 50  1  0
 88 63  1  0
120 95  1  0
152127  1  0
 14  5  1  0
 32 15  1  0
 74 65  1  0
 92 75  1  0
106 97  1  0
124107  1  0
138129  1  0
156139  1  0
 26 18  1  0
 86 78  1  0
118110  1  0
150142  1  0
  1157  1  0
  2158  1  0
  6159  1  0
  7160  1  0
 10161  1  0
 10162  1  0
 11163  1  0
 11164  1  0
 11165  1  0
 14166  1  0
 19167  1  0
 20168  1  0
 23169  1  0
 23170  1  0
 24171  1  0
 24172  1  0
 24173  1  0
 26174  1  0
 30175  1  0
 38176  1  0
 40177  1  0
 40178  1  0
 40179  1  0
 43180  1  0
 43181  1  0
 43182  1  0
 44183  1  0
 45184  1  0
 46185  1  0
 52186  1  0
 54187  1  0
 54188  1  0
 54189  1  0
 57190  1  0
 57191  1  0
 57192  1  0
 58193  1  0
 59194  1  0
 60195  1  0
 62196  1  0
 66197  1  0
 67198  1  0
 70199  1  0
 70200  1  0
 71201  1  0
 71202  1  0
 71203  1  0
 74204  1  0
 79205  1  0
 80206  1  0
 83207  1  0
 83208  1  0
 84209  1  0
 84210  1  0
 84211  1  0
 86212  1  0
 90213  1  0
 94214  1  0
 98215  1  0
 99216  1  0
102217  1  0
102218  1  0
103219  1  0
103220  1  0
103221  1  0
106222  1  0
111223  1  0
112224  1  0
115225  1  0
115226  1  0
116227  1  0
116228  1  0
116229  1  0
118230  1  0
122231  1  0
126232  1  0
130233  1  0
131234  1  0
134235  1  0
134236  1  0
135237  1  0
135238  1  0
135239  1  0
138240  1  0
143241  1  0
144242  1  0
147243  1  0
147244  1  0
148245  1  0
148246  1  0
148247  1  0
150248  1  0
154249  1  0
155250  1  0
M  END

