
     RDKit          3D

 98109  0  0  0  0  0  0  0  0999 V2000
   -0.2985    4.3735    4.3304 C   0  0  0  0  0  0  0  0  0  0  0  0
   -1.0233    3.6861    2.9759 S   0  0  0  0  0  0  0  0  0  0  0  0
    0.3873    3.3887    2.1035 C   0  0  0  0  0  0  0  0  0  0  0  0
    1.4626    3.8685    2.8619 C   0  0  0  0  0  0  0  0  0  0  0  0
    1.0718    4.3969    4.1038 C   0  0  0  0  0  0  0  0  0  0  0  0
    2.0154    4.9115    4.9918 C   0  0  0  0  0  0  0  0  0  0  0  0
    3.3758    4.9117    4.6307 C   0  0  0  0  0  0  0  0  0  0  0  0
    4.4031    5.4467    5.5880 C   0  0  0  0  0  0  0  0  0  0  0  0
    3.7755    4.4260    3.3637 C   0  0  0  0  0  0  0  0  0  0  0  0
    5.1384    4.4659    3.0258 O   0  0  0  0  0  0  0  0  0  0  0  0
    5.6833    3.9873    1.7990 C   0  0  0  0  0  0  0  0  0  0  0  0
    2.8077    3.9170    2.4717 C   0  0  0  0  0  0  0  0  0  0  0  0
    0.4071    2.7283    0.7861 C   0  0  0  0  0  0  0  0  0  0  0  0
    1.3576    1.8515    0.4465 C   0  0  0  0  0  0  0  0  0  0  0  0
    1.4140    1.2186   -0.8852 C   0  0  0  0  0  0  0  0  0  0  0  0
    0.1284    1.0558   -1.9577 S   0  0  0  0  0  0  0  0  0  0  0  0
    0.9574    0.2499   -3.1902 C   0  0  0  0  0  0  0  0  0  0  0  0
    2.2869    0.1104   -2.7655 C   0  0  0  0  0  0  0  0  0  0  0  0
    2.5353    0.6428   -1.4852 C   0  0  0  0  0  0  0  0  0  0  0  0
    3.8242    0.6116   -0.9421 C   0  0  0  0  0  0  0  0  0  0  0  0
    4.8756    0.0340   -1.6753 C   0  0  0  0  0  0  0  0  0  0  0  0
    6.2669    0.0301   -1.1078 C   0  0  0  0  0  0  0  0  0  0  0  0
    4.6335   -0.5120   -2.9563 C   0  0  0  0  0  0  0  0  0  0  0  0
    5.7115   -1.0738   -3.6626 O   0  0  0  0  0  0  0  0  0  0  0  0
    5.6174   -1.6411   -4.9669 C   0  0  0  0  0  0  0  0  0  0  0  0
    3.3290   -0.4761   -3.4969 C   0  0  0  0  0  0  0  0  0  0  0  0
    0.4079   -0.1621   -4.5066 C   0  0  0  0  0  0  0  0  0  0  0  0
   -0.8931   -0.2185   -4.8210 C   0  0  0  0  0  0  0  0  0  0  0  0
   -1.9299    0.0533   -3.8787 N   0  0  0  0  0  0  0  0  0  0  0  0
   -2.7106    1.2335   -3.8360 C   0  0  0  0  0  0  0  0  0  0  0  0
   -2.4305    2.5296   -4.2245 C   0  0  0  0  0  0  0  0  0  0  0  0
   -3.6383    3.4554   -3.4730 S   0  0  0  0  0  0  0  0  0  0  0  0
   -4.4666    2.2093   -2.6714 C   0  0  0  0  0  0  0  0  0  0  0  0
   -3.7738    1.0665   -3.0222 C   0  0  0  0  0  0  0  0  0  0  0  0
   -3.8234   -0.2576   -2.5199 N   0  0  0  0  0  0  0  0  0  0  0  0
   -2.6464   -0.9563   -3.0778 C   0  0  0  0  0  0  0  0  0  0  0  0
   -4.4032   -0.5942   -1.2879 N   0  0  0  0  0  0  0  0  0  0  0  0
   -3.9155   -0.1382   -0.0390 C   0  0  0  0  0  0  0  0  0  0  0  0
   -3.0014    0.8474    0.2855 C   0  0  0  0  0  0  0  0  0  0  0  0
   -2.6727    0.5859    1.9283 S   0  0  0  0  0  0  0  0  0  0  0  0
   -3.6577   -0.7715    2.1793 C   0  0  0  0  0  0  0  0  0  0  0  0
   -4.2501   -0.9974    0.9493 C   0  0  0  0  0  0  0  0  0  0  0  0
   -4.9762   -2.1036    0.4319 N   0  0  0  0  0  0  0  0  0  0  0  0
   -5.0459   -1.8940   -1.0286 C   0  0  0  0  0  0  0  0  0  0  0  0
   -5.0369   -3.3731    1.0378 N   0  0  0  0  0  0  0  0  0  0  0  0
   -5.8122   -4.4506    0.5353 C   0  0  0  0  0  0  0  0  0  0  0  0
   -6.8921   -4.4969   -0.3284 C   0  0  0  0  0  0  0  0  0  0  0  0
   -7.0893   -6.1498   -0.6603 S   0  0  0  0  0  0  0  0  0  0  0  0
   -5.8154   -6.7599    0.2800 C   0  0  0  0  0  0  0  0  0  0  0  0
   -5.2583   -5.6362    0.8614 C   0  0  0  0  0  0  0  0  0  0  0  0
   -4.0806   -5.4544    1.6241 N   0  0  0  0  0  0  0  0  0  0  0  0
   -3.8966   -3.9950    1.7453 C   0  0  0  0  0  0  0  0  0  0  0  0
   -3.0087   -6.3585    1.6003 N   0  0  0  0  0  0  0  0  0  0  0  0
   -2.2258   -6.6038    0.4428 C   0  0  0  0  0  0  0  0  0  0  0  0
   -2.3864   -6.1859   -0.8679 C   0  0  0  0  0  0  0  0  0  0  0  0
   -0.8614   -6.4103   -1.5772 S   0  0  0  0  0  0  0  0  0  0  0  0
   -0.0278   -6.9822   -0.2108 C   0  0  0  0  0  0  0  0  0  0  0  0
   -0.9829   -7.0110    0.7877 C   0  0  0  0  0  0  0  0  0  0  0  0
   -0.8384   -7.0518    2.1953 N   0  0  0  0  0  0  0  0  0  0  0  0
   -2.1174   -6.5849    2.7564 C   0  0  0  0  0  0  0  0  0  0  0  0
   -0.8097    4.7400    5.2093 H   0  0  0  0  0  0  0  0  0  0  0  0
    1.6972    5.3062    5.9492 H   0  0  0  0  0  0  0  0  0  0  0  0
    4.8988    6.3360    5.1462 H   0  0  0  0  0  0  0  0  0  0  0  0
    3.9486    5.7426    6.5577 H   0  0  0  0  0  0  0  0  0  0  0  0
    5.1693    4.6685    5.7898 H   0  0  0  0  0  0  0  0  0  0  0  0
    6.7840    4.1278    1.8106 H   0  0  0  0  0  0  0  0  0  0  0  0
    5.4647    2.9045    1.6775 H   0  0  0  0  0  0  0  0  0  0  0  0
    5.2637    4.5595    0.9448 H   0  0  0  0  0  0  0  0  0  0  0  0
    3.1005    3.5982    1.4831 H   0  0  0  0  0  0  0  0  0  0  0  0
   -0.4131    2.9314    0.1091 H   0  0  0  0  0  0  0  0  0  0  0  0
    2.1201    1.5895    1.1670 H   0  0  0  0  0  0  0  0  0  0  0  0
    4.0201    1.0431    0.0304 H   0  0  0  0  0  0  0  0  0  0  0  0
    6.6677   -1.0054   -1.1039 H   0  0  0  0  0  0  0  0  0  0  0  0
    6.9202    0.6764   -1.7305 H   0  0  0  0  0  0  0  0  0  0  0  0
    6.2848    0.4139   -0.0652 H   0  0  0  0  0  0  0  0  0  0  0  0
    4.9244   -2.5099   -4.9603 H   0  0  0  0  0  0  0  0  0  0  0  0
    5.2667   -0.8769   -5.6944 H   0  0  0  0  0  0  0  0  0  0  0  0
    6.6209   -1.9941   -5.2801 H   0  0  0  0  0  0  0  0  0  0  0  0
    3.1350   -0.8924   -4.4734 H   0  0  0  0  0  0  0  0  0  0  0  0
    1.1050   -0.4268   -5.2897 H   0  0  0  0  0  0  0  0  0  0  0  0
   -1.1760   -0.5073   -5.8238 H   0  0  0  0  0  0  0  0  0  0  0  0
   -1.5836    2.8764   -4.8016 H   0  0  0  0  0  0  0  0  0  0  0  0
   -5.2985    2.2943   -1.9869 H   0  0  0  0  0  0  0  0  0  0  0  0
   -1.9906   -1.3280   -2.2595 H   0  0  0  0  0  0  0  0  0  0  0  0
   -2.9791   -1.7966   -3.7243 H   0  0  0  0  0  0  0  0  0  0  0  0
   -2.5590    1.5817   -0.3728 H   0  0  0  0  0  0  0  0  0  0  0  0
   -3.7558   -1.3542    3.0837 H   0  0  0  0  0  0  0  0  0  0  0  0
   -4.4945   -2.7042   -1.5531 H   0  0  0  0  0  0  0  0  0  0  0  0
   -6.1012   -1.8602   -1.3644 H   0  0  0  0  0  0  0  0  0  0  0  0
   -7.4636   -3.6701   -0.7265 H   0  0  0  0  0  0  0  0  0  0  0  0
   -5.4887   -7.7866    0.3753 H   0  0  0  0  0  0  0  0  0  0  0  0
   -3.9039   -3.7078    2.8165 H   0  0  0  0  0  0  0  0  0  0  0  0
   -2.9423   -3.6912    1.2638 H   0  0  0  0  0  0  0  0  0  0  0  0
   -3.2611   -5.7383   -1.3195 H   0  0  0  0  0  0  0  0  0  0  0  0
    1.0302   -7.1858   -0.1120 H   0  0  0  0  0  0  0  0  0  0  0  0
    0.0563   -7.1790    2.7168 H   0  0  0  0  0  0  0  0  0  0  0  0
   -2.5489   -7.3573    3.4302 H   0  0  0  0  0  0  0  0  0  0  0  0
   -1.9541   -5.6349    3.3102 H   0  0  0  0  0  0  0  0  0  0  0  0
  1  2  1  0
  2  3  1  0
  3  4  2  0
  4  5  1  0
  5  6  1  0
  6  7  2  0
  7  8  1  0
  7  9  1  0
  9 10  1  0
 10 11  1  0
  9 12  2  0
  3 13  1  0
 13 14  2  3
 14 15  1  0
 15 16  1  0
 16 17  1  0
 17 18  2  0
 18 19  1  0
 19 20  1  0
 20 21  2  0
 21 22  1  0
 21 23  1  0
 23 24  1  0
 24 25  1  0
 23 26  2  0
 17 27  1  0
 27 28  2  3
 28 29  1  0
 29 30  1  0
 30 31  2  0
 31 32  1  0
 32 33  1  0
 33 34  2  0
 34 35  1  0
 35 36  1  0
 35 37  1  0
 37 38  1  0
 38 39  2  0
 39 40  1  0
 40 41  1  0
 41 42  2  0
 42 43  1  0
 43 44  1  0
 43 45  1  0
 45 46  1  0
 46 47  2  0
 47 48  1  0
 48 49  1  0
 49 50  2  0
 50 51  1  0
 51 52  1  0
 51 53  1  0
 53 54  1  0
 54 55  2  0
 55 56  1  0
 56 57  1  0
 57 58  2  0
 58 59  1  0
 59 60  1  0
  5  1  2  0
 19 15  2  0
 36 29  1  0
 44 37  1  0
 52 45  1  0
 60 53  1  0
 12  4  1  0
 26 18  1  0
 34 30  1  0
 42 38  1  0
 50 46  1  0
 58 54  1  0
  1 61  1  0
  6 62  1  0
  8 63  1  0
  8 64  1  0
  8 65  1  0
 11 66  1  0
 11 67  1  0
 11 68  1  0
 12 69  1  0
 13 70  1  0
 14 71  1  0
 20 72  1  0
 22 73  1  0
 22 74  1  0
 22 75  1  0
 25 76  1  0
 25 77  1  0
 25 78  1  0
 26 79  1  0
 27 80  1  0
 28 81  1  0
 31 82  1  0
 33 83  1  0
 36 84  1  0
 36 85  1  0
 39 86  1  0
 41 87  1  0
 44 88  1  0
 44 89  1  0
 47 90  1  0
 49 91  1  0
 52 92  1  0
 52 93  1  0
 55 94  1  0
 57 95  1  0
 59 96  1  0
 60 97  1  0
 60 98  1  0
M  END

