
     RDKit          3D

200220  0  0  0  0  0  0  0  0999 V2000
    3.6749   -9.2451    4.1625 C   0  0  0  0  0  0  0  0  0  0  0  0
    4.1364   -8.0662    4.7423 C   0  0  0  0  0  0  0  0  0  0  0  0
    3.1542   -7.0646    4.8194 C   0  0  0  0  0  0  0  0  0  0  0  0
    3.3195   -5.7650    5.3412 C   0  0  0  0  0  0  0  0  0  0  0  0
    4.6242   -5.2822    5.8270 C   0  0  0  0  0  0  0  0  0  0  0  0
    4.9756   -4.9042    7.4275 S   0  0  0  0  0  0  0  0  0  0  0  0
    6.6006   -4.5421    7.1749 C   0  0  0  0  0  0  0  0  0  0  0  0
    7.5820   -4.2134    8.2599 C   0  0  0  0  0  0  0  0  0  0  0  0
    8.3187   -5.4687    8.7175 C   0  0  0  0  0  0  0  0  0  0  0  0
    6.8944   -4.7336    5.8246 C   0  0  0  0  0  0  0  0  0  0  0  0
    8.4914   -4.4866    5.1342 Cl  0  0  0  0  0  0  0  0  0  0  0  0
    5.7854   -5.1403    5.0691 C   0  0  0  0  0  0  0  0  0  0  0  0
    5.8525   -5.4212    3.3362 Cl  0  0  0  0  0  0  0  0  0  0  0  0
    2.1847   -4.9353    5.3526 C   0  0  0  0  0  0  0  0  0  0  0  0
    0.9499   -5.3437    4.8434 C   0  0  0  0  0  0  0  0  0  0  0  0
    0.7902   -6.6350    4.3049 C   0  0  0  0  0  0  0  0  0  0  0  0
   -0.4849   -7.0749    3.7181 C   0  0  0  0  0  0  0  0  0  0  0  0
   -1.1662   -6.4349    2.3209 S   0  0  0  0  0  0  0  0  0  0  0  0
   -2.5348   -7.4148    2.3275 C   0  0  0  0  0  0  0  0  0  0  0  0
   -3.6458   -7.3226    1.3295 C   0  0  0  0  0  0  0  0  0  0  0  0
   -4.6604   -6.2681    1.7514 C   0  0  0  0  0  0  0  0  0  0  0  0
   -2.4838   -8.2490    3.4438 C   0  0  0  0  0  0  0  0  0  0  0  0
   -1.3268   -8.0668    4.2181 C   0  0  0  0  0  0  0  0  0  0  0  0
   -1.0006   -8.9573    5.7008 Cl  0  0  0  0  0  0  0  0  0  0  0  0
   -3.7457   -9.4017    3.8563 Cl  0  0  0  0  0  0  0  0  0  0  0  0
    1.9163   -7.4752    4.3182 C   0  0  0  0  0  0  0  0  0  0  0  0
    2.0501   -9.0527    3.7522 S   0  0  0  0  0  0  0  0  0  0  0  0
   -0.0420   -4.3535    4.9287 C   0  0  0  0  0  0  0  0  0  0  0  0
    0.4104   -3.1658    5.5035 C   0  0  0  0  0  0  0  0  0  0  0  0
    2.0535   -3.3433    5.8799 S   0  0  0  0  0  0  0  0  0  0  0  0
   -0.3856   -1.9223    5.5828 C   0  0  0  0  0  0  0  0  0  0  0  0
   -1.6988   -1.6030    4.5765 S   0  0  0  0  0  0  0  0  0  0  0  0
   -1.9818   -0.0128    5.0583 C   0  0  0  0  0  0  0  0  0  0  0  0
   -1.0326    0.2988    6.0358 C   0  0  0  0  0  0  0  0  0  0  0  0
   -0.1526   -0.7620    6.3394 C   0  0  0  0  0  0  0  0  0  0  0  0
    0.8372   -0.5872    7.3153 C   0  0  0  0  0  0  0  0  0  0  0  0
    0.9888    0.6623    7.9466 C   0  0  0  0  0  0  0  0  0  0  0  0
    2.0691    0.8609    8.9717 C   0  0  0  0  0  0  0  0  0  0  0  0
    0.1371    1.7355    7.6088 C   0  0  0  0  0  0  0  0  0  0  0  0
    0.3360    2.9783    8.2327 O   0  0  0  0  0  0  0  0  0  0  0  0
   -0.3953    4.1618    7.9290 C   0  0  0  0  0  0  0  0  0  0  0  0
   -0.8887    1.5421    6.6621 C   0  0  0  0  0  0  0  0  0  0  0  0
   -3.0311    0.8834    4.5208 C   0  0  0  0  0  0  0  0  0  0  0  0
   -3.7719    0.5653    3.4542 C   0  0  0  0  0  0  0  0  0  0  0  0
   -4.8024    1.4767    2.9071 C   0  0  0  0  0  0  0  0  0  0  0  0
   -5.4143    2.8591    3.6687 S   0  0  0  0  0  0  0  0  0  0  0  0
   -6.5043    3.2958    2.4647 C   0  0  0  0  0  0  0  0  0  0  0  0
   -6.4233    2.3424    1.4475 C   0  0  0  0  0  0  0  0  0  0  0  0
   -5.4650    1.3419    1.6833 C   0  0  0  0  0  0  0  0  0  0  0  0
   -5.2472    0.3408    0.7279 C   0  0  0  0  0  0  0  0  0  0  0  0
   -6.0087    0.3260   -0.4556 C   0  0  0  0  0  0  0  0  0  0  0  0
   -5.7784   -0.7499   -1.4793 C   0  0  0  0  0  0  0  0  0  0  0  0
   -7.0155    1.2961   -0.6649 C   0  0  0  0  0  0  0  0  0  0  0  0
   -7.7968    1.2189   -1.8303 O   0  0  0  0  0  0  0  0  0  0  0  0
   -8.8815    2.0913   -2.1311 C   0  0  0  0  0  0  0  0  0  0  0  0
   -7.2173    2.3097    0.2951 C   0  0  0  0  0  0  0  0  0  0  0  0
   -7.3527    4.5052    2.4867 C   0  0  0  0  0  0  0  0  0  0  0  0
   -7.2970    5.4521    1.5387 C   0  0  0  0  0  0  0  0  0  0  0  0
   -6.2569    5.4686    0.5009 C   0  0  0  0  0  0  0  0  0  0  0  0
   -6.4782    5.3239   -0.8677 C   0  0  0  0  0  0  0  0  0  0  0  0
   -5.2849    5.1799   -1.5959 C   0  0  0  0  0  0  0  0  0  0  0  0
   -5.1662    4.8725   -2.9704 C   0  0  0  0  0  0  0  0  0  0  0  0
   -6.3508    4.7071   -3.8333 C   0  0  0  0  0  0  0  0  0  0  0  0
   -7.4611    5.9220   -4.1701 S   0  0  0  0  0  0  0  0  0  0  0  0
   -8.4454    4.9994   -5.1748 C   0  0  0  0  0  0  0  0  0  0  0  0
   -9.6194    5.5314   -5.9425 C   0  0  0  0  0  0  0  0  0  0  0  0
   -9.1617    6.1455   -7.2612 C   0  0  0  0  0  0  0  0  0  0  0  0
   -7.8967    3.7194   -5.2787 C   0  0  0  0  0  0  0  0  0  0  0  0
   -8.5885    2.4397   -6.2653 Cl  0  0  0  0  0  0  0  0  0  0  0  0
   -6.7313    3.5516   -4.5165 C   0  0  0  0  0  0  0  0  0  0  0  0
   -5.8874    2.0135   -4.3842 Cl  0  0  0  0  0  0  0  0  0  0  0  0
   -3.8620    4.6653   -3.4632 C   0  0  0  0  0  0  0  0  0  0  0  0
   -2.7319    4.7596   -2.6514 C   0  0  0  0  0  0  0  0  0  0  0  0
   -2.8533    5.0628   -1.2856 C   0  0  0  0  0  0  0  0  0  0  0  0
   -1.6807    5.1214   -0.4025 C   0  0  0  0  0  0  0  0  0  0  0  0
   -0.8689    3.7849    0.2101 S   0  0  0  0  0  0  0  0  0  0  0  0
    0.3390    4.6564    0.9948 C   0  0  0  0  0  0  0  0  0  0  0  0
    1.4946    4.0411    1.7236 C   0  0  0  0  0  0  0  0  0  0  0  0
    2.5630    3.5784    0.7385 C   0  0  0  0  0  0  0  0  0  0  0  0
    0.1300    6.0150    0.7628 C   0  0  0  0  0  0  0  0  0  0  0  0
   -1.0145    6.2750   -0.0091 C   0  0  0  0  0  0  0  0  0  0  0  0
   -1.5459    7.8910   -0.4576 Cl  0  0  0  0  0  0  0  0  0  0  0  0
    1.1833    7.2835    1.3732 Cl  0  0  0  0  0  0  0  0  0  0  0  0
   -4.1451    5.2569   -0.7885 C   0  0  0  0  0  0  0  0  0  0  0  0
   -4.5987    5.4625    0.8135 S   0  0  0  0  0  0  0  0  0  0  0  0
   -1.5397    4.4488   -3.3157 C   0  0  0  0  0  0  0  0  0  0  0  0
   -1.7198    4.0805   -4.6515 C   0  0  0  0  0  0  0  0  0  0  0  0
   -3.3735    4.1810   -5.0019 S   0  0  0  0  0  0  0  0  0  0  0  0
   -0.6708    3.4055   -5.4489 C   0  0  0  0  0  0  0  0  0  0  0  0
    0.7296    2.8111   -4.7379 S   0  0  0  0  0  0  0  0  0  0  0  0
    1.3110    1.9110   -6.0329 C   0  0  0  0  0  0  0  0  0  0  0  0
    0.3921    2.0606   -7.0748 C   0  0  0  0  0  0  0  0  0  0  0  0
   -0.7029    2.9021   -6.7605 C   0  0  0  0  0  0  0  0  0  0  0  0
   -1.6858    3.1530   -7.7246 C   0  0  0  0  0  0  0  0  0  0  0  0
   -1.6009    2.5388   -8.9876 C   0  0  0  0  0  0  0  0  0  0  0  0
   -2.6532    2.8125  -10.0254 C   0  0  0  0  0  0  0  0  0  0  0  0
   -0.5189    1.6847   -9.2943 C   0  0  0  0  0  0  0  0  0  0  0  0
   -0.4677    1.0912  -10.5679 O   0  0  0  0  0  0  0  0  0  0  0  0
    0.5461    0.1906  -10.9990 C   0  0  0  0  0  0  0  0  0  0  0  0
    0.4834    1.4500   -8.3285 C   0  0  0  0  0  0  0  0  0  0  0  0
    2.4186    0.9360   -5.9260 C   0  0  0  0  0  0  0  0  0  0  0  0
    3.2496    0.9888   -4.8810 C   0  0  0  0  0  0  0  0  0  0  0  0
    4.0423   -0.1553   -4.4148 C   0  0  0  0  0  0  0  0  0  0  0  0
    4.3219   -0.3545   -3.0689 C   0  0  0  0  0  0  0  0  0  0  0  0
    4.9163   -1.5935   -2.8060 C   0  0  0  0  0  0  0  0  0  0  0  0
    5.1988   -2.1165   -1.5291 C   0  0  0  0  0  0  0  0  0  0  0  0
    4.7728   -1.4168   -0.3005 C   0  0  0  0  0  0  0  0  0  0  0  0
    3.1798   -0.9984    0.0435 S   0  0  0  0  0  0  0  0  0  0  0  0
    3.5031   -0.2276    1.4982 C   0  0  0  0  0  0  0  0  0  0  0  0
    2.4587    0.3882    2.3755 C   0  0  0  0  0  0  0  0  0  0  0  0
    2.0043   -0.5912    3.4448 C   0  0  0  0  0  0  0  0  0  0  0  0
    4.8718   -0.3150    1.7570 C   0  0  0  0  0  0  0  0  0  0  0  0
    5.6281    0.3532    3.1951 Cl  0  0  0  0  0  0  0  0  0  0  0  0
    5.5865   -0.9728    0.7422 C   0  0  0  0  0  0  0  0  0  0  0  0
    7.3368   -1.1412    0.7476 Cl  0  0  0  0  0  0  0  0  0  0  0  0
    5.7857   -3.3916   -1.4835 C   0  0  0  0  0  0  0  0  0  0  0  0
    6.0645   -4.1325   -2.6358 C   0  0  0  0  0  0  0  0  0  0  0  0
    5.7474   -3.6205   -3.9144 C   0  0  0  0  0  0  0  0  0  0  0  0
    5.9786   -4.4055   -5.1379 C   0  0  0  0  0  0  0  0  0  0  0  0
    5.3073   -5.9126   -5.4487 S   0  0  0  0  0  0  0  0  0  0  0  0
    6.0883   -6.1705   -6.9162 C   0  0  0  0  0  0  0  0  0  0  0  0
    6.0004   -7.4379   -7.7153 C   0  0  0  0  0  0  0  0  0  0  0  0
    4.5515   -7.7732   -8.0653 C   0  0  0  0  0  0  0  0  0  0  0  0
    6.9042   -5.0691   -7.1798 C   0  0  0  0  0  0  0  0  0  0  0  0
    6.8379   -4.0786   -6.1856 C   0  0  0  0  0  0  0  0  0  0  0  0
    7.8286   -2.6252   -6.2039 Cl  0  0  0  0  0  0  0  0  0  0  0  0
    7.9709   -4.9528   -8.5731 Cl  0  0  0  0  0  0  0  0  0  0  0  0
    5.1646   -2.3400   -3.9621 C   0  0  0  0  0  0  0  0  0  0  0  0
    4.5633   -1.4992   -5.2997 S   0  0  0  0  0  0  0  0  0  0  0  0
    6.6408   -5.3826   -2.3534 C   0  0  0  0  0  0  0  0  0  0  0  0
    6.7786   -5.6329   -0.9914 C   0  0  0  0  0  0  0  0  0  0  0  0
    6.2003   -4.3042   -0.1337 S   0  0  0  0  0  0  0  0  0  0  0  0
    4.2626  -10.1403    4.0044 H   0  0  0  0  0  0  0  0  0  0  0  0
    5.1528   -7.9507    5.0953 H   0  0  0  0  0  0  0  0  0  0  0  0
    7.0441   -3.7688    9.1235 H   0  0  0  0  0  0  0  0  0  0  0  0
    8.3155   -3.4671    7.8874 H   0  0  0  0  0  0  0  0  0  0  0  0
    8.8612   -5.9323    7.8665 H   0  0  0  0  0  0  0  0  0  0  0  0
    7.6024   -6.2068    9.1357 H   0  0  0  0  0  0  0  0  0  0  0  0
    9.0566   -5.2025    9.5025 H   0  0  0  0  0  0  0  0  0  0  0  0
   -3.2277   -7.0494    0.3371 H   0  0  0  0  0  0  0  0  0  0  0  0
   -4.1508   -8.3075    1.2237 H   0  0  0  0  0  0  0  0  0  0  0  0
   -5.4769   -6.2155    1.0003 H   0  0  0  0  0  0  0  0  0  0  0  0
   -5.0993   -6.5279    2.7390 H   0  0  0  0  0  0  0  0  0  0  0  0
   -4.1749   -5.2716    1.8194 H   0  0  0  0  0  0  0  0  0  0  0  0
   -1.0542   -4.4872    4.5720 H   0  0  0  0  0  0  0  0  0  0  0  0
    1.4818   -1.4025    7.6040 H   0  0  0  0  0  0  0  0  0  0  0  0
    2.6314   -0.0765    9.1654 H   0  0  0  0  0  0  0  0  0  0  0  0
    2.7833    1.6293    8.6096 H   0  0  0  0  0  0  0  0  0  0  0  0
    1.6194    1.2018    9.9274 H   0  0  0  0  0  0  0  0  0  0  0  0
   -0.2594    4.4322    6.8609 H   0  0  0  0  0  0  0  0  0  0  0  0
   -0.0165    4.9953    8.5577 H   0  0  0  0  0  0  0  0  0  0  0  0
   -1.4726    4.0134    8.1537 H   0  0  0  0  0  0  0  0  0  0  0  0
   -1.5497    2.3545    6.4080 H   0  0  0  0  0  0  0  0  0  0  0  0
   -3.1864    1.8405    4.9973 H   0  0  0  0  0  0  0  0  0  0  0  0
   -3.6053   -0.3833    2.9613 H   0  0  0  0  0  0  0  0  0  0  0  0
   -4.4975   -0.4203    0.8921 H   0  0  0  0  0  0  0  0  0  0  0  0
   -4.8860   -1.3671   -1.2306 H   0  0  0  0  0  0  0  0  0  0  0  0
   -6.6650   -1.4136   -1.5253 H   0  0  0  0  0  0  0  0  0  0  0  0
   -5.6096   -0.2925   -2.4766 H   0  0  0  0  0  0  0  0  0  0  0  0
   -9.6587    2.0205   -1.3422 H   0  0  0  0  0  0  0  0  0  0  0  0
   -9.3321    1.7907   -3.1010 H   0  0  0  0  0  0  0  0  0  0  0  0
   -8.5173    3.1359   -2.2157 H   0  0  0  0  0  0  0  0  0  0  0  0
   -7.9884    3.0531    0.1547 H   0  0  0  0  0  0  0  0  0  0  0  0
   -8.0645    4.6131    3.2938 H   0  0  0  0  0  0  0  0  0  0  0  0
   -8.0225    6.2546    1.5536 H   0  0  0  0  0  0  0  0  0  0  0  0
   -7.4683    5.2423   -1.2981 H   0  0  0  0  0  0  0  0  0  0  0  0
  -10.3455    4.7125   -6.1446 H   0  0  0  0  0  0  0  0  0  0  0  0
  -10.1417    6.3019   -5.3334 H   0  0  0  0  0  0  0  0  0  0  0  0
   -8.5495    7.0493   -7.0632 H   0  0  0  0  0  0  0  0  0  0  0  0
  -10.0451    6.4340   -7.8678 H   0  0  0  0  0  0  0  0  0  0  0  0
   -8.5520    5.4141   -7.8300 H   0  0  0  0  0  0  0  0  0  0  0  0
    1.1317    3.1736    2.3137 H   0  0  0  0  0  0  0  0  0  0  0  0
    1.9398    4.7668    2.4345 H   0  0  0  0  0  0  0  0  0  0  0  0
    3.4361    3.1758    1.2924 H   0  0  0  0  0  0  0  0  0  0  0  0
    2.9028    4.4326    0.1118 H   0  0  0  0  0  0  0  0  0  0  0  0
    2.1617    2.7777    0.0792 H   0  0  0  0  0  0  0  0  0  0  0  0
   -0.5773    4.4211   -2.8140 H   0  0  0  0  0  0  0  0  0  0  0  0
   -2.4978    3.8300   -7.5213 H   0  0  0  0  0  0  0  0  0  0  0  0
   -2.1955    3.3440  -10.8881 H   0  0  0  0  0  0  0  0  0  0  0  0
   -3.0924    1.8559  -10.3820 H   0  0  0  0  0  0  0  0  0  0  0  0
   -3.4773    3.4403   -9.6226 H   0  0  0  0  0  0  0  0  0  0  0  0
    0.3328   -0.1193  -12.0438 H   0  0  0  0  0  0  0  0  0  0  0  0
    1.5386    0.6922  -10.9722 H   0  0  0  0  0  0  0  0  0  0  0  0
    0.5543   -0.7085  -10.3502 H   0  0  0  0  0  0  0  0  0  0  0  0
    1.3275    0.8101   -8.5531 H   0  0  0  0  0  0  0  0  0  0  0  0
    2.4442    0.0858   -6.5939 H   0  0  0  0  0  0  0  0  0  0  0  0
    3.2004    1.8358   -4.2041 H   0  0  0  0  0  0  0  0  0  0  0  0
    4.0516    0.3618   -2.3035 H   0  0  0  0  0  0  0  0  0  0  0  0
    1.5856    0.6801    1.7532 H   0  0  0  0  0  0  0  0  0  0  0  0
    2.8589    1.3038    2.8615 H   0  0  0  0  0  0  0  0  0  0  0  0
    2.8513   -0.8515    4.1111 H   0  0  0  0  0  0  0  0  0  0  0  0
    1.5970   -1.5152    2.9804 H   0  0  0  0  0  0  0  0  0  0  0  0
    1.2136   -0.1109    4.0501 H   0  0  0  0  0  0  0  0  0  0  0  0
    6.4372   -8.2673   -7.1217 H   0  0  0  0  0  0  0  0  0  0  0  0
    6.5785   -7.3475   -8.6582 H   0  0  0  0  0  0  0  0  0  0  0  0
    3.9584   -7.9477   -7.1431 H   0  0  0  0  0  0  0  0  0  0  0  0
    4.0947   -6.9438   -8.6466 H   0  0  0  0  0  0  0  0  0  0  0  0
    4.5223   -8.6981   -8.6809 H   0  0  0  0  0  0  0  0  0  0  0  0
    6.9543   -6.0942   -3.1050 H   0  0  0  0  0  0  0  0  0  0  0  0
    7.1878   -6.5340   -0.5552 H   0  0  0  0  0  0  0  0  0  0  0  0
  1  2  2  0
  2  3  1  0
  3  4  2  0
  4  5  1  0
  5  6  1  0
  6  7  1  0
  7  8  1  0
  8  9  1  0
  7 10  2  0
 10 11  1  0
 10 12  1  0
 12 13  1  0
  4 14  1  0
 14 15  2  0
 15 16  1  0
 16 17  1  0
 17 18  1  0
 18 19  1  0
 19 20  1  0
 20 21  1  0
 19 22  2  0
 22 23  1  0
 23 24  1  0
 22 25  1  0
 16 26  2  0
 26 27  1  0
 15 28  1  0
 28 29  2  0
 29 30  1  0
 29 31  1  0
 31 32  1  0
 32 33  1  0
 33 34  2  0
 34 35  1  0
 35 36  1  0
 36 37  2  0
 37 38  1  0
 37 39  1  0
 39 40  1  0
 40 41  1  0
 39 42  2  0
 33 43  1  0
 43 44  2  3
 44 45  1  0
 45 46  1  0
 46 47  1  0
 47 48  2  0
 48 49  1  0
 49 50  1  0
 50 51  2  0
 51 52  1  0
 51 53  1  0
 53 54  1  0
 54 55  1  0
 53 56  2  0
 47 57  1  0
 57 58  2  3
 58 59  1  0
 59 60  2  0
 60 61  1  0
 61 62  2  0
 62 63  1  0
 63 64  1  0
 64 65  1  0
 65 66  1  0
 66 67  1  0
 65 68  2  0
 68 69  1  0
 68 70  1  0
 70 71  1  0
 62 72  1  0
 72 73  2  0
 73 74  1  0
 74 75  1  0
 75 76  1  0
 76 77  1  0
 77 78  1  0
 78 79  1  0
 77 80  2  0
 80 81  1  0
 81 82  1  0
 80 83  1  0
 74 84  2  0
 84 85  1  0
 73 86  1  0
 86 87  2  0
 87 88  1  0
 87 89  1  0
 89 90  1  0
 90 91  1  0
 91 92  2  0
 92 93  1  0
 93 94  1  0
 94 95  2  0
 95 96  1  0
 95 97  1  0
 97 98  1  0
 98 99  1  0
 97100  2  0
 91101  1  0
101102  2  3
102103  1  0
103104  2  0
104105  1  0
105106  2  0
106107  1  0
107108  1  0
108109  1  0
109110  1  0
110111  1  0
109112  2  0
112113  1  0
112114  1  0
114115  1  0
106116  1  0
116117  2  0
117118  1  0
118119  1  0
119120  1  0
120121  1  0
121122  1  0
122123  1  0
121124  2  0
124125  1  0
125126  1  0
124127  1  0
118128  2  0
128129  1  0
117130  1  0
130131  2  0
131132  1  0
 27  1  1  0
 35 31  2  0
 49 45  2  0
 85 59  1  0
 93 89  2  0
129103  1  0
 26  3  1  0
 42 34  1  0
 56 48  1  0
 84 61  1  0
100 92  1  0
128105  1  0
 12  5  2  0
 30 14  1  0
 70 63  2  0
 88 72  1  0
114107  2  0
132116  1  0
 23 17  2  0
 81 75  2  0
125119  2  0
  1133  1  0
  2134  1  0
  8135  1  0
  8136  1  0
  9137  1  0
  9138  1  0
  9139  1  0
 20140  1  0
 20141  1  0
 21142  1  0
 21143  1  0
 21144  1  0
 28145  1  0
 36146  1  0
 38147  1  0
 38148  1  0
 38149  1  0
 41150  1  0
 41151  1  0
 41152  1  0
 42153  1  0
 43154  1  0
 44155  1  0
 50156  1  0
 52157  1  0
 52158  1  0
 52159  1  0
 55160  1  0
 55161  1  0
 55162  1  0
 56163  1  0
 57164  1  0
 58165  1  0
 60166  1  0
 66167  1  0
 66168  1  0
 67169  1  0
 67170  1  0
 67171  1  0
 78172  1  0
 78173  1  0
 79174  1  0
 79175  1  0
 79176  1  0
 86177  1  0
 94178  1  0
 96179  1  0
 96180  1  0
 96181  1  0
 99182  1  0
 99183  1  0
 99184  1  0
100185  1  0
101186  1  0
102187  1  0
104188  1  0
110189  1  0
110190  1  0
111191  1  0
111192  1  0
111193  1  0
122194  1  0
122195  1  0
123196  1  0
123197  1  0
123198  1  0
130199  1  0
131200  1  0
M  END

