
     RDKit          3D

218241  0  0  0  0  0  0  0  0999 V2000
    3.6015   -2.8607   13.4491 C   0  0  0  0  0  0  0  0  0  0  0  0
    4.2565   -1.7285   12.9724 C   0  0  0  0  0  0  0  0  0  0  0  0
    3.7807   -1.2969   11.7220 C   0  0  0  0  0  0  0  0  0  0  0  0
    4.2626   -0.2011   10.9715 C   0  0  0  0  0  0  0  0  0  0  0  0
    5.3164    0.6909   11.4850 C   0  0  0  0  0  0  0  0  0  0  0  0
    6.8252    0.9119   10.7738 S   0  0  0  0  0  0  0  0  0  0  0  0
    7.3956    2.0141   11.9084 C   0  0  0  0  0  0  0  0  0  0  0  0
    8.7255    2.7037   11.8322 C   0  0  0  0  0  0  0  0  0  0  0  0
    8.6177    3.9953   11.0304 C   0  0  0  0  0  0  0  0  0  0  0  0
    6.3956    2.2457   12.8516 C   0  0  0  0  0  0  0  0  0  0  0  0
    6.5624    3.3761   14.1884 Cl  0  0  0  0  0  0  0  0  0  0  0  0
    5.2310    1.5008   12.6179 C   0  0  0  0  0  0  0  0  0  0  0  0
    3.7870    1.6279   13.6147 Cl  0  0  0  0  0  0  0  0  0  0  0  0
    3.6764    0.0144    9.7120 C   0  0  0  0  0  0  0  0  0  0  0  0
    2.6398   -0.7872    9.2229 C   0  0  0  0  0  0  0  0  0  0  0  0
    2.1655   -1.8868    9.9646 C   0  0  0  0  0  0  0  0  0  0  0  0
    1.1203   -2.7885    9.4424 C   0  0  0  0  0  0  0  0  0  0  0  0
   -0.3888   -3.0250   10.1502 S   0  0  0  0  0  0  0  0  0  0  0  0
   -0.9561   -4.1158    8.9996 C   0  0  0  0  0  0  0  0  0  0  0  0
   -2.3375   -4.6975    8.9894 C   0  0  0  0  0  0  0  0  0  0  0  0
   -3.2811   -3.8353    8.1571 C   0  0  0  0  0  0  0  0  0  0  0  0
    0.0275   -4.2954    8.0287 C   0  0  0  0  0  0  0  0  0  0  0  0
    1.1965   -3.5617    8.2829 C   0  0  0  0  0  0  0  0  0  0  0  0
    2.6258   -3.6450    7.2596 Cl  0  0  0  0  0  0  0  0  0  0  0  0
   -0.1751   -5.3287    6.6208 Cl  0  0  0  0  0  0  0  0  0  0  0  0
    2.7556   -2.1062   11.2199 C   0  0  0  0  0  0  0  0  0  0  0  0
    2.4423   -3.3396   12.3212 S   0  0  0  0  0  0  0  0  0  0  0  0
    2.1555   -0.3618    7.9801 C   0  0  0  0  0  0  0  0  0  0  0  0
    2.8338    0.7455    7.4778 C   0  0  0  0  0  0  0  0  0  0  0  0
    4.0180    1.2223    8.5835 S   0  0  0  0  0  0  0  0  0  0  0  0
    2.5619    1.3600    6.1713 C   0  0  0  0  0  0  0  0  0  0  0  0
    3.4380    2.1487    5.4213 C   0  0  0  0  0  0  0  0  0  0  0  0
    2.9358    2.4539    4.1418 C   0  0  0  0  0  0  0  0  0  0  0  0
    3.6007    3.1633    3.1172 C   0  0  0  0  0  0  0  0  0  0  0  0
    4.9790    3.6565    3.2827 C   0  0  0  0  0  0  0  0  0  0  0  0
    5.4335    5.2770    3.2658 S   0  0  0  0  0  0  0  0  0  0  0  0
    7.0728    5.0032    3.5447 C   0  0  0  0  0  0  0  0  0  0  0  0
    8.1190    6.0737    3.6237 C   0  0  0  0  0  0  0  0  0  0  0  0
    8.7301    6.3382    2.2521 C   0  0  0  0  0  0  0  0  0  0  0  0
    7.2875    3.6291    3.6269 C   0  0  0  0  0  0  0  0  0  0  0  0
    8.8725    2.9067    3.8699 Cl  0  0  0  0  0  0  0  0  0  0  0  0
    6.1138    2.8729    3.4871 C   0  0  0  0  0  0  0  0  0  0  0  0
    6.0912    1.1137    3.5114 Cl  0  0  0  0  0  0  0  0  0  0  0  0
    2.9147    3.3102    1.8953 C   0  0  0  0  0  0  0  0  0  0  0  0
    1.6351    2.7828    1.6804 C   0  0  0  0  0  0  0  0  0  0  0  0
    0.9731    2.0811    2.7066 C   0  0  0  0  0  0  0  0  0  0  0  0
   -0.3596    1.4803    2.5366 C   0  0  0  0  0  0  0  0  0  0  0  0
   -0.6554   -0.1757    2.5099 S   0  0  0  0  0  0  0  0  0  0  0  0
   -2.3228   -0.0662    2.6970 C   0  0  0  0  0  0  0  0  0  0  0  0
   -3.2495   -1.2432    2.7795 C   0  0  0  0  0  0  0  0  0  0  0  0
   -3.9252   -1.5021    1.4402 C   0  0  0  0  0  0  0  0  0  0  0  0
   -2.6733    1.2803    2.7858 C   0  0  0  0  0  0  0  0  0  0  0  0
   -1.5698    2.1460    2.7046 C   0  0  0  0  0  0  0  0  0  0  0  0
   -1.6954    3.8941    2.8440 Cl  0  0  0  0  0  0  0  0  0  0  0  0
   -4.3222    1.8377    3.0250 Cl  0  0  0  0  0  0  0  0  0  0  0  0
    1.6582    1.9313    3.9196 C   0  0  0  0  0  0  0  0  0  0  0  0
    1.1658    1.0741    5.2749 S   0  0  0  0  0  0  0  0  0  0  0  0
    1.1809    2.9399    0.3621 C   0  0  0  0  0  0  0  0  0  0  0  0
    2.1185    3.5527   -0.4713 C   0  0  0  0  0  0  0  0  0  0  0  0
    3.4857    3.9449    0.4441 S   0  0  0  0  0  0  0  0  0  0  0  0
    2.0522    3.6577   -1.9453 C   0  0  0  0  0  0  0  0  0  0  0  0
    2.7637    4.9005   -2.8332 S   0  0  0  0  0  0  0  0  0  0  0  0
    2.6023    4.2218   -4.3678 C   0  0  0  0  0  0  0  0  0  0  0  0
    2.0516    2.9436   -4.1916 C   0  0  0  0  0  0  0  0  0  0  0  0
    1.7139    2.6430   -2.8547 C   0  0  0  0  0  0  0  0  0  0  0  0
    1.2087    1.3763   -2.5271 C   0  0  0  0  0  0  0  0  0  0  0  0
    1.0372    0.4064   -3.5282 C   0  0  0  0  0  0  0  0  0  0  0  0
    0.4751   -0.9427   -3.1793 C   0  0  0  0  0  0  0  0  0  0  0  0
    1.4619    0.6729   -4.8464 C   0  0  0  0  0  0  0  0  0  0  0  0
    1.3879   -0.3585   -5.7966 O   0  0  0  0  0  0  0  0  0  0  0  0
    1.9174   -0.2718   -7.1150 C   0  0  0  0  0  0  0  0  0  0  0  0
    1.9739    1.9481   -5.1727 C   0  0  0  0  0  0  0  0  0  0  0  0
    3.2440    4.7892   -5.5769 C   0  0  0  0  0  0  0  0  0  0  0  0
    2.7144    4.8222   -6.8107 C   0  0  0  0  0  0  0  0  0  0  0  0
    1.3377    4.4267   -7.1407 C   0  0  0  0  0  0  0  0  0  0  0  0
    0.9881    3.5034   -8.1231 C   0  0  0  0  0  0  0  0  0  0  0  0
   -0.3833    3.1950   -8.1218 C   0  0  0  0  0  0  0  0  0  0  0  0
   -1.0053    2.1540   -8.8501 C   0  0  0  0  0  0  0  0  0  0  0  0
   -0.2886    1.4011   -9.9038 C   0  0  0  0  0  0  0  0  0  0  0  0
   -0.1360   -0.2753   -9.9881 S   0  0  0  0  0  0  0  0  0  0  0  0
    0.7662   -0.3154  -11.4031 C   0  0  0  0  0  0  0  0  0  0  0  0
    1.1927   -1.5690  -12.1068 C   0  0  0  0  0  0  0  0  0  0  0  0
    0.1631   -1.9756  -13.1568 C   0  0  0  0  0  0  0  0  0  0  0  0
    0.9379    0.9892  -11.8558 C   0  0  0  0  0  0  0  0  0  0  0  0
    1.7757    1.3944  -13.3495 Cl  0  0  0  0  0  0  0  0  0  0  0  0
    0.3523    1.9513  -11.0175 C   0  0  0  0  0  0  0  0  0  0  0  0
    0.3440    3.6696  -11.3996 Cl  0  0  0  0  0  0  0  0  0  0  0  0
   -2.3132    1.8143   -8.4545 C   0  0  0  0  0  0  0  0  0  0  0  0
   -3.0307    2.5590   -7.5137 C   0  0  0  0  0  0  0  0  0  0  0  0
   -2.4660    3.6999   -6.9116 C   0  0  0  0  0  0  0  0  0  0  0  0
   -3.2473    4.5623   -5.9947 C   0  0  0  0  0  0  0  0  0  0  0  0
   -2.7911    5.0140   -4.4392 S   0  0  0  0  0  0  0  0  0  0  0  0
   -4.1458    5.9520   -4.1075 C   0  0  0  0  0  0  0  0  0  0  0  0
   -4.3921    6.6756   -2.8173 C   0  0  0  0  0  0  0  0  0  0  0  0
   -5.3614    5.9023   -1.9280 C   0  0  0  0  0  0  0  0  0  0  0  0
   -4.9872    5.9224   -5.2174 C   0  0  0  0  0  0  0  0  0  0  0  0
   -4.4823    5.1506   -6.2754 C   0  0  0  0  0  0  0  0  0  0  0  0
   -5.2994    5.0148   -7.8306 Cl  0  0  0  0  0  0  0  0  0  0  0  0
   -6.5159    6.7864   -5.2964 Cl  0  0  0  0  0  0  0  0  0  0  0  0
   -1.1054    3.9332   -7.1728 C   0  0  0  0  0  0  0  0  0  0  0  0
   -0.0485    4.9363   -6.3310 S   0  0  0  0  0  0  0  0  0  0  0  0
   -4.2044    1.9236   -7.0818 C   0  0  0  0  0  0  0  0  0  0  0  0
   -4.3738    0.6414   -7.6051 C   0  0  0  0  0  0  0  0  0  0  0  0
   -3.1357    0.3691   -8.7205 S   0  0  0  0  0  0  0  0  0  0  0  0
   -4.9772   -0.4520   -6.8227 C   0  0  0  0  0  0  0  0  0  0  0  0
   -5.0426   -0.4063   -5.4311 C   0  0  0  0  0  0  0  0  0  0  0  0
   -5.0662   -1.6670   -4.8257 C   0  0  0  0  0  0  0  0  0  0  0  0
   -4.8857   -1.9048   -3.4532 C   0  0  0  0  0  0  0  0  0  0  0  0
   -4.6436   -0.8008   -2.5145 C   0  0  0  0  0  0  0  0  0  0  0  0
   -3.1143   -0.2944   -2.0375 S   0  0  0  0  0  0  0  0  0  0  0  0
   -3.6395    1.0464   -1.1726 C   0  0  0  0  0  0  0  0  0  0  0  0
   -2.7222    2.0373   -0.5281 C   0  0  0  0  0  0  0  0  0  0  0  0
   -2.2099    3.0430   -1.5480 C   0  0  0  0  0  0  0  0  0  0  0  0
   -5.0279    1.1314   -1.2707 C   0  0  0  0  0  0  0  0  0  0  0  0
   -5.9831    2.4055   -0.5269 Cl  0  0  0  0  0  0  0  0  0  0  0  0
   -5.5905    0.0954   -2.0311 C   0  0  0  0  0  0  0  0  0  0  0  0
   -7.3094   -0.0417   -2.3717 Cl  0  0  0  0  0  0  0  0  0  0  0  0
   -4.7097   -3.2340   -3.0573 C   0  0  0  0  0  0  0  0  0  0  0  0
   -4.7315   -4.2992   -3.9597 C   0  0  0  0  0  0  0  0  0  0  0  0
   -4.9534   -4.0650   -5.3348 C   0  0  0  0  0  0  0  0  0  0  0  0
   -5.0550   -5.1721   -6.2966 C   0  0  0  0  0  0  0  0  0  0  0  0
   -6.3312   -6.2655   -6.3343 S   0  0  0  0  0  0  0  0  0  0  0  0
   -5.7549   -7.1672   -7.6312 C   0  0  0  0  0  0  0  0  0  0  0  0
   -6.4311   -8.3896   -8.1777 C   0  0  0  0  0  0  0  0  0  0  0  0
   -6.0541   -9.6219   -7.3638 C   0  0  0  0  0  0  0  0  0  0  0  0
   -4.5297   -6.6384   -8.0360 C   0  0  0  0  0  0  0  0  0  0  0  0
   -4.1403   -5.5100   -7.2925 C   0  0  0  0  0  0  0  0  0  0  0  0
   -2.6188   -4.6658   -7.5421 Cl  0  0  0  0  0  0  0  0  0  0  0  0
   -3.5532   -7.3263   -9.3266 Cl  0  0  0  0  0  0  0  0  0  0  0  0
   -5.0853   -2.7228   -5.7395 C   0  0  0  0  0  0  0  0  0  0  0  0
   -5.0257   -2.0773   -7.2986 S   0  0  0  0  0  0  0  0  0  0  0  0
   -4.3795   -5.5258   -3.3653 C   0  0  0  0  0  0  0  0  0  0  0  0
   -4.0519   -5.4002   -2.0101 C   0  0  0  0  0  0  0  0  0  0  0  0
   -4.2744   -3.7952   -1.5421 S   0  0  0  0  0  0  0  0  0  0  0  0
   -3.5161   -6.4801   -1.1566 C   0  0  0  0  0  0  0  0  0  0  0  0
   -3.9044   -8.1077   -1.3510 S   0  0  0  0  0  0  0  0  0  0  0  0
   -2.9448   -8.7128   -0.1089 C   0  0  0  0  0  0  0  0  0  0  0  0
   -2.3024   -7.6300    0.5048 C   0  0  0  0  0  0  0  0  0  0  0  0
   -2.6054   -6.3870   -0.0887 C   0  0  0  0  0  0  0  0  0  0  0  0
   -1.9813   -5.2224    0.3818 C   0  0  0  0  0  0  0  0  0  0  0  0
   -1.1031   -5.2866    1.4777 C   0  0  0  0  0  0  0  0  0  0  0  0
   -0.4595   -4.0286    1.9944 C   0  0  0  0  0  0  0  0  0  0  0  0
   -0.8348   -6.5236    2.1008 C   0  0  0  0  0  0  0  0  0  0  0  0
    0.0509   -6.5480    3.1911 O   0  0  0  0  0  0  0  0  0  0  0  0
    0.4550   -7.7274    3.8789 C   0  0  0  0  0  0  0  0  0  0  0  0
   -1.4487   -7.6972    1.6145 C   0  0  0  0  0  0  0  0  0  0  0  0
   -2.8319  -10.1488    0.1951 C   0  0  0  0  0  0  0  0  0  0  0  0
   -1.6661  -10.7407    0.4540 C   0  0  0  0  0  0  0  0  0  0  0  0
    3.8136   -3.3609   14.3834 H   0  0  0  0  0  0  0  0  0  0  0  0
    5.0592   -1.2478   13.5141 H   0  0  0  0  0  0  0  0  0  0  0  0
    9.0919    2.9311   12.8547 H   0  0  0  0  0  0  0  0  0  0  0  0
    9.4626    2.0291   11.3470 H   0  0  0  0  0  0  0  0  0  0  0  0
    7.8747    4.6769   11.4943 H   0  0  0  0  0  0  0  0  0  0  0  0
    8.3067    3.7748    9.9869 H   0  0  0  0  0  0  0  0  0  0  0  0
    9.6029    4.5024   11.0100 H   0  0  0  0  0  0  0  0  0  0  0  0
   -2.7193   -4.7565   10.0304 H   0  0  0  0  0  0  0  0  0  0  0  0
   -2.3125   -5.7285    8.5766 H   0  0  0  0  0  0  0  0  0  0  0  0
   -3.3201   -2.8050    8.5692 H   0  0  0  0  0  0  0  0  0  0  0  0
   -4.3028   -4.2664    8.1816 H   0  0  0  0  0  0  0  0  0  0  0  0
   -2.9359   -3.7946    7.1026 H   0  0  0  0  0  0  0  0  0  0  0  0
    1.3477   -0.8500    7.4517 H   0  0  0  0  0  0  0  0  0  0  0  0
    4.4170    2.4444    5.7761 H   0  0  0  0  0  0  0  0  0  0  0  0
    8.9190    5.7643    4.3286 H   0  0  0  0  0  0  0  0  0  0  0  0
    7.6671    7.0099    4.0132 H   0  0  0  0  0  0  0  0  0  0  0  0
    7.9692    6.7758    1.5711 H   0  0  0  0  0  0  0  0  0  0  0  0
    9.1217    5.3966    1.8111 H   0  0  0  0  0  0  0  0  0  0  0  0
    9.5705    7.0553    2.3566 H   0  0  0  0  0  0  0  0  0  0  0  0
   -4.0187   -1.0651    3.5591 H   0  0  0  0  0  0  0  0  0  0  0  0
   -2.6731   -2.1443    3.0752 H   0  0  0  0  0  0  0  0  0  0  0  0
   -3.1625   -1.6398    0.6460 H   0  0  0  0  0  0  0  0  0  0  0  0
   -4.5378   -2.4228    1.5056 H   0  0  0  0  0  0  0  0  0  0  0  0
   -4.5849   -0.6512    1.1739 H   0  0  0  0  0  0  0  0  0  0  0  0
    0.2232    2.5811    0.0210 H   0  0  0  0  0  0  0  0  0  0  0  0
    0.9736    1.1181   -1.5073 H   0  0  0  0  0  0  0  0  0  0  0  0
   -0.4086   -1.1541   -3.8168 H   0  0  0  0  0  0  0  0  0  0  0  0
    1.2445   -1.7218   -3.3517 H   0  0  0  0  0  0  0  0  0  0  0  0
    0.1527   -0.9914   -2.1199 H   0  0  0  0  0  0  0  0  0  0  0  0
    3.0103   -0.0725   -7.0780 H   0  0  0  0  0  0  0  0  0  0  0  0
    1.4065    0.5363   -7.6740 H   0  0  0  0  0  0  0  0  0  0  0  0
    1.7503   -1.2347   -7.6369 H   0  0  0  0  0  0  0  0  0  0  0  0
    2.3506    2.1392   -6.1641 H   0  0  0  0  0  0  0  0  0  0  0  0
    4.2319    5.2126   -5.4472 H   0  0  0  0  0  0  0  0  0  0  0  0
    3.3432    5.1566   -7.6273 H   0  0  0  0  0  0  0  0  0  0  0  0
    1.7207    3.0000   -8.7397 H   0  0  0  0  0  0  0  0  0  0  0  0
    2.1781   -1.4116  -12.5907 H   0  0  0  0  0  0  0  0  0  0  0  0
    1.3018   -2.3879  -11.3659 H   0  0  0  0  0  0  0  0  0  0  0  0
   -0.8110   -2.2042  -12.6706 H   0  0  0  0  0  0  0  0  0  0  0  0
    0.0200   -1.1546  -13.8930 H   0  0  0  0  0  0  0  0  0  0  0  0
    0.5148   -2.8810  -13.6942 H   0  0  0  0  0  0  0  0  0  0  0  0
   -4.8069    7.6850   -3.0282 H   0  0  0  0  0  0  0  0  0  0  0  0
   -3.4294    6.8064   -2.2772 H   0  0  0  0  0  0  0  0  0  0  0  0
   -5.4753    6.4256   -0.9581 H   0  0  0  0  0  0  0  0  0  0  0  0
   -4.9740    4.8820   -1.7351 H   0  0  0  0  0  0  0  0  0  0  0  0
   -6.3574    5.8256   -2.4138 H   0  0  0  0  0  0  0  0  0  0  0  0
   -4.8045    2.3039   -6.2663 H   0  0  0  0  0  0  0  0  0  0  0  0
   -4.9156    0.5043   -4.8645 H   0  0  0  0  0  0  0  0  0  0  0  0
   -3.2504    2.5767    0.2838 H   0  0  0  0  0  0  0  0  0  0  0  0
   -1.8640    1.4903   -0.0895 H   0  0  0  0  0  0  0  0  0  0  0  0
   -3.0644    3.5561   -2.0284 H   0  0  0  0  0  0  0  0  0  0  0  0
   -1.6033    2.5314   -2.3265 H   0  0  0  0  0  0  0  0  0  0  0  0
   -1.5813    3.8042   -1.0422 H   0  0  0  0  0  0  0  0  0  0  0  0
   -7.5318   -8.2461   -8.1358 H   0  0  0  0  0  0  0  0  0  0  0  0
   -6.1484   -8.5426   -9.2414 H   0  0  0  0  0  0  0  0  0  0  0  0
   -4.9577   -9.7963   -7.4131 H   0  0  0  0  0  0  0  0  0  0  0  0
   -6.5796  -10.5102   -7.7744 H   0  0  0  0  0  0  0  0  0  0  0  0
   -6.3569   -9.4904   -6.3017 H   0  0  0  0  0  0  0  0  0  0  0  0
   -4.2848   -6.4548   -3.9150 H   0  0  0  0  0  0  0  0  0  0  0  0
   -2.1417   -4.2701   -0.0978 H   0  0  0  0  0  0  0  0  0  0  0  0
    0.6438   -4.1395    1.9880 H   0  0  0  0  0  0  0  0  0  0  0  0
   -0.8003   -3.8367    3.0330 H   0  0  0  0  0  0  0  0  0  0  0  0
   -0.7189   -3.1479    1.3703 H   0  0  0  0  0  0  0  0  0  0  0  0
    1.1779   -7.4537    4.6736 H   0  0  0  0  0  0  0  0  0  0  0  0
   -0.4251   -8.2137    4.3498 H   0  0  0  0  0  0  0  0  0  0  0  0
    0.9529   -8.4298    3.1766 H   0  0  0  0  0  0  0  0  0  0  0  0
   -1.2736   -8.6432    2.1042 H   0  0  0  0  0  0  0  0  0  0  0  0
   -3.7158  -10.7652    0.0976 H   0  0  0  0  0  0  0  0  0  0  0  0
   -1.6315  -11.8081    0.6235 H   0  0  0  0  0  0  0  0  0  0  0  0
   -0.7402  -10.1842    0.4561 H   0  0  0  0  0  0  0  0  0  0  0  0
  1  2  2  0
  2  3  1  0
  3  4  2  0
  4  5  1  0
  5  6  1  0
  6  7  1  0
  7  8  1  0
  8  9  1  0
  7 10  2  0
 10 11  1  0
 10 12  1  0
 12 13  1  0
  4 14  1  0
 14 15  2  0
 15 16  1  0
 16 17  1  0
 17 18  1  0
 18 19  1  0
 19 20  1  0
 20 21  1  0
 19 22  2  0
 22 23  1  0
 23 24  1  0
 22 25  1  0
 16 26  2  0
 26 27  1  0
 15 28  1  0
 28 29  2  0
 29 30  1  0
 29 31  1  0
 31 32  2  0
 32 33  1  0
 33 34  2  0
 34 35  1  0
 35 36  1  0
 36 37  1  0
 37 38  1  0
 38 39  1  0
 37 40  2  0
 40 41  1  0
 40 42  1  0
 42 43  1  0
 34 44  1  0
 44 45  2  0
 45 46  1  0
 46 47  1  0
 47 48  1  0
 48 49  1  0
 49 50  1  0
 50 51  1  0
 49 52  2  0
 52 53  1  0
 53 54  1  0
 52 55  1  0
 46 56  2  0
 56 57  1  0
 45 58  1  0
 58 59  2  0
 59 60  1  0
 59 61  1  0
 61 62  1  0
 62 63  1  0
 63 64  2  0
 64 65  1  0
 65 66  1  0
 66 67  2  0
 67 68  1  0
 67 69  1  0
 69 70  1  0
 70 71  1  0
 69 72  2  0
 63 73  1  0
 73 74  2  3
 74 75  1  0
 75 76  2  0
 76 77  1  0
 77 78  2  0
 78 79  1  0
 79 80  1  0
 80 81  1  0
 81 82  1  0
 82 83  1  0
 81 84  2  0
 84 85  1  0
 84 86  1  0
 86 87  1  0
 78 88  1  0
 88 89  2  0
 89 90  1  0
 90 91  1  0
 91 92  1  0
 92 93  1  0
 93 94  1  0
 94 95  1  0
 93 96  2  0
 96 97  1  0
 97 98  1  0
 96 99  1  0
 90100  2  0
100101  1  0
 89102  1  0
102103  2  0
103104  1  0
103105  1  0
105106  2  0
106107  1  0
107108  2  0
108109  1  0
109110  1  0
110111  1  0
111112  1  0
112113  1  0
111114  2  0
114115  1  0
114116  1  0
116117  1  0
108118  1  0
118119  2  0
119120  1  0
120121  1  0
121122  1  0
122123  1  0
123124  1  0
124125  1  0
123126  2  0
126127  1  0
127128  1  0
126129  1  0
120130  2  0
130131  1  0
119132  1  0
132133  2  0
133134  1  0
133135  1  0
135136  1  0
136137  1  0
137138  2  0
138139  1  0
139140  1  0
140141  2  0
141142  1  0
141143  1  0
143144  1  0
144145  1  0
143146  2  0
137147  1  0
147148  2  3
 27  1  1  0
 57 31  1  0
 65 61  2  0
101 75  1  0
131105  1  0
139135  2  0
 26  3  1  0
 56 33  1  0
 72 64  1  0
100 77  1  0
130107  1  0
146138  1  0
 12  5  2  0
 30 14  1  0
 42 35  2  0
 60 44  1  0
 86 79  2  0
104 88  1  0
116109  2  0
134118  1  0
 23 17  2  0
 53 47  2  0
 97 91  2  0
127121  2  0
  1149  1  0
  2150  1  0
  8151  1  0
  8152  1  0
  9153  1  0
  9154  1  0
  9155  1  0
 20156  1  0
 20157  1  0
 21158  1  0
 21159  1  0
 21160  1  0
 28161  1  0
 32162  1  0
 38163  1  0
 38164  1  0
 39165  1  0
 39166  1  0
 39167  1  0
 50168  1  0
 50169  1  0
 51170  1  0
 51171  1  0
 51172  1  0
 58173  1  0
 66174  1  0
 68175  1  0
 68176  1  0
 68177  1  0
 71178  1  0
 71179  1  0
 71180  1  0
 72181  1  0
 73182  1  0
 74183  1  0
 76184  1  0
 82185  1  0
 82186  1  0
 83187  1  0
 83188  1  0
 83189  1  0
 94190  1  0
 94191  1  0
 95192  1  0
 95193  1  0
 95194  1  0
102195  1  0
106196  1  0
112197  1  0
112198  1  0
113199  1  0
113200  1  0
113201  1  0
124202  1  0
124203  1  0
125204  1  0
125205  1  0
125206  1  0
132207  1  0
140208  1  0
142209  1  0
142210  1  0
142211  1  0
145212  1  0
145213  1  0
145214  1  0
146215  1  0
147216  1  0
148217  1  0
148218  1  0
M  END

