
     RDKit          3D

154169  0  0  0  0  0  0  0  0999 V2000
    5.4569    1.0777    8.0140 C   0  0  0  0  0  0  0  0  0  0  0  0
    3.8554    1.4646    8.3514 S   0  0  0  0  0  0  0  0  0  0  0  0
    3.2577    1.3225    6.7758 C   0  0  0  0  0  0  0  0  0  0  0  0
    4.3314    0.9619    5.9545 C   0  0  0  0  0  0  0  0  0  0  0  0
    5.5442    0.8284    6.6500 C   0  0  0  0  0  0  0  0  0  0  0  0
    6.7150    0.4664    5.9839 C   0  0  0  0  0  0  0  0  0  0  0  0
    6.6777    0.2299    4.5980 C   0  0  0  0  0  0  0  0  0  0  0  0
    7.9322   -0.1739    3.8752 C   0  0  0  0  0  0  0  0  0  0  0  0
    5.4595    0.3512    3.8882 C   0  0  0  0  0  0  0  0  0  0  0  0
    5.4591    0.0926    2.5071 O   0  0  0  0  0  0  0  0  0  0  0  0
    4.3071    0.1490    1.6713 C   0  0  0  0  0  0  0  0  0  0  0  0
    4.2821    0.7218    4.5752 C   0  0  0  0  0  0  0  0  0  0  0  0
    1.8607    1.5598    6.3544 C   0  0  0  0  0  0  0  0  0  0  0  0
    0.8654    1.7360    7.2324 C   0  0  0  0  0  0  0  0  0  0  0  0
   -0.5302    1.9745    6.8022 C   0  0  0  0  0  0  0  0  0  0  0  0
   -1.0319    2.2478    5.2171 S   0  0  0  0  0  0  0  0  0  0  0  0
   -2.6811    2.4186    5.5258 C   0  0  0  0  0  0  0  0  0  0  0  0
   -2.8652    2.2561    6.9032 C   0  0  0  0  0  0  0  0  0  0  0  0
   -1.6704    2.0131    7.6122 C   0  0  0  0  0  0  0  0  0  0  0  0
   -1.7003    1.8157    8.9971 C   0  0  0  0  0  0  0  0  0  0  0  0
   -2.9277    1.8627    9.6814 C   0  0  0  0  0  0  0  0  0  0  0  0
   -2.9640    1.6345   11.1673 C   0  0  0  0  0  0  0  0  0  0  0  0
   -4.1299    2.0966    8.9749 C   0  0  0  0  0  0  0  0  0  0  0  0
   -5.3384    2.1196    9.6926 O   0  0  0  0  0  0  0  0  0  0  0  0
   -6.6215    2.3288    9.1122 C   0  0  0  0  0  0  0  0  0  0  0  0
   -4.0922    2.2980    7.5784 C   0  0  0  0  0  0  0  0  0  0  0  0
   -3.7248    2.6332    4.5004 C   0  0  0  0  0  0  0  0  0  0  0  0
   -3.4299    2.6782    3.1988 C   0  0  0  0  0  0  0  0  0  0  0  0
   -4.4814    2.7692    2.1818 C   0  0  0  0  0  0  0  0  0  0  0  0
   -4.9872    4.0095    1.7943 C   0  0  0  0  0  0  0  0  0  0  0  0
   -6.0789    3.7927    0.5331 S   0  0  0  0  0  0  0  0  0  0  0  0
   -5.9203    2.1243    0.4806 C   0  0  0  0  0  0  0  0  0  0  0  0
   -5.0131    1.6825    1.4377 C   0  0  0  0  0  0  0  0  0  0  0  0
   -4.7573    0.2835    1.5777 C   0  0  0  0  0  0  0  0  0  0  0  0
   -3.7632   -0.2260    2.5997 C   0  0  0  0  0  0  0  0  0  0  0  0
   -5.4835   -0.6353    0.7471 C   0  0  0  0  0  0  0  0  0  0  0  0
   -5.5653   -2.0971    1.1299 C   0  0  0  0  0  0  0  0  0  0  0  0
   -6.2473   -0.1199   -0.3430 C   0  0  0  0  0  0  0  0  0  0  0  0
   -6.5118    1.2430   -0.4025 C   0  0  0  0  0  0  0  0  0  0  0  0
   -7.5455    1.5926   -1.6740 S   0  0  0  0  0  0  0  0  0  0  0  0
   -7.6496    0.0047   -2.2229 C   0  0  0  0  0  0  0  0  0  0  0  0
   -6.8438   -0.8150   -1.4308 C   0  0  0  0  0  0  0  0  0  0  0  0
   -6.5241   -2.1819   -1.8931 C   0  0  0  0  0  0  0  0  0  0  0  0
   -5.2676   -2.6548   -1.8933 C   0  0  0  0  0  0  0  0  0  0  0  0
   -4.8872   -4.0235   -2.3431 C   0  0  0  0  0  0  0  0  0  0  0  0
   -5.8536   -4.9828   -2.6867 C   0  0  0  0  0  0  0  0  0  0  0  0
   -5.1418   -6.4923   -2.8309 S   0  0  0  0  0  0  0  0  0  0  0  0
   -3.5954   -5.9589   -2.4854 C   0  0  0  0  0  0  0  0  0  0  0  0
   -3.5703   -4.5829   -2.2826 C   0  0  0  0  0  0  0  0  0  0  0  0
   -2.3086   -3.9491   -2.0397 C   0  0  0  0  0  0  0  0  0  0  0  0
   -2.1374   -2.4544   -2.1800 C   0  0  0  0  0  0  0  0  0  0  0  0
   -1.1575   -4.7662   -1.7622 C   0  0  0  0  0  0  0  0  0  0  0  0
    0.0949   -4.1372   -1.1936 C   0  0  0  0  0  0  0  0  0  0  0  0
   -1.2375   -6.1713   -1.9973 C   0  0  0  0  0  0  0  0  0  0  0  0
   -2.4588   -6.7297   -2.3573 C   0  0  0  0  0  0  0  0  0  0  0  0
   -2.3407   -8.3945   -2.5089 S   0  0  0  0  0  0  0  0  0  0  0  0
   -0.7060   -8.4597   -2.1373 C   0  0  0  0  0  0  0  0  0  0  0  0
   -0.2262   -7.1692   -1.9085 C   0  0  0  0  0  0  0  0  0  0  0  0
    1.2116   -6.9883   -1.6436 C   0  0  0  0  0  0  0  0  0  0  0  0
    2.1089   -6.4179   -2.4672 C   0  0  0  0  0  0  0  0  0  0  0  0
    1.8260   -5.7389   -3.7682 C   0  0  0  0  0  0  0  0  0  0  0  0
    0.7508   -6.1253   -4.5797 C   0  0  0  0  0  0  0  0  0  0  0  0
    0.5600   -5.0421   -5.8422 S   0  0  0  0  0  0  0  0  0  0  0  0
    1.8679   -4.0915   -5.4190 C   0  0  0  0  0  0  0  0  0  0  0  0
    2.5206   -4.6006   -4.2996 C   0  0  0  0  0  0  0  0  0  0  0  0
    3.7315   -3.9661   -3.8669 C   0  0  0  0  0  0  0  0  0  0  0  0
    4.6407   -4.6332   -2.8606 C   0  0  0  0  0  0  0  0  0  0  0  0
    4.1434   -2.7332   -4.4887 C   0  0  0  0  0  0  0  0  0  0  0  0
    5.2830   -1.9393   -3.8839 C   0  0  0  0  0  0  0  0  0  0  0  0
    3.4613   -2.2879   -5.6647 C   0  0  0  0  0  0  0  0  0  0  0  0
    2.3256   -2.9707   -6.0823 C   0  0  0  0  0  0  0  0  0  0  0  0
    1.6806   -2.2786   -7.4630 S   0  0  0  0  0  0  0  0  0  0  0  0
    2.8507   -1.0860   -7.5958 C   0  0  0  0  0  0  0  0  0  0  0  0
    3.7710   -1.2075   -6.5471 C   0  0  0  0  0  0  0  0  0  0  0  0
    5.0286   -0.4226   -6.5290 C   0  0  0  0  0  0  0  0  0  0  0  0
    5.1564    0.8712   -6.8662 C   0  0  0  0  0  0  0  0  0  0  0  0
    4.0739    1.7390   -7.3714 C   0  0  0  0  0  0  0  0  0  0  0  0
    4.1360    2.1875   -8.6920 C   0  0  0  0  0  0  0  0  0  0  0  0
    2.7453    3.0523   -9.0622 S   0  0  0  0  0  0  0  0  0  0  0  0
    2.0623    2.8918   -7.5397 C   0  0  0  0  0  0  0  0  0  0  0  0
    2.8986    2.1728   -6.6892 C   0  0  0  0  0  0  0  0  0  0  0  0
    2.5153    1.9977   -5.3243 C   0  0  0  0  0  0  0  0  0  0  0  0
    3.4561    1.4051   -4.3057 C   0  0  0  0  0  0  0  0  0  0  0  0
    1.2097    2.4251   -4.9067 C   0  0  0  0  0  0  0  0  0  0  0  0
    0.6513    1.9510   -3.5832 C   0  0  0  0  0  0  0  0  0  0  0  0
    0.4368    3.2407   -5.7863 C   0  0  0  0  0  0  0  0  0  0  0  0
    0.8658    3.4214   -7.0960 C   0  0  0  0  0  0  0  0  0  0  0  0
   -0.2290    4.3498   -7.9607 S   0  0  0  0  0  0  0  0  0  0  0  0
   -1.2809    4.5802   -6.6707 C   0  0  0  0  0  0  0  0  0  0  0  0
   -0.7781    3.9368   -5.5323 C   0  0  0  0  0  0  0  0  0  0  0  0
   -1.3716    4.1675   -4.1961 C   0  0  0  0  0  0  0  0  0  0  0  0
   -2.6793    4.3426   -4.0116 C   0  0  0  0  0  0  0  0  0  0  0  0
    6.2659    1.0292    8.7309 H   0  0  0  0  0  0  0  0  0  0  0  0
    7.6411    0.3663    6.5373 H   0  0  0  0  0  0  0  0  0  0  0  0
    8.8136   -0.1753    4.5512 H   0  0  0  0  0  0  0  0  0  0  0  0
    8.1330    0.5362    3.0449 H   0  0  0  0  0  0  0  0  0  0  0  0
    7.8083   -1.1956    3.4575 H   0  0  0  0  0  0  0  0  0  0  0  0
    3.5529   -0.5928    2.0107 H   0  0  0  0  0  0  0  0  0  0  0  0
    4.6033   -0.0985    0.6316 H   0  0  0  0  0  0  0  0  0  0  0  0
    3.8735    1.1714    1.6842 H   0  0  0  0  0  0  0  0  0  0  0  0
    3.3474    0.8118    4.0444 H   0  0  0  0  0  0  0  0  0  0  0  0
    1.6437    1.5788    5.2961 H   0  0  0  0  0  0  0  0  0  0  0  0
    1.0787    1.6914    8.2901 H   0  0  0  0  0  0  0  0  0  0  0  0
   -0.7900    1.6192    9.5448 H   0  0  0  0  0  0  0  0  0  0  0  0
   -3.5094    0.6930   11.3866 H   0  0  0  0  0  0  0  0  0  0  0  0
   -3.4842    2.4806   11.6657 H   0  0  0  0  0  0  0  0  0  0  0  0
   -1.9423    1.5591   11.5966 H   0  0  0  0  0  0  0  0  0  0  0  0
   -6.6638    3.3286    8.6315 H   0  0  0  0  0  0  0  0  0  0  0  0
   -7.3909    2.2872    9.9108 H   0  0  0  0  0  0  0  0  0  0  0  0
   -6.8400    1.5350    8.3669 H   0  0  0  0  0  0  0  0  0  0  0  0
   -5.0036    2.4798    7.0309 H   0  0  0  0  0  0  0  0  0  0  0  0
   -4.7620    2.7021    4.8029 H   0  0  0  0  0  0  0  0  0  0  0  0
   -2.4080    2.5971    2.8537 H   0  0  0  0  0  0  0  0  0  0  0  0
   -4.7028    4.9658    2.2141 H   0  0  0  0  0  0  0  0  0  0  0  0
   -3.5430   -1.3057    2.4977 H   0  0  0  0  0  0  0  0  0  0  0  0
   -2.7850    0.2730    2.4573 H   0  0  0  0  0  0  0  0  0  0  0  0
   -4.1488   -0.0476    3.6244 H   0  0  0  0  0  0  0  0  0  0  0  0
   -5.6888   -2.1976    2.2291 H   0  0  0  0  0  0  0  0  0  0  0  0
   -6.4579   -2.5887    0.6945 H   0  0  0  0  0  0  0  0  0  0  0  0
   -4.6466   -2.6373    0.8203 H   0  0  0  0  0  0  0  0  0  0  0  0
   -8.1766   -0.3062   -3.1147 H   0  0  0  0  0  0  0  0  0  0  0  0
   -7.3274   -2.7390   -2.3519 H   0  0  0  0  0  0  0  0  0  0  0  0
   -4.5164   -2.0145   -1.4733 H   0  0  0  0  0  0  0  0  0  0  0  0
   -6.9174   -4.8305   -2.7799 H   0  0  0  0  0  0  0  0  0  0  0  0
   -2.2743   -1.9598   -1.1950 H   0  0  0  0  0  0  0  0  0  0  0  0
   -1.1296   -2.1998   -2.5675 H   0  0  0  0  0  0  0  0  0  0  0  0
   -2.8379   -2.0449   -2.9364 H   0  0  0  0  0  0  0  0  0  0  0  0
    0.7971   -3.8709   -2.0091 H   0  0  0  0  0  0  0  0  0  0  0  0
   -0.1424   -3.2199   -0.6169 H   0  0  0  0  0  0  0  0  0  0  0  0
    0.5848   -4.8091   -0.4625 H   0  0  0  0  0  0  0  0  0  0  0  0
   -0.1097   -9.3634   -2.1213 H   0  0  0  0  0  0  0  0  0  0  0  0
    1.5947   -7.4840   -0.7575 H   0  0  0  0  0  0  0  0  0  0  0  0
    3.1162   -6.4828   -2.1108 H   0  0  0  0  0  0  0  0  0  0  0  0
    0.1219   -6.9904   -4.4466 H   0  0  0  0  0  0  0  0  0  0  0  0
    4.7975   -5.6936   -3.1495 H   0  0  0  0  0  0  0  0  0  0  0  0
    5.6707   -4.2202   -2.8558 H   0  0  0  0  0  0  0  0  0  0  0  0
    4.2234   -4.5301   -1.8347 H   0  0  0  0  0  0  0  0  0  0  0  0
    5.2945   -2.0413   -2.7773 H   0  0  0  0  0  0  0  0  0  0  0  0
    6.2533   -2.2931   -4.2945 H   0  0  0  0  0  0  0  0  0  0  0  0
    5.1805   -0.8537   -4.0425 H   0  0  0  0  0  0  0  0  0  0  0  0
    2.9153   -0.4019   -8.4277 H   0  0  0  0  0  0  0  0  0  0  0  0
    5.9354   -0.9408   -6.2488 H   0  0  0  0  0  0  0  0  0  0  0  0
    6.1573    1.2879   -6.8818 H   0  0  0  0  0  0  0  0  0  0  0  0
    4.9358    1.9766   -9.3895 H   0  0  0  0  0  0  0  0  0  0  0  0
    4.5146    1.6136   -4.5453 H   0  0  0  0  0  0  0  0  0  0  0  0
    3.2999    1.8672   -3.3089 H   0  0  0  0  0  0  0  0  0  0  0  0
    3.2633    0.3181   -4.2220 H   0  0  0  0  0  0  0  0  0  0  0  0
    0.9173    2.6661   -2.7775 H   0  0  0  0  0  0  0  0  0  0  0  0
    1.0477    0.9501   -3.3161 H   0  0  0  0  0  0  0  0  0  0  0  0
   -0.4464    1.8108   -3.6389 H   0  0  0  0  0  0  0  0  0  0  0  0
   -2.1632    5.2048   -6.7082 H   0  0  0  0  0  0  0  0  0  0  0  0
   -0.7250    4.2217   -3.3324 H   0  0  0  0  0  0  0  0  0  0  0  0
   -3.3803    4.2906   -4.8352 H   0  0  0  0  0  0  0  0  0  0  0  0
   -3.0631    4.5227   -3.0150 H   0  0  0  0  0  0  0  0  0  0  0  0
  1  2  1  0
  2  3  1  0
  3  4  2  0
  4  5  1  0
  5  6  1  0
  6  7  2  0
  7  8  1  0
  7  9  1  0
  9 10  1  0
 10 11  1  0
  9 12  2  0
  3 13  1  0
 13 14  2  3
 14 15  1  0
 15 16  1  0
 16 17  1  0
 17 18  2  0
 18 19  1  0
 19 20  1  0
 20 21  2  0
 21 22  1  0
 21 23  1  0
 23 24  1  0
 24 25  1  0
 23 26  2  0
 17 27  1  0
 27 28  2  3
 28 29  1  0
 29 30  2  0
 30 31  1  0
 31 32  1  0
 32 33  2  0
 33 34  1  0
 34 35  1  0
 34 36  2  0
 36 37  1  0
 36 38  1  0
 38 39  2  0
 39 40  1  0
 40 41  1  0
 41 42  2  0
 42 43  1  0
 43 44  2  3
 44 45  1  0
 45 46  2  0
 46 47  1  0
 47 48  1  0
 48 49  2  0
 49 50  1  0
 50 51  1  0
 50 52  2  0
 52 53  1  0
 52 54  1  0
 54 55  2  0
 55 56  1  0
 56 57  1  0
 57 58  2  0
 58 59  1  0
 59 60  2  3
 60 61  1  0
 61 62  2  0
 62 63  1  0
 63 64  1  0
 64 65  2  0
 65 66  1  0
 66 67  1  0
 66 68  2  0
 68 69  1  0
 68 70  1  0
 70 71  2  0
 71 72  1  0
 72 73  1  0
 73 74  2  0
 74 75  1  0
 75 76  2  3
 76 77  1  0
 77 78  2  0
 78 79  1  0
 79 80  1  0
 80 81  2  0
 81 82  1  0
 82 83  1  0
 82 84  2  0
 84 85  1  0
 84 86  1  0
 86 87  2  0
 87 88  1  0
 88 89  1  0
 89 90  2  0
 90 91  1  0
 91 92  2  3
  5  1  2  0
 19 15  2  0
 33 29  1  0
 42 38  1  0
 49 45  1  0
 58 54  1  0
 65 61  1  0
 74 70  1  0
 81 77  1  0
 90 86  1  0
 12  4  1  0
 26 18  1  0
 39 32  1  0
 55 48  1  0
 71 64  1  0
 87 80  1  0
  1 93  1  0
  6 94  1  0
  8 95  1  0
  8 96  1  0
  8 97  1  0
 11 98  1  0
 11 99  1  0
 11100  1  0
 12101  1  0
 13102  1  0
 14103  1  0
 20104  1  0
 22105  1  0
 22106  1  0
 22107  1  0
 25108  1  0
 25109  1  0
 25110  1  0
 26111  1  0
 27112  1  0
 28113  1  0
 30114  1  0
 35115  1  0
 35116  1  0
 35117  1  0
 37118  1  0
 37119  1  0
 37120  1  0
 41121  1  0
 43122  1  0
 44123  1  0
 46124  1  0
 51125  1  0
 51126  1  0
 51127  1  0
 53128  1  0
 53129  1  0
 53130  1  0
 57131  1  0
 59132  1  0
 60133  1  0
 62134  1  0
 67135  1  0
 67136  1  0
 67137  1  0
 69138  1  0
 69139  1  0
 69140  1  0
 73141  1  0
 75142  1  0
 76143  1  0
 78144  1  0
 83145  1  0
 83146  1  0
 83147  1  0
 85148  1  0
 85149  1  0
 85150  1  0
 89151  1  0
 91152  1  0
 92153  1  0
 92154  1  0
M  END

