
     RDKit          3D

101112  0  0  0  0  0  0  0  0999 V2000
   12.3440   -2.1551   -1.8928 C   0  0  0  0  0  0  0  0  0  0  0  0
   11.8560   -0.8498   -1.7999 C   0  0  0  0  0  0  0  0  0  0  0  0
   11.7571   -0.1889   -0.6188 N   0  0  0  0  0  0  0  0  0  0  0  0
   11.1697    1.2623   -1.1524 S   0  0  0  0  0  0  0  0  0  0  0  0
   11.0086    1.1255   -2.7906 N   0  0  0  0  0  0  0  0  0  0  0  0
   11.4431   -0.1473   -2.9714 C   0  0  0  0  0  0  0  0  0  0  0  0
   11.5118   -0.7690   -4.2322 C   0  0  0  0  0  0  0  0  0  0  0  0
   12.0396   -2.0689   -4.3124 C   0  0  0  0  0  0  0  0  0  0  0  0
   12.4425   -2.7584   -3.1554 C   0  0  0  0  0  0  0  0  0  0  0  0
   11.0637   -0.0905   -5.4698 C   0  0  0  0  0  0  0  0  0  0  0  0
    9.8450    0.4496   -5.6398 C   0  0  0  0  0  0  0  0  0  0  0  0
    8.7363    0.3581   -4.6610 C   0  0  0  0  0  0  0  0  0  0  0  0
    7.9672    1.4897   -4.3584 C   0  0  0  0  0  0  0  0  0  0  0  0
    8.1972    2.7080   -4.9162 N   0  0  0  0  0  0  0  0  0  0  0  0
    7.0269    3.6045   -4.1725 S   0  0  0  0  0  0  0  0  0  0  0  0
    6.2326    2.5675   -3.1641 N   0  0  0  0  0  0  0  0  0  0  0  0
    6.9104    1.4129   -3.4030 C   0  0  0  0  0  0  0  0  0  0  0  0
    6.6051    0.1981   -2.7611 C   0  0  0  0  0  0  0  0  0  0  0  0
    7.3816   -0.9365   -3.0896 C   0  0  0  0  0  0  0  0  0  0  0  0
    8.4181   -0.8556   -4.0314 C   0  0  0  0  0  0  0  0  0  0  0  0
    5.5077    0.1532   -1.7536 C   0  0  0  0  0  0  0  0  0  0  0  0
    4.9138   -0.9772   -1.3239 C   0  0  0  0  0  0  0  0  0  0  0  0
    3.7772   -0.9896   -0.3637 C   0  0  0  0  0  0  0  0  0  0  0  0
    3.4843   -2.1600    0.3635 C   0  0  0  0  0  0  0  0  0  0  0  0
    4.2325   -3.2912    0.2707 N   0  0  0  0  0  0  0  0  0  0  0  0
    3.3903   -4.3007    1.2698 S   0  0  0  0  0  0  0  0  0  0  0  0
    2.1247   -3.4057    1.8451 N   0  0  0  0  0  0  0  0  0  0  0  0
    2.3495   -2.2149    1.2335 C   0  0  0  0  0  0  0  0  0  0  0  0
    1.5066   -1.0923    1.3805 C   0  0  0  0  0  0  0  0  0  0  0  0
    1.7999    0.0553    0.6293 C   0  0  0  0  0  0  0  0  0  0  0  0
    2.9118    0.1163   -0.2196 C   0  0  0  0  0  0  0  0  0  0  0  0
    0.2529   -1.0950    2.1761 C   0  0  0  0  0  0  0  0  0  0  0  0
    0.0593   -1.8085    3.2935 C   0  0  0  0  0  0  0  0  0  0  0  0
   -1.2524   -1.8415    3.9717 C   0  0  0  0  0  0  0  0  0  0  0  0
   -1.9826   -0.6756    4.2603 C   0  0  0  0  0  0  0  0  0  0  0  0
   -1.4910    0.5774    4.0735 N   0  0  0  0  0  0  0  0  0  0  0  0
   -2.7638    1.4810    4.6162 S   0  0  0  0  0  0  0  0  0  0  0  0
   -3.9297    0.4021    5.0726 N   0  0  0  0  0  0  0  0  0  0  0  0
   -3.2960   -0.7696    4.8044 C   0  0  0  0  0  0  0  0  0  0  0  0
   -3.8656   -2.0236    5.0663 C   0  0  0  0  0  0  0  0  0  0  0  0
   -3.0930   -3.1758    4.8653 C   0  0  0  0  0  0  0  0  0  0  0  0
   -1.8001   -3.0843    4.3292 C   0  0  0  0  0  0  0  0  0  0  0  0
   -5.2516   -2.1394    5.5446 C   0  0  0  0  0  0  0  0  0  0  0  0
   -6.3242   -2.0609    4.7420 C   0  0  0  0  0  0  0  0  0  0  0  0
   -6.2738   -2.0090    3.2606 C   0  0  0  0  0  0  0  0  0  0  0  0
   -5.1361   -2.7772    2.2779 S   0  0  0  0  0  0  0  0  0  0  0  0
   -5.8404   -2.4104    0.7976 C   0  0  0  0  0  0  0  0  0  0  0  0
   -7.0258   -1.7158    1.0516 C   0  0  0  0  0  0  0  0  0  0  0  0
   -7.2567   -1.4807    2.4194 C   0  0  0  0  0  0  0  0  0  0  0  0
   -8.3942   -0.7804    2.8308 C   0  0  0  0  0  0  0  0  0  0  0  0
   -9.3177   -0.3247    1.8704 C   0  0  0  0  0  0  0  0  0  0  0  0
  -10.5407    0.4300    2.3073 C   0  0  0  0  0  0  0  0  0  0  0  0
   -9.1172   -0.6080    0.4994 C   0  0  0  0  0  0  0  0  0  0  0  0
  -10.0782   -0.1708   -0.4281 O   0  0  0  0  0  0  0  0  0  0  0  0
  -10.0772   -0.5081   -1.8119 C   0  0  0  0  0  0  0  0  0  0  0  0
   -7.9689   -1.3224    0.0967 C   0  0  0  0  0  0  0  0  0  0  0  0
   -5.2723   -2.8227   -0.5008 C   0  0  0  0  0  0  0  0  0  0  0  0
   -5.0781   -2.0026   -1.5466 C   0  0  0  0  0  0  0  0  0  0  0  0
   -5.3217   -0.5444   -1.5286 C   0  0  0  0  0  0  0  0  0  0  0  0
   -4.7619    0.3007   -0.5577 C   0  0  0  0  0  0  0  0  0  0  0  0
   -3.8797   -0.1310    0.3813 N   0  0  0  0  0  0  0  0  0  0  0  0
   -3.5559    1.2818    1.1708 S   0  0  0  0  0  0  0  0  0  0  0  0
   -4.4424    2.4395    0.4007 N   0  0  0  0  0  0  0  0  0  0  0  0
   -5.0683    1.6948   -0.5498 C   0  0  0  0  0  0  0  0  0  0  0  0
   -5.9312    2.2413   -1.5224 C   0  0  0  0  0  0  0  0  0  0  0  0
   -6.4144    1.3937   -2.5341 C   0  0  0  0  0  0  0  0  0  0  0  0
   -6.1127    0.0244   -2.5383 C   0  0  0  0  0  0  0  0  0  0  0  0
   -6.2969    3.6770   -1.5777 C   0  0  0  0  0  0  0  0  0  0  0  0
   -6.4949    4.4253   -0.4938 C   0  0  0  0  0  0  0  0  0  0  0  0
   12.6660   -2.6914   -1.0055 H   0  0  0  0  0  0  0  0  0  0  0  0
   12.1236   -2.5598   -5.2756 H   0  0  0  0  0  0  0  0  0  0  0  0
   12.8444   -3.7626   -3.2423 H   0  0  0  0  0  0  0  0  0  0  0  0
   11.7640   -0.0439   -6.2975 H   0  0  0  0  0  0  0  0  0  0  0  0
    9.6611    0.9993   -6.5534 H   0  0  0  0  0  0  0  0  0  0  0  0
    7.2197   -1.8932   -2.6074 H   0  0  0  0  0  0  0  0  0  0  0  0
    8.9755   -1.7541   -4.2711 H   0  0  0  0  0  0  0  0  0  0  0  0
    5.1766    1.1010   -1.3553 H   0  0  0  0  0  0  0  0  0  0  0  0
    5.2463   -1.9346   -1.6991 H   0  0  0  0  0  0  0  0  0  0  0  0
    1.1508    0.9263    0.6964 H   0  0  0  0  0  0  0  0  0  0  0  0
    3.0505    1.0177   -0.8024 H   0  0  0  0  0  0  0  0  0  0  0  0
   -0.5491   -0.4579    1.8174 H   0  0  0  0  0  0  0  0  0  0  0  0
    0.8359   -2.4429    3.6837 H   0  0  0  0  0  0  0  0  0  0  0  0
   -3.5051   -4.1527    5.0899 H   0  0  0  0  0  0  0  0  0  0  0  0
   -1.2439   -3.9936    4.1406 H   0  0  0  0  0  0  0  0  0  0  0  0
   -5.4079   -2.2085    6.6113 H   0  0  0  0  0  0  0  0  0  0  0  0
   -7.2969   -2.0519    5.2148 H   0  0  0  0  0  0  0  0  0  0  0  0
   -8.5626   -0.5851    3.8830 H   0  0  0  0  0  0  0  0  0  0  0  0
  -10.5726    1.4159    1.7996 H   0  0  0  0  0  0  0  0  0  0  0  0
  -10.5430    0.6072    3.4044 H   0  0  0  0  0  0  0  0  0  0  0  0
  -11.4546   -0.1409    2.0374 H   0  0  0  0  0  0  0  0  0  0  0  0
   -9.1725   -0.0973   -2.3028 H   0  0  0  0  0  0  0  0  0  0  0  0
  -10.9725   -0.0629   -2.2908 H   0  0  0  0  0  0  0  0  0  0  0  0
  -10.1169   -1.6123   -1.9383 H   0  0  0  0  0  0  0  0  0  0  0  0
   -7.8196   -1.5838   -0.9404 H   0  0  0  0  0  0  0  0  0  0  0  0
   -4.9581   -3.8568   -0.5980 H   0  0  0  0  0  0  0  0  0  0  0  0
   -4.7341   -2.4350   -2.4792 H   0  0  0  0  0  0  0  0  0  0  0  0
   -7.0555    1.7903   -3.3151 H   0  0  0  0  0  0  0  0  0  0  0  0
   -6.5302   -0.6034   -3.3164 H   0  0  0  0  0  0  0  0  0  0  0  0
   -6.4816    4.1266   -2.5457 H   0  0  0  0  0  0  0  0  0  0  0  0
   -6.7961    5.4601   -0.6008 H   0  0  0  0  0  0  0  0  0  0  0  0
   -6.4080    4.0211    0.5049 H   0  0  0  0  0  0  0  0  0  0  0  0
  1  2  1  0
  2  3  2  0
  3  4  1  0
  4  5  1  0
  5  6  2  0
  6  7  1  0
  7  8  2  0
  8  9  1  0
  7 10  1  0
 10 11  2  3
 11 12  1  0
 12 13  1  0
 13 14  2  0
 14 15  1  0
 15 16  1  0
 16 17  2  0
 17 18  1  0
 18 19  2  0
 19 20  1  0
 18 21  1  0
 21 22  2  3
 22 23  1  0
 23 24  1  0
 24 25  2  0
 25 26  1  0
 26 27  1  0
 27 28  2  0
 28 29  1  0
 29 30  2  0
 30 31  1  0
 29 32  1  0
 32 33  2  3
 33 34  1  0
 34 35  1  0
 35 36  2  0
 36 37  1  0
 37 38  1  0
 38 39  2  0
 39 40  1  0
 40 41  2  0
 41 42  1  0
 40 43  1  0
 43 44  2  3
 44 45  1  0
 45 46  1  0
 46 47  1  0
 47 48  2  0
 48 49  1  0
 49 50  1  0
 50 51  2  0
 51 52  1  0
 51 53  1  0
 53 54  1  0
 54 55  1  0
 53 56  2  0
 47 57  1  0
 57 58  2  3
 58 59  1  0
 59 60  1  0
 60 61  2  0
 61 62  1  0
 62 63  1  0
 63 64  2  0
 64 65  1  0
 65 66  2  0
 66 67  1  0
 65 68  1  0
 68 69  2  3
  9  1  2  0
 20 12  2  0
 31 23  2  0
 42 34  2  0
 49 45  2  0
 67 59  2  0
  6  2  1  0
 17 13  1  0
 28 24  1  0
 39 35  1  0
 56 48  1  0
 64 60  1  0
  1 70  1  0
  8 71  1  0
  9 72  1  0
 10 73  1  0
 11 74  1  0
 19 75  1  0
 20 76  1  0
 21 77  1  0
 22 78  1  0
 30 79  1  0
 31 80  1  0
 32 81  1  0
 33 82  1  0
 41 83  1  0
 42 84  1  0
 43 85  1  0
 44 86  1  0
 50 87  1  0
 52 88  1  0
 52 89  1  0
 52 90  1  0
 55 91  1  0
 55 92  1  0
 55 93  1  0
 56 94  1  0
 57 95  1  0
 58 96  1  0
 66 97  1  0
 67 98  1  0
 68 99  1  0
 69100  1  0
 69101  1  0
M  END

