
     RDKit          3D

218241  0  0  0  0  0  0  0  0999 V2000
   -6.9554   -2.0916   -3.3632 C   0  0  0  0  0  0  0  0  0  0  0  0
   -6.2525   -3.2698   -3.5919 C   0  0  0  0  0  0  0  0  0  0  0  0
   -5.5291   -3.7142   -2.4707 C   0  0  0  0  0  0  0  0  0  0  0  0
   -4.7356   -4.8787   -2.3845 C   0  0  0  0  0  0  0  0  0  0  0  0
   -4.4773   -5.7443   -3.5569 C   0  0  0  0  0  0  0  0  0  0  0  0
   -4.6573   -7.4193   -3.5710 S   0  0  0  0  0  0  0  0  0  0  0  0
   -4.0231   -7.6656   -5.1081 C   0  0  0  0  0  0  0  0  0  0  0  0
   -3.7606   -9.0123   -5.7118 C   0  0  0  0  0  0  0  0  0  0  0  0
   -2.3567   -9.4952   -5.3565 C   0  0  0  0  0  0  0  0  0  0  0  0
   -3.6305   -6.4340   -5.6295 C   0  0  0  0  0  0  0  0  0  0  0  0
   -2.8127   -6.2510   -7.1759 Cl  0  0  0  0  0  0  0  0  0  0  0  0
   -3.8924   -5.3561   -4.7657 C   0  0  0  0  0  0  0  0  0  0  0  0
   -3.3757   -3.7124   -5.1239 Cl  0  0  0  0  0  0  0  0  0  0  0  0
   -4.1610   -5.1596   -1.1278 C   0  0  0  0  0  0  0  0  0  0  0  0
   -4.3175   -4.3196   -0.0208 C   0  0  0  0  0  0  0  0  0  0  0  0
   -5.1000   -3.1552   -0.1163 C   0  0  0  0  0  0  0  0  0  0  0  0
   -5.3816   -2.3156    1.0535 C   0  0  0  0  0  0  0  0  0  0  0  0
   -4.6110   -0.8627    1.4096 S   0  0  0  0  0  0  0  0  0  0  0  0
   -5.5246   -0.5243    2.7861 C   0  0  0  0  0  0  0  0  0  0  0  0
   -5.4240    0.7385    3.5846 C   0  0  0  0  0  0  0  0  0  0  0  0
   -6.4393    1.7641    3.0934 C   0  0  0  0  0  0  0  0  0  0  0  0
   -6.4648   -1.5396    2.9633 C   0  0  0  0  0  0  0  0  0  0  0  0
   -6.3810   -2.5477    1.9951 C   0  0  0  0  0  0  0  0  0  0  0  0
   -7.4546   -3.9399    1.9456 Cl  0  0  0  0  0  0  0  0  0  0  0  0
   -7.6652   -1.5459    4.2481 Cl  0  0  0  0  0  0  0  0  0  0  0  0
   -5.6956   -2.8840   -1.3591 C   0  0  0  0  0  0  0  0  0  0  0  0
   -6.7072   -1.6046   -1.7676 S   0  0  0  0  0  0  0  0  0  0  0  0
   -3.6112   -4.7491    1.1149 C   0  0  0  0  0  0  0  0  0  0  0  0
   -2.9276   -5.9517    0.9166 C   0  0  0  0  0  0  0  0  0  0  0  0
   -3.1597   -6.4401   -0.6840 S   0  0  0  0  0  0  0  0  0  0  0  0
   -2.0293   -6.6292    1.8790 C   0  0  0  0  0  0  0  0  0  0  0  0
   -0.7075   -7.5807    1.4275 S   0  0  0  0  0  0  0  0  0  0  0  0
   -0.0995   -7.8568    2.9742 C   0  0  0  0  0  0  0  0  0  0  0  0
   -0.9657   -7.2532    3.8834 C   0  0  0  0  0  0  0  0  0  0  0  0
   -2.0486   -6.5800    3.2820 C   0  0  0  0  0  0  0  0  0  0  0  0
   -3.0513   -6.0165    4.0829 C   0  0  0  0  0  0  0  0  0  0  0  0
   -2.9287   -6.0580    5.4833 C   0  0  0  0  0  0  0  0  0  0  0  0
   -4.0097   -5.4648    6.3424 C   0  0  0  0  0  0  0  0  0  0  0  0
   -1.8229   -6.7015    6.0843 C   0  0  0  0  0  0  0  0  0  0  0  0
   -1.7399   -6.7292    7.4868 O   0  0  0  0  0  0  0  0  0  0  0  0
   -0.6644   -7.3065    8.2208 C   0  0  0  0  0  0  0  0  0  0  0  0
   -0.8404   -7.3080    5.2747 C   0  0  0  0  0  0  0  0  0  0  0  0
    1.0329   -8.7388    3.3145 C   0  0  0  0  0  0  0  0  0  0  0  0
    2.2989   -8.3184    3.4571 C   0  0  0  0  0  0  0  0  0  0  0  0
    2.7945   -6.9782    3.0913 C   0  0  0  0  0  0  0  0  0  0  0  0
    3.8818   -6.3301    3.6852 C   0  0  0  0  0  0  0  0  0  0  0  0
    4.1825   -5.0935    3.0813 C   0  0  0  0  0  0  0  0  0  0  0  0
    5.1986   -4.1882    3.4639 C   0  0  0  0  0  0  0  0  0  0  0  0
    6.1468   -4.4922    4.5519 C   0  0  0  0  0  0  0  0  0  0  0  0
    6.3303   -3.5821    5.9571 S   0  0  0  0  0  0  0  0  0  0  0  0
    7.5942   -4.4936    6.5949 C   0  0  0  0  0  0  0  0  0  0  0  0
    8.2535   -4.2313    7.9147 C   0  0  0  0  0  0  0  0  0  0  0  0
    7.6989   -5.1509    8.9964 C   0  0  0  0  0  0  0  0  0  0  0  0
    7.8849   -5.5343    5.7122 C   0  0  0  0  0  0  0  0  0  0  0  0
    9.1533   -6.7205    5.9931 Cl  0  0  0  0  0  0  0  0  0  0  0  0
    7.0787   -5.5286    4.5650 C   0  0  0  0  0  0  0  0  0  0  0  0
    7.2824   -6.6703    3.2387 Cl  0  0  0  0  0  0  0  0  0  0  0  0
    5.2821   -2.9847    2.7382 C   0  0  0  0  0  0  0  0  0  0  0  0
    4.4383   -2.7046    1.6565 C   0  0  0  0  0  0  0  0  0  0  0  0
    3.4405   -3.6127    1.2615 C   0  0  0  0  0  0  0  0  0  0  0  0
    2.5286   -3.3430    0.1286 C   0  0  0  0  0  0  0  0  0  0  0  0
    0.8486   -3.4463    0.2016 S   0  0  0  0  0  0  0  0  0  0  0  0
    0.5765   -3.1659   -1.4323 C   0  0  0  0  0  0  0  0  0  0  0  0
   -0.7415   -3.3812   -2.1056 C   0  0  0  0  0  0  0  0  0  0  0  0
   -0.7929   -4.7831   -2.7059 C   0  0  0  0  0  0  0  0  0  0  0  0
    1.8048   -3.0030   -2.0674 C   0  0  0  0  0  0  0  0  0  0  0  0
    2.9005   -3.1075   -1.1953 C   0  0  0  0  0  0  0  0  0  0  0  0
    4.5669   -3.1028   -1.7591 Cl  0  0  0  0  0  0  0  0  0  0  0  0
    1.9790   -2.7830   -3.8040 Cl  0  0  0  0  0  0  0  0  0  0  0  0
    3.3354   -4.7928    2.0122 C   0  0  0  0  0  0  0  0  0  0  0  0
    2.2492   -6.0490    1.7991 S   0  0  0  0  0  0  0  0  0  0  0  0
    4.6655   -1.4480    1.0911 C   0  0  0  0  0  0  0  0  0  0  0  0
    5.6943   -0.7503    1.7051 C   0  0  0  0  0  0  0  0  0  0  0  0
    6.3046   -1.6606    2.9907 S   0  0  0  0  0  0  0  0  0  0  0  0
    5.9527    0.6614    1.4312 C   0  0  0  0  0  0  0  0  0  0  0  0
    5.3342    1.6657    2.1711 C   0  0  0  0  0  0  0  0  0  0  0  0
    5.0667    2.8235    1.4227 C   0  0  0  0  0  0  0  0  0  0  0  0
    4.2355    3.8888    1.8232 C   0  0  0  0  0  0  0  0  0  0  0  0
    3.5499    3.8928    3.1260 C   0  0  0  0  0  0  0  0  0  0  0  0
    3.7520    5.0609    4.3204 S   0  0  0  0  0  0  0  0  0  0  0  0
    2.6012    4.4378    5.3748 C   0  0  0  0  0  0  0  0  0  0  0  0
    2.2794    5.0099    6.7230 C   0  0  0  0  0  0  0  0  0  0  0  0
    3.0133    4.2544    7.8250 C   0  0  0  0  0  0  0  0  0  0  0  0
    2.0372    3.2989    4.8029 C   0  0  0  0  0  0  0  0  0  0  0  0
    0.7599    2.3571    5.5617 Cl  0  0  0  0  0  0  0  0  0  0  0  0
    2.5608    2.9971    3.5352 C   0  0  0  0  0  0  0  0  0  0  0  0
    1.9643    1.6803    2.5336 Cl  0  0  0  0  0  0  0  0  0  0  0  0
    3.9270    4.8529    0.8522 C   0  0  0  0  0  0  0  0  0  0  0  0
    4.4041    4.7822   -0.4590 C   0  0  0  0  0  0  0  0  0  0  0  0
    5.2441    3.7222   -0.8583 C   0  0  0  0  0  0  0  0  0  0  0  0
    5.6784    3.5508   -2.2575 C   0  0  0  0  0  0  0  0  0  0  0  0
    7.2839    3.5361   -2.7629 S   0  0  0  0  0  0  0  0  0  0  0  0
    6.9596    3.2622   -4.3885 C   0  0  0  0  0  0  0  0  0  0  0  0
    8.0017    3.1864   -5.4621 C   0  0  0  0  0  0  0  0  0  0  0  0
    8.1901    4.5437   -6.1316 C   0  0  0  0  0  0  0  0  0  0  0  0
    5.5784    3.1830   -4.5625 C   0  0  0  0  0  0  0  0  0  0  0  0
    4.8603    3.3282   -3.3655 C   0  0  0  0  0  0  0  0  0  0  0  0
    3.1098    3.1636   -3.2696 Cl  0  0  0  0  0  0  0  0  0  0  0  0
    4.8104    2.9123   -6.1211 Cl  0  0  0  0  0  0  0  0  0  0  0  0
    5.5507    2.7555    0.1125 C   0  0  0  0  0  0  0  0  0  0  0  0
    6.2183    1.2352   -0.1331 S   0  0  0  0  0  0  0  0  0  0  0  0
    3.8479    5.7592   -1.3002 C   0  0  0  0  0  0  0  0  0  0  0  0
    2.8899    6.5547   -0.6691 C   0  0  0  0  0  0  0  0  0  0  0  0
    2.7773    6.0731    0.9451 S   0  0  0  0  0  0  0  0  0  0  0  0
    1.8921    7.3681   -1.3896 C   0  0  0  0  0  0  0  0  0  0  0  0
    1.5007    7.1149   -3.0138 S   0  0  0  0  0  0  0  0  0  0  0  0
    0.1589    8.1225   -3.0680 C   0  0  0  0  0  0  0  0  0  0  0  0
    0.0008    8.6977   -1.8100 C   0  0  0  0  0  0  0  0  0  0  0  0
    0.9611    8.2807   -0.8699 C   0  0  0  0  0  0  0  0  0  0  0  0
    0.9173    8.7775    0.4405 C   0  0  0  0  0  0  0  0  0  0  0  0
   -0.1182    9.6507    0.8230 C   0  0  0  0  0  0  0  0  0  0  0  0
   -0.1955   10.1404    2.2409 C   0  0  0  0  0  0  0  0  0  0  0  0
   -1.1030   10.0396   -0.1129 C   0  0  0  0  0  0  0  0  0  0  0  0
   -2.1354   10.8910    0.3115 O   0  0  0  0  0  0  0  0  0  0  0  0
   -3.2061   11.3373   -0.5123 C   0  0  0  0  0  0  0  0  0  0  0  0
   -1.0287    9.5680   -1.4434 C   0  0  0  0  0  0  0  0  0  0  0  0
   -0.6852    8.3488   -4.2535 C   0  0  0  0  0  0  0  0  0  0  0  0
   -1.3364    7.3784   -4.9113 C   0  0  0  0  0  0  0  0  0  0  0  0
   -1.5119    5.9940   -4.4254 C   0  0  0  0  0  0  0  0  0  0  0  0
   -1.8228    4.9006   -5.2396 C   0  0  0  0  0  0  0  0  0  0  0  0
   -2.0571    3.7196   -4.5132 C   0  0  0  0  0  0  0  0  0  0  0  0
   -2.4265    2.4675   -5.0450 C   0  0  0  0  0  0  0  0  0  0  0  0
   -2.5982    2.2597   -6.4942 C   0  0  0  0  0  0  0  0  0  0  0  0
   -1.3744    2.3939   -7.6422 S   0  0  0  0  0  0  0  0  0  0  0  0
   -2.3612    2.1438   -8.9838 C   0  0  0  0  0  0  0  0  0  0  0  0
   -1.8812    2.1515  -10.4071 C   0  0  0  0  0  0  0  0  0  0  0  0
   -1.7649    0.7349  -10.9554 C   0  0  0  0  0  0  0  0  0  0  0  0
   -3.6719    1.9499   -8.5441 C   0  0  0  0  0  0  0  0  0  0  0  0
   -5.0340    1.6891   -9.6254 Cl  0  0  0  0  0  0  0  0  0  0  0  0
   -3.8041    2.0169   -7.1501 C   0  0  0  0  0  0  0  0  0  0  0  0
   -5.3513    1.8866   -6.3224 Cl  0  0  0  0  0  0  0  0  0  0  0  0
   -2.6662    1.4306   -4.1249 C   0  0  0  0  0  0  0  0  0  0  0  0
   -2.5534    1.6061   -2.7430 C   0  0  0  0  0  0  0  0  0  0  0  0
   -2.1960    2.8603   -2.2092 C   0  0  0  0  0  0  0  0  0  0  0  0
   -2.1502    3.1172   -0.7569 C   0  0  0  0  0  0  0  0  0  0  0  0
   -3.5078    3.1823    0.2359 S   0  0  0  0  0  0  0  0  0  0  0  0
   -2.7163    3.7996    1.5858 C   0  0  0  0  0  0  0  0  0  0  0  0
   -3.3950    4.2325    2.8523 C   0  0  0  0  0  0  0  0  0  0  0  0
   -3.8965    5.6668    2.7297 C   0  0  0  0  0  0  0  0  0  0  0  0
   -1.3728    3.9858    1.2674 C   0  0  0  0  0  0  0  0  0  0  0  0
   -1.0520    3.5947   -0.0437 C   0  0  0  0  0  0  0  0  0  0  0  0
    0.5727    3.6993   -0.7087 Cl  0  0  0  0  0  0  0  0  0  0  0  0
   -0.2165    4.7152    2.3677 Cl  0  0  0  0  0  0  0  0  0  0  0  0
   -1.9551    3.8947   -3.1308 C   0  0  0  0  0  0  0  0  0  0  0  0
   -1.5966    5.5057   -2.8085 S   0  0  0  0  0  0  0  0  0  0  0  0
   -2.8136    0.4352   -2.0144 C   0  0  0  0  0  0  0  0  0  0  0  0
   -3.1272   -0.6525   -2.8216 C   0  0  0  0  0  0  0  0  0  0  0  0
   -3.0835   -0.1671   -4.4363 S   0  0  0  0  0  0  0  0  0  0  0  0
   -7.5745   -1.5805   -4.0873 H   0  0  0  0  0  0  0  0  0  0  0  0
   -6.2777   -3.7889   -4.5419 H   0  0  0  0  0  0  0  0  0  0  0  0
   -3.8647   -8.9621   -6.8169 H   0  0  0  0  0  0  0  0  0  0  0  0
   -4.5059   -9.7416   -5.3295 H   0  0  0  0  0  0  0  0  0  0  0  0
   -2.2470   -9.5851   -4.2540 H   0  0  0  0  0  0  0  0  0  0  0  0
   -1.5918   -8.7862   -5.7413 H   0  0  0  0  0  0  0  0  0  0  0  0
   -2.1789  -10.4910   -5.8157 H   0  0  0  0  0  0  0  0  0  0  0  0
   -4.3986    1.1553    3.4934 H   0  0  0  0  0  0  0  0  0  0  0  0
   -5.6084    0.5173    4.6575 H   0  0  0  0  0  0  0  0  0  0  0  0
   -7.4685    1.3480    3.1469 H   0  0  0  0  0  0  0  0  0  0  0  0
   -6.2155    2.0527    2.0441 H   0  0  0  0  0  0  0  0  0  0  0  0
   -6.3914    2.6686    3.7325 H   0  0  0  0  0  0  0  0  0  0  0  0
   -3.5576   -4.1684    2.0231 H   0  0  0  0  0  0  0  0  0  0  0  0
   -3.9424   -5.5924    3.6404 H   0  0  0  0  0  0  0  0  0  0  0  0
   -3.5649   -4.7897    7.1024 H   0  0  0  0  0  0  0  0  0  0  0  0
   -4.5655   -6.2771    6.8561 H   0  0  0  0  0  0  0  0  0  0  0  0
   -4.7307   -4.8723    5.7390 H   0  0  0  0  0  0  0  0  0  0  0  0
   -0.8523   -7.1725    9.3076 H   0  0  0  0  0  0  0  0  0  0  0  0
    0.2907   -6.8022    7.9593 H   0  0  0  0  0  0  0  0  0  0  0  0
   -0.5954   -8.3934    8.0040 H   0  0  0  0  0  0  0  0  0  0  0  0
    0.0054   -7.8224    5.7138 H   0  0  0  0  0  0  0  0  0  0  0  0
    0.7942   -9.7466    3.6281 H   0  0  0  0  0  0  0  0  0  0  0  0
    3.0142   -9.0089    3.8842 H   0  0  0  0  0  0  0  0  0  0  0  0
    4.4245   -6.7387    4.5280 H   0  0  0  0  0  0  0  0  0  0  0  0
    9.3505   -4.3831    7.8218 H   0  0  0  0  0  0  0  0  0  0  0  0
    8.0809   -3.1744    8.2102 H   0  0  0  0  0  0  0  0  0  0  0  0
    6.6029   -4.9978    9.1100 H   0  0  0  0  0  0  0  0  0  0  0  0
    8.1913   -4.9191    9.9646 H   0  0  0  0  0  0  0  0  0  0  0  0
    7.8975   -6.2149    8.7437 H   0  0  0  0  0  0  0  0  0  0  0  0
   -0.8879   -2.6261   -2.9065 H   0  0  0  0  0  0  0  0  0  0  0  0
   -1.5602   -3.2699   -1.3645 H   0  0  0  0  0  0  0  0  0  0  0  0
   -0.1094   -4.8567   -3.5761 H   0  0  0  0  0  0  0  0  0  0  0  0
   -0.5087   -5.5452   -1.9492 H   0  0  0  0  0  0  0  0  0  0  0  0
   -1.8173   -5.0024   -3.0471 H   0  0  0  0  0  0  0  0  0  0  0  0
    4.0627   -1.0247    0.2985 H   0  0  0  0  0  0  0  0  0  0  0  0
    4.9359    1.4912    3.1615 H   0  0  0  0  0  0  0  0  0  0  0  0
    2.5688    6.0830    6.7533 H   0  0  0  0  0  0  0  0  0  0  0  0
    1.1837    4.9506    6.9021 H   0  0  0  0  0  0  0  0  0  0  0  0
    4.1120    4.3468    7.6850 H   0  0  0  0  0  0  0  0  0  0  0  0
    2.7439    4.6836    8.8130 H   0  0  0  0  0  0  0  0  0  0  0  0
    2.7324    3.1794    7.8146 H   0  0  0  0  0  0  0  0  0  0  0  0
    7.7071    2.4277   -6.2227 H   0  0  0  0  0  0  0  0  0  0  0  0
    8.9661    2.8620   -5.0167 H   0  0  0  0  0  0  0  0  0  0  0  0
    8.4596    5.3114   -5.3738 H   0  0  0  0  0  0  0  0  0  0  0  0
    7.2562    4.8510   -6.6526 H   0  0  0  0  0  0  0  0  0  0  0  0
    9.0084    4.4754   -6.8790 H   0  0  0  0  0  0  0  0  0  0  0  0
    4.0623    5.8281   -2.3582 H   0  0  0  0  0  0  0  0  0  0  0  0
    1.6766    8.5099    1.1576 H   0  0  0  0  0  0  0  0  0  0  0  0
   -0.2656   11.2484    2.2526 H   0  0  0  0  0  0  0  0  0  0  0  0
    0.7023    9.8458    2.8267 H   0  0  0  0  0  0  0  0  0  0  0  0
   -1.0963    9.7114    2.7293 H   0  0  0  0  0  0  0  0  0  0  0  0
   -3.8760   11.9848    0.0893 H   0  0  0  0  0  0  0  0  0  0  0  0
   -3.7921   10.4692   -0.8851 H   0  0  0  0  0  0  0  0  0  0  0  0
   -2.8114   11.9297   -1.3636 H   0  0  0  0  0  0  0  0  0  0  0  0
   -1.7669    9.8576   -2.1780 H   0  0  0  0  0  0  0  0  0  0  0  0
   -0.7399    9.3572   -4.6401 H   0  0  0  0  0  0  0  0  0  0  0  0
   -1.8225    7.6383   -5.8423 H   0  0  0  0  0  0  0  0  0  0  0  0
   -1.9006    4.9758   -6.3187 H   0  0  0  0  0  0  0  0  0  0  0  0
   -0.8857    2.6428  -10.4580 H   0  0  0  0  0  0  0  0  0  0  0  0
   -2.5817    2.7404  -11.0354 H   0  0  0  0  0  0  0  0  0  0  0  0
   -1.0650    0.1398  -10.3315 H   0  0  0  0  0  0  0  0  0  0  0  0
   -1.3720    0.7721  -11.9944 H   0  0  0  0  0  0  0  0  0  0  0  0
   -2.7610    0.2410  -10.9682 H   0  0  0  0  0  0  0  0  0  0  0  0
   -4.2542    3.5650    3.0571 H   0  0  0  0  0  0  0  0  0  0  0  0
   -2.6913    4.1566    3.7063 H   0  0  0  0  0  0  0  0  0  0  0  0
   -4.6792    5.7354    1.9448 H   0  0  0  0  0  0  0  0  0  0  0  0
   -4.3380    5.9912    3.6967 H   0  0  0  0  0  0  0  0  0  0  0  0
   -3.0572    6.3500    2.4752 H   0  0  0  0  0  0  0  0  0  0  0  0
   -2.7590    0.3680   -0.9351 H   0  0  0  0  0  0  0  0  0  0  0  0
   -3.3464   -1.6505   -2.4703 H   0  0  0  0  0  0  0  0  0  0  0  0
  1  2  2  0
  2  3  1  0
  3  4  2  0
  4  5  1  0
  5  6  1  0
  6  7  1  0
  7  8  1  0
  8  9  1  0
  7 10  2  0
 10 11  1  0
 10 12  1  0
 12 13  1  0
  4 14  1  0
 14 15  2  0
 15 16  1  0
 16 17  1  0
 17 18  1  0
 18 19  1  0
 19 20  1  0
 20 21  1  0
 19 22  2  0
 22 23  1  0
 23 24  1  0
 22 25  1  0
 16 26  2  0
 26 27  1  0
 15 28  1  0
 28 29  2  0
 29 30  1  0
 29 31  1  0
 31 32  1  0
 32 33  1  0
 33 34  2  0
 34 35  1  0
 35 36  1  0
 36 37  2  0
 37 38  1  0
 37 39  1  0
 39 40  1  0
 40 41  1  0
 39 42  2  0
 33 43  1  0
 43 44  2  3
 44 45  1  0
 45 46  2  0
 46 47  1  0
 47 48  2  0
 48 49  1  0
 49 50  1  0
 50 51  1  0
 51 52  1  0
 52 53  1  0
 51 54  2  0
 54 55  1  0
 54 56  1  0
 56 57  1  0
 48 58  1  0
 58 59  2  0
 59 60  1  0
 60 61  1  0
 61 62  1  0
 62 63  1  0
 63 64  1  0
 64 65  1  0
 63 66  2  0
 66 67  1  0
 67 68  1  0
 66 69  1  0
 60 70  2  0
 70 71  1  0
 59 72  1  0
 72 73  2  0
 73 74  1  0
 73 75  1  0
 75 76  2  0
 76 77  1  0
 77 78  2  0
 78 79  1  0
 79 80  1  0
 80 81  1  0
 81 82  1  0
 82 83  1  0
 81 84  2  0
 84 85  1  0
 84 86  1  0
 86 87  1  0
 78 88  1  0
 88 89  2  0
 89 90  1  0
 90 91  1  0
 91 92  1  0
 92 93  1  0
 93 94  1  0
 94 95  1  0
 93 96  2  0
 96 97  1  0
 97 98  1  0
 96 99  1  0
 90100  2  0
100101  1  0
 89102  1  0
102103  2  0
103104  1  0
103105  1  0
105106  1  0
106107  1  0
107108  2  0
108109  1  0
109110  1  0
110111  2  0
111112  1  0
111113  1  0
113114  1  0
114115  1  0
113116  2  0
107117  1  0
117118  2  3
118119  1  0
119120  2  0
120121  1  0
121122  2  0
122123  1  0
123124  1  0
124125  1  0
125126  1  0
126127  1  0
125128  2  0
128129  1  0
128130  1  0
130131  1  0
122132  1  0
132133  2  0
133134  1  0
134135  1  0
135136  1  0
136137  1  0
137138  1  0
138139  1  0
137140  2  0
140141  1  0
141142  1  0
140143  1  0
134144  2  0
144145  1  0
133146  1  0
146147  2  0
147148  1  0
 27  1  1  0
 35 31  2  0
 71 45  1  0
101 75  1  0
109105  2  0
145119  1  0
 26  3  1  0
 42 34  1  0
 70 47  1  0
100 77  1  0
116108  1  0
144121  1  0
 12  5  2  0
 30 14  1  0
 56 49  2  0
 74 58  1  0
 86 79  2  0
104 88  1  0
130123  2  0
148132  1  0
 23 17  2  0
 67 61  2  0
 97 91  2  0
141135  2  0
  1149  1  0
  2150  1  0
  8151  1  0
  8152  1  0
  9153  1  0
  9154  1  0
  9155  1  0
 20156  1  0
 20157  1  0
 21158  1  0
 21159  1  0
 21160  1  0
 28161  1  0
 36162  1  0
 38163  1  0
 38164  1  0
 38165  1  0
 41166  1  0
 41167  1  0
 41168  1  0
 42169  1  0
 43170  1  0
 44171  1  0
 46172  1  0
 52173  1  0
 52174  1  0
 53175  1  0
 53176  1  0
 53177  1  0
 64178  1  0
 64179  1  0
 65180  1  0
 65181  1  0
 65182  1  0
 72183  1  0
 76184  1  0
 82185  1  0
 82186  1  0
 83187  1  0
 83188  1  0
 83189  1  0
 94190  1  0
 94191  1  0
 95192  1  0
 95193  1  0
 95194  1  0
102195  1  0
110196  1  0
112197  1  0
112198  1  0
112199  1  0
115200  1  0
115201  1  0
115202  1  0
116203  1  0
117204  1  0
118205  1  0
120206  1  0
126207  1  0
126208  1  0
127209  1  0
127210  1  0
127211  1  0
138212  1  0
138213  1  0
139214  1  0
139215  1  0
139216  1  0
146217  1  0
147218  1  0
M  END

