
     RDKit          3D

131142  0  0  0  0  0  0  0  0999 V2000
    5.2983   -0.8481    3.4080 C   0  0  0  0  0  0  0  0  0  0  0  0
    6.3629   -2.1428    3.6302 S   0  0  0  0  0  0  0  0  0  0  0  0
    6.7711   -2.3920    2.0127 C   0  0  0  0  0  0  0  0  0  0  0  0
    6.0792   -1.4365    1.2843 C   0  0  0  0  0  0  0  0  0  0  0  0
    5.2705   -0.5927    2.0474 C   0  0  0  0  0  0  0  0  0  0  0  0
    4.5372    0.3794    1.4531 N   0  0  0  0  0  0  0  0  0  0  0  0
    4.5950    0.5415    0.0960 C   0  0  0  0  0  0  0  0  0  0  0  0
    5.4076   -0.3242   -0.6839 C   0  0  0  0  0  0  0  0  0  0  0  0
    5.4396   -0.2102   -2.1143 N   0  0  0  0  0  0  0  0  0  0  0  0
    6.2060   -1.1298   -2.9466 C   0  0  0  0  0  0  0  0  0  0  0  0
    6.1414   -1.2972   -0.0622 N   0  0  0  0  0  0  0  0  0  0  0  0
    3.7444    1.5107   -0.5274 N   0  0  0  0  0  0  0  0  0  0  0  0
    4.3005    2.8251   -0.8558 C   0  0  0  0  0  0  0  0  0  0  0  0
    2.3305    1.2559   -0.6681 C   0  0  0  0  0  0  0  0  0  0  0  0
    1.1606    2.4037   -1.0771 S   0  0  0  0  0  0  0  0  0  0  0  0
   -0.1775    1.3787   -0.9714 C   0  0  0  0  0  0  0  0  0  0  0  0
    0.2891    0.1216   -0.6200 C   0  0  0  0  0  0  0  0  0  0  0  0
    1.6693    0.0494   -0.4427 C   0  0  0  0  0  0  0  0  0  0  0  0
    2.2428   -1.0949   -0.0006 N   0  0  0  0  0  0  0  0  0  0  0  0
    1.4744   -2.1881    0.2557 C   0  0  0  0  0  0  0  0  0  0  0  0
    0.0795   -2.1353    0.0281 C   0  0  0  0  0  0  0  0  0  0  0  0
   -0.7453   -3.2743    0.3199 N   0  0  0  0  0  0  0  0  0  0  0  0
   -2.1814   -3.1411    0.5432 C   0  0  0  0  0  0  0  0  0  0  0  0
   -0.4901   -0.9638   -0.3966 N   0  0  0  0  0  0  0  0  0  0  0  0
    2.0637   -3.3081    0.9249 N   0  0  0  0  0  0  0  0  0  0  0  0
    2.9545   -4.1722    0.1507 C   0  0  0  0  0  0  0  0  0  0  0  0
    2.1810   -3.2804    2.3659 C   0  0  0  0  0  0  0  0  0  0  0  0
    3.3588   -4.1039    3.2583 S   0  0  0  0  0  0  0  0  0  0  0  0
    3.0325   -3.4034    4.7591 C   0  0  0  0  0  0  0  0  0  0  0  0
    1.9951   -2.5044    4.5654 C   0  0  0  0  0  0  0  0  0  0  0  0
    1.5060   -2.4440    3.2584 C   0  0  0  0  0  0  0  0  0  0  0  0
    0.4649   -1.6253    2.9592 N   0  0  0  0  0  0  0  0  0  0  0  0
   -0.0884   -0.8276    3.9181 C   0  0  0  0  0  0  0  0  0  0  0  0
    0.5044   -0.7901    5.2125 C   0  0  0  0  0  0  0  0  0  0  0  0
    0.1279    0.2027    6.1798 N   0  0  0  0  0  0  0  0  0  0  0  0
    0.5915    0.1390    7.5597 C   0  0  0  0  0  0  0  0  0  0  0  0
    1.5103   -1.6653    5.5115 N   0  0  0  0  0  0  0  0  0  0  0  0
   -1.2218   -0.0119    3.5731 N   0  0  0  0  0  0  0  0  0  0  0  0
   -1.0818    0.9854    2.5104 C   0  0  0  0  0  0  0  0  0  0  0  0
   -2.5222   -0.2742    4.1454 C   0  0  0  0  0  0  0  0  0  0  0  0
   -2.8658   -0.3951    5.8002 S   0  0  0  0  0  0  0  0  0  0  0  0
   -4.5438   -0.5254    5.6732 C   0  0  0  0  0  0  0  0  0  0  0  0
   -4.8457   -0.4887    4.3241 C   0  0  0  0  0  0  0  0  0  0  0  0
   -3.7431   -0.3527    3.4732 C   0  0  0  0  0  0  0  0  0  0  0  0
   -3.9179   -0.3913    2.1273 N   0  0  0  0  0  0  0  0  0  0  0  0
   -5.1689   -0.5442    1.5975 C   0  0  0  0  0  0  0  0  0  0  0  0
   -6.2903   -0.6024    2.4671 C   0  0  0  0  0  0  0  0  0  0  0  0
   -7.6305   -0.6421    1.9488 N   0  0  0  0  0  0  0  0  0  0  0  0
   -8.7791   -0.9224    2.8024 C   0  0  0  0  0  0  0  0  0  0  0  0
   -6.0955   -0.5900    3.8184 N   0  0  0  0  0  0  0  0  0  0  0  0
   -5.3175   -0.7636    0.1825 N   0  0  0  0  0  0  0  0  0  0  0  0
   -5.9142   -2.0178   -0.2888 C   0  0  0  0  0  0  0  0  0  0  0  0
   -4.5914    0.0446   -0.7566 C   0  0  0  0  0  0  0  0  0  0  0  0
   -3.6512   -0.5648   -2.0088 S   0  0  0  0  0  0  0  0  0  0  0  0
   -3.2054    0.9239   -2.6665 C   0  0  0  0  0  0  0  0  0  0  0  0
   -3.8119    1.9292   -1.9029 C   0  0  0  0  0  0  0  0  0  0  0  0
   -4.5810    1.4376   -0.8331 C   0  0  0  0  0  0  0  0  0  0  0  0
   -5.2751    2.3180    0.0049 C   0  0  0  0  0  0  0  0  0  0  0  0
   -5.1653    3.7067   -0.2032 C   0  0  0  0  0  0  0  0  0  0  0  0
   -5.9462    4.6494    0.6730 C   0  0  0  0  0  0  0  0  0  0  0  0
   -4.3723    4.2059   -1.2640 C   0  0  0  0  0  0  0  0  0  0  0  0
   -4.3002    5.5990   -1.4505 O   0  0  0  0  0  0  0  0  0  0  0  0
   -3.5143    6.2404   -2.4502 C   0  0  0  0  0  0  0  0  0  0  0  0
   -3.6862    3.3080   -2.1097 C   0  0  0  0  0  0  0  0  0  0  0  0
   -2.2689    1.1069   -3.7941 C   0  0  0  0  0  0  0  0  0  0  0  0
   -1.4147    0.1401   -4.1478 C   0  0  0  0  0  0  0  0  0  0  0  0
   -0.4253    0.3018   -5.2289 C   0  0  0  0  0  0  0  0  0  0  0  0
   -0.3008    1.5747   -6.3414 S   0  0  0  0  0  0  0  0  0  0  0  0
    1.0293    0.9722   -7.2015 C   0  0  0  0  0  0  0  0  0  0  0  0
    1.3801   -0.2315   -6.6082 C   0  0  0  0  0  0  0  0  0  0  0  0
    0.5856   -0.5994   -5.5288 C   0  0  0  0  0  0  0  0  0  0  0  0
    0.8266   -1.7526   -4.8630 N   0  0  0  0  0  0  0  0  0  0  0  0
    1.8548   -2.5681   -5.2319 C   0  0  0  0  0  0  0  0  0  0  0  0
    2.6778   -2.1873   -6.3334 C   0  0  0  0  0  0  0  0  0  0  0  0
    3.7930   -2.9897   -6.7611 N   0  0  0  0  0  0  0  0  0  0  0  0
    4.3699   -2.8418   -8.0954 C   0  0  0  0  0  0  0  0  0  0  0  0
    2.4048   -1.0234   -6.9985 N   0  0  0  0  0  0  0  0  0  0  0  0
    2.0421   -3.8048   -4.5261 N   0  0  0  0  0  0  0  0  0  0  0  0
    1.1683   -4.1835   -3.4153 C   0  0  0  0  0  0  0  0  0  0  0  0
    4.7478   -0.3259    4.1786 H   0  0  0  0  0  0  0  0  0  0  0  0
    7.4505   -3.1369    1.6182 H   0  0  0  0  0  0  0  0  0  0  0  0
    4.9044    0.5469   -2.5925 H   0  0  0  0  0  0  0  0  0  0  0  0
    5.8357   -2.1671   -2.8052 H   0  0  0  0  0  0  0  0  0  0  0  0
    7.2811   -1.0842   -2.6653 H   0  0  0  0  0  0  0  0  0  0  0  0
    6.1001   -0.8524   -4.0171 H   0  0  0  0  0  0  0  0  0  0  0  0
    5.4117    2.7960   -0.8650 H   0  0  0  0  0  0  0  0  0  0  0  0
    3.9689    3.5716   -0.0943 H   0  0  0  0  0  0  0  0  0  0  0  0
    3.9522    3.1445   -1.8654 H   0  0  0  0  0  0  0  0  0  0  0  0
   -1.2068    1.6752   -1.0781 H   0  0  0  0  0  0  0  0  0  0  0  0
   -0.3026   -4.2133    0.4892 H   0  0  0  0  0  0  0  0  0  0  0  0
   -2.5857   -4.0927    0.9431 H   0  0  0  0  0  0  0  0  0  0  0  0
   -2.6879   -2.9022   -0.4131 H   0  0  0  0  0  0  0  0  0  0  0  0
   -2.3721   -2.3363    1.2821 H   0  0  0  0  0  0  0  0  0  0  0  0
    2.6437   -4.2040   -0.9168 H   0  0  0  0  0  0  0  0  0  0  0  0
    4.0003   -3.7852    0.2033 H   0  0  0  0  0  0  0  0  0  0  0  0
    2.9209   -5.2125    0.5461 H   0  0  0  0  0  0  0  0  0  0  0  0
    3.5655   -3.5861    5.6834 H   0  0  0  0  0  0  0  0  0  0  0  0
   -0.4256    1.0397    5.8832 H   0  0  0  0  0  0  0  0  0  0  0  0
    0.2755   -0.8186    8.0149 H   0  0  0  0  0  0  0  0  0  0  0  0
    0.1556    0.9746    8.1447 H   0  0  0  0  0  0  0  0  0  0  0  0
    1.6980    0.2203    7.5874 H   0  0  0  0  0  0  0  0  0  0  0  0
   -1.6042    0.6405    1.5906 H   0  0  0  0  0  0  0  0  0  0  0  0
   -0.0103    1.1629    2.2727 H   0  0  0  0  0  0  0  0  0  0  0  0
   -1.5236    1.9537    2.8479 H   0  0  0  0  0  0  0  0  0  0  0  0
   -5.2458   -0.6238    6.4920 H   0  0  0  0  0  0  0  0  0  0  0  0
   -7.8074   -0.4235    0.9409 H   0  0  0  0  0  0  0  0  0  0  0  0
   -9.7149   -0.8795    2.2001 H   0  0  0  0  0  0  0  0  0  0  0  0
   -8.8379   -0.1729    3.6170 H   0  0  0  0  0  0  0  0  0  0  0  0
   -8.6801   -1.9439    3.2339 H   0  0  0  0  0  0  0  0  0  0  0  0
   -6.4244   -2.5671    0.5346 H   0  0  0  0  0  0  0  0  0  0  0  0
   -5.1255   -2.6884   -0.6983 H   0  0  0  0  0  0  0  0  0  0  0  0
   -6.6605   -1.8045   -1.0821 H   0  0  0  0  0  0  0  0  0  0  0  0
   -5.9034    1.9375    0.7990 H   0  0  0  0  0  0  0  0  0  0  0  0
   -6.2164    4.1655    1.6386 H   0  0  0  0  0  0  0  0  0  0  0  0
   -6.8846    4.9392    0.1482 H   0  0  0  0  0  0  0  0  0  0  0  0
   -5.3529    5.5594    0.9020 H   0  0  0  0  0  0  0  0  0  0  0  0
   -3.6625    7.3384   -2.3801 H   0  0  0  0  0  0  0  0  0  0  0  0
   -3.8306    5.9065   -3.4634 H   0  0  0  0  0  0  0  0  0  0  0  0
   -2.4377    6.0165   -2.2925 H   0  0  0  0  0  0  0  0  0  0  0  0
   -3.0726    3.6764   -2.9189 H   0  0  0  0  0  0  0  0  0  0  0  0
   -2.2304    2.0617   -4.3015 H   0  0  0  0  0  0  0  0  0  0  0  0
   -1.4059   -0.8001   -3.6073 H   0  0  0  0  0  0  0  0  0  0  0  0
    1.5179    1.4385   -8.0443 H   0  0  0  0  0  0  0  0  0  0  0  0
    4.2734   -3.6383   -6.1010 H   0  0  0  0  0  0  0  0  0  0  0  0
    3.6213   -3.1410   -8.8595 H   0  0  0  0  0  0  0  0  0  0  0  0
    4.6740   -1.7914   -8.2682 H   0  0  0  0  0  0  0  0  0  0  0  0
    5.2620   -3.4974   -8.1976 H   0  0  0  0  0  0  0  0  0  0  0  0
    2.7785   -4.4923   -4.8025 H   0  0  0  0  0  0  0  0  0  0  0  0
    1.1744   -3.3862   -2.6409 H   0  0  0  0  0  0  0  0  0  0  0  0
    0.1275   -4.3226   -3.7822 H   0  0  0  0  0  0  0  0  0  0  0  0
    1.5211   -5.1309   -2.9623 H   0  0  0  0  0  0  0  0  0  0  0  0
  1  2  1  0
  2  3  1  0
  3  4  2  0
  4  5  1  0
  5  6  1  0
  6  7  2  0
  7  8  1  0
  8  9  1  0
  9 10  1  0
  8 11  2  0
  7 12  1  0
 12 13  1  0
 12 14  1  0
 14 15  1  0
 15 16  1  0
 16 17  2  0
 17 18  1  0
 18 19  1  0
 19 20  2  0
 20 21  1  0
 21 22  1  0
 22 23  1  0
 21 24  2  0
 20 25  1  0
 25 26  1  0
 25 27  1  0
 27 28  1  0
 28 29  1  0
 29 30  2  0
 30 31  1  0
 31 32  1  0
 32 33  2  0
 33 34  1  0
 34 35  1  0
 35 36  1  0
 34 37  2  0
 33 38  1  0
 38 39  1  0
 38 40  1  0
 40 41  1  0
 41 42  1  0
 42 43  2  0
 43 44  1  0
 44 45  1  0
 45 46  2  0
 46 47  1  0
 47 48  1  0
 48 49  1  0
 47 50  2  0
 46 51  1  0
 51 52  1  0
 51 53  1  0
 53 54  1  0
 54 55  1  0
 55 56  2  0
 56 57  1  0
 57 58  1  0
 58 59  2  0
 59 60  1  0
 59 61  1  0
 61 62  1  0
 62 63  1  0
 61 64  2  0
 55 65  1  0
 65 66  2  3
 66 67  1  0
 67 68  1  0
 68 69  1  0
 69 70  2  0
 70 71  1  0
 71 72  1  0
 72 73  2  0
 73 74  1  0
 74 75  1  0
 75 76  1  0
 74 77  2  0
 73 78  1  0
 78 79  1  0
  5  1  2  0
 18 14  2  0
 31 27  2  0
 44 40  2  0
 57 53  2  0
 71 67  2  0
 11  4  1  0
 24 17  1  0
 37 30  1  0
 50 43  1  0
 64 56  1  0
 77 70  1  0
  1 80  1  0
  3 81  1  0
  9 82  1  0
 10 83  1  0
 10 84  1  0
 10 85  1  0
 13 86  1  0
 13 87  1  0
 13 88  1  0
 16 89  1  0
 22 90  1  0
 23 91  1  0
 23 92  1  0
 23 93  1  0
 26 94  1  0
 26 95  1  0
 26 96  1  0
 29 97  1  0
 35 98  1  0
 36 99  1  0
 36100  1  0
 36101  1  0
 39102  1  0
 39103  1  0
 39104  1  0
 42105  1  0
 48106  1  0
 49107  1  0
 49108  1  0
 49109  1  0
 52110  1  0
 52111  1  0
 52112  1  0
 58113  1  0
 60114  1  0
 60115  1  0
 60116  1  0
 63117  1  0
 63118  1  0
 63119  1  0
 64120  1  0
 65121  1  0
 66122  1  0
 69123  1  0
 75124  1  0
 76125  1  0
 76126  1  0
 76127  1  0
 78128  1  0
 79129  1  0
 79130  1  0
 79131  1  0
M  END

