
     RDKit          3D

106117  0  0  0  0  0  0  0  0999 V2000
    5.5233   -3.6222    9.6061 C   0  0  0  0  0  0  0  0  0  0  0  0
    5.3018   -2.0382    9.0541 S   0  0  0  0  0  0  0  0  0  0  0  0
    4.2481   -2.3637    7.7621 C   0  0  0  0  0  0  0  0  0  0  0  0
    4.0664   -3.7454    7.7635 C   0  0  0  0  0  0  0  0  0  0  0  0
    3.2885   -4.5915    6.9682 C   0  0  0  0  0  0  0  0  0  0  0  0
    3.4124   -5.9305    7.3667 C   0  0  0  0  0  0  0  0  0  0  0  0
    2.6908   -7.0927    6.7552 C   0  0  0  0  0  0  0  0  0  0  0  0
    3.0271   -7.2436    5.2758 C   0  0  0  0  0  0  0  0  0  0  0  0
    4.4591   -6.0489    8.7021 S   0  0  0  0  0  0  0  0  0  0  0  0
    4.7587   -4.4019    8.7594 C   0  0  0  0  0  0  0  0  0  0  0  0
    3.7162   -1.3708    6.8083 C   0  0  0  0  0  0  0  0  0  0  0  0
    3.1464   -1.6722    5.2391 S   0  0  0  0  0  0  0  0  0  0  0  0
    2.8515   -0.0685    4.7791 C   0  0  0  0  0  0  0  0  0  0  0  0
    3.1817    0.7198    5.8757 C   0  0  0  0  0  0  0  0  0  0  0  0
    3.0856    2.0962    6.0904 C   0  0  0  0  0  0  0  0  0  0  0  0
    3.5323    2.4470    7.3685 C   0  0  0  0  0  0  0  0  0  0  0  0
    3.6372    3.8474    7.8860 C   0  0  0  0  0  0  0  0  0  0  0  0
    4.8854    4.5290    7.3400 C   0  0  0  0  0  0  0  0  0  0  0  0
    4.0250    1.0589    8.2186 S   0  0  0  0  0  0  0  0  0  0  0  0
    3.6589    0.0094    6.9595 C   0  0  0  0  0  0  0  0  0  0  0  0
    2.4213    0.3620    3.4423 C   0  0  0  0  0  0  0  0  0  0  0  0
    1.3178   -0.4494    2.4443 S   0  0  0  0  0  0  0  0  0  0  0  0
    1.4773    0.5425    1.0779 C   0  0  0  0  0  0  0  0  0  0  0  0
    2.4116    1.5183    1.4012 C   0  0  0  0  0  0  0  0  0  0  0  0
    2.9324    2.5833    0.6621 C   0  0  0  0  0  0  0  0  0  0  0  0
    3.9155    3.2696    1.3850 C   0  0  0  0  0  0  0  0  0  0  0  0
    4.6468    4.4876    0.9122 C   0  0  0  0  0  0  0  0  0  0  0  0
    3.8734    5.7493    1.2768 C   0  0  0  0  0  0  0  0  0  0  0  0
    4.0977    2.5788    2.9279 S   0  0  0  0  0  0  0  0  0  0  0  0
    2.9236    1.4052    2.6771 C   0  0  0  0  0  0  0  0  0  0  0  0
    0.7719    0.3561   -0.1961 C   0  0  0  0  0  0  0  0  0  0  0  0
   -0.8862    0.1166   -0.3322 S   0  0  0  0  0  0  0  0  0  0  0  0
   -0.9440   -0.0293   -2.0137 C   0  0  0  0  0  0  0  0  0  0  0  0
    0.3692    0.0817   -2.4903 C   0  0  0  0  0  0  0  0  0  0  0  0
    1.3240    0.2835   -1.4759 C   0  0  0  0  0  0  0  0  0  0  0  0
    2.6883    0.3225   -1.7834 C   0  0  0  0  0  0  0  0  0  0  0  0
    3.1039    0.1923   -3.1202 C   0  0  0  0  0  0  0  0  0  0  0  0
    4.5680    0.2520   -3.4546 C   0  0  0  0  0  0  0  0  0  0  0  0
    2.1488    0.0223   -4.1489 C   0  0  0  0  0  0  0  0  0  0  0  0
    2.6007   -0.0955   -5.4747 O   0  0  0  0  0  0  0  0  0  0  0  0
    1.7559   -0.2874   -6.6049 C   0  0  0  0  0  0  0  0  0  0  0  0
    0.7756   -0.0376   -3.8250 C   0  0  0  0  0  0  0  0  0  0  0  0
   -2.1629   -0.2748   -2.8160 C   0  0  0  0  0  0  0  0  0  0  0  0
   -3.3104   -0.6777   -2.2599 C   0  0  0  0  0  0  0  0  0  0  0  0
   -4.5116   -0.9725   -3.0587 C   0  0  0  0  0  0  0  0  0  0  0  0
   -4.7599   -0.6931   -4.7093 S   0  0  0  0  0  0  0  0  0  0  0  0
   -6.3337   -1.3234   -4.8293 C   0  0  0  0  0  0  0  0  0  0  0  0
   -6.6687   -1.7628   -3.5483 C   0  0  0  0  0  0  0  0  0  0  0  0
   -7.8267   -2.3525   -3.0276 C   0  0  0  0  0  0  0  0  0  0  0  0
   -7.6985   -2.6183   -1.6578 C   0  0  0  0  0  0  0  0  0  0  0  0
   -8.7681   -3.2251   -0.7998 C   0  0  0  0  0  0  0  0  0  0  0  0
   -8.2390   -4.4173   -0.0069 C   0  0  0  0  0  0  0  0  0  0  0  0
   -6.1747   -2.0990   -1.0979 S   0  0  0  0  0  0  0  0  0  0  0  0
   -5.6791   -1.5593   -2.6068 C   0  0  0  0  0  0  0  0  0  0  0  0
   -7.1378   -1.3975   -6.0646 C   0  0  0  0  0  0  0  0  0  0  0  0
   -8.5157   -2.3472   -6.3364 S   0  0  0  0  0  0  0  0  0  0  0  0
   -8.8035   -1.9209   -7.9495 C   0  0  0  0  0  0  0  0  0  0  0  0
   -7.8021   -1.0243   -8.2835 C   0  0  0  0  0  0  0  0  0  0  0  0
   -7.5563   -0.3493   -9.4770 C   0  0  0  0  0  0  0  0  0  0  0  0
   -6.4247    0.4694   -9.3788 C   0  0  0  0  0  0  0  0  0  0  0  0
   -5.9400    1.3866  -10.4644 C   0  0  0  0  0  0  0  0  0  0  0  0
   -4.4181    1.3897  -10.5728 C   0  0  0  0  0  0  0  0  0  0  0  0
   -5.7726    0.3675   -7.8061 S   0  0  0  0  0  0  0  0  0  0  0  0
   -6.9076   -0.7497   -7.2715 C   0  0  0  0  0  0  0  0  0  0  0  0
    6.1254   -3.9585   10.4401 H   0  0  0  0  0  0  0  0  0  0  0  0
    2.6480   -4.2602    6.1647 H   0  0  0  0  0  0  0  0  0  0  0  0
    1.5975   -6.9467    6.8710 H   0  0  0  0  0  0  0  0  0  0  0  0
    2.9694   -8.0268    7.2854 H   0  0  0  0  0  0  0  0  0  0  0  0
    2.6505   -6.3677    4.7045 H   0  0  0  0  0  0  0  0  0  0  0  0
    4.1272   -7.3290    5.1295 H   0  0  0  0  0  0  0  0  0  0  0  0
    2.5372   -8.1598    4.8788 H   0  0  0  0  0  0  0  0  0  0  0  0
    2.7030    2.8061    5.3696 H   0  0  0  0  0  0  0  0  0  0  0  0
    2.7388    4.4242    7.5815 H   0  0  0  0  0  0  0  0  0  0  0  0
    3.6814    3.8318    8.9963 H   0  0  0  0  0  0  0  0  0  0  0  0
    4.8660    4.5384    6.2273 H   0  0  0  0  0  0  0  0  0  0  0  0
    5.7964    3.9982    7.6897 H   0  0  0  0  0  0  0  0  0  0  0  0
    4.9215    5.5762    7.7051 H   0  0  0  0  0  0  0  0  0  0  0  0
    2.6183    2.8469   -0.3394 H   0  0  0  0  0  0  0  0  0  0  0  0
    5.6527    4.5272    1.3842 H   0  0  0  0  0  0  0  0  0  0  0  0
    4.7880    4.4367   -0.1889 H   0  0  0  0  0  0  0  0  0  0  0  0
    2.8778    5.7452    0.7838 H   0  0  0  0  0  0  0  0  0  0  0  0
    3.7329    5.8114    2.3783 H   0  0  0  0  0  0  0  0  0  0  0  0
    4.4382    6.6443    0.9379 H   0  0  0  0  0  0  0  0  0  0  0  0
    3.4265    0.4175   -0.9986 H   0  0  0  0  0  0  0  0  0  0  0  0
    4.7940    1.2051   -3.9805 H   0  0  0  0  0  0  0  0  0  0  0  0
    4.8443   -0.5989   -4.1131 H   0  0  0  0  0  0  0  0  0  0  0  0
    5.1968    0.1956   -2.5420 H   0  0  0  0  0  0  0  0  0  0  0  0
    1.1917   -1.2400   -6.5044 H   0  0  0  0  0  0  0  0  0  0  0  0
    1.0574    0.5702   -6.7088 H   0  0  0  0  0  0  0  0  0  0  0  0
    2.3835   -0.3457   -7.5171 H   0  0  0  0  0  0  0  0  0  0  0  0
    0.0418   -0.1891   -4.5999 H   0  0  0  0  0  0  0  0  0  0  0  0
   -2.1054   -0.1561   -3.8883 H   0  0  0  0  0  0  0  0  0  0  0  0
   -3.3655   -0.8377   -1.1919 H   0  0  0  0  0  0  0  0  0  0  0  0
   -8.7255   -2.5603   -3.5910 H   0  0  0  0  0  0  0  0  0  0  0  0
   -9.1497   -2.4548   -0.0948 H   0  0  0  0  0  0  0  0  0  0  0  0
   -9.6149   -3.5632   -1.4400 H   0  0  0  0  0  0  0  0  0  0  0  0
   -9.0740   -4.8920    0.5535 H   0  0  0  0  0  0  0  0  0  0  0  0
   -7.4673   -4.0811    0.7212 H   0  0  0  0  0  0  0  0  0  0  0  0
   -7.7923   -5.1742   -0.6900 H   0  0  0  0  0  0  0  0  0  0  0  0
   -9.6060   -2.2732   -8.5842 H   0  0  0  0  0  0  0  0  0  0  0  0
   -8.1742   -0.4351  -10.3623 H   0  0  0  0  0  0  0  0  0  0  0  0
   -6.3649    1.0657  -11.4409 H   0  0  0  0  0  0  0  0  0  0  0  0
   -6.2997    2.4135  -10.2517 H   0  0  0  0  0  0  0  0  0  0  0  0
   -4.0393    0.3555  -10.7164 H   0  0  0  0  0  0  0  0  0  0  0  0
   -4.1134    2.0069  -11.4459 H   0  0  0  0  0  0  0  0  0  0  0  0
   -3.9637    1.8244   -9.6568 H   0  0  0  0  0  0  0  0  0  0  0  0
  1  2  1  0
  2  3  1  0
  3  4  2  0
  4  5  1  0
  5  6  2  0
  6  7  1  0
  7  8  1  0
  6  9  1  0
  9 10  1  0
  3 11  1  0
 11 12  1  0
 12 13  1  0
 13 14  2  0
 14 15  1  0
 15 16  2  0
 16 17  1  0
 17 18  1  0
 16 19  1  0
 19 20  1  0
 13 21  1  0
 21 22  1  0
 22 23  1  0
 23 24  2  0
 24 25  1  0
 25 26  2  0
 26 27  1  0
 27 28  1  0
 26 29  1  0
 29 30  1  0
 23 31  1  0
 31 32  1  0
 32 33  1  0
 33 34  2  0
 34 35  1  0
 35 36  1  0
 36 37  2  0
 37 38  1  0
 37 39  1  0
 39 40  1  0
 40 41  1  0
 39 42  2  0
 33 43  1  0
 43 44  2  3
 44 45  1  0
 45 46  1  0
 46 47  1  0
 47 48  2  0
 48 49  1  0
 49 50  2  0
 50 51  1  0
 51 52  1  0
 50 53  1  0
 53 54  1  0
 47 55  1  0
 55 56  1  0
 56 57  1  0
 57 58  2  0
 58 59  1  0
 59 60  2  0
 60 61  1  0
 61 62  1  0
 60 63  1  0
 63 64  1  0
 10  1  2  0
 20 11  2  0
 30 21  2  0
 35 31  2  0
 54 45  2  0
 64 55  2  0
 10  4  1  0
 20 14  1  0
 30 24  1  0
 42 34  1  0
 54 48  1  0
 64 58  1  0
  1 65  1  0
  5 66  1  0
  7 67  1  0
  7 68  1  0
  8 69  1  0
  8 70  1  0
  8 71  1  0
 15 72  1  0
 17 73  1  0
 17 74  1  0
 18 75  1  0
 18 76  1  0
 18 77  1  0
 25 78  1  0
 27 79  1  0
 27 80  1  0
 28 81  1  0
 28 82  1  0
 28 83  1  0
 36 84  1  0
 38 85  1  0
 38 86  1  0
 38 87  1  0
 41 88  1  0
 41 89  1  0
 41 90  1  0
 42 91  1  0
 43 92  1  0
 44 93  1  0
 49 94  1  0
 51 95  1  0
 51 96  1  0
 52 97  1  0
 52 98  1  0
 52 99  1  0
 57100  1  0
 59101  1  0
 61102  1  0
 61103  1  0
 62104  1  0
 62105  1  0
 62106  1  0
M  END

