
     RDKit          3D

 86 92  0  0  0  0  0  0  0  0999 V2000
    3.5038   -1.8988    4.1224 C   0  0  0  0  0  0  0  0  0  0  0  0
    1.9002   -1.0774    4.1387 S   0  0  0  0  0  4  0  0  0  0  0  0
    2.2457    0.4474    4.5298 C   0  0  0  0  0  0  0  0  0  0  0  0
    3.7010    0.5573    4.6890 C   0  0  0  0  0  0  0  0  0  0  0  0
    4.2579    1.7118    4.9503 N   0  0  0  0  0  0  0  0  0  0  0  0
    5.6399    1.9584    4.9856 N   0  0  0  0  0  0  0  0  0  0  0  0
    4.4145   -0.7569    4.5094 C   0  0  0  0  0  0  0  0  0  0  0  0
    5.8662   -1.1035    5.1866 S   0  0  0  0  0  0  0  0  0  0  0  0
    1.2347    1.5192    4.8457 C   0  0  0  0  0  0  0  0  0  0  0  0
   -0.0119    1.6124    3.5510 S   0  0  0  0  0  4  0  0  0  0  0  0
   -1.3950    1.1931    4.2741 C   0  0  0  0  0  0  0  0  0  0  0  0
   -1.1027    1.0361    5.7122 C   0  0  0  0  0  0  0  0  0  0  0  0
   -2.0606    0.8432    6.5746 N   0  0  0  0  0  0  0  0  0  0  0  0
   -1.9133    0.8785    7.9689 N   0  0  0  0  0  0  0  0  0  0  0  0
    0.3657    1.1629    6.0347 C   0  0  0  0  0  0  0  0  0  0  0  0
    1.0544    0.6324    7.4325 S   0  0  0  0  0  0  0  0  0  0  0  0
   -2.7499    1.2965    3.6108 C   0  0  0  0  0  0  0  0  0  0  0  0
   -2.6708    0.6440    1.9291 S   0  0  0  0  0  4  0  0  0  0  0  0
   -3.5654   -0.6965    1.9715 C   0  0  0  0  0  0  0  0  0  0  0  0
   -4.0928   -0.8256    3.3324 C   0  0  0  0  0  0  0  0  0  0  0  0
   -4.7250   -1.8987    3.7133 N   0  0  0  0  0  0  0  0  0  0  0  0
   -5.1082   -2.1620    5.0369 N   0  0  0  0  0  0  0  0  0  0  0  0
   -3.7796    0.3520    4.2055 C   0  0  0  0  0  0  0  0  0  0  0  0
   -4.9184    0.9563    5.2297 S   0  0  0  0  0  0  0  0  0  0  0  0
   -3.5492   -1.7879    0.9346 C   0  0  0  0  0  0  0  0  0  0  0  0
   -3.1672   -1.1513   -0.7146 S   0  0  0  0  0  4  0  0  0  0  0  0
   -1.6727   -1.6774   -0.9875 C   0  0  0  0  0  0  0  0  0  0  0  0
   -1.2893   -2.5717    0.1136 C   0  0  0  0  0  0  0  0  0  0  0  0
   -0.1528   -3.2088    0.1023 N   0  0  0  0  0  0  0  0  0  0  0  0
    0.3605   -3.9527    1.1755 N   0  0  0  0  0  0  0  0  0  0  0  0
   -2.3628   -2.6992    1.1570 C   0  0  0  0  0  0  0  0  0  0  0  0
   -2.5518   -4.0414    2.0780 S   0  0  0  0  0  0  0  0  0  0  0  0
   -0.8307   -1.2054   -2.0986 C   0  0  0  0  0  0  0  0  0  0  0  0
   -1.3706   -1.0203   -3.6742 S   0  0  0  0  0  0  0  0  0  0  0  0
    0.0796   -0.5042   -4.3680 C   0  0  0  0  0  0  0  0  0  0  0  0
    1.0268   -0.4615   -3.3295 C   0  0  0  0  0  0  0  0  0  0  0  0
    0.5112   -0.8202   -2.0681 C   0  0  0  0  0  0  0  0  0  0  0  0
    1.3057   -0.7165   -0.9217 C   0  0  0  0  0  0  0  0  0  0  0  0
    2.6590   -0.3582   -1.0386 C   0  0  0  0  0  0  0  0  0  0  0  0
    3.5174   -0.2719    0.1956 C   0  0  0  0  0  0  0  0  0  0  0  0
    3.2012   -0.0510   -2.3071 C   0  0  0  0  0  0  0  0  0  0  0  0
    4.5622    0.2888   -2.3919 O   0  0  0  0  0  0  0  0  0  0  0  0
    5.2508    0.5804   -3.6043 C   0  0  0  0  0  0  0  0  0  0  0  0
    2.3729   -0.0878   -3.4516 C   0  0  0  0  0  0  0  0  0  0  0  0
    0.3207   -0.1300   -5.7906 C   0  0  0  0  0  0  0  0  0  0  0  0
   -0.5590   -0.1426   -6.8098 C   0  0  0  0  0  0  0  0  0  0  0  0
   -2.0028   -0.5691   -6.7452 C   0  0  0  0  0  0  0  0  0  0  0  0
   -2.1006   -2.3699   -6.7818 S   0  0  0  0  0  4  0  0  0  0  0  0
   -2.9226   -2.7083   -8.1193 C   0  0  0  0  0  0  0  0  0  0  0  0
   -3.3134   -1.4427   -8.7376 C   0  0  0  0  0  0  0  0  0  0  0  0
   -4.0938   -1.4431   -9.7795 N   0  0  0  0  0  0  0  0  0  0  0  0
   -4.6912   -0.3114  -10.3471 N   0  0  0  0  0  0  0  0  0  0  0  0
   -2.7649   -0.2398   -8.0163 C   0  0  0  0  0  0  0  0  0  0  0  0
   -2.7571    1.2886   -8.6235 S   0  0  0  0  0  0  0  0  0  0  0  0
    3.7521   -2.2834    3.1147 H   0  0  0  0  0  0  0  0  0  0  0  0
    3.5176   -2.7055    4.8856 H   0  0  0  0  0  0  0  0  0  0  0  0
    0.6073   -1.6458    4.0156 H   0  0  0  0  0  0  0  0  0  0  0  0
    5.9842    2.8629    5.3801 H   0  0  0  0  0  0  0  0  0  0  0  0
    6.2993    1.4038    4.3979 H   0  0  0  0  0  0  0  0  0  0  0  0
    1.7109    2.5138    4.9888 H   0  0  0  0  0  0  0  0  0  0  0  0
    0.1588    2.0094    2.1981 H   0  0  0  0  0  0  0  0  0  0  0  0
   -1.2476    1.5454    8.4207 H   0  0  0  0  0  0  0  0  0  0  0  0
   -2.6610    0.4637    8.5704 H   0  0  0  0  0  0  0  0  0  0  0  0
   -3.1062    2.3477    3.6026 H   0  0  0  0  0  0  0  0  0  0  0  0
   -1.7997    1.0389    0.8830 H   0  0  0  0  0  0  0  0  0  0  0  0
   -4.6244   -1.7078    5.8466 H   0  0  0  0  0  0  0  0  0  0  0  0
   -5.7263   -2.9773    5.2323 H   0  0  0  0  0  0  0  0  0  0  0  0
   -4.5107   -2.3470    0.9160 H   0  0  0  0  0  0  0  0  0  0  0  0
   -3.8460   -0.1501   -1.4555 H   0  0  0  0  0  0  0  0  0  0  0  0
    1.1605   -4.6002    1.0059 H   0  0  0  0  0  0  0  0  0  0  0  0
    0.1310   -3.7089    2.1637 H   0  0  0  0  0  0  0  0  0  0  0  0
    0.8820   -0.8937    0.0556 H   0  0  0  0  0  0  0  0  0  0  0  0
    4.4577   -0.8409    0.0430 H   0  0  0  0  0  0  0  0  0  0  0  0
    3.7562    0.7930    0.3987 H   0  0  0  0  0  0  0  0  0  0  0  0
    3.0021   -0.6955    1.0831 H   0  0  0  0  0  0  0  0  0  0  0  0
    4.8121    1.4793   -4.0884 H   0  0  0  0  0  0  0  0  0  0  0  0
    6.3174    0.7832   -3.3725 H   0  0  0  0  0  0  0  0  0  0  0  0
    5.1976   -0.2916   -4.2906 H   0  0  0  0  0  0  0  0  0  0  0  0
    2.7803    0.1701   -4.4148 H   0  0  0  0  0  0  0  0  0  0  0  0
    1.3191    0.1922   -6.0503 H   0  0  0  0  0  0  0  0  0  0  0  0
   -0.1762    0.1467   -7.7826 H   0  0  0  0  0  0  0  0  0  0  0  0
   -2.5461   -0.1216   -5.8898 H   0  0  0  0  0  0  0  0  0  0  0  0
   -1.5349   -3.3036   -5.8716 H   0  0  0  0  0  0  0  0  0  0  0  0
   -3.1741   -3.7038   -8.4634 H   0  0  0  0  0  0  0  0  0  0  0  0
   -5.1150   -0.3929  -11.2979 H   0  0  0  0  0  0  0  0  0  0  0  0
   -4.9963    0.4960   -9.7624 H   0  0  0  0  0  0  0  0  0  0  0  0
  1  2  1  0
  2  3  2  0
  3  4  1  0
  4  5  2  0
  5  6  1  0
  4  7  1  0
  7  8  2  0
  3  9  1  0
  9 10  1  0
 10 11  2  0
 11 12  1  0
 12 13  2  0
 13 14  1  0
 12 15  1  0
 15 16  2  0
 11 17  1  0
 17 18  1  0
 18 19  2  0
 19 20  1  0
 20 21  2  0
 21 22  1  0
 20 23  1  0
 23 24  2  0
 19 25  1  0
 25 26  1  0
 26 27  2  0
 27 28  1  0
 28 29  2  0
 29 30  1  0
 28 31  1  0
 31 32  2  0
 27 33  1  0
 33 34  1  0
 34 35  1  0
 35 36  2  0
 36 37  1  0
 37 38  1  0
 38 39  2  0
 39 40  1  0
 39 41  1  0
 41 42  1  0
 42 43  1  0
 41 44  2  0
 35 45  1  0
 45 46  2  3
 46 47  1  0
 47 48  1  0
 48 49  2  0
 49 50  1  0
 50 51  2  0
 51 52  1  0
 50 53  1  0
 53 54  2  0
  7  1  1  0
 15  9  1  0
 23 17  1  0
 31 25  1  0
 37 33  2  0
 53 47  1  0
 44 36  1  0
  1 55  1  0
  1 56  1  0
  2 57  1  0
  6 58  1  0
  6 59  1  0
  9 60  1  0
 10 61  1  0
 14 62  1  0
 14 63  1  0
 17 64  1  0
 18 65  1  0
 22 66  1  0
 22 67  1  0
 25 68  1  0
 26 69  1  0
 30 70  1  0
 30 71  1  0
 38 72  1  0
 40 73  1  0
 40 74  1  0
 40 75  1  0
 43 76  1  0
 43 77  1  0
 43 78  1  0
 44 79  1  0
 45 80  1  0
 46 81  1  0
 47 82  1  0
 48 83  1  0
 49 84  1  0
 52 85  1  0
 52 86  1  0
M  END

