
     RDKit          3D

236262  0  0  0  0  0  0  0  0999 V2000
    4.0504   -7.2092   10.1118 C   0  0  0  0  0  0  0  0  0  0  0  0
    3.7836   -5.9673    9.5408 C   0  0  0  0  0  0  0  0  0  0  0  0
    2.8576   -6.0385    8.4824 C   0  0  0  0  0  0  0  0  0  0  0  0
    2.4008   -4.9623    7.7037 C   0  0  0  0  0  0  0  0  0  0  0  0
    2.7102   -3.5477    7.9766 C   0  0  0  0  0  0  0  0  0  0  0  0
    3.1615   -2.4328    6.7957 S   0  0  0  0  0  0  0  0  0  0  0  0
    2.8285   -1.0469    7.6736 C   0  0  0  0  0  0  0  0  0  0  0  0
    2.9498    0.3652    7.1739 C   0  0  0  0  0  0  0  0  0  0  0  0
    4.2904    0.9573    7.5842 C   0  0  0  0  0  0  0  0  0  0  0  0
    2.3725   -1.4379    8.9279 C   0  0  0  0  0  0  0  0  0  0  0  0
    1.8478   -0.3047   10.1632 Cl  0  0  0  0  0  0  0  0  0  0  0  0
    2.3074   -2.8325    9.1033 C   0  0  0  0  0  0  0  0  0  0  0  0
    1.6311   -3.5853   10.5386 Cl  0  0  0  0  0  0  0  0  0  0  0  0
    1.4626   -5.2547    6.6928 C   0  0  0  0  0  0  0  0  0  0  0  0
    0.9884   -6.5339    6.4595 C   0  0  0  0  0  0  0  0  0  0  0  0
    1.4729   -7.6169    7.2048 C   0  0  0  0  0  0  0  0  0  0  0  0
    1.0648   -8.9956    6.9301 C   0  0  0  0  0  0  0  0  0  0  0  0
   -0.4964   -9.5988    7.0485 S   0  0  0  0  0  0  0  0  0  0  0  0
   -0.0864  -11.2097    6.7896 C   0  0  0  0  0  0  0  0  0  0  0  0
   -1.0425  -12.3683    6.8744 C   0  0  0  0  0  0  0  0  0  0  0  0
   -1.2674  -13.0013    5.5015 C   0  0  0  0  0  0  0  0  0  0  0  0
    1.2861  -11.2830    6.5833 C   0  0  0  0  0  0  0  0  0  0  0  0
    1.9357  -10.0440    6.6627 C   0  0  0  0  0  0  0  0  0  0  0  0
    3.6607   -9.8177    6.4370 Cl  0  0  0  0  0  0  0  0  0  0  0  0
    2.1575  -12.7907    6.3426 Cl  0  0  0  0  0  0  0  0  0  0  0  0
    2.4079   -7.3278    8.2258 C   0  0  0  0  0  0  0  0  0  0  0  0
    3.1536   -8.3765    9.3105 S   0  0  0  0  0  0  0  0  0  0  0  0
    0.0273   -6.6163    5.4176 C   0  0  0  0  0  0  0  0  0  0  0  0
   -0.2307   -5.3754    4.8199 C   0  0  0  0  0  0  0  0  0  0  0  0
    0.7277   -4.2203    5.6088 S   0  0  0  0  0  0  0  0  0  0  0  0
   -1.1526   -5.0439    3.7222 C   0  0  0  0  0  0  0  0  0  0  0  0
   -1.0798   -3.8519    3.0130 C   0  0  0  0  0  0  0  0  0  0  0  0
   -2.0420   -3.7454    1.9913 C   0  0  0  0  0  0  0  0  0  0  0  0
   -2.1412   -2.6904    1.0885 C   0  0  0  0  0  0  0  0  0  0  0  0
   -1.1869   -1.5697    1.0831 C   0  0  0  0  0  0  0  0  0  0  0  0
   -0.7995   -0.5897    2.3987 S   0  0  0  0  0  0  0  0  0  0  0  0
    0.5460    0.1359    1.7211 C   0  0  0  0  0  0  0  0  0  0  0  0
    1.4928    1.0500    2.4302 C   0  0  0  0  0  0  0  0  0  0  0  0
    2.7441    0.2981    2.8753 C   0  0  0  0  0  0  0  0  0  0  0  0
    0.7143   -0.3826    0.4387 C   0  0  0  0  0  0  0  0  0  0  0  0
    2.0773   -0.0190   -0.5797 Cl  0  0  0  0  0  0  0  0  0  0  0  0
   -0.2508   -1.3368    0.0877 C   0  0  0  0  0  0  0  0  0  0  0  0
   -0.2056   -2.2074   -1.4368 Cl  0  0  0  0  0  0  0  0  0  0  0  0
   -3.1082   -2.8168    0.0712 C   0  0  0  0  0  0  0  0  0  0  0  0
   -3.9655   -3.9020   -0.0491 C   0  0  0  0  0  0  0  0  0  0  0  0
   -3.8880   -4.9469    0.9081 C   0  0  0  0  0  0  0  0  0  0  0  0
   -4.8950   -6.0171    1.0111 C   0  0  0  0  0  0  0  0  0  0  0  0
   -5.4346   -7.0342   -0.2207 S   0  0  0  0  0  0  0  0  0  0  0  0
   -6.6115   -7.8314    0.6855 C   0  0  0  0  0  0  0  0  0  0  0  0
   -7.5157   -8.9176    0.1938 C   0  0  0  0  0  0  0  0  0  0  0  0
   -6.9526  -10.2724    0.5980 C   0  0  0  0  0  0  0  0  0  0  0  0
   -6.5707   -7.3184    1.9766 C   0  0  0  0  0  0  0  0  0  0  0  0
   -5.6275   -6.3077    2.1534 C   0  0  0  0  0  0  0  0  0  0  0  0
   -5.4480   -5.4588    3.6927 Cl  0  0  0  0  0  0  0  0  0  0  0  0
   -7.6345   -7.8797    3.2613 Cl  0  0  0  0  0  0  0  0  0  0  0  0
   -2.8693   -4.8532    1.8952 C   0  0  0  0  0  0  0  0  0  0  0  0
   -2.4000   -5.9706    3.0674 S   0  0  0  0  0  0  0  0  0  0  0  0
   -4.8300   -3.8358   -1.1686 C   0  0  0  0  0  0  0  0  0  0  0  0
   -4.5894   -2.6872   -1.9387 C   0  0  0  0  0  0  0  0  0  0  0  0
   -3.3873   -1.7817   -1.1940 S   0  0  0  0  0  0  0  0  0  0  0  0
   -5.2713   -2.2063   -3.1503 C   0  0  0  0  0  0  0  0  0  0  0  0
   -6.3276   -1.3135   -3.0309 C   0  0  0  0  0  0  0  0  0  0  0  0
   -6.1995   -0.1201   -3.8023 C   0  0  0  0  0  0  0  0  0  0  0  0
   -6.7376    1.1131   -3.4042 C   0  0  0  0  0  0  0  0  0  0  0  0
   -7.4102    1.1918   -2.1103 C   0  0  0  0  0  0  0  0  0  0  0  0
   -9.0498    1.2537   -1.8703 S   0  0  0  0  0  0  0  0  0  0  0  0
   -9.0064    1.0949   -0.1950 C   0  0  0  0  0  0  0  0  0  0  0  0
  -10.2371    1.2607    0.6514 C   0  0  0  0  0  0  0  0  0  0  0  0
  -10.3422    0.2849    1.8135 C   0  0  0  0  0  0  0  0  0  0  0  0
   -7.6623    1.0294    0.2035 C   0  0  0  0  0  0  0  0  0  0  0  0
   -7.1267    0.9776    1.8672 Cl  0  0  0  0  0  0  0  0  0  0  0  0
   -6.7523    1.1304   -0.8815 C   0  0  0  0  0  0  0  0  0  0  0  0
   -4.9840    1.2215   -0.7412 Cl  0  0  0  0  0  0  0  0  0  0  0  0
   -6.1590    2.2751   -3.9220 C   0  0  0  0  0  0  0  0  0  0  0  0
   -5.0208    2.2266   -4.7133 C   0  0  0  0  0  0  0  0  0  0  0  0
   -4.5932    1.0186   -5.3232 C   0  0  0  0  0  0  0  0  0  0  0  0
   -3.6027    0.8888   -6.4593 C   0  0  0  0  0  0  0  0  0  0  0  0
   -3.0597   -0.6000   -7.0667 S   0  0  0  0  0  0  0  0  0  0  0  0
   -2.1383   -0.0749   -8.3496 C   0  0  0  0  0  0  0  0  0  0  0  0
   -1.5833   -0.9542   -9.4327 C   0  0  0  0  0  0  0  0  0  0  0  0
   -2.6988   -1.4689  -10.3346 C   0  0  0  0  0  0  0  0  0  0  0  0
   -2.3015    1.2965   -8.4216 C   0  0  0  0  0  0  0  0  0  0  0  0
   -3.0882    1.8503   -7.3711 C   0  0  0  0  0  0  0  0  0  0  0  0
   -3.5329    3.5432   -7.4792 Cl  0  0  0  0  0  0  0  0  0  0  0  0
   -1.6092    2.2643   -9.7046 Cl  0  0  0  0  0  0  0  0  0  0  0  0
   -5.1494   -0.1633   -4.7254 C   0  0  0  0  0  0  0  0  0  0  0  0
   -4.3367   -1.5983   -4.4147 S   0  0  0  0  0  0  0  0  0  0  0  0
   -4.2699    3.4049   -4.6061 C   0  0  0  0  0  0  0  0  0  0  0  0
   -4.9097    4.4348   -3.9196 C   0  0  0  0  0  0  0  0  0  0  0  0
   -6.3590    3.8383   -3.3191 S   0  0  0  0  0  0  0  0  0  0  0  0
   -4.3089    5.7989   -3.7505 C   0  0  0  0  0  0  0  0  0  0  0  0
   -2.7416    6.2028   -4.2078 S   0  0  0  0  0  0  0  0  0  0  0  0
   -2.8501    7.8873   -4.0688 C   0  0  0  0  0  0  0  0  0  0  0  0
   -4.1743    8.1597   -3.7326 C   0  0  0  0  0  0  0  0  0  0  0  0
   -4.9605    7.0124   -3.4515 C   0  0  0  0  0  0  0  0  0  0  0  0
   -6.2358    7.1642   -2.9239 C   0  0  0  0  0  0  0  0  0  0  0  0
   -6.8052    8.4586   -2.8079 C   0  0  0  0  0  0  0  0  0  0  0  0
   -8.0799    8.6787   -2.0838 C   0  0  0  0  0  0  0  0  0  0  0  0
   -6.1172    9.5579   -3.3407 C   0  0  0  0  0  0  0  0  0  0  0  0
   -6.7476   10.7882   -3.5163 O   0  0  0  0  0  0  0  0  0  0  0  0
   -6.4729   11.9052   -2.6549 C   0  0  0  0  0  0  0  0  0  0  0  0
   -4.7750    9.4234   -3.7198 C   0  0  0  0  0  0  0  0  0  0  0  0
   -1.7681    8.8869   -4.2241 C   0  0  0  0  0  0  0  0  0  0  0  0
   -0.4563    8.6993   -4.0504 C   0  0  0  0  0  0  0  0  0  0  0  0
    0.2077    7.4376   -3.7205 C   0  0  0  0  0  0  0  0  0  0  0  0
    0.9611    7.2358   -2.5692 C   0  0  0  0  0  0  0  0  0  0  0  0
    1.6990    6.0247   -2.5867 C   0  0  0  0  0  0  0  0  0  0  0  0
    2.5532    5.5437   -1.5829 C   0  0  0  0  0  0  0  0  0  0  0  0
    2.7491    6.1926   -0.2813 C   0  0  0  0  0  0  0  0  0  0  0  0
    4.2588    6.5286    0.3719 S   0  0  0  0  0  0  0  0  0  0  0  0
    3.7402    6.8044    1.9446 C   0  0  0  0  0  0  0  0  0  0  0  0
    4.6199    7.1457    3.1017 C   0  0  0  0  0  0  0  0  0  0  0  0
    4.8144    8.6522    3.1909 C   0  0  0  0  0  0  0  0  0  0  0  0
    2.3611    6.6264    1.9832 C   0  0  0  0  0  0  0  0  0  0  0  0
    1.4061    6.7692    3.4537 Cl  0  0  0  0  0  0  0  0  0  0  0  0
    1.8034    6.2857    0.7388 C   0  0  0  0  0  0  0  0  0  0  0  0
    0.1259    5.8464    0.5284 Cl  0  0  0  0  0  0  0  0  0  0  0  0
    3.1764    4.3032   -1.8057 C   0  0  0  0  0  0  0  0  0  0  0  0
    2.9690    3.5647   -2.9623 C   0  0  0  0  0  0  0  0  0  0  0  0
    2.1172    4.0312   -3.9717 C   0  0  0  0  0  0  0  0  0  0  0  0
    1.8040    3.2314   -5.1612 C   0  0  0  0  0  0  0  0  0  0  0  0
    2.1505    3.6684   -6.7484 S   0  0  0  0  0  0  0  0  0  0  0  0
    1.6592    2.2234   -7.4682 C   0  0  0  0  0  0  0  0  0  0  0  0
    1.8181    1.8858   -8.9240 C   0  0  0  0  0  0  0  0  0  0  0  0
    3.1990    1.3100   -9.1879 C   0  0  0  0  0  0  0  0  0  0  0  0
    1.2370    1.3740   -6.4635 C   0  0  0  0  0  0  0  0  0  0  0  0
    1.2856    1.9337   -5.1718 C   0  0  0  0  0  0  0  0  0  0  0  0
    0.7125    1.1025   -3.7426 Cl  0  0  0  0  0  0  0  0  0  0  0  0
    0.7573   -0.2875   -6.7414 Cl  0  0  0  0  0  0  0  0  0  0  0  0
    1.5149    5.2965   -3.7610 C   0  0  0  0  0  0  0  0  0  0  0  0
    0.4843    6.1535   -4.7801 S   0  0  0  0  0  0  0  0  0  0  0  0
    3.6775    2.3454   -2.9797 C   0  0  0  0  0  0  0  0  0  0  0  0
    4.4036    2.1233   -1.8198 C   0  0  0  0  0  0  0  0  0  0  0  0
    4.1888    3.4326   -0.7853 S   0  0  0  0  0  0  0  0  0  0  0  0
    5.1154    0.8754   -1.4795 C   0  0  0  0  0  0  0  0  0  0  0  0
    5.0801   -0.2941   -2.2297 C   0  0  0  0  0  0  0  0  0  0  0  0
    5.7574   -1.3677   -1.6052 C   0  0  0  0  0  0  0  0  0  0  0  0
    5.9222   -2.6578   -2.1287 C   0  0  0  0  0  0  0  0  0  0  0  0
    5.4758   -3.0099   -3.4844 C   0  0  0  0  0  0  0  0  0  0  0  0
    3.8961   -2.9467   -4.0585 S   0  0  0  0  0  0  0  0  0  0  0  0
    4.2456   -3.5012   -5.6131 C   0  0  0  0  0  0  0  0  0  0  0  0
    3.2400   -3.7144   -6.7033 C   0  0  0  0  0  0  0  0  0  0  0  0
    3.3525   -2.6423   -7.7847 C   0  0  0  0  0  0  0  0  0  0  0  0
    5.6174   -3.7258   -5.6901 C   0  0  0  0  0  0  0  0  0  0  0  0
    6.4130   -4.3270   -7.1371 Cl  0  0  0  0  0  0  0  0  0  0  0  0
    6.3056   -3.4528   -4.5049 C   0  0  0  0  0  0  0  0  0  0  0  0
    8.0455   -3.6385   -4.3218 Cl  0  0  0  0  0  0  0  0  0  0  0  0
    6.6436   -3.5830   -1.3514 C   0  0  0  0  0  0  0  0  0  0  0  0
    7.1960   -3.2454   -0.1203 C   0  0  0  0  0  0  0  0  0  0  0  0
    7.0522   -1.9480    0.3943 C   0  0  0  0  0  0  0  0  0  0  0  0
    7.6405   -1.5104    1.6679 C   0  0  0  0  0  0  0  0  0  0  0  0
    6.7781   -0.8094    2.9312 S   0  0  0  0  0  0  0  0  0  0  0  0
    8.0936   -0.5152    3.9317 C   0  0  0  0  0  0  0  0  0  0  0  0
    8.0402    0.1459    5.2801 C   0  0  0  0  0  0  0  0  0  0  0  0
    8.4018    1.6186    5.1484 C   0  0  0  0  0  0  0  0  0  0  0  0
    9.2371   -0.9377    3.2652 C   0  0  0  0  0  0  0  0  0  0  0  0
    8.9921   -1.4929    2.0037 C   0  0  0  0  0  0  0  0  0  0  0  0
   10.2697   -2.0214    0.9275 Cl  0  0  0  0  0  0  0  0  0  0  0  0
   10.8520   -0.7875    3.9588 Cl  0  0  0  0  0  0  0  0  0  0  0  0
    6.3068   -1.0347   -0.3815 C   0  0  0  0  0  0  0  0  0  0  0  0
    5.9667    0.5805   -0.0565 S   0  0  0  0  0  0  0  0  0  0  0  0
    7.8670   -4.3291    0.4862 C   0  0  0  0  0  0  0  0  0  0  0  0
    7.8417   -5.4875   -0.2721 C   0  0  0  0  0  0  0  0  0  0  0  0
    6.9860   -5.1927   -1.6809 S   0  0  0  0  0  0  0  0  0  0  0  0
    4.7333   -7.3639   10.9413 H   0  0  0  0  0  0  0  0  0  0  0  0
    4.2596   -5.0551    9.8691 H   0  0  0  0  0  0  0  0  0  0  0  0
    2.8657    0.3604    6.0656 H   0  0  0  0  0  0  0  0  0  0  0  0
    2.1201    0.9820    7.5868 H   0  0  0  0  0  0  0  0  0  0  0  0
    5.1198    0.3638    7.1438 H   0  0  0  0  0  0  0  0  0  0  0  0
    4.3786    0.9537    8.6908 H   0  0  0  0  0  0  0  0  0  0  0  0
    4.3672    1.9975    7.2026 H   0  0  0  0  0  0  0  0  0  0  0  0
   -2.0131  -12.0333    7.2905 H   0  0  0  0  0  0  0  0  0  0  0  0
   -0.6333  -13.1276    7.5849 H   0  0  0  0  0  0  0  0  0  0  0  0
   -0.3296  -13.0149    4.9202 H   0  0  0  0  0  0  0  0  0  0  0  0
   -1.5956  -14.0579    5.6297 H   0  0  0  0  0  0  0  0  0  0  0  0
   -2.0408  -12.4288    4.9434 H   0  0  0  0  0  0  0  0  0  0  0  0
   -0.4638   -7.5252    5.1216 H   0  0  0  0  0  0  0  0  0  0  0  0
   -0.3212   -3.1063    3.2300 H   0  0  0  0  0  0  0  0  0  0  0  0
    0.9862    1.4804    3.3199 H   0  0  0  0  0  0  0  0  0  0  0  0
    1.7761    1.8887    1.7493 H   0  0  0  0  0  0  0  0  0  0  0  0
    3.3206   -0.0658    1.9965 H   0  0  0  0  0  0  0  0  0  0  0  0
    2.4670   -0.5628    3.5240 H   0  0  0  0  0  0  0  0  0  0  0  0
    3.3889    0.9856    3.4604 H   0  0  0  0  0  0  0  0  0  0  0  0
   -7.6229   -8.8634   -0.9100 H   0  0  0  0  0  0  0  0  0  0  0  0
   -8.5324   -8.7883    0.6416 H   0  0  0  0  0  0  0  0  0  0  0  0
   -6.8768  -10.3272    1.7034 H   0  0  0  0  0  0  0  0  0  0  0  0
   -5.9406  -10.3994    0.1530 H   0  0  0  0  0  0  0  0  0  0  0  0
   -7.6275  -11.0766    0.2286 H   0  0  0  0  0  0  0  0  0  0  0  0
   -5.5156   -4.6033   -1.4539 H   0  0  0  0  0  0  0  0  0  0  0  0
   -7.0607   -1.4134   -2.2534 H   0  0  0  0  0  0  0  0  0  0  0  0
  -11.1247    1.1019   -0.0038 H   0  0  0  0  0  0  0  0  0  0  0  0
  -10.3132    2.2980    1.0276 H   0  0  0  0  0  0  0  0  0  0  0  0
   -9.7290    0.6349    2.6585 H   0  0  0  0  0  0  0  0  0  0  0  0
  -10.0168   -0.7378    1.5237 H   0  0  0  0  0  0  0  0  0  0  0  0
  -11.4055    0.2416    2.1735 H   0  0  0  0  0  0  0  0  0  0  0  0
   -0.8433   -0.4029  -10.0530 H   0  0  0  0  0  0  0  0  0  0  0  0
   -1.0565   -1.8060   -8.9461 H   0  0  0  0  0  0  0  0  0  0  0  0
   -3.3966   -0.6271  -10.5937 H   0  0  0  0  0  0  0  0  0  0  0  0
   -2.2684   -1.9279  -11.2392 H   0  0  0  0  0  0  0  0  0  0  0  0
   -3.2867   -2.2264   -9.7712 H   0  0  0  0  0  0  0  0  0  0  0  0
   -3.2541    3.4887   -4.9419 H   0  0  0  0  0  0  0  0  0  0  0  0
   -6.7725    6.3314   -2.5291 H   0  0  0  0  0  0  0  0  0  0  0  0
   -8.8372    9.1168   -2.7693 H   0  0  0  0  0  0  0  0  0  0  0  0
   -8.4993    7.7428   -1.6531 H   0  0  0  0  0  0  0  0  0  0  0  0
   -7.9126    9.4261   -1.2671 H   0  0  0  0  0  0  0  0  0  0  0  0
   -7.3106   12.0221   -1.9240 H   0  0  0  0  0  0  0  0  0  0  0  0
   -6.3051   12.8344   -3.2341 H   0  0  0  0  0  0  0  0  0  0  0  0
   -5.5681   11.7152   -2.0431 H   0  0  0  0  0  0  0  0  0  0  0  0
   -4.2433   10.2922   -4.0777 H   0  0  0  0  0  0  0  0  0  0  0  0
   -2.0735    9.9087   -4.4313 H   0  0  0  0  0  0  0  0  0  0  0  0
    0.1804    9.5826   -4.0998 H   0  0  0  0  0  0  0  0  0  0  0  0
    0.9976    7.9400   -1.7554 H   0  0  0  0  0  0  0  0  0  0  0  0
    4.1695    6.7672    4.0508 H   0  0  0  0  0  0  0  0  0  0  0  0
    5.6089    6.6542    2.9536 H   0  0  0  0  0  0  0  0  0  0  0  0
    5.4028    9.0010    2.3086 H   0  0  0  0  0  0  0  0  0  0  0  0
    5.3805    8.9021    4.1058 H   0  0  0  0  0  0  0  0  0  0  0  0
    3.8312    9.1632    3.2244 H   0  0  0  0  0  0  0  0  0  0  0  0
    1.0340    1.1490   -9.2267 H   0  0  0  0  0  0  0  0  0  0  0  0
    1.6942    2.8079   -9.5299 H   0  0  0  0  0  0  0  0  0  0  0  0
    3.3705    0.4240   -8.5398 H   0  0  0  0  0  0  0  0  0  0  0  0
    3.9652    2.0891   -8.9872 H   0  0  0  0  0  0  0  0  0  0  0  0
    3.2757    1.0081  -10.2505 H   0  0  0  0  0  0  0  0  0  0  0  0
    3.6469    1.6528   -3.8045 H   0  0  0  0  0  0  0  0  0  0  0  0
    4.5731   -0.3896   -3.1801 H   0  0  0  0  0  0  0  0  0  0  0  0
    3.4045   -4.7139   -7.1623 H   0  0  0  0  0  0  0  0  0  0  0  0
    2.2166   -3.6943   -6.2753 H   0  0  0  0  0  0  0  0  0  0  0  0
    2.4281   -2.6416   -8.3996 H   0  0  0  0  0  0  0  0  0  0  0  0
    3.4852   -1.6434   -7.3251 H   0  0  0  0  0  0  0  0  0  0  0  0
    4.2147   -2.8592   -8.4576 H   0  0  0  0  0  0  0  0  0  0  0  0
    7.0115    0.0429    5.6930 H   0  0  0  0  0  0  0  0  0  0  0  0
    8.7601   -0.3565    5.9698 H   0  0  0  0  0  0  0  0  0  0  0  0
    7.7141    2.1091    4.4283 H   0  0  0  0  0  0  0  0  0  0  0  0
    8.2908    2.1201    6.1376 H   0  0  0  0  0  0  0  0  0  0  0  0
    9.4466    1.7394    4.8011 H   0  0  0  0  0  0  0  0  0  0  0  0
    8.3506   -4.2637    1.4550 H   0  0  0  0  0  0  0  0  0  0  0  0
    8.3088   -6.4274    0.0234 H   0  0  0  0  0  0  0  0  0  0  0  0
  1  2  2  0
  2  3  1  0
  3  4  2  0
  4  5  1  0
  5  6  1  0
  6  7  1  0
  7  8  1  0
  8  9  1  0
  7 10  2  0
 10 11  1  0
 10 12  1  0
 12 13  1  0
  4 14  1  0
 14 15  2  0
 15 16  1  0
 16 17  1  0
 17 18  1  0
 18 19  1  0
 19 20  1  0
 20 21  1  0
 19 22  2  0
 22 23  1  0
 23 24  1  0
 22 25  1  0
 16 26  2  0
 26 27  1  0
 15 28  1  0
 28 29  2  0
 29 30  1  0
 29 31  1  0
 31 32  2  0
 32 33  1  0
 33 34  2  0
 34 35  1  0
 35 36  1  0
 36 37  1  0
 37 38  1  0
 38 39  1  0
 37 40  2  0
 40 41  1  0
 40 42  1  0
 42 43  1  0
 34 44  1  0
 44 45  2  0
 45 46  1  0
 46 47  1  0
 47 48  1  0
 48 49  1  0
 49 50  1  0
 50 51  1  0
 49 52  2  0
 52 53  1  0
 53 54  1  0
 52 55  1  0
 46 56  2  0
 56 57  1  0
 45 58  1  0
 58 59  2  0
 59 60  1  0
 59 61  1  0
 61 62  2  0
 62 63  1  0
 63 64  2  0
 64 65  1  0
 65 66  1  0
 66 67  1  0
 67 68  1  0
 68 69  1  0
 67 70  2  0
 70 71  1  0
 70 72  1  0
 72 73  1  0
 64 74  1  0
 74 75  2  0
 75 76  1  0
 76 77  1  0
 77 78  1  0
 78 79  1  0
 79 80  1  0
 80 81  1  0
 79 82  2  0
 82 83  1  0
 83 84  1  0
 82 85  1  0
 76 86  2  0
 86 87  1  0
 75 88  1  0
 88 89  2  0
 89 90  1  0
 89 91  1  0
 91 92  1  0
 92 93  1  0
 93 94  2  0
 94 95  1  0
 95 96  1  0
 96 97  2  0
 97 98  1  0
 97 99  1  0
 99100  1  0
100101  1  0
 99102  2  0
 93103  1  0
103104  2  3
104105  1  0
105106  2  0
106107  1  0
107108  2  0
108109  1  0
109110  1  0
110111  1  0
111112  1  0
112113  1  0
111114  2  0
114115  1  0
114116  1  0
116117  1  0
108118  1  0
118119  2  0
119120  1  0
120121  1  0
121122  1  0
122123  1  0
123124  1  0
124125  1  0
123126  2  0
126127  1  0
127128  1  0
126129  1  0
120130  2  0
130131  1  0
119132  1  0
132133  2  0
133134  1  0
133135  1  0
135136  2  0
136137  1  0
137138  2  0
138139  1  0
139140  1  0
140141  1  0
141142  1  0
142143  1  0
141144  2  0
144145  1  0
144146  1  0
146147  1  0
138148  1  0
148149  2  0
149150  1  0
150151  1  0
151152  1  0
152153  1  0
153154  1  0
154155  1  0
153156  2  0
156157  1  0
157158  1  0
156159  1  0
150160  2  0
160161  1  0
149162  1  0
162163  2  0
163164  1  0
 27  1  1  0
 57 31  1  0
 87 61  1  0
 95 91  2  0
131105  1  0
161135  1  0
 26  3  1  0
 56 33  1  0
 86 63  1  0
102 94  1  0
130107  1  0
160137  1  0
 12  5  2  0
 30 14  1  0
 42 35  2  0
 60 44  1  0
 72 65  2  0
 90 74  1  0
116109  2  0
134118  1  0
146139  2  0
164148  1  0
 23 17  2  0
 53 47  2  0
 83 77  2  0
127121  2  0
157151  2  0
  1165  1  0
  2166  1  0
  8167  1  0
  8168  1  0
  9169  1  0
  9170  1  0
  9171  1  0
 20172  1  0
 20173  1  0
 21174  1  0
 21175  1  0
 21176  1  0
 28177  1  0
 32178  1  0
 38179  1  0
 38180  1  0
 39181  1  0
 39182  1  0
 39183  1  0
 50184  1  0
 50185  1  0
 51186  1  0
 51187  1  0
 51188  1  0
 58189  1  0
 62190  1  0
 68191  1  0
 68192  1  0
 69193  1  0
 69194  1  0
 69195  1  0
 80196  1  0
 80197  1  0
 81198  1  0
 81199  1  0
 81200  1  0
 88201  1  0
 96202  1  0
 98203  1  0
 98204  1  0
 98205  1  0
101206  1  0
101207  1  0
101208  1  0
102209  1  0
103210  1  0
104211  1  0
106212  1  0
112213  1  0
112214  1  0
113215  1  0
113216  1  0
113217  1  0
124218  1  0
124219  1  0
125220  1  0
125221  1  0
125222  1  0
132223  1  0
136224  1  0
142225  1  0
142226  1  0
143227  1  0
143228  1  0
143229  1  0
154230  1  0
154231  1  0
155232  1  0
155233  1  0
155234  1  0
162235  1  0
163236  1  0
M  END

