
     RDKit          3D

250273  0  0  0  0  0  0  0  0999 V2000
    4.5643   -1.3238    8.1390 C   0  0  0  0  0  0  0  0  0  0  0  0
    2.9456   -1.6187    7.7957 S   0  0  0  0  0  0  0  0  0  0  0  0
    2.7940   -0.5523    6.4966 C   0  0  0  0  0  0  0  0  0  0  0  0
    4.0387    0.0571    6.3111 C   0  0  0  0  0  0  0  0  0  0  0  0
    5.0151   -0.3845    7.2211 C   0  0  0  0  0  0  0  0  0  0  0  0
    6.3242    0.0875    7.1513 C   0  0  0  0  0  0  0  0  0  0  0  0
    6.6707    1.0141    6.1513 C   0  0  0  0  0  0  0  0  0  0  0  0
    8.0891    1.5006    6.0460 C   0  0  0  0  0  0  0  0  0  0  0  0
    5.6968    1.4755    5.2365 C   0  0  0  0  0  0  0  0  0  0  0  0
    6.0903    2.4004    4.2580 O   0  0  0  0  0  0  0  0  0  0  0  0
    5.2073    3.0126    3.3232 C   0  0  0  0  0  0  0  0  0  0  0  0
    4.3703    0.9949    5.3224 C   0  0  0  0  0  0  0  0  0  0  0  0
    1.5794   -0.3589    5.6798 C   0  0  0  0  0  0  0  0  0  0  0  0
    0.5833   -1.2526    5.6731 C   0  0  0  0  0  0  0  0  0  0  0  0
   -0.5739   -1.1347    4.7732 C   0  0  0  0  0  0  0  0  0  0  0  0
   -1.4271   -2.1872    4.4562 C   0  0  0  0  0  0  0  0  0  0  0  0
   -2.3776   -1.8526    3.4767 C   0  0  0  0  0  0  0  0  0  0  0  0
   -3.3204   -2.7305    2.9056 C   0  0  0  0  0  0  0  0  0  0  0  0
   -3.4256   -4.1439    3.3388 C   0  0  0  0  0  0  0  0  0  0  0  0
   -3.1662   -5.1843    2.4323 C   0  0  0  0  0  0  0  0  0  0  0  0
   -3.2293   -6.5152    2.8514 C   0  0  0  0  0  0  0  0  0  0  0  0
   -3.5347   -6.8210    4.1823 C   0  0  0  0  0  0  0  0  0  0  0  0
   -3.5402   -8.5314    4.7306 S   0  0  0  0  0  0  0  0  0  0  0  0
   -5.3264   -8.7931    4.4478 C   0  0  0  0  0  0  0  0  0  0  0  0
   -5.5884   -9.2216    3.0116 C   0  0  0  0  0  0  0  0  0  0  0  0
   -3.7953   -5.7866    5.0914 C   0  0  0  0  0  0  0  0  0  0  0  0
   -4.0963   -6.0672    6.3845 F   0  0  0  0  0  0  0  0  0  0  0  0
   -3.7475   -4.4546    4.6695 C   0  0  0  0  0  0  0  0  0  0  0  0
   -4.0945   -2.2272    1.8478 C   0  0  0  0  0  0  0  0  0  0  0  0
   -3.9670   -0.9178    1.3695 C   0  0  0  0  0  0  0  0  0  0  0  0
   -3.0541   -0.0166    1.9689 C   0  0  0  0  0  0  0  0  0  0  0  0
   -2.9067    1.3931    1.5095 C   0  0  0  0  0  0  0  0  0  0  0  0
   -1.6389    1.9256    1.2146 C   0  0  0  0  0  0  0  0  0  0  0  0
   -1.5006    3.2612    0.8293 C   0  0  0  0  0  0  0  0  0  0  0  0
   -2.6260    4.0743    0.6914 C   0  0  0  0  0  0  0  0  0  0  0  0
   -2.4343    5.7714    0.1333 S   0  0  0  0  0  0  0  0  0  0  0  0
   -2.2094    6.4829    1.8011 C   0  0  0  0  0  0  0  0  0  0  0  0
   -0.7392    6.4696    2.2007 C   0  0  0  0  0  0  0  0  0  0  0  0
   -3.8981    3.5522    0.9600 C   0  0  0  0  0  0  0  0  0  0  0  0
   -4.0351    2.2235    1.3846 C   0  0  0  0  0  0  0  0  0  0  0  0
   -5.0035    4.3238    0.8064 F   0  0  0  0  0  0  0  0  0  0  0  0
   -2.2656   -0.5320    3.0215 C   0  0  0  0  0  0  0  0  0  0  0  0
   -1.0118    0.2175    3.8622 S   0  0  0  0  0  0  0  0  0  0  0  0
   -4.7534   -0.6823    0.2241 C   0  0  0  0  0  0  0  0  0  0  0  0
   -5.5105   -1.7889   -0.1771 C   0  0  0  0  0  0  0  0  0  0  0  0
   -5.1898   -3.0598    0.8843 S   0  0  0  0  0  0  0  0  0  0  0  0
   -6.2454   -1.8831   -1.4597 C   0  0  0  0  0  0  0  0  0  0  0  0
   -5.9927   -0.8048   -2.7264 S   0  0  0  0  0  0  0  0  0  0  0  0
   -6.9339   -1.5802   -3.8762 C   0  0  0  0  0  0  0  0  0  0  0  0
   -7.4565   -2.7320   -3.2949 C   0  0  0  0  0  0  0  0  0  0  0  0
   -7.1031   -2.8907   -1.9373 C   0  0  0  0  0  0  0  0  0  0  0  0
   -7.6291   -3.9628   -1.2045 C   0  0  0  0  0  0  0  0  0  0  0  0
   -8.4651   -4.9010   -1.8405 C   0  0  0  0  0  0  0  0  0  0  0  0
   -9.0681   -6.0198   -1.0374 C   0  0  0  0  0  0  0  0  0  0  0  0
   -8.7824   -4.7615   -3.2130 C   0  0  0  0  0  0  0  0  0  0  0  0
   -9.6068   -5.7268   -3.8144 O   0  0  0  0  0  0  0  0  0  0  0  0
   -9.9493   -5.7523   -5.1974 C   0  0  0  0  0  0  0  0  0  0  0  0
   -8.2733   -3.6645   -3.9404 C   0  0  0  0  0  0  0  0  0  0  0  0
   -7.0134   -1.1309   -5.2711 C   0  0  0  0  0  0  0  0  0  0  0  0
   -7.5384    0.0770   -5.5059 C   0  0  0  0  0  0  0  0  0  0  0  0
   -6.7186    1.1462   -6.1095 C   0  0  0  0  0  0  0  0  0  0  0  0
   -6.7294    2.4313   -5.5635 C   0  0  0  0  0  0  0  0  0  0  0  0
   -5.4957    3.0942   -5.6698 C   0  0  0  0  0  0  0  0  0  0  0  0
   -5.1029    4.2086   -4.8970 C   0  0  0  0  0  0  0  0  0  0  0  0
   -6.0624    4.9610   -4.0653 C   0  0  0  0  0  0  0  0  0  0  0  0
   -6.4300    6.2604   -4.4426 C   0  0  0  0  0  0  0  0  0  0  0  0
   -7.4097    6.9492   -3.7236 C   0  0  0  0  0  0  0  0  0  0  0  0
   -8.0381    6.3393   -2.6307 C   0  0  0  0  0  0  0  0  0  0  0  0
   -9.3783    7.1906   -1.7891 S   0  0  0  0  0  0  0  0  0  0  0  0
  -10.6573    6.7371   -3.0197 C   0  0  0  0  0  0  0  0  0  0  0  0
  -11.0823    5.2815   -2.8721 C   0  0  0  0  0  0  0  0  0  0  0  0
   -7.6280    5.0662   -2.2124 C   0  0  0  0  0  0  0  0  0  0  0  0
   -8.2057    4.4781   -1.1338 F   0  0  0  0  0  0  0  0  0  0  0  0
   -6.6383    4.3804   -2.9240 C   0  0  0  0  0  0  0  0  0  0  0  0
   -3.7257    4.4620   -4.8059 C   0  0  0  0  0  0  0  0  0  0  0  0
   -2.7838    3.7533   -5.5557 C   0  0  0  0  0  0  0  0  0  0  0  0
   -3.1912    2.7246   -6.4304 C   0  0  0  0  0  0  0  0  0  0  0  0
   -2.1960    1.8549   -7.0852 C   0  0  0  0  0  0  0  0  0  0  0  0
   -1.7675    0.6745   -6.4580 C   0  0  0  0  0  0  0  0  0  0  0  0
   -0.7548   -0.0954   -7.0333 C   0  0  0  0  0  0  0  0  0  0  0  0
   -0.1575    0.3117   -8.2344 C   0  0  0  0  0  0  0  0  0  0  0  0
    1.1494   -0.6823   -8.9592 S   0  0  0  0  0  0  0  0  0  0  0  0
    2.4832    0.2358   -8.1214 C   0  0  0  0  0  0  0  0  0  0  0  0
    3.8327   -0.3610   -8.4883 C   0  0  0  0  0  0  0  0  0  0  0  0
   -0.5852    1.4907   -8.8637 C   0  0  0  0  0  0  0  0  0  0  0  0
   -1.5960    2.2645   -8.2842 C   0  0  0  0  0  0  0  0  0  0  0  0
   -0.0121    1.8990  -10.0240 F   0  0  0  0  0  0  0  0  0  0  0  0
   -4.5527    2.3807   -6.4142 C   0  0  0  0  0  0  0  0  0  0  0  0
   -5.2218    0.9045   -6.8617 S   0  0  0  0  0  0  0  0  0  0  0  0
   -1.4719    3.9043   -5.0779 C   0  0  0  0  0  0  0  0  0  0  0  0
   -1.3931    4.5512   -3.8430 C   0  0  0  0  0  0  0  0  0  0  0  0
   -2.9341    5.1474   -3.4932 S   0  0  0  0  0  0  0  0  0  0  0  0
   -0.6478    3.8480   -2.7992 C   0  0  0  0  0  0  0  0  0  0  0  0
    0.6377    4.1297   -2.3399 C   0  0  0  0  0  0  0  0  0  0  0  0
    1.2237    3.0349   -1.6666 C   0  0  0  0  0  0  0  0  0  0  0  0
    2.5147    2.9806   -1.0948 C   0  0  0  0  0  0  0  0  0  0  0  0
    3.3974    4.1654   -1.0382 C   0  0  0  0  0  0  0  0  0  0  0  0
    3.8187    4.8030   -2.2161 C   0  0  0  0  0  0  0  0  0  0  0  0
    4.6005    5.9602   -2.1466 C   0  0  0  0  0  0  0  0  0  0  0  0
    4.9778    6.4860   -0.9040 C   0  0  0  0  0  0  0  0  0  0  0  0
    5.9404    7.9998   -0.8268 S   0  0  0  0  0  0  0  0  0  0  0  0
    4.5042    9.1003   -0.5560 C   0  0  0  0  0  0  0  0  0  0  0  0
    3.7772    9.3929   -1.8622 C   0  0  0  0  0  0  0  0  0  0  0  0
    4.5984    5.8242    0.2738 C   0  0  0  0  0  0  0  0  0  0  0  0
    4.9728    6.3088    1.4832 F   0  0  0  0  0  0  0  0  0  0  0  0
    3.8027    4.6767    0.2058 C   0  0  0  0  0  0  0  0  0  0  0  0
    2.9113    1.7483   -0.5380 C   0  0  0  0  0  0  0  0  0  0  0  0
    2.0784    0.6227   -0.5220 C   0  0  0  0  0  0  0  0  0  0  0  0
    0.7889    0.6728   -1.0878 C   0  0  0  0  0  0  0  0  0  0  0  0
   -0.0769   -0.5288   -1.2051 C   0  0  0  0  0  0  0  0  0  0  0  0
   -0.4407   -1.2706   -0.0682 C   0  0  0  0  0  0  0  0  0  0  0  0
   -1.2458   -2.4051   -0.1939 C   0  0  0  0  0  0  0  0  0  0  0  0
   -1.7182   -2.8005   -1.4495 C   0  0  0  0  0  0  0  0  0  0  0  0
   -2.7589   -4.2543   -1.6059 S   0  0  0  0  0  0  0  0  0  0  0  0
   -1.3773   -5.4070   -1.9329 C   0  0  0  0  0  0  0  0  0  0  0  0
   -0.8463   -5.9940   -0.6336 C   0  0  0  0  0  0  0  0  0  0  0  0
   -1.3785   -2.0556   -2.5849 C   0  0  0  0  0  0  0  0  0  0  0  0
   -0.5465   -0.9384   -2.4659 C   0  0  0  0  0  0  0  0  0  0  0  0
   -1.8332   -2.4221   -3.8093 F   0  0  0  0  0  0  0  0  0  0  0  0
    0.3969    1.9051   -1.6334 C   0  0  0  0  0  0  0  0  0  0  0  0
   -1.0501    2.2635   -2.3889 S   0  0  0  0  0  0  0  0  0  0  0  0
    2.6933   -0.5112    0.0265 C   0  0  0  0  0  0  0  0  0  0  0  0
    4.0053   -0.2805    0.4326 C   0  0  0  0  0  0  0  0  0  0  0  0
    4.4164    1.3215    0.0926 S   0  0  0  0  0  0  0  0  0  0  0  0
    4.8956   -1.3069    0.9927 C   0  0  0  0  0  0  0  0  0  0  0  0
    4.4832   -2.5617    1.4353 C   0  0  0  0  0  0  0  0  0  0  0  0
    5.5462   -3.3938    1.8024 C   0  0  0  0  0  0  0  0  0  0  0  0
    5.4324   -4.7257    2.2365 C   0  0  0  0  0  0  0  0  0  0  0  0
    4.1259   -5.3998    2.3290 C   0  0  0  0  0  0  0  0  0  0  0  0
    3.2589   -5.1294    3.3997 C   0  0  0  0  0  0  0  0  0  0  0  0
    2.0169   -5.7675    3.4721 C   0  0  0  0  0  0  0  0  0  0  0  0
    1.6342   -6.6766    2.4766 C   0  0  0  0  0  0  0  0  0  0  0  0
    0.0447   -7.5014    2.5867 S   0  0  0  0  0  0  0  0  0  0  0  0
    0.6486   -8.9094    3.5850 C   0  0  0  0  0  0  0  0  0  0  0  0
    1.3137   -9.9621    2.7055 C   0  0  0  0  0  0  0  0  0  0  0  0
    2.4850   -6.9209    1.3888 C   0  0  0  0  0  0  0  0  0  0  0  0
    2.1152   -7.7725    0.4000 F   0  0  0  0  0  0  0  0  0  0  0  0
    3.7307   -6.2909    1.3225 C   0  0  0  0  0  0  0  0  0  0  0  0
    6.6243   -5.4129    2.4980 C   0  0  0  0  0  0  0  0  0  0  0  0
    7.8828   -4.8254    2.3396 C   0  0  0  0  0  0  0  0  0  0  0  0
    8.0012   -3.4853    1.9035 C   0  0  0  0  0  0  0  0  0  0  0  0
    9.3236   -2.8561    1.6846 C   0  0  0  0  0  0  0  0  0  0  0  0
    9.6995   -2.4135    0.4061 C   0  0  0  0  0  0  0  0  0  0  0  0
   10.9743   -1.8804    0.1930 C   0  0  0  0  0  0  0  0  0  0  0  0
   11.8853   -1.7850    1.2530 C   0  0  0  0  0  0  0  0  0  0  0  0
   13.5343   -1.1331    0.9634 S   0  0  0  0  0  0  0  0  0  0  0  0
   13.1328    0.5714    1.4821 C   0  0  0  0  0  0  0  0  0  0  0  0
   12.5392    1.3650    0.3267 C   0  0  0  0  0  0  0  0  0  0  0  0
   11.5128   -2.2228    2.5314 C   0  0  0  0  0  0  0  0  0  0  0  0
   10.2353   -2.7465    2.7475 C   0  0  0  0  0  0  0  0  0  0  0  0
   12.3882   -2.1481    3.5648 F   0  0  0  0  0  0  0  0  0  0  0  0
    6.8013   -2.7944    1.6452 C   0  0  0  0  0  0  0  0  0  0  0  0
    6.5856   -1.2210    1.0720 S   0  0  0  0  0  0  0  0  0  0  0  0
    8.9353   -5.7189    2.6116 C   0  0  0  0  0  0  0  0  0  0  0  0
    8.4984   -6.9843    2.9952 C   0  0  0  0  0  0  0  0  0  0  0  0
    6.8133   -7.0109    2.9876 S   0  0  0  0  0  0  0  0  0  0  0  0
    5.1487   -1.7946    8.9178 H   0  0  0  0  0  0  0  0  0  0  0  0
    7.0650   -0.2652    7.8601 H   0  0  0  0  0  0  0  0  0  0  0  0
    8.7087    1.1417    6.8921 H   0  0  0  0  0  0  0  0  0  0  0  0
    8.5342    1.1344    5.0970 H   0  0  0  0  0  0  0  0  0  0  0  0
    8.1054    2.6104    6.0542 H   0  0  0  0  0  0  0  0  0  0  0  0
    4.4652    3.6436    3.8548 H   0  0  0  0  0  0  0  0  0  0  0  0
    4.6830    2.2344    2.7339 H   0  0  0  0  0  0  0  0  0  0  0  0
    5.7987    3.6523    2.6346 H   0  0  0  0  0  0  0  0  0  0  0  0
    3.6179    1.3342    4.6242 H   0  0  0  0  0  0  0  0  0  0  0  0
    1.5300    0.5017    5.0293 H   0  0  0  0  0  0  0  0  0  0  0  0
    0.6558   -2.1469    6.2793 H   0  0  0  0  0  0  0  0  0  0  0  0
   -1.3224   -3.1735    4.8903 H   0  0  0  0  0  0  0  0  0  0  0  0
   -2.9024   -4.9626    1.4070 H   0  0  0  0  0  0  0  0  0  0  0  0
   -3.0231   -7.3060    2.1416 H   0  0  0  0  0  0  0  0  0  0  0  0
   -5.9071   -7.8754    4.6866 H   0  0  0  0  0  0  0  0  0  0  0  0
   -5.6684   -9.5999    5.1280 H   0  0  0  0  0  0  0  0  0  0  0  0
   -5.2937   -8.4177    2.3064 H   0  0  0  0  0  0  0  0  0  0  0  0
   -5.0154  -10.1444    2.7776 H   0  0  0  0  0  0  0  0  0  0  0  0
   -6.6712   -9.4296    2.8763 H   0  0  0  0  0  0  0  0  0  0  0  0
   -3.9517   -3.6607    5.3784 H   0  0  0  0  0  0  0  0  0  0  0  0
   -0.7512    1.3144    1.2843 H   0  0  0  0  0  0  0  0  0  0  0  0
   -0.5147    3.6538    0.6188 H   0  0  0  0  0  0  0  0  0  0  0  0
   -2.8171    5.9378    2.5550 H   0  0  0  0  0  0  0  0  0  0  0  0
   -2.5600    7.5357    1.7742 H   0  0  0  0  0  0  0  0  0  0  0  0
   -0.6106    7.0040    3.1653 H   0  0  0  0  0  0  0  0  0  0  0  0
   -0.1246    6.9777    1.4277 H   0  0  0  0  0  0  0  0  0  0  0  0
   -0.3780    5.4294    2.3274 H   0  0  0  0  0  0  0  0  0  0  0  0
   -5.0214    1.8446    1.6240 H   0  0  0  0  0  0  0  0  0  0  0  0
   -4.7257    0.2422   -0.3359 H   0  0  0  0  0  0  0  0  0  0  0  0
   -7.4397   -4.0597   -0.1460 H   0  0  0  0  0  0  0  0  0  0  0  0
   -8.5850   -6.1128   -0.0427 H   0  0  0  0  0  0  0  0  0  0  0  0
   -8.9444   -6.9869   -1.5731 H   0  0  0  0  0  0  0  0  0  0  0  0
  -10.1526   -5.8282   -0.8855 H   0  0  0  0  0  0  0  0  0  0  0  0
   -9.0325   -5.8440   -5.8160 H   0  0  0  0  0  0  0  0  0  0  0  0
  -10.5086   -4.8340   -5.4713 H   0  0  0  0  0  0  0  0  0  0  0  0
  -10.5965   -6.6336   -5.3899 H   0  0  0  0  0  0  0  0  0  0  0  0
   -8.5197   -3.5260   -4.9830 H   0  0  0  0  0  0  0  0  0  0  0  0
   -6.2340   -1.5132   -5.9164 H   0  0  0  0  0  0  0  0  0  0  0  0
   -8.3280    0.4121   -4.8426 H   0  0  0  0  0  0  0  0  0  0  0  0
   -7.5334    2.7744   -4.9224 H   0  0  0  0  0  0  0  0  0  0  0  0
   -5.9822    6.7258   -5.3135 H   0  0  0  0  0  0  0  0  0  0  0  0
   -7.7085    7.9410   -4.0412 H   0  0  0  0  0  0  0  0  0  0  0  0
  -10.2928    6.9230   -4.0525 H   0  0  0  0  0  0  0  0  0  0  0  0
  -11.5441    7.3854   -2.8541 H   0  0  0  0  0  0  0  0  0  0  0  0
  -11.4067    5.0813   -1.8285 H   0  0  0  0  0  0  0  0  0  0  0  0
  -10.2442    4.6039   -3.1339 H   0  0  0  0  0  0  0  0  0  0  0  0
  -11.9270    5.0685   -3.5612 H   0  0  0  0  0  0  0  0  0  0  0  0
   -6.3404    3.3873   -2.6071 H   0  0  0  0  0  0  0  0  0  0  0  0
   -2.2057    0.3651   -5.5166 H   0  0  0  0  0  0  0  0  0  0  0  0
   -0.4235   -1.0005   -6.5388 H   0  0  0  0  0  0  0  0  0  0  0  0
    2.4566    1.3000   -8.4379 H   0  0  0  0  0  0  0  0  0  0  0  0
    2.3424    0.1818   -7.0209 H   0  0  0  0  0  0  0  0  0  0  0  0
    3.9924   -0.3008   -9.5864 H   0  0  0  0  0  0  0  0  0  0  0  0
    4.6410    0.2043   -7.9803 H   0  0  0  0  0  0  0  0  0  0  0  0
    3.8818   -1.4226   -8.1660 H   0  0  0  0  0  0  0  0  0  0  0  0
   -1.9029    3.1863   -8.7596 H   0  0  0  0  0  0  0  0  0  0  0  0
   -0.6537    3.2941   -5.4425 H   0  0  0  0  0  0  0  0  0  0  0  0
    1.1364    5.0687   -2.5396 H   0  0  0  0  0  0  0  0  0  0  0  0
    3.5240    4.4169   -3.1841 H   0  0  0  0  0  0  0  0  0  0  0  0
    4.9006    6.4560   -3.0614 H   0  0  0  0  0  0  0  0  0  0  0  0
    3.8003    8.6568    0.1798 H   0  0  0  0  0  0  0  0  0  0  0  0
    4.8762   10.0567   -0.1350 H   0  0  0  0  0  0  0  0  0  0  0  0
    3.3345    8.4658   -2.2784 H   0  0  0  0  0  0  0  0  0  0  0  0
    2.9584   10.1189   -1.6755 H   0  0  0  0  0  0  0  0  0  0  0  0
    4.4798    9.8300   -2.6017 H   0  0  0  0  0  0  0  0  0  0  0  0
    3.4837    4.1968    1.1223 H   0  0  0  0  0  0  0  0  0  0  0  0
   -0.0937   -0.9761    0.9153 H   0  0  0  0  0  0  0  0  0  0  0  0
   -1.5005   -2.9751    0.6884 H   0  0  0  0  0  0  0  0  0  0  0  0
   -1.7585   -6.2348   -2.5682 H   0  0  0  0  0  0  0  0  0  0  0  0
   -0.5541   -4.9050   -2.4867 H   0  0  0  0  0  0  0  0  0  0  0  0
   -0.4541   -5.1931    0.0267 H   0  0  0  0  0  0  0  0  0  0  0  0
   -1.6546   -6.5444   -0.1068 H   0  0  0  0  0  0  0  0  0  0  0  0
   -0.0227   -6.7044   -0.8563 H   0  0  0  0  0  0  0  0  0  0  0  0
   -0.2620   -0.3961   -3.3596 H   0  0  0  0  0  0  0  0  0  0  0  0
    2.2218   -1.4803    0.0851 H   0  0  0  0  0  0  0  0  0  0  0  0
    3.4470   -2.8747    1.4682 H   0  0  0  0  0  0  0  0  0  0  0  0
    3.5473   -4.4311    4.1761 H   0  0  0  0  0  0  0  0  0  0  0  0
    1.3540   -5.5589    4.3023 H   0  0  0  0  0  0  0  0  0  0  0  0
   -0.2256   -9.3699    4.0916 H   0  0  0  0  0  0  0  0  0  0  0  0
    1.3563   -8.5654    4.3708 H   0  0  0  0  0  0  0  0  0  0  0  0
    2.2790   -9.5829    2.3106 H   0  0  0  0  0  0  0  0  0  0  0  0
    1.5197  -10.8740    3.3051 H   0  0  0  0  0  0  0  0  0  0  0  0
    0.6485  -10.2351    1.8583 H   0  0  0  0  0  0  0  0  0  0  0  0
    4.3863   -6.4902    0.4839 H   0  0  0  0  0  0  0  0  0  0  0  0
    9.0155   -2.5027   -0.4291 H   0  0  0  0  0  0  0  0  0  0  0  0
   11.2565   -1.5507   -0.7988 H   0  0  0  0  0  0  0  0  0  0  0  0
   14.0727    1.0645    1.8060 H   0  0  0  0  0  0  0  0  0  0  0  0
   12.4336    0.5726    2.3450 H   0  0  0  0  0  0  0  0  0  0  0  0
   11.5627    0.9358    0.0193 H   0  0  0  0  0  0  0  0  0  0  0  0
   13.2339    1.3548   -0.5396 H   0  0  0  0  0  0  0  0  0  0  0  0
   12.3797    2.4168    0.6469 H   0  0  0  0  0  0  0  0  0  0  0  0
    9.9581   -3.0841    3.7398 H   0  0  0  0  0  0  0  0  0  0  0  0
    9.9860   -5.4715    2.5208 H   0  0  0  0  0  0  0  0  0  0  0  0
    9.1404   -7.8186    3.2440 H   0  0  0  0  0  0  0  0  0  0  0  0
  1  2  1  0
  2  3  1  0
  3  4  2  0
  4  5  1  0
  5  6  1  0
  6  7  2  0
  7  8  1  0
  7  9  1  0
  9 10  1  0
 10 11  1  0
  9 12  2  0
  3 13  1  0
 13 14  2  3
 14 15  1  0
 15 16  2  0
 16 17  1  0
 17 18  2  0
 18 19  1  0
 19 20  2  0
 20 21  1  0
 21 22  2  0
 22 23  1  0
 23 24  1  0
 24 25  1  0
 22 26  1  0
 26 27  1  0
 26 28  2  0
 18 29  1  0
 29 30  2  0
 30 31  1  0
 31 32  1  0
 32 33  2  0
 33 34  1  0
 34 35  2  0
 35 36  1  0
 36 37  1  0
 37 38  1  0
 35 39  1  0
 39 40  2  0
 39 41  1  0
 31 42  2  0
 42 43  1  0
 30 44  1  0
 44 45  2  0
 45 46  1  0
 45 47  1  0
 47 48  1  0
 48 49  1  0
 49 50  2  0
 50 51  1  0
 51 52  1  0
 52 53  2  0
 53 54  1  0
 53 55  1  0
 55 56  1  0
 56 57  1  0
 55 58  2  0
 49 59  1  0
 59 60  2  3
 60 61  1  0
 61 62  2  0
 62 63  1  0
 63 64  2  0
 64 65  1  0
 65 66  2  0
 66 67  1  0
 67 68  2  0
 68 69  1  0
 69 70  1  0
 70 71  1  0
 68 72  1  0
 72 73  1  0
 72 74  2  0
 64 75  1  0
 75 76  2  0
 76 77  1  0
 77 78  1  0
 78 79  2  0
 79 80  1  0
 80 81  2  0
 81 82  1  0
 82 83  1  0
 83 84  1  0
 81 85  1  0
 85 86  2  0
 85 87  1  0
 77 88  2  0
 88 89  1  0
 76 90  1  0
 90 91  2  0
 91 92  1  0
 91 93  1  0
 93 94  2  0
 94 95  1  0
 95 96  2  0
 96 97  1  0
 97 98  2  0
 98 99  1  0
 99100  2  0
100101  1  0
101102  1  0
102103  1  0
100104  1  0
104105  1  0
104106  2  0
 96107  1  0
107108  2  0
108109  1  0
109110  1  0
110111  2  0
111112  1  0
112113  2  0
113114  1  0
114115  1  0
115116  1  0
113117  1  0
117118  2  0
117119  1  0
109120  2  0
120121  1  0
108122  1  0
122123  2  0
123124  1  0
123125  1  0
125126  2  0
126127  1  0
127128  2  0
128129  1  0
129130  2  0
130131  1  0
131132  2  0
132133  1  0
133134  1  0
134135  1  0
132136  1  0
136137  1  0
136138  2  0
128139  1  0
139140  2  0
140141  1  0
141142  1  0
142143  2  0
143144  1  0
144145  2  0
145146  1  0
146147  1  0
147148  1  0
145149  1  0
149150  2  0
149151  1  0
141152  2  0
152153  1  0
140154  1  0
154155  2  0
155156  1  0
  5  1  2  0
 43 15  1  0
 51 47  2  0
 89 61  1  0
121 93  1  0
153125  1  0
 12  4  1  0
 42 17  1  0
 58 50  1  0
 88 63  1  0
120 95  1  0
152127  1  0
 28 19  1  0
 46 29  1  0
 74 65  1  0
 92 75  1  0
106 97  1  0
124107  1  0
138129  1  0
156139  1  0
 40 32  1  0
 86 78  1  0
118110  1  0
150142  1  0
  1157  1  0
  6158  1  0
  8159  1  0
  8160  1  0
  8161  1  0
 11162  1  0
 11163  1  0
 11164  1  0
 12165  1  0
 13166  1  0
 14167  1  0
 16168  1  0
 20169  1  0
 21170  1  0
 24171  1  0
 24172  1  0
 25173  1  0
 25174  1  0
 25175  1  0
 28176  1  0
 33177  1  0
 34178  1  0
 37179  1  0
 37180  1  0
 38181  1  0
 38182  1  0
 38183  1  0
 40184  1  0
 44185  1  0
 52186  1  0
 54187  1  0
 54188  1  0
 54189  1  0
 57190  1  0
 57191  1  0
 57192  1  0
 58193  1  0
 59194  1  0
 60195  1  0
 62196  1  0
 66197  1  0
 67198  1  0
 70199  1  0
 70200  1  0
 71201  1  0
 71202  1  0
 71203  1  0
 74204  1  0
 79205  1  0
 80206  1  0
 83207  1  0
 83208  1  0
 84209  1  0
 84210  1  0
 84211  1  0
 86212  1  0
 90213  1  0
 94214  1  0
 98215  1  0
 99216  1  0
102217  1  0
102218  1  0
103219  1  0
103220  1  0
103221  1  0
106222  1  0
111223  1  0
112224  1  0
115225  1  0
115226  1  0
116227  1  0
116228  1  0
116229  1  0
118230  1  0
122231  1  0
126232  1  0
130233  1  0
131234  1  0
134235  1  0
134236  1  0
135237  1  0
135238  1  0
135239  1  0
138240  1  0
143241  1  0
144242  1  0
147243  1  0
147244  1  0
148245  1  0
148246  1  0
148247  1  0
150248  1  0
154249  1  0
155250  1  0
M  END

