
     RDKit          3D

218241  0  0  0  0  0  0  0  0999 V2000
    2.4277   -4.1326    9.7668 C   0  0  0  0  0  0  0  0  0  0  0  0
    2.7897   -3.9069    8.4429 C   0  0  0  0  0  0  0  0  0  0  0  0
    1.7260   -4.0773    7.5400 C   0  0  0  0  0  0  0  0  0  0  0  0
    1.7817   -3.9279    6.1382 C   0  0  0  0  0  0  0  0  0  0  0  0
    3.0003   -3.4487    5.4658 C   0  0  0  0  0  0  0  0  0  0  0  0
    3.6535   -1.9153    5.6815 S   0  0  0  0  0  0  0  0  0  0  0  0
    5.0008   -2.1489    4.7007 C   0  0  0  0  0  0  0  0  0  0  0  0
    6.0511   -1.1064    4.4419 C   0  0  0  0  0  0  0  0  0  0  0  0
    5.4667    0.0739    3.6767 C   0  0  0  0  0  0  0  0  0  0  0  0
    4.9583   -3.4488    4.1932 C   0  0  0  0  0  0  0  0  0  0  0  0
    6.2049   -4.1330    3.1598 Cl  0  0  0  0  0  0  0  0  0  0  0  0
    3.8334   -4.1738    4.6192 C   0  0  0  0  0  0  0  0  0  0  0  0
    3.5362   -5.8498    4.1787 Cl  0  0  0  0  0  0  0  0  0  0  0  0
    0.5937   -4.1720    5.4247 C   0  0  0  0  0  0  0  0  0  0  0  0
   -0.6058   -4.5074    6.0625 C   0  0  0  0  0  0  0  0  0  0  0  0
   -0.6589   -4.6643    7.4607 C   0  0  0  0  0  0  0  0  0  0  0  0
   -1.9108   -5.0237    8.1519 C   0  0  0  0  0  0  0  0  0  0  0  0
   -2.7839   -3.9839    9.1445 S   0  0  0  0  0  0  0  0  0  0  0  0
   -4.0912   -5.0169    9.3744 C   0  0  0  0  0  0  0  0  0  0  0  0
   -5.3467   -4.6454   10.1060 C   0  0  0  0  0  0  0  0  0  0  0  0
   -6.3606   -4.0342    9.1468 C   0  0  0  0  0  0  0  0  0  0  0  0
   -3.8704   -6.1878    8.6492 C   0  0  0  0  0  0  0  0  0  0  0  0
   -2.6444   -6.1929    7.9692 C   0  0  0  0  0  0  0  0  0  0  0  0
   -2.0971   -7.5350    6.9704 Cl  0  0  0  0  0  0  0  0  0  0  0  0
   -5.0286   -7.5055    8.5586 Cl  0  0  0  0  0  0  0  0  0  0  0  0
    0.5298   -4.4373    8.1700 C   0  0  0  0  0  0  0  0  0  0  0  0
    0.7937   -4.5468    9.8261 S   0  0  0  0  0  0  0  0  0  0  0  0
   -1.6955   -4.5972    5.1834 C   0  0  0  0  0  0  0  0  0  0  0  0
   -1.3370   -4.3806    3.8601 C   0  0  0  0  0  0  0  0  0  0  0  0
    0.3123   -4.0183    3.7708 S   0  0  0  0  0  0  0  0  0  0  0  0
   -2.2881   -4.2871    2.7509 C   0  0  0  0  0  0  0  0  0  0  0  0
   -3.4306   -3.4950    2.7631 C   0  0  0  0  0  0  0  0  0  0  0  0
   -4.1139   -3.5096    1.5383 C   0  0  0  0  0  0  0  0  0  0  0  0
   -5.2157   -2.6977    1.1989 C   0  0  0  0  0  0  0  0  0  0  0  0
   -5.8116   -1.7588    2.1718 C   0  0  0  0  0  0  0  0  0  0  0  0
   -5.7714   -0.0806    2.0456 S   0  0  0  0  0  0  0  0  0  0  0  0
   -6.5309    0.2281    3.5116 C   0  0  0  0  0  0  0  0  0  0  0  0
   -6.7880    1.5974    4.0684 C   0  0  0  0  0  0  0  0  0  0  0  0
   -5.6940    2.0018    5.0489 C   0  0  0  0  0  0  0  0  0  0  0  0
   -6.8072   -0.9855    4.1380 C   0  0  0  0  0  0  0  0  0  0  0  0
   -7.5590   -1.1163    5.7217 Cl  0  0  0  0  0  0  0  0  0  0  0  0
   -6.4039   -2.1001    3.3861 C   0  0  0  0  0  0  0  0  0  0  0  0
   -6.6413   -3.7607    3.9207 Cl  0  0  0  0  0  0  0  0  0  0  0  0
   -5.6352   -2.7320   -0.1440 C   0  0  0  0  0  0  0  0  0  0  0  0
   -5.0534   -3.5776   -1.0901 C   0  0  0  0  0  0  0  0  0  0  0  0
   -3.9974   -4.4414   -0.7317 C   0  0  0  0  0  0  0  0  0  0  0  0
   -3.3751   -5.3375   -1.7220 C   0  0  0  0  0  0  0  0  0  0  0  0
   -1.7888   -5.2260   -2.2727 S   0  0  0  0  0  0  0  0  0  0  0  0
   -1.9126   -6.4520   -3.4203 C   0  0  0  0  0  0  0  0  0  0  0  0
   -0.7725   -6.9653   -4.2444 C   0  0  0  0  0  0  0  0  0  0  0  0
   -0.0164   -8.0530   -3.4894 C   0  0  0  0  0  0  0  0  0  0  0  0
   -3.2017   -6.9758   -3.3800 C   0  0  0  0  0  0  0  0  0  0  0  0
   -4.0260   -6.3406   -2.4380 C   0  0  0  0  0  0  0  0  0  0  0  0
   -5.7052   -6.7913   -2.1668 Cl  0  0  0  0  0  0  0  0  0  0  0  0
   -3.7496   -8.3005   -4.3980 Cl  0  0  0  0  0  0  0  0  0  0  0  0
   -3.5151   -4.3410    0.5848 C   0  0  0  0  0  0  0  0  0  0  0  0
   -2.1295   -5.0333    1.2472 S   0  0  0  0  0  0  0  0  0  0  0  0
   -5.4665   -3.3094   -2.4050 C   0  0  0  0  0  0  0  0  0  0  0  0
   -6.3023   -2.1930   -2.5167 C   0  0  0  0  0  0  0  0  0  0  0  0
   -6.6287   -1.6400   -0.9481 S   0  0  0  0  0  0  0  0  0  0  0  0
   -6.2328   -1.2651   -3.6716 C   0  0  0  0  0  0  0  0  0  0  0  0
   -5.1510   -1.2946   -4.5550 C   0  0  0  0  0  0  0  0  0  0  0  0
   -4.7056   -0.0245   -4.9358 C   0  0  0  0  0  0  0  0  0  0  0  0
   -3.4637    0.2400   -5.5352 C   0  0  0  0  0  0  0  0  0  0  0  0
   -2.6249   -0.8349   -6.0869 C   0  0  0  0  0  0  0  0  0  0  0  0
   -2.8015   -1.4738   -7.6283 S   0  0  0  0  0  0  0  0  0  0  0  0
   -1.5405   -2.5874   -7.5094 C   0  0  0  0  0  0  0  0  0  0  0  0
   -1.1656   -3.5896   -8.5666 C   0  0  0  0  0  0  0  0  0  0  0  0
   -1.1725   -2.9742   -9.9655 C   0  0  0  0  0  0  0  0  0  0  0  0
   -0.9905   -2.4890   -6.2280 C   0  0  0  0  0  0  0  0  0  0  0  0
    0.3428   -3.4836   -5.6598 Cl  0  0  0  0  0  0  0  0  0  0  0  0
   -1.6008   -1.5042   -5.4314 C   0  0  0  0  0  0  0  0  0  0  0  0
   -1.1529   -1.1898   -3.7635 Cl  0  0  0  0  0  0  0  0  0  0  0  0
   -3.0001    1.5589   -5.4774 C   0  0  0  0  0  0  0  0  0  0  0  0
   -3.7650    2.5991   -4.9452 C   0  0  0  0  0  0  0  0  0  0  0  0
   -5.0757    2.3603   -4.4787 C   0  0  0  0  0  0  0  0  0  0  0  0
   -5.9648    3.4772   -4.1018 C   0  0  0  0  0  0  0  0  0  0  0  0
   -6.3718    4.7146   -5.1652 S   0  0  0  0  0  0  0  0  0  0  0  0
   -7.3289    5.5808   -4.0977 C   0  0  0  0  0  0  0  0  0  0  0  0
   -8.0655    6.8340   -4.4539 C   0  0  0  0  0  0  0  0  0  0  0  0
   -9.4298    6.5044   -5.0497 C   0  0  0  0  0  0  0  0  0  0  0  0
   -7.3611    4.9012   -2.8812 C   0  0  0  0  0  0  0  0  0  0  0  0
   -6.5915    3.7250   -2.8759 C   0  0  0  0  0  0  0  0  0  0  0  0
   -6.3507    2.7650   -1.4179 Cl  0  0  0  0  0  0  0  0  0  0  0  0
   -8.2610    5.4668   -1.4789 Cl  0  0  0  0  0  0  0  0  0  0  0  0
   -5.4963    1.0159   -4.4459 C   0  0  0  0  0  0  0  0  0  0  0  0
   -6.7450    0.3431   -3.5508 S   0  0  0  0  0  0  0  0  0  0  0  0
   -3.0290    3.7856   -4.7817 C   0  0  0  0  0  0  0  0  0  0  0  0
   -1.6812    3.6557   -5.1281 C   0  0  0  0  0  0  0  0  0  0  0  0
   -1.4371    2.1037   -5.7488 S   0  0  0  0  0  0  0  0  0  0  0  0
   -0.6342    4.6413   -4.7726 C   0  0  0  0  0  0  0  0  0  0  0  0
   -0.9698    6.2610   -4.4326 S   0  0  0  0  0  0  0  0  0  0  0  0
    0.5451    6.6968   -3.8547 C   0  0  0  0  0  0  0  0  0  0  0  0
    1.3645    5.5675   -3.9355 C   0  0  0  0  0  0  0  0  0  0  0  0
    0.7066    4.4110   -4.4032 C   0  0  0  0  0  0  0  0  0  0  0  0
    1.3758    3.1773   -4.3577 C   0  0  0  0  0  0  0  0  0  0  0  0
    2.7031    3.1101   -3.8954 C   0  0  0  0  0  0  0  0  0  0  0  0
    3.3884    1.7745   -3.7830 C   0  0  0  0  0  0  0  0  0  0  0  0
    3.3766    4.2816   -3.4905 C   0  0  0  0  0  0  0  0  0  0  0  0
    4.6984    4.1715   -3.0249 O   0  0  0  0  0  0  0  0  0  0  0  0
    5.4983    5.2645   -2.5863 C   0  0  0  0  0  0  0  0  0  0  0  0
    2.7068    5.5198   -3.5405 C   0  0  0  0  0  0  0  0  0  0  0  0
    0.7868    7.9091   -3.0419 C   0  0  0  0  0  0  0  0  0  0  0  0
    0.9445    7.8802   -1.7048 C   0  0  0  0  0  0  0  0  0  0  0  0
    0.8769    6.6357   -0.9134 C   0  0  0  0  0  0  0  0  0  0  0  0
    2.2358    5.7910   -0.4068 S   0  0  0  0  0  0  0  0  0  0  0  0
    1.4999    4.2835   -0.2096 C   0  0  0  0  0  0  0  0  0  0  0  0
    0.1424    4.4406   -0.5144 C   0  0  0  0  0  0  0  0  0  0  0  0
   -0.2034    5.7551   -0.8663 C   0  0  0  0  0  0  0  0  0  0  0  0
   -1.5297    6.0968   -1.1311 C   0  0  0  0  0  0  0  0  0  0  0  0
   -2.5239    5.1079   -1.0817 C   0  0  0  0  0  0  0  0  0  0  0  0
   -3.9607    5.4956   -1.2764 C   0  0  0  0  0  0  0  0  0  0  0  0
   -2.1683    3.7552   -0.8634 C   0  0  0  0  0  0  0  0  0  0  0  0
   -3.1668    2.7714   -0.9604 O   0  0  0  0  0  0  0  0  0  0  0  0
   -2.9276    1.3669   -0.9180 C   0  0  0  0  0  0  0  0  0  0  0  0
   -0.8262    3.4277   -0.5566 C   0  0  0  0  0  0  0  0  0  0  0  0
    2.2095    3.0063    0.0155 C   0  0  0  0  0  0  0  0  0  0  0  0
    3.5388    2.9525    0.1622 C   0  0  0  0  0  0  0  0  0  0  0  0
    4.2771    1.6800    0.1877 C   0  0  0  0  0  0  0  0  0  0  0  0
    5.6636    1.5866    0.2800 C   0  0  0  0  0  0  0  0  0  0  0  0
    6.1322    0.2668    0.1885 C   0  0  0  0  0  0  0  0  0  0  0  0
    7.4787   -0.1526    0.2359 C   0  0  0  0  0  0  0  0  0  0  0  0
    8.5915    0.8083    0.3592 C   0  0  0  0  0  0  0  0  0  0  0  0
    8.8960    2.0634   -0.7190 S   0  0  0  0  0  0  0  0  0  0  0  0
   10.2445    2.6807    0.0837 C   0  0  0  0  0  0  0  0  0  0  0  0
   10.9643    3.9514   -0.2792 C   0  0  0  0  0  0  0  0  0  0  0  0
   11.0929    4.1361   -1.7887 C   0  0  0  0  0  0  0  0  0  0  0  0
   10.4511    1.9216    1.2363 C   0  0  0  0  0  0  0  0  0  0  0  0
   11.7134    2.2626    2.4113 Cl  0  0  0  0  0  0  0  0  0  0  0  0
    9.5307    0.8722    1.3874 C   0  0  0  0  0  0  0  0  0  0  0  0
    9.5136   -0.1924    2.7877 Cl  0  0  0  0  0  0  0  0  0  0  0  0
    7.7141   -1.5361    0.1217 C   0  0  0  0  0  0  0  0  0  0  0  0
    6.6828   -2.4662   -0.0333 C   0  0  0  0  0  0  0  0  0  0  0  0
    5.3419   -2.0435   -0.0713 C   0  0  0  0  0  0  0  0  0  0  0  0
    4.2397   -2.9843   -0.2903 C   0  0  0  0  0  0  0  0  0  0  0  0
    3.3719   -3.7627    0.9200 S   0  0  0  0  0  0  0  0  0  0  0  0
    2.3849   -4.6463   -0.1187 C   0  0  0  0  0  0  0  0  0  0  0  0
    1.3819   -5.6660    0.3219 C   0  0  0  0  0  0  0  0  0  0  0  0
    2.0075   -7.0522    0.3843 C   0  0  0  0  0  0  0  0  0  0  0  0
    2.7416   -4.3489   -1.4339 C   0  0  0  0  0  0  0  0  0  0  0  0
    3.7747   -3.4079   -1.5289 C   0  0  0  0  0  0  0  0  0  0  0  0
    4.4269   -2.8306   -3.0572 Cl  0  0  0  0  0  0  0  0  0  0  0  0
    2.0038   -5.0980   -2.8356 Cl  0  0  0  0  0  0  0  0  0  0  0  0
    5.1013   -0.6675    0.0367 C   0  0  0  0  0  0  0  0  0  0  0  0
    3.6227    0.1312   -0.0017 S   0  0  0  0  0  0  0  0  0  0  0  0
    7.1397   -3.7839   -0.1779 C   0  0  0  0  0  0  0  0  0  0  0  0
    8.5275   -3.8885   -0.1459 C   0  0  0  0  0  0  0  0  0  0  0  0
    9.1856   -2.3473    0.0593 S   0  0  0  0  0  0  0  0  0  0  0  0
    3.0907   -4.0565   10.6170 H   0  0  0  0  0  0  0  0  0  0  0  0
    3.7949   -3.6334    8.1491 H   0  0  0  0  0  0  0  0  0  0  0  0
    6.8926   -1.5360    3.8576 H   0  0  0  0  0  0  0  0  0  0  0  0
    6.4586   -0.7495    5.4116 H   0  0  0  0  0  0  0  0  0  0  0  0
    4.7367    0.6244    4.3087 H   0  0  0  0  0  0  0  0  0  0  0  0
    4.9491   -0.2834    2.7643 H   0  0  0  0  0  0  0  0  0  0  0  0
    6.2777    0.7720    3.3794 H   0  0  0  0  0  0  0  0  0  0  0  0
   -5.7838   -5.5450   10.5906 H   0  0  0  0  0  0  0  0  0  0  0  0
   -5.1029   -3.9100   10.9025 H   0  0  0  0  0  0  0  0  0  0  0  0
   -5.9381   -3.1311    8.6562 H   0  0  0  0  0  0  0  0  0  0  0  0
   -7.2733   -3.7393    9.7057 H   0  0  0  0  0  0  0  0  0  0  0  0
   -6.6471   -4.7703    8.3654 H   0  0  0  0  0  0  0  0  0  0  0  0
   -2.7136   -4.7959    5.4931 H   0  0  0  0  0  0  0  0  0  0  0  0
   -3.7071   -2.8803    3.6078 H   0  0  0  0  0  0  0  0  0  0  0  0
   -6.8237    2.3340    3.2380 H   0  0  0  0  0  0  0  0  0  0  0  0
   -7.7749    1.6160    4.5798 H   0  0  0  0  0  0  0  0  0  0  0  0
   -5.6887    1.3171    5.9229 H   0  0  0  0  0  0  0  0  0  0  0  0
   -5.8853    3.0352    5.4123 H   0  0  0  0  0  0  0  0  0  0  0  0
   -4.6994    1.9742    4.5558 H   0  0  0  0  0  0  0  0  0  0  0  0
   -1.1429   -7.3664   -5.2115 H   0  0  0  0  0  0  0  0  0  0  0  0
   -0.0822   -6.1315   -4.4760 H   0  0  0  0  0  0  0  0  0  0  0  0
    0.3161   -7.6777   -2.4973 H   0  0  0  0  0  0  0  0  0  0  0  0
   -0.6716   -8.9383   -3.3391 H   0  0  0  0  0  0  0  0  0  0  0  0
    0.8755   -8.3621   -4.0720 H   0  0  0  0  0  0  0  0  0  0  0  0
   -5.0225   -3.8004   -3.2591 H   0  0  0  0  0  0  0  0  0  0  0  0
   -4.5622   -2.1816   -4.7401 H   0  0  0  0  0  0  0  0  0  0  0  0
   -1.8806   -4.4366   -8.5310 H   0  0  0  0  0  0  0  0  0  0  0  0
   -0.1475   -3.9853   -8.3678 H   0  0  0  0  0  0  0  0  0  0  0  0
   -0.7675   -3.7038  -10.6929 H   0  0  0  0  0  0  0  0  0  0  0  0
   -2.2079   -2.7156  -10.2653 H   0  0  0  0  0  0  0  0  0  0  0  0
   -0.5413   -2.0620   -9.9830 H   0  0  0  0  0  0  0  0  0  0  0  0
   -8.1942    7.4757   -3.5558 H   0  0  0  0  0  0  0  0  0  0  0  0
   -7.4721    7.4080   -5.1991 H   0  0  0  0  0  0  0  0  0  0  0  0
   -9.3193    5.8556   -5.9437 H   0  0  0  0  0  0  0  0  0  0  0  0
  -10.0640    5.9902   -4.2978 H   0  0  0  0  0  0  0  0  0  0  0  0
   -9.9333    7.4425   -5.3625 H   0  0  0  0  0  0  0  0  0  0  0  0
   -3.4308    4.6769   -4.3212 H   0  0  0  0  0  0  0  0  0  0  0  0
    0.8858    2.2612   -4.6302 H   0  0  0  0  0  0  0  0  0  0  0  0
    3.5357    1.5252   -2.7137 H   0  0  0  0  0  0  0  0  0  0  0  0
    2.7878    0.9615   -4.2482 H   0  0  0  0  0  0  0  0  0  0  0  0
    4.3735    1.8097   -4.2901 H   0  0  0  0  0  0  0  0  0  0  0  0
    6.4887    4.8809   -2.2628 H   0  0  0  0  0  0  0  0  0  0  0  0
    5.6479    5.9822   -3.4174 H   0  0  0  0  0  0  0  0  0  0  0  0
    5.0160    5.7715   -1.7256 H   0  0  0  0  0  0  0  0  0  0  0  0
    3.2018    6.4301   -3.2267 H   0  0  0  0  0  0  0  0  0  0  0  0
    0.7995    8.8661   -3.5477 H   0  0  0  0  0  0  0  0  0  0  0  0
    1.1566    8.8047   -1.1828 H   0  0  0  0  0  0  0  0  0  0  0  0
   -1.7877    7.1243   -1.3491 H   0  0  0  0  0  0  0  0  0  0  0  0
   -4.3065    5.1624   -2.2714 H   0  0  0  0  0  0  0  0  0  0  0  0
   -4.0994    6.5950   -1.2060 H   0  0  0  0  0  0  0  0  0  0  0  0
   -4.5912    5.0242   -0.4950 H   0  0  0  0  0  0  0  0  0  0  0  0
   -3.8809    0.8322   -1.1043 H   0  0  0  0  0  0  0  0  0  0  0  0
   -2.2037    1.0760   -1.7092 H   0  0  0  0  0  0  0  0  0  0  0  0
   -2.5471    1.0737    0.0836 H   0  0  0  0  0  0  0  0  0  0  0  0
   -0.5495    2.4059   -0.3549 H   0  0  0  0  0  0  0  0  0  0  0  0
    1.6407    2.0876   -0.0099 H   0  0  0  0  0  0  0  0  0  0  0  0
    4.1209    3.8622    0.1988 H   0  0  0  0  0  0  0  0  0  0  0  0
    6.2995    2.4519    0.3997 H   0  0  0  0  0  0  0  0  0  0  0  0
   11.9854    3.9440    0.1570 H   0  0  0  0  0  0  0  0  0  0  0  0
   10.4104    4.8137    0.1534 H   0  0  0  0  0  0  0  0  0  0  0  0
   11.7071    5.0370   -2.0024 H   0  0  0  0  0  0  0  0  0  0  0  0
   10.0913    4.2769   -2.2473 H   0  0  0  0  0  0  0  0  0  0  0  0
   11.5891    3.2520   -2.2453 H   0  0  0  0  0  0  0  0  0  0  0  0
    0.5253   -5.6790   -0.3812 H   0  0  0  0  0  0  0  0  0  0  0  0
    0.9967   -5.3952    1.3252 H   0  0  0  0  0  0  0  0  0  0  0  0
    2.8584   -7.0582    1.0998 H   0  0  0  0  0  0  0  0  0  0  0  0
    1.2501   -7.7870    0.7281 H   0  0  0  0  0  0  0  0  0  0  0  0
    2.3713   -7.3581   -0.6202 H   0  0  0  0  0  0  0  0  0  0  0  0
    6.4908   -4.6393   -0.3099 H   0  0  0  0  0  0  0  0  0  0  0  0
    9.0882   -4.8065   -0.2433 H   0  0  0  0  0  0  0  0  0  0  0  0
  1  2  2  0
  2  3  1  0
  3  4  2  0
  4  5  1  0
  5  6  1  0
  6  7  1  0
  7  8  1  0
  8  9  1  0
  7 10  2  0
 10 11  1  0
 10 12  1  0
 12 13  1  0
  4 14  1  0
 14 15  2  0
 15 16  1  0
 16 17  1  0
 17 18  1  0
 18 19  1  0
 19 20  1  0
 20 21  1  0
 19 22  2  0
 22 23  1  0
 23 24  1  0
 22 25  1  0
 16 26  2  0
 26 27  1  0
 15 28  1  0
 28 29  2  0
 29 30  1  0
 29 31  1  0
 31 32  2  0
 32 33  1  0
 33 34  2  0
 34 35  1  0
 35 36  1  0
 36 37  1  0
 37 38  1  0
 38 39  1  0
 37 40  2  0
 40 41  1  0
 40 42  1  0
 42 43  1  0
 34 44  1  0
 44 45  2  0
 45 46  1  0
 46 47  1  0
 47 48  1  0
 48 49  1  0
 49 50  1  0
 50 51  1  0
 49 52  2  0
 52 53  1  0
 53 54  1  0
 52 55  1  0
 46 56  2  0
 56 57  1  0
 45 58  1  0
 58 59  2  0
 59 60  1  0
 59 61  1  0
 61 62  2  0
 62 63  1  0
 63 64  2  0
 64 65  1  0
 65 66  1  0
 66 67  1  0
 67 68  1  0
 68 69  1  0
 67 70  2  0
 70 71  1  0
 70 72  1  0
 72 73  1  0
 64 74  1  0
 74 75  2  0
 75 76  1  0
 76 77  1  0
 77 78  1  0
 78 79  1  0
 79 80  1  0
 80 81  1  0
 79 82  2  0
 82 83  1  0
 83 84  1  0
 82 85  1  0
 76 86  2  0
 86 87  1  0
 75 88  1  0
 88 89  2  0
 89 90  1  0
 89 91  1  0
 91 92  1  0
 92 93  1  0
 93 94  2  0
 94 95  1  0
 95 96  1  0
 96 97  2  0
 97 98  1  0
 97 99  1  0
 99100  1  0
100101  1  0
 99102  2  0
 93103  1  0
103104  2  3
104105  1  0
105106  1  0
106107  1  0
107108  2  0
108109  1  0
109110  1  0
110111  2  0
111112  1  0
111113  1  0
113114  1  0
114115  1  0
113116  2  0
107117  1  0
117118  2  3
118119  1  0
119120  2  0
120121  1  0
121122  2  0
122123  1  0
123124  1  0
124125  1  0
125126  1  0
126127  1  0
125128  2  0
128129  1  0
128130  1  0
130131  1  0
122132  1  0
132133  2  0
133134  1  0
134135  1  0
135136  1  0
136137  1  0
137138  1  0
138139  1  0
137140  2  0
140141  1  0
141142  1  0
140143  1  0
134144  2  0
144145  1  0
133146  1  0
146147  2  0
147148  1  0
 27  1  1  0
 57 31  1  0
 87 61  1  0
 95 91  2  0
109105  2  0
145119  1  0
 26  3  1  0
 56 33  1  0
 86 63  1  0
102 94  1  0
116108  1  0
144121  1  0
 12  5  2  0
 30 14  1  0
 42 35  2  0
 60 44  1  0
 72 65  2  0
 90 74  1  0
130123  2  0
148132  1  0
 23 17  2  0
 53 47  2  0
 83 77  2  0
141135  2  0
  1149  1  0
  2150  1  0
  8151  1  0
  8152  1  0
  9153  1  0
  9154  1  0
  9155  1  0
 20156  1  0
 20157  1  0
 21158  1  0
 21159  1  0
 21160  1  0
 28161  1  0
 32162  1  0
 38163  1  0
 38164  1  0
 39165  1  0
 39166  1  0
 39167  1  0
 50168  1  0
 50169  1  0
 51170  1  0
 51171  1  0
 51172  1  0
 58173  1  0
 62174  1  0
 68175  1  0
 68176  1  0
 69177  1  0
 69178  1  0
 69179  1  0
 80180  1  0
 80181  1  0
 81182  1  0
 81183  1  0
 81184  1  0
 88185  1  0
 96186  1  0
 98187  1  0
 98188  1  0
 98189  1  0
101190  1  0
101191  1  0
101192  1  0
102193  1  0
103194  1  0
104195  1  0
110196  1  0
112197  1  0
112198  1  0
112199  1  0
115200  1  0
115201  1  0
115202  1  0
116203  1  0
117204  1  0
118205  1  0
120206  1  0
126207  1  0
126208  1  0
127209  1  0
127210  1  0
127211  1  0
138212  1  0
138213  1  0
139214  1  0
139215  1  0
139216  1  0
146217  1  0
147218  1  0
M  END

