
     RDKit          3D

156162  0  0  0  0  0  0  0  0999 V2000
    5.7438    2.1531   -0.6441 C   0  0  0  0  0  0  0  0  0  0  0  0
    7.0911    2.1957   -1.0123 C   0  0  0  0  0  0  0  0  0  0  0  0
    8.1141    1.4735   -0.1871 C   0  0  0  0  0  0  0  0  0  0  0  0
    7.4831    2.9799   -2.0993 C   0  0  0  0  0  0  0  0  0  0  0  0
    6.5332    3.6663   -2.8735 C   0  0  0  0  0  0  0  0  0  0  0  0
    7.0382    4.4896   -4.0408 C   0  0  0  0  0  0  0  0  0  0  0  0
    7.3105    3.6100   -5.2572 C   0  0  0  0  0  0  0  0  0  0  0  0
    5.1515    3.5493   -2.5577 C   0  0  0  0  0  0  0  0  0  0  0  0
    4.1072    4.1443   -3.4803 C   0  0  0  0  0  0  0  0  0  0  0  0
    4.7739    2.8536   -1.3740 C   0  0  0  0  0  0  0  0  0  0  0  0
    3.3880    2.8087   -0.8495 C   0  0  0  0  0  0  0  0  0  0  0  0
    2.6243    3.8997   -0.7288 C   0  0  0  0  0  0  0  0  0  0  0  0
    1.2699    3.8422   -0.1444 C   0  0  0  0  0  0  0  0  0  0  0  0
    0.6585    2.5741    0.7832 S   0  0  0  0  0  0  0  0  0  0  0  0
   -0.8661    3.2332    1.0649 C   0  0  0  0  0  0  0  0  0  0  0  0
   -0.9254    4.4664    0.4232 C   0  0  0  0  0  0  0  0  0  0  0  0
    0.2639    4.8126   -0.2450 C   0  0  0  0  0  0  0  0  0  0  0  0
    0.3577    6.0291   -0.9327 C   0  0  0  0  0  0  0  0  0  0  0  0
   -0.7381    6.9123   -0.9350 C   0  0  0  0  0  0  0  0  0  0  0  0
   -0.6328    8.2317   -1.6526 C   0  0  0  0  0  0  0  0  0  0  0  0
   -1.9212    6.5839   -0.2296 C   0  0  0  0  0  0  0  0  0  0  0  0
   -2.9682    7.5223   -0.1980 O   0  0  0  0  0  0  0  0  0  0  0  0
   -4.1903    7.3402    0.5147 C   0  0  0  0  0  0  0  0  0  0  0  0
   -2.0167    5.3414    0.4358 C   0  0  0  0  0  0  0  0  0  0  0  0
   -1.9395    2.5705    1.8252 C   0  0  0  0  0  0  0  0  0  0  0  0
   -1.6514    1.7600    2.8407 C   0  0  0  0  0  0  0  0  0  0  0  0
   -2.6640    0.8722    3.4616 C   0  0  0  0  0  0  0  0  0  0  0  0
   -3.7648    1.4084    4.1634 C   0  0  0  0  0  0  0  0  0  0  0  0
   -3.9648    2.8915    4.3223 C   0  0  0  0  0  0  0  0  0  0  0  0
   -4.7256    0.5433    4.6932 C   0  0  0  0  0  0  0  0  0  0  0  0
   -4.5648   -0.8492    4.6351 C   0  0  0  0  0  0  0  0  0  0  0  0
   -5.6186   -1.7133    5.2964 C   0  0  0  0  0  0  0  0  0  0  0  0
   -5.3778   -1.8111    6.8046 C   0  0  0  0  0  0  0  0  0  0  0  0
   -3.4073   -1.3965    4.0263 C   0  0  0  0  0  0  0  0  0  0  0  0
   -3.1234   -2.8802    4.1254 C   0  0  0  0  0  0  0  0  0  0  0  0
   -2.5129   -0.5332    3.3439 C   0  0  0  0  0  0  0  0  0  0  0  0
   -1.4136   -1.0427    2.4751 C   0  0  0  0  0  0  0  0  0  0  0  0
   -1.5725   -1.7786    1.3612 C   0  0  0  0  0  0  0  0  0  0  0  0
   -2.8164   -2.4822    0.9580 C   0  0  0  0  0  0  0  0  0  0  0  0
   -4.0183   -1.7791    0.7163 C   0  0  0  0  0  0  0  0  0  0  0  0
   -4.0759   -0.2763    0.6064 C   0  0  0  0  0  0  0  0  0  0  0  0
   -5.1985   -2.4898    0.4894 C   0  0  0  0  0  0  0  0  0  0  0  0
   -5.2092   -3.8862    0.4086 C   0  0  0  0  0  0  0  0  0  0  0  0
   -6.5452   -4.5603    0.1692 C   0  0  0  0  0  0  0  0  0  0  0  0
   -6.7689   -4.8455   -1.3135 C   0  0  0  0  0  0  0  0  0  0  0  0
   -3.9809   -4.5986    0.4793 C   0  0  0  0  0  0  0  0  0  0  0  0
   -3.9190   -6.0924    0.2115 C   0  0  0  0  0  0  0  0  0  0  0  0
   -2.7766   -3.8849    0.7189 C   0  0  0  0  0  0  0  0  0  0  0  0
   -1.4750   -4.5868    0.5576 C   0  0  0  0  0  0  0  0  0  0  0  0
   -0.5563   -4.6643    1.5220 C   0  0  0  0  0  0  0  0  0  0  0  0
    0.7325   -5.3544    1.2887 C   0  0  0  0  0  0  0  0  0  0  0  0
    0.9783   -6.5962    1.9065 C   0  0  0  0  0  0  0  0  0  0  0  0
   -0.0504   -7.2325    2.8089 C   0  0  0  0  0  0  0  0  0  0  0  0
    2.1688   -7.2777    1.6379 C   0  0  0  0  0  0  0  0  0  0  0  0
    3.1489   -6.7386    0.7926 C   0  0  0  0  0  0  0  0  0  0  0  0
    4.3905   -7.5684    0.5353 C   0  0  0  0  0  0  0  0  0  0  0  0
    4.3248   -8.2400   -0.8355 C   0  0  0  0  0  0  0  0  0  0  0  0
    2.9278   -5.4685    0.1908 C   0  0  0  0  0  0  0  0  0  0  0  0
    3.9583   -4.8191   -0.7130 C   0  0  0  0  0  0  0  0  0  0  0  0
    1.7016   -4.7938    0.4234 C   0  0  0  0  0  0  0  0  0  0  0  0
    1.4621   -3.4608   -0.1718 C   0  0  0  0  0  0  0  0  0  0  0  0
    1.1036   -3.3249   -1.4514 C   0  0  0  0  0  0  0  0  0  0  0  0
    0.7695   -1.9936   -2.0180 C   0  0  0  0  0  0  0  0  0  0  0  0
    1.7747   -1.0094   -2.1452 C   0  0  0  0  0  0  0  0  0  0  0  0
    3.2213   -1.3105   -1.8486 C   0  0  0  0  0  0  0  0  0  0  0  0
    1.4279    0.2858   -2.5340 C   0  0  0  0  0  0  0  0  0  0  0  0
    0.1015    0.6404   -2.7937 C   0  0  0  0  0  0  0  0  0  0  0  0
   -0.1802    2.0861   -3.1585 C   0  0  0  0  0  0  0  0  0  0  0  0
    0.0425    2.3229   -4.6491 C   0  0  0  0  0  0  0  0  0  0  0  0
   -0.9061   -0.3587   -2.7769 C   0  0  0  0  0  0  0  0  0  0  0  0
   -2.3408    0.0038   -3.1145 C   0  0  0  0  0  0  0  0  0  0  0  0
   -0.5656   -1.6844   -2.3950 C   0  0  0  0  0  0  0  0  0  0  0  0
   -1.6190   -2.7239   -2.3540 C   0  0  0  0  0  0  0  0  0  0  0  0
   -1.5374   -3.8465   -3.0662 C   0  0  0  0  0  0  0  0  0  0  0  0
    5.4547    1.5897    0.2385 H   0  0  0  0  0  0  0  0  0  0  0  0
    8.3594    2.0779    0.7109 H   0  0  0  0  0  0  0  0  0  0  0  0
    7.7176    0.4869    0.1401 H   0  0  0  0  0  0  0  0  0  0  0  0
    9.0386    1.2930   -0.7710 H   0  0  0  0  0  0  0  0  0  0  0  0
    8.5361    3.0528   -2.3495 H   0  0  0  0  0  0  0  0  0  0  0  0
    6.3247    5.2964   -4.3118 H   0  0  0  0  0  0  0  0  0  0  0  0
    7.9776    5.0067   -3.7513 H   0  0  0  0  0  0  0  0  0  0  0  0
    7.6039    4.2483   -6.1198 H   0  0  0  0  0  0  0  0  0  0  0  0
    8.1427    2.9074   -5.0391 H   0  0  0  0  0  0  0  0  0  0  0  0
    6.4098    3.0280   -5.5344 H   0  0  0  0  0  0  0  0  0  0  0  0
    4.3849    3.9785   -4.5413 H   0  0  0  0  0  0  0  0  0  0  0  0
    3.1192    3.6592   -3.3519 H   0  0  0  0  0  0  0  0  0  0  0  0
    4.0113    5.2359   -3.2933 H   0  0  0  0  0  0  0  0  0  0  0  0
    3.0389    1.8630   -0.4542 H   0  0  0  0  0  0  0  0  0  0  0  0
    3.0055    4.8577   -1.0632 H   0  0  0  0  0  0  0  0  0  0  0  0
    1.2608    6.2905   -1.4624 H   0  0  0  0  0  0  0  0  0  0  0  0
    0.2826    8.2834   -2.2823 H   0  0  0  0  0  0  0  0  0  0  0  0
   -0.6030    9.0596   -0.9133 H   0  0  0  0  0  0  0  0  0  0  0  0
   -1.5134    8.3732   -2.3157 H   0  0  0  0  0  0  0  0  0  0  0  0
   -4.7502    6.4781    0.1002 H   0  0  0  0  0  0  0  0  0  0  0  0
   -4.8119    8.2552    0.4053 H   0  0  0  0  0  0  0  0  0  0  0  0
   -3.9848    7.1709    1.5945 H   0  0  0  0  0  0  0  0  0  0  0  0
   -2.9128    5.0726    0.9709 H   0  0  0  0  0  0  0  0  0  0  0  0
   -2.9680    2.7147    1.5199 H   0  0  0  0  0  0  0  0  0  0  0  0
   -0.6195    1.6243    3.1409 H   0  0  0  0  0  0  0  0  0  0  0  0
   -4.6449    3.1163    5.1697 H   0  0  0  0  0  0  0  0  0  0  0  0
   -4.4107    3.3111    3.3940 H   0  0  0  0  0  0  0  0  0  0  0  0
   -2.9966    3.3967    4.5352 H   0  0  0  0  0  0  0  0  0  0  0  0
   -5.6009    0.9537    5.1855 H   0  0  0  0  0  0  0  0  0  0  0  0
   -5.6490   -2.7304    4.8530 H   0  0  0  0  0  0  0  0  0  0  0  0
   -6.6272   -1.2735    5.1243 H   0  0  0  0  0  0  0  0  0  0  0  0
   -4.3451   -2.1482    7.0230 H   0  0  0  0  0  0  0  0  0  0  0  0
   -5.5474   -0.8289    7.2844 H   0  0  0  0  0  0  0  0  0  0  0  0
   -6.0796   -2.5540    7.2402 H   0  0  0  0  0  0  0  0  0  0  0  0
   -3.7432   -3.4345    3.3953 H   0  0  0  0  0  0  0  0  0  0  0  0
   -2.0515   -3.1013    3.9692 H   0  0  0  0  0  0  0  0  0  0  0  0
   -3.3555   -3.2543    5.1391 H   0  0  0  0  0  0  0  0  0  0  0  0
   -0.4183   -0.6589    2.6546 H   0  0  0  0  0  0  0  0  0  0  0  0
   -0.6897   -1.9764    0.7720 H   0  0  0  0  0  0  0  0  0  0  0  0
   -3.0692    0.1762    0.4704 H   0  0  0  0  0  0  0  0  0  0  0  0
   -4.6823    0.0175   -0.2797 H   0  0  0  0  0  0  0  0  0  0  0  0
   -4.5553    0.1495    1.5125 H   0  0  0  0  0  0  0  0  0  0  0  0
   -6.1204   -1.9401    0.3366 H   0  0  0  0  0  0  0  0  0  0  0  0
   -7.3722   -3.9085    0.5265 H   0  0  0  0  0  0  0  0  0  0  0  0
   -6.6413   -5.4896    0.7646 H   0  0  0  0  0  0  0  0  0  0  0  0
   -7.7183   -5.4065   -1.4467 H   0  0  0  0  0  0  0  0  0  0  0  0
   -5.9406   -5.4531   -1.7317 H   0  0  0  0  0  0  0  0  0  0  0  0
   -6.8377   -3.8880   -1.8719 H   0  0  0  0  0  0  0  0  0  0  0  0
   -3.7119   -6.2643   -0.8647 H   0  0  0  0  0  0  0  0  0  0  0  0
   -3.1220   -6.5728    0.8142 H   0  0  0  0  0  0  0  0  0  0  0  0
   -4.8487   -6.6218    0.4914 H   0  0  0  0  0  0  0  0  0  0  0  0
   -1.2890   -5.0893   -0.3842 H   0  0  0  0  0  0  0  0  0  0  0  0
   -0.7546   -4.2542    2.5030 H   0  0  0  0  0  0  0  0  0  0  0  0
    0.3391   -8.1567    3.2917 H   0  0  0  0  0  0  0  0  0  0  0  0
   -0.3512   -6.5256    3.6134 H   0  0  0  0  0  0  0  0  0  0  0  0
   -0.9479   -7.5074    2.2132 H   0  0  0  0  0  0  0  0  0  0  0  0
    2.3345   -8.2451    2.0899 H   0  0  0  0  0  0  0  0  0  0  0  0
    4.5009   -8.3635    1.3057 H   0  0  0  0  0  0  0  0  0  0  0  0
    5.3068   -6.9487    0.6236 H   0  0  0  0  0  0  0  0  0  0  0  0
    5.2721   -8.7764   -1.0374 H   0  0  0  0  0  0  0  0  0  0  0  0
    3.4880   -8.9693   -0.8600 H   0  0  0  0  0  0  0  0  0  0  0  0
    4.1672   -7.4937   -1.6376 H   0  0  0  0  0  0  0  0  0  0  0  0
    3.5672   -4.7812   -1.7499 H   0  0  0  0  0  0  0  0  0  0  0  0
    4.9322   -5.3412   -0.7467 H   0  0  0  0  0  0  0  0  0  0  0  0
    4.1672   -3.7892   -0.3565 H   0  0  0  0  0  0  0  0  0  0  0  0
    1.5199   -2.5942    0.4765 H   0  0  0  0  0  0  0  0  0  0  0  0
    1.0117   -4.2062   -2.0680 H   0  0  0  0  0  0  0  0  0  0  0  0
    3.3825   -1.3511   -0.7495 H   0  0  0  0  0  0  0  0  0  0  0  0
    3.5125   -2.2784   -2.3087 H   0  0  0  0  0  0  0  0  0  0  0  0
    3.8954   -0.5348   -2.2717 H   0  0  0  0  0  0  0  0  0  0  0  0
    2.2028    1.0355   -2.6298 H   0  0  0  0  0  0  0  0  0  0  0  0
   -1.2015    2.3889   -2.8696 H   0  0  0  0  0  0  0  0  0  0  0  0
    0.4988    2.7560   -2.5945 H   0  0  0  0  0  0  0  0  0  0  0  0
   -0.4337    1.5182   -5.2583 H   0  0  0  0  0  0  0  0  0  0  0  0
    1.1338    2.3431   -4.8753 H   0  0  0  0  0  0  0  0  0  0  0  0
   -0.4024    3.3013   -4.9487 H   0  0  0  0  0  0  0  0  0  0  0  0
   -2.8416    0.4017   -2.2096 H   0  0  0  0  0  0  0  0  0  0  0  0
   -2.9168   -0.8622   -3.4960 H   0  0  0  0  0  0  0  0  0  0  0  0
   -2.3913    0.7612   -3.9224 H   0  0  0  0  0  0  0  0  0  0  0  0
   -2.5370   -2.5198   -1.8247 H   0  0  0  0  0  0  0  0  0  0  0  0
   -2.3479   -4.5678   -3.0466 H   0  0  0  0  0  0  0  0  0  0  0  0
   -0.6808   -4.0530   -3.6919 H   0  0  0  0  0  0  0  0  0  0  0  0
  1  2  2  0
  2  3  1  0
  2  4  1  0
  4  5  2  0
  5  6  1  0
  6  7  1  0
  5  8  1  0
  8  9  1  0
  8 10  2  0
 10 11  1  0
 11 12  2  3
 12 13  1  0
 13 14  1  0
 14 15  1  0
 15 16  2  0
 16 17  1  0
 17 18  1  0
 18 19  2  0
 19 20  1  0
 19 21  1  0
 21 22  1  0
 22 23  1  0
 21 24  2  0
 15 25  1  0
 25 26  2  3
 26 27  1  0
 27 28  2  0
 28 29  1  0
 28 30  1  0
 30 31  2  0
 31 32  1  0
 32 33  1  0
 31 34  1  0
 34 35  1  0
 34 36  2  0
 36 37  1  0
 37 38  2  3
 38 39  1  0
 39 40  2  0
 40 41  1  0
 40 42  1  0
 42 43  2  0
 43 44  1  0
 44 45  1  0
 43 46  1  0
 46 47  1  0
 46 48  2  0
 48 49  1  0
 49 50  2  3
 50 51  1  0
 51 52  2  0
 52 53  1  0
 52 54  1  0
 54 55  2  0
 55 56  1  0
 56 57  1  0
 55 58  1  0
 58 59  1  0
 58 60  2  0
 60 61  1  0
 61 62  2  3
 62 63  1  0
 63 64  2  0
 64 65  1  0
 64 66  1  0
 66 67  2  0
 67 68  1  0
 68 69  1  0
 67 70  1  0
 70 71  1  0
 70 72  2  0
 72 73  1  0
 73 74  2  3
 10  1  1  0
 17 13  2  0
 36 27  1  0
 48 39  1  0
 60 51  1  0
 72 63  1  0
 24 16  1  0
  1 75  1  0
  3 76  1  0
  3 77  1  0
  3 78  1  0
  4 79  1  0
  6 80  1  0
  6 81  1  0
  7 82  1  0
  7 83  1  0
  7 84  1  0
  9 85  1  0
  9 86  1  0
  9 87  1  0
 11 88  1  0
 12 89  1  0
 18 90  1  0
 20 91  1  0
 20 92  1  0
 20 93  1  0
 23 94  1  0
 23 95  1  0
 23 96  1  0
 24 97  1  0
 25 98  1  0
 26 99  1  0
 29100  1  0
 29101  1  0
 29102  1  0
 30103  1  0
 32104  1  0
 32105  1  0
 33106  1  0
 33107  1  0
 33108  1  0
 35109  1  0
 35110  1  0
 35111  1  0
 37112  1  0
 38113  1  0
 41114  1  0
 41115  1  0
 41116  1  0
 42117  1  0
 44118  1  0
 44119  1  0
 45120  1  0
 45121  1  0
 45122  1  0
 47123  1  0
 47124  1  0
 47125  1  0
 49126  1  0
 50127  1  0
 53128  1  0
 53129  1  0
 53130  1  0
 54131  1  0
 56132  1  0
 56133  1  0
 57134  1  0
 57135  1  0
 57136  1  0
 59137  1  0
 59138  1  0
 59139  1  0
 61140  1  0
 62141  1  0
 65142  1  0
 65143  1  0
 65144  1  0
 66145  1  0
 68146  1  0
 68147  1  0
 69148  1  0
 69149  1  0
 69150  1  0
 71151  1  0
 71152  1  0
 71153  1  0
 73154  1  0
 74155  1  0
 74156  1  0
M  END

