
     RDKit          3D

 86 92  0  0  0  0  0  0  0  0999 V2000
   -1.0639   -4.5904   -0.6502 C   0  0  0  0  0  0  0  0  0  0  0  0
   -0.6864   -3.6635    0.6973 S   0  0  0  0  0  0  0  0  0  0  0  0
   -1.4973   -2.2689    0.2155 C   0  0  0  0  0  0  0  0  0  0  0  0
   -2.0842   -2.5258   -1.0228 C   0  0  0  0  0  0  0  0  0  0  0  0
   -1.8398   -3.8191   -1.5025 C   0  0  0  0  0  0  0  0  0  0  0  0
   -2.8774   -1.5717   -1.7532 C   0  0  0  0  0  0  0  0  0  0  0  0
   -3.5166   -0.8076   -2.3394 N   0  0  0  0  0  0  0  0  0  0  0  0
   -1.5661   -0.9962    0.9604 C   0  0  0  0  0  0  0  0  0  0  0  0
   -0.8616   -0.7770    2.0746 C   0  0  0  0  0  0  0  0  0  0  0  0
   -0.9185    0.5005    2.8097 C   0  0  0  0  0  0  0  0  0  0  0  0
   -1.7227    1.9050    2.3420 S   0  0  0  0  0  0  0  0  0  0  0  0
   -1.3005    2.8388    3.6809 C   0  0  0  0  0  0  0  0  0  0  0  0
   -0.5277    2.0334    4.5232 C   0  0  0  0  0  0  0  0  0  0  0  0
   -0.3046    0.7381    4.0318 C   0  0  0  0  0  0  0  0  0  0  0  0
    0.0081    2.4750    5.7866 C   0  0  0  0  0  0  0  0  0  0  0  0
    0.4405    2.8309    6.8007 N   0  0  0  0  0  0  0  0  0  0  0  0
   -1.7267    4.2286    3.9881 C   0  0  0  0  0  0  0  0  0  0  0  0
   -2.2393    5.1233    3.1290 C   0  0  0  0  0  0  0  0  0  0  0  0
   -2.4229    4.8989    1.6930 C   0  0  0  0  0  0  0  0  0  0  0  0
   -3.7981    4.2409    0.9784 S   0  0  0  0  0  0  0  0  0  0  0  0
   -3.2654    4.4155   -0.6071 C   0  0  0  0  0  0  0  0  0  0  0  0
   -2.0301    5.0650   -0.5920 C   0  0  0  0  0  0  0  0  0  0  0  0
   -1.5585    5.3377    0.6990 C   0  0  0  0  0  0  0  0  0  0  0  0
   -1.3081    5.4493   -1.7781 C   0  0  0  0  0  0  0  0  0  0  0  0
   -0.7283    5.7563   -2.7309 N   0  0  0  0  0  0  0  0  0  0  0  0
   -4.0221    3.9654   -1.7867 C   0  0  0  0  0  0  0  0  0  0  0  0
   -3.5680    3.1010   -2.7086 C   0  0  0  0  0  0  0  0  0  0  0  0
   -2.3009    2.3296   -2.6302 C   0  0  0  0  0  0  0  0  0  0  0  0
   -1.4158    1.9896   -1.2362 S   0  0  0  0  0  0  0  0  0  0  0  0
   -0.2472    1.0098   -1.9277 C   0  0  0  0  0  0  0  0  0  0  0  0
   -0.5249    0.9262   -3.2947 C   0  0  0  0  0  0  0  0  0  0  0  0
   -1.6698    1.6530   -3.6820 C   0  0  0  0  0  0  0  0  0  0  0  0
   -2.0621    1.6824   -5.0237 C   0  0  0  0  0  0  0  0  0  0  0  0
   -1.3101    0.9841   -5.9862 C   0  0  0  0  0  0  0  0  0  0  0  0
   -1.7179    1.0429   -7.4321 C   0  0  0  0  0  0  0  0  0  0  0  0
   -0.1468    0.2750   -5.6045 C   0  0  0  0  0  0  0  0  0  0  0  0
    0.5982   -0.3863   -6.5957 O   0  0  0  0  0  0  0  0  0  0  0  0
    1.7713   -1.1557   -6.3499 C   0  0  0  0  0  0  0  0  0  0  0  0
    0.2436    0.2533   -4.2490 C   0  0  0  0  0  0  0  0  0  0  0  0
    0.8970    0.4722   -1.1770 C   0  0  0  0  0  0  0  0  0  0  0  0
    1.3086   -0.7933   -1.2953 C   0  0  0  0  0  0  0  0  0  0  0  0
    2.4344   -1.3238   -0.5087 C   0  0  0  0  0  0  0  0  0  0  0  0
    2.7271   -2.9602   -0.2594 S   0  0  0  0  0  0  0  0  0  0  0  0
    4.1103   -2.7559    0.6804 C   0  0  0  0  0  0  0  0  0  0  0  0
    4.3889   -1.3966    0.7613 C   0  0  0  0  0  0  0  0  0  0  0  0
    3.4450   -0.5917    0.1124 C   0  0  0  0  0  0  0  0  0  0  0  0
    5.5325   -0.8522    1.4469 C   0  0  0  0  0  0  0  0  0  0  0  0
    6.4518   -0.4142    1.9978 N   0  0  0  0  0  0  0  0  0  0  0  0
    4.9440   -3.8428    1.2168 C   0  0  0  0  0  0  0  0  0  0  0  0
    4.4851   -4.8385    1.9845 C   0  0  0  0  0  0  0  0  0  0  0  0
    3.1358   -4.8986    2.5827 C   0  0  0  0  0  0  0  0  0  0  0  0
    2.1859   -3.5948    3.0741 S   0  0  0  0  0  0  0  0  0  0  0  0
    0.9445   -4.4981    3.7635 C   0  0  0  0  0  0  0  0  0  0  0  0
    1.2951   -5.8517    3.6643 C   0  0  0  0  0  0  0  0  0  0  0  0
    2.5192   -6.0673    3.0139 C   0  0  0  0  0  0  0  0  0  0  0  0
    0.5602   -6.9380    4.2622 C   0  0  0  0  0  0  0  0  0  0  0  0
   -0.0285   -7.8107    4.7477 N   0  0  0  0  0  0  0  0  0  0  0  0
   -0.2429   -3.8839    4.3913 C   0  0  0  0  0  0  0  0  0  0  0  0
   -1.4255   -4.4893    4.4728 C   0  0  0  0  0  0  0  0  0  0  0  0
   -0.7581   -5.6116   -0.8233 H   0  0  0  0  0  0  0  0  0  0  0  0
   -2.2183   -4.1887   -2.4458 H   0  0  0  0  0  0  0  0  0  0  0  0
   -2.2066   -0.2162    0.5714 H   0  0  0  0  0  0  0  0  0  0  0  0
   -0.2252   -1.5562    2.4700 H   0  0  0  0  0  0  0  0  0  0  0  0
    0.2778   -0.0091    4.5605 H   0  0  0  0  0  0  0  0  0  0  0  0
   -1.5782    4.5686    5.0058 H   0  0  0  0  0  0  0  0  0  0  0  0
   -2.4617    6.1164    3.4999 H   0  0  0  0  0  0  0  0  0  0  0  0
   -0.6229    5.8457    0.9005 H   0  0  0  0  0  0  0  0  0  0  0  0
   -5.0268    4.3560   -1.9005 H   0  0  0  0  0  0  0  0  0  0  0  0
   -4.2123    2.9075   -3.5545 H   0  0  0  0  0  0  0  0  0  0  0  0
   -2.9301    2.2517   -5.3286 H   0  0  0  0  0  0  0  0  0  0  0  0
   -1.7488    0.0165   -7.8582 H   0  0  0  0  0  0  0  0  0  0  0  0
   -0.9871    1.6556   -8.0053 H   0  0  0  0  0  0  0  0  0  0  0  0
   -2.7276    1.4937   -7.5542 H   0  0  0  0  0  0  0  0  0  0  0  0
    2.5574   -0.5197   -5.8954 H   0  0  0  0  0  0  0  0  0  0  0  0
    1.5339   -2.0061   -5.6793 H   0  0  0  0  0  0  0  0  0  0  0  0
    2.1485   -1.5584   -7.3110 H   0  0  0  0  0  0  0  0  0  0  0  0
    1.1402   -0.2655   -3.9468 H   0  0  0  0  0  0  0  0  0  0  0  0
    1.3329    1.1127   -0.4206 H   0  0  0  0  0  0  0  0  0  0  0  0
    0.7700   -1.4800   -1.9371 H   0  0  0  0  0  0  0  0  0  0  0  0
    3.5208    0.4873    0.0779 H   0  0  0  0  0  0  0  0  0  0  0  0
    5.9913   -3.8470    0.9454 H   0  0  0  0  0  0  0  0  0  0  0  0
    5.1673   -5.6456    2.2209 H   0  0  0  0  0  0  0  0  0  0  0  0
    2.9574   -7.0503    2.8859 H   0  0  0  0  0  0  0  0  0  0  0  0
   -0.1665   -2.8562    4.7271 H   0  0  0  0  0  0  0  0  0  0  0  0
   -1.5925   -5.4792    4.0725 H   0  0  0  0  0  0  0  0  0  0  0  0
   -2.2686   -3.9664    4.9078 H   0  0  0  0  0  0  0  0  0  0  0  0
  1  2  1  0
  2  3  1  0
  3  4  2  0
  4  5  1  0
  4  6  1  0
  6  7  3  0
  3  8  1  0
  8  9  2  3
  9 10  1  0
 10 11  1  0
 11 12  1  0
 12 13  2  0
 13 14  1  0
 13 15  1  0
 15 16  3  0
 12 17  1  0
 17 18  2  3
 18 19  1  0
 19 20  1  0
 20 21  1  0
 21 22  2  0
 22 23  1  0
 22 24  1  0
 24 25  3  0
 21 26  1  0
 26 27  2  3
 27 28  1  0
 28 29  1  0
 29 30  1  0
 30 31  2  0
 31 32  1  0
 32 33  1  0
 33 34  2  0
 34 35  1  0
 34 36  1  0
 36 37  1  0
 37 38  1  0
 36 39  2  0
 30 40  1  0
 40 41  2  3
 41 42  1  0
 42 43  1  0
 43 44  1  0
 44 45  2  0
 45 46  1  0
 45 47  1  0
 47 48  3  0
 44 49  1  0
 49 50  2  3
 50 51  1  0
 51 52  1  0
 52 53  1  0
 53 54  2  0
 54 55  1  0
 54 56  1  0
 56 57  3  0
 53 58  1  0
 58 59  2  3
  5  1  2  0
 14 10  2  0
 23 19  2  0
 32 28  2  0
 46 42  2  0
 55 51  2  0
 39 31  1  0
  1 60  1  0
  5 61  1  0
  8 62  1  0
  9 63  1  0
 14 64  1  0
 17 65  1  0
 18 66  1  0
 23 67  1  0
 26 68  1  0
 27 69  1  0
 33 70  1  0
 35 71  1  0
 35 72  1  0
 35 73  1  0
 38 74  1  0
 38 75  1  0
 38 76  1  0
 39 77  1  0
 40 78  1  0
 41 79  1  0
 46 80  1  0
 49 81  1  0
 50 82  1  0
 55 83  1  0
 58 84  1  0
 59 85  1  0
 59 86  1  0
M  END

