
     RDKit          3D

236259  0  0  0  0  0  0  0  0999 V2000
   -3.4270    1.3587   12.6804 C   0  0  0  0  0  0  0  0  0  0  0  0
   -3.3301    1.9529   11.4238 C   0  0  0  0  0  0  0  0  0  0  0  0
   -3.4844    1.0375   10.3686 C   0  0  0  0  0  0  0  0  0  0  0  0
   -3.3865    1.3270    8.9926 C   0  0  0  0  0  0  0  0  0  0  0  0
   -2.9995    2.6621    8.5005 C   0  0  0  0  0  0  0  0  0  0  0  0
   -1.7028    3.1337    8.7423 C   0  0  0  0  0  0  0  0  0  0  0  0
   -1.2877    4.3534    8.2023 C   0  0  0  0  0  0  0  0  0  0  0  0
   -2.1719    5.1129    7.4220 C   0  0  0  0  0  0  0  0  0  0  0  0
   -1.5824    6.6255    6.6537 S   0  0  0  0  0  0  0  0  0  0  0  0
   -1.0078    5.7819    5.1387 C   0  0  0  0  0  0  0  0  0  0  0  0
   -0.0324    6.6723    4.3824 C   0  0  0  0  0  0  0  0  0  0  0  0
   -3.4800    4.6586    7.2067 C   0  0  0  0  0  0  0  0  0  0  0  0
   -4.3533    5.3953    6.4735 F   0  0  0  0  0  0  0  0  0  0  0  0
   -3.8918    3.4319    7.7386 C   0  0  0  0  0  0  0  0  0  0  0  0
   -3.5433    0.2524    8.1034 C   0  0  0  0  0  0  0  0  0  0  0  0
   -3.7806   -1.0580    8.5338 C   0  0  0  0  0  0  0  0  0  0  0  0
   -3.8538   -1.3552    9.9129 C   0  0  0  0  0  0  0  0  0  0  0  0
   -3.9755   -2.7378   10.4174 C   0  0  0  0  0  0  0  0  0  0  0  0
   -2.9611   -3.6755   10.1658 C   0  0  0  0  0  0  0  0  0  0  0  0
   -3.0344   -4.9592   10.7132 C   0  0  0  0  0  0  0  0  0  0  0  0
   -4.1149   -5.3107   11.5343 C   0  0  0  0  0  0  0  0  0  0  0  0
   -4.1732   -6.9445   12.2845 S   0  0  0  0  0  0  0  0  0  0  0  0
   -2.9410   -6.5786   13.5874 C   0  0  0  0  0  0  0  0  0  0  0  0
   -3.5293   -5.7207   14.7009 C   0  0  0  0  0  0  0  0  0  0  0  0
   -5.1434   -4.3908   11.7633 C   0  0  0  0  0  0  0  0  0  0  0  0
   -5.0739   -3.1075   11.2104 C   0  0  0  0  0  0  0  0  0  0  0  0
   -6.2130   -4.7299   12.5263 F   0  0  0  0  0  0  0  0  0  0  0  0
   -3.7147   -0.2720   10.8010 C   0  0  0  0  0  0  0  0  0  0  0  0
   -3.6988   -0.2940   12.4860 S   0  0  0  0  0  0  0  0  0  0  0  0
   -3.8631   -1.9792    7.4755 C   0  0  0  0  0  0  0  0  0  0  0  0
   -3.6593   -1.3833    6.2349 C   0  0  0  0  0  0  0  0  0  0  0  0
   -3.3782    0.2648    6.4323 S   0  0  0  0  0  0  0  0  0  0  0  0
   -3.5574   -2.0774    4.9506 C   0  0  0  0  0  0  0  0  0  0  0  0
   -2.4339   -2.0224    4.1333 C   0  0  0  0  0  0  0  0  0  0  0  0
   -2.6828   -2.4581    2.8242 C   0  0  0  0  0  0  0  0  0  0  0  0
   -1.7754   -2.3843    1.7499 C   0  0  0  0  0  0  0  0  0  0  0  0
   -0.4158   -1.8534    1.9500 C   0  0  0  0  0  0  0  0  0  0  0  0
    0.5999   -2.6960    2.4234 C   0  0  0  0  0  0  0  0  0  0  0  0
    1.8251   -2.1552    2.8314 C   0  0  0  0  0  0  0  0  0  0  0  0
    2.0371   -0.7720    2.7757 C   0  0  0  0  0  0  0  0  0  0  0  0
    3.5357   -0.0745    3.4870 S   0  0  0  0  0  0  0  0  0  0  0  0
    4.5356   -0.1882    1.9641 C   0  0  0  0  0  0  0  0  0  0  0  0
    4.4236    1.0945    1.1502 C   0  0  0  0  0  0  0  0  0  0  0  0
    1.0347    0.0696    2.2648 C   0  0  0  0  0  0  0  0  0  0  0  0
    1.2140    1.4159    2.2305 F   0  0  0  0  0  0  0  0  0  0  0  0
   -0.1884   -0.4704    1.8530 C   0  0  0  0  0  0  0  0  0  0  0  0
   -2.2778   -2.6759    0.4750 C   0  0  0  0  0  0  0  0  0  0  0  0
   -3.6230   -2.9966    0.2457 C   0  0  0  0  0  0  0  0  0  0  0  0
   -4.5190   -3.1121    1.3315 C   0  0  0  0  0  0  0  0  0  0  0  0
   -5.9593   -3.3702    1.1374 C   0  0  0  0  0  0  0  0  0  0  0  0
   -6.5182   -4.5766    1.5820 C   0  0  0  0  0  0  0  0  0  0  0  0
   -7.8925   -4.7943    1.4705 C   0  0  0  0  0  0  0  0  0  0  0  0
   -8.7222   -3.8093    0.9168 C   0  0  0  0  0  0  0  0  0  0  0  0
  -10.4962   -4.0822    0.8390 S   0  0  0  0  0  0  0  0  0  0  0  0
  -10.4666   -4.9994   -0.7406 C   0  0  0  0  0  0  0  0  0  0  0  0
  -10.4720   -4.0484   -1.9301 C   0  0  0  0  0  0  0  0  0  0  0  0
   -8.1644   -2.6000    0.4766 C   0  0  0  0  0  0  0  0  0  0  0  0
   -6.7887   -2.3844    0.5807 C   0  0  0  0  0  0  0  0  0  0  0  0
   -8.9618   -1.6199   -0.0245 F   0  0  0  0  0  0  0  0  0  0  0  0
   -4.0114   -2.8386    2.6133 C   0  0  0  0  0  0  0  0  0  0  0  0
   -4.8715   -2.6449    4.0536 S   0  0  0  0  0  0  0  0  0  0  0  0
   -3.9559   -3.0321   -1.1205 C   0  0  0  0  0  0  0  0  0  0  0  0
   -2.8692   -2.7633   -1.9521 C   0  0  0  0  0  0  0  0  0  0  0  0
   -1.5074   -2.4734   -0.9964 S   0  0  0  0  0  0  0  0  0  0  0  0
   -2.9716   -2.2272   -3.3139 C   0  0  0  0  0  0  0  0  0  0  0  0
   -1.9071   -2.2443   -4.2104 C   0  0  0  0  0  0  0  0  0  0  0  0
   -1.8746   -1.1205   -5.0587 C   0  0  0  0  0  0  0  0  0  0  0  0
   -0.8334   -0.7732   -5.9482 C   0  0  0  0  0  0  0  0  0  0  0  0
    0.3544   -1.6326   -6.1604 C   0  0  0  0  0  0  0  0  0  0  0  0
    0.7217   -2.0234   -7.4637 C   0  0  0  0  0  0  0  0  0  0  0  0
    1.8721   -2.7887   -7.6713 C   0  0  0  0  0  0  0  0  0  0  0  0
    2.6632   -3.1819   -6.5824 C   0  0  0  0  0  0  0  0  0  0  0  0
    4.1576   -4.1435   -6.8498 S   0  0  0  0  0  0  0  0  0  0  0  0
    3.3715   -5.7611   -6.5101 C   0  0  0  0  0  0  0  0  0  0  0  0
    2.7111   -6.3200   -7.7667 C   0  0  0  0  0  0  0  0  0  0  0  0
    2.3048   -2.7902   -5.2862 C   0  0  0  0  0  0  0  0  0  0  0  0
    3.0796   -3.1329   -4.2298 F   0  0  0  0  0  0  0  0  0  0  0  0
    1.1592   -2.0196   -5.0782 C   0  0  0  0  0  0  0  0  0  0  0  0
   -0.8991    0.5039   -6.5274 C   0  0  0  0  0  0  0  0  0  0  0  0
   -1.9348    1.4076   -6.2675 C   0  0  0  0  0  0  0  0  0  0  0  0
   -3.0258    1.0198   -5.4616 C   0  0  0  0  0  0  0  0  0  0  0  0
   -4.1926    1.8967   -5.2515 C   0  0  0  0  0  0  0  0  0  0  0  0
   -4.9649    2.2950   -6.3564 C   0  0  0  0  0  0  0  0  0  0  0  0
   -6.1391    3.0261   -6.1640 C   0  0  0  0  0  0  0  0  0  0  0  0
   -6.5604    3.3542   -4.8694 C   0  0  0  0  0  0  0  0  0  0  0  0
   -8.1147    4.2275   -4.6389 S   0  0  0  0  0  0  0  0  0  0  0  0
   -9.1217    2.7217   -4.3905 C   0  0  0  0  0  0  0  0  0  0  0  0
   -9.4680    2.0582   -5.7209 C   0  0  0  0  0  0  0  0  0  0  0  0
   -5.7665    3.0070   -3.7679 C   0  0  0  0  0  0  0  0  0  0  0  0
   -4.5854    2.2836   -3.9588 C   0  0  0  0  0  0  0  0  0  0  0  0
   -6.1456    3.3433   -2.5090 F   0  0  0  0  0  0  0  0  0  0  0  0
   -2.9493   -0.2513   -4.8566 C   0  0  0  0  0  0  0  0  0  0  0  0
   -3.9176   -0.8733   -3.6343 S   0  0  0  0  0  0  0  0  0  0  0  0
   -1.6536    2.7174   -6.6977 C   0  0  0  0  0  0  0  0  0  0  0  0
   -0.4082    2.8408   -7.3261 C   0  0  0  0  0  0  0  0  0  0  0  0
    0.3284    1.3185   -7.3294 S   0  0  0  0  0  0  0  0  0  0  0  0
    0.3757    4.0860   -7.5228 C   0  0  0  0  0  0  0  0  0  0  0  0
    2.0522    4.0718   -7.4782 S   0  0  0  0  0  0  0  0  0  0  0  0
    2.3254    5.7133   -7.2596 C   0  0  0  0  0  0  0  0  0  0  0  0
    1.0716    6.3368   -7.2949 C   0  0  0  0  0  0  0  0  0  0  0  0
   -0.0151    5.4330   -7.4512 C   0  0  0  0  0  0  0  0  0  0  0  0
   -1.3256    5.9180   -7.5374 C   0  0  0  0  0  0  0  0  0  0  0  0
   -1.5563    7.2933   -7.4029 C   0  0  0  0  0  0  0  0  0  0  0  0
   -0.4880    8.1824   -7.2008 C   0  0  0  0  0  0  0  0  0  0  0  0
    0.8311    7.7124   -7.1532 C   0  0  0  0  0  0  0  0  0  0  0  0
    1.8400    8.5981   -6.9550 F   0  0  0  0  0  0  0  0  0  0  0  0
    3.6593    6.3349   -7.0779 C   0  0  0  0  0  0  0  0  0  0  0  0
    4.6651    5.7875   -6.3763 C   0  0  0  0  0  0  0  0  0  0  0  0
    4.5198    4.5628   -5.5663 C   0  0  0  0  0  0  0  0  0  0  0  0
    3.4632    4.4601   -4.2621 S   0  0  0  0  0  0  0  0  0  0  0  0
    3.3054    2.7892   -4.2119 C   0  0  0  0  0  0  0  0  0  0  0  0
    4.0451    2.2700   -5.2852 C   0  0  0  0  0  0  0  0  0  0  0  0
    4.7357    3.2624   -6.0198 C   0  0  0  0  0  0  0  0  0  0  0  0
    5.4324    2.9332   -7.1914 C   0  0  0  0  0  0  0  0  0  0  0  0
    5.4255    1.6077   -7.6347 C   0  0  0  0  0  0  0  0  0  0  0  0
    4.7501    0.6153   -6.9094 C   0  0  0  0  0  0  0  0  0  0  0  0
    4.0346    0.9455   -5.7521 C   0  0  0  0  0  0  0  0  0  0  0  0
    3.3101   -0.0157   -5.1356 F   0  0  0  0  0  0  0  0  0  0  0  0
    2.1653    2.1716   -3.5204 C   0  0  0  0  0  0  0  0  0  0  0  0
    2.1831    1.1023   -2.7219 C   0  0  0  0  0  0  0  0  0  0  0  0
    3.3437    0.2798   -2.3284 C   0  0  0  0  0  0  0  0  0  0  0  0
    4.7215    0.5473   -2.4317 C   0  0  0  0  0  0  0  0  0  0  0  0
    5.5188   -0.4941   -1.9169 C   0  0  0  0  0  0  0  0  0  0  0  0
    6.9263   -0.5275   -1.8293 C   0  0  0  0  0  0  0  0  0  0  0  0
    7.8030    0.5326   -2.3590 C   0  0  0  0  0  0  0  0  0  0  0  0
    8.0897    1.6601   -1.5753 C   0  0  0  0  0  0  0  0  0  0  0  0
    9.1501    2.5052   -1.9257 C   0  0  0  0  0  0  0  0  0  0  0  0
    9.9369    2.2229   -3.0533 C   0  0  0  0  0  0  0  0  0  0  0  0
   11.4390    3.1676   -3.3513 S   0  0  0  0  0  0  0  0  0  0  0  0
   10.6761    4.4146   -4.4495 C   0  0  0  0  0  0  0  0  0  0  0  0
   10.7772    3.9791   -5.9077 C   0  0  0  0  0  0  0  0  0  0  0  0
    9.6207    1.1185   -3.8605 C   0  0  0  0  0  0  0  0  0  0  0  0
   10.4025    0.7960   -4.9248 F   0  0  0  0  0  0  0  0  0  0  0  0
    8.5546    0.2830   -3.5156 C   0  0  0  0  0  0  0  0  0  0  0  0
    7.5021   -1.6491   -1.2053 C   0  0  0  0  0  0  0  0  0  0  0  0
    6.7462   -2.7062   -0.6955 C   0  0  0  0  0  0  0  0  0  0  0  0
    5.3420   -2.6812   -0.7923 C   0  0  0  0  0  0  0  0  0  0  0  0
    4.4942   -3.7570   -0.2349 C   0  0  0  0  0  0  0  0  0  0  0  0
    3.6417   -4.4861   -1.0781 C   0  0  0  0  0  0  0  0  0  0  0  0
    2.7863   -5.4496   -0.5459 C   0  0  0  0  0  0  0  0  0  0  0  0
    2.7872   -5.7080    0.8291 C   0  0  0  0  0  0  0  0  0  0  0  0
    1.6531   -6.9204    1.5053 S   0  0  0  0  0  0  0  0  0  0  0  0
    2.8093   -8.3273    1.3512 C   0  0  0  0  0  0  0  0  0  0  0  0
    2.7884   -8.9030   -0.0609 C   0  0  0  0  0  0  0  0  0  0  0  0
    3.6488   -4.9951    1.6750 C   0  0  0  0  0  0  0  0  0  0  0  0
    4.4913   -4.0155    1.1473 C   0  0  0  0  0  0  0  0  0  0  0  0
    3.6435   -5.2225    3.0171 F   0  0  0  0  0  0  0  0  0  0  0  0
    4.7648   -1.5603   -1.4123 C   0  0  0  0  0  0  0  0  0  0  0  0
    3.1340   -1.2189   -1.5868 S   0  0  0  0  0  0  0  0  0  0  0  0
    7.5297   -3.7224   -0.1264 C   0  0  0  0  0  0  0  0  0  0  0  0
    8.8930   -3.4524   -0.1746 C   0  0  0  0  0  0  0  0  0  0  0  0
    9.1344   -1.9688   -0.9344 S   0  0  0  0  0  0  0  0  0  0  0  0
   -3.3291    1.8776   13.6253 H   0  0  0  0  0  0  0  0  0  0  0  0
   -3.1445    3.0149   11.2876 H   0  0  0  0  0  0  0  0  0  0  0  0
   -0.9980    2.5362    9.3124 H   0  0  0  0  0  0  0  0  0  0  0  0
   -0.2774    4.6974    8.3744 H   0  0  0  0  0  0  0  0  0  0  0  0
   -1.8867    5.5529    4.4983 H   0  0  0  0  0  0  0  0  0  0  0  0
   -0.4914    4.8287    5.3907 H   0  0  0  0  0  0  0  0  0  0  0  0
   -0.5228    7.6239    4.0877 H   0  0  0  0  0  0  0  0  0  0  0  0
    0.3159    6.1523    3.4647 H   0  0  0  0  0  0  0  0  0  0  0  0
    0.8528    6.8933    5.0144 H   0  0  0  0  0  0  0  0  0  0  0  0
   -4.8955    3.0712    7.5424 H   0  0  0  0  0  0  0  0  0  0  0  0
   -2.0976   -3.4040    9.5659 H   0  0  0  0  0  0  0  0  0  0  0  0
   -2.2336   -5.6648   10.5338 H   0  0  0  0  0  0  0  0  0  0  0  0
   -2.0525   -6.0776   13.1488 H   0  0  0  0  0  0  0  0  0  0  0  0
   -2.6022   -7.5419   14.0222 H   0  0  0  0  0  0  0  0  0  0  0  0
   -4.3530   -6.2691   15.2044 H   0  0  0  0  0  0  0  0  0  0  0  0
   -2.7395   -5.4970   15.4507 H   0  0  0  0  0  0  0  0  0  0  0  0
   -3.9122   -4.7596   14.3009 H   0  0  0  0  0  0  0  0  0  0  0  0
   -5.8694   -2.3966   11.4041 H   0  0  0  0  0  0  0  0  0  0  0  0
   -4.0236   -3.0421    7.5959 H   0  0  0  0  0  0  0  0  0  0  0  0
   -1.4894   -1.5976    4.4588 H   0  0  0  0  0  0  0  0  0  0  0  0
    0.4285   -3.7612    2.5192 H   0  0  0  0  0  0  0  0  0  0  0  0
    2.5897   -2.8038    3.2434 H   0  0  0  0  0  0  0  0  0  0  0  0
    5.5974   -0.3390    2.2530 H   0  0  0  0  0  0  0  0  0  0  0  0
    4.2259   -1.0578    1.3487 H   0  0  0  0  0  0  0  0  0  0  0  0
    4.5983    1.9814    1.7954 H   0  0  0  0  0  0  0  0  0  0  0  0
    5.1919    1.0936    0.3491 H   0  0  0  0  0  0  0  0  0  0  0  0
    3.4178    1.1642    0.6838 H   0  0  0  0  0  0  0  0  0  0  0  0
   -0.9810    0.1897    1.5125 H   0  0  0  0  0  0  0  0  0  0  0  0
   -5.8869   -5.3434    2.0183 H   0  0  0  0  0  0  0  0  0  0  0  0
   -8.3129   -5.7283    1.8253 H   0  0  0  0  0  0  0  0  0  0  0  0
   -9.5824   -5.6734   -0.8002 H   0  0  0  0  0  0  0  0  0  0  0  0
  -11.3786   -5.6305   -0.7866 H   0  0  0  0  0  0  0  0  0  0  0  0
  -10.5044   -4.6306   -2.8748 H   0  0  0  0  0  0  0  0  0  0  0  0
  -11.3630   -3.3869   -1.8904 H   0  0  0  0  0  0  0  0  0  0  0  0
   -9.5531   -3.4264   -1.9336 H   0  0  0  0  0  0  0  0  0  0  0  0
   -6.3682   -1.4404    0.2527 H   0  0  0  0  0  0  0  0  0  0  0  0
   -4.9679   -3.1574   -1.4908 H   0  0  0  0  0  0  0  0  0  0  0  0
   -1.1145   -2.9762   -4.1396 H   0  0  0  0  0  0  0  0  0  0  0  0
    0.1238   -1.7174   -8.3172 H   0  0  0  0  0  0  0  0  0  0  0  0
    2.1593   -3.0619   -8.6807 H   0  0  0  0  0  0  0  0  0  0  0  0
    2.6230   -5.6875   -5.6894 H   0  0  0  0  0  0  0  0  0  0  0  0
    4.1653   -6.4664   -6.1810 H   0  0  0  0  0  0  0  0  0  0  0  0
    2.3175   -7.3397   -7.5583 H   0  0  0  0  0  0  0  0  0  0  0  0
    3.4532   -6.3844   -8.5913 H   0  0  0  0  0  0  0  0  0  0  0  0
    1.8640   -5.6708   -8.0800 H   0  0  0  0  0  0  0  0  0  0  0  0
    0.9101   -1.7048   -4.0691 H   0  0  0  0  0  0  0  0  0  0  0  0
   -4.6743    2.0052   -7.3598 H   0  0  0  0  0  0  0  0  0  0  0  0
   -6.7373    3.3059   -7.0234 H   0  0  0  0  0  0  0  0  0  0  0  0
  -10.0660    3.0180   -3.8869 H   0  0  0  0  0  0  0  0  0  0  0  0
   -8.5923    1.9976   -3.7307 H   0  0  0  0  0  0  0  0  0  0  0  0
   -9.9608    2.7858   -6.3997 H   0  0  0  0  0  0  0  0  0  0  0  0
   -8.5537    1.6614   -6.2078 H   0  0  0  0  0  0  0  0  0  0  0  0
  -10.1624    1.2087   -5.5431 H   0  0  0  0  0  0  0  0  0  0  0  0
   -3.9892    1.9970   -3.0997 H   0  0  0  0  0  0  0  0  0  0  0  0
   -2.2755    3.5550   -6.4216 H   0  0  0  0  0  0  0  0  0  0  0  0
   -2.1583    5.2700   -7.7566 H   0  0  0  0  0  0  0  0  0  0  0  0
   -2.5639    7.6765   -7.4582 H   0  0  0  0  0  0  0  0  0  0  0  0
   -0.6879    9.2421   -7.0905 H   0  0  0  0  0  0  0  0  0  0  0  0
    3.8444    7.2908   -7.5564 H   0  0  0  0  0  0  0  0  0  0  0  0
    5.6235    6.2969   -6.3485 H   0  0  0  0  0  0  0  0  0  0  0  0
    5.9294    3.6938   -7.7775 H   0  0  0  0  0  0  0  0  0  0  0  0
    5.9350    1.3372   -8.5495 H   0  0  0  0  0  0  0  0  0  0  0  0
    4.7387   -0.4043   -7.2728 H   0  0  0  0  0  0  0  0  0  0  0  0
    1.2146    2.6808   -3.6358 H   0  0  0  0  0  0  0  0  0  0  0  0
    1.2262    0.7782   -2.3238 H   0  0  0  0  0  0  0  0  0  0  0  0
    5.1374    1.4703   -2.8155 H   0  0  0  0  0  0  0  0  0  0  0  0
    7.5406    1.8452   -0.6602 H   0  0  0  0  0  0  0  0  0  0  0  0
    9.4072    3.3360   -1.2770 H   0  0  0  0  0  0  0  0  0  0  0  0
   11.2372    5.3659   -4.3302 H   0  0  0  0  0  0  0  0  0  0  0  0
    9.6154    4.6097   -4.1702 H   0  0  0  0  0  0  0  0  0  0  0  0
   10.4025    4.7926   -6.5676 H   0  0  0  0  0  0  0  0  0  0  0  0
   10.1630    3.0689   -6.0795 H   0  0  0  0  0  0  0  0  0  0  0  0
   11.8360    3.7645   -6.1708 H   0  0  0  0  0  0  0  0  0  0  0  0
    8.3580   -0.6054   -4.1084 H   0  0  0  0  0  0  0  0  0  0  0  0
    3.6531   -4.3156   -2.1467 H   0  0  0  0  0  0  0  0  0  0  0  0
    2.1241   -5.9991   -1.2060 H   0  0  0  0  0  0  0  0  0  0  0  0
    2.4779   -9.1168    2.0623 H   0  0  0  0  0  0  0  0  0  0  0  0
    3.8433   -8.0308    1.6329 H   0  0  0  0  0  0  0  0  0  0  0  0
    3.3048   -8.2128   -0.7654 H   0  0  0  0  0  0  0  0  0  0  0  0
    1.7408   -9.0704   -0.3922 H   0  0  0  0  0  0  0  0  0  0  0  0
    3.3284   -9.8719   -0.0746 H   0  0  0  0  0  0  0  0  0  0  0  0
    5.1367   -3.4481    1.8095 H   0  0  0  0  0  0  0  0  0  0  0  0
    7.1230   -4.6245    0.3041 H   0  0  0  0  0  0  0  0  0  0  0  0
    9.6756   -4.0887    0.2179 H   0  0  0  0  0  0  0  0  0  0  0  0
  1  2  2  0
  2  3  1  0
  3  4  2  0
  4  5  1  0
  5  6  2  0
  6  7  1  0
  7  8  2  0
  8  9  1  0
  9 10  1  0
 10 11  1  0
  8 12  1  0
 12 13  1  0
 12 14  2  0
  4 15  1  0
 15 16  2  0
 16 17  1  0
 17 18  1  0
 18 19  2  0
 19 20  1  0
 20 21  2  0
 21 22  1  0
 22 23  1  0
 23 24  1  0
 21 25  1  0
 25 26  2  0
 25 27  1  0
 17 28  2  0
 28 29  1  0
 16 30  1  0
 30 31  2  0
 31 32  1  0
 31 33  1  0
 33 34  2  0
 34 35  1  0
 35 36  2  0
 36 37  1  0
 37 38  2  0
 38 39  1  0
 39 40  2  0
 40 41  1  0
 41 42  1  0
 42 43  1  0
 40 44  1  0
 44 45  1  0
 44 46  2  0
 36 47  1  0
 47 48  2  0
 48 49  1  0
 49 50  1  0
 50 51  2  0
 51 52  1  0
 52 53  2  0
 53 54  1  0
 54 55  1  0
 55 56  1  0
 53 57  1  0
 57 58  2  0
 57 59  1  0
 49 60  2  0
 60 61  1  0
 48 62  1  0
 62 63  2  0
 63 64  1  0
 63 65  1  0
 65 66  2  0
 66 67  1  0
 67 68  2  0
 68 69  1  0
 69 70  2  0
 70 71  1  0
 71 72  2  0
 72 73  1  0
 73 74  1  0
 74 75  1  0
 72 76  1  0
 76 77  1  0
 76 78  2  0
 68 79  1  0
 79 80  2  0
 80 81  1  0
 81 82  1  0
 82 83  2  0
 83 84  1  0
 84 85  2  0
 85 86  1  0
 86 87  1  0
 87 88  1  0
 85 89  1  0
 89 90  2  0
 89 91  1  0
 81 92  2  0
 92 93  1  0
 80 94  1  0
 94 95  2  0
 95 96  1  0
 95 97  1  0
 97 98  1  0
 98 99  1  0
 99100  2  0
100101  1  0
101102  1  0
102103  2  0
103104  1  0
104105  2  0
105106  1  0
 99107  1  0
107108  2  3
108109  1  0
109110  1  0
110111  1  0
111112  2  0
112113  1  0
113114  1  0
114115  2  0
115116  1  0
116117  2  0
117118  1  0
111119  1  0
119120  2  3
120121  1  0
121122  2  0
122123  1  0
123124  2  0
124125  1  0
125126  2  0
126127  1  0
127128  2  0
128129  1  0
129130  1  0
130131  1  0
128132  1  0
132133  1  0
132134  2  0
124135  1  0
135136  2  0
136137  1  0
137138  1  0
138139  2  0
139140  1  0
140141  2  0
141142  1  0
142143  1  0
143144  1  0
141145  1  0
145146  2  0
145147  1  0
137148  2  0
148149  1  0
136150  1  0
150151  2  0
151152  1  0
 29  1  1  0
 61 33  1  0
 93 65  1  0
101 97  2  0
113109  2  0
149121  1  0
 28  3  1  0
 60 35  1  0
 92 67  1  0
105100  1  0
117112  1  0
148123  1  0
 14  5  1  0
 32 15  1  0
 46 37  1  0
 64 47  1  0
 78 69  1  0
 96 79  1  0
134125  1  0
152135  1  0
 26 18  1  0
 58 50  1  0
 90 82  1  0
146138  1  0
  1153  1  0
  2154  1  0
  6155  1  0
  7156  1  0
 10157  1  0
 10158  1  0
 11159  1  0
 11160  1  0
 11161  1  0
 14162  1  0
 19163  1  0
 20164  1  0
 23165  1  0
 23166  1  0
 24167  1  0
 24168  1  0
 24169  1  0
 26170  1  0
 30171  1  0
 34172  1  0
 38173  1  0
 39174  1  0
 42175  1  0
 42176  1  0
 43177  1  0
 43178  1  0
 43179  1  0
 46180  1  0
 51181  1  0
 52182  1  0
 55183  1  0
 55184  1  0
 56185  1  0
 56186  1  0
 56187  1  0
 58188  1  0
 62189  1  0
 66190  1  0
 70191  1  0
 71192  1  0
 74193  1  0
 74194  1  0
 75195  1  0
 75196  1  0
 75197  1  0
 78198  1  0
 83199  1  0
 84200  1  0
 87201  1  0
 87202  1  0
 88203  1  0
 88204  1  0
 88205  1  0
 90206  1  0
 94207  1  0
102208  1  0
103209  1  0
104210  1  0
107211  1  0
108212  1  0
114213  1  0
115214  1  0
116215  1  0
119216  1  0
120217  1  0
122218  1  0
126219  1  0
127220  1  0
130221  1  0
130222  1  0
131223  1  0
131224  1  0
131225  1  0
134226  1  0
139227  1  0
140228  1  0
143229  1  0
143230  1  0
144231  1  0
144232  1  0
144233  1  0
146234  1  0
150235  1  0
151236  1  0
M  END

