
     RDKit          3D

266293  0  0  0  0  0  0  0  0999 V2000
   -1.6587   -5.6713   11.4074 C   0  0  0  0  0  0  0  0  0  0  0  0
   -1.2553   -4.4795   10.8175 C   0  0  0  0  0  0  0  0  0  0  0  0
   -1.9065   -4.2064    9.6021 C   0  0  0  0  0  0  0  0  0  0  0  0
   -1.7067   -3.0818    8.7752 C   0  0  0  0  0  0  0  0  0  0  0  0
   -0.7287   -2.0263    9.1260 C   0  0  0  0  0  0  0  0  0  0  0  0
    0.3846   -1.7974    8.3044 C   0  0  0  0  0  0  0  0  0  0  0  0
    1.3448   -0.8499    8.6712 C   0  0  0  0  0  0  0  0  0  0  0  0
    1.2042   -0.1290    9.8605 C   0  0  0  0  0  0  0  0  0  0  0  0
    2.4388    1.0874   10.3194 S   0  0  0  0  0  0  0  0  0  0  0  0
    3.5573   -0.1506   11.0589 C   0  0  0  0  0  0  0  0  0  0  0  0
    4.7413    0.5429   11.7148 C   0  0  0  0  0  0  0  0  0  0  0  0
    0.0989   -0.3589   10.6860 C   0  0  0  0  0  0  0  0  0  0  0  0
   -0.0380    0.3178   11.8533 F   0  0  0  0  0  0  0  0  0  0  0  0
   -0.8713   -1.2910   10.3154 C   0  0  0  0  0  0  0  0  0  0  0  0
   -2.4585   -3.0216    7.5876 C   0  0  0  0  0  0  0  0  0  0  0  0
   -3.3702   -4.0184    7.2201 C   0  0  0  0  0  0  0  0  0  0  0  0
   -3.5515   -5.1646    8.0327 C   0  0  0  0  0  0  0  0  0  0  0  0
   -4.4166   -6.2998    7.6288 C   0  0  0  0  0  0  0  0  0  0  0  0
   -3.8826   -7.5990    7.5633 C   0  0  0  0  0  0  0  0  0  0  0  0
   -4.6892   -8.6781    7.1837 C   0  0  0  0  0  0  0  0  0  0  0  0
   -6.0216   -8.4663    6.8268 C   0  0  0  0  0  0  0  0  0  0  0  0
   -7.0483   -9.8594    6.3562 S   0  0  0  0  0  0  0  0  0  0  0  0
   -6.4548   -9.9420    4.6277 C   0  0  0  0  0  0  0  0  0  0  0  0
   -7.0054   -8.7952    3.7907 C   0  0  0  0  0  0  0  0  0  0  0  0
   -6.5682   -7.1734    6.8878 C   0  0  0  0  0  0  0  0  0  0  0  0
   -5.7672   -6.0997    7.3003 C   0  0  0  0  0  0  0  0  0  0  0  0
   -7.8571   -6.9550    6.5409 F   0  0  0  0  0  0  0  0  0  0  0  0
   -2.8058   -5.2105    9.2282 C   0  0  0  0  0  0  0  0  0  0  0  0
   -2.8127   -6.4010   10.4199 S   0  0  0  0  0  0  0  0  0  0  0  0
   -4.0075   -3.7501    5.9965 C   0  0  0  0  0  0  0  0  0  0  0  0
   -3.6015   -2.5483    5.4253 C   0  0  0  0  0  0  0  0  0  0  0  0
   -2.4394   -1.8205    6.4084 S   0  0  0  0  0  0  0  0  0  0  0  0
   -4.0960   -1.9985    4.1599 C   0  0  0  0  0  0  0  0  0  0  0  0
   -3.3632   -1.2021    3.2880 C   0  0  0  0  0  0  0  0  0  0  0  0
   -4.0847   -0.8493    2.1397 C   0  0  0  0  0  0  0  0  0  0  0  0
   -3.5866   -0.1411    1.0332 C   0  0  0  0  0  0  0  0  0  0  0  0
   -2.1560    0.1835    0.8957 C   0  0  0  0  0  0  0  0  0  0  0  0
   -1.5716    1.2026    1.6621 C   0  0  0  0  0  0  0  0  0  0  0  0
   -0.2115    1.4871    1.5202 C   0  0  0  0  0  0  0  0  0  0  0  0
    0.5806    0.7429    0.6415 C   0  0  0  0  0  0  0  0  0  0  0  0
    2.3394    1.0818    0.5344 S   0  0  0  0  0  0  0  0  0  0  0  0
    2.8258   -0.2875    1.6413 C   0  0  0  0  0  0  0  0  0  0  0  0
    2.6170    0.0757    3.1052 C   0  0  0  0  0  0  0  0  0  0  0  0
    0.0001   -0.2638   -0.1370 C   0  0  0  0  0  0  0  0  0  0  0  0
    0.7589   -1.0001   -0.9859 F   0  0  0  0  0  0  0  0  0  0  0  0
   -1.3620   -0.5434   -0.0060 C   0  0  0  0  0  0  0  0  0  0  0  0
   -4.4679    0.0779   -0.0340 C   0  0  0  0  0  0  0  0  0  0  0  0
   -5.7695   -0.4350   -0.0650 C   0  0  0  0  0  0  0  0  0  0  0  0
   -6.2738   -1.1537    1.0442 C   0  0  0  0  0  0  0  0  0  0  0  0
   -7.6485   -1.6866    1.0657 C   0  0  0  0  0  0  0  0  0  0  0  0
   -8.6042   -1.1177    1.9175 C   0  0  0  0  0  0  0  0  0  0  0  0
   -9.9227   -1.5827    1.9059 C   0  0  0  0  0  0  0  0  0  0  0  0
  -10.2992   -2.6207    1.0444 C   0  0  0  0  0  0  0  0  0  0  0  0
  -12.0166   -3.1401    0.9732 S   0  0  0  0  0  0  0  0  0  0  0  0
  -11.8429   -4.5169    2.1641 C   0  0  0  0  0  0  0  0  0  0  0  0
  -11.9680   -4.0204    3.5984 C   0  0  0  0  0  0  0  0  0  0  0  0
   -9.3379   -3.2060    0.2057 C   0  0  0  0  0  0  0  0  0  0  0  0
   -8.0167   -2.7471    0.2212 C   0  0  0  0  0  0  0  0  0  0  0  0
   -9.6853   -4.2186   -0.6306 F   0  0  0  0  0  0  0  0  0  0  0  0
   -5.3970   -1.3392    2.1316 C   0  0  0  0  0  0  0  0  0  0  0  0
   -5.6424   -2.2519    3.5251 S   0  0  0  0  0  0  0  0  0  0  0  0
   -6.4212   -0.2130   -1.2966 C   0  0  0  0  0  0  0  0  0  0  0  0
   -5.6321    0.4964   -2.2035 C   0  0  0  0  0  0  0  0  0  0  0  0
   -4.1374    0.8222   -1.4912 S   0  0  0  0  0  0  0  0  0  0  0  0
   -5.8014    0.5218   -3.6598 C   0  0  0  0  0  0  0  0  0  0  0  0
   -5.0758    1.4085   -4.4545 C   0  0  0  0  0  0  0  0  0  0  0  0
   -4.6577    0.8559   -5.6739 C   0  0  0  0  0  0  0  0  0  0  0  0
   -3.6773    1.4159   -6.5124 C   0  0  0  0  0  0  0  0  0  0  0  0
   -3.0565    2.7217   -6.2087 C   0  0  0  0  0  0  0  0  0  0  0  0
   -1.9461    2.7862   -5.3509 C   0  0  0  0  0  0  0  0  0  0  0  0
   -1.3742    4.0240   -5.0350 C   0  0  0  0  0  0  0  0  0  0  0  0
   -1.8992    5.2010   -5.5797 C   0  0  0  0  0  0  0  0  0  0  0  0
   -1.1753    6.7838   -5.1393 S   0  0  0  0  0  0  0  0  0  0  0  0
    0.0696    6.7189   -6.4685 C   0  0  0  0  0  0  0  0  0  0  0  0
    1.0067    7.9116   -6.3698 C   0  0  0  0  0  0  0  0  0  0  0  0
   -2.9996    5.1384   -6.4437 C   0  0  0  0  0  0  0  0  0  0  0  0
   -3.5069    6.2675   -6.9909 F   0  0  0  0  0  0  0  0  0  0  0  0
   -3.5813    3.9029   -6.7531 C   0  0  0  0  0  0  0  0  0  0  0  0
   -3.1051    0.5590   -7.4646 C   0  0  0  0  0  0  0  0  0  0  0  0
   -3.4958   -0.7722   -7.6184 C   0  0  0  0  0  0  0  0  0  0  0  0
   -4.5790   -1.2899   -6.8754 C   0  0  0  0  0  0  0  0  0  0  0  0
   -5.0358   -2.6903   -7.0605 C   0  0  0  0  0  0  0  0  0  0  0  0
   -5.4978   -3.1033   -8.3231 C   0  0  0  0  0  0  0  0  0  0  0  0
   -5.9110   -4.4263   -8.5276 C   0  0  0  0  0  0  0  0  0  0  0  0
   -5.8782   -5.3436   -7.4718 C   0  0  0  0  0  0  0  0  0  0  0  0
   -6.3893   -7.0434   -7.7524 S   0  0  0  0  0  0  0  0  0  0  0  0
   -8.1566   -6.7611   -7.3862 C   0  0  0  0  0  0  0  0  0  0  0  0
   -8.9310   -6.4763   -8.6695 C   0  0  0  0  0  0  0  0  0  0  0  0
   -5.4082   -4.9422   -6.2156 C   0  0  0  0  0  0  0  0  0  0  0  0
   -4.9768   -3.6276   -6.0130 C   0  0  0  0  0  0  0  0  0  0  0  0
   -5.3378   -5.8326   -5.1949 F   0  0  0  0  0  0  0  0  0  0  0  0
   -5.1179   -0.4513   -5.8797 C   0  0  0  0  0  0  0  0  0  0  0  0
   -6.0299   -0.9060   -4.5372 S   0  0  0  0  0  0  0  0  0  0  0  0
   -2.5648   -1.5407   -8.3478 C   0  0  0  0  0  0  0  0  0  0  0  0
   -1.4311   -0.8159   -8.7301 C   0  0  0  0  0  0  0  0  0  0  0  0
   -1.6363    0.7853   -8.2381 S   0  0  0  0  0  0  0  0  0  0  0  0
   -0.0791   -1.4020   -8.8583 C   0  0  0  0  0  0  0  0  0  0  0  0
    1.0658   -0.6065   -8.9424 C   0  0  0  0  0  0  0  0  0  0  0  0
    2.1823   -1.1709   -8.3115 C   0  0  0  0  0  0  0  0  0  0  0  0
    3.3570   -0.4751   -7.9602 C   0  0  0  0  0  0  0  0  0  0  0  0
    3.5728    0.9238   -8.3666 C   0  0  0  0  0  0  0  0  0  0  0  0
    4.4104    1.2154   -9.4505 C   0  0  0  0  0  0  0  0  0  0  0  0
    4.6136    2.5418   -9.8386 C   0  0  0  0  0  0  0  0  0  0  0  0
    3.9878    3.5858   -9.1416 C   0  0  0  0  0  0  0  0  0  0  0  0
    4.1947    5.2782   -9.7028 S   0  0  0  0  0  0  0  0  0  0  0  0
    5.5894    5.6713   -8.5811 C   0  0  0  0  0  0  0  0  0  0  0  0
    6.9004    5.1037   -9.1132 C   0  0  0  0  0  0  0  0  0  0  0  0
    3.1547    3.2920   -8.0531 C   0  0  0  0  0  0  0  0  0  0  0  0
    2.5191    4.2917   -7.3917 F   0  0  0  0  0  0  0  0  0  0  0  0
    2.9517    1.9683   -7.6640 C   0  0  0  0  0  0  0  0  0  0  0  0
    4.2102   -1.0956   -7.0340 C   0  0  0  0  0  0  0  0  0  0  0  0
    3.9635   -2.3714   -6.5189 C   0  0  0  0  0  0  0  0  0  0  0  0
    2.8450   -3.1125   -6.9576 C   0  0  0  0  0  0  0  0  0  0  0  0
    2.5471   -4.4551   -6.4299 C   0  0  0  0  0  0  0  0  0  0  0  0
    1.8973   -4.6085   -5.1959 C   0  0  0  0  0  0  0  0  0  0  0  0
    1.6644   -5.8893   -4.6838 C   0  0  0  0  0  0  0  0  0  0  0  0
    2.0802   -7.0211   -5.3980 C   0  0  0  0  0  0  0  0  0  0  0  0
    1.8412   -8.6560   -4.6952 S   0  0  0  0  0  0  0  0  0  0  0  0
    0.1397   -8.8762   -5.3250 C   0  0  0  0  0  0  0  0  0  0  0  0
    0.1415   -9.2924   -6.7920 C   0  0  0  0  0  0  0  0  0  0  0  0
    2.7306   -6.8626   -6.6312 C   0  0  0  0  0  0  0  0  0  0  0  0
    2.9572   -5.5853   -7.1454 C   0  0  0  0  0  0  0  0  0  0  0  0
    3.1542   -7.9469   -7.3250 F   0  0  0  0  0  0  0  0  0  0  0  0
    1.9492   -2.4633   -7.8264 C   0  0  0  0  0  0  0  0  0  0  0  0
    0.3471   -2.8682   -8.1252 S   0  0  0  0  0  0  0  0  0  0  0  0
    4.8135   -2.7117   -5.4525 C   0  0  0  0  0  0  0  0  0  0  0  0
    5.6940   -1.6822   -5.1094 C   0  0  0  0  0  0  0  0  0  0  0  0
    5.4607   -0.3859   -6.1642 S   0  0  0  0  0  0  0  0  0  0  0  0
    6.4741   -1.5909   -3.8629 C   0  0  0  0  0  0  0  0  0  0  0  0
    7.2825   -0.1798   -3.3623 S   0  0  0  0  0  0  0  0  0  0  0  0
    7.6142   -0.7384   -1.8202 C   0  0  0  0  0  0  0  0  0  0  0  0
    7.0101   -1.9645   -1.6347 C   0  0  0  0  0  0  0  0  0  0  0  0
    6.3757   -2.4704   -2.7752 C   0  0  0  0  0  0  0  0  0  0  0  0
    6.6717   -2.1675   -0.2022 C   0  0  0  0  0  0  0  0  0  0  0  0
    5.4040   -3.0561    0.3298 S   0  0  0  0  0  0  0  0  0  0  0  0
    7.0720   -0.8884    0.3946 C   0  0  0  0  0  0  0  0  0  0  0  0
    7.5597   -0.0644   -0.5446 C   0  0  0  0  0  0  0  0  0  0  0  0
    7.5807    1.1815   -0.1544 O   0  0  0  0  0  0  0  0  0  0  0  0
    7.0743    1.1853    1.0707 C   0  0  0  0  0  0  0  0  0  0  0  0
    6.7034   -0.1072    1.4654 C   0  0  0  0  0  0  0  0  0  0  0  0
    6.8515    2.4117    1.8479 C   0  0  0  0  0  0  0  0  0  0  0  0
    5.9028    2.5740    2.8565 C   0  0  0  0  0  0  0  0  0  0  0  0
    5.8717    3.8788    3.3722 C   0  0  0  0  0  0  0  0  0  0  0  0
    4.9666    4.3815    4.3323 C   0  0  0  0  0  0  0  0  0  0  0  0
    3.8126    3.6010    4.8141 C   0  0  0  0  0  0  0  0  0  0  0  0
    3.9430    2.7228    5.9008 C   0  0  0  0  0  0  0  0  0  0  0  0
    2.8192    2.0663    6.4099 C   0  0  0  0  0  0  0  0  0  0  0  0
    1.5547    2.2806    5.8416 C   0  0  0  0  0  0  0  0  0  0  0  0
    0.1126    1.4456    6.5122 S   0  0  0  0  0  0  0  0  0  0  0  0
   -0.3734    2.8587    7.5555 C   0  0  0  0  0  0  0  0  0  0  0  0
   -1.4993    2.4575    8.4997 C   0  0  0  0  0  0  0  0  0  0  0  0
    1.4205    3.1653    4.7667 C   0  0  0  0  0  0  0  0  0  0  0  0
    0.1947    3.4378    4.2594 F   0  0  0  0  0  0  0  0  0  0  0  0
    2.5454    3.8127    4.2466 C   0  0  0  0  0  0  0  0  0  0  0  0
    5.1265    5.7234    4.7122 C   0  0  0  0  0  0  0  0  0  0  0  0
    6.1006    6.5544    4.1541 C   0  0  0  0  0  0  0  0  0  0  0  0
    6.9609    6.0740    3.1468 C   0  0  0  0  0  0  0  0  0  0  0  0
    7.8951    6.9657    2.4380 C   0  0  0  0  0  0  0  0  0  0  0  0
    7.4011    7.9613    1.5829 C   0  0  0  0  0  0  0  0  0  0  0  0
    8.2815    8.8286    0.9311 C   0  0  0  0  0  0  0  0  0  0  0  0
    9.6640    8.7082    1.1296 C   0  0  0  0  0  0  0  0  0  0  0  0
   10.7805    9.8321    0.2859 S   0  0  0  0  0  0  0  0  0  0  0  0
   10.9032    8.8256   -1.2362 C   0  0  0  0  0  0  0  0  0  0  0  0
   11.9007    7.6856   -1.0699 C   0  0  0  0  0  0  0  0  0  0  0  0
   10.1602    7.7299    2.0045 C   0  0  0  0  0  0  0  0  0  0  0  0
    9.2794    6.8660    2.6667 C   0  0  0  0  0  0  0  0  0  0  0  0
   11.4925    7.6284    2.2383 F   0  0  0  0  0  0  0  0  0  0  0  0
    6.8259    4.7205    2.7865 C   0  0  0  0  0  0  0  0  0  0  0  0
    7.6608    3.8723    1.5964 S   0  0  0  0  0  0  0  0  0  0  0  0
    6.0898    7.8508    4.6918 C   0  0  0  0  0  0  0  0  0  0  0  0
    5.1004    8.0391    5.6501 C   0  0  0  0  0  0  0  0  0  0  0  0
    4.2402    6.6007    5.8409 S   0  0  0  0  0  0  0  0  0  0  0  0
   -1.2854   -6.0655   12.3408 H   0  0  0  0  0  0  0  0  0  0  0  0
   -0.5028   -3.8345   11.2639 H   0  0  0  0  0  0  0  0  0  0  0  0
    0.5172   -2.3662    7.3903 H   0  0  0  0  0  0  0  0  0  0  0  0
    2.2078   -0.6948    8.0338 H   0  0  0  0  0  0  0  0  0  0  0  0
    3.0141   -0.7511   11.8225 H   0  0  0  0  0  0  0  0  0  0  0  0
    3.9278   -0.8306   10.2591 H   0  0  0  0  0  0  0  0  0  0  0  0
    5.4501   -0.2156   12.1099 H   0  0  0  0  0  0  0  0  0  0  0  0
    4.3900    1.1779   12.5573 H   0  0  0  0  0  0  0  0  0  0  0  0
    5.2744    1.1803   10.9739 H   0  0  0  0  0  0  0  0  0  0  0  0
   -1.7195   -1.4674   10.9661 H   0  0  0  0  0  0  0  0  0  0  0  0
   -2.8411   -7.7798    7.7971 H   0  0  0  0  0  0  0  0  0  0  0  0
   -4.2705   -9.6746    7.1535 H   0  0  0  0  0  0  0  0  0  0  0  0
   -6.8050  -10.9056    4.1961 H   0  0  0  0  0  0  0  0  0  0  0  0
   -5.3418   -9.9449    4.6036 H   0  0  0  0  0  0  0  0  0  0  0  0
   -6.8777   -9.0110    2.7117 H   0  0  0  0  0  0  0  0  0  0  0  0
   -6.4797   -7.8479    4.0349 H   0  0  0  0  0  0  0  0  0  0  0  0
   -8.0883   -8.6692    3.9949 H   0  0  0  0  0  0  0  0  0  0  0  0
   -6.2037   -5.1086    7.3606 H   0  0  0  0  0  0  0  0  0  0  0  0
   -4.7210   -4.4069    5.5196 H   0  0  0  0  0  0  0  0  0  0  0  0
   -2.3276   -0.9261    3.4597 H   0  0  0  0  0  0  0  0  0  0  0  0
   -2.1710    1.7757    2.3598 H   0  0  0  0  0  0  0  0  0  0  0  0
    0.2272    2.2841    2.0957 H   0  0  0  0  0  0  0  0  0  0  0  0
    2.2664   -1.2119    1.3954 H   0  0  0  0  0  0  0  0  0  0  0  0
    3.9026   -0.4869    1.4690 H   0  0  0  0  0  0  0  0  0  0  0  0
    1.5371    0.1526    3.3456 H   0  0  0  0  0  0  0  0  0  0  0  0
    3.1104    1.0407    3.3362 H   0  0  0  0  0  0  0  0  0  0  0  0
    3.0687   -0.7088    3.7462 H   0  0  0  0  0  0  0  0  0  0  0  0
   -1.8014   -1.3378   -0.5995 H   0  0  0  0  0  0  0  0  0  0  0  0
   -8.3409   -0.2871    2.5653 H   0  0  0  0  0  0  0  0  0  0  0  0
  -10.6608   -1.1130    2.5431 H   0  0  0  0  0  0  0  0  0  0  0  0
  -12.6603   -5.2417    1.9669 H   0  0  0  0  0  0  0  0  0  0  0  0
  -10.8755   -5.0450    2.0220 H   0  0  0  0  0  0  0  0  0  0  0  0
  -11.8795   -4.8756    4.2960 H   0  0  0  0  0  0  0  0  0  0  0  0
  -12.9553   -3.5387    3.7492 H   0  0  0  0  0  0  0  0  0  0  0  0
  -11.1614   -3.2949    3.8328 H   0  0  0  0  0  0  0  0  0  0  0  0
   -7.2879   -3.1963   -0.4408 H   0  0  0  0  0  0  0  0  0  0  0  0
   -7.3942   -0.6179   -1.5456 H   0  0  0  0  0  0  0  0  0  0  0  0
   -4.6937    2.3463   -4.0674 H   0  0  0  0  0  0  0  0  0  0  0  0
   -1.5242    1.8823   -4.9268 H   0  0  0  0  0  0  0  0  0  0  0  0
   -0.5200    4.0631   -4.3727 H   0  0  0  0  0  0  0  0  0  0  0  0
    0.6623    5.7843   -6.3748 H   0  0  0  0  0  0  0  0  0  0  0  0
   -0.4439    6.7326   -7.4545 H   0  0  0  0  0  0  0  0  0  0  0  0
    1.7727    7.8540   -7.1729 H   0  0  0  0  0  0  0  0  0  0  0  0
    0.4372    8.8595   -6.4844 H   0  0  0  0  0  0  0  0  0  0  0  0
    1.5188    7.9146   -5.3828 H   0  0  0  0  0  0  0  0  0  0  0  0
   -4.4325    3.8628   -7.4211 H   0  0  0  0  0  0  0  0  0  0  0  0
   -5.5283   -2.4042   -9.1483 H   0  0  0  0  0  0  0  0  0  0  0  0
   -6.2451   -4.7309   -9.5080 H   0  0  0  0  0  0  0  0  0  0  0  0
   -8.2965   -5.9217   -6.6700 H   0  0  0  0  0  0  0  0  0  0  0  0
   -8.5682   -7.6824   -6.9210 H   0  0  0  0  0  0  0  0  0  0  0  0
  -10.0128   -6.4038   -8.4394 H   0  0  0  0  0  0  0  0  0  0  0  0
   -8.5892   -5.5232   -9.1234 H   0  0  0  0  0  0  0  0  0  0  0  0
   -8.7780   -7.3014   -9.3961 H   0  0  0  0  0  0  0  0  0  0  0  0
   -4.5804   -3.3442   -5.0469 H   0  0  0  0  0  0  0  0  0  0  0  0
   -2.6221   -2.6214   -8.4187 H   0  0  0  0  0  0  0  0  0  0  0  0
    1.0363    0.4236   -9.2707 H   0  0  0  0  0  0  0  0  0  0  0  0
    4.9016    0.4216   -9.9966 H   0  0  0  0  0  0  0  0  0  0  0  0
    5.2475    2.7628  -10.6858 H   0  0  0  0  0  0  0  0  0  0  0  0
    5.6796    6.7796   -8.5269 H   0  0  0  0  0  0  0  0  0  0  0  0
    5.3925    5.2876   -7.5535 H   0  0  0  0  0  0  0  0  0  0  0  0
    6.9140    3.9951   -9.0123 H   0  0  0  0  0  0  0  0  0  0  0  0
    7.0200    5.3743  -10.1841 H   0  0  0  0  0  0  0  0  0  0  0  0
    7.7548    5.5196   -8.5430 H   0  0  0  0  0  0  0  0  0  0  0  0
    2.3057    1.7491   -6.8231 H   0  0  0  0  0  0  0  0  0  0  0  0
    1.5827   -3.7413   -4.6281 H   0  0  0  0  0  0  0  0  0  0  0  0
    1.1646   -6.0026   -3.7285 H   0  0  0  0  0  0  0  0  0  0  0  0
   -0.4535   -7.9401   -5.1980 H   0  0  0  0  0  0  0  0  0  0  0  0
   -0.3490   -9.6778   -4.7280 H   0  0  0  0  0  0  0  0  0  0  0  0
    0.4831   -8.4536   -7.4358 H   0  0  0  0  0  0  0  0  0  0  0  0
   -0.8884   -9.5739   -7.1017 H   0  0  0  0  0  0  0  0  0  0  0  0
    0.8129  -10.1722   -6.9441 H   0  0  0  0  0  0  0  0  0  0  0  0
    3.4632   -5.4765   -8.0976 H   0  0  0  0  0  0  0  0  0  0  0  0
    4.7209   -3.6287   -4.8881 H   0  0  0  0  0  0  0  0  0  0  0  0
    5.7447   -3.3477   -2.7600 H   0  0  0  0  0  0  0  0  0  0  0  0
    6.1721   -0.4087    2.3590 H   0  0  0  0  0  0  0  0  0  0  0  0
    5.2457    1.7827    3.1878 H   0  0  0  0  0  0  0  0  0  0  0  0
    4.9073    2.5740    6.3679 H   0  0  0  0  0  0  0  0  0  0  0  0
    2.9283    1.4062    7.2549 H   0  0  0  0  0  0  0  0  0  0  0  0
    0.4930    3.2194    8.1523 H   0  0  0  0  0  0  0  0  0  0  0  0
   -0.7310    3.6815    6.8986 H   0  0  0  0  0  0  0  0  0  0  0  0
   -2.3092    1.9275    7.9493 H   0  0  0  0  0  0  0  0  0  0  0  0
   -1.9175    3.3636    8.9886 H   0  0  0  0  0  0  0  0  0  0  0  0
   -1.1064    1.7860    9.2915 H   0  0  0  0  0  0  0  0  0  0  0  0
    2.4310    4.5023    3.4184 H   0  0  0  0  0  0  0  0  0  0  0  0
    6.3352    8.0709    1.4309 H   0  0  0  0  0  0  0  0  0  0  0  0
    7.8899    9.6048    0.2888 H   0  0  0  0  0  0  0  0  0  0  0  0
   11.2485    9.4842   -2.0635 H   0  0  0  0  0  0  0  0  0  0  0  0
    9.9044    8.4215   -1.5283 H   0  0  0  0  0  0  0  0  0  0  0  0
   12.8632    8.0791   -0.6734 H   0  0  0  0  0  0  0  0  0  0  0  0
   12.0972    7.1975   -2.0444 H   0  0  0  0  0  0  0  0  0  0  0  0
   11.5055    6.9198   -0.3662 H   0  0  0  0  0  0  0  0  0  0  0  0
    9.6697    6.1180    3.3422 H   0  0  0  0  0  0  0  0  0  0  0  0
    6.7801    8.6325    4.3992 H   0  0  0  0  0  0  0  0  0  0  0  0
    4.9151    8.9633    6.1841 H   0  0  0  0  0  0  0  0  0  0  0  0
  1  2  2  0
  2  3  1  0
  3  4  2  0
  4  5  1  0
  5  6  2  0
  6  7  1  0
  7  8  2  0
  8  9  1  0
  9 10  1  0
 10 11  1  0
  8 12  1  0
 12 13  1  0
 12 14  2  0
  4 15  1  0
 15 16  2  0
 16 17  1  0
 17 18  1  0
 18 19  2  0
 19 20  1  0
 20 21  2  0
 21 22  1  0
 22 23  1  0
 23 24  1  0
 21 25  1  0
 25 26  2  0
 25 27  1  0
 17 28  2  0
 28 29  1  0
 16 30  1  0
 30 31  2  0
 31 32  1  0
 31 33  1  0
 33 34  2  0
 34 35  1  0
 35 36  2  0
 36 37  1  0
 37 38  2  0
 38 39  1  0
 39 40  2  0
 40 41  1  0
 41 42  1  0
 42 43  1  0
 40 44  1  0
 44 45  1  0
 44 46  2  0
 36 47  1  0
 47 48  2  0
 48 49  1  0
 49 50  1  0
 50 51  2  0
 51 52  1  0
 52 53  2  0
 53 54  1  0
 54 55  1  0
 55 56  1  0
 53 57  1  0
 57 58  2  0
 57 59  1  0
 49 60  2  0
 60 61  1  0
 48 62  1  0
 62 63  2  0
 63 64  1  0
 63 65  1  0
 65 66  2  0
 66 67  1  0
 67 68  2  0
 68 69  1  0
 69 70  2  0
 70 71  1  0
 71 72  2  0
 72 73  1  0
 73 74  1  0
 74 75  1  0
 72 76  1  0
 76 77  1  0
 76 78  2  0
 68 79  1  0
 79 80  2  0
 80 81  1  0
 81 82  1  0
 82 83  2  0
 83 84  1  0
 84 85  2  0
 85 86  1  0
 86 87  1  0
 87 88  1  0
 85 89  1  0
 89 90  2  0
 89 91  1  0
 81 92  2  0
 92 93  1  0
 80 94  1  0
 94 95  2  0
 95 96  1  0
 95 97  1  0
 97 98  2  0
 98 99  1  0
 99100  2  0
100101  1  0
101102  2  0
102103  1  0
103104  2  0
104105  1  0
105106  1  0
106107  1  0
104108  1  0
108109  1  0
108110  2  0
100111  1  0
111112  2  0
112113  1  0
113114  1  0
114115  2  0
115116  1  0
116117  2  0
117118  1  0
118119  1  0
119120  1  0
117121  1  0
121122  2  0
121123  1  0
113124  2  0
124125  1  0
112126  1  0
126127  2  0
127128  1  0
127129  1  0
129130  1  0
130131  1  0
131132  2  0
132133  1  0
132134  1  0
134135  2  0
134136  1  0
136137  2  0
137138  1  0
138139  1  0
139140  2  0
139141  1  0
141142  2  0
142143  1  0
143144  2  0
144145  1  0
145146  2  0
146147  1  0
147148  2  0
148149  1  0
149150  1  0
150151  1  0
148152  1  0
152153  1  0
152154  2  0
144155  1  0
155156  2  0
156157  1  0
157158  1  0
158159  2  0
159160  1  0
160161  2  0
161162  1  0
162163  1  0
163164  1  0
161165  1  0
165166  2  0
165167  1  0
157168  2  0
168169  1  0
156170  1  0
170171  2  0
171172  1  0
 29  1  1  0
 61 33  1  0
 93 65  1  0
125 97  1  0
133129  2  0
140136  1  0
169141  1  0
 28  3  1  0
 60 35  1  0
 92 67  1  0
124 99  1  0
137131  1  0
168143  1  0
 14  5  1  0
 32 15  1  0
 46 37  1  0
 64 47  1  0
 78 69  1  0
 96 79  1  0
110101  1  0
128111  1  0
154145  1  0
172155  1  0
 26 18  1  0
 58 50  1  0
 90 82  1  0
122114  1  0
166158  1  0
  1173  1  0
  2174  1  0
  6175  1  0
  7176  1  0
 10177  1  0
 10178  1  0
 11179  1  0
 11180  1  0
 11181  1  0
 14182  1  0
 19183  1  0
 20184  1  0
 23185  1  0
 23186  1  0
 24187  1  0
 24188  1  0
 24189  1  0
 26190  1  0
 30191  1  0
 34192  1  0
 38193  1  0
 39194  1  0
 42195  1  0
 42196  1  0
 43197  1  0
 43198  1  0
 43199  1  0
 46200  1  0
 51201  1  0
 52202  1  0
 55203  1  0
 55204  1  0
 56205  1  0
 56206  1  0
 56207  1  0
 58208  1  0
 62209  1  0
 66210  1  0
 70211  1  0
 71212  1  0
 74213  1  0
 74214  1  0
 75215  1  0
 75216  1  0
 75217  1  0
 78218  1  0
 83219  1  0
 84220  1  0
 87221  1  0
 87222  1  0
 88223  1  0
 88224  1  0
 88225  1  0
 90226  1  0
 94227  1  0
 98228  1  0
102229  1  0
103230  1  0
106231  1  0
106232  1  0
107233  1  0
107234  1  0
107235  1  0
110236  1  0
115237  1  0
116238  1  0
119239  1  0
119240  1  0
120241  1  0
120242  1  0
120243  1  0
122244  1  0
126245  1  0
133246  1  0
140247  1  0
142248  1  0
146249  1  0
147250  1  0
150251  1  0
150252  1  0
151253  1  0
151254  1  0
151255  1  0
154256  1  0
159257  1  0
160258  1  0
163259  1  0
163260  1  0
164261  1  0
164262  1  0
164263  1  0
166264  1  0
170265  1  0
171266  1  0
M  END

