
     RDKit          3D

268293  0  0  0  0  0  0  0  0999 V2000
   -4.6714   10.2702    9.9039 C   0  0  0  0  0  0  0  0  0  0  0  0
   -3.4312    9.8256    9.4533 C   0  0  0  0  0  0  0  0  0  0  0  0
   -3.3074    8.4268    9.4573 C   0  0  0  0  0  0  0  0  0  0  0  0
   -2.1667    7.6804    9.0864 C   0  0  0  0  0  0  0  0  0  0  0  0
   -0.9778    8.3210    8.4791 C   0  0  0  0  0  0  0  0  0  0  0  0
    0.2948    8.1669    9.0527 C   0  0  0  0  0  0  0  0  0  0  0  0
    1.4075    8.7852    8.4747 C   0  0  0  0  0  0  0  0  0  0  0  0
    1.2631    9.5562    7.3151 C   0  0  0  0  0  0  0  0  0  0  0  0
    2.6915   10.3929    6.6133 S   0  0  0  0  0  0  0  0  0  0  0  0
    3.2565    8.9756    5.6071 C   0  0  0  0  0  0  0  0  0  0  0  0
    2.4281    8.8333    4.3345 C   0  0  0  0  0  0  0  0  0  0  0  0
   -0.0040    9.7174    6.7399 C   0  0  0  0  0  0  0  0  0  0  0  0
   -0.1669   10.4845    5.6327 F   0  0  0  0  0  0  0  0  0  0  0  0
   -1.1167    9.0947    7.3143 C   0  0  0  0  0  0  0  0  0  0  0  0
   -2.2493    6.2837    9.2450 C   0  0  0  0  0  0  0  0  0  0  0  0
   -3.4107    5.6401    9.6901 C   0  0  0  0  0  0  0  0  0  0  0  0
   -4.5500    6.3846   10.0426 C   0  0  0  0  0  0  0  0  0  0  0  0
   -5.7782    5.7468   10.5449 C   0  0  0  0  0  0  0  0  0  0  0  0
   -6.9445    5.7392    9.7643 C   0  0  0  0  0  0  0  0  0  0  0  0
   -8.1195    5.1660   10.2601 C   0  0  0  0  0  0  0  0  0  0  0  0
   -8.1337    4.5852   11.5349 C   0  0  0  0  0  0  0  0  0  0  0  0
   -9.6615    3.9211   12.2059 S   0  0  0  0  0  0  0  0  0  0  0  0
   -9.3540    2.1978   11.6829 C   0  0  0  0  0  0  0  0  0  0  0  0
   -9.9051    1.9577   10.2843 C   0  0  0  0  0  0  0  0  0  0  0  0
   -6.9647    4.5788   12.3149 C   0  0  0  0  0  0  0  0  0  0  0  0
   -5.7893    5.1460   11.8122 C   0  0  0  0  0  0  0  0  0  0  0  0
   -6.9655    4.0188   13.5454 F   0  0  0  0  0  0  0  0  0  0  0  0
   -4.4579    7.7820    9.9214 C   0  0  0  0  0  0  0  0  0  0  0  0
   -5.6156    8.9379   10.3136 S   0  0  0  0  0  0  0  0  0  0  0  0
   -3.3098    4.2408    9.6744 C   0  0  0  0  0  0  0  0  0  0  0  0
   -2.0617    3.7911    9.2478 C   0  0  0  0  0  0  0  0  0  0  0  0
   -1.0935    5.1189    8.8634 S   0  0  0  0  0  0  0  0  0  0  0  0
   -1.7037    2.3954    8.9839 C   0  0  0  0  0  0  0  0  0  0  0  0
   -2.5670    1.4390    8.4605 C   0  0  0  0  0  0  0  0  0  0  0  0
   -1.9213    0.2360    8.1426 C   0  0  0  0  0  0  0  0  0  0  0  0
   -2.5130   -0.8761    7.5212 C   0  0  0  0  0  0  0  0  0  0  0  0
   -3.9137   -0.8635    7.0629 C   0  0  0  0  0  0  0  0  0  0  0  0
   -4.9077   -1.5141    7.8040 C   0  0  0  0  0  0  0  0  0  0  0  0
   -6.2219   -1.5584    7.3233 C   0  0  0  0  0  0  0  0  0  0  0  0
   -6.5481   -0.9536    6.1011 C   0  0  0  0  0  0  0  0  0  0  0  0
   -8.2272   -1.0488    5.4805 S   0  0  0  0  0  0  0  0  0  0  0  0
   -8.7440    0.5851    6.1204 C   0  0  0  0  0  0  0  0  0  0  0  0
  -10.0054    0.4330    6.9529 C   0  0  0  0  0  0  0  0  0  0  0  0
   -5.5521   -0.2941    5.3653 C   0  0  0  0  0  0  0  0  0  0  0  0
   -5.8529    0.2911    4.1786 F   0  0  0  0  0  0  0  0  0  0  0  0
   -4.2414   -0.2452    5.8488 C   0  0  0  0  0  0  0  0  0  0  0  0
   -1.6633   -1.9466    7.1979 C   0  0  0  0  0  0  0  0  0  0  0  0
   -0.2931   -1.9381    7.4718 C   0  0  0  0  0  0  0  0  0  0  0  0
    0.2858   -0.8456    8.1523 C   0  0  0  0  0  0  0  0  0  0  0  0
    1.6964   -0.8621    8.5843 C   0  0  0  0  0  0  0  0  0  0  0  0
    2.0883   -1.7214    9.6240 C   0  0  0  0  0  0  0  0  0  0  0  0
    3.4065   -1.7111   10.0846 C   0  0  0  0  0  0  0  0  0  0  0  0
    4.3522   -0.8673    9.4957 C   0  0  0  0  0  0  0  0  0  0  0  0
    6.0315   -0.8322   10.1398 S   0  0  0  0  0  0  0  0  0  0  0  0
    6.6796   -2.1209    9.0175 C   0  0  0  0  0  0  0  0  0  0  0  0
    6.3598   -3.5197    9.5326 C   0  0  0  0  0  0  0  0  0  0  0  0
    3.9685   -0.0113    8.4538 C   0  0  0  0  0  0  0  0  0  0  0  0
    2.6446   -0.0029    8.0035 C   0  0  0  0  0  0  0  0  0  0  0  0
    4.8731    0.8255    7.8838 F   0  0  0  0  0  0  0  0  0  0  0  0
   -0.5535    0.2411    8.4428 C   0  0  0  0  0  0  0  0  0  0  0  0
   -0.1413    1.7508    9.0737 S   0  0  0  0  0  0  0  0  0  0  0  0
    0.3991   -3.0036    6.8654 C   0  0  0  0  0  0  0  0  0  0  0  0
   -0.4348   -3.8330    6.1066 C   0  0  0  0  0  0  0  0  0  0  0  0
   -2.0198   -3.2588    6.2244 S   0  0  0  0  0  0  0  0  0  0  0  0
    0.0014   -4.7457    5.0382 C   0  0  0  0  0  0  0  0  0  0  0  0
   -0.8629   -5.2222    4.0540 C   0  0  0  0  0  0  0  0  0  0  0  0
   -0.2122   -5.6189    2.8834 C   0  0  0  0  0  0  0  0  0  0  0  0
   -0.8438   -5.8780    1.6524 C   0  0  0  0  0  0  0  0  0  0  0  0
   -2.3180   -5.9073    1.5459 C   0  0  0  0  0  0  0  0  0  0  0  0
   -3.0522   -6.8573    2.2729 C   0  0  0  0  0  0  0  0  0  0  0  0
   -4.4487   -6.8052    2.2894 C   0  0  0  0  0  0  0  0  0  0  0  0
   -5.1240   -5.8088    1.5761 C   0  0  0  0  0  0  0  0  0  0  0  0
   -6.9198   -5.7226    1.6484 S   0  0  0  0  0  0  0  0  0  0  0  0
   -7.2135   -6.9060    0.2854 C   0  0  0  0  0  0  0  0  0  0  0  0
   -6.8340   -6.3065   -1.0657 C   0  0  0  0  0  0  0  0  0  0  0  0
   -4.3984   -4.8634    0.8425 C   0  0  0  0  0  0  0  0  0  0  0  0
   -5.0372   -3.8808    0.1597 F   0  0  0  0  0  0  0  0  0  0  0  0
   -2.9991   -4.9152    0.8223 C   0  0  0  0  0  0  0  0  0  0  0  0
   -0.0116   -5.9576    0.5243 C   0  0  0  0  0  0  0  0  0  0  0  0
    1.3761   -5.8731    0.6008 C   0  0  0  0  0  0  0  0  0  0  0  0
    2.0145   -5.7006    1.8489 C   0  0  0  0  0  0  0  0  0  0  0  0
    3.4835   -5.6939    1.9827 C   0  0  0  0  0  0  0  0  0  0  0  0
    4.1342   -6.8660    2.3929 C   0  0  0  0  0  0  0  0  0  0  0  0
    5.5275   -6.8869    2.5123 C   0  0  0  0  0  0  0  0  0  0  0  0
    6.2770   -5.7340    2.2458 C   0  0  0  0  0  0  0  0  0  0  0  0
    8.0635   -5.7677    2.4362 S   0  0  0  0  0  0  0  0  0  0  0  0
    8.0605   -5.1635    4.1638 C   0  0  0  0  0  0  0  0  0  0  0  0
    7.7624   -6.2940    5.1451 C   0  0  0  0  0  0  0  0  0  0  0  0
    5.6250   -4.5656    1.8216 C   0  0  0  0  0  0  0  0  0  0  0  0
    4.2328   -4.5465    1.6901 C   0  0  0  0  0  0  0  0  0  0  0  0
    6.3396   -3.4474    1.5358 F   0  0  0  0  0  0  0  0  0  0  0  0
    1.1804   -5.5332    2.9699 C   0  0  0  0  0  0  0  0  0  0  0  0
    1.5931   -4.9082    4.4815 S   0  0  0  0  0  0  0  0  0  0  0  0
    1.9993   -5.8250   -0.6589 C   0  0  0  0  0  0  0  0  0  0  0  0
    1.1111   -5.8655   -1.7497 C   0  0  0  0  0  0  0  0  0  0  0  0
   -0.4478   -5.9629   -1.0894 S   0  0  0  0  0  0  0  0  0  0  0  0
    1.4639   -5.4385   -3.1530 C   0  0  0  0  0  0  0  0  0  0  0  0
    2.8082   -5.4776   -3.5677 C   0  0  0  0  0  0  0  0  0  0  0  0
    3.8709   -6.8494   -3.0378 S   0  0  0  0  0  0  0  0  0  0  0  0
    3.0159   -8.1404   -4.0137 C   0  0  0  0  0  0  0  0  0  0  0  0
    3.2964   -8.0041   -5.5030 C   0  0  0  0  0  0  0  0  0  0  0  0
    3.3017   -4.5033   -4.4601 C   0  0  0  0  0  0  0  0  0  0  0  0
    5.0884   -4.4548   -4.8160 S   0  0  0  0  0  0  0  0  0  0  0  0
    5.6486   -3.3510   -3.4609 C   0  0  0  0  0  0  0  0  0  0  0  0
    5.3481   -3.8964   -2.0712 C   0  0  0  0  0  0  0  0  0  0  0  0
    2.4003   -3.6087   -5.0961 C   0  0  0  0  0  0  0  0  0  0  0  0
    1.0014   -3.7277   -4.8531 C   0  0  0  0  0  0  0  0  0  0  0  0
    0.5414   -4.7454   -3.9742 C   0  0  0  0  0  0  0  0  0  0  0  0
   -0.8949   -5.1436   -4.0414 C   0  0  0  0  0  0  0  0  0  0  0  0
   -1.2499   -6.3322   -3.8071 O   0  0  0  0  0  0  0  0  0  0  0  0
   -1.8738   -4.1905   -4.5614 C   0  0  0  0  0  0  0  0  0  0  0  0
   -1.4504   -3.0614   -5.2616 C   0  0  0  0  0  0  0  0  0  0  0  0
   -0.0172   -2.8023   -5.4705 C   0  0  0  0  0  0  0  0  0  0  0  0
    0.3256   -1.7855   -6.1354 O   0  0  0  0  0  0  0  0  0  0  0  0
   -2.4906   -2.2714   -5.7388 C   0  0  0  0  0  0  0  0  0  0  0  0
   -3.9323   -2.9977   -5.2641 S   0  0  0  0  0  0  0  0  0  0  0  0
   -3.2561   -4.3099   -4.4590 C   0  0  0  0  0  0  0  0  0  0  0  0
    2.8986   -2.6208   -6.1045 C   0  0  0  0  0  0  0  0  0  0  0  0
    2.7860   -2.9263   -7.4879 C   0  0  0  0  0  0  0  0  0  0  0  0
    2.0291   -4.5236   -7.9704 S   0  0  0  0  0  0  0  0  0  0  0  0
    3.4288   -5.3930   -8.7840 C   0  0  0  0  0  0  0  0  0  0  0  0
    4.7157   -5.4018   -7.9773 C   0  0  0  0  0  0  0  0  0  0  0  0
    2.9539   -1.9062   -8.4549 C   0  0  0  0  0  0  0  0  0  0  0  0
    2.8478   -2.3585  -10.2031 S   0  0  0  0  0  0  0  0  0  0  0  0
    4.6548   -2.5641  -10.4449 C   0  0  0  0  0  0  0  0  0  0  0  0
    5.3128   -1.2680  -10.8941 C   0  0  0  0  0  0  0  0  0  0  0  0
    3.1975   -0.5640   -8.0401 C   0  0  0  0  0  0  0  0  0  0  0  0
    3.6005   -0.3535   -6.6976 C   0  0  0  0  0  0  0  0  0  0  0  0
    3.2900   -1.3191   -5.7036 C   0  0  0  0  0  0  0  0  0  0  0  0
    3.2586   -0.8668   -4.2689 C   0  0  0  0  0  0  0  0  0  0  0  0
    2.7015   -1.5527   -3.3688 O   0  0  0  0  0  0  0  0  0  0  0  0
    3.8533    0.4253   -3.9065 C   0  0  0  0  0  0  0  0  0  0  0  0
    4.3810    1.2663   -4.8858 C   0  0  0  0  0  0  0  0  0  0  0  0
    4.3468    0.8768   -6.2975 C   0  0  0  0  0  0  0  0  0  0  0  0
    4.9898    1.5501   -7.1528 O   0  0  0  0  0  0  0  0  0  0  0  0
    4.8995    2.4574   -4.3970 C   0  0  0  0  0  0  0  0  0  0  0  0
    4.6809    2.4458   -2.7265 S   0  0  0  0  0  0  0  0  0  0  0  0
    3.9359    0.9391   -2.6189 C   0  0  0  0  0  0  0  0  0  0  0  0
    2.8033    0.6341   -8.8846 C   0  0  0  0  0  0  0  0  0  0  0  0
    2.3809    1.8935   -8.4022 C   0  0  0  0  0  0  0  0  0  0  0  0
    1.9124    2.7742   -9.4015 C   0  0  0  0  0  0  0  0  0  0  0  0
    1.4453    4.1021   -9.2317 C   0  0  0  0  0  0  0  0  0  0  0  0
    1.5249    4.8314   -7.9461 C   0  0  0  0  0  0  0  0  0  0  0  0
    0.8281    4.3835   -6.8123 C   0  0  0  0  0  0  0  0  0  0  0  0
    0.7886    5.1727   -5.6543 C   0  0  0  0  0  0  0  0  0  0  0  0
    1.4282    6.4173   -5.6265 C   0  0  0  0  0  0  0  0  0  0  0  0
    1.2380    7.4948   -4.1985 S   0  0  0  0  0  0  0  0  0  0  0  0
    2.8482    7.0631   -3.4632 C   0  0  0  0  0  0  0  0  0  0  0  0
    3.1262    7.9629   -2.2669 C   0  0  0  0  0  0  0  0  0  0  0  0
    2.1521    6.8505   -6.7407 C   0  0  0  0  0  0  0  0  0  0  0  0
    2.7717    8.0619   -6.7364 F   0  0  0  0  0  0  0  0  0  0  0  0
    2.2108    6.0560   -7.8882 C   0  0  0  0  0  0  0  0  0  0  0  0
    0.9356    4.7438  -10.3829 C   0  0  0  0  0  0  0  0  0  0  0  0
    0.9060    4.1369  -11.6404 C   0  0  0  0  0  0  0  0  0  0  0  0
    1.4167    2.8399  -11.8130 C   0  0  0  0  0  0  0  0  0  0  0  0
    1.3408    2.1351  -13.1071 C   0  0  0  0  0  0  0  0  0  0  0  0
    2.5058    1.8397  -13.8262 C   0  0  0  0  0  0  0  0  0  0  0  0
    2.4257    1.1333  -15.0288 C   0  0  0  0  0  0  0  0  0  0  0  0
    1.1852    0.6980  -15.5104 C   0  0  0  0  0  0  0  0  0  0  0  0
    1.0958   -0.2203  -17.0513 S   0  0  0  0  0  0  0  0  0  0  0  0
    1.2946   -1.8429  -16.2421 C   0  0  0  0  0  0  0  0  0  0  0  0
    1.2462   -2.9494  -17.2859 C   0  0  0  0  0  0  0  0  0  0  0  0
    0.0181    0.9884  -14.7882 C   0  0  0  0  0  0  0  0  0  0  0  0
    0.0954    1.7118  -13.5956 C   0  0  0  0  0  0  0  0  0  0  0  0
   -1.1927    0.5685  -15.2411 F   0  0  0  0  0  0  0  0  0  0  0  0
    1.9220    2.2005  -10.6721 C   0  0  0  0  0  0  0  0  0  0  0  0
    2.5339    0.6565  -10.5540 S   0  0  0  0  0  0  0  0  0  0  0  0
    0.3424    4.9521  -12.6387 C   0  0  0  0  0  0  0  0  0  0  0  0
   -0.0802    6.1895  -12.1619 C   0  0  0  0  0  0  0  0  0  0  0  0
    0.2459    6.2764  -10.5070 S   0  0  0  0  0  0  0  0  0  0  0  0
   -4.9701   11.3060    9.9904 H   0  0  0  0  0  0  0  0  0  0  0  0
   -2.6437   10.5056    9.1523 H   0  0  0  0  0  0  0  0  0  0  0  0
    0.4191    7.5822    9.9557 H   0  0  0  0  0  0  0  0  0  0  0  0
    2.3813    8.6677    8.9314 H   0  0  0  0  0  0  0  0  0  0  0  0
    3.2161    8.0337    6.1949 H   0  0  0  0  0  0  0  0  0  0  0  0
    4.3144    9.1569    5.3232 H   0  0  0  0  0  0  0  0  0  0  0  0
    1.3962    8.5067    4.5780 H   0  0  0  0  0  0  0  0  0  0  0  0
    2.8912    8.0708    3.6726 H   0  0  0  0  0  0  0  0  0  0  0  0
    2.3876    9.8008    3.7885 H   0  0  0  0  0  0  0  0  0  0  0  0
   -2.0895    9.2204    6.8526 H   0  0  0  0  0  0  0  0  0  0  0  0
   -6.9453    6.1890    8.7788 H   0  0  0  0  0  0  0  0  0  0  0  0
   -9.0163    5.1761    9.6541 H   0  0  0  0  0  0  0  0  0  0  0  0
   -9.8796    1.5229   12.3907 H   0  0  0  0  0  0  0  0  0  0  0  0
   -8.2717    1.9487   11.7134 H   0  0  0  0  0  0  0  0  0  0  0  0
   -9.3748    2.5940    9.5464 H   0  0  0  0  0  0  0  0  0  0  0  0
  -10.9916    2.1916   10.2574 H   0  0  0  0  0  0  0  0  0  0  0  0
   -9.7619    0.8918   10.0111 H   0  0  0  0  0  0  0  0  0  0  0  0
   -4.8936    5.1417   12.4206 H   0  0  0  0  0  0  0  0  0  0  0  0
   -4.1259    3.5750    9.9403 H   0  0  0  0  0  0  0  0  0  0  0  0
   -3.6151    1.6238    8.2658 H   0  0  0  0  0  0  0  0  0  0  0  0
   -4.6628   -1.9932    8.7432 H   0  0  0  0  0  0  0  0  0  0  0  0
   -6.9810   -2.0696    7.8976 H   0  0  0  0  0  0  0  0  0  0  0  0
   -7.9544    1.0608    6.7388 H   0  0  0  0  0  0  0  0  0  0  0  0
   -8.9555    1.2483    5.2554 H   0  0  0  0  0  0  0  0  0  0  0  0
  -10.3413    1.4326    7.3084 H   0  0  0  0  0  0  0  0  0  0  0  0
  -10.8191   -0.0190    6.3462 H   0  0  0  0  0  0  0  0  0  0  0  0
   -9.7990   -0.2119    7.8341 H   0  0  0  0  0  0  0  0  0  0  0  0
   -3.4771    0.2589    5.2681 H   0  0  0  0  0  0  0  0  0  0  0  0
    1.3663   -2.3739   10.0998 H   0  0  0  0  0  0  0  0  0  0  0  0
    3.6918   -2.3610   10.9039 H   0  0  0  0  0  0  0  0  0  0  0  0
    6.2752   -1.9871    7.9903 H   0  0  0  0  0  0  0  0  0  0  0  0
    7.7847   -2.0064    8.9711 H   0  0  0  0  0  0  0  0  0  0  0  0
    6.6766   -3.6259   10.5926 H   0  0  0  0  0  0  0  0  0  0  0  0
    5.2732   -3.7271    9.4480 H   0  0  0  0  0  0  0  0  0  0  0  0
    6.9036   -4.2724    8.9236 H   0  0  0  0  0  0  0  0  0  0  0  0
    2.3483    0.6670    7.2081 H   0  0  0  0  0  0  0  0  0  0  0  0
    1.4762   -3.0903    6.8709 H   0  0  0  0  0  0  0  0  0  0  0  0
   -1.9395   -5.1310    4.1287 H   0  0  0  0  0  0  0  0  0  0  0  0
   -2.5378   -7.6197    2.8502 H   0  0  0  0  0  0  0  0  0  0  0  0
   -4.9982   -7.5355    2.8711 H   0  0  0  0  0  0  0  0  0  0  0  0
   -6.6509   -7.8470    0.4651 H   0  0  0  0  0  0  0  0  0  0  0  0
   -8.2957   -7.1542    0.2736 H   0  0  0  0  0  0  0  0  0  0  0  0
   -5.7306   -6.2736   -1.1695 H   0  0  0  0  0  0  0  0  0  0  0  0
   -7.2465   -5.2783   -1.1581 H   0  0  0  0  0  0  0  0  0  0  0  0
   -7.2446   -6.9302   -1.8841 H   0  0  0  0  0  0  0  0  0  0  0  0
   -2.4501   -4.1636    0.2727 H   0  0  0  0  0  0  0  0  0  0  0  0
    3.5677   -7.7648    2.6093 H   0  0  0  0  0  0  0  0  0  0  0  0
    6.0258   -7.8001    2.8209 H   0  0  0  0  0  0  0  0  0  0  0  0
    9.0707   -4.7587    4.3817 H   0  0  0  0  0  0  0  0  0  0  0  0
    7.3247   -4.3389    4.2910 H   0  0  0  0  0  0  0  0  0  0  0  0
    7.8643   -5.9240    6.1846 H   0  0  0  0  0  0  0  0  0  0  0  0
    8.4722   -7.1330    4.9900 H   0  0  0  0  0  0  0  0  0  0  0  0
    6.7278   -6.6630    5.0100 H   0  0  0  0  0  0  0  0  0  0  0  0
    3.7372   -3.6441    1.3636 H   0  0  0  0  0  0  0  0  0  0  0  0
    3.0577   -5.6369   -0.7531 H   0  0  0  0  0  0  0  0  0  0  0  0
    1.9175   -8.1149   -3.8303 H   0  0  0  0  0  0  0  0  0  0  0  0
    3.3966   -9.1288   -3.6671 H   0  0  0  0  0  0  0  0  0  0  0  0
    2.8783   -8.8824   -6.0383 H   0  0  0  0  0  0  0  0  0  0  0  0
    2.8058   -7.0915   -5.9073 H   0  0  0  0  0  0  0  0  0  0  0  0
    4.3918   -7.9596   -5.6858 H   0  0  0  0  0  0  0  0  0  0  0  0
    6.7495   -3.2456   -3.5534 H   0  0  0  0  0  0  0  0  0  0  0  0
    5.2178   -2.3408   -3.5704 H   0  0  0  0  0  0  0  0  0  0  0  0
    5.7547   -4.9220   -1.9605 H   0  0  0  0  0  0  0  0  0  0  0  0
    5.8258   -3.2524   -1.3073 H   0  0  0  0  0  0  0  0  0  0  0  0
    4.2592   -3.8875   -1.8795 H   0  0  0  0  0  0  0  0  0  0  0  0
   -2.3952   -1.3660   -6.3240 H   0  0  0  0  0  0  0  0  0  0  0  0
   -3.7914   -5.1035   -3.9502 H   0  0  0  0  0  0  0  0  0  0  0  0
    3.6149   -4.9726   -9.7874 H   0  0  0  0  0  0  0  0  0  0  0  0
    3.1148   -6.4430   -8.9515 H   0  0  0  0  0  0  0  0  0  0  0  0
    5.0405   -4.3738   -7.7290 H   0  0  0  0  0  0  0  0  0  0  0  0
    4.5614   -5.9788   -7.0493 H   0  0  0  0  0  0  0  0  0  0  0  0
    5.5170   -5.8945   -8.5658 H   0  0  0  0  0  0  0  0  0  0  0  0
    5.1433   -2.9201   -9.5168 H   0  0  0  0  0  0  0  0  0  0  0  0
    4.8086   -3.3346  -11.2299 H   0  0  0  0  0  0  0  0  0  0  0  0
    5.2590   -0.5049  -10.0874 H   0  0  0  0  0  0  0  0  0  0  0  0
    6.3807   -1.4597  -11.1259 H   0  0  0  0  0  0  0  0  0  0  0  0
    4.8192   -0.8872  -11.8124 H   0  0  0  0  0  0  0  0  0  0  0  0
    5.3450    3.2540   -4.9780 H   0  0  0  0  0  0  0  0  0  0  0  0
    3.5946    0.4616   -1.7115 H   0  0  0  0  0  0  0  0  0  0  0  0
    2.3591    2.1524   -7.3548 H   0  0  0  0  0  0  0  0  0  0  0  0
    0.2761    3.4527   -6.8407 H   0  0  0  0  0  0  0  0  0  0  0  0
    0.2188    4.8341   -4.7979 H   0  0  0  0  0  0  0  0  0  0  0  0
    3.6524    7.2074   -4.2133 H   0  0  0  0  0  0  0  0  0  0  0  0
    2.8393    6.0006   -3.1394 H   0  0  0  0  0  0  0  0  0  0  0  0
    2.3726    7.7879   -1.4679 H   0  0  0  0  0  0  0  0  0  0  0  0
    3.0894    9.0326   -2.5730 H   0  0  0  0  0  0  0  0  0  0  0  0
    4.1370    7.7469   -1.8584 H   0  0  0  0  0  0  0  0  0  0  0  0
    2.7621    6.4124   -8.7512 H   0  0  0  0  0  0  0  0  0  0  0  0
    3.4735    2.1597  -13.4569 H   0  0  0  0  0  0  0  0  0  0  0  0
    3.3305    0.9139  -15.5820 H   0  0  0  0  0  0  0  0  0  0  0  0
    2.2721   -1.8795  -15.7131 H   0  0  0  0  0  0  0  0  0  0  0  0
    0.4748   -2.0003  -15.5070 H   0  0  0  0  0  0  0  0  0  0  0  0
    2.0500   -2.8013  -18.0394 H   0  0  0  0  0  0  0  0  0  0  0  0
    1.3937   -3.9331  -16.7918 H   0  0  0  0  0  0  0  0  0  0  0  0
    0.2589   -2.9499  -17.7952 H   0  0  0  0  0  0  0  0  0  0  0  0
   -0.8095    1.9170  -13.0365 H   0  0  0  0  0  0  0  0  0  0  0  0
    0.2378    4.6599  -13.6786 H   0  0  0  0  0  0  0  0  0  0  0  0
   -0.5426    6.9672  -12.7585 H   0  0  0  0  0  0  0  0  0  0  0  0
  1  2  2  0
  2  3  1  0
  3  4  2  0
  4  5  1  0
  5  6  2  0
  6  7  1  0
  7  8  2  0
  8  9  1  0
  9 10  1  0
 10 11  1  0
  8 12  1  0
 12 13  1  0
 12 14  2  0
  4 15  1  0
 15 16  2  0
 16 17  1  0
 17 18  1  0
 18 19  2  0
 19 20  1  0
 20 21  2  0
 21 22  1  0
 22 23  1  0
 23 24  1  0
 21 25  1  0
 25 26  2  0
 25 27  1  0
 17 28  2  0
 28 29  1  0
 16 30  1  0
 30 31  2  0
 31 32  1  0
 31 33  1  0
 33 34  2  0
 34 35  1  0
 35 36  2  0
 36 37  1  0
 37 38  2  0
 38 39  1  0
 39 40  2  0
 40 41  1  0
 41 42  1  0
 42 43  1  0
 40 44  1  0
 44 45  1  0
 44 46  2  0
 36 47  1  0
 47 48  2  0
 48 49  1  0
 49 50  1  0
 50 51  2  0
 51 52  1  0
 52 53  2  0
 53 54  1  0
 54 55  1  0
 55 56  1  0
 53 57  1  0
 57 58  2  0
 57 59  1  0
 49 60  2  0
 60 61  1  0
 48 62  1  0
 62 63  2  0
 63 64  1  0
 63 65  1  0
 65 66  2  0
 66 67  1  0
 67 68  2  0
 68 69  1  0
 69 70  2  0
 70 71  1  0
 71 72  2  0
 72 73  1  0
 73 74  1  0
 74 75  1  0
 72 76  1  0
 76 77  1  0
 76 78  2  0
 68 79  1  0
 79 80  2  0
 80 81  1  0
 81 82  1  0
 82 83  2  0
 83 84  1  0
 84 85  2  0
 85 86  1  0
 86 87  1  0
 87 88  1  0
 85 89  1  0
 89 90  2  0
 89 91  1  0
 81 92  2  0
 92 93  1  0
 80 94  1  0
 94 95  2  0
 95 96  1  0
 95 97  1  0
 97 98  2  0
 98 99  1  0
 99100  1  0
100101  1  0
 98102  1  0
102103  1  0
103104  1  0
104105  1  0
102106  2  0
106107  1  0
107108  2  0
108109  1  0
109110  2  0
109111  1  0
111112  1  0
112113  1  0
113114  2  0
112115  2  0
115116  1  0
116117  1  0
106118  1  0
118119  2  0
119120  1  0
120121  1  0
121122  1  0
119123  1  0
123124  1  0
124125  1  0
125126  1  0
123127  2  0
127128  1  0
128129  2  0
129130  1  0
130131  2  0
130132  1  0
132133  1  0
133134  1  0
134135  2  0
133136  2  0
136137  1  0
137138  1  0
127139  1  0
139140  2  0
140141  1  0
141142  2  0
142143  1  0
143144  2  0
144145  1  0
145146  2  0
146147  1  0
147148  1  0
148149  1  0
146150  1  0
150151  1  0
150152  2  0
142153  1  0
153154  2  0
154155  1  0
155156  1  0
156157  2  0
157158  1  0
158159  2  0
159160  1  0
160161  1  0
161162  1  0
159163  1  0
163164  2  0
163165  1  0
155166  2  0
166167  1  0
154168  1  0
168169  2  0
169170  1  0
 29  1  1  0
 61 33  1  0
 93 65  1  0
108 97  1  0
117111  2  0
129118  1  0
138132  2  0
167139  1  0
 28  3  1  0
 60 35  1  0
 92 67  1  0
113107  1  0
134128  1  0
166141  1  0
 14  5  1  0
 32 15  1  0
 46 37  1  0
 64 47  1  0
 78 69  1  0
 96 79  1  0
152143  1  0
170153  1  0
 26 18  1  0
 58 50  1  0
 90 82  1  0
164156  1  0
  1171  1  0
  2172  1  0
  6173  1  0
  7174  1  0
 10175  1  0
 10176  1  0
 11177  1  0
 11178  1  0
 11179  1  0
 14180  1  0
 19181  1  0
 20182  1  0
 23183  1  0
 23184  1  0
 24185  1  0
 24186  1  0
 24187  1  0
 26188  1  0
 30189  1  0
 34190  1  0
 38191  1  0
 39192  1  0
 42193  1  0
 42194  1  0
 43195  1  0
 43196  1  0
 43197  1  0
 46198  1  0
 51199  1  0
 52200  1  0
 55201  1  0
 55202  1  0
 56203  1  0
 56204  1  0
 56205  1  0
 58206  1  0
 62207  1  0
 66208  1  0
 70209  1  0
 71210  1  0
 74211  1  0
 74212  1  0
 75213  1  0
 75214  1  0
 75215  1  0
 78216  1  0
 83217  1  0
 84218  1  0
 87219  1  0
 87220  1  0
 88221  1  0
 88222  1  0
 88223  1  0
 90224  1  0
 94225  1  0
100226  1  0
100227  1  0
101228  1  0
101229  1  0
101230  1  0
104231  1  0
104232  1  0
105233  1  0
105234  1  0
105235  1  0
115236  1  0
117237  1  0
121238  1  0
121239  1  0
122240  1  0
122241  1  0
122242  1  0
125243  1  0
125244  1  0
126245  1  0
126246  1  0
126247  1  0
136248  1  0
138249  1  0
140250  1  0
144251  1  0
145252  1  0
148253  1  0
148254  1  0
149255  1  0
149256  1  0
149257  1  0
152258  1  0
157259  1  0
158260  1  0
161261  1  0
161262  1  0
162263  1  0
162264  1  0
162265  1  0
164266  1  0
168267  1  0
169268  1  0
M  END

