
     RDKit          3D

222248  0  0  0  0  0  0  0  0999 V2000
    0.5365    0.5919   10.7382 C   0  0  0  0  0  0  0  0  0  0  0  0
    0.0884    1.1753    9.5540 C   0  0  0  0  0  0  0  0  0  0  0  0
   -0.3982    0.2394    8.6281 C   0  0  0  0  0  0  0  0  0  0  0  0
   -0.9003    0.5198    7.3436 C   0  0  0  0  0  0  0  0  0  0  0  0
   -0.9421    1.8844    6.7840 C   0  0  0  0  0  0  0  0  0  0  0  0
   -2.3420    2.6430    6.2352 S   0  0  0  0  0  0  0  0  0  0  0  0
   -1.5716    3.9686    5.5466 C   0  0  0  0  0  0  0  0  0  0  0  0
   -2.2659    5.0107    4.7210 C   0  0  0  0  0  0  0  0  0  0  0  0
   -2.4118    4.5396    3.2772 C   0  0  0  0  0  0  0  0  0  0  0  0
   -0.1946    3.8230    5.7092 C   0  0  0  0  0  0  0  0  0  0  0  0
    0.9889    4.9379    5.0458 Cl  0  0  0  0  0  0  0  0  0  0  0  0
    0.1562    2.6532    6.4154 C   0  0  0  0  0  0  0  0  0  0  0  0
    1.8215    2.1525    6.6683 Cl  0  0  0  0  0  0  0  0  0  0  0  0
   -1.3312   -0.5786    6.5825 C   0  0  0  0  0  0  0  0  0  0  0  0
   -1.2697   -1.8992    7.0437 C   0  0  0  0  0  0  0  0  0  0  0  0
   -0.7768   -2.1753    8.3325 C   0  0  0  0  0  0  0  0  0  0  0  0
   -0.6915   -3.5474    8.8579 C   0  0  0  0  0  0  0  0  0  0  0  0
    0.3626   -4.7308    8.2867 S   0  0  0  0  0  0  0  0  0  0  0  0
   -0.1081   -5.9271    9.3730 C   0  0  0  0  0  0  0  0  0  0  0  0
    0.5282   -7.2770    9.4726 C   0  0  0  0  0  0  0  0  0  0  0  0
    1.8092   -7.2008   10.2967 C   0  0  0  0  0  0  0  0  0  0  0  0
   -1.0865   -5.4054   10.2173 C   0  0  0  0  0  0  0  0  0  0  0  0
   -1.4230   -4.0734    9.9192 C   0  0  0  0  0  0  0  0  0  0  0  0
   -2.6666   -3.1752   10.7830 Cl  0  0  0  0  0  0  0  0  0  0  0  0
   -1.8340   -6.3142   11.5250 Cl  0  0  0  0  0  0  0  0  0  0  0  0
   -0.3464   -1.0762    9.0975 C   0  0  0  0  0  0  0  0  0  0  0  0
    0.3219   -1.0781   10.6439 S   0  0  0  0  0  0  0  0  0  0  0  0
   -1.7471   -2.8397    6.1061 C   0  0  0  0  0  0  0  0  0  0  0  0
   -2.1817   -2.2432    4.9205 C   0  0  0  0  0  0  0  0  0  0  0  0
   -1.9609   -0.5738    5.0269 S   0  0  0  0  0  0  0  0  0  0  0  0
   -2.7596   -2.9067    3.7468 C   0  0  0  0  0  0  0  0  0  0  0  0
   -2.7666   -4.2776    3.4655 C   0  0  0  0  0  0  0  0  0  0  0  0
   -3.3511   -4.5741    2.2150 C   0  0  0  0  0  0  0  0  0  0  0  0
   -3.5023   -5.8480    1.6251 C   0  0  0  0  0  0  0  0  0  0  0  0
   -3.1248   -7.0788    2.3472 C   0  0  0  0  0  0  0  0  0  0  0  0
   -3.8110   -7.5681    3.8067 S   0  0  0  0  0  0  0  0  0  0  0  0
   -2.8309   -8.9184    4.0281 C   0  0  0  0  0  0  0  0  0  0  0  0
   -2.9117   -9.8460    5.2046 C   0  0  0  0  0  0  0  0  0  0  0  0
   -3.9034  -10.9724    4.9403 C   0  0  0  0  0  0  0  0  0  0  0  0
   -1.9544   -9.0103    2.9468 C   0  0  0  0  0  0  0  0  0  0  0  0
   -0.7557  -10.2911    2.7813 Cl  0  0  0  0  0  0  0  0  0  0  0  0
   -2.1123   -7.9746    2.0117 C   0  0  0  0  0  0  0  0  0  0  0  0
   -1.0663   -7.7757    0.6120 Cl  0  0  0  0  0  0  0  0  0  0  0  0
   -4.0635   -5.8881    0.3280 C   0  0  0  0  0  0  0  0  0  0  0  0
   -4.4983   -4.7340   -0.3339 C   0  0  0  0  0  0  0  0  0  0  0  0
   -4.3658   -3.4713    0.2665 C   0  0  0  0  0  0  0  0  0  0  0  0
   -4.8489   -2.2373   -0.3670 C   0  0  0  0  0  0  0  0  0  0  0  0
   -3.8546   -1.0311   -1.0046 S   0  0  0  0  0  0  0  0  0  0  0  0
   -5.0726    0.1120   -1.2034 C   0  0  0  0  0  0  0  0  0  0  0  0
   -4.8390    1.5228   -1.6463 C   0  0  0  0  0  0  0  0  0  0  0  0
   -4.5665    2.4222   -0.4460 C   0  0  0  0  0  0  0  0  0  0  0  0
   -6.2696   -0.4168   -0.7238 C   0  0  0  0  0  0  0  0  0  0  0  0
   -6.1419   -1.7404   -0.2637 C   0  0  0  0  0  0  0  0  0  0  0  0
   -7.4552   -2.6362    0.4875 Cl  0  0  0  0  0  0  0  0  0  0  0  0
   -7.7608    0.5016   -0.5839 Cl  0  0  0  0  0  0  0  0  0  0  0  0
   -3.7801   -3.4292    1.5352 C   0  0  0  0  0  0  0  0  0  0  0  0
   -3.4762   -2.0744    2.4742 S   0  0  0  0  0  0  0  0  0  0  0  0
   -5.0098   -4.9814   -1.6110 C   0  0  0  0  0  0  0  0  0  0  0  0
   -4.9788   -6.3280   -1.9564 C   0  0  0  0  0  0  0  0  0  0  0  0
   -4.3146   -7.2178   -0.6848 S   0  0  0  0  0  0  0  0  0  0  0  0
   -5.2332   -6.8163   -3.3169 C   0  0  0  0  0  0  0  0  0  0  0  0
   -4.1679   -6.4693   -4.5876 S   0  0  0  0  0  0  0  0  0  0  0  0
   -5.2672   -6.2422   -5.8637 C   0  0  0  0  0  0  0  0  0  0  0  0
   -6.4936   -6.4324   -5.2417 C   0  0  0  0  0  0  0  0  0  0  0  0
   -6.4749   -6.7240   -3.9252 C   0  0  0  0  0  0  0  0  0  0  0  0
   -7.7490   -6.6488   -3.4085 O   0  0  0  0  0  0  0  0  0  0  0  0
   -8.6345   -6.3230   -4.4952 C   0  0  0  0  0  0  0  0  0  0  0  0
   -7.7837   -6.1626   -5.6416 O   0  0  0  0  0  0  0  0  0  0  0  0
   -5.0243   -5.2369   -6.9129 C   0  0  0  0  0  0  0  0  0  0  0  0
   -3.7539   -4.9894   -7.4427 C   0  0  0  0  0  0  0  0  0  0  0  0
   -3.5240   -3.6335   -7.7341 C   0  0  0  0  0  0  0  0  0  0  0  0
   -2.2794   -3.0643   -8.0532 C   0  0  0  0  0  0  0  0  0  0  0  0
   -1.1284   -3.8917   -8.4571 C   0  0  0  0  0  0  0  0  0  0  0  0
    0.2439   -4.1844   -7.5310 S   0  0  0  0  0  0  0  0  0  0  0  0
    1.0778   -5.0394   -8.7203 C   0  0  0  0  0  0  0  0  0  0  0  0
    2.4603   -5.6028   -8.5490 C   0  0  0  0  0  0  0  0  0  0  0  0
    2.4272   -6.8977   -7.7442 C   0  0  0  0  0  0  0  0  0  0  0  0
    0.2781   -5.1126   -9.8618 C   0  0  0  0  0  0  0  0  0  0  0  0
    0.7933   -5.8495  -11.3712 Cl  0  0  0  0  0  0  0  0  0  0  0  0
   -0.9652   -4.4766   -9.7105 C   0  0  0  0  0  0  0  0  0  0  0  0
   -2.1452   -4.3249  -11.0047 Cl  0  0  0  0  0  0  0  0  0  0  0  0
   -2.1564   -1.6758   -7.8911 C   0  0  0  0  0  0  0  0  0  0  0  0
   -3.2273   -0.8678   -7.5041 C   0  0  0  0  0  0  0  0  0  0  0  0
   -4.5124   -1.4127   -7.3417 C   0  0  0  0  0  0  0  0  0  0  0  0
   -5.6468   -0.5604   -6.9405 C   0  0  0  0  0  0  0  0  0  0  0  0
   -6.2451    0.7000   -7.8794 S   0  0  0  0  0  0  0  0  0  0  0  0
   -7.3042    1.3099   -6.7281 C   0  0  0  0  0  0  0  0  0  0  0  0
   -8.1554    2.5290   -6.9267 C   0  0  0  0  0  0  0  0  0  0  0  0
   -9.3778    2.2087   -7.7790 C   0  0  0  0  0  0  0  0  0  0  0  0
   -7.2079    0.5276   -5.5789 C   0  0  0  0  0  0  0  0  0  0  0  0
   -6.2610   -0.5058   -5.6873 C   0  0  0  0  0  0  0  0  0  0  0  0
   -5.8168   -1.5193   -4.3239 Cl  0  0  0  0  0  0  0  0  0  0  0  0
   -8.1497    0.8144   -4.1213 Cl  0  0  0  0  0  0  0  0  0  0  0  0
   -4.6221   -2.8147   -7.4469 C   0  0  0  0  0  0  0  0  0  0  0  0
   -5.8762   -3.7778   -6.8987 S   0  0  0  0  0  0  0  0  0  0  0  0
   -2.8292    0.4116   -7.0748 C   0  0  0  0  0  0  0  0  0  0  0  0
   -1.4511    0.6013   -7.0941 C   0  0  0  0  0  0  0  0  0  0  0  0
   -0.7408   -0.7941   -7.7168 S   0  0  0  0  0  0  0  0  0  0  0  0
   -0.7961    1.3025   -5.9973 C   0  0  0  0  0  0  0  0  0  0  0  0
   -0.1219    2.5222   -6.0447 C   0  0  0  0  0  0  0  0  0  0  0  0
    0.5846    2.7857   -4.8539 C   0  0  0  0  0  0  0  0  0  0  0  0
    1.3994    3.9077   -4.5884 C   0  0  0  0  0  0  0  0  0  0  0  0
    1.4238    5.0666   -5.4963 C   0  0  0  0  0  0  0  0  0  0  0  0
    0.0777    6.0134   -5.8436 S   0  0  0  0  0  0  0  0  0  0  0  0
    0.8295    6.9840   -6.9890 C   0  0  0  0  0  0  0  0  0  0  0  0
    0.1418    8.0728   -7.7617 C   0  0  0  0  0  0  0  0  0  0  0  0
    0.0604    9.3564   -6.9431 C   0  0  0  0  0  0  0  0  0  0  0  0
    2.1594    6.5830   -7.1074 C   0  0  0  0  0  0  0  0  0  0  0  0
    3.3143    7.3379   -8.1967 Cl  0  0  0  0  0  0  0  0  0  0  0  0
    2.4926    5.5040   -6.2705 C   0  0  0  0  0  0  0  0  0  0  0  0
    4.0614    4.7154   -6.2883 Cl  0  0  0  0  0  0  0  0  0  0  0  0
    2.1431    3.8829   -3.3862 C   0  0  0  0  0  0  0  0  0  0  0  0
    2.0398    2.8300   -2.4719 C   0  0  0  0  0  0  0  0  0  0  0  0
    1.1637    1.7594   -2.6980 C   0  0  0  0  0  0  0  0  0  0  0  0
    0.9935    0.6755   -1.7141 C   0  0  0  0  0  0  0  0  0  0  0  0
    0.2022    0.8484   -0.2404 S   0  0  0  0  0  0  0  0  0  0  0  0
    0.4161   -0.7430    0.2638 C   0  0  0  0  0  0  0  0  0  0  0  0
   -0.0647   -1.2886    1.5739 C   0  0  0  0  0  0  0  0  0  0  0  0
    1.0759   -1.3650    2.5872 C   0  0  0  0  0  0  0  0  0  0  0  0
    1.1302   -1.4290   -0.7164 C   0  0  0  0  0  0  0  0  0  0  0  0
    1.4515   -0.6345   -1.8268 C   0  0  0  0  0  0  0  0  0  0  0  0
    2.3928   -1.2233   -3.1953 Cl  0  0  0  0  0  0  0  0  0  0  0  0
    1.5836   -3.1214   -0.5856 Cl  0  0  0  0  0  0  0  0  0  0  0  0
    0.4640    1.7595   -3.9080 C   0  0  0  0  0  0  0  0  0  0  0  0
   -0.5401    0.5633   -4.5072 S   0  0  0  0  0  0  0  0  0  0  0  0
    2.9212    2.9308   -1.3963 C   0  0  0  0  0  0  0  0  0  0  0  0
    3.7190    4.0626   -1.4534 C   0  0  0  0  0  0  0  0  0  0  0  0
    3.3254    4.9616   -2.8290 S   0  0  0  0  0  0  0  0  0  0  0  0
    4.8786    4.2537   -0.5781 C   0  0  0  0  0  0  0  0  0  0  0  0
    5.6437    3.1985   -0.0891 C   0  0  0  0  0  0  0  0  0  0  0  0
    6.6103    3.5956    0.8387 C   0  0  0  0  0  0  0  0  0  0  0  0
    7.4948    2.7346    1.5103 C   0  0  0  0  0  0  0  0  0  0  0  0
    7.4189    1.2689    1.3582 C   0  0  0  0  0  0  0  0  0  0  0  0
    8.6117    0.3102    0.6591 S   0  0  0  0  0  0  0  0  0  0  0  0
    7.7377   -1.1306    0.7193 C   0  0  0  0  0  0  0  0  0  0  0  0
    8.2478   -2.4570    0.2477 C   0  0  0  0  0  0  0  0  0  0  0  0
    8.9669   -3.1937    1.3721 C   0  0  0  0  0  0  0  0  0  0  0  0
    6.4993   -0.8773    1.3053 C   0  0  0  0  0  0  0  0  0  0  0  0
    5.2730   -2.1134    1.5620 Cl  0  0  0  0  0  0  0  0  0  0  0  0
    6.3162    0.4664    1.6617 C   0  0  0  0  0  0  0  0  0  0  0  0
    4.8530    1.0672    2.4296 Cl  0  0  0  0  0  0  0  0  0  0  0  0
    8.4175    3.3345    2.3765 C   0  0  0  0  0  0  0  0  0  0  0  0
    8.4295    4.7155    2.6301 C   0  0  0  0  0  0  0  0  0  0  0  0
    7.5049    5.5730    1.9881 C   0  0  0  0  0  0  0  0  0  0  0  0
    7.3986    7.0005    2.3421 C   0  0  0  0  0  0  0  0  0  0  0  0
    8.6160    8.1441    2.1281 S   0  0  0  0  0  0  0  0  0  0  0  0
    7.8769    9.3808    2.9992 C   0  0  0  0  0  0  0  0  0  0  0  0
    8.5202   10.7023    3.3045 C   0  0  0  0  0  0  0  0  0  0  0  0
    8.6921   11.5365    2.0361 C   0  0  0  0  0  0  0  0  0  0  0  0
    6.6511    8.9078    3.4741 C   0  0  0  0  0  0  0  0  0  0  0  0
    6.3912    7.5694    3.1122 C   0  0  0  0  0  0  0  0  0  0  0  0
    5.0003    6.6718    3.7063 Cl  0  0  0  0  0  0  0  0  0  0  0  0
    5.5720    9.8438    4.4983 Cl  0  0  0  0  0  0  0  0  0  0  0  0
    6.6186    4.9721    1.0710 C   0  0  0  0  0  0  0  0  0  0  0  0
    5.4145    5.7017    0.1190 S   0  0  0  0  0  0  0  0  0  0  0  0
    9.3965    5.0864    3.5838 C   0  0  0  0  0  0  0  0  0  0  0  0
   10.1404    4.0116    4.0575 C   0  0  0  0  0  0  0  0  0  0  0  0
    9.5931    2.5930    3.3228 S   0  0  0  0  0  0  0  0  0  0  0  0
    0.9569    1.1311   11.5781 H   0  0  0  0  0  0  0  0  0  0  0  0
    0.1303    2.2382    9.3693 H   0  0  0  0  0  0  0  0  0  0  0  0
   -1.6985    5.9636    4.7501 H   0  0  0  0  0  0  0  0  0  0  0  0
   -3.2730    5.2033    5.1462 H   0  0  0  0  0  0  0  0  0  0  0  0
   -1.4108    4.3516    2.8284 H   0  0  0  0  0  0  0  0  0  0  0  0
   -3.0097    3.6059    3.2379 H   0  0  0  0  0  0  0  0  0  0  0  0
   -2.9337    5.3197    2.6841 H   0  0  0  0  0  0  0  0  0  0  0  0
   -0.1707   -7.9994    9.9392 H   0  0  0  0  0  0  0  0  0  0  0  0
    0.7677   -7.6461    8.4547 H   0  0  0  0  0  0  0  0  0  0  0  0
    1.5926   -6.7965   11.3074 H   0  0  0  0  0  0  0  0  0  0  0  0
    2.2495   -8.2142   10.3963 H   0  0  0  0  0  0  0  0  0  0  0  0
    2.5504   -6.5391    9.7928 H   0  0  0  0  0  0  0  0  0  0  0  0
   -1.7992   -3.9075    6.2872 H   0  0  0  0  0  0  0  0  0  0  0  0
   -2.3405   -5.0215    4.1271 H   0  0  0  0  0  0  0  0  0  0  0  0
   -1.9085  -10.2773    5.4205 H   0  0  0  0  0  0  0  0  0  0  0  0
   -3.2385   -9.2740    6.1010 H   0  0  0  0  0  0  0  0  0  0  0  0
   -3.9328  -11.6549    5.8130 H   0  0  0  0  0  0  0  0  0  0  0  0
   -3.6011  -11.5469    4.0418 H   0  0  0  0  0  0  0  0  0  0  0  0
   -4.9250  -10.5537    4.7821 H   0  0  0  0  0  0  0  0  0  0  0  0
   -3.9673    1.5545   -2.3337 H   0  0  0  0  0  0  0  0  0  0  0  0
   -5.7234    1.8985   -2.1945 H   0  0  0  0  0  0  0  0  0  0  0  0
   -3.6560    2.0805    0.0900 H   0  0  0  0  0  0  0  0  0  0  0  0
   -5.4309    2.4032    0.2538 H   0  0  0  0  0  0  0  0  0  0  0  0
   -4.4070    3.4654   -0.7889 H   0  0  0  0  0  0  0  0  0  0  0  0
   -5.3457   -4.2031   -2.2898 H   0  0  0  0  0  0  0  0  0  0  0  0
   -9.3514   -7.1536   -4.6680 H   0  0  0  0  0  0  0  0  0  0  0  0
   -9.1681   -5.3742   -4.2802 H   0  0  0  0  0  0  0  0  0  0  0  0
   -2.9647   -5.7304   -7.4268 H   0  0  0  0  0  0  0  0  0  0  0  0
    3.0893   -4.8533   -8.0195 H   0  0  0  0  0  0  0  0  0  0  0  0
    2.9241   -5.7958   -9.5375 H   0  0  0  0  0  0  0  0  0  0  0  0
    1.8463   -7.6775   -8.2866 H   0  0  0  0  0  0  0  0  0  0  0  0
    3.4690   -7.2620   -7.6080 H   0  0  0  0  0  0  0  0  0  0  0  0
    1.9863   -6.7292   -6.7426 H   0  0  0  0  0  0  0  0  0  0  0  0
   -8.4753    2.9460   -5.9495 H   0  0  0  0  0  0  0  0  0  0  0  0
   -7.5479    3.3093   -7.4361 H   0  0  0  0  0  0  0  0  0  0  0  0
   -9.0617    1.8607   -8.7862 H   0  0  0  0  0  0  0  0  0  0  0  0
   -9.9863    1.4180   -7.2871 H   0  0  0  0  0  0  0  0  0  0  0  0
   -9.9978    3.1198   -7.8951 H   0  0  0  0  0  0  0  0  0  0  0  0
   -3.4918    1.0947   -6.5616 H   0  0  0  0  0  0  0  0  0  0  0  0
   -0.0947    3.1459   -6.9241 H   0  0  0  0  0  0  0  0  0  0  0  0
   -0.8862    7.7409   -8.0271 H   0  0  0  0  0  0  0  0  0  0  0  0
    0.6794    8.2731   -8.7138 H   0  0  0  0  0  0  0  0  0  0  0  0
   -0.5922    9.1925   -6.0590 H   0  0  0  0  0  0  0  0  0  0  0  0
    1.0713    9.6814   -6.6117 H   0  0  0  0  0  0  0  0  0  0  0  0
   -0.3909   10.1568   -7.5726 H   0  0  0  0  0  0  0  0  0  0  0  0
   -0.4901   -2.3022    1.4224 H   0  0  0  0  0  0  0  0  0  0  0  0
   -0.8584   -0.6255    1.9800 H   0  0  0  0  0  0  0  0  0  0  0  0
    1.8401   -2.1085    2.2632 H   0  0  0  0  0  0  0  0  0  0  0  0
    1.5620   -0.3692    2.7015 H   0  0  0  0  0  0  0  0  0  0  0  0
    0.6742   -1.6586    3.5736 H   0  0  0  0  0  0  0  0  0  0  0  0
    3.0093    2.1789   -0.6228 H   0  0  0  0  0  0  0  0  0  0  0  0
    5.4917    2.1706   -0.3926 H   0  0  0  0  0  0  0  0  0  0  0  0
    8.9434   -2.3073   -0.6021 H   0  0  0  0  0  0  0  0  0  0  0  0
    7.4037   -3.0809   -0.1215 H   0  0  0  0  0  0  0  0  0  0  0  0
    9.8674   -2.6266    1.6886 H   0  0  0  0  0  0  0  0  0  0  0  0
    9.2804   -4.1933    1.0116 H   0  0  0  0  0  0  0  0  0  0  0  0
    8.2874   -3.3268    2.2392 H   0  0  0  0  0  0  0  0  0  0  0  0
    9.5162   10.5161    3.7654 H   0  0  0  0  0  0  0  0  0  0  0  0
    7.9159   11.2783    4.0358 H   0  0  0  0  0  0  0  0  0  0  0  0
    7.6977   11.8515    1.6511 H   0  0  0  0  0  0  0  0  0  0  0  0
    9.2283   10.9521    1.2583 H   0  0  0  0  0  0  0  0  0  0  0  0
    9.2974   12.4334    2.2654 H   0  0  0  0  0  0  0  0  0  0  0  0
    9.5580    6.0923    3.9354 H   0  0  0  0  0  0  0  0  0  0  0  0
   10.9341    4.0747    4.7866 H   0  0  0  0  0  0  0  0  0  0  0  0
  1  2  2  0
  2  3  1  0
  3  4  2  0
  4  5  1  0
  5  6  1  0
  6  7  1  0
  7  8  1  0
  8  9  1  0
  7 10  2  0
 10 11  1  0
 10 12  1  0
 12 13  1  0
  4 14  1  0
 14 15  2  0
 15 16  1  0
 16 17  1  0
 17 18  1  0
 18 19  1  0
 19 20  1  0
 20 21  1  0
 19 22  2  0
 22 23  1  0
 23 24  1  0
 22 25  1  0
 16 26  2  0
 26 27  1  0
 15 28  1  0
 28 29  2  0
 29 30  1  0
 29 31  1  0
 31 32  2  0
 32 33  1  0
 33 34  2  0
 34 35  1  0
 35 36  1  0
 36 37  1  0
 37 38  1  0
 38 39  1  0
 37 40  2  0
 40 41  1  0
 40 42  1  0
 42 43  1  0
 34 44  1  0
 44 45  2  0
 45 46  1  0
 46 47  1  0
 47 48  1  0
 48 49  1  0
 49 50  1  0
 50 51  1  0
 49 52  2  0
 52 53  1  0
 53 54  1  0
 52 55  1  0
 46 56  2  0
 56 57  1  0
 45 58  1  0
 58 59  2  0
 59 60  1  0
 59 61  1  0
 61 62  1  0
 62 63  1  0
 63 64  2  0
 64 65  1  0
 65 66  1  0
 66 67  1  0
 67 68  1  0
 63 69  1  0
 69 70  2  0
 70 71  1  0
 71 72  2  0
 72 73  1  0
 73 74  1  0
 74 75  1  0
 75 76  1  0
 76 77  1  0
 75 78  2  0
 78 79  1  0
 78 80  1  0
 80 81  1  0
 72 82  1  0
 82 83  2  0
 83 84  1  0
 84 85  1  0
 85 86  1  0
 86 87  1  0
 87 88  1  0
 88 89  1  0
 87 90  2  0
 90 91  1  0
 91 92  1  0
 90 93  1  0
 84 94  2  0
 94 95  1  0
 83 96  1  0
 96 97  2  0
 97 98  1  0
 97 99  1  0
 99100  2  0
100101  1  0
101102  2  0
102103  1  0
103104  1  0
104105  1  0
105106  1  0
106107  1  0
105108  2  0
108109  1  0
108110  1  0
110111  1  0
102112  1  0
112113  2  0
113114  1  0
114115  1  0
115116  1  0
116117  1  0
117118  1  0
118119  1  0
117120  2  0
120121  1  0
121122  1  0
120123  1  0
114124  2  0
124125  1  0
113126  1  0
126127  2  0
127128  1  0
127129  1  0
129130  2  0
130131  1  0
131132  2  0
132133  1  0
133134  1  0
134135  1  0
135136  1  0
136137  1  0
135138  2  0
138139  1  0
138140  1  0
140141  1  0
132142  1  0
142143  2  0
143144  1  0
144145  1  0
145146  1  0
146147  1  0
147148  1  0
148149  1  0
147150  2  0
150151  1  0
151152  1  0
150153  1  0
144154  2  0
154155  1  0
143156  1  0
156157  2  0
157158  1  0
 27  1  1  0
 57 31  1  0
 65 61  2  0
 95 69  1  0
125 99  1  0
155129  1  0
 26  3  1  0
 56 33  1  0
 68 64  1  0
 94 71  1  0
124101  1  0
154131  1  0
 12  5  2  0
 30 14  1  0
 42 35  2  0
 60 44  1  0
 80 73  2  0
 98 82  1  0
110103  2  0
128112  1  0
140133  2  0
158142  1  0
 23 17  2  0
 53 47  2  0
 91 85  2  0
121115  2  0
151145  2  0
  1159  1  0
  2160  1  0
  8161  1  0
  8162  1  0
  9163  1  0
  9164  1  0
  9165  1  0
 20166  1  0
 20167  1  0
 21168  1  0
 21169  1  0
 21170  1  0
 28171  1  0
 32172  1  0
 38173  1  0
 38174  1  0
 39175  1  0
 39176  1  0
 39177  1  0
 50178  1  0
 50179  1  0
 51180  1  0
 51181  1  0
 51182  1  0
 58183  1  0
 67184  1  0
 67185  1  0
 70186  1  0
 76187  1  0
 76188  1  0
 77189  1  0
 77190  1  0
 77191  1  0
 88192  1  0
 88193  1  0
 89194  1  0
 89195  1  0
 89196  1  0
 96197  1  0
100198  1  0
106199  1  0
106200  1  0
107201  1  0
107202  1  0
107203  1  0
118204  1  0
118205  1  0
119206  1  0
119207  1  0
119208  1  0
126209  1  0
130210  1  0
136211  1  0
136212  1  0
137213  1  0
137214  1  0
137215  1  0
148216  1  0
148217  1  0
149218  1  0
149219  1  0
149220  1  0
156221  1  0
157222  1  0
M  END

