
     RDKit          3D

 95103  0  0  0  0  0  0  0  0999 V2000
   -0.3032    1.8475    6.9992 C   0  0  0  0  0  0  0  0  0  0  0  0
   -1.2688    0.6329    7.6388 S   0  0  0  0  0  0  0  0  0  0  0  0
   -2.7282    1.1590    6.9903 C   0  0  0  0  0  0  0  0  0  0  0  0
   -2.4862    2.3240    6.2464 C   0  0  0  0  0  0  0  0  0  0  0  0
   -1.1210    2.6973    6.2540 C   0  0  0  0  0  0  0  0  0  0  0  0
   -0.6757    3.8328    5.5526 C   0  0  0  0  0  0  0  0  0  0  0  0
    0.7719    4.2453    5.5626 C   0  0  0  0  0  0  0  0  0  0  0  0
   -1.6172    4.5922    4.8416 C   0  0  0  0  0  0  0  0  0  0  0  0
   -2.9670    4.2203    4.8130 C   0  0  0  0  0  0  0  0  0  0  0  0
   -3.4238    3.0827    5.5044 C   0  0  0  0  0  0  0  0  0  0  0  0
   -4.8788    2.7105    5.4092 C   0  0  0  0  0  0  0  0  0  0  0  0
   -4.0114    0.4932    7.2577 C   0  0  0  0  0  0  0  0  0  0  0  0
   -4.3286   -0.7272    6.8055 C   0  0  0  0  0  0  0  0  0  0  0  0
   -3.5350   -1.5057    5.8260 C   0  0  0  0  0  0  0  0  0  0  0  0
   -3.5844   -2.8885    5.6557 C   0  0  0  0  0  0  0  0  0  0  0  0
   -4.3574   -3.7728    6.4878 C   0  0  0  0  0  0  0  0  0  0  0  0
   -4.9740   -4.4863    7.1556 N   0  0  0  0  0  0  0  0  0  0  0  0
   -2.7939   -3.3603    4.5999 C   0  0  0  0  0  0  0  0  0  0  0  0
   -2.1447   -2.3456    3.8993 C   0  0  0  0  0  0  0  0  0  0  0  0
   -2.5371   -0.8772    4.6205 S   0  0  0  0  0  0  0  0  0  0  0  0
   -1.2223   -2.4935    2.7554 C   0  0  0  0  0  0  0  0  0  0  0  0
   -1.1039   -3.5654    1.8627 C   0  0  0  0  0  0  0  0  0  0  0  0
   -1.9426   -4.7347    1.8712 C   0  0  0  0  0  0  0  0  0  0  0  0
   -2.6179   -5.6767    1.8778 N   0  0  0  0  0  0  0  0  0  0  0  0
   -0.1140   -3.3793    0.8881 C   0  0  0  0  0  0  0  0  0  0  0  0
    0.5651   -2.1753    1.0215 C   0  0  0  0  0  0  0  0  0  0  0  0
   -0.1036   -1.3180    2.2995 S   0  0  0  0  0  0  0  0  0  0  0  0
    1.6014   -1.6705    0.1129 C   0  0  0  0  0  0  0  0  0  0  0  0
    1.3841   -0.2814   -0.8009 S   0  0  0  0  0  0  0  0  0  0  0  0
    2.7463   -0.4514   -1.7706 C   0  0  0  0  0  0  0  0  0  0  0  0
    3.4198   -1.6258   -1.3883 C   0  0  0  0  0  0  0  0  0  0  0  0
    2.7916   -2.2960   -0.3021 C   0  0  0  0  0  0  0  0  0  0  0  0
    3.4063   -3.4340    0.2803 C   0  0  0  0  0  0  0  0  0  0  0  0
    2.9219   -4.0888    1.5495 C   0  0  0  0  0  0  0  0  0  0  0  0
    4.5610   -3.9527   -0.3234 C   0  0  0  0  0  0  0  0  0  0  0  0
    5.1324   -3.3395   -1.4392 C   0  0  0  0  0  0  0  0  0  0  0  0
    4.5782   -2.1755   -1.9920 C   0  0  0  0  0  0  0  0  0  0  0  0
    5.2293   -1.5935   -3.2184 C   0  0  0  0  0  0  0  0  0  0  0  0
    3.1755    0.5668   -2.7462 C   0  0  0  0  0  0  0  0  0  0  0  0
    2.4068    1.0266   -3.7431 C   0  0  0  0  0  0  0  0  0  0  0  0
    1.0823    0.4769   -4.0999 C   0  0  0  0  0  0  0  0  0  0  0  0
    0.7672   -1.1712   -4.1718 S   0  0  0  0  0  0  0  0  0  0  0  0
   -0.7644   -1.0790   -4.8452 C   0  0  0  0  0  0  0  0  0  0  0  0
   -1.0750    0.2781   -5.0509 C   0  0  0  0  0  0  0  0  0  0  0  0
   -0.0388    1.1565   -4.6209 C   0  0  0  0  0  0  0  0  0  0  0  0
   -0.2158    2.5614   -4.7172 C   0  0  0  0  0  0  0  0  0  0  0  0
    0.7867    3.5613   -4.2072 C   0  0  0  0  0  0  0  0  0  0  0  0
   -1.3823    3.0545   -5.3182 C   0  0  0  0  0  0  0  0  0  0  0  0
   -2.3750    2.1916   -5.7809 C   0  0  0  0  0  0  0  0  0  0  0  0
   -2.2418    0.7993   -5.6672 C   0  0  0  0  0  0  0  0  0  0  0  0
   -3.3418   -0.0668   -6.2244 C   0  0  0  0  0  0  0  0  0  0  0  0
   -1.6280   -2.2600   -5.0237 C   0  0  0  0  0  0  0  0  0  0  0  0
   -1.2176   -3.4180   -5.5603 C   0  0  0  0  0  0  0  0  0  0  0  0
    0.0976   -3.6283   -6.1974 C   0  0  0  0  0  0  0  0  0  0  0  0
    0.7102   -2.8559   -7.1883 C   0  0  0  0  0  0  0  0  0  0  0  0
    0.1135   -1.6990   -7.8049 C   0  0  0  0  0  0  0  0  0  0  0  0
   -0.3640   -0.7716   -8.3047 N   0  0  0  0  0  0  0  0  0  0  0  0
    1.9457   -3.3661   -7.6079 C   0  0  0  0  0  0  0  0  0  0  0  0
    2.3042   -4.5438   -6.9677 C   0  0  0  0  0  0  0  0  0  0  0  0
    1.0825   -4.9535   -5.8863 S   0  0  0  0  0  0  0  0  0  0  0  0
    0.7644    1.9375    7.1435 H   0  0  0  0  0  0  0  0  0  0  0  0
    1.4005    3.4242    5.1582 H   0  0  0  0  0  0  0  0  0  0  0  0
    1.0903    4.4730    6.6034 H   0  0  0  0  0  0  0  0  0  0  0  0
    0.9403    5.1474    4.9353 H   0  0  0  0  0  0  0  0  0  0  0  0
   -1.3075    5.4780    4.3010 H   0  0  0  0  0  0  0  0  0  0  0  0
   -3.6589    4.8268    4.2417 H   0  0  0  0  0  0  0  0  0  0  0  0
   -4.9852    1.6792    5.0161 H   0  0  0  0  0  0  0  0  0  0  0  0
   -5.4321    3.3815    4.7171 H   0  0  0  0  0  0  0  0  0  0  0  0
   -5.3528    2.7872    6.4082 H   0  0  0  0  0  0  0  0  0  0  0  0
   -4.7068    0.9958    7.9201 H   0  0  0  0  0  0  0  0  0  0  0  0
   -5.2494   -1.1700    7.1661 H   0  0  0  0  0  0  0  0  0  0  0  0
   -2.6925   -4.4132    4.3793 H   0  0  0  0  0  0  0  0  0  0  0  0
    0.0913   -4.0929    0.1009 H   0  0  0  0  0  0  0  0  0  0  0  0
    2.5676   -3.3317    2.2786 H   0  0  0  0  0  0  0  0  0  0  0  0
    3.7469   -4.6398    2.0477 H   0  0  0  0  0  0  0  0  0  0  0  0
    2.1231   -4.8181    1.3174 H   0  0  0  0  0  0  0  0  0  0  0  0
    5.0415   -4.8359    0.0826 H   0  0  0  0  0  0  0  0  0  0  0  0
    6.0246   -3.7778   -1.8681 H   0  0  0  0  0  0  0  0  0  0  0  0
    5.7839   -0.6713   -2.9553 H   0  0  0  0  0  0  0  0  0  0  0  0
    4.4625   -1.3824   -3.9900 H   0  0  0  0  0  0  0  0  0  0  0  0
    5.9537   -2.3041   -3.6724 H   0  0  0  0  0  0  0  0  0  0  0  0
    4.1692    0.9782   -2.6357 H   0  0  0  0  0  0  0  0  0  0  0  0
    2.8234    1.7958   -4.3778 H   0  0  0  0  0  0  0  0  0  0  0  0
    1.6334    3.6365   -4.9191 H   0  0  0  0  0  0  0  0  0  0  0  0
    1.1389    3.2811   -3.1952 H   0  0  0  0  0  0  0  0  0  0  0  0
    0.3380    4.5711   -4.1202 H   0  0  0  0  0  0  0  0  0  0  0  0
   -1.5341    4.1229   -5.4276 H   0  0  0  0  0  0  0  0  0  0  0  0
   -3.2604    2.6229   -6.2323 H   0  0  0  0  0  0  0  0  0  0  0  0
   -4.0260    0.5201   -6.8764 H   0  0  0  0  0  0  0  0  0  0  0  0
   -3.9456   -0.4925   -5.3945 H   0  0  0  0  0  0  0  0  0  0  0  0
   -2.9131   -0.8769   -6.8499 H   0  0  0  0  0  0  0  0  0  0  0  0
   -2.6292   -2.2179   -4.6149 H   0  0  0  0  0  0  0  0  0  0  0  0
   -1.8842   -4.2717   -5.4988 H   0  0  0  0  0  0  0  0  0  0  0  0
    2.5545   -2.9065   -8.3772 H   0  0  0  0  0  0  0  0  0  0  0  0
    3.2093   -5.1065   -7.1466 H   0  0  0  0  0  0  0  0  0  0  0  0
  1  2  1  0
  2  3  1  0
  3  4  2  0
  4  5  1  0
  5  6  1  0
  6  7  1  0
  6  8  2  0
  8  9  1  0
  9 10  2  0
 10 11  1  0
  3 12  1  0
 12 13  2  3
 13 14  1  0
 14 15  2  0
 15 16  1  0
 16 17  3  0
 15 18  1  0
 18 19  2  0
 19 20  1  0
 19 21  1  0
 21 22  2  0
 22 23  1  0
 23 24  3  0
 22 25  1  0
 25 26  2  0
 26 27  1  0
 26 28  1  0
 28 29  1  0
 29 30  1  0
 30 31  2  0
 31 32  1  0
 32 33  1  0
 33 34  1  0
 33 35  2  0
 35 36  1  0
 36 37  2  0
 37 38  1  0
 30 39  1  0
 39 40  2  3
 40 41  1  0
 41 42  1  0
 42 43  1  0
 43 44  2  0
 44 45  1  0
 45 46  1  0
 46 47  1  0
 46 48  2  0
 48 49  1  0
 49 50  2  0
 50 51  1  0
 43 52  1  0
 52 53  2  3
 53 54  1  0
 54 55  2  0
 55 56  1  0
 56 57  3  0
 55 58  1  0
 58 59  2  0
 59 60  1  0
  5  1  2  0
 20 14  1  0
 27 21  1  0
 32 28  2  0
 45 41  2  0
 60 54  1  0
 10  4  1  0
 37 31  1  0
 50 44  1  0
  1 61  1  0
  7 62  1  0
  7 63  1  0
  7 64  1  0
  8 65  1  0
  9 66  1  0
 11 67  1  0
 11 68  1  0
 11 69  1  0
 12 70  1  0
 13 71  1  0
 18 72  1  0
 25 73  1  0
 34 74  1  0
 34 75  1  0
 34 76  1  0
 35 77  1  0
 36 78  1  0
 38 79  1  0
 38 80  1  0
 38 81  1  0
 39 82  1  0
 40 83  1  0
 47 84  1  0
 47 85  1  0
 47 86  1  0
 48 87  1  0
 49 88  1  0
 51 89  1  0
 51 90  1  0
 51 91  1  0
 52 92  1  0
 53 93  1  0
 58 94  1  0
 59 95  1  0
M  END

