
     RDKit          3D

227253  0  0  0  0  0  0  0  0999 V2000
   -4.7672  -16.3796    2.1291 C   0  0  0  0  0  0  0  0  0  0  0  0
   -5.6701  -15.3715    2.4108 C   0  0  0  0  0  0  0  0  0  0  0  0
   -5.4623  -14.1723    1.6308 C   0  0  0  0  0  0  0  0  0  0  0  0
   -6.2884  -13.0668    1.6601 C   0  0  0  0  0  0  0  0  0  0  0  0
   -7.6721  -13.1168    2.1839 C   0  0  0  0  0  0  0  0  0  0  0  0
   -8.5054  -11.8965    2.9954 S   0  0  0  0  0  0  0  0  0  0  0  0
  -10.0067  -12.6186    3.0606 C   0  0  0  0  0  0  0  0  0  0  0  0
  -11.2784  -12.0954    3.6578 C   0  0  0  0  0  0  0  0  0  0  0  0
  -12.2355  -11.6298    2.5392 C   0  0  0  0  0  0  0  0  0  0  0  0
   -9.9052  -13.8461    2.4254 C   0  0  0  0  0  0  0  0  0  0  0  0
  -11.2489  -14.9270    2.2340 Cl  0  0  0  0  0  0  0  0  0  0  0  0
   -8.5833  -14.1279    1.9299 C   0  0  0  0  0  0  0  0  0  0  0  0
   -8.3019  -15.5617    0.9822 Cl  0  0  0  0  0  0  0  0  0  0  0  0
   -5.9112  -11.9418    0.8428 C   0  0  0  0  0  0  0  0  0  0  0  0
   -4.8204  -12.0305    0.0176 C   0  0  0  0  0  0  0  0  0  0  0  0
   -4.0137  -13.1411   -0.0281 C   0  0  0  0  0  0  0  0  0  0  0  0
   -2.7977  -13.1942   -0.8296 C   0  0  0  0  0  0  0  0  0  0  0  0
   -2.5638  -12.6029   -2.3585 S   0  0  0  0  0  0  0  0  0  0  0  0
   -0.9561  -13.0020   -2.5697 C   0  0  0  0  0  0  0  0  0  0  0  0
   -0.1006  -12.7935   -3.7738 C   0  0  0  0  0  0  0  0  0  0  0  0
    0.1366  -14.1006   -4.4953 C   0  0  0  0  0  0  0  0  0  0  0  0
   -0.5551  -13.6218   -1.3913 C   0  0  0  0  0  0  0  0  0  0  0  0
   -1.5575  -13.7393   -0.3841 C   0  0  0  0  0  0  0  0  0  0  0  0
   -1.2227  -14.3465    1.1916 Cl  0  0  0  0  0  0  0  0  0  0  0  0
    1.0596  -14.1918   -1.1188 Cl  0  0  0  0  0  0  0  0  0  0  0  0
   -4.3836  -14.2559    0.8050 C   0  0  0  0  0  0  0  0  0  0  0  0
   -3.7732  -15.7789    0.9366 S   0  0  0  0  0  0  0  0  0  0  0  0
   -4.6269  -10.8210   -0.7634 C   0  0  0  0  0  0  0  0  0  0  0  0
   -5.4780   -9.8021   -0.4806 C   0  0  0  0  0  0  0  0  0  0  0  0
   -6.5490  -10.4090    0.6921 S   0  0  0  0  0  0  0  0  0  0  0  0
   -5.4229   -8.4826   -1.1569 C   0  0  0  0  0  0  0  0  0  0  0  0
   -4.3569   -8.0758   -1.9238 C   0  0  0  0  0  0  0  0  0  0  0  0
   -4.4756   -6.7638   -2.4805 C   0  0  0  0  0  0  0  0  0  0  0  0
   -3.4327   -6.1056   -3.1755 C   0  0  0  0  0  0  0  0  0  0  0  0
   -2.0202   -6.4230   -3.0128 C   0  0  0  0  0  0  0  0  0  0  0  0
   -0.7465   -6.2193   -4.1074 S   0  0  0  0  0  0  0  0  0  0  0  0
    0.5294   -6.4824   -3.0592 C   0  0  0  0  0  0  0  0  0  0  0  0
    2.0091   -6.5086   -3.3479 C   0  0  0  0  0  0  0  0  0  0  0  0
    2.5334   -7.9566   -3.3111 C   0  0  0  0  0  0  0  0  0  0  0  0
   -0.0048   -6.7468   -1.8323 C   0  0  0  0  0  0  0  0  0  0  0  0
    0.9612   -7.0561   -0.4075 Cl  0  0  0  0  0  0  0  0  0  0  0  0
   -1.4409   -6.6892   -1.7748 C   0  0  0  0  0  0  0  0  0  0  0  0
   -2.2454   -6.8375   -0.2520 Cl  0  0  0  0  0  0  0  0  0  0  0  0
   -3.7753   -4.8349   -3.7294 C   0  0  0  0  0  0  0  0  0  0  0  0
   -4.9469   -4.2121   -3.4461 C   0  0  0  0  0  0  0  0  0  0  0  0
   -5.9342   -4.8399   -2.7101 C   0  0  0  0  0  0  0  0  0  0  0  0
   -7.2769   -4.3257   -2.6720 C   0  0  0  0  0  0  0  0  0  0  0  0
   -7.8019   -2.7556   -2.4047 S   0  0  0  0  0  0  0  0  0  0  0  0
   -9.4288   -2.9763   -2.5734 C   0  0  0  0  0  0  0  0  0  0  0  0
  -10.5223   -1.9492   -2.3671 C   0  0  0  0  0  0  0  0  0  0  0  0
  -11.1614   -1.5539   -3.6941 C   0  0  0  0  0  0  0  0  0  0  0  0
   -9.6236   -4.3175   -2.8427 C   0  0  0  0  0  0  0  0  0  0  0  0
   -8.4268   -5.0974   -2.9050 C   0  0  0  0  0  0  0  0  0  0  0  0
   -8.4073   -6.7432   -3.3895 Cl  0  0  0  0  0  0  0  0  0  0  0  0
  -11.1630   -5.0314   -3.1408 Cl  0  0  0  0  0  0  0  0  0  0  0  0
   -5.6473   -6.1570   -2.1686 C   0  0  0  0  0  0  0  0  0  0  0  0
   -6.5014   -7.1990   -1.1985 S   0  0  0  0  0  0  0  0  0  0  0  0
   -5.0724   -2.9144   -4.0779 C   0  0  0  0  0  0  0  0  0  0  0  0
   -4.0080   -2.5715   -4.8972 C   0  0  0  0  0  0  0  0  0  0  0  0
   -2.9139   -3.8399   -4.7853 S   0  0  0  0  0  0  0  0  0  0  0  0
   -3.8827   -1.3128   -5.6779 C   0  0  0  0  0  0  0  0  0  0  0  0
   -4.2630   -0.9795   -7.3107 S   0  0  0  0  0  0  0  0  0  0  0  0
   -3.8261    0.6592   -7.3794 C   0  0  0  0  0  0  0  0  0  0  0  0
   -3.3550    0.9526   -6.0741 C   0  0  0  0  0  0  0  0  0  0  0  0
   -3.4005   -0.1132   -5.2085 C   0  0  0  0  0  0  0  0  0  0  0  0
   -2.9365    0.3218   -3.9975 C   0  0  0  0  0  0  0  0  0  0  0  0
   -2.6253    1.6581   -4.1687 C   0  0  0  0  0  0  0  0  0  0  0  0
   -2.8923    2.0378   -5.4619 N   0  0  0  0  0  0  0  0  0  0  0  0
   -4.0926    1.4930   -8.5950 C   0  0  0  0  0  0  0  0  0  0  0  0
   -3.3995    2.6039   -9.0321 C   0  0  0  0  0  0  0  0  0  0  0  0
   -2.2072    3.2028   -8.4312 C   0  0  0  0  0  0  0  0  0  0  0  0
   -1.1830    2.4437   -7.8964 C   0  0  0  0  0  0  0  0  0  0  0  0
   -0.2262    3.2439   -7.1011 C   0  0  0  0  0  0  0  0  0  0  0  0
    0.8017    2.6835   -6.3756 C   0  0  0  0  0  0  0  0  0  0  0  0
    1.1466    1.2479   -6.4128 C   0  0  0  0  0  0  0  0  0  0  0  0
    0.1354   -0.0678   -6.5769 S   0  0  0  0  0  0  0  0  0  0  0  0
    1.2782   -1.2415   -6.7624 C   0  0  0  0  0  0  0  0  0  0  0  0
    1.0479   -2.6970   -6.9757 C   0  0  0  0  0  0  0  0  0  0  0  0
    1.3848   -3.4169   -5.6820 C   0  0  0  0  0  0  0  0  0  0  0  0
    2.5189   -0.6635   -6.6250 C   0  0  0  0  0  0  0  0  0  0  0  0
    4.0210   -1.5031   -6.6944 Cl  0  0  0  0  0  0  0  0  0  0  0  0
    2.4468    0.7666   -6.4279 C   0  0  0  0  0  0  0  0  0  0  0  0
    3.9095    1.6782   -6.3677 Cl  0  0  0  0  0  0  0  0  0  0  0  0
    1.5633    3.6006   -5.5211 C   0  0  0  0  0  0  0  0  0  0  0  0
    1.2823    4.9127   -5.4897 C   0  0  0  0  0  0  0  0  0  0  0  0
    0.2553    5.4542   -6.2712 C   0  0  0  0  0  0  0  0  0  0  0  0
   -0.2014    6.8362   -6.2964 C   0  0  0  0  0  0  0  0  0  0  0  0
   -0.5617    7.7615   -7.6465 S   0  0  0  0  0  0  0  0  0  0  0  0
   -1.1027    9.1514   -6.8717 C   0  0  0  0  0  0  0  0  0  0  0  0
   -1.6199   10.4110   -7.4607 C   0  0  0  0  0  0  0  0  0  0  0  0
   -3.1598   10.4174   -7.4128 C   0  0  0  0  0  0  0  0  0  0  0  0
   -1.0621    8.9023   -5.5038 C   0  0  0  0  0  0  0  0  0  0  0  0
   -0.5526    7.5853   -5.1606 C   0  0  0  0  0  0  0  0  0  0  0  0
   -0.5076    7.0568   -3.5255 Cl  0  0  0  0  0  0  0  0  0  0  0  0
   -1.5425   10.0463   -4.3200 Cl  0  0  0  0  0  0  0  0  0  0  0  0
   -0.5088    4.5737   -7.0962 C   0  0  0  0  0  0  0  0  0  0  0  0
   -1.9237    4.8072   -7.9783 S   0  0  0  0  0  0  0  0  0  0  0  0
    2.0439    5.6908   -4.5137 C   0  0  0  0  0  0  0  0  0  0  0  0
    2.8999    4.8662   -3.7645 C   0  0  0  0  0  0  0  0  0  0  0  0
    2.6867    3.3342   -4.3143 S   0  0  0  0  0  0  0  0  0  0  0  0
    3.6691    5.2527   -2.5206 C   0  0  0  0  0  0  0  0  0  0  0  0
    3.4341    6.3726   -1.7384 C   0  0  0  0  0  0  0  0  0  0  0  0
    4.1680    6.3286   -0.4646 C   0  0  0  0  0  0  0  0  0  0  0  0
    4.0353    7.2814    0.5269 C   0  0  0  0  0  0  0  0  0  0  0  0
    3.1543    8.4609    0.4026 C   0  0  0  0  0  0  0  0  0  0  0  0
    1.7092    8.5553   -0.3933 S   0  0  0  0  0  0  0  0  0  0  0  0
    1.4068   10.1869   -0.2463 C   0  0  0  0  0  0  0  0  0  0  0  0
    0.2274   10.9745   -0.7017 C   0  0  0  0  0  0  0  0  0  0  0  0
   -0.7443   11.2422    0.4420 C   0  0  0  0  0  0  0  0  0  0  0  0
    2.4493   10.7152    0.4806 C   0  0  0  0  0  0  0  0  0  0  0  0
    2.5907   12.3901    0.9297 Cl  0  0  0  0  0  0  0  0  0  0  0  0
    3.4708    9.7549    0.8337 C   0  0  0  0  0  0  0  0  0  0  0  0
    4.9043   10.2378    1.6771 Cl  0  0  0  0  0  0  0  0  0  0  0  0
    4.7454    7.0266    1.7697 C   0  0  0  0  0  0  0  0  0  0  0  0
    5.5414    5.9441    1.8775 C   0  0  0  0  0  0  0  0  0  0  0  0
    5.6269    4.9777    0.9216 C   0  0  0  0  0  0  0  0  0  0  0  0
    6.2340    3.6395    1.1479 C   0  0  0  0  0  0  0  0  0  0  0  0
    6.1425    2.7114    2.5354 S   0  0  0  0  0  0  0  0  0  0  0  0
    7.1001    1.4314    2.0260 C   0  0  0  0  0  0  0  0  0  0  0  0
    7.4631    0.1623    2.7383 C   0  0  0  0  0  0  0  0  0  0  0  0
    6.9164   -1.0294    1.9722 C   0  0  0  0  0  0  0  0  0  0  0  0
    7.4874    1.7021    0.7235 C   0  0  0  0  0  0  0  0  0  0  0  0
    7.0058    2.9683    0.2448 C   0  0  0  0  0  0  0  0  0  0  0  0
    7.5240    3.5342   -1.3019 Cl  0  0  0  0  0  0  0  0  0  0  0  0
    8.5285    0.6768   -0.2304 Cl  0  0  0  0  0  0  0  0  0  0  0  0
    4.9142    5.2073   -0.3018 C   0  0  0  0  0  0  0  0  0  0  0  0
    4.7034    4.2782   -1.6584 S   0  0  0  0  0  0  0  0  0  0  0  0
    6.1741    5.8178    3.1990 C   0  0  0  0  0  0  0  0  0  0  0  0
    5.8767    6.8829    4.0434 C   0  0  0  0  0  0  0  0  0  0  0  0
    4.7461    7.7819    3.2539 S   0  0  0  0  0  0  0  0  0  0  0  0
    6.1417    6.8029    5.5264 C   0  0  0  0  0  0  0  0  0  0  0  0
    5.3645    6.0509    6.3443 C   0  0  0  0  0  0  0  0  0  0  0  0
    5.6223    6.2293    7.7776 C   0  0  0  0  0  0  0  0  0  0  0  0
    5.0333    5.4774    8.7711 C   0  0  0  0  0  0  0  0  0  0  0  0
    3.9838    4.5027    8.4700 C   0  0  0  0  0  0  0  0  0  0  0  0
    2.8145    4.6203    7.2900 S   0  0  0  0  0  0  0  0  0  0  0  0
    2.0503    3.1768    7.4859 C   0  0  0  0  0  0  0  0  0  0  0  0
    0.8743    2.6264    6.7196 C   0  0  0  0  0  0  0  0  0  0  0  0
    1.3117    1.4594    5.8509 C   0  0  0  0  0  0  0  0  0  0  0  0
    2.6796    2.5510    8.5548 C   0  0  0  0  0  0  0  0  0  0  0  0
    2.1966    0.9988    9.1968 Cl  0  0  0  0  0  0  0  0  0  0  0  0
    3.7932    3.2734    9.1211 C   0  0  0  0  0  0  0  0  0  0  0  0
    4.7467    2.5618   10.3672 Cl  0  0  0  0  0  0  0  0  0  0  0  0
    5.3964    5.7746   10.1185 C   0  0  0  0  0  0  0  0  0  0  0  0
    6.3407    6.7256   10.3809 C   0  0  0  0  0  0  0  0  0  0  0  0
    6.9604    7.4538    9.3878 C   0  0  0  0  0  0  0  0  0  0  0  0
    7.9746    8.4520    9.7053 C   0  0  0  0  0  0  0  0  0  0  0  0
    8.9905    8.5076   10.9975 S   0  0  0  0  0  0  0  0  0  0  0  0
    9.7938    9.8991   10.7702 C   0  0  0  0  0  0  0  0  0  0  0  0
   10.8457   10.5545   11.5966 C   0  0  0  0  0  0  0  0  0  0  0  0
   12.2774   10.2403   11.1184 C   0  0  0  0  0  0  0  0  0  0  0  0
    9.2839   10.4320    9.5711 C   0  0  0  0  0  0  0  0  0  0  0  0
    8.2414    9.6280    8.9686 C   0  0  0  0  0  0  0  0  0  0  0  0
    7.2716   10.3233    7.7084 Cl  0  0  0  0  0  0  0  0  0  0  0  0
    9.8431   11.9179    8.8512 Cl  0  0  0  0  0  0  0  0  0  0  0  0
    6.6010    7.1518    8.0190 C   0  0  0  0  0  0  0  0  0  0  0  0
    7.2053    7.6546    6.5283 S   0  0  0  0  0  0  0  0  0  0  0  0
    6.5605    6.9088   11.8334 C   0  0  0  0  0  0  0  0  0  0  0  0
    5.7667    6.1093   12.6300 C   0  0  0  0  0  0  0  0  0  0  0  0
    4.7953    5.2252   11.5854 S   0  0  0  0  0  0  0  0  0  0  0  0
   -4.7908  -17.3692    2.6390 H   0  0  0  0  0  0  0  0  0  0  0  0
   -6.4063  -15.4800    3.1535 H   0  0  0  0  0  0  0  0  0  0  0  0
  -11.0676  -11.2556    4.3613 H   0  0  0  0  0  0  0  0  0  0  0  0
  -11.7200  -12.9378    4.2414 H   0  0  0  0  0  0  0  0  0  0  0  0
  -12.6982  -10.6388    2.7818 H   0  0  0  0  0  0  0  0  0  0  0  0
  -11.6893  -11.4921    1.5908 H   0  0  0  0  0  0  0  0  0  0  0  0
  -13.0321  -12.3878    2.3395 H   0  0  0  0  0  0  0  0  0  0  0  0
   -0.5485  -12.0504   -4.4579 H   0  0  0  0  0  0  0  0  0  0  0  0
    0.9074  -12.4413   -3.3834 H   0  0  0  0  0  0  0  0  0  0  0  0
    1.1648  -14.1744   -4.8828 H   0  0  0  0  0  0  0  0  0  0  0  0
   -0.5079  -14.2183   -5.4020 H   0  0  0  0  0  0  0  0  0  0  0  0
   -0.0858  -14.9179   -3.8013 H   0  0  0  0  0  0  0  0  0  0  0  0
   -3.9262  -10.7364   -1.5346 H   0  0  0  0  0  0  0  0  0  0  0  0
   -3.4918   -8.6862   -2.0633 H   0  0  0  0  0  0  0  0  0  0  0  0
    2.1791   -6.0498   -4.3231 H   0  0  0  0  0  0  0  0  0  0  0  0
    2.5343   -5.9364   -2.5296 H   0  0  0  0  0  0  0  0  0  0  0  0
    1.6584   -8.6698   -3.3151 H   0  0  0  0  0  0  0  0  0  0  0  0
    3.1124   -8.1775   -2.3933 H   0  0  0  0  0  0  0  0  0  0  0  0
    3.1783   -8.1817   -4.1938 H   0  0  0  0  0  0  0  0  0  0  0  0
  -11.2959   -2.4399   -1.7441 H   0  0  0  0  0  0  0  0  0  0  0  0
  -10.1001   -1.0888   -1.8216 H   0  0  0  0  0  0  0  0  0  0  0  0
  -11.3705   -0.4611   -3.7113 H   0  0  0  0  0  0  0  0  0  0  0  0
  -10.4556   -1.8385   -4.5240 H   0  0  0  0  0  0  0  0  0  0  0  0
  -12.0998   -2.1108   -3.8547 H   0  0  0  0  0  0  0  0  0  0  0  0
   -5.8709   -2.2498   -3.9060 H   0  0  0  0  0  0  0  0  0  0  0  0
   -2.7878   -0.2094   -3.0928 H   0  0  0  0  0  0  0  0  0  0  0  0
   -2.2140    2.3048   -3.3707 H   0  0  0  0  0  0  0  0  0  0  0  0
   -2.7660    3.0016   -5.7653 H   0  0  0  0  0  0  0  0  0  0  0  0
   -4.9287    1.2319   -9.1876 H   0  0  0  0  0  0  0  0  0  0  0  0
   -3.7874    3.0722   -9.9102 H   0  0  0  0  0  0  0  0  0  0  0  0
   -1.0990    1.4393   -8.0576 H   0  0  0  0  0  0  0  0  0  0  0  0
    1.6961   -3.0402   -7.8042 H   0  0  0  0  0  0  0  0  0  0  0  0
   -0.0250   -2.8521   -7.2069 H   0  0  0  0  0  0  0  0  0  0  0  0
    2.4513   -3.2237   -5.4467 H   0  0  0  0  0  0  0  0  0  0  0  0
    0.7691   -3.0191   -4.8577 H   0  0  0  0  0  0  0  0  0  0  0  0
    1.1754   -4.5163   -5.7541 H   0  0  0  0  0  0  0  0  0  0  0  0
   -1.2612   10.4689   -8.5093 H   0  0  0  0  0  0  0  0  0  0  0  0
   -1.2175   11.2733   -6.9043 H   0  0  0  0  0  0  0  0  0  0  0  0
   -3.5343   10.9960   -8.2608 H   0  0  0  0  0  0  0  0  0  0  0  0
   -3.5390    9.3794   -7.5158 H   0  0  0  0  0  0  0  0  0  0  0  0
   -3.5008   10.7996   -6.4299 H   0  0  0  0  0  0  0  0  0  0  0  0
    1.9925    6.7102   -4.4356 H   0  0  0  0  0  0  0  0  0  0  0  0
    2.7843    7.1037   -2.0602 H   0  0  0  0  0  0  0  0  0  0  0  0
    0.5685   11.9801   -1.0723 H   0  0  0  0  0  0  0  0  0  0  0  0
   -0.2835   10.4535   -1.5294 H   0  0  0  0  0  0  0  0  0  0  0  0
   -1.0083   10.2984    0.9719 H   0  0  0  0  0  0  0  0  0  0  0  0
   -0.3113   12.0064    1.1114 H   0  0  0  0  0  0  0  0  0  0  0  0
   -1.6777   11.6693    0.0378 H   0  0  0  0  0  0  0  0  0  0  0  0
    8.6085    0.0825    2.7658 H   0  0  0  0  0  0  0  0  0  0  0  0
    7.0501    0.1564    3.7495 H   0  0  0  0  0  0  0  0  0  0  0  0
    6.1364   -0.6597    1.2354 H   0  0  0  0  0  0  0  0  0  0  0  0
    7.6790   -1.5530    1.3738 H   0  0  0  0  0  0  0  0  0  0  0  0
    6.3492   -1.7228    2.6349 H   0  0  0  0  0  0  0  0  0  0  0  0
    6.8509    5.0733    3.4428 H   0  0  0  0  0  0  0  0  0  0  0  0
    4.6681    5.3902    5.9301 H   0  0  0  0  0  0  0  0  0  0  0  0
    0.5140    3.4004    6.0428 H   0  0  0  0  0  0  0  0  0  0  0  0
    0.0659    2.2919    7.4126 H   0  0  0  0  0  0  0  0  0  0  0  0
    2.0603    0.8300    6.3631 H   0  0  0  0  0  0  0  0  0  0  0  0
    0.4670    0.8055    5.5769 H   0  0  0  0  0  0  0  0  0  0  0  0
    1.7518    1.8356    4.9198 H   0  0  0  0  0  0  0  0  0  0  0  0
   10.7421   10.1857   12.6289 H   0  0  0  0  0  0  0  0  0  0  0  0
   10.6735   11.6369   11.5805 H   0  0  0  0  0  0  0  0  0  0  0  0
   12.2518    9.9752   10.0272 H   0  0  0  0  0  0  0  0  0  0  0  0
   12.6692    9.3849   11.6620 H   0  0  0  0  0  0  0  0  0  0  0  0
   12.9554   11.0865   11.3471 H   0  0  0  0  0  0  0  0  0  0  0  0
    7.2516    7.5412   12.2727 H   0  0  0  0  0  0  0  0  0  0  0  0
    5.8467    6.1492   13.7062 H   0  0  0  0  0  0  0  0  0  0  0  0
  1  2  2  0
  2  3  1  0
  3  4  2  0
  4  5  1  0
  5  6  1  0
  6  7  1  0
  7  8  1  0
  8  9  1  0
  7 10  2  0
 10 11  1  0
 10 12  1  0
 12 13  1  0
  4 14  1  0
 14 15  2  0
 15 16  1  0
 16 17  1  0
 17 18  1  0
 18 19  1  0
 19 20  1  0
 20 21  1  0
 19 22  2  0
 22 23  1  0
 23 24  1  0
 22 25  1  0
 16 26  2  0
 26 27  1  0
 15 28  1  0
 28 29  2  0
 29 30  1  0
 29 31  1  0
 31 32  2  0
 32 33  1  0
 33 34  2  0
 34 35  1  0
 35 36  1  0
 36 37  1  0
 37 38  1  0
 38 39  1  0
 37 40  2  0
 40 41  1  0
 40 42  1  0
 42 43  1  0
 34 44  1  0
 44 45  2  0
 45 46  1  0
 46 47  1  0
 47 48  1  0
 48 49  1  0
 49 50  1  0
 50 51  1  0
 49 52  2  0
 52 53  1  0
 53 54  1  0
 52 55  1  0
 46 56  2  0
 56 57  1  0
 45 58  1  0
 58 59  2  0
 59 60  1  0
 59 61  1  0
 61 62  1  0
 62 63  1  0
 63 64  2  0
 64 65  1  0
 65 66  1  0
 66 67  2  0
 67 68  1  0
 63 69  1  0
 69 70  2  3
 70 71  1  0
 71 72  2  0
 72 73  1  0
 73 74  2  0
 74 75  1  0
 75 76  1  0
 76 77  1  0
 77 78  1  0
 78 79  1  0
 77 80  2  0
 80 81  1  0
 80 82  1  0
 82 83  1  0
 74 84  1  0
 84 85  2  0
 85 86  1  0
 86 87  1  0
 87 88  1  0
 88 89  1  0
 89 90  1  0
 90 91  1  0
 89 92  2  0
 92 93  1  0
 93 94  1  0
 92 95  1  0
 86 96  2  0
 96 97  1  0
 85 98  1  0
 98 99  2  0
 99100  1  0
 99101  1  0
101102  2  0
102103  1  0
103104  2  0
104105  1  0
105106  1  0
106107  1  0
107108  1  0
108109  1  0
107110  2  0
110111  1  0
110112  1  0
112113  1  0
104114  1  0
114115  2  0
115116  1  0
116117  1  0
117118  1  0
118119  1  0
119120  1  0
120121  1  0
119122  2  0
122123  1  0
123124  1  0
122125  1  0
116126  2  0
126127  1  0
115128  1  0
128129  2  0
129130  1  0
129131  1  0
131132  2  0
132133  1  0
133134  2  0
134135  1  0
135136  1  0
136137  1  0
137138  1  0
138139  1  0
137140  2  0
140141  1  0
140142  1  0
142143  1  0
134144  1  0
144145  2  0
145146  1  0
146147  1  0
147148  1  0
148149  1  0
149150  1  0
150151  1  0
149152  2  0
152153  1  0
153154  1  0
152155  1  0
146156  2  0
156157  1  0
145158  1  0
158159  2  0
159160  1  0
 27  1  1  0
 57 31  1  0
 65 61  2  0
 97 71  1  0
127101  1  0
157131  1  0
 26  3  1  0
 56 33  1  0
 68 64  1  0
 96 73  1  0
126103  1  0
156133  1  0
 12  5  2  0
 30 14  1  0
 42 35  2  0
 60 44  1  0
 82 75  2  0
100 84  1  0
112105  2  0
130114  1  0
142135  2  0
160144  1  0
 23 17  2  0
 53 47  2  0
 93 87  2  0
123117  2  0
153147  2  0
  1161  1  0
  2162  1  0
  8163  1  0
  8164  1  0
  9165  1  0
  9166  1  0
  9167  1  0
 20168  1  0
 20169  1  0
 21170  1  0
 21171  1  0
 21172  1  0
 28173  1  0
 32174  1  0
 38175  1  0
 38176  1  0
 39177  1  0
 39178  1  0
 39179  1  0
 50180  1  0
 50181  1  0
 51182  1  0
 51183  1  0
 51184  1  0
 58185  1  0
 66186  1  0
 67187  1  0
 68188  1  0
 69189  1  0
 70190  1  0
 72191  1  0
 78192  1  0
 78193  1  0
 79194  1  0
 79195  1  0
 79196  1  0
 90197  1  0
 90198  1  0
 91199  1  0
 91200  1  0
 91201  1  0
 98202  1  0
102203  1  0
108204  1  0
108205  1  0
109206  1  0
109207  1  0
109208  1  0
120209  1  0
120210  1  0
121211  1  0
121212  1  0
121213  1  0
128214  1  0
132215  1  0
138216  1  0
138217  1  0
139218  1  0
139219  1  0
139220  1  0
150221  1  0
150222  1  0
151223  1  0
151224  1  0
151225  1  0
158226  1  0
159227  1  0
M  END

