
     RDKit          3D

242268  0  0  0  0  0  0  0  0999 V2000
    3.2880   -5.1667    7.8940 C   0  0  0  0  0  0  0  0  0  0  0  0
    3.1004   -3.8516    8.3096 C   0  0  0  0  0  0  0  0  0  0  0  0
    1.7996   -3.3745    8.0716 C   0  0  0  0  0  0  0  0  0  0  0  0
    1.3299   -2.0660    8.3108 C   0  0  0  0  0  0  0  0  0  0  0  0
    2.2028   -0.9979    8.8355 C   0  0  0  0  0  0  0  0  0  0  0  0
    2.5840    0.4128    7.9999 S   0  0  0  0  0  0  0  0  0  0  0  0
    3.5073    1.1033    9.2219 C   0  0  0  0  0  0  0  0  0  0  0  0
    4.2291    2.4111    9.1019 C   0  0  0  0  0  0  0  0  0  0  0  0
    5.6426    2.1988    8.5743 C   0  0  0  0  0  0  0  0  0  0  0  0
    3.5458    0.2244   10.3037 C   0  0  0  0  0  0  0  0  0  0  0  0
    4.4236    0.5558   11.7896 Cl  0  0  0  0  0  0  0  0  0  0  0  0
    2.8063   -0.9514   10.0914 C   0  0  0  0  0  0  0  0  0  0  0  0
    2.6156   -2.2064   11.3104 Cl  0  0  0  0  0  0  0  0  0  0  0  0
    0.0147   -1.7819    7.9076 C   0  0  0  0  0  0  0  0  0  0  0  0
   -0.8090   -2.7223    7.2804 C   0  0  0  0  0  0  0  0  0  0  0  0
   -0.3405   -4.0312    7.0393 C   0  0  0  0  0  0  0  0  0  0  0  0
   -1.1322   -5.0102    6.2742 C   0  0  0  0  0  0  0  0  0  0  0  0
   -1.6038   -4.8112    4.6714 S   0  0  0  0  0  0  0  0  0  0  0  0
   -2.3914   -6.2913    4.5272 C   0  0  0  0  0  0  0  0  0  0  0  0
   -3.1544   -6.7297    3.3127 C   0  0  0  0  0  0  0  0  0  0  0  0
   -4.5892   -6.2200    3.3683 C   0  0  0  0  0  0  0  0  0  0  0  0
   -2.3130   -6.9570    5.7512 C   0  0  0  0  0  0  0  0  0  0  0  0
   -1.5950   -6.2440    6.7258 C   0  0  0  0  0  0  0  0  0  0  0  0
   -1.3786   -6.8135    8.3762 Cl  0  0  0  0  0  0  0  0  0  0  0  0
   -3.0700   -8.5142    6.0576 Cl  0  0  0  0  0  0  0  0  0  0  0  0
    0.9716   -4.3226    7.4578 C   0  0  0  0  0  0  0  0  0  0  0  0
    1.8522   -5.7352    7.2143 S   0  0  0  0  0  0  0  0  0  0  0  0
   -2.0553   -2.1943    6.8987 C   0  0  0  0  0  0  0  0  0  0  0  0
   -2.1930   -0.8402    7.2112 C   0  0  0  0  0  0  0  0  0  0  0  0
   -0.7876   -0.3065    7.9792 S   0  0  0  0  0  0  0  0  0  0  0  0
   -3.2444    0.0514    6.6973 C   0  0  0  0  0  0  0  0  0  0  0  0
   -3.1764    1.4451    6.7030 C   0  0  0  0  0  0  0  0  0  0  0  0
   -4.0991    2.0475    5.8314 C   0  0  0  0  0  0  0  0  0  0  0  0
   -4.1606    3.4178    5.5037 C   0  0  0  0  0  0  0  0  0  0  0  0
   -3.2390    4.4104    6.0927 C   0  0  0  0  0  0  0  0  0  0  0  0
   -1.5646    4.3968    5.9139 S   0  0  0  0  0  0  0  0  0  0  0  0
   -1.2836    5.8354    6.7411 C   0  0  0  0  0  0  0  0  0  0  0  0
    0.0640    6.4696    6.9217 C   0  0  0  0  0  0  0  0  0  0  0  0
    0.3315    7.5021    5.8314 C   0  0  0  0  0  0  0  0  0  0  0  0
   -2.5090    6.3651    7.1432 C   0  0  0  0  0  0  0  0  0  0  0  0
   -2.6725    7.8874    8.0069 Cl  0  0  0  0  0  0  0  0  0  0  0  0
   -3.6038    5.5658    6.7788 C   0  0  0  0  0  0  0  0  0  0  0  0
   -5.2693    5.9744    7.1701 Cl  0  0  0  0  0  0  0  0  0  0  0  0
   -5.0289    3.7795    4.4569 C   0  0  0  0  0  0  0  0  0  0  0  0
   -5.8255    2.8499    3.7814 C   0  0  0  0  0  0  0  0  0  0  0  0
   -5.8152    1.4899    4.1587 C   0  0  0  0  0  0  0  0  0  0  0  0
   -6.6047    0.4787    3.4286 C   0  0  0  0  0  0  0  0  0  0  0  0
   -5.9610   -0.8297    2.5855 S   0  0  0  0  0  0  0  0  0  0  0  0
   -7.4346   -1.4458    2.0578 C   0  0  0  0  0  0  0  0  0  0  0  0
   -7.5925   -2.7136    1.2744 C   0  0  0  0  0  0  0  0  0  0  0  0
   -7.7520   -3.9064    2.2084 C   0  0  0  0  0  0  0  0  0  0  0  0
   -8.4601   -0.6379    2.5510 C   0  0  0  0  0  0  0  0  0  0  0  0
   -7.9919    0.4482    3.3091 C   0  0  0  0  0  0  0  0  0  0  0  0
   -9.0555    1.6171    4.0819 Cl  0  0  0  0  0  0  0  0  0  0  0  0
  -10.1667   -0.9527    2.2710 Cl  0  0  0  0  0  0  0  0  0  0  0  0
   -4.9200    1.1215    5.1776 C   0  0  0  0  0  0  0  0  0  0  0  0
   -4.4888   -0.4328    5.6648 S   0  0  0  0  0  0  0  0  0  0  0  0
   -6.3982    3.3628    2.6050 C   0  0  0  0  0  0  0  0  0  0  0  0
   -6.0100    4.6745    2.3229 C   0  0  0  0  0  0  0  0  0  0  0  0
   -5.0234    5.2155    3.5833 S   0  0  0  0  0  0  0  0  0  0  0  0
   -5.9144    5.2244    0.9571 C   0  0  0  0  0  0  0  0  0  0  0  0
   -5.8752    4.4137   -0.1777 C   0  0  0  0  0  0  0  0  0  0  0  0
   -5.1412    4.9693   -1.2362 C   0  0  0  0  0  0  0  0  0  0  0  0
   -4.7066    4.2754   -2.3810 C   0  0  0  0  0  0  0  0  0  0  0  0
   -5.0276    2.8540   -2.6075 C   0  0  0  0  0  0  0  0  0  0  0  0
   -5.8147    2.2614   -3.9684 S   0  0  0  0  0  0  0  0  0  0  0  0
   -5.6476    0.6332   -3.5798 C   0  0  0  0  0  0  0  0  0  0  0  0
   -6.0617   -0.4952   -4.4780 C   0  0  0  0  0  0  0  0  0  0  0  0
   -5.1330   -0.5967   -5.6823 C   0  0  0  0  0  0  0  0  0  0  0  0
   -4.9468    0.5298   -2.3785 C   0  0  0  0  0  0  0  0  0  0  0  0
   -4.5053   -1.0022   -1.6328 Cl  0  0  0  0  0  0  0  0  0  0  0  0
   -4.5959    1.7764   -1.8352 C   0  0  0  0  0  0  0  0  0  0  0  0
   -3.6255    1.9433   -0.3753 Cl  0  0  0  0  0  0  0  0  0  0  0  0
   -3.7810    4.9312   -3.2040 C   0  0  0  0  0  0  0  0  0  0  0  0
   -3.3128    6.2232   -2.9436 C   0  0  0  0  0  0  0  0  0  0  0  0
   -3.7972    6.9454   -1.8325 C   0  0  0  0  0  0  0  0  0  0  0  0
   -3.3103    8.3038   -1.5209 C   0  0  0  0  0  0  0  0  0  0  0  0
   -2.4965    8.7473   -0.1131 S   0  0  0  0  0  0  0  0  0  0  0  0
   -2.2659   10.3597   -0.5388 C   0  0  0  0  0  0  0  0  0  0  0  0
   -1.6385   11.3904    0.3479 C   0  0  0  0  0  0  0  0  0  0  0  0
   -2.6965   12.1002    1.1853 C   0  0  0  0  0  0  0  0  0  0  0  0
   -2.8464   10.5789   -1.7868 C   0  0  0  0  0  0  0  0  0  0  0  0
   -3.4193    9.4248   -2.3443 C   0  0  0  0  0  0  0  0  0  0  0  0
   -4.2337    9.4109   -3.9032 Cl  0  0  0  0  0  0  0  0  0  0  0  0
   -2.8705   12.1482   -2.5807 Cl  0  0  0  0  0  0  0  0  0  0  0  0
   -4.6866    6.2668   -0.9759 C   0  0  0  0  0  0  0  0  0  0  0  0
   -5.1403    6.6841    0.5915 S   0  0  0  0  0  0  0  0  0  0  0  0
   -2.2035    6.5785   -3.7344 C   0  0  0  0  0  0  0  0  0  0  0  0
   -1.7923    5.5602   -4.5997 C   0  0  0  0  0  0  0  0  0  0  0  0
   -2.8244    4.2386   -4.3911 S   0  0  0  0  0  0  0  0  0  0  0  0
   -0.4413    5.4172   -5.1970 C   0  0  0  0  0  0  0  0  0  0  0  0
    0.6628    5.8604   -4.4546 C   0  0  0  0  0  0  0  0  0  0  0  0
    1.9480    5.4134   -4.7529 C   0  0  0  0  0  0  0  0  0  0  0  0
    2.1489    4.4189   -5.7251 C   0  0  0  0  0  0  0  0  0  0  0  0
    3.4414    4.0198   -6.1093 O   0  0  0  0  0  0  0  0  0  0  0  0
    4.6714    4.5880   -5.6540 C   0  0  0  0  0  0  0  0  0  0  0  0
    4.9184    5.9387   -6.3135 C   0  0  0  0  0  0  0  0  0  0  0  0
    1.0273    3.8670   -6.3833 C   0  0  0  0  0  0  0  0  0  0  0  0
   -0.2170    4.5478   -6.2943 C   0  0  0  0  0  0  0  0  0  0  0  0
   -1.1917    4.3430   -7.3012 C   0  0  0  0  0  0  0  0  0  0  0  0
   -2.3362    5.1592   -7.3240 O   0  0  0  0  0  0  0  0  0  0  0  0
   -3.3466    5.1709   -8.3359 C   0  0  0  0  0  0  0  0  0  0  0  0
   -2.8593    5.9165   -9.5718 C   0  0  0  0  0  0  0  0  0  0  0  0
   -0.9679    3.3561   -8.2753 C   0  0  0  0  0  0  0  0  0  0  0  0
    0.1310    2.5075   -8.1769 C   0  0  0  0  0  0  0  0  0  0  0  0
    1.0860    2.6792   -7.1616 C   0  0  0  0  0  0  0  0  0  0  0  0
    1.7136    1.4281   -6.6300 C   0  0  0  0  0  0  0  0  0  0  0  0
    1.0264    0.2097   -6.5473 C   0  0  0  0  0  0  0  0  0  0  0  0
    1.6947   -0.7774   -5.8060 C   0  0  0  0  0  0  0  0  0  0  0  0
    1.1802   -2.0414   -5.4674 C   0  0  0  0  0  0  0  0  0  0  0  0
   -0.1549   -2.4865   -5.9081 C   0  0  0  0  0  0  0  0  0  0  0  0
   -0.5901   -2.7826   -7.5063 S   0  0  0  0  0  0  0  0  0  0  0  0
   -2.1611   -3.2825   -7.1709 C   0  0  0  0  0  0  0  0  0  0  0  0
   -3.1325   -3.7775   -8.1996 C   0  0  0  0  0  0  0  0  0  0  0  0
   -3.1119   -5.2996   -8.2738 C   0  0  0  0  0  0  0  0  0  0  0  0
   -2.3580   -3.2465   -5.7911 C   0  0  0  0  0  0  0  0  0  0  0  0
   -3.8436   -3.7661   -5.0053 Cl  0  0  0  0  0  0  0  0  0  0  0  0
   -1.2387   -2.7824   -5.0855 C   0  0  0  0  0  0  0  0  0  0  0  0
   -1.2291   -2.5510   -3.3425 Cl  0  0  0  0  0  0  0  0  0  0  0  0
    1.9857   -2.8573   -4.6558 C   0  0  0  0  0  0  0  0  0  0  0  0
    3.2307   -2.4458   -4.1675 C   0  0  0  0  0  0  0  0  0  0  0  0
    3.7199   -1.1542   -4.4613 C   0  0  0  0  0  0  0  0  0  0  0  0
    4.9471   -0.6186   -3.8445 C   0  0  0  0  0  0  0  0  0  0  0  0
    6.2916   -0.0639   -4.6910 S   0  0  0  0  0  0  0  0  0  0  0  0
    7.1574    0.4419   -3.3386 C   0  0  0  0  0  0  0  0  0  0  0  0
    8.5402    1.0207   -3.3770 C   0  0  0  0  0  0  0  0  0  0  0  0
    9.5839   -0.0665   -3.1584 C   0  0  0  0  0  0  0  0  0  0  0  0
    6.4033    0.1724   -2.1975 C   0  0  0  0  0  0  0  0  0  0  0  0
    5.1609   -0.4146   -2.4814 C   0  0  0  0  0  0  0  0  0  0  0  0
    3.9718   -0.7890   -1.2394 Cl  0  0  0  0  0  0  0  0  0  0  0  0
    6.9423    0.5511   -0.5671 Cl  0  0  0  0  0  0  0  0  0  0  0  0
    2.9266   -0.3541   -5.3045 C   0  0  0  0  0  0  0  0  0  0  0  0
    3.1552    1.2482   -5.7560 S   0  0  0  0  0  0  0  0  0  0  0  0
    3.8731   -3.4335   -3.3973 C   0  0  0  0  0  0  0  0  0  0  0  0
    3.1114   -4.5980   -3.2707 C   0  0  0  0  0  0  0  0  0  0  0  0
    1.6669   -4.4164   -4.1228 S   0  0  0  0  0  0  0  0  0  0  0  0
    3.4831   -5.8189   -2.5400 C   0  0  0  0  0  0  0  0  0  0  0  0
    4.7703   -6.1955   -2.1568 C   0  0  0  0  0  0  0  0  0  0  0  0
    4.8042   -7.4608   -1.5418 C   0  0  0  0  0  0  0  0  0  0  0  0
    5.9509   -8.1347   -1.0685 C   0  0  0  0  0  0  0  0  0  0  0  0
    7.3115   -7.5879   -1.2415 C   0  0  0  0  0  0  0  0  0  0  0  0
    8.3706   -7.2271    0.0168 S   0  0  0  0  0  0  0  0  0  0  0  0
    9.6509   -6.7406   -0.9586 C   0  0  0  0  0  0  0  0  0  0  0  0
   10.9606   -6.2152   -0.4472 C   0  0  0  0  0  0  0  0  0  0  0  0
   10.9169   -4.6973   -0.3162 C   0  0  0  0  0  0  0  0  0  0  0  0
    9.2611   -6.8429   -2.2934 C   0  0  0  0  0  0  0  0  0  0  0  0
   10.3066   -6.4252   -3.6439 Cl  0  0  0  0  0  0  0  0  0  0  0  0
    7.9535   -7.3277   -2.4529 C   0  0  0  0  0  0  0  0  0  0  0  0
    7.2259   -7.6307   -4.0288 Cl  0  0  0  0  0  0  0  0  0  0  0  0
    5.7432   -9.3800   -0.4471 C   0  0  0  0  0  0  0  0  0  0  0  0
    4.4756   -9.9570   -0.3118 C   0  0  0  0  0  0  0  0  0  0  0  0
    3.3320   -9.2927   -0.7988 C   0  0  0  0  0  0  0  0  0  0  0  0
    1.9788   -9.8658   -0.6788 C   0  0  0  0  0  0  0  0  0  0  0  0
    1.0012  -10.2954   -1.9794 S   0  0  0  0  0  0  0  0  0  0  0  0
   -0.3138  -10.7983   -1.0571 C   0  0  0  0  0  0  0  0  0  0  0  0
   -1.5733  -11.3826   -1.6214 C   0  0  0  0  0  0  0  0  0  0  0  0
   -1.4802  -12.9023   -1.6897 C   0  0  0  0  0  0  0  0  0  0  0  0
    0.0047  -10.6500    0.2923 C   0  0  0  0  0  0  0  0  0  0  0  0
    1.2872  -10.1193    0.5048 C   0  0  0  0  0  0  0  0  0  0  0  0
    1.9340   -9.7682    2.1040 Cl  0  0  0  0  0  0  0  0  0  0  0  0
   -1.0917  -11.0779    1.5992 Cl  0  0  0  0  0  0  0  0  0  0  0  0
    3.5395   -8.0482   -1.4181 C   0  0  0  0  0  0  0  0  0  0  0  0
    2.3911   -7.0279   -2.0984 S   0  0  0  0  0  0  0  0  0  0  0  0
    4.5070  -11.2273    0.2877 C   0  0  0  0  0  0  0  0  0  0  0  0
    5.7913  -11.6403    0.6281 C   0  0  0  0  0  0  0  0  0  0  0  0
    6.8897  -10.4427    0.1758 S   0  0  0  0  0  0  0  0  0  0  0  0
    4.2147   -5.7200    7.9698 H   0  0  0  0  0  0  0  0  0  0  0  0
    3.8932   -3.2591    8.7478 H   0  0  0  0  0  0  0  0  0  0  0  0
    3.6763    3.0779    8.4066 H   0  0  0  0  0  0  0  0  0  0  0  0
    4.2708    2.9118   10.0921 H   0  0  0  0  0  0  0  0  0  0  0  0
    6.1753    3.1719    8.5363 H   0  0  0  0  0  0  0  0  0  0  0  0
    5.6105    1.7724    7.5471 H   0  0  0  0  0  0  0  0  0  0  0  0
    6.2053    1.5100    9.2397 H   0  0  0  0  0  0  0  0  0  0  0  0
   -3.1522   -7.8381    3.2393 H   0  0  0  0  0  0  0  0  0  0  0  0
   -2.6558   -6.3331    2.4024 H   0  0  0  0  0  0  0  0  0  0  0  0
   -5.1238   -6.5047    2.4377 H   0  0  0  0  0  0  0  0  0  0  0  0
   -5.1211   -6.6606    4.2378 H   0  0  0  0  0  0  0  0  0  0  0  0
   -4.6035   -5.1116    3.4623 H   0  0  0  0  0  0  0  0  0  0  0  0
   -2.8075   -2.7563    6.3626 H   0  0  0  0  0  0  0  0  0  0  0  0
   -2.4249    1.9953    7.2514 H   0  0  0  0  0  0  0  0  0  0  0  0
    0.1161    6.9607    7.9174 H   0  0  0  0  0  0  0  0  0  0  0  0
    0.8500    5.6856    6.8842 H   0  0  0  0  0  0  0  0  0  0  0  0
   -0.4460    8.2964    5.8445 H   0  0  0  0  0  0  0  0  0  0  0  0
    0.3410    7.0147    4.8313 H   0  0  0  0  0  0  0  0  0  0  0  0
    1.3194    7.9775    6.0045 H   0  0  0  0  0  0  0  0  0  0  0  0
   -6.6969   -2.8644    0.6347 H   0  0  0  0  0  0  0  0  0  0  0  0
   -8.4779   -2.6410    0.6072 H   0  0  0  0  0  0  0  0  0  0  0  0
   -6.8734   -3.9877    2.8840 H   0  0  0  0  0  0  0  0  0  0  0  0
   -7.8276   -4.8400    1.6124 H   0  0  0  0  0  0  0  0  0  0  0  0
   -8.6747   -3.7981    2.8175 H   0  0  0  0  0  0  0  0  0  0  0  0
   -6.9429    2.7472    1.9040 H   0  0  0  0  0  0  0  0  0  0  0  0
   -6.2225    3.3910   -0.1843 H   0  0  0  0  0  0  0  0  0  0  0  0
   -6.0540   -1.4558   -3.9229 H   0  0  0  0  0  0  0  0  0  0  0  0
   -7.0996   -0.3196   -4.8269 H   0  0  0  0  0  0  0  0  0  0  0  0
   -4.0846   -0.7550   -5.3481 H   0  0  0  0  0  0  0  0  0  0  0  0
   -5.1812    0.3339   -6.2887 H   0  0  0  0  0  0  0  0  0  0  0  0
   -5.4424   -1.4494   -6.3202 H   0  0  0  0  0  0  0  0  0  0  0  0
   -1.0913   12.1347   -0.2688 H   0  0  0  0  0  0  0  0  0  0  0  0
   -0.9033   10.9012    1.0196 H   0  0  0  0  0  0  0  0  0  0  0  0
   -2.2099   12.8603    1.8313 H   0  0  0  0  0  0  0  0  0  0  0  0
   -3.2340   11.3704    1.8302 H   0  0  0  0  0  0  0  0  0  0  0  0
   -3.4320   12.6117    0.5270 H   0  0  0  0  0  0  0  0  0  0  0  0
   -1.6394    7.4920   -3.5963 H   0  0  0  0  0  0  0  0  0  0  0  0
    0.5356    6.5259   -3.6109 H   0  0  0  0  0  0  0  0  0  0  0  0
    2.7684    5.8203   -4.1833 H   0  0  0  0  0  0  0  0  0  0  0  0
    5.4983    3.9019   -5.9424 H   0  0  0  0  0  0  0  0  0  0  0  0
    4.6899    4.6687   -4.5475 H   0  0  0  0  0  0  0  0  0  0  0  0
    4.8559    5.8375   -7.4193 H   0  0  0  0  0  0  0  0  0  0  0  0
    5.9277    6.3083   -6.0370 H   0  0  0  0  0  0  0  0  0  0  0  0
    4.1669    6.6820   -5.9765 H   0  0  0  0  0  0  0  0  0  0  0  0
   -4.2327    5.7127   -7.9320 H   0  0  0  0  0  0  0  0  0  0  0  0
   -3.6716    4.1386   -8.5868 H   0  0  0  0  0  0  0  0  0  0  0  0
   -2.5167    6.9335   -9.2846 H   0  0  0  0  0  0  0  0  0  0  0  0
   -3.6888    6.0097  -10.3026 H   0  0  0  0  0  0  0  0  0  0  0  0
   -2.0179    5.3759  -10.0505 H   0  0  0  0  0  0  0  0  0  0  0  0
   -1.6831    3.1735   -9.0647 H   0  0  0  0  0  0  0  0  0  0  0  0
    0.1842    1.6503   -8.8377 H   0  0  0  0  0  0  0  0  0  0  0  0
    0.0264    0.0713   -6.9382 H   0  0  0  0  0  0  0  0  0  0  0  0
   -2.8634   -3.3630   -9.1939 H   0  0  0  0  0  0  0  0  0  0  0  0
   -4.1552   -3.4268   -7.9466 H   0  0  0  0  0  0  0  0  0  0  0  0
   -3.8286   -5.6442   -9.0488 H   0  0  0  0  0  0  0  0  0  0  0  0
   -3.4070   -5.7407   -7.2984 H   0  0  0  0  0  0  0  0  0  0  0  0
   -2.0945   -5.6567   -8.5455 H   0  0  0  0  0  0  0  0  0  0  0  0
    8.6440    1.7973   -2.5890 H   0  0  0  0  0  0  0  0  0  0  0  0
    8.7133    1.5045   -4.3624 H   0  0  0  0  0  0  0  0  0  0  0  0
    9.4961   -0.8445   -3.9468 H   0  0  0  0  0  0  0  0  0  0  0  0
    9.4494   -0.5360   -2.1598 H   0  0  0  0  0  0  0  0  0  0  0  0
   10.6011    0.3739   -3.2096 H   0  0  0  0  0  0  0  0  0  0  0  0
    4.8481   -3.3070   -2.9442 H   0  0  0  0  0  0  0  0  0  0  0  0
    5.6447   -5.5877   -2.3364 H   0  0  0  0  0  0  0  0  0  0  0  0
   11.1785   -6.6628    0.5458 H   0  0  0  0  0  0  0  0  0  0  0  0
   11.7796   -6.5066   -1.1393 H   0  0  0  0  0  0  0  0  0  0  0  0
   10.7355   -4.2288   -1.3072 H   0  0  0  0  0  0  0  0  0  0  0  0
   11.8866   -4.3292    0.0791 H   0  0  0  0  0  0  0  0  0  0  0  0
   10.1111   -4.3934    0.3863 H   0  0  0  0  0  0  0  0  0  0  0  0
   -2.4406  -11.0904   -0.9902 H   0  0  0  0  0  0  0  0  0  0  0  0
   -1.7452  -10.9794   -2.6419 H   0  0  0  0  0  0  0  0  0  0  0  0
   -1.3662  -13.3286   -0.6708 H   0  0  0  0  0  0  0  0  0  0  0  0
   -2.4048  -13.3141   -2.1463 H   0  0  0  0  0  0  0  0  0  0  0  0
   -0.6126  -13.2090   -2.3119 H   0  0  0  0  0  0  0  0  0  0  0  0
    3.6333  -11.8391    0.4606 H   0  0  0  0  0  0  0  0  0  0  0  0
    6.0445  -12.5827    1.0954 H   0  0  0  0  0  0  0  0  0  0  0  0
  1  2  2  0
  2  3  1  0
  3  4  2  0
  4  5  1  0
  5  6  1  0
  6  7  1  0
  7  8  1  0
  8  9  1  0
  7 10  2  0
 10 11  1  0
 10 12  1  0
 12 13  1  0
  4 14  1  0
 14 15  2  0
 15 16  1  0
 16 17  1  0
 17 18  1  0
 18 19  1  0
 19 20  1  0
 20 21  1  0
 19 22  2  0
 22 23  1  0
 23 24  1  0
 22 25  1  0
 16 26  2  0
 26 27  1  0
 15 28  1  0
 28 29  2  0
 29 30  1  0
 29 31  1  0
 31 32  2  0
 32 33  1  0
 33 34  2  0
 34 35  1  0
 35 36  1  0
 36 37  1  0
 37 38  1  0
 38 39  1  0
 37 40  2  0
 40 41  1  0
 40 42  1  0
 42 43  1  0
 34 44  1  0
 44 45  2  0
 45 46  1  0
 46 47  1  0
 47 48  1  0
 48 49  1  0
 49 50  1  0
 50 51  1  0
 49 52  2  0
 52 53  1  0
 53 54  1  0
 52 55  1  0
 46 56  2  0
 56 57  1  0
 45 58  1  0
 58 59  2  0
 59 60  1  0
 59 61  1  0
 61 62  2  0
 62 63  1  0
 63 64  2  0
 64 65  1  0
 65 66  1  0
 66 67  1  0
 67 68  1  0
 68 69  1  0
 67 70  2  0
 70 71  1  0
 70 72  1  0
 72 73  1  0
 64 74  1  0
 74 75  2  0
 75 76  1  0
 76 77  1  0
 77 78  1  0
 78 79  1  0
 79 80  1  0
 80 81  1  0
 79 82  2  0
 82 83  1  0
 83 84  1  0
 82 85  1  0
 76 86  2  0
 86 87  1  0
 75 88  1  0
 88 89  2  0
 89 90  1  0
 89 91  1  0
 91 92  2  0
 92 93  1  0
 93 94  2  0
 94 95  1  0
 95 96  1  0
 96 97  1  0
 94 98  1  0
 98 99  2  0
 99100  1  0
100101  1  0
101102  1  0
102103  1  0
100104  2  0
104105  1  0
105106  2  0
106107  1  0
107108  2  0
108109  1  0
109110  2  0
110111  1  0
111112  1  0
112113  1  0
113114  1  0
114115  1  0
113116  2  0
116117  1  0
116118  1  0
118119  1  0
110120  1  0
120121  2  0
121122  1  0
122123  1  0
123124  1  0
124125  1  0
125126  1  0
126127  1  0
125128  2  0
128129  1  0
129130  1  0
128131  1  0
122132  2  0
132133  1  0
121134  1  0
134135  2  0
135136  1  0
135137  1  0
137138  2  0
138139  1  0
139140  2  0
140141  1  0
141142  1  0
142143  1  0
143144  1  0
144145  1  0
143146  2  0
146147  1  0
146148  1  0
148149  1  0
140150  1  0
150151  2  0
151152  1  0
152153  1  0
153154  1  0
154155  1  0
155156  1  0
156157  1  0
155158  2  0
158159  1  0
159160  1  0
158161  1  0
152162  2  0
162163  1  0
151164  1  0
164165  2  0
165166  1  0
 27  1  1  0
 57 31  1  0
 87 61  1  0
 99 91  1  0
133107  1  0
163137  1  0
 26  3  1  0
 56 33  1  0
 86 63  1  0
106 98  1  0
132109  1  0
162139  1  0
 12  5  2  0
 30 14  1  0
 42 35  2  0
 60 44  1  0
 72 65  2  0
 90 74  1  0
118111  2  0
136120  1  0
148141  2  0
166150  1  0
 23 17  2  0
 53 47  2  0
 83 77  2  0
129123  2  0
159153  2  0
  1167  1  0
  2168  1  0
  8169  1  0
  8170  1  0
  9171  1  0
  9172  1  0
  9173  1  0
 20174  1  0
 20175  1  0
 21176  1  0
 21177  1  0
 21178  1  0
 28179  1  0
 32180  1  0
 38181  1  0
 38182  1  0
 39183  1  0
 39184  1  0
 39185  1  0
 50186  1  0
 50187  1  0
 51188  1  0
 51189  1  0
 51190  1  0
 58191  1  0
 62192  1  0
 68193  1  0
 68194  1  0
 69195  1  0
 69196  1  0
 69197  1  0
 80198  1  0
 80199  1  0
 81200  1  0
 81201  1  0
 81202  1  0
 88203  1  0
 92204  1  0
 93205  1  0
 96206  1  0
 96207  1  0
 97208  1  0
 97209  1  0
 97210  1  0
102211  1  0
102212  1  0
103213  1  0
103214  1  0
103215  1  0
104216  1  0
105217  1  0
108218  1  0
114219  1  0
114220  1  0
115221  1  0
115222  1  0
115223  1  0
126224  1  0
126225  1  0
127226  1  0
127227  1  0
127228  1  0
134229  1  0
138230  1  0
144231  1  0
144232  1  0
145233  1  0
145234  1  0
145235  1  0
156236  1  0
156237  1  0
157238  1  0
157239  1  0
157240  1  0
164241  1  0
165242  1  0
M  END

