
     RDKit          3D

 88101  0  0  0  0  0  0  0  0999 V2000
    2.0408   -6.7665   -2.0208 C   0  0  0  0  0  0  0  0  0  0  0  0
    2.0741   -7.9226   -1.2232 C   0  0  0  0  0  0  0  0  0  0  0  0
    3.1751   -8.7645   -1.1067 O   0  0  0  0  0  0  0  0  0  0  0  0
    0.5968   -8.1679   -0.3873 S   0  0  0  0  0  0  0  0  0  0  0  0
   -0.0692   -6.7929   -1.0714 C   0  0  0  0  0  0  0  0  0  0  0  0
    0.7996   -6.1611   -1.8984 C   0  0  0  0  0  0  0  0  0  0  0  0
    0.3031   -5.0043   -2.3983 N   0  0  0  0  0  0  0  0  0  0  0  0
   -0.9233   -4.9427   -1.8242 C   0  0  0  0  0  0  0  0  0  0  0  0
   -1.1810   -6.0083   -1.0284 C   0  0  0  0  0  0  0  0  0  0  0  0
   -2.6672   -5.8820   -0.2816 S   0  0  0  0  0  0  0  0  0  0  0  0
   -2.9706   -4.3483   -0.9966 C   0  0  0  0  0  0  0  0  0  0  0  0
   -1.9162   -3.9721   -1.8490 C   0  0  0  0  0  0  0  0  0  0  0  0
   -4.2120   -3.5791   -0.8239 C   0  0  0  0  0  0  0  0  0  0  0  0
   -5.1806   -3.1272   -2.1262 S   0  0  0  0  0  0  0  0  0  0  0  0
   -6.5088   -2.6121   -1.2379 C   0  0  0  0  0  0  0  0  0  0  0  0
   -6.2080   -2.7913    0.1063 C   0  0  0  0  0  0  0  0  0  0  0  0
   -4.9166   -3.2987    0.3611 C   0  0  0  0  0  0  0  0  0  0  0  0
   -4.4670   -3.4376    1.6994 C   0  0  0  0  0  0  0  0  0  0  0  0
   -5.3692   -3.1556    2.7494 C   0  0  0  0  0  0  0  0  0  0  0  0
   -6.6750   -2.7177    2.4661 C   0  0  0  0  0  0  0  0  0  0  0  0
   -7.0894   -2.5118    1.1486 C   0  0  0  0  0  0  0  0  0  0  0  0
   -4.9578   -3.2804    4.0766 O   0  0  0  0  0  0  0  0  0  0  0  0
   -3.0502   -3.7003    2.0224 C   0  0  0  0  0  0  0  0  0  0  0  0
   -2.5763   -4.7455    2.8330 C   0  0  0  0  0  0  0  0  0  0  0  0
   -3.3772   -5.7386    3.3833 O   0  0  0  0  0  0  0  0  0  0  0  0
   -0.8844   -4.6272    3.0738 S   0  0  0  0  0  0  0  0  0  0  0  0
   -0.7721   -3.2770    2.0899 C   0  0  0  0  0  0  0  0  0  0  0  0
   -1.9916   -2.8801    1.6383 C   0  0  0  0  0  0  0  0  0  0  0  0
   -1.9874   -1.6009    1.1892 N   0  0  0  0  0  0  0  0  0  0  0  0
   -0.7028   -1.2205    1.3875 C   0  0  0  0  0  0  0  0  0  0  0  0
    0.0604   -2.2115    1.9173 C   0  0  0  0  0  0  0  0  0  0  0  0
    1.4804   -1.6174    2.5707 S   0  0  0  0  0  0  0  0  0  0  0  0
    1.1336   -0.0238    2.0502 C   0  0  0  0  0  0  0  0  0  0  0  0
   -0.1428    0.0477    1.4675 C   0  0  0  0  0  0  0  0  0  0  0  0
    1.9768    1.1301    2.3733 C   0  0  0  0  0  0  0  0  0  0  0  0
    2.1649    1.7134    3.9416 S   0  0  0  0  0  0  0  0  0  0  0  0
    3.3800    2.8242    3.6125 C   0  0  0  0  0  0  0  0  0  0  0  0
    3.6750    2.7331    2.2595 C   0  0  0  0  0  0  0  0  0  0  0  0
    2.8941    1.7998    1.5455 C   0  0  0  0  0  0  0  0  0  0  0  0
    3.1050    1.6251    0.1568 C   0  0  0  0  0  0  0  0  0  0  0  0
    4.1640    2.3345   -0.4641 C   0  0  0  0  0  0  0  0  0  0  0  0
    4.9318    3.2489    0.2734 C   0  0  0  0  0  0  0  0  0  0  0  0
    4.6802    3.4645    1.6297 C   0  0  0  0  0  0  0  0  0  0  0  0
    4.4672    2.1662   -1.8168 O   0  0  0  0  0  0  0  0  0  0  0  0
    2.2377    0.7564   -0.6552 C   0  0  0  0  0  0  0  0  0  0  0  0
    2.6309   -0.8352   -1.0383 S   0  0  0  0  0  0  0  0  0  0  0  0
    1.2683   -1.1677   -1.9589 C   0  0  0  0  0  0  0  0  0  0  0  0
    0.4845   -0.0232   -1.9846 C   0  0  0  0  0  0  0  0  0  0  0  0
    1.0140    1.0727   -1.2728 C   0  0  0  0  0  0  0  0  0  0  0  0
    0.2914    2.2925   -1.2200 C   0  0  0  0  0  0  0  0  0  0  0  0
   -0.9506    2.3763   -1.8984 C   0  0  0  0  0  0  0  0  0  0  0  0
   -1.4502    1.2678   -2.5990 C   0  0  0  0  0  0  0  0  0  0  0  0
   -0.7403    0.0672   -2.6415 C   0  0  0  0  0  0  0  0  0  0  0  0
   -1.7103    3.5486   -1.8961 O   0  0  0  0  0  0  0  0  0  0  0  0
    0.7790    3.4555   -0.4586 C   0  0  0  0  0  0  0  0  0  0  0  0
    0.2493    3.8977    1.0795 S   0  0  0  0  0  0  0  0  0  0  0  0
    1.1970    5.2828    1.2379 C   0  0  0  0  0  0  0  0  0  0  0  0
    1.9251    5.4244    0.0625 C   0  0  0  0  0  0  0  0  0  0  0  0
    1.6814    4.4218   -0.8921 C   0  0  0  0  0  0  0  0  0  0  0  0
    2.3195    4.4563   -2.1359 C   0  0  0  0  0  0  0  0  0  0  0  0
    3.2372    5.4873   -2.4056 C   0  0  0  0  0  0  0  0  0  0  0  0
    3.4899    6.4775   -1.4403 C   0  0  0  0  0  0  0  0  0  0  0  0
    2.8297    6.4540   -0.2025 C   0  0  0  0  0  0  0  0  0  0  0  0
    3.9050    5.5353   -3.6275 O   0  0  0  0  0  0  0  0  0  0  0  0
    2.8609   -6.3949   -2.6198 H   0  0  0  0  0  0  0  0  0  0  0  0
    4.0342   -8.5661   -1.6046 H   0  0  0  0  0  0  0  0  0  0  0  0
    0.7649   -4.3227   -3.0382 H   0  0  0  0  0  0  0  0  0  0  0  0
   -1.8725   -3.0561   -2.4213 H   0  0  0  0  0  0  0  0  0  0  0  0
   -7.4374   -2.2312   -1.6428 H   0  0  0  0  0  0  0  0  0  0  0  0
   -7.3611   -2.5024    3.2743 H   0  0  0  0  0  0  0  0  0  0  0  0
   -8.0868   -2.1414    0.9464 H   0  0  0  0  0  0  0  0  0  0  0  0
   -5.5829   -3.0814    4.8483 H   0  0  0  0  0  0  0  0  0  0  0  0
   -2.9690   -6.4617    3.9625 H   0  0  0  0  0  0  0  0  0  0  0  0
   -2.8062   -0.9967    0.9537 H   0  0  0  0  0  0  0  0  0  0  0  0
   -0.6520    0.9604    1.1939 H   0  0  0  0  0  0  0  0  0  0  0  0
    3.8662    3.4679    4.3346 H   0  0  0  0  0  0  0  0  0  0  0  0
    5.7247    3.8024   -0.2133 H   0  0  0  0  0  0  0  0  0  0  0  0
    5.2798    4.1751    2.1859 H   0  0  0  0  0  0  0  0  0  0  0  0
    3.9476    1.5469   -2.4253 H   0  0  0  0  0  0  0  0  0  0  0  0
    1.0432   -2.1036   -2.4456 H   0  0  0  0  0  0  0  0  0  0  0  0
   -2.4016    1.3401   -3.1109 H   0  0  0  0  0  0  0  0  0  0  0  0
   -1.1407   -0.7780   -3.1857 H   0  0  0  0  0  0  0  0  0  0  0  0
   -1.4138    4.3961   -1.4276 H   0  0  0  0  0  0  0  0  0  0  0  0
    1.2297    5.9414    2.0957 H   0  0  0  0  0  0  0  0  0  0  0  0
    2.1245    3.6921   -2.8775 H   0  0  0  0  0  0  0  0  0  0  0  0
    4.1979    7.2692   -1.6515 H   0  0  0  0  0  0  0  0  0  0  0  0
    3.0243    7.2247    0.5327 H   0  0  0  0  0  0  0  0  0  0  0  0
    3.7558    4.8299   -4.3400 H   0  0  0  0  0  0  0  0  0  0  0  0
  1  2  2  0
  2  3  1  0
  2  4  1  0
  4  5  1  0
  5  6  2  0
  6  7  1  0
  7  8  1  0
  8  9  2  0
  9 10  1  0
 10 11  1  0
 11 12  2  0
 11 13  1  0
 13 14  1  0
 14 15  1  0
 15 16  2  0
 16 17  1  0
 17 18  1  0
 18 19  2  0
 19 20  1  0
 20 21  2  0
 19 22  1  0
 18 23  1  0
 23 24  2  0
 24 25  1  0
 24 26  1  0
 26 27  1  0
 27 28  2  0
 28 29  1  0
 29 30  1  0
 30 31  2  0
 31 32  1  0
 32 33  1  0
 33 34  2  0
 33 35  1  0
 35 36  1  0
 36 37  1  0
 37 38  2  0
 38 39  1  0
 39 40  1  0
 40 41  2  0
 41 42  1  0
 42 43  2  0
 41 44  1  0
 40 45  1  0
 45 46  1  0
 46 47  1  0
 47 48  2  0
 48 49  1  0
 49 50  1  0
 50 51  2  0
 51 52  1  0
 52 53  2  0
 51 54  1  0
 50 55  1  0
 55 56  1  0
 56 57  1  0
 57 58  2  0
 58 59  1  0
 59 60  1  0
 60 61  2  0
 61 62  1  0
 62 63  2  0
 61 64  1  0
  6  1  1  0
 12  8  1  0
 17 13  2  0
 28 23  1  0
 34 30  1  0
 39 35  2  0
 49 45  2  0
 59 55  2  0
  9  5  1  0
 21 16  1  0
 31 27  1  0
 43 38  1  0
 53 48  1  0
 63 58  1  0
  1 65  1  0
  3 66  1  0
  7 67  1  0
 12 68  1  0
 15 69  1  0
 20 70  1  0
 21 71  1  0
 22 72  1  0
 25 73  1  0
 29 74  1  0
 34 75  1  0
 37 76  1  0
 42 77  1  0
 43 78  1  0
 44 79  1  0
 47 80  1  0
 52 81  1  0
 53 82  1  0
 54 83  1  0
 57 84  1  0
 60 85  1  0
 62 86  1  0
 63 87  1  0
 64 88  1  0
M  END

