
     RDKit          3D

124139  0  0  0  0  0  0  0  0999 V2000
    9.2748  -12.8559   -3.8127 C   0  0  0  0  0  0  0  0  0  0  0  0
    8.8508  -12.3888   -2.2165 S   0  0  0  0  0  0  0  0  0  0  0  0
    7.2989  -11.9701   -2.6729 C   0  0  0  0  0  0  0  0  0  0  0  0
    6.1578  -11.3968   -2.1934 C   0  0  0  0  0  0  0  0  0  0  0  0
    5.3227  -11.2684   -3.2543 C   0  0  0  0  0  0  0  0  0  0  0  0
    5.8711  -11.7437   -4.4026 N   0  0  0  0  0  0  0  0  0  0  0  0
    5.3462  -11.6590   -5.7635 C   0  0  0  0  0  0  0  0  0  0  0  0
    5.8143  -10.3724   -6.4320 C   0  0  0  0  0  0  0  0  0  0  0  0
    7.0988  -12.1609   -3.9998 C   0  0  0  0  0  0  0  0  0  0  0  0
    8.1966  -12.6587   -4.6919 C   0  0  0  0  0  0  0  0  0  0  0  0
    4.1222  -10.6208   -2.9829 C   0  0  0  0  0  0  0  0  0  0  0  0
    4.0700  -10.2530   -1.6230 C   0  0  0  0  0  0  0  0  0  0  0  0
    5.5119  -10.7180   -0.8118 S   0  0  0  0  0  0  0  0  0  0  0  0
    2.9461   -9.5600   -0.9698 C   0  0  0  0  0  0  0  0  0  0  0  0
    2.9569   -9.0411    0.6660 S   0  0  0  0  0  0  0  0  0  0  0  0
    1.4180   -8.3993    0.5586 C   0  0  0  0  0  0  0  0  0  0  0  0
    0.6510   -7.4696    1.1970 C   0  0  0  0  0  0  0  0  0  0  0  0
   -0.2742   -7.0537    0.2972 C   0  0  0  0  0  0  0  0  0  0  0  0
   -0.1455   -7.6857   -0.8995 N   0  0  0  0  0  0  0  0  0  0  0  0
   -0.7393   -7.2970   -2.1787 C   0  0  0  0  0  0  0  0  0  0  0  0
    0.0761   -6.1860   -2.8314 C   0  0  0  0  0  0  0  0  0  0  0  0
    0.9207   -8.5042   -0.7005 C   0  0  0  0  0  0  0  0  0  0  0  0
    1.7562   -9.1554   -1.6050 C   0  0  0  0  0  0  0  0  0  0  0  0
   -0.9214   -5.8675    0.6363 C   0  0  0  0  0  0  0  0  0  0  0  0
   -0.4501   -5.3610    1.8665 C   0  0  0  0  0  0  0  0  0  0  0  0
    0.8044   -6.3762    2.4475 S   0  0  0  0  0  0  0  0  0  0  0  0
   -0.8657   -4.0482    2.4233 C   0  0  0  0  0  0  0  0  0  0  0  0
   -1.8638   -2.9829    1.5754 S   0  0  0  0  0  0  0  0  0  0  0  0
   -1.8671   -1.7418    2.6987 C   0  0  0  0  0  0  0  0  0  0  0  0
   -1.0747   -2.1288    3.7749 C   0  0  0  0  0  0  0  0  0  0  0  0
   -0.5223   -3.4149    3.6372 C   0  0  0  0  0  0  0  0  0  0  0  0
    0.2953   -3.9620    4.7762 C   0  0  0  0  0  0  0  0  0  0  0  0
    1.2013   -2.8418    5.3205 C   0  0  2  0  0  0  0  0  0  0  0  0
    2.0494   -3.3416    6.4031 N   0  0  0  0  0  4  0  0  0  0  0  0
    3.3580   -2.9255    6.4831 O   0  0  0  0  0  1  0  0  0  0  0  0
    1.5538   -3.9787    7.3556 O   0  0  0  0  0  0  0  0  0  0  0  0
    0.3996   -1.5898    5.7951 C   0  0  1  0  0  0  0  0  0  0  0  0
    1.2330   -0.3906    5.6735 N   0  0  0  0  0  4  0  0  0  0  0  0
    1.4873    0.3846    6.7815 O   0  0  0  0  0  1  0  0  0  0  0  0
    1.6230   -0.0009    4.5522 O   0  0  0  0  0  0  0  0  0  0  0  0
   -0.9579   -1.3662    5.0679 C   0  0  0  0  0  0  0  0  0  0  0  0
   -2.5047   -0.4366    2.4920 C   0  0  0  0  0  0  0  0  0  0  0  0
   -1.6750    1.0162    2.3935 S   0  0  0  0  0  0  0  0  0  0  0  0
   -3.0007    1.9798    2.0104 C   0  0  0  0  0  0  0  0  0  0  0  0
   -4.1363    1.1573    1.9472 C   0  0  0  0  0  0  0  0  0  0  0  0
   -3.8526   -0.1942    2.2440 C   0  0  0  0  0  0  0  0  0  0  0  0
   -4.9106   -1.2648    2.2612 C   0  0  0  0  0  0  0  0  0  0  0  0
   -6.3059   -0.6676    2.5107 C   0  0  2  0  0  0  0  0  0  0  0  0
   -7.3240   -1.7047    2.3402 N   0  0  0  0  0  4  0  0  0  0  0  0
   -7.5195   -2.2958    1.1130 O   0  0  0  0  0  1  0  0  0  0  0  0
   -7.9953   -2.0903    3.3199 O   0  0  0  0  0  0  0  0  0  0  0  0
   -6.5648    0.5145    1.5505 C   0  0  1  0  0  0  0  0  0  0  0  0
   -7.9341    1.0118    1.7039 N   0  0  0  0  0  4  0  0  0  0  0  0
   -8.8719    0.7380    0.7348 O   0  0  0  0  0  1  0  0  0  0  0  0
   -8.2918    1.5764    2.7598 O   0  0  0  0  0  0  0  0  0  0  0  0
   -5.5518    1.6579    1.7842 C   0  0  0  0  0  0  0  0  0  0  0  0
   -2.9060    3.4413    1.8185 C   0  0  0  0  0  0  0  0  0  0  0  0
   -3.8311    4.3652    0.7061 S   0  0  0  0  0  0  0  0  0  0  0  0
   -2.9935    5.7716    1.0418 C   0  0  0  0  0  0  0  0  0  0  0  0
   -2.7412    6.9888    0.4754 C   0  0  0  0  0  0  0  0  0  0  0  0
   -1.5994    7.4467    1.0499 C   0  0  0  0  0  0  0  0  0  0  0  0
   -1.1007    6.5773    1.9665 N   0  0  0  0  0  0  0  0  0  0  0  0
    0.2366    6.5755    2.5578 C   0  0  0  0  0  0  0  0  0  0  0  0
    1.2360    5.9140    1.6153 C   0  0  0  0  0  0  0  0  0  0  0  0
   -1.9874    5.5488    1.9254 C   0  0  0  0  0  0  0  0  0  0  0  0
   -1.8913    4.2384    2.3822 C   0  0  0  0  0  0  0  0  0  0  0  0
   -1.0229    8.5409    0.4141 C   0  0  0  0  0  0  0  0  0  0  0  0
   -1.7895    8.9147   -0.7041 C   0  0  0  0  0  0  0  0  0  0  0  0
   -3.1207    7.8494   -0.9072 S   0  0  0  0  0  0  0  0  0  0  0  0
   -1.4511   10.0192   -1.6159 C   0  0  0  0  0  0  0  0  0  0  0  0
   -0.2071   11.1683   -1.3217 S   0  0  0  0  0  0  0  0  0  0  0  0
   -0.5361   11.9921   -2.7363 C   0  0  0  0  0  0  0  0  0  0  0  0
   -0.2418   13.1597   -3.3776 C   0  0  0  0  0  0  0  0  0  0  0  0
   -1.1141   13.2562   -4.4113 C   0  0  0  0  0  0  0  0  0  0  0  0
   -1.9581   12.1938   -4.4745 N   0  0  0  0  0  0  0  0  0  0  0  0
   -3.1342   12.0235   -5.3245 C   0  0  0  0  0  0  0  0  0  0  0  0
   -4.3792   12.5477   -4.6201 C   0  0  0  0  0  0  0  0  0  0  0  0
   -1.5736   11.4385   -3.4125 C   0  0  0  0  0  0  0  0  0  0  0  0
   -2.1345   10.3173   -2.8111 C   0  0  0  0  0  0  0  0  0  0  0  0
   -1.0752   14.4652   -5.0968 C   0  0  0  0  0  0  0  0  0  0  0  0
   -0.1044   15.3112   -4.5327 C   0  0  0  0  0  0  0  0  0  0  0  0
    0.6488   14.5600   -3.1874 S   0  0  0  0  0  0  0  0  0  0  0  0
   10.2447  -13.2325   -4.1075 H   0  0  0  0  0  0  0  0  0  0  0  0
    4.2361  -11.6843   -5.7421 H   0  0  0  0  0  0  0  0  0  0  0  0
    5.6953  -12.5318   -6.3542 H   0  0  0  0  0  0  0  0  0  0  0  0
    5.4602   -9.4911   -5.8555 H   0  0  0  0  0  0  0  0  0  0  0  0
    5.4048  -10.3170   -7.4623 H   0  0  0  0  0  0  0  0  0  0  0  0
    6.9226  -10.3517   -6.4861 H   0  0  0  0  0  0  0  0  0  0  0  0
    8.2236  -12.8525   -5.7554 H   0  0  0  0  0  0  0  0  0  0  0  0
    3.3545  -10.4197   -3.7170 H   0  0  0  0  0  0  0  0  0  0  0  0
   -0.7781   -8.1767   -2.8560 H   0  0  0  0  0  0  0  0  0  0  0  0
   -1.7820   -6.9461   -2.0177 H   0  0  0  0  0  0  0  0  0  0  0  0
    1.1166   -6.5265   -3.0096 H   0  0  0  0  0  0  0  0  0  0  0  0
   -0.3810   -5.9101   -3.8053 H   0  0  0  0  0  0  0  0  0  0  0  0
    0.0932   -5.2880   -2.1784 H   0  0  0  0  0  0  0  0  0  0  0  0
    1.5456   -9.2640   -2.6591 H   0  0  0  0  0  0  0  0  0  0  0  0
   -1.6250   -5.3608   -0.0102 H   0  0  0  0  0  0  0  0  0  0  0  0
   -0.3944   -4.3233    5.5707 H   0  0  0  0  0  0  0  0  0  0  0  0
    0.9420   -4.7970    4.4731 H   0  0  0  0  0  0  0  0  0  0  0  0
    1.8640   -2.5444    4.4759 H   0  0  0  0  0  0  0  0  0  0  0  0
    0.1557   -1.7293    6.8737 H   0  0  0  0  0  0  0  0  0  0  0  0
   -1.1354   -0.2815    4.9074 H   0  0  0  0  0  0  0  0  0  0  0  0
   -1.7801   -1.7229    5.7279 H   0  0  0  0  0  0  0  0  0  0  0  0
   -4.6861   -2.0021    3.0614 H   0  0  0  0  0  0  0  0  0  0  0  0
   -4.8888   -1.7949    1.2848 H   0  0  0  0  0  0  0  0  0  0  0  0
   -6.3419   -0.2885    3.5583 H   0  0  0  0  0  0  0  0  0  0  0  0
   -6.4320    0.1550    0.5050 H   0  0  0  0  0  0  0  0  0  0  0  0
   -5.6170    2.3417    0.9171 H   0  0  0  0  0  0  0  0  0  0  0  0
   -5.8183    2.2248    2.7021 H   0  0  0  0  0  0  0  0  0  0  0  0
    0.5558    7.6181    2.7654 H   0  0  0  0  0  0  0  0  0  0  0  0
    0.2176    6.0267    3.5247 H   0  0  0  0  0  0  0  0  0  0  0  0
    1.2913    6.4775    0.6595 H   0  0  0  0  0  0  0  0  0  0  0  0
    2.2420    5.9029    2.0844 H   0  0  0  0  0  0  0  0  0  0  0  0
    0.9288    4.8688    1.4026 H   0  0  0  0  0  0  0  0  0  0  0  0
   -1.1047    3.8715    3.0266 H   0  0  0  0  0  0  0  0  0  0  0  0
   -0.0826    8.9925    0.7037 H   0  0  0  0  0  0  0  0  0  0  0  0
   -2.9908   12.5691   -6.2820 H   0  0  0  0  0  0  0  0  0  0  0  0
   -3.2681   10.9466   -5.5655 H   0  0  0  0  0  0  0  0  0  0  0  0
   -5.2545   12.4657   -5.2994 H   0  0  0  0  0  0  0  0  0  0  0  0
   -4.2387   13.6116   -4.3362 H   0  0  0  0  0  0  0  0  0  0  0  0
   -4.5794   11.9473   -3.7096 H   0  0  0  0  0  0  0  0  0  0  0  0
   -2.9925    9.7783   -3.1913 H   0  0  0  0  0  0  0  0  0  0  0  0
   -1.7198   14.7334   -5.9227 H   0  0  0  0  0  0  0  0  0  0  0  0
    0.1106   16.3129   -4.8788 H   0  0  0  0  0  0  0  0  0  0  0  0
  1  2  1  0
  2  3  1  0
  3  4  1  0
  4  5  2  0
  5  6  1  0
  6  7  1  0
  7  8  1  0
  6  9  1  0
  9 10  1  0
  5 11  1  0
 11 12  2  0
 12 13  1  0
 12 14  1  0
 14 15  1  0
 15 16  1  0
 16 17  1  0
 17 18  2  0
 18 19  1  0
 19 20  1  0
 20 21  1  0
 19 22  1  0
 22 23  1  0
 18 24  1  0
 24 25  2  0
 25 26  1  0
 25 27  1  0
 27 28  1  0
 28 29  1  0
 29 30  2  0
 30 31  1  0
 31 32  1  0
 32 33  1  0
 33 34  1  0
 34 35  1  0
 34 36  2  0
 33 37  1  0
 37 38  1  0
 38 39  1  0
 38 40  2  0
 37 41  1  0
 29 42  1  0
 42 43  1  0
 43 44  1  0
 44 45  2  0
 45 46  1  0
 46 47  1  0
 47 48  1  0
 48 49  1  0
 49 50  1  0
 49 51  2  0
 48 52  1  0
 52 53  1  0
 53 54  1  0
 53 55  2  0
 52 56  1  0
 44 57  1  0
 57 58  1  0
 58 59  1  0
 59 60  1  0
 60 61  2  0
 61 62  1  0
 62 63  1  0
 63 64  1  0
 62 65  1  0
 65 66  1  0
 61 67  1  0
 67 68  2  0
 68 69  1  0
 68 70  1  0
 70 71  1  0
 71 72  1  0
 72 73  1  0
 73 74  2  0
 74 75  1  0
 75 76  1  0
 76 77  1  0
 75 78  1  0
 78 79  1  0
 74 80  1  0
 80 81  2  0
 81 82  1  0
 10  1  2  0
 23 14  2  0
 31 27  2  0
 46 42  2  0
 66 57  2  0
 79 70  2  0
  9  3  2  0
 22 16  2  0
 41 30  1  0
 56 45  1  0
 65 59  2  0
 78 72  2  0
 13  4  1  0
 26 17  1  0
 69 60  1  0
 82 73  1  0
  1 83  1  0
  7 84  1  0
  7 85  1  0
  8 86  1  0
  8 87  1  0
  8 88  1  0
 10 89  1  0
 11 90  1  0
 20 91  1  0
 20 92  1  0
 21 93  1  0
 21 94  1  0
 21 95  1  0
 23 96  1  0
 24 97  1  0
 32 98  1  0
 32 99  1  0
 33100  1  6
 37101  1  1
 41102  1  0
 41103  1  0
 47104  1  0
 47105  1  0
 48106  1  1
 52107  1  6
 56108  1  0
 56109  1  0
 63110  1  0
 63111  1  0
 64112  1  0
 64113  1  0
 64114  1  0
 66115  1  0
 67116  1  0
 76117  1  0
 76118  1  0
 77119  1  0
 77120  1  0
 77121  1  0
 79122  1  0
 80123  1  0
 81124  1  0
M  CHG  8  34   1  35  -1  38   1  39  -1  49   1  50  -1  53   1  54  -1
M  END

