
     RDKit          3D

254283  0  0  0  0  0  0  0  0999 V2000
   -4.5659   -2.6952   14.8405 C   0  0  0  0  0  0  0  0  0  0  0  0
   -4.1345   -1.5531   14.1695 C   0  0  0  0  0  0  0  0  0  0  0  0
   -4.6845   -1.4296   12.8833 C   0  0  0  0  0  0  0  0  0  0  0  0
   -4.4462   -0.3888   11.9708 C   0  0  0  0  0  0  0  0  0  0  0  0
   -3.6386    0.7866   12.3175 C   0  0  0  0  0  0  0  0  0  0  0  0
   -1.9675    0.8750   12.2080 S   0  0  0  0  0  0  0  0  0  0  0  0
   -1.8598    2.5102   12.6067 C   0  0  0  0  0  0  0  0  0  0  0  0
   -0.5846    3.2964   12.6030 C   0  0  0  0  0  0  0  0  0  0  0  0
   -0.2610    3.7776   11.1927 C   0  0  0  0  0  0  0  0  0  0  0  0
   -3.1464    3.0106   12.8045 C   0  0  0  0  0  0  0  0  0  0  0  0
   -3.4955    4.6928   13.1783 Cl  0  0  0  0  0  0  0  0  0  0  0  0
   -4.1438    2.0374   12.6428 C   0  0  0  0  0  0  0  0  0  0  0  0
   -5.8587    2.3668   12.8180 Cl  0  0  0  0  0  0  0  0  0  0  0  0
   -5.0752   -0.4744   10.7239 C   0  0  0  0  0  0  0  0  0  0  0  0
   -5.9478   -1.5169   10.3807 C   0  0  0  0  0  0  0  0  0  0  0  0
   -6.2360   -2.5312   11.3183 C   0  0  0  0  0  0  0  0  0  0  0  0
   -7.2506   -3.5652   11.0815 C   0  0  0  0  0  0  0  0  0  0  0  0
   -7.0066   -4.9774   10.2025 S   0  0  0  0  0  0  0  0  0  0  0  0
   -8.4411   -5.7299   10.6625 C   0  0  0  0  0  0  0  0  0  0  0  0
   -8.8703   -7.1043   10.2381 C   0  0  0  0  0  0  0  0  0  0  0  0
   -9.9294   -7.0332    9.1420 C   0  0  0  0  0  0  0  0  0  0  0  0
   -9.1325   -4.8791   11.5213 C   0  0  0  0  0  0  0  0  0  0  0  0
   -8.4593   -3.6731   11.7640 C   0  0  0  0  0  0  0  0  0  0  0  0
   -9.0650   -2.4391   12.8625 Cl  0  0  0  0  0  0  0  0  0  0  0  0
  -10.6661   -5.2929   12.2764 Cl  0  0  0  0  0  0  0  0  0  0  0  0
   -5.5605   -2.4659   12.5547 C   0  0  0  0  0  0  0  0  0  0  0  0
   -5.6408   -3.5404   13.8497 S   0  0  0  0  0  0  0  0  0  0  0  0
   -6.4341   -1.4141    9.0629 C   0  0  0  0  0  0  0  0  0  0  0  0
   -5.9057   -0.3126    8.3794 C   0  0  0  0  0  0  0  0  0  0  0  0
   -4.8872    0.5519    9.4130 S   0  0  0  0  0  0  0  0  0  0  0  0
   -6.0346   -0.0087    6.9432 C   0  0  0  0  0  0  0  0  0  0  0  0
   -5.0335    0.6132    6.2048 C   0  0  0  0  0  0  0  0  0  0  0  0
   -5.3815    0.8168    4.8672 C   0  0  0  0  0  0  0  0  0  0  0  0
   -4.5996    1.4955    3.9147 C   0  0  0  0  0  0  0  0  0  0  0  0
   -3.2908    2.0788    4.2584 C   0  0  0  0  0  0  0  0  0  0  0  0
   -1.8834    1.1961    4.4908 S   0  0  0  0  0  0  0  0  0  0  0  0
   -0.9592    2.4818    5.0694 C   0  0  0  0  0  0  0  0  0  0  0  0
    0.4646    2.3763    5.5269 C   0  0  0  0  0  0  0  0  0  0  0  0
    1.4238    2.9584    4.4944 C   0  0  0  0  0  0  0  0  0  0  0  0
   -1.7588    3.6245    5.0935 C   0  0  0  0  0  0  0  0  0  0  0  0
   -1.2075    5.1886    5.6817 Cl  0  0  0  0  0  0  0  0  0  0  0  0
   -3.0655    3.3954    4.6402 C   0  0  0  0  0  0  0  0  0  0  0  0
   -4.3078    4.6413    4.6119 Cl  0  0  0  0  0  0  0  0  0  0  0  0
   -5.1700    1.6846    2.6495 C   0  0  0  0  0  0  0  0  0  0  0  0
   -6.4613    1.2441    2.3251 C   0  0  0  0  0  0  0  0  0  0  0  0
   -7.2467    0.5796    3.2910 C   0  0  0  0  0  0  0  0  0  0  0  0
   -8.6926    0.4238    3.1155 C   0  0  0  0  0  0  0  0  0  0  0  0
   -9.4819   -0.9251    2.5171 S   0  0  0  0  0  0  0  0  0  0  0  0
  -11.0465   -0.3571    2.8105 C   0  0  0  0  0  0  0  0  0  0  0  0
  -12.3025   -1.1081    2.4947 C   0  0  0  0  0  0  0  0  0  0  0  0
  -12.4387   -2.3395    3.3848 C   0  0  0  0  0  0  0  0  0  0  0  0
  -10.9532    0.9009    3.4198 C   0  0  0  0  0  0  0  0  0  0  0  0
   -9.6314    1.3315    3.5848 C   0  0  0  0  0  0  0  0  0  0  0  0
   -9.1830    2.8551    4.3350 Cl  0  0  0  0  0  0  0  0  0  0  0  0
  -12.3448    1.8330    3.9563 Cl  0  0  0  0  0  0  0  0  0  0  0  0
   -6.6615    0.3598    4.5524 C   0  0  0  0  0  0  0  0  0  0  0  0
   -7.3682   -0.3012    5.9409 S   0  0  0  0  0  0  0  0  0  0  0  0
   -6.8656    1.6055    1.0213 C   0  0  0  0  0  0  0  0  0  0  0  0
   -5.8675    2.3187    0.3497 C   0  0  0  0  0  0  0  0  0  0  0  0
   -4.5294    2.5296    1.3507 S   0  0  0  0  0  0  0  0  0  0  0  0
   -5.9478    2.9012   -0.9912 C   0  0  0  0  0  0  0  0  0  0  0  0
   -5.3911    2.2634   -2.1018 C   0  0  0  0  0  0  0  0  0  0  0  0
   -4.8815    3.1592   -3.0585 C   0  0  0  0  0  0  0  0  0  0  0  0
   -4.1002    2.8241   -4.1833 C   0  0  0  0  0  0  0  0  0  0  0  0
   -3.9073    1.4341   -4.6387 C   0  0  0  0  0  0  0  0  0  0  0  0
   -3.1191    0.2134   -3.7909 S   0  0  0  0  0  0  0  0  0  0  0  0
   -3.3473   -0.9880   -4.9514 C   0  0  0  0  0  0  0  0  0  0  0  0
   -2.9545   -2.4290   -4.7805 C   0  0  0  0  0  0  0  0  0  0  0  0
   -3.9819   -3.1700   -3.9352 C   0  0  0  0  0  0  0  0  0  0  0  0
   -4.0508   -0.4407   -6.0217 C   0  0  0  0  0  0  0  0  0  0  0  0
   -4.5397   -1.3642   -7.4376 Cl  0  0  0  0  0  0  0  0  0  0  0  0
   -4.3577    0.9169   -5.8507 C   0  0  0  0  0  0  0  0  0  0  0  0
   -5.2696    1.8561   -7.0192 Cl  0  0  0  0  0  0  0  0  0  0  0  0
   -3.4538    3.8888   -4.8339 C   0  0  0  0  0  0  0  0  0  0  0  0
   -3.6176    5.2285   -4.4553 C   0  0  0  0  0  0  0  0  0  0  0  0
   -4.5135    5.5701   -3.4226 C   0  0  0  0  0  0  0  0  0  0  0  0
   -4.8696    6.9592   -3.0929 C   0  0  0  0  0  0  0  0  0  0  0  0
   -3.8126    8.1660   -2.5732 S   0  0  0  0  0  0  0  0  0  0  0  0
   -4.9601    9.3988   -2.5197 C   0  0  0  0  0  0  0  0  0  0  0  0
   -4.6611   10.8379   -2.2332 C   0  0  0  0  0  0  0  0  0  0  0  0
   -4.3813   11.5933   -3.5298 C   0  0  0  0  0  0  0  0  0  0  0  0
   -6.1970    8.8711   -2.8970 C   0  0  0  0  0  0  0  0  0  0  0  0
   -6.1448    7.5045   -3.2085 C   0  0  0  0  0  0  0  0  0  0  0  0
   -7.5409    6.5901   -3.7671 Cl  0  0  0  0  0  0  0  0  0  0  0  0
   -7.6573    9.8361   -3.0487 Cl  0  0  0  0  0  0  0  0  0  0  0  0
   -5.0949    4.4993   -2.7176 C   0  0  0  0  0  0  0  0  0  0  0  0
   -5.8570    4.5713   -1.2278 S   0  0  0  0  0  0  0  0  0  0  0  0
   -2.7009    6.0959   -5.0689 C   0  0  0  0  0  0  0  0  0  0  0  0
   -1.7585    5.4452   -5.8685 C   0  0  0  0  0  0  0  0  0  0  0  0
   -2.1538    3.7993   -5.8942 S   0  0  0  0  0  0  0  0  0  0  0  0
   -0.3523    5.8623   -5.9008 C   0  0  0  0  0  0  0  0  0  0  0  0
    0.3234    6.0740   -4.6994 C   0  0  0  0  0  0  0  0  0  0  0  0
    1.6619    5.6631   -4.7234 C   0  0  0  0  0  0  0  0  0  0  0  0
    2.4472    5.3979   -3.5802 C   0  0  0  0  0  0  0  0  0  0  0  0
    1.9090    5.6210   -2.2280 C   0  0  0  0  0  0  0  0  0  0  0  0
    2.1088    7.0519   -1.3705 S   0  0  0  0  0  0  0  0  0  0  0  0
    0.8707    6.7833   -0.2571 C   0  0  0  0  0  0  0  0  0  0  0  0
    0.3702    7.7556    0.7875 C   0  0  0  0  0  0  0  0  0  0  0  0
    1.1975    9.0383    0.8730 C   0  0  0  0  0  0  0  0  0  0  0  0
    0.2611    5.5647   -0.5719 C   0  0  0  0  0  0  0  0  0  0  0  0
   -1.1619    4.9487    0.2561 Cl  0  0  0  0  0  0  0  0  0  0  0  0
    0.8371    4.9248   -1.6791 C   0  0  0  0  0  0  0  0  0  0  0  0
    0.2310    3.4082   -2.3404 Cl  0  0  0  0  0  0  0  0  0  0  0  0
    3.6467    4.6954   -3.7821 C   0  0  0  0  0  0  0  0  0  0  0  0
    4.0971    4.3401   -5.0597 C   0  0  0  0  0  0  0  0  0  0  0  0
    3.3345    4.6525   -6.2066 C   0  0  0  0  0  0  0  0  0  0  0  0
    3.7383    4.2349   -7.5594 C   0  0  0  0  0  0  0  0  0  0  0  0
    3.9744    2.6479   -8.0708 S   0  0  0  0  0  0  0  0  0  0  0  0
    4.4491    3.0352   -9.6393 C   0  0  0  0  0  0  0  0  0  0  0  0
    4.9463    2.0390  -10.6472 C   0  0  0  0  0  0  0  0  0  0  0  0
    6.4708    1.9805  -10.6478 C   0  0  0  0  0  0  0  0  0  0  0  0
    4.4092    4.4200   -9.7895 C   0  0  0  0  0  0  0  0  0  0  0  0
    4.0066    5.0901   -8.6261 C   0  0  0  0  0  0  0  0  0  0  0  0
    3.9182    6.8408   -8.4941 Cl  0  0  0  0  0  0  0  0  0  0  0  0
    4.8811    5.2496  -11.2689 Cl  0  0  0  0  0  0  0  0  0  0  0  0
    2.0900    5.2670   -5.9910 C   0  0  0  0  0  0  0  0  0  0  0  0
    0.7637    5.2920   -7.0346 S   0  0  0  0  0  0  0  0  0  0  0  0
    5.2180    3.4989   -5.0361 C   0  0  0  0  0  0  0  0  0  0  0  0
    5.5813    3.0916   -3.7535 C   0  0  0  0  0  0  0  0  0  0  0  0
    4.5821    3.8859   -2.6344 S   0  0  0  0  0  0  0  0  0  0  0  0
    6.3314    1.8454   -3.4796 C   0  0  0  0  0  0  0  0  0  0  0  0
    6.8412    1.0174   -4.4867 C   0  0  0  0  0  0  0  0  0  0  0  0
    7.0138   -0.3101   -4.0801 C   0  0  0  0  0  0  0  0  0  0  0  0
    7.3384   -1.3908   -4.9225 C   0  0  0  0  0  0  0  0  0  0  0  0
    7.6948   -1.1861   -6.3384 C   0  0  0  0  0  0  0  0  0  0  0  0
    8.7936   -0.4629   -6.7855 C   0  0  0  0  0  0  0  0  0  0  0  0
    8.9604   -0.5107   -8.1767 C   0  0  0  0  0  0  0  0  0  0  0  0
   10.1582    0.0787   -8.8715 C   0  0  0  0  0  0  0  0  0  0  0  0
   11.3378   -0.8917   -8.8154 C   0  0  0  0  0  0  0  0  0  0  0  0
    7.9840   -1.2763   -8.8179 C   0  0  0  0  0  0  0  0  0  0  0  0
    7.9082   -1.6614  -10.5300 Cl  0  0  0  0  0  0  0  0  0  0  0  0
    6.9266   -1.8840   -7.6644 S   0  0  0  0  0  0  0  0  0  0  0  0
    7.2631   -2.6774   -4.3616 C   0  0  0  0  0  0  0  0  0  0  0  0
    6.9277   -2.9001   -3.0238 C   0  0  0  0  0  0  0  0  0  0  0  0
    6.6811   -1.8082   -2.1641 C   0  0  0  0  0  0  0  0  0  0  0  0
    6.4940   -1.9677   -0.7222 C   0  0  0  0  0  0  0  0  0  0  0  0
    5.3218   -1.6986   -0.0256 C   0  0  0  0  0  0  0  0  0  0  0  0
    5.5190   -1.6351    1.3618 C   0  0  0  0  0  0  0  0  0  0  0  0
    4.3955   -1.3745    2.3301 C   0  0  0  0  0  0  0  0  0  0  0  0
    3.8170   -2.6848    2.8525 C   0  0  0  0  0  0  0  0  0  0  0  0
    6.8394   -1.8567    1.7460 C   0  0  0  0  0  0  0  0  0  0  0  0
    7.7681   -2.0986    0.3675 S   0  0  0  0  0  0  0  0  0  0  0  0
    7.4856   -1.7976    3.3799 Cl  0  0  0  0  0  0  0  0  0  0  0  0
    6.6898   -0.5258   -2.7396 C   0  0  0  0  0  0  0  0  0  0  0  0
    6.1755    0.9277   -2.0647 S   0  0  0  0  0  0  0  0  0  0  0  0
    6.8022   -4.2673   -2.7029 C   0  0  0  0  0  0  0  0  0  0  0  0
    7.0647   -5.1003   -3.7955 C   0  0  0  0  0  0  0  0  0  0  0  0
    7.4597   -4.1548   -5.1288 S   0  0  0  0  0  0  0  0  0  0  0  0
    6.8580   -6.5582   -3.8755 C   0  0  0  0  0  0  0  0  0  0  0  0
    6.0845   -7.3371   -3.0127 C   0  0  0  0  0  0  0  0  0  0  0  0
    5.9229   -8.6606   -3.4738 C   0  0  0  0  0  0  0  0  0  0  0  0
    5.1426   -9.6691   -2.8755 C   0  0  0  0  0  0  0  0  0  0  0  0
    4.3131   -9.4240   -1.6872 C   0  0  0  0  0  0  0  0  0  0  0  0
    4.5639  -10.1408   -0.1886 S   0  0  0  0  0  0  0  0  0  0  0  0
    3.0649   -9.7340    0.4606 C   0  0  0  0  0  0  0  0  0  0  0  0
    2.5799  -10.1536    1.8160 C   0  0  0  0  0  0  0  0  0  0  0  0
    2.6398   -8.9910    2.8005 C   0  0  0  0  0  0  0  0  0  0  0  0
    2.3385   -9.0363   -0.5054 C   0  0  0  0  0  0  0  0  0  0  0  0
    0.6864   -8.4777   -0.2715 Cl  0  0  0  0  0  0  0  0  0  0  0  0
    3.0357   -8.8744   -1.7106 C   0  0  0  0  0  0  0  0  0  0  0  0
    2.3273   -8.1691   -3.1598 Cl  0  0  0  0  0  0  0  0  0  0  0  0
    5.0816  -10.9067   -3.5369 C   0  0  0  0  0  0  0  0  0  0  0  0
    5.7224  -11.1449   -4.7499 C   0  0  0  0  0  0  0  0  0  0  0  0
    6.4807  -10.1344   -5.3613 C   0  0  0  0  0  0  0  0  0  0  0  0
    7.0407  -10.2968   -6.7134 C   0  0  0  0  0  0  0  0  0  0  0  0
    8.6765  -10.3417   -7.0837 S   0  0  0  0  0  0  0  0  0  0  0  0
    8.4758  -10.4243   -8.7515 C   0  0  0  0  0  0  0  0  0  0  0  0
    9.5938  -10.3801   -9.7497 C   0  0  0  0  0  0  0  0  0  0  0  0
    9.8821   -8.9449  -10.1666 C   0  0  0  0  0  0  0  0  0  0  0  0
    7.1134  -10.3884   -9.0401 C   0  0  0  0  0  0  0  0  0  0  0  0
    6.3056  -10.3206   -7.8950 C   0  0  0  0  0  0  0  0  0  0  0  0
    4.5569  -10.1695   -7.9528 Cl  0  0  0  0  0  0  0  0  0  0  0  0
    6.4683  -10.3695  -10.6766 Cl  0  0  0  0  0  0  0  0  0  0  0  0
    6.5774   -8.9105   -4.6826 C   0  0  0  0  0  0  0  0  0  0  0  0
    7.3276   -7.5011   -5.1962 S   0  0  0  0  0  0  0  0  0  0  0  0
    5.4918  -12.4334   -5.2570 C   0  0  0  0  0  0  0  0  0  0  0  0
    4.6676  -13.2018   -4.4423 C   0  0  0  0  0  0  0  0  0  0  0  0
    4.2214  -12.2853   -3.1011 S   0  0  0  0  0  0  0  0  0  0  0  0
   -4.2568   -2.9880   15.8369 H   0  0  0  0  0  0  0  0  0  0  0  0
   -3.4354   -0.8428   14.5997 H   0  0  0  0  0  0  0  0  0  0  0  0
    0.2452    2.6619   12.9811 H   0  0  0  0  0  0  0  0  0  0  0  0
   -0.6695    4.1759   13.2792 H   0  0  0  0  0  0  0  0  0  0  0  0
   -0.1238    2.9045   10.5183 H   0  0  0  0  0  0  0  0  0  0  0  0
   -1.0815    4.4154   10.7972 H   0  0  0  0  0  0  0  0  0  0  0  0
    0.6780    4.3668   11.2043 H   0  0  0  0  0  0  0  0  0  0  0  0
   -7.9890   -7.6710    9.8724 H   0  0  0  0  0  0  0  0  0  0  0  0
   -9.2863   -7.6459   11.1130 H   0  0  0  0  0  0  0  0  0  0  0  0
  -10.8407   -6.5134    9.5053 H   0  0  0  0  0  0  0  0  0  0  0  0
  -10.2009   -8.0631    8.8287 H   0  0  0  0  0  0  0  0  0  0  0  0
   -9.5220   -6.4943    8.2542 H   0  0  0  0  0  0  0  0  0  0  0  0
   -7.0861   -2.1488    8.6039 H   0  0  0  0  0  0  0  0  0  0  0  0
   -4.0945    0.9414    6.6348 H   0  0  0  0  0  0  0  0  0  0  0  0
    0.7168    1.3096    5.7002 H   0  0  0  0  0  0  0  0  0  0  0  0
    0.5846    2.9155    6.4903 H   0  0  0  0  0  0  0  0  0  0  0  0
    1.1893    4.0264    4.2917 H   0  0  0  0  0  0  0  0  0  0  0  0
    1.3581    2.3764    3.5501 H   0  0  0  0  0  0  0  0  0  0  0  0
    2.4618    2.8864    4.8813 H   0  0  0  0  0  0  0  0  0  0  0  0
  -13.1979   -0.4645    2.6388 H   0  0  0  0  0  0  0  0  0  0  0  0
  -12.2794   -1.4245    1.4267 H   0  0  0  0  0  0  0  0  0  0  0  0
  -11.6402   -3.0742    3.1504 H   0  0  0  0  0  0  0  0  0  0  0  0
  -13.4293   -2.8097    3.2196 H   0  0  0  0  0  0  0  0  0  0  0  0
  -12.3645   -2.0546    4.4590 H   0  0  0  0  0  0  0  0  0  0  0  0
   -7.8243    1.3567    0.5886 H   0  0  0  0  0  0  0  0  0  0  0  0
   -5.2292    1.1961   -2.1318 H   0  0  0  0  0  0  0  0  0  0  0  0
   -2.8645   -2.9200   -5.7724 H   0  0  0  0  0  0  0  0  0  0  0  0
   -1.9596   -2.4867   -4.2917 H   0  0  0  0  0  0  0  0  0  0  0  0
   -4.9965   -3.0601   -4.3747 H   0  0  0  0  0  0  0  0  0  0  0  0
   -3.9943   -2.7595   -2.9036 H   0  0  0  0  0  0  0  0  0  0  0  0
   -3.7123   -4.2485   -3.8897 H   0  0  0  0  0  0  0  0  0  0  0  0
   -5.5235   11.3039   -1.7067 H   0  0  0  0  0  0  0  0  0  0  0  0
   -3.7739   10.9111   -1.5656 H   0  0  0  0  0  0  0  0  0  0  0  0
   -4.3126   12.6796   -3.3158 H   0  0  0  0  0  0  0  0  0  0  0  0
   -5.1973   11.4283   -4.2662 H   0  0  0  0  0  0  0  0  0  0  0  0
   -3.4229   11.2465   -3.9662 H   0  0  0  0  0  0  0  0  0  0  0  0
   -2.5921    7.1376   -4.7994 H   0  0  0  0  0  0  0  0  0  0  0  0
   -0.2003    6.3153   -3.7843 H   0  0  0  0  0  0  0  0  0  0  0  0
   -0.6820    8.0243    0.5477 H   0  0  0  0  0  0  0  0  0  0  0  0
    0.3843    7.2524    1.7763 H   0  0  0  0  0  0  0  0  0  0  0  0
    0.7536    9.7111    1.6405 H   0  0  0  0  0  0  0  0  0  0  0  0
    1.1928    9.5728   -0.0991 H   0  0  0  0  0  0  0  0  0  0  0  0
    2.2462    8.8064    1.1665 H   0  0  0  0  0  0  0  0  0  0  0  0
    4.5491    1.0331  -10.3995 H   0  0  0  0  0  0  0  0  0  0  0  0
    4.5814    2.3183  -11.6620 H   0  0  0  0  0  0  0  0  0  0  0  0
    6.8167    1.2691  -11.4302 H   0  0  0  0  0  0  0  0  0  0  0  0
    6.8462    1.6357   -9.6594 H   0  0  0  0  0  0  0  0  0  0  0  0
    6.9021    2.9820  -10.8651 H   0  0  0  0  0  0  0  0  0  0  0  0
    5.6630    3.0891   -5.9329 H   0  0  0  0  0  0  0  0  0  0  0  0
    6.9556    1.3275   -5.5159 H   0  0  0  0  0  0  0  0  0  0  0  0
    9.4815    0.0442   -6.1181 H   0  0  0  0  0  0  0  0  0  0  0  0
    9.9189    0.3056   -9.9345 H   0  0  0  0  0  0  0  0  0  0  0  0
   10.4436    1.0355   -8.3791 H   0  0  0  0  0  0  0  0  0  0  0  0
   12.1985   -0.4652   -9.3694 H   0  0  0  0  0  0  0  0  0  0  0  0
   11.0641   -1.8645   -9.2781 H   0  0  0  0  0  0  0  0  0  0  0  0
   11.6470   -1.0564   -7.7577 H   0  0  0  0  0  0  0  0  0  0  0  0
    4.3667   -1.5068   -0.5039 H   0  0  0  0  0  0  0  0  0  0  0  0
    4.7650   -0.7715    3.1840 H   0  0  0  0  0  0  0  0  0  0  0  0
    3.5855   -0.8026    1.8235 H   0  0  0  0  0  0  0  0  0  0  0  0
    3.0157   -2.4695    3.5935 H   0  0  0  0  0  0  0  0  0  0  0  0
    3.3776   -3.2676    2.0165 H   0  0  0  0  0  0  0  0  0  0  0  0
    4.6089   -3.2876    3.3501 H   0  0  0  0  0  0  0  0  0  0  0  0
    6.4925   -4.6279   -1.7325 H   0  0  0  0  0  0  0  0  0  0  0  0
    5.6058   -6.9498   -2.1197 H   0  0  0  0  0  0  0  0  0  0  0  0
    3.2123  -10.9869    2.1918 H   0  0  0  0  0  0  0  0  0  0  0  0
    1.5331  -10.5229    1.7390 H   0  0  0  0  0  0  0  0  0  0  0  0
    2.3306   -9.3393    3.8069 H   0  0  0  0  0  0  0  0  0  0  0  0
    1.9492   -8.1860    2.4775 H   0  0  0  0  0  0  0  0  0  0  0  0
    3.6748   -8.5946    2.8587 H   0  0  0  0  0  0  0  0  0  0  0  0
   10.5145  -10.8203   -9.3007 H   0  0  0  0  0  0  0  0  0  0  0  0
    9.3231  -10.9832  -10.6427 H   0  0  0  0  0  0  0  0  0  0  0  0
    8.9732   -8.4766  -10.5994 H   0  0  0  0  0  0  0  0  0  0  0  0
   10.6823   -8.9340  -10.9360 H   0  0  0  0  0  0  0  0  0  0  0  0
   10.2183   -8.3508   -9.2887 H   0  0  0  0  0  0  0  0  0  0  0  0
    5.9011  -12.8001   -6.1868 H   0  0  0  0  0  0  0  0  0  0  0  0
    4.3623  -14.2182   -4.6424 H   0  0  0  0  0  0  0  0  0  0  0  0
  1  2  2  0
  2  3  1  0
  3  4  2  0
  4  5  1  0
  5  6  1  0
  6  7  1  0
  7  8  1  0
  8  9  1  0
  7 10  2  0
 10 11  1  0
 10 12  1  0
 12 13  1  0
  4 14  1  0
 14 15  2  0
 15 16  1  0
 16 17  1  0
 17 18  1  0
 18 19  1  0
 19 20  1  0
 20 21  1  0
 19 22  2  0
 22 23  1  0
 23 24  1  0
 22 25  1  0
 16 26  2  0
 26 27  1  0
 15 28  1  0
 28 29  2  0
 29 30  1  0
 29 31  1  0
 31 32  2  0
 32 33  1  0
 33 34  2  0
 34 35  1  0
 35 36  1  0
 36 37  1  0
 37 38  1  0
 38 39  1  0
 37 40  2  0
 40 41  1  0
 40 42  1  0
 42 43  1  0
 34 44  1  0
 44 45  2  0
 45 46  1  0
 46 47  1  0
 47 48  1  0
 48 49  1  0
 49 50  1  0
 50 51  1  0
 49 52  2  0
 52 53  1  0
 53 54  1  0
 52 55  1  0
 46 56  2  0
 56 57  1  0
 45 58  1  0
 58 59  2  0
 59 60  1  0
 59 61  1  0
 61 62  2  0
 62 63  1  0
 63 64  2  0
 64 65  1  0
 65 66  1  0
 66 67  1  0
 67 68  1  0
 68 69  1  0
 67 70  2  0
 70 71  1  0
 70 72  1  0
 72 73  1  0
 64 74  1  0
 74 75  2  0
 75 76  1  0
 76 77  1  0
 77 78  1  0
 78 79  1  0
 79 80  1  0
 80 81  1  0
 79 82  2  0
 82 83  1  0
 83 84  1  0
 82 85  1  0
 76 86  2  0
 86 87  1  0
 75 88  1  0
 88 89  2  0
 89 90  1  0
 89 91  1  0
 91 92  2  0
 92 93  1  0
 93 94  2  0
 94 95  1  0
 95 96  1  0
 96 97  1  0
 97 98  1  0
 98 99  1  0
 97100  2  0
100101  1  0
100102  1  0
102103  1  0
 94104  1  0
104105  2  0
105106  1  0
106107  1  0
107108  1  0
108109  1  0
109110  1  0
110111  1  0
109112  2  0
112113  1  0
113114  1  0
112115  1  0
106116  2  0
116117  1  0
105118  1  0
118119  2  0
119120  1  0
119121  1  0
121122  2  0
122123  1  0
123124  2  0
124125  1  0
125126  2  0
126127  1  0
127128  1  0
128129  1  0
127130  2  0
130131  1  0
130132  1  0
124133  1  0
133134  2  0
134135  1  0
135136  1  0
136137  2  0
137138  1  0
138139  1  0
139140  1  0
138141  2  0
141142  1  0
141143  1  0
135144  2  0
144145  1  0
134146  1  0
146147  2  0
147148  1  0
147149  1  0
149150  2  0
150151  1  0
151152  2  0
152153  1  0
153154  1  0
154155  1  0
155156  1  0
156157  1  0
155158  2  0
158159  1  0
158160  1  0
160161  1  0
152162  1  0
162163  2  0
163164  1  0
164165  1  0
165166  1  0
166167  1  0
167168  1  0
168169  1  0
167170  2  0
170171  1  0
171172  1  0
170173  1  0
164174  2  0
174175  1  0
163176  1  0
176177  2  0
177178  1  0
 27  1  1  0
 57 31  1  0
 87 61  1  0
117 91  1  0
145121  1  0
175149  1  0
 26  3  1  0
 56 33  1  0
 86 63  1  0
116 93  1  0
144123  1  0
174151  1  0
 12  5  2  0
 30 14  1  0
 42 35  2  0
 60 44  1  0
 72 65  2  0
 90 74  1  0
102 95  2  0
120104  1  0
132125  1  0
148133  1  0
160153  2  0
178162  1  0
 23 17  2  0
 53 47  2  0
 83 77  2  0
113107  2  0
142136  1  0
171165  2  0
  1179  1  0
  2180  1  0
  8181  1  0
  8182  1  0
  9183  1  0
  9184  1  0
  9185  1  0
 20186  1  0
 20187  1  0
 21188  1  0
 21189  1  0
 21190  1  0
 28191  1  0
 32192  1  0
 38193  1  0
 38194  1  0
 39195  1  0
 39196  1  0
 39197  1  0
 50198  1  0
 50199  1  0
 51200  1  0
 51201  1  0
 51202  1  0
 58203  1  0
 62204  1  0
 68205  1  0
 68206  1  0
 69207  1  0
 69208  1  0
 69209  1  0
 80210  1  0
 80211  1  0
 81212  1  0
 81213  1  0
 81214  1  0
 88215  1  0
 92216  1  0
 98217  1  0
 98218  1  0
 99219  1  0
 99220  1  0
 99221  1  0
110222  1  0
110223  1  0
111224  1  0
111225  1  0
111226  1  0
118227  1  0
122228  1  0
126229  1  0
128230  1  0
128231  1  0
129232  1  0
129233  1  0
129234  1  0
137235  1  0
139236  1  0
139237  1  0
140238  1  0
140239  1  0
140240  1  0
146241  1  0
150242  1  0
156243  1  0
156244  1  0
157245  1  0
157246  1  0
157247  1  0
168248  1  0
168249  1  0
169250  1  0
169251  1  0
169252  1  0
176253  1  0
177254  1  0
M  END

