
     RDKit          3D

191211  0  0  0  0  0  0  0  0999 V2000
    8.6356   -4.8685   12.8807 C   0  0  0  0  0  0  0  0  0  0  0  0
    8.5863   -3.8492   11.9364 C   0  0  0  0  0  0  0  0  0  0  0  0
    8.0366   -4.2576   10.7085 C   0  0  0  0  0  0  0  0  0  0  0  0
    7.8818   -3.4644    9.5498 C   0  0  0  0  0  0  0  0  0  0  0  0
    8.2828   -2.0444    9.5313 C   0  0  0  0  0  0  0  0  0  0  0  0
    9.3706   -1.6282    8.7504 C   0  0  0  0  0  0  0  0  0  0  0  0
    9.8276   -0.3073    8.8290 C   0  0  0  0  0  0  0  0  0  0  0  0
    9.1835    0.6123    9.6677 C   0  0  0  0  0  0  0  0  0  0  0  0
    9.8319    2.2792    9.8389 S   0  0  0  0  0  0  0  0  0  0  0  0
    8.7691    3.0076    8.5451 C   0  0  0  0  0  0  0  0  0  0  0  0
    9.4042    2.8463    7.1704 C   0  0  0  0  0  0  0  0  0  0  0  0
    8.0763    0.2033   10.4264 C   0  0  0  0  0  0  0  0  0  0  0  0
    7.4497    1.0802   11.2518 F   0  0  0  0  0  0  0  0  0  0  0  0
    7.6289   -1.1175   10.3565 C   0  0  0  0  0  0  0  0  0  0  0  0
    7.3371   -4.0974    8.4169 C   0  0  0  0  0  0  0  0  0  0  0  0
    6.9308   -5.4386    8.4268 C   0  0  0  0  0  0  0  0  0  0  0  0
    7.1126   -6.2324    9.5744 C   0  0  0  0  0  0  0  0  0  0  0  0
    6.8307   -7.6770    9.5756 C   0  0  0  0  0  0  0  0  0  0  0  0
    5.5278   -8.1503    9.7827 C   0  0  0  0  0  0  0  0  0  0  0  0
    5.2800   -9.5281    9.8310 C   0  0  0  0  0  0  0  0  0  0  0  0
    6.3312  -10.4379    9.6526 C   0  0  0  0  0  0  0  0  0  0  0  0
    6.0152  -12.2056    9.7388 S   0  0  0  0  0  0  0  0  0  0  0  0
    5.6269  -12.3784    7.9606 C   0  0  0  0  0  0  0  0  0  0  0  0
    6.1709  -13.7002    7.4419 C   0  0  0  0  0  0  0  0  0  0  0  0
    7.6332   -9.9667    9.4324 C   0  0  0  0  0  0  0  0  0  0  0  0
    7.8820   -8.5904    9.3939 C   0  0  0  0  0  0  0  0  0  0  0  0
    8.6628  -10.8349    9.2749 F   0  0  0  0  0  0  0  0  0  0  0  0
    7.6651   -5.6057   10.7003 C   0  0  0  0  0  0  0  0  0  0  0  0
    8.0122   -6.2791   12.2024 S   0  0  0  0  0  0  0  0  0  0  0  0
    6.3737   -5.8620    7.2114 C   0  0  0  0  0  0  0  0  0  0  0  0
    6.3677   -4.8615    6.2432 C   0  0  0  0  0  0  0  0  0  0  0  0
    7.0382   -3.4474    6.8907 S   0  0  0  0  0  0  0  0  0  0  0  0
    5.8323   -5.0167    4.8819 C   0  0  0  0  0  0  0  0  0  0  0  0
    6.2591   -4.3334    3.8217 C   0  0  0  0  0  0  0  0  0  0  0  0
    5.5007   -4.7889    2.6733 C   0  0  0  0  0  0  0  0  0  0  0  0
    4.5959   -5.6448    3.0585 C   0  0  0  0  0  0  0  0  0  0  0  0
    4.7130   -5.9494    4.5100 C   0  0  0  0  0  0  0  0  0  0  0  0
    3.4066   -5.5556    2.2884 N   0  0  0  0  0  0  0  0  0  0  0  0
    3.6484   -4.6683    1.3756 C   0  0  0  0  0  0  0  0  0  0  0  0
    5.0102   -4.0402    1.4941 C   0  0  0  0  0  0  0  0  0  0  0  0
    2.6690   -4.2848    0.3523 C   0  0  0  0  0  0  0  0  0  0  0  0
    1.2961   -4.1238    0.5445 C   0  0  0  0  0  0  0  0  0  0  0  0
    0.6433   -3.5907   -0.5864 C   0  0  0  0  0  0  0  0  0  0  0  0
   -0.7181   -3.2113   -0.6772 C   0  0  0  0  0  0  0  0  0  0  0  0
   -1.6345   -3.2924    0.4852 C   0  0  0  0  0  0  0  0  0  0  0  0
   -1.9427   -4.5293    1.0704 C   0  0  0  0  0  0  0  0  0  0  0  0
   -2.8219   -4.5937    2.1559 C   0  0  0  0  0  0  0  0  0  0  0  0
   -3.4064   -3.4223    2.6591 C   0  0  0  0  0  0  0  0  0  0  0  0
   -4.5466   -3.4975    4.0458 S   0  0  0  0  0  0  0  0  0  0  0  0
   -6.0331   -3.8328    3.0353 C   0  0  0  0  0  0  0  0  0  0  0  0
   -6.4259   -5.2993    3.1626 C   0  0  0  0  0  0  0  0  0  0  0  0
   -3.0878   -2.1852    2.0888 C   0  0  0  0  0  0  0  0  0  0  0  0
   -3.6547   -1.0438    2.5581 F   0  0  0  0  0  0  0  0  0  0  0  0
   -2.2073   -2.1178    1.0064 C   0  0  0  0  0  0  0  0  0  0  0  0
   -1.1250   -2.6167   -1.8889 C   0  0  0  0  0  0  0  0  0  0  0  0
   -0.2439   -2.3785   -2.9522 C   0  0  0  0  0  0  0  0  0  0  0  0
    1.1053   -2.7741   -2.8686 C   0  0  0  0  0  0  0  0  0  0  0  0
    2.0415   -2.6134   -3.9993 C   0  0  0  0  0  0  0  0  0  0  0  0
    1.8083   -3.3027   -5.1998 C   0  0  0  0  0  0  0  0  0  0  0  0
    2.6967   -3.1714   -6.2727 C   0  0  0  0  0  0  0  0  0  0  0  0
    3.8315   -2.3596   -6.1524 C   0  0  0  0  0  0  0  0  0  0  0  0
    4.9456   -2.1702   -7.5524 S   0  0  0  0  0  0  0  0  0  0  0  0
    5.8818   -3.7115   -7.2434 C   0  0  0  0  0  0  0  0  0  0  0  0
    6.9748   -3.4951   -6.2068 C   0  0  0  0  0  0  0  0  0  0  0  0
    4.0666   -1.6632   -4.9576 C   0  0  0  0  0  0  0  0  0  0  0  0
    3.1765   -1.7935   -3.8849 C   0  0  0  0  0  0  0  0  0  0  0  0
    5.1481   -0.8473   -4.8391 F   0  0  0  0  0  0  0  0  0  0  0  0
    1.5171   -3.3606   -1.6600 C   0  0  0  0  0  0  0  0  0  0  0  0
    3.0769   -3.7936   -1.2046 S   0  0  0  0  0  0  0  0  0  0  0  0
   -0.8289   -1.6520   -4.0025 C   0  0  0  0  0  0  0  0  0  0  0  0
   -2.1703   -1.3597   -3.7807 C   0  0  0  0  0  0  0  0  0  0  0  0
   -2.6354   -1.9789   -2.2804 S   0  0  0  0  0  0  0  0  0  0  0  0
   -2.9552   -0.3941   -4.5543 C   0  0  0  0  0  0  0  0  0  0  0  0
   -2.4776    0.8510   -4.9556 C   0  0  0  0  0  0  0  0  0  0  0  0
   -3.4872    1.6899   -5.4467 C   0  0  0  0  0  0  0  0  0  0  0  0
   -3.3384    3.0475   -5.7874 C   0  0  0  0  0  0  0  0  0  0  0  0
   -2.0227    3.7134   -5.7467 C   0  0  0  0  0  0  0  0  0  0  0  0
   -1.0835    3.4735   -6.7612 C   0  0  0  0  0  0  0  0  0  0  0  0
    0.1796    4.0625   -6.7018 C   0  0  0  0  0  0  0  0  0  0  0  0
    0.5230    4.8881   -5.6246 C   0  0  0  0  0  0  0  0  0  0  0  0
    2.1609    5.6277   -5.5557 S   0  0  0  0  0  0  0  0  0  0  0  0
    2.9135    4.2730   -4.5836 C   0  0  0  0  0  0  0  0  0  0  0  0
    3.5451    3.2369   -5.5060 C   0  0  0  0  0  0  0  0  0  0  0  0
   -0.4185    5.1406   -4.6142 C   0  0  0  0  0  0  0  0  0  0  0  0
   -0.0995    5.9340   -3.5611 F   0  0  0  0  0  0  0  0  0  0  0  0
   -1.6877    4.5565   -4.6764 C   0  0  0  0  0  0  0  0  0  0  0  0
   -4.5094    3.7534   -6.1063 C   0  0  0  0  0  0  0  0  0  0  0  0
   -5.7699    3.1461   -6.1528 C   0  0  0  0  0  0  0  0  0  0  0  0
   -5.9117    1.7702   -5.8616 C   0  0  0  0  0  0  0  0  0  0  0  0
   -7.2050    1.0706   -6.0058 C   0  0  0  0  0  0  0  0  0  0  0  0
   -7.3432    0.0565   -6.9662 C   0  0  0  0  0  0  0  0  0  0  0  0
   -8.5733   -0.5730   -7.1534 C   0  0  0  0  0  0  0  0  0  0  0  0
   -9.6827   -0.1983   -6.3831 C   0  0  0  0  0  0  0  0  0  0  0  0
  -11.2580   -1.0250   -6.6378 S   0  0  0  0  0  0  0  0  0  0  0  0
  -11.7753    0.0319   -8.0375 C   0  0  0  0  0  0  0  0  0  0  0  0
  -12.3990    1.3300   -7.5439 C   0  0  0  0  0  0  0  0  0  0  0  0
   -9.5488    0.8064   -5.4132 C   0  0  0  0  0  0  0  0  0  0  0  0
   -8.3121    1.4370   -5.2250 C   0  0  0  0  0  0  0  0  0  0  0  0
  -10.6076    1.1642   -4.6425 F   0  0  0  0  0  0  0  0  0  0  0  0
   -4.7491    1.0835   -5.4703 C   0  0  0  0  0  0  0  0  0  0  0  0
   -4.6220   -0.4717   -4.8233 S   0  0  0  0  0  0  0  0  0  0  0  0
   -6.8005    4.0473   -6.4727 C   0  0  0  0  0  0  0  0  0  0  0  0
   -6.3488    5.3585   -6.6406 C   0  0  0  0  0  0  0  0  0  0  0  0
   -4.6721    5.3947   -6.4378 S   0  0  0  0  0  0  0  0  0  0  0  0
   -7.1906    6.5577   -6.8221 C   0  0  0  0  0  0  0  0  0  0  0  0
   -8.5243    6.5617   -6.8192 C   0  0  0  0  0  0  0  0  0  0  0  0
   -8.9720    7.9418   -6.8376 C   0  0  0  0  0  0  0  0  0  0  0  0
   -7.9330    8.7359   -6.8218 C   0  0  0  0  0  0  0  0  0  0  0  0
   -6.6585    7.9677   -6.8328 C   0  0  0  0  0  0  0  0  0  0  0  0
   -8.1868    9.9339   -6.1088 N   0  0  0  0  0  0  0  0  0  0  0  0
   -9.4173    9.8674   -5.7123 C   0  0  0  0  0  0  0  0  0  0  0  0
  -10.0897    8.5750   -6.0906 C   0  0  0  0  0  0  0  0  0  0  0  0
  -10.0501   10.9487   -4.9362 C   0  0  0  0  0  0  0  0  0  0  0  0
  -11.3366   10.9778   -4.5852 C   0  0  0  0  0  0  0  0  0  0  0  0
  -11.5755   12.2200   -3.8816 C   0  0  0  0  0  0  0  0  0  0  0  0
  -10.4757   12.9240   -3.8506 C   0  0  0  0  0  0  0  0  0  0  0  0
   -9.3523   12.2142   -4.5154 C   0  0  0  0  0  0  0  0  0  0  0  0
  -10.7313   14.3162   -3.8710 N   0  0  0  0  0  0  0  0  0  0  0  0
  -12.0213   14.4451   -3.8780 C   0  0  0  0  0  0  0  0  0  0  0  0
  -12.7461   13.1295   -3.9159 C   0  0  0  0  0  0  0  0  0  0  0  0
    9.0192   -4.7725   13.8859 H   0  0  0  0  0  0  0  0  0  0  0  0
    8.9538   -2.8496   12.1364 H   0  0  0  0  0  0  0  0  0  0  0  0
    9.8906   -2.3344    8.1150 H   0  0  0  0  0  0  0  0  0  0  0  0
   10.6990   -0.0059    8.2538 H   0  0  0  0  0  0  0  0  0  0  0  0
    7.7537    2.5548    8.5546 H   0  0  0  0  0  0  0  0  0  0  0  0
    8.6606    4.0900    8.7623 H   0  0  0  0  0  0  0  0  0  0  0  0
   10.4295    3.2731    7.1727 H   0  0  0  0  0  0  0  0  0  0  0  0
    8.7953    3.3828    6.4130 H   0  0  0  0  0  0  0  0  0  0  0  0
    9.4522    1.7743    6.8931 H   0  0  0  0  0  0  0  0  0  0  0  0
    6.7863   -1.4268   10.9648 H   0  0  0  0  0  0  0  0  0  0  0  0
    4.7087   -7.4575    9.9182 H   0  0  0  0  0  0  0  0  0  0  0  0
    4.2750   -9.8869   10.0121 H   0  0  0  0  0  0  0  0  0  0  0  0
    4.5199  -12.3637    7.8397 H   0  0  0  0  0  0  0  0  0  0  0  0
    6.0611  -11.5487    7.3574 H   0  0  0  0  0  0  0  0  0  0  0  0
    5.8029  -14.5425    8.0687 H   0  0  0  0  0  0  0  0  0  0  0  0
    5.8235  -13.8577    6.3990 H   0  0  0  0  0  0  0  0  0  0  0  0
    7.2813  -13.6938    7.4485 H   0  0  0  0  0  0  0  0  0  0  0  0
    8.8930   -8.2345    9.2403 H   0  0  0  0  0  0  0  0  0  0  0  0
    6.0021   -6.8639    7.0360 H   0  0  0  0  0  0  0  0  0  0  0  0
    7.0210   -3.5633    3.8214 H   0  0  0  0  0  0  0  0  0  0  0  0
    4.9990   -7.0098    4.6681 H   0  0  0  0  0  0  0  0  0  0  0  0
    3.7807   -5.6856    5.0547 H   0  0  0  0  0  0  0  0  0  0  0  0
    5.6376   -4.2478    0.6010 H   0  0  0  0  0  0  0  0  0  0  0  0
    4.9277   -2.9522    1.7028 H   0  0  0  0  0  0  0  0  0  0  0  0
    0.8040   -4.3269    1.4881 H   0  0  0  0  0  0  0  0  0  0  0  0
   -1.5046   -5.4442    0.6824 H   0  0  0  0  0  0  0  0  0  0  0  0
   -3.0631   -5.5570    2.5932 H   0  0  0  0  0  0  0  0  0  0  0  0
   -5.8780   -3.5749    1.9633 H   0  0  0  0  0  0  0  0  0  0  0  0
   -6.8654   -3.2012    3.4160 H   0  0  0  0  0  0  0  0  0  0  0  0
   -5.5990   -5.9566    2.8186 H   0  0  0  0  0  0  0  0  0  0  0  0
   -7.3287   -5.5053    2.5464 H   0  0  0  0  0  0  0  0  0  0  0  0
   -6.6601   -5.5407    4.2209 H   0  0  0  0  0  0  0  0  0  0  0  0
   -1.9648   -1.1501    0.5744 H   0  0  0  0  0  0  0  0  0  0  0  0
    0.9404   -3.9365   -5.3040 H   0  0  0  0  0  0  0  0  0  0  0  0
    2.5034   -3.7126   -7.1902 H   0  0  0  0  0  0  0  0  0  0  0  0
    6.3547   -4.0220   -8.1991 H   0  0  0  0  0  0  0  0  0  0  0  0
    5.2031   -4.5322   -6.9224 H   0  0  0  0  0  0  0  0  0  0  0  0
    7.5628   -4.4291   -6.0879 H   0  0  0  0  0  0  0  0  0  0  0  0
    7.6583   -2.6823   -6.5350 H   0  0  0  0  0  0  0  0  0  0  0  0
    6.5319   -3.2281   -5.2263 H   0  0  0  0  0  0  0  0  0  0  0  0
    3.3616   -1.2391   -2.9698 H   0  0  0  0  0  0  0  0  0  0  0  0
   -0.2793   -1.3030   -4.8698 H   0  0  0  0  0  0  0  0  0  0  0  0
   -1.4519    1.1635   -4.8077 H   0  0  0  0  0  0  0  0  0  0  0  0
   -1.3313    2.8244   -7.5940 H   0  0  0  0  0  0  0  0  0  0  0  0
    0.8957    3.8701   -7.4886 H   0  0  0  0  0  0  0  0  0  0  0  0
    3.7045    4.7086   -3.9390 H   0  0  0  0  0  0  0  0  0  0  0  0
    2.1642    3.7902   -3.9205 H   0  0  0  0  0  0  0  0  0  0  0  0
    4.0310    2.4440   -4.8993 H   0  0  0  0  0  0  0  0  0  0  0  0
    2.7728    2.7648   -6.1466 H   0  0  0  0  0  0  0  0  0  0  0  0
    4.3172    3.7170   -6.1440 H   0  0  0  0  0  0  0  0  0  0  0  0
   -2.4071    4.7443   -3.8905 H   0  0  0  0  0  0  0  0  0  0  0  0
   -6.4986   -0.2335   -7.5810 H   0  0  0  0  0  0  0  0  0  0  0  0
   -8.6678   -1.3521   -7.8977 H   0  0  0  0  0  0  0  0  0  0  0  0
  -10.9159    0.2522   -8.7081 H   0  0  0  0  0  0  0  0  0  0  0  0
  -12.5318   -0.5266   -8.6282 H   0  0  0  0  0  0  0  0  0  0  0  0
  -12.8187    1.8920   -8.4054 H   0  0  0  0  0  0  0  0  0  0  0  0
  -13.2182    1.1106   -6.8247 H   0  0  0  0  0  0  0  0  0  0  0  0
  -11.6322    1.9614   -7.0494 H   0  0  0  0  0  0  0  0  0  0  0  0
   -8.2183    2.2131   -4.4751 H   0  0  0  0  0  0  0  0  0  0  0  0
   -7.8408    3.7660   -6.5493 H   0  0  0  0  0  0  0  0  0  0  0  0
   -9.1670    5.6955   -6.7153 H   0  0  0  0  0  0  0  0  0  0  0  0
   -6.0773    8.1731   -7.7560 H   0  0  0  0  0  0  0  0  0  0  0  0
   -6.0672    8.1711   -5.9116 H   0  0  0  0  0  0  0  0  0  0  0  0
  -10.9650    8.7503   -6.7477 H   0  0  0  0  0  0  0  0  0  0  0  0
  -10.3521    7.9907   -5.1852 H   0  0  0  0  0  0  0  0  0  0  0  0
  -12.0805   10.2319   -4.8352 H   0  0  0  0  0  0  0  0  0  0  0  0
   -8.9919   12.7802   -5.4026 H   0  0  0  0  0  0  0  0  0  0  0  0
   -8.5320   12.0081   -3.7933 H   0  0  0  0  0  0  0  0  0  0  0  0
  -12.5087   15.4114   -3.8948 H   0  0  0  0  0  0  0  0  0  0  0  0
  -13.3855   12.9932   -3.0167 H   0  0  0  0  0  0  0  0  0  0  0  0
  -13.3200   13.0267   -4.8629 H   0  0  0  0  0  0  0  0  0  0  0  0
  1  2  2  0
  2  3  1  0
  3  4  2  0
  4  5  1  0
  5  6  2  0
  6  7  1  0
  7  8  2  0
  8  9  1  0
  9 10  1  0
 10 11  1  0
  8 12  1  0
 12 13  1  0
 12 14  2  0
  4 15  1  0
 15 16  2  0
 16 17  1  0
 17 18  1  0
 18 19  2  0
 19 20  1  0
 20 21  2  0
 21 22  1  0
 22 23  1  0
 23 24  1  0
 21 25  1  0
 25 26  2  0
 25 27  1  0
 17 28  2  0
 28 29  1  0
 16 30  1  0
 30 31  2  0
 31 32  1  0
 31 33  1  0
 33 34  2  0
 34 35  1  0
 35 36  2  0
 36 37  1  0
 36 38  1  0
 38 39  2  0
 39 40  1  0
 39 41  1  0
 41 42  2  0
 42 43  1  0
 43 44  2  0
 44 45  1  0
 45 46  2  0
 46 47  1  0
 47 48  2  0
 48 49  1  0
 49 50  1  0
 50 51  1  0
 48 52  1  0
 52 53  1  0
 52 54  2  0
 44 55  1  0
 55 56  2  0
 56 57  1  0
 57 58  1  0
 58 59  2  0
 59 60  1  0
 60 61  2  0
 61 62  1  0
 62 63  1  0
 63 64  1  0
 61 65  1  0
 65 66  2  0
 65 67  1  0
 57 68  2  0
 68 69  1  0
 56 70  1  0
 70 71  2  0
 71 72  1  0
 71 73  1  0
 73 74  2  0
 74 75  1  0
 75 76  2  0
 76 77  1  0
 77 78  2  0
 78 79  1  0
 79 80  2  0
 80 81  1  0
 81 82  1  0
 82 83  1  0
 80 84  1  0
 84 85  1  0
 84 86  2  0
 76 87  1  0
 87 88  2  0
 88 89  1  0
 89 90  1  0
 90 91  2  0
 91 92  1  0
 92 93  2  0
 93 94  1  0
 94 95  1  0
 95 96  1  0
 93 97  1  0
 97 98  2  0
 97 99  1  0
 89100  2  0
100101  1  0
 88102  1  0
102103  2  0
103104  1  0
103105  1  0
105106  2  0
106107  1  0
107108  2  0
108109  1  0
108110  1  0
110111  2  0
111112  1  0
111113  1  0
113114  2  0
114115  1  0
115116  2  0
116117  1  0
116118  1  0
118119  2  0
119120  1  0
 29  1  1  0
 37 33  1  0
 69 41  1  0
101 73  1  0
109105  1  0
117113  1  0
 28  3  1  0
 40 35  1  0
 68 43  1  0
100 75  1  0
112107  1  0
120115  1  0
 14  5  1  0
 32 15  1  0
 54 45  1  0
 72 55  1  0
 86 77  1  0
104 87  1  0
 26 18  1  0
 66 58  1  0
 98 90  1  0
  1121  1  0
  2122  1  0
  6123  1  0
  7124  1  0
 10125  1  0
 10126  1  0
 11127  1  0
 11128  1  0
 11129  1  0
 14130  1  0
 19131  1  0
 20132  1  0
 23133  1  0
 23134  1  0
 24135  1  0
 24136  1  0
 24137  1  0
 26138  1  0
 30139  1  0
 34140  1  0
 37141  1  0
 37142  1  0
 40143  1  0
 40144  1  0
 42145  1  0
 46146  1  0
 47147  1  0
 50148  1  0
 50149  1  0
 51150  1  0
 51151  1  0
 51152  1  0
 54153  1  0
 59154  1  0
 60155  1  0
 63156  1  0
 63157  1  0
 64158  1  0
 64159  1  0
 64160  1  0
 66161  1  0
 70162  1  0
 74163  1  0
 78164  1  0
 79165  1  0
 82166  1  0
 82167  1  0
 83168  1  0
 83169  1  0
 83170  1  0
 86171  1  0
 91172  1  0
 92173  1  0
 95174  1  0
 95175  1  0
 96176  1  0
 96177  1  0
 96178  1  0
 98179  1  0
102180  1  0
106181  1  0
109182  1  0
109183  1  0
112184  1  0
112185  1  0
114186  1  0
117187  1  0
117188  1  0
119189  1  0
120190  1  0
120191  1  0
M  END

