
     RDKit          3D

203223  0  0  0  0  0  0  0  0999 V2000
    4.5860   -1.2943   13.3852 C   0  0  0  0  0  0  0  0  0  0  0  0
    3.0611   -1.4807   12.6953 S   0  0  0  0  0  0  0  0  0  0  0  0
    3.4249   -0.8409   11.1766 C   0  0  0  0  0  0  0  0  0  0  0  0
    4.7676   -0.4530   11.2001 C   0  0  0  0  0  0  0  0  0  0  0  0
    5.4034   -0.7119   12.4273 C   0  0  0  0  0  0  0  0  0  0  0  0
    6.7379   -0.3681   12.6283 C   0  0  0  0  0  0  0  0  0  0  0  0
    7.4631    0.2497   11.5888 C   0  0  0  0  0  0  0  0  0  0  0  0
    8.8002    0.7085   11.8516 N   0  0  0  0  0  4  0  0  0  0  0  0
    9.5819    0.0500   12.7731 O   0  0  0  0  0  1  0  0  0  0  0  0
    9.1741    1.8241   11.4332 O   0  0  0  0  0  0  0  0  0  0  0  0
    6.8454    0.4533   10.3234 C   0  0  0  0  0  0  0  0  0  0  0  0
    7.5932    0.9676    9.2054 N   0  0  0  0  0  4  0  0  0  0  0  0
    8.8993    0.5788    9.0087 O   0  0  0  0  0  1  0  0  0  0  0  0
    7.0194    1.6294    8.3151 O   0  0  0  0  0  0  0  0  0  0  0  0
    5.4903    0.1056   10.1423 C   0  0  0  0  0  0  0  0  0  0  0  0
    2.4363   -0.6151   10.1021 C   0  0  0  0  0  0  0  0  0  0  0  0
    2.2992    0.8057    9.2135 S   0  0  0  0  0  0  0  0  0  0  0  0
    0.9517    0.3766    8.2976 C   0  0  0  0  0  0  0  0  0  0  0  0
    0.5660   -0.9137    8.7083 C   0  0  0  0  0  0  0  0  0  0  0  0
    1.4049   -1.4641    9.6979 C   0  0  0  0  0  0  0  0  0  0  0  0
    1.2045   -2.7732   10.1488 C   0  0  0  0  0  0  0  0  0  0  0  0
    0.1441   -3.5433    9.6379 C   0  0  0  0  0  0  0  0  0  0  0  0
    0.0302   -4.9201   10.0287 N   0  0  0  0  0  4  0  0  0  0  0  0
    0.3973   -5.3103   11.2981 O   0  0  0  0  0  1  0  0  0  0  0  0
   -0.2773   -5.7953    9.1929 O   0  0  0  0  0  0  0  0  0  0  0  0
   -0.7538   -2.9633    8.7032 C   0  0  0  0  0  0  0  0  0  0  0  0
   -1.9139   -3.6770    8.2427 N   0  0  0  0  0  4  0  0  0  0  0  0
   -2.6604   -4.4309    9.1200 O   0  0  0  0  0  1  0  0  0  0  0  0
   -2.3463   -3.4886    7.0885 O   0  0  0  0  0  0  0  0  0  0  0  0
   -0.5333   -1.6516    8.2454 C   0  0  0  0  0  0  0  0  0  0  0  0
    0.4463    1.1986    7.1710 C   0  0  0  0  0  0  0  0  0  0  0  0
    0.8977    2.4852    6.8482 C   0  0  0  0  0  0  0  0  0  0  0  0
    0.3868    2.9697    5.6261 C   0  0  0  0  0  0  0  0  0  0  0  0
    0.7133    4.1914    4.9860 C   0  0  0  0  0  0  0  0  0  0  0  0
    1.6878    5.1480    5.5585 C   0  0  0  0  0  0  0  0  0  0  0  0
    2.9936    4.7371    5.8734 C   0  0  0  0  0  0  0  0  0  0  0  0
    3.9038    5.6413    6.4264 C   0  0  0  0  0  0  0  0  0  0  0  0
    3.5232    6.9689    6.6588 C   0  0  0  0  0  0  0  0  0  0  0  0
    4.7051    8.1242    7.3660 S   0  0  0  0  0  0  0  0  0  0  0  0
    4.3751    7.6676    9.1060 C   0  0  0  0  0  0  0  0  0  0  0  0
    3.1034    8.3288    9.6204 C   0  0  0  0  0  0  0  0  0  0  0  0
    2.2320    7.3929    6.3130 C   0  0  0  0  0  0  0  0  0  0  0  0
    1.8605    8.6869    6.5004 F   0  0  0  0  0  0  0  0  0  0  0  0
    1.3177    6.4840    5.7715 C   0  0  0  0  0  0  0  0  0  0  0  0
    0.1029    4.4383    3.7401 C   0  0  0  0  0  0  0  0  0  0  0  0
   -0.8134    3.5504    3.1669 C   0  0  0  0  0  0  0  0  0  0  0  0
   -1.1273    2.3320    3.7940 C   0  0  0  0  0  0  0  0  0  0  0  0
   -1.9776    1.3210    3.1338 C   0  0  0  0  0  0  0  0  0  0  0  0
   -1.4106    0.1241    2.6708 C   0  0  0  0  0  0  0  0  0  0  0  0
   -2.1867   -0.7884    1.9557 C   0  0  0  0  0  0  0  0  0  0  0  0
   -3.5395   -0.5234    1.7140 C   0  0  0  0  0  0  0  0  0  0  0  0
   -4.5111   -1.6827    0.7412 S   0  0  0  0  0  0  0  0  0  0  0  0
   -5.1620   -2.6137    2.1738 C   0  0  0  0  0  0  0  0  0  0  0  0
   -4.1340   -3.6101    2.6974 C   0  0  0  0  0  0  0  0  0  0  0  0
   -4.1113    0.6670    2.1798 C   0  0  0  0  0  0  0  0  0  0  0  0
   -3.3315    1.5868    2.8876 C   0  0  0  0  0  0  0  0  0  0  0  0
   -5.4129    0.9494    1.9215 F   0  0  0  0  0  0  0  0  0  0  0  0
   -0.4956    2.0729    5.0187 C   0  0  0  0  0  0  0  0  0  0  0  0
   -0.5974    0.6875    5.9484 S   0  0  0  0  0  0  0  0  0  0  0  0
   -1.2206    3.9260    1.8846 C   0  0  0  0  0  0  0  0  0  0  0  0
   -0.6006    5.0836    1.4257 C   0  0  0  0  0  0  0  0  0  0  0  0
    0.4645    5.6472    2.6142 S   0  0  0  0  0  0  0  0  0  0  0  0
   -0.5731    5.4160    0.0000 C   0  0  0  0  0  0  0  0  0  0  0  0
    0.5059    5.0365   -0.8014 C   0  0  0  0  0  0  0  0  0  0  0  0
    0.1239    4.6260   -2.0919 C   0  0  0  0  0  0  0  0  0  0  0  0
    0.9361    3.9226   -3.0102 C   0  0  0  0  0  0  0  0  0  0  0  0
    2.3842    3.7359   -2.7978 C   0  0  0  0  0  0  0  0  0  0  0  0
    2.8596    2.9254   -1.7549 C   0  0  0  0  0  0  0  0  0  0  0  0
    4.2343    2.7696   -1.5590 C   0  0  0  0  0  0  0  0  0  0  0  0
    5.1435    3.4165   -2.4037 C   0  0  0  0  0  0  0  0  0  0  0  0
    6.9086    3.2306   -2.1290 S   0  0  0  0  0  0  0  0  0  0  0  0
    7.1236    1.8768   -3.3395 C   0  0  0  0  0  0  0  0  0  0  0  0
    6.8274    0.5249   -2.7034 C   0  0  0  0  0  0  0  0  0  0  0  0
    4.6703    4.2286   -3.4448 C   0  0  0  0  0  0  0  0  0  0  0  0
    5.5427    4.8716   -4.2637 F   0  0  0  0  0  0  0  0  0  0  0  0
    3.2972    4.3807   -3.6443 C   0  0  0  0  0  0  0  0  0  0  0  0
    0.2814    3.2992   -4.0869 C   0  0  0  0  0  0  0  0  0  0  0  0
   -1.0946    3.4211   -4.3011 C   0  0  0  0  0  0  0  0  0  0  0  0
   -1.8880    4.2042   -3.4388 C   0  0  0  0  0  0  0  0  0  0  0  0
   -3.3589    4.2643   -3.5690 C   0  0  0  0  0  0  0  0  0  0  0  0
   -4.1367    3.1093   -3.3807 C   0  0  0  0  0  0  0  0  0  0  0  0
   -5.5271    3.1678   -3.5144 C   0  0  0  0  0  0  0  0  0  0  0  0
   -6.1533    4.3771   -3.8340 C   0  0  0  0  0  0  0  0  0  0  0  0
   -7.9400    4.4431   -4.0022 S   0  0  0  0  0  0  0  0  0  0  0  0
   -7.9510    4.2340   -5.8182 C   0  0  0  0  0  0  0  0  0  0  0  0
   -7.8053    2.7689   -6.2057 C   0  0  0  0  0  0  0  0  0  0  0  0
   -5.3847    5.5410   -3.9905 C   0  0  0  0  0  0  0  0  0  0  0  0
   -3.9914    5.4814   -3.8588 C   0  0  0  0  0  0  0  0  0  0  0  0
   -5.9800    6.7255   -4.2780 F   0  0  0  0  0  0  0  0  0  0  0  0
   -1.2458    4.7733   -2.3298 C   0  0  0  0  0  0  0  0  0  0  0  0
   -1.9773    5.3432   -0.9341 S   0  0  0  0  0  0  0  0  0  0  0  0
   -1.5758    2.5592   -5.2955 C   0  0  0  0  0  0  0  0  0  0  0  0
   -0.6018    1.6971   -5.7999 C   0  0  0  0  0  0  0  0  0  0  0  0
    0.8812    2.0791   -5.0833 S   0  0  0  0  0  0  0  0  0  0  0  0
   -0.9076    0.3971   -6.4253 C   0  0  0  0  0  0  0  0  0  0  0  0
   -2.1457   -0.2348   -6.3219 C   0  0  0  0  0  0  0  0  0  0  0  0
   -2.1105   -1.5914   -6.6598 C   0  0  0  0  0  0  0  0  0  0  0  0
   -3.1751   -2.5000   -6.5129 C   0  0  0  0  0  0  0  0  0  0  0  0
   -4.4831   -2.0721   -5.9737 C   0  0  0  0  0  0  0  0  0  0  0  0
   -5.3359   -1.2599   -6.7408 C   0  0  0  0  0  0  0  0  0  0  0  0
   -6.5414   -0.7989   -6.1995 C   0  0  0  0  0  0  0  0  0  0  0  0
   -6.9021   -1.1443   -4.8903 C   0  0  0  0  0  0  0  0  0  0  0  0
   -8.4094   -0.4716   -4.1768 S   0  0  0  0  0  0  0  0  0  0  0  0
   -9.5076   -1.7994   -4.7889 C   0  0  0  0  0  0  0  0  0  0  0  0
   -9.5066   -2.9875   -3.8346 C   0  0  0  0  0  0  0  0  0  0  0  0
   -6.0516   -1.9531   -4.1220 C   0  0  0  0  0  0  0  0  0  0  0  0
   -6.3723   -2.2638   -2.8398 F   0  0  0  0  0  0  0  0  0  0  0  0
   -4.8530   -2.4232   -4.6657 C   0  0  0  0  0  0  0  0  0  0  0  0
   -2.8994   -3.8487   -6.7825 C   0  0  0  0  0  0  0  0  0  0  0  0
   -1.6391   -4.2917   -7.1993 C   0  0  0  0  0  0  0  0  0  0  0  0
   -0.5755   -3.3768   -7.3707 C   0  0  0  0  0  0  0  0  0  0  0  0
    0.7579   -3.8224   -7.8193 C   0  0  0  0  0  0  0  0  0  0  0  0
    1.8465   -3.8144   -6.9335 C   0  0  0  0  0  0  0  0  0  0  0  0
    3.0994   -4.2674   -7.3586 C   0  0  0  0  0  0  0  0  0  0  0  0
    3.2779   -4.7234   -8.6728 C   0  0  0  0  0  0  0  0  0  0  0  0
    4.9082   -5.2426   -9.2266 S   0  0  0  0  0  0  0  0  0  0  0  0
    4.6155   -7.0350   -8.9979 C   0  0  0  0  0  0  0  0  0  0  0  0
    4.7652   -7.4393   -7.5360 C   0  0  0  0  0  0  0  0  0  0  0  0
    2.1925   -4.7238   -9.5617 C   0  0  0  0  0  0  0  0  0  0  0  0
    0.9363   -4.2844   -9.1328 C   0  0  0  0  0  0  0  0  0  0  0  0
    2.3482   -5.1594  -10.8371 F   0  0  0  0  0  0  0  0  0  0  0  0
   -0.8451   -2.0280   -7.0651 C   0  0  0  0  0  0  0  0  0  0  0  0
    0.2324   -0.7323   -6.9677 S   0  0  0  0  0  0  0  0  0  0  0  0
   -1.5712   -5.6848   -7.3533 C   0  0  0  0  0  0  0  0  0  0  0  0
   -2.7702   -6.3270   -7.0369 C   0  0  0  0  0  0  0  0  0  0  0  0
   -3.9246   -5.1684   -6.6171 S   0  0  0  0  0  0  0  0  0  0  0  0
   -3.0355   -7.7743   -7.0929 C   0  0  0  0  0  0  0  0  0  0  0  0
   -4.5108   -8.4421   -7.5563 S   0  0  0  0  0  0  0  0  0  0  0  0
   -4.0655  -10.0582   -7.4307 C   0  0  0  0  0  0  0  0  0  0  0  0
   -2.7454  -10.0928   -7.0031 C   0  0  0  0  0  0  0  0  0  0  0  0
   -2.1663   -8.8321   -6.7968 C   0  0  0  0  0  0  0  0  0  0  0  0
   -0.8683   -8.7339   -6.2841 C   0  0  0  0  0  0  0  0  0  0  0  0
   -0.1082   -9.9057   -6.0453 C   0  0  0  0  0  0  0  0  0  0  0  0
    1.2174   -9.7736   -5.4781 N   0  0  0  0  0  4  0  0  0  0  0  0
    2.0730  -10.8493   -5.3890 O   0  0  0  0  0  1  0  0  0  0  0  0
    1.6222   -8.6667   -5.0640 O   0  0  0  0  0  0  0  0  0  0  0  0
   -0.6916  -11.1768   -6.3239 C   0  0  0  0  0  0  0  0  0  0  0  0
    0.0413  -12.3947   -6.1620 N   0  0  0  0  0  4  0  0  0  0  0  0
    1.0352  -12.7063   -7.0624 O   0  0  0  0  0  1  0  0  0  0  0  0
   -0.4321  -13.3038   -5.4466 O   0  0  0  0  0  0  0  0  0  0  0  0
   -2.0213  -11.2597   -6.7719 C   0  0  0  0  0  0  0  0  0  0  0  0
    4.8635   -1.5688   14.3935 H   0  0  0  0  0  0  0  0  0  0  0  0
    7.1966   -0.5271   13.5945 H   0  0  0  0  0  0  0  0  0  0  0  0
    5.0287    0.2383    9.1739 H   0  0  0  0  0  0  0  0  0  0  0  0
    1.8934   -3.2197   10.8530 H   0  0  0  0  0  0  0  0  0  0  0  0
   -1.2602   -1.2180    7.5835 H   0  0  0  0  0  0  0  0  0  0  0  0
    1.5946    3.0312    7.4663 H   0  0  0  0  0  0  0  0  0  0  0  0
    3.3086    3.7173    5.6902 H   0  0  0  0  0  0  0  0  0  0  0  0
    4.9030    5.3090    6.6761 H   0  0  0  0  0  0  0  0  0  0  0  0
    4.3002    6.5654    9.2147 H   0  0  0  0  0  0  0  0  0  0  0  0
    5.2319    8.0155    9.7207 H   0  0  0  0  0  0  0  0  0  0  0  0
    2.9934    8.1223   10.7053 H   0  0  0  0  0  0  0  0  0  0  0  0
    3.1494    9.4277    9.4691 H   0  0  0  0  0  0  0  0  0  0  0  0
    2.2146    7.9205    9.0983 H   0  0  0  0  0  0  0  0  0  0  0  0
    0.3223    6.8238    5.5214 H   0  0  0  0  0  0  0  0  0  0  0  0
   -0.3630   -0.0868    2.8365 H   0  0  0  0  0  0  0  0  0  0  0  0
   -1.7339   -1.6964    1.5782 H   0  0  0  0  0  0  0  0  0  0  0  0
   -6.0615   -3.1710    1.8362 H   0  0  0  0  0  0  0  0  0  0  0  0
   -5.4699   -1.9193    2.9857 H   0  0  0  0  0  0  0  0  0  0  0  0
   -3.2813   -3.0774    3.1700 H   0  0  0  0  0  0  0  0  0  0  0  0
   -4.6065   -4.2636    3.4626 H   0  0  0  0  0  0  0  0  0  0  0  0
   -3.7573   -4.2437    1.8677 H   0  0  0  0  0  0  0  0  0  0  0  0
   -3.7757    2.5143    3.2236 H   0  0  0  0  0  0  0  0  0  0  0  0
   -1.8525    3.3120    1.2557 H   0  0  0  0  0  0  0  0  0  0  0  0
    1.4914    4.8719   -0.3897 H   0  0  0  0  0  0  0  0  0  0  0  0
    2.1646    2.4248   -1.0924 H   0  0  0  0  0  0  0  0  0  0  0  0
    4.5897    2.1491   -0.7452 H   0  0  0  0  0  0  0  0  0  0  0  0
    6.4738    2.0310   -4.2289 H   0  0  0  0  0  0  0  0  0  0  0  0
    8.1778    1.8865   -3.6852 H   0  0  0  0  0  0  0  0  0  0  0  0
    7.0159   -0.2797   -3.4461 H   0  0  0  0  0  0  0  0  0  0  0  0
    5.7678    0.4691   -2.3811 H   0  0  0  0  0  0  0  0  0  0  0  0
    7.4901    0.3633   -1.8257 H   0  0  0  0  0  0  0  0  0  0  0  0
    2.9420    5.0118   -4.4494 H   0  0  0  0  0  0  0  0  0  0  0  0
   -3.6682    2.1647   -3.1369 H   0  0  0  0  0  0  0  0  0  0  0  0
   -6.1162    2.2697   -3.3758 H   0  0  0  0  0  0  0  0  0  0  0  0
   -8.9205    4.6131   -6.2047 H   0  0  0  0  0  0  0  0  0  0  0  0
   -7.1404    4.8305   -6.2853 H   0  0  0  0  0  0  0  0  0  0  0  0
   -8.5880    2.1603   -5.7077 H   0  0  0  0  0  0  0  0  0  0  0  0
   -6.8045    2.3892   -5.9161 H   0  0  0  0  0  0  0  0  0  0  0  0
   -7.9160    2.6645   -7.3047 H   0  0  0  0  0  0  0  0  0  0  0  0
   -3.4051    6.3815   -3.9940 H   0  0  0  0  0  0  0  0  0  0  0  0
   -2.6231    2.4770   -5.5503 H   0  0  0  0  0  0  0  0  0  0  0  0
   -3.0223    0.2432   -5.9117 H   0  0  0  0  0  0  0  0  0  0  0  0
   -5.0595   -0.9762   -7.7491 H   0  0  0  0  0  0  0  0  0  0  0  0
   -7.1798   -0.1564   -6.7872 H   0  0  0  0  0  0  0  0  0  0  0  0
  -10.5376   -1.3898   -4.8512 H   0  0  0  0  0  0  0  0  0  0  0  0
   -9.2060   -2.1273   -5.8059 H   0  0  0  0  0  0  0  0  0  0  0  0
   -9.7513   -2.6563   -2.8034 H   0  0  0  0  0  0  0  0  0  0  0  0
   -8.5138   -3.4845   -3.8382 H   0  0  0  0  0  0  0  0  0  0  0  0
  -10.2722   -3.7246   -4.1636 H   0  0  0  0  0  0  0  0  0  0  0  0
   -4.1988   -3.0357   -4.0615 H   0  0  0  0  0  0  0  0  0  0  0  0
    1.7232   -3.4684   -5.9161 H   0  0  0  0  0  0  0  0  0  0  0  0
    3.9359   -4.2532   -6.6731 H   0  0  0  0  0  0  0  0  0  0  0  0
    3.6111   -7.3225   -9.3739 H   0  0  0  0  0  0  0  0  0  0  0  0
    5.3746   -7.5831   -9.5961 H   0  0  0  0  0  0  0  0  0  0  0  0
    5.7642   -7.1401   -7.1557 H   0  0  0  0  0  0  0  0  0  0  0  0
    3.9737   -6.9668   -6.9178 H   0  0  0  0  0  0  0  0  0  0  0  0
    4.6666   -8.5433   -7.4488 H   0  0  0  0  0  0  0  0  0  0  0  0
    0.1019   -4.3010   -9.8221 H   0  0  0  0  0  0  0  0  0  0  0  0
   -0.6855   -6.2039   -7.6937 H   0  0  0  0  0  0  0  0  0  0  0  0
   -4.6955  -10.9133   -7.6357 H   0  0  0  0  0  0  0  0  0  0  0  0
   -0.4538   -7.7675   -6.0411 H   0  0  0  0  0  0  0  0  0  0  0  0
   -2.4746  -12.2244   -6.9595 H   0  0  0  0  0  0  0  0  0  0  0  0
  1  2  1  0
  2  3  1  0
  3  4  2  0
  4  5  1  0
  5  6  1  0
  6  7  2  0
  7  8  1  0
  8  9  1  0
  8 10  2  0
  7 11  1  0
 11 12  1  0
 12 13  1  0
 12 14  2  0
 11 15  2  0
  3 16  1  0
 16 17  1  0
 17 18  1  0
 18 19  2  0
 19 20  1  0
 20 21  1  0
 21 22  2  0
 22 23  1  0
 23 24  1  0
 23 25  2  0
 22 26  1  0
 26 27  1  0
 27 28  1  0
 27 29  2  0
 26 30  2  0
 18 31  1  0
 31 32  2  0
 32 33  1  0
 33 34  2  0
 34 35  1  0
 35 36  2  0
 36 37  1  0
 37 38  2  0
 38 39  1  0
 39 40  1  0
 40 41  1  0
 38 42  1  0
 42 43  1  0
 42 44  2  0
 34 45  1  0
 45 46  2  0
 46 47  1  0
 47 48  1  0
 48 49  2  0
 49 50  1  0
 50 51  2  0
 51 52  1  0
 52 53  1  0
 53 54  1  0
 51 55  1  0
 55 56  2  0
 55 57  1  0
 47 58  2  0
 58 59  1  0
 46 60  1  0
 60 61  2  0
 61 62  1  0
 61 63  1  0
 63 64  2  0
 64 65  1  0
 65 66  2  0
 66 67  1  0
 67 68  2  0
 68 69  1  0
 69 70  2  0
 70 71  1  0
 71 72  1  0
 72 73  1  0
 70 74  1  0
 74 75  1  0
 74 76  2  0
 66 77  1  0
 77 78  2  0
 78 79  1  0
 79 80  1  0
 80 81  2  0
 81 82  1  0
 82 83  2  0
 83 84  1  0
 84 85  1  0
 85 86  1  0
 83 87  1  0
 87 88  2  0
 87 89  1  0
 79 90  2  0
 90 91  1  0
 78 92  1  0
 92 93  2  0
 93 94  1  0
 93 95  1  0
 95 96  2  0
 96 97  1  0
 97 98  2  0
 98 99  1  0
 99100  2  0
100101  1  0
101102  2  0
102103  1  0
103104  1  0
104105  1  0
102106  1  0
106107  1  0
106108  2  0
 98109  1  0
109110  2  0
110111  1  0
111112  1  0
112113  2  0
113114  1  0
114115  2  0
115116  1  0
116117  1  0
117118  1  0
115119  1  0
119120  2  0
119121  1  0
111122  2  0
122123  1  0
110124  1  0
124125  2  0
125126  1  0
125127  1  0
127128  1  0
128129  1  0
129130  2  0
130131  1  0
131132  1  0
132133  2  0
133134  1  0
134135  1  0
134136  2  0
133137  1  0
137138  1  0
138139  1  0
138140  2  0
137141  2  0
  5  1  2  0
 20 16  2  0
 59 31  1  0
 91 63  1  0
123 95  1  0
131127  2  0
 15  4  1  0
 30 19  1  0
 58 33  1  0
 90 65  1  0
122 97  1  0
141130  1  0
 44 35  1  0
 62 45  1  0
 76 67  1  0
 94 77  1  0
108 99  1  0
126109  1  0
 56 48  1  0
 88 80  1  0
120112  1  0
  1142  1  0
  6143  1  0
 15144  1  0
 21145  1  0
 30146  1  0
 32147  1  0
 36148  1  0
 37149  1  0
 40150  1  0
 40151  1  0
 41152  1  0
 41153  1  0
 41154  1  0
 44155  1  0
 49156  1  0
 50157  1  0
 53158  1  0
 53159  1  0
 54160  1  0
 54161  1  0
 54162  1  0
 56163  1  0
 60164  1  0
 64165  1  0
 68166  1  0
 69167  1  0
 72168  1  0
 72169  1  0
 73170  1  0
 73171  1  0
 73172  1  0
 76173  1  0
 81174  1  0
 82175  1  0
 85176  1  0
 85177  1  0
 86178  1  0
 86179  1  0
 86180  1  0
 88181  1  0
 92182  1  0
 96183  1  0
100184  1  0
101185  1  0
104186  1  0
104187  1  0
105188  1  0
105189  1  0
105190  1  0
108191  1  0
113192  1  0
114193  1  0
117194  1  0
117195  1  0
118196  1  0
118197  1  0
118198  1  0
120199  1  0
124200  1  0
129201  1  0
132202  1  0
141203  1  0
M  CHG  8   8   1   9  -1  12   1  13  -1  23   1  24  -1  27   1  28  -1
M  CHG  4 134   1 135  -1 138   1 139  -1
M  END

