
     RDKit          3D

203223  0  0  0  0  0  0  0  0999 V2000
   -0.6577    2.2545   11.2869 C   0  0  0  0  0  0  0  0  0  0  0  0
   -0.4254    2.9335   10.0938 C   0  0  0  0  0  0  0  0  0  0  0  0
   -1.4712    2.7934    9.1637 C   0  0  0  0  0  0  0  0  0  0  0  0
   -1.5394    3.3904    7.8876 C   0  0  0  0  0  0  0  0  0  0  0  0
   -0.4015    4.1316    7.2902 C   0  0  0  0  0  0  0  0  0  0  0  0
    0.8425    3.4989    7.1388 C   0  0  0  0  0  0  0  0  0  0  0  0
    1.8687    4.1223    6.4247 C   0  0  0  0  0  0  0  0  0  0  0  0
    1.6505    5.3678    5.8247 C   0  0  0  0  0  0  0  0  0  0  0  0
    2.9277    6.0977    4.7927 S   0  0  0  0  0  0  0  0  0  0  0  0
    2.5406    5.0918    3.3130 C   0  0  0  0  0  0  0  0  0  0  0  0
    1.2783    5.5762    2.6103 C   0  0  0  0  0  0  0  0  0  0  0  0
    0.4297    6.0292    6.0198 C   0  0  0  0  0  0  0  0  0  0  0  0
    0.2111    7.2453    5.4667 F   0  0  0  0  0  0  0  0  0  0  0  0
   -0.5890    5.4147    6.7534 C   0  0  0  0  0  0  0  0  0  0  0  0
   -2.7047    3.1440    7.1430 C   0  0  0  0  0  0  0  0  0  0  0  0
   -3.7380    2.3159    7.5870 C   0  0  0  0  0  0  0  0  0  0  0  0
   -3.6794    1.7309    8.8712 C   0  0  0  0  0  0  0  0  0  0  0  0
   -4.7977    0.9220    9.4123 C   0  0  0  0  0  0  0  0  0  0  0  0
   -6.0934    1.4630    9.4640 C   0  0  0  0  0  0  0  0  0  0  0  0
   -7.1467    0.7276   10.0160 C   0  0  0  0  0  0  0  0  0  0  0  0
   -6.9193   -0.5559   10.5244 C   0  0  0  0  0  0  0  0  0  0  0  0
   -8.2641   -1.4485   11.3151 S   0  0  0  0  0  0  0  0  0  0  0  0
   -8.8903   -2.2204    9.7800 C   0  0  0  0  0  0  0  0  0  0  0  0
   -8.1077   -3.4821    9.4450 C   0  0  0  0  0  0  0  0  0  0  0  0
   -5.6298   -1.1049   10.4741 C   0  0  0  0  0  0  0  0  0  0  0  0
   -4.5769   -0.3748    9.9108 C   0  0  0  0  0  0  0  0  0  0  0  0
   -5.3880   -2.3356   10.9876 F   0  0  0  0  0  0  0  0  0  0  0  0
   -2.5235    1.9960    9.6343 C   0  0  0  0  0  0  0  0  0  0  0  0
   -2.1567    1.4881   11.1952 S   0  0  0  0  0  0  0  0  0  0  0  0
   -4.7324    2.0994    6.6133 C   0  0  0  0  0  0  0  0  0  0  0  0
   -4.5088    2.8088    5.4266 C   0  0  0  0  0  0  0  0  0  0  0  0
   -3.0446    3.6341    5.5777 S   0  0  0  0  0  0  0  0  0  0  0  0
   -5.2321    2.7069    4.1400 C   0  0  0  0  0  0  0  0  0  0  0  0
   -4.5044    3.1161    2.6789 S   0  0  0  0  0  0  0  0  0  0  0  0
   -5.7063    2.5563    1.6525 C   0  0  0  0  0  0  0  0  0  0  0  0
   -6.7264    2.0337    2.4494 C   0  0  0  0  0  0  0  0  0  0  0  0
   -6.4811    2.1394    3.8357 C   0  0  0  0  0  0  0  0  0  0  0  0
   -7.4655    1.7416    4.7486 C   0  0  0  0  0  0  0  0  0  0  0  0
   -8.6657    1.1603    4.2885 C   0  0  0  0  0  0  0  0  0  0  0  0
   -9.6884    0.8149    5.2435 N   0  0  0  0  0  4  0  0  0  0  0  0
  -11.0151    1.0042    4.9315 O   0  0  0  0  0  1  0  0  0  0  0  0
   -9.3838    0.5392    6.4220 O   0  0  0  0  0  0  0  0  0  0  0  0
   -8.8685    0.9808    2.8928 C   0  0  0  0  0  0  0  0  0  0  0  0
  -10.0212    0.2891    2.3882 N   0  0  0  0  0  4  0  0  0  0  0  0
  -10.5720    0.6625    1.1826 O   0  0  0  0  0  1  0  0  0  0  0  0
  -10.4022   -0.7745    2.9213 O   0  0  0  0  0  0  0  0  0  0  0  0
   -7.9100    1.4601    1.9800 C   0  0  0  0  0  0  0  0  0  0  0  0
   -5.5112    2.4378    0.1999 C   0  0  0  0  0  0  0  0  0  0  0  0
   -4.7195    3.3170   -0.5410 C   0  0  0  0  0  0  0  0  0  0  0  0
   -4.2653    2.7719   -1.7523 C   0  0  0  0  0  0  0  0  0  0  0  0
   -3.3487    3.3734   -2.6451 C   0  0  0  0  0  0  0  0  0  0  0  0
   -2.7932    4.7242   -2.4100 C   0  0  0  0  0  0  0  0  0  0  0  0
   -2.9898    5.7384   -3.3570 C   0  0  0  0  0  0  0  0  0  0  0  0
   -2.4625    7.0128   -3.1438 C   0  0  0  0  0  0  0  0  0  0  0  0
   -1.7331    7.2879   -1.9822 C   0  0  0  0  0  0  0  0  0  0  0  0
   -1.0873    8.9443   -1.7106 S   0  0  0  0  0  0  0  0  0  0  0  0
   -2.4586    9.4700   -0.6215 C   0  0  0  0  0  0  0  0  0  0  0  0
   -3.6873    9.8664   -1.4273 C   0  0  0  0  0  0  0  0  0  0  0  0
   -1.5021    6.2692   -1.0466 C   0  0  0  0  0  0  0  0  0  0  0  0
   -0.7844    6.5181    0.0759 F   0  0  0  0  0  0  0  0  0  0  0  0
   -2.0314    4.9931   -1.2608 C   0  0  0  0  0  0  0  0  0  0  0  0
   -2.8986    2.5839   -3.7179 C   0  0  0  0  0  0  0  0  0  0  0  0
   -3.3221    1.2643   -3.9062 C   0  0  0  0  0  0  0  0  0  0  0  0
   -4.2818    0.6814   -3.0516 C   0  0  0  0  0  0  0  0  0  0  0  0
   -4.7038   -0.7294   -3.2186 C   0  0  0  0  0  0  0  0  0  0  0  0
   -5.3266   -1.1399   -4.4073 C   0  0  0  0  0  0  0  0  0  0  0  0
   -5.6587   -2.4826   -4.6017 C   0  0  0  0  0  0  0  0  0  0  0  0
   -5.3597   -3.4313   -3.6163 C   0  0  0  0  0  0  0  0  0  0  0  0
   -5.7355   -5.1643   -3.9077 S   0  0  0  0  0  0  0  0  0  0  0  0
   -4.0450   -5.6090   -4.4490 C   0  0  0  0  0  0  0  0  0  0  0  0
   -3.7828   -5.1680   -5.8852 C   0  0  0  0  0  0  0  0  0  0  0  0
   -4.7646   -3.0218   -2.4143 C   0  0  0  0  0  0  0  0  0  0  0  0
   -4.4335   -1.6783   -2.2192 C   0  0  0  0  0  0  0  0  0  0  0  0
   -4.4757   -3.9292   -1.4472 F   0  0  0  0  0  0  0  0  0  0  0  0
   -4.7221    1.4659   -1.9714 C   0  0  0  0  0  0  0  0  0  0  0  0
   -5.6737    0.9954   -0.6600 S   0  0  0  0  0  0  0  0  0  0  0  0
   -2.5656    0.5788   -4.8702 C   0  0  0  0  0  0  0  0  0  0  0  0
   -1.5464    1.3497   -5.4273 C   0  0  0  0  0  0  0  0  0  0  0  0
   -1.5928    2.8887   -4.7357 S   0  0  0  0  0  0  0  0  0  0  0  0
   -0.3342    0.7621   -6.0139 C   0  0  0  0  0  0  0  0  0  0  0  0
    0.3720   -0.6275   -5.3851 S   0  0  0  0  0  0  0  0  0  0  0  0
    1.8270   -0.5385   -6.2182 C   0  0  0  0  0  0  0  0  0  0  0  0
    1.7894    0.6133   -7.0080 C   0  0  0  0  0  0  0  0  0  0  0  0
    0.5924    1.3460   -6.8817 C   0  0  0  0  0  0  0  0  0  0  0  0
    0.4289    2.5517   -7.5638 C   0  0  0  0  0  0  0  0  0  0  0  0
    1.4580    3.0269   -8.3961 C   0  0  0  0  0  0  0  0  0  0  0  0
    1.2562    4.2675   -9.0769 N   0  0  0  0  0  4  0  0  0  0  0  0
    0.7471    4.2578  -10.3519 O   0  0  0  0  0  1  0  0  0  0  0  0
    1.2332    5.3281   -8.4216 O   0  0  0  0  0  0  0  0  0  0  0  0
    2.6658    2.2835   -8.5471 C   0  0  0  0  0  0  0  0  0  0  0  0
    3.7333    2.7272   -9.4186 N   0  0  0  0  0  4  0  0  0  0  0  0
    3.5616    3.7794  -10.2791 O   0  0  0  0  0  1  0  0  0  0  0  0
    4.7898    2.0628   -9.4977 O   0  0  0  0  0  0  0  0  0  0  0  0
    2.8239    1.0775   -7.8236 C   0  0  0  0  0  0  0  0  0  0  0  0
    3.0121   -1.2980   -5.8000 C   0  0  0  0  0  0  0  0  0  0  0  0
    3.3706   -1.4525   -4.4648 C   0  0  0  0  0  0  0  0  0  0  0  0
    4.3049   -2.4697   -4.2648 C   0  0  0  0  0  0  0  0  0  0  0  0
    4.7594   -2.9225   -3.0127 C   0  0  0  0  0  0  0  0  0  0  0  0
    4.3559   -2.2516   -1.7622 C   0  0  0  0  0  0  0  0  0  0  0  0
    5.0586   -1.1254   -1.3139 C   0  0  0  0  0  0  0  0  0  0  0  0
    4.6303   -0.4348   -0.1790 C   0  0  0  0  0  0  0  0  0  0  0  0
    3.4995   -0.8695    0.5221 C   0  0  0  0  0  0  0  0  0  0  0  0
    2.9278    0.0601    1.9525 S   0  0  0  0  0  0  0  0  0  0  0  0
    4.1033   -0.7053    3.1222 C   0  0  0  0  0  0  0  0  0  0  0  0
    3.6421   -2.0954    3.5411 C   0  0  0  0  0  0  0  0  0  0  0  0
    2.7926   -1.9982    0.0767 C   0  0  0  0  0  0  0  0  0  0  0  0
    1.6797   -2.4149    0.7308 F   0  0  0  0  0  0  0  0  0  0  0  0
    3.2222   -2.6861   -1.0616 C   0  0  0  0  0  0  0  0  0  0  0  0
    5.5730   -4.0592   -3.0087 C   0  0  0  0  0  0  0  0  0  0  0  0
    5.9629   -4.7096   -4.1831 C   0  0  0  0  0  0  0  0  0  0  0  0
    5.5407   -4.2344   -5.4487 C   0  0  0  0  0  0  0  0  0  0  0  0
    5.9134   -4.9292   -6.7011 C   0  0  0  0  0  0  0  0  0  0  0  0
    5.5675   -6.2744   -6.8875 C   0  0  0  0  0  0  0  0  0  0  0  0
    6.0435   -6.9778   -7.9969 C   0  0  0  0  0  0  0  0  0  0  0  0
    6.8489   -6.3371   -8.9431 C   0  0  0  0  0  0  0  0  0  0  0  0
    7.5225   -7.2815  -10.3170 S   0  0  0  0  0  0  0  0  0  0  0  0
    6.0575   -7.0379  -11.3731 C   0  0  0  0  0  0  0  0  0  0  0  0
    6.1514   -7.9377  -12.5974 C   0  0  0  0  0  0  0  0  0  0  0  0
    7.1550   -4.9763   -8.7893 C   0  0  0  0  0  0  0  0  0  0  0  0
    6.6836   -4.2742   -7.6735 C   0  0  0  0  0  0  0  0  0  0  0  0
    7.9219   -4.3381   -9.7075 F   0  0  0  0  0  0  0  0  0  0  0  0
    4.6978   -3.1038   -5.4492 C   0  0  0  0  0  0  0  0  0  0  0  0
    3.8571   -2.4182   -6.7440 S   0  0  0  0  0  0  0  0  0  0  0  0
    6.7503   -5.8453   -3.9391 C   0  0  0  0  0  0  0  0  0  0  0  0
    6.9264   -6.1175   -2.5788 C   0  0  0  0  0  0  0  0  0  0  0  0
    6.1742   -4.8994   -1.6820 S   0  0  0  0  0  0  0  0  0  0  0  0
    7.6455   -7.2984   -2.0531 C   0  0  0  0  0  0  0  0  0  0  0  0
    8.7594   -8.1795   -2.9687 S   0  0  0  0  0  0  0  0  0  0  0  0
    9.1091   -9.3628   -1.8271 C   0  0  0  0  0  0  0  0  0  0  0  0
    8.3405   -9.0895   -0.7026 C   0  0  0  0  0  0  0  0  0  0  0  0
    7.5161   -7.9550   -0.8160 C   0  0  0  0  0  0  0  0  0  0  0  0
    6.6528   -7.6186    0.2353 C   0  0  0  0  0  0  0  0  0  0  0  0
    6.6501   -8.3850    1.4195 C   0  0  0  0  0  0  0  0  0  0  0  0
    5.8387   -7.9570    2.5273 N   0  0  0  0  0  4  0  0  0  0  0  0
    6.3178   -8.0592    3.8144 O   0  0  0  0  0  1  0  0  0  0  0  0
    4.7788   -7.3257    2.3271 O   0  0  0  0  0  0  0  0  0  0  0  0
    7.4770   -9.5381    1.5148 C   0  0  0  0  0  0  0  0  0  0  0  0
    7.4159  -10.4087    2.6591 N   0  0  0  0  0  4  0  0  0  0  0  0
    6.2000  -10.7325    3.2224 O   0  0  0  0  0  1  0  0  0  0  0  0
    8.4370  -11.0222    3.0340 O   0  0  0  0  0  0  0  0  0  0  0  0
    8.3313   -9.8743    0.4506 C   0  0  0  0  0  0  0  0  0  0  0  0
    0.0089    2.2390   12.1395 H   0  0  0  0  0  0  0  0  0  0  0  0
    0.4660    3.5243    9.9228 H   0  0  0  0  0  0  0  0  0  0  0  0
    1.0040    2.5029    7.5344 H   0  0  0  0  0  0  0  0  0  0  0  0
    2.8141    3.6132    6.2963 H   0  0  0  0  0  0  0  0  0  0  0  0
    3.3927    5.1794    2.6094 H   0  0  0  0  0  0  0  0  0  0  0  0
    2.4353    4.0200    3.5850 H   0  0  0  0  0  0  0  0  0  0  0  0
    1.1451    5.0147    1.6611 H   0  0  0  0  0  0  0  0  0  0  0  0
    0.3843    5.3981    3.2442 H   0  0  0  0  0  0  0  0  0  0  0  0
    1.3570    6.6591    2.3769 H   0  0  0  0  0  0  0  0  0  0  0  0
   -1.5402    5.9203    6.8688 H   0  0  0  0  0  0  0  0  0  0  0  0
   -6.2853    2.4636    9.0956 H   0  0  0  0  0  0  0  0  0  0  0  0
   -8.1366    1.1626   10.0600 H   0  0  0  0  0  0  0  0  0  0  0  0
   -8.8495   -1.5052    8.9302 H   0  0  0  0  0  0  0  0  0  0  0  0
   -9.9534   -2.4945    9.9461 H   0  0  0  0  0  0  0  0  0  0  0  0
   -7.0846   -3.2215    9.1019 H   0  0  0  0  0  0  0  0  0  0  0  0
   -8.6208   -4.0378    8.6301 H   0  0  0  0  0  0  0  0  0  0  0  0
   -8.0347   -4.1454   10.3341 H   0  0  0  0  0  0  0  0  0  0  0  0
   -3.5893   -0.8152    9.8747 H   0  0  0  0  0  0  0  0  0  0  0  0
   -5.5214    1.3765    6.7477 H   0  0  0  0  0  0  0  0  0  0  0  0
   -7.3536    1.9453    5.8011 H   0  0  0  0  0  0  0  0  0  0  0  0
   -8.0834    1.3655    0.9154 H   0  0  0  0  0  0  0  0  0  0  0  0
   -4.4138    4.2840   -0.1600 H   0  0  0  0  0  0  0  0  0  0  0  0
   -3.5574    5.5443   -4.2582 H   0  0  0  0  0  0  0  0  0  0  0  0
   -2.6297    7.7908   -3.8794 H   0  0  0  0  0  0  0  0  0  0  0  0
   -2.7170    8.6668    0.1028 H   0  0  0  0  0  0  0  0  0  0  0  0
   -2.1137   10.3484   -0.0403 H   0  0  0  0  0  0  0  0  0  0  0  0
   -4.4773   10.2350   -0.7374 H   0  0  0  0  0  0  0  0  0  0  0  0
   -3.4337   10.6740   -2.1449 H   0  0  0  0  0  0  0  0  0  0  0  0
   -4.0936    8.9924   -1.9792 H   0  0  0  0  0  0  0  0  0  0  0  0
   -1.8493    4.2150   -0.5291 H   0  0  0  0  0  0  0  0  0  0  0  0
   -5.5407   -0.4197   -5.1885 H   0  0  0  0  0  0  0  0  0  0  0  0
   -6.1327   -2.7861   -5.5254 H   0  0  0  0  0  0  0  0  0  0  0  0
   -3.2875   -5.1616   -3.7721 H   0  0  0  0  0  0  0  0  0  0  0  0
   -3.9421   -6.7130   -4.3887 H   0  0  0  0  0  0  0  0  0  0  0  0
   -4.5493   -5.5958   -6.5654 H   0  0  0  0  0  0  0  0  0  0  0  0
   -2.7822   -5.5282   -6.2047 H   0  0  0  0  0  0  0  0  0  0  0  0
   -3.7892   -4.0620   -5.9654 H   0  0  0  0  0  0  0  0  0  0  0  0
   -3.9351   -1.3840   -1.3059 H   0  0  0  0  0  0  0  0  0  0  0  0
   -2.6546   -0.4833   -5.0534 H   0  0  0  0  0  0  0  0  0  0  0  0
   -0.4879    3.1190   -7.4591 H   0  0  0  0  0  0  0  0  0  0  0  0
    3.7372    0.5015   -7.9034 H   0  0  0  0  0  0  0  0  0  0  0  0
    2.9041   -0.8953   -3.6618 H   0  0  0  0  0  0  0  0  0  0  0  0
    5.9293   -0.7734   -1.8534 H   0  0  0  0  0  0  0  0  0  0  0  0
    5.1736    0.4417    0.1513 H   0  0  0  0  0  0  0  0  0  0  0  0
    5.1208   -0.7551    2.6781 H   0  0  0  0  0  0  0  0  0  0  0  0
    4.1537   -0.0589    4.0216 H   0  0  0  0  0  0  0  0  0  0  0  0
    4.3218   -2.4897    4.3279 H   0  0  0  0  0  0  0  0  0  0  0  0
    3.6706   -2.7927    2.6760 H   0  0  0  0  0  0  0  0  0  0  0  0
    2.6101   -2.0514    3.9503 H   0  0  0  0  0  0  0  0  0  0  0  0
    2.6607   -3.5433   -1.4131 H   0  0  0  0  0  0  0  0  0  0  0  0
    4.9628   -6.7920   -6.1532 H   0  0  0  0  0  0  0  0  0  0  0  0
    5.7908   -8.0238   -8.1122 H   0  0  0  0  0  0  0  0  0  0  0  0
    6.0107   -5.9761  -11.6940 H   0  0  0  0  0  0  0  0  0  0  0  0
    5.1341   -7.2886  -10.8100 H   0  0  0  0  0  0  0  0  0  0  0  0
    7.0465   -7.6757  -13.1997 H   0  0  0  0  0  0  0  0  0  0  0  0
    6.2175   -9.0006  -12.2848 H   0  0  0  0  0  0  0  0  0  0  0  0
    5.2444   -7.8090  -13.2263 H   0  0  0  0  0  0  0  0  0  0  0  0
    6.9584   -3.2333   -7.5485 H   0  0  0  0  0  0  0  0  0  0  0  0
    7.1596   -6.4736   -4.7206 H   0  0  0  0  0  0  0  0  0  0  0  0
    9.7818  -10.1977   -1.9650 H   0  0  0  0  0  0  0  0  0  0  0  0
    5.9922   -6.7710    0.1616 H   0  0  0  0  0  0  0  0  0  0  0  0
    8.9548  -10.7602    0.5013 H   0  0  0  0  0  0  0  0  0  0  0  0
  1  2  2  0
  2  3  1  0
  3  4  2  0
  4  5  1  0
  5  6  2  0
  6  7  1  0
  7  8  2  0
  8  9  1  0
  9 10  1  0
 10 11  1  0
  8 12  1  0
 12 13  1  0
 12 14  2  0
  4 15  1  0
 15 16  2  0
 16 17  1  0
 17 18  1  0
 18 19  2  0
 19 20  1  0
 20 21  2  0
 21 22  1  0
 22 23  1  0
 23 24  1  0
 21 25  1  0
 25 26  2  0
 25 27  1  0
 17 28  2  0
 28 29  1  0
 16 30  1  0
 30 31  2  0
 31 32  1  0
 31 33  1  0
 33 34  1  0
 34 35  1  0
 35 36  2  0
 36 37  1  0
 37 38  1  0
 38 39  2  0
 39 40  1  0
 40 41  1  0
 40 42  2  0
 39 43  1  0
 43 44  1  0
 44 45  1  0
 44 46  2  0
 43 47  2  0
 35 48  1  0
 48 49  2  0
 49 50  1  0
 50 51  2  0
 51 52  1  0
 52 53  2  0
 53 54  1  0
 54 55  2  0
 55 56  1  0
 56 57  1  0
 57 58  1  0
 55 59  1  0
 59 60  1  0
 59 61  2  0
 51 62  1  0
 62 63  2  0
 63 64  1  0
 64 65  1  0
 65 66  2  0
 66 67  1  0
 67 68  2  0
 68 69  1  0
 69 70  1  0
 70 71  1  0
 68 72  1  0
 72 73  2  0
 72 74  1  0
 64 75  2  0
 75 76  1  0
 63 77  1  0
 77 78  2  0
 78 79  1  0
 78 80  1  0
 80 81  1  0
 81 82  1  0
 82 83  2  0
 83 84  1  0
 84 85  1  0
 85 86  2  0
 86 87  1  0
 87 88  1  0
 87 89  2  0
 86 90  1  0
 90 91  1  0
 91 92  1  0
 91 93  2  0
 90 94  2  0
 82 95  1  0
 95 96  2  0
 96 97  1  0
 97 98  2  0
 98 99  1  0
 99100  2  0
100101  1  0
101102  2  0
102103  1  0
103104  1  0
104105  1  0
102106  1  0
106107  1  0
106108  2  0
 98109  1  0
109110  2  0
110111  1  0
111112  1  0
112113  2  0
113114  1  0
114115  2  0
115116  1  0
116117  1  0
117118  1  0
115119  1  0
119120  2  0
119121  1  0
111122  2  0
122123  1  0
110124  1  0
124125  2  0
125126  1  0
125127  1  0
127128  1  0
128129  1  0
129130  2  0
130131  1  0
131132  1  0
132133  2  0
133134  1  0
134135  1  0
134136  2  0
133137  1  0
137138  1  0
138139  1  0
138140  2  0
137141  2  0
 29  1  1  0
 37 33  2  0
 76 48  1  0
 84 80  2  0
123 95  1  0
131127  2  0
 28  3  1  0
 47 36  1  0
 75 50  1  0
 94 83  1  0
122 97  1  0
141130  1  0
 14  5  1  0
 32 15  1  0
 61 52  1  0
 79 62  1  0
108 99  1  0
126109  1  0
 26 18  1  0
 73 65  1  0
120112  1  0
  1142  1  0
  2143  1  0
  6144  1  0
  7145  1  0
 10146  1  0
 10147  1  0
 11148  1  0
 11149  1  0
 11150  1  0
 14151  1  0
 19152  1  0
 20153  1  0
 23154  1  0
 23155  1  0
 24156  1  0
 24157  1  0
 24158  1  0
 26159  1  0
 30160  1  0
 38161  1  0
 47162  1  0
 49163  1  0
 53164  1  0
 54165  1  0
 57166  1  0
 57167  1  0
 58168  1  0
 58169  1  0
 58170  1  0
 61171  1  0
 66172  1  0
 67173  1  0
 70174  1  0
 70175  1  0
 71176  1  0
 71177  1  0
 71178  1  0
 73179  1  0
 77180  1  0
 85181  1  0
 94182  1  0
 96183  1  0
100184  1  0
101185  1  0
104186  1  0
104187  1  0
105188  1  0
105189  1  0
105190  1  0
108191  1  0
113192  1  0
114193  1  0
117194  1  0
117195  1  0
118196  1  0
118197  1  0
118198  1  0
120199  1  0
124200  1  0
129201  1  0
132202  1  0
141203  1  0
M  CHG  8  40   1  41  -1  44   1  45  -1  87   1  88  -1  91   1  92  -1
M  CHG  4 134   1 135  -1 138   1 139  -1
M  END

