
     RDKit          3D

246274  0  0  0  0  0  0  0  0999 V2000
    3.0268   -9.0757    8.7913 C   0  0  0  0  0  0  0  0  0  0  0  0
    3.0017   -9.5557    7.4847 C   0  0  0  0  0  0  0  0  0  0  0  0
    1.8256   -9.2204    6.7933 C   0  0  0  0  0  0  0  0  0  0  0  0
    1.5090   -9.5636    5.4631 C   0  0  0  0  0  0  0  0  0  0  0  0
    2.4745  -10.2430    4.5784 C   0  0  0  0  0  0  0  0  0  0  0  0
    2.2060  -11.7169    3.8090 S   0  0  0  0  0  0  0  0  0  0  0  0
    3.6699  -11.7570    2.9809 C   0  0  0  0  0  0  0  0  0  0  0  0
    4.1164  -12.8812    2.0955 C   0  0  0  0  0  0  0  0  0  0  0  0
    4.9414  -13.8935    2.8820 C   0  0  0  0  0  0  0  0  0  0  0  0
    4.4019  -10.6167    3.3090 C   0  0  0  0  0  0  0  0  0  0  0  0
    6.0059  -10.2752    2.6736 Cl  0  0  0  0  0  0  0  0  0  0  0  0
    3.7248   -9.7598    4.1912 C   0  0  0  0  0  0  0  0  0  0  0  0
    4.3647   -8.1978    4.6920 Cl  0  0  0  0  0  0  0  0  0  0  0  0
    0.2426   -9.1719    4.9923 C   0  0  0  0  0  0  0  0  0  0  0  0
   -0.6564   -8.4321    5.7701 C   0  0  0  0  0  0  0  0  0  0  0  0
   -0.3215   -8.0572    7.0859 C   0  0  0  0  0  0  0  0  0  0  0  0
   -1.2010   -7.1998    7.8961 C   0  0  0  0  0  0  0  0  0  0  0  0
   -2.7300   -7.6332    8.4531 S   0  0  0  0  0  0  0  0  0  0  0  0
   -3.0767   -6.1554    9.1828 C   0  0  0  0  0  0  0  0  0  0  0  0
   -4.3808   -5.8121    9.8331 C   0  0  0  0  0  0  0  0  0  0  0  0
   -5.3244   -5.1582    8.8290 C   0  0  0  0  0  0  0  0  0  0  0  0
   -2.0022   -5.2914    8.9728 C   0  0  0  0  0  0  0  0  0  0  0  0
   -0.9474   -5.8805    8.2589 C   0  0  0  0  0  0  0  0  0  0  0  0
    0.5055   -5.0078    7.7880 Cl  0  0  0  0  0  0  0  0  0  0  0  0
   -1.9883   -3.6158    9.5073 Cl  0  0  0  0  0  0  0  0  0  0  0  0
    0.9279   -8.4832    7.5705 C   0  0  0  0  0  0  0  0  0  0  0  0
    1.5923   -8.2427    9.0963 S   0  0  0  0  0  0  0  0  0  0  0  0
   -1.8194   -8.0646    5.0726 C   0  0  0  0  0  0  0  0  0  0  0  0
   -1.8315   -8.5228    3.7549 C   0  0  0  0  0  0  0  0  0  0  0  0
   -0.3994   -9.3658    3.4507 S   0  0  0  0  0  0  0  0  0  0  0  0
   -2.8292   -8.1827    2.7281 C   0  0  0  0  0  0  0  0  0  0  0  0
   -3.9228   -7.3263    2.8909 C   0  0  0  0  0  0  0  0  0  0  0  0
   -4.5630   -7.0181    1.6773 C   0  0  0  0  0  0  0  0  0  0  0  0
   -5.6133   -6.0901    1.4902 C   0  0  0  0  0  0  0  0  0  0  0  0
   -6.1846   -5.3209    2.6094 C   0  0  0  0  0  0  0  0  0  0  0  0
   -7.7740   -5.4490    3.1403 S   0  0  0  0  0  0  0  0  0  0  0  0
   -7.6307   -4.3384    4.3980 C   0  0  0  0  0  0  0  0  0  0  0  0
   -8.7172   -4.0207    5.3798 C   0  0  0  0  0  0  0  0  0  0  0  0
   -8.5906   -4.8915    6.6231 C   0  0  0  0  0  0  0  0  0  0  0  0
   -6.3208   -3.8610    4.4268 C   0  0  0  0  0  0  0  0  0  0  0  0
   -5.7341   -2.7044    5.6147 Cl  0  0  0  0  0  0  0  0  0  0  0  0
   -5.5120   -4.4037    3.4163 C   0  0  0  0  0  0  0  0  0  0  0  0
   -3.8333   -3.9401    3.1733 Cl  0  0  0  0  0  0  0  0  0  0  0  0
   -6.0264   -5.8551    0.1644 C   0  0  0  0  0  0  0  0  0  0  0  0
   -5.4380   -6.5033   -0.9260 C   0  0  0  0  0  0  0  0  0  0  0  0
   -4.4044   -7.4377   -0.7381 C   0  0  0  0  0  0  0  0  0  0  0  0
   -3.6844   -8.0257   -1.8784 C   0  0  0  0  0  0  0  0  0  0  0  0
   -4.3165   -9.1849   -2.9176 S   0  0  0  0  0  0  0  0  0  0  0  0
   -2.9945   -9.2266   -3.9599 C   0  0  0  0  0  0  0  0  0  0  0  0
   -2.8538  -10.1590   -5.1207 C   0  0  0  0  0  0  0  0  0  0  0  0
   -2.0226  -11.3770   -4.7366 C   0  0  0  0  0  0  0  0  0  0  0  0
   -2.0317   -8.3272   -3.4963 C   0  0  0  0  0  0  0  0  0  0  0  0
   -2.4240   -7.6460   -2.3346 C   0  0  0  0  0  0  0  0  0  0  0  0
   -1.4442   -6.4043   -1.5630 Cl  0  0  0  0  0  0  0  0  0  0  0  0
   -0.4926   -8.0542   -4.3013 Cl  0  0  0  0  0  0  0  0  0  0  0  0
   -3.9870   -7.6662    0.5797 C   0  0  0  0  0  0  0  0  0  0  0  0
   -2.6861   -8.5944    1.0985 S   0  0  0  0  0  0  0  0  0  0  0  0
   -5.8370   -5.9875   -2.1630 C   0  0  0  0  0  0  0  0  0  0  0  0
   -6.7104   -4.9116   -2.0551 C   0  0  0  0  0  0  0  0  0  0  0  0
   -7.0206   -4.6205   -0.4163 S   0  0  0  0  0  0  0  0  0  0  0  0
   -6.8791   -3.9221   -3.1280 C   0  0  0  0  0  0  0  0  0  0  0  0
   -7.7882   -2.8618   -3.1591 C   0  0  0  0  0  0  0  0  0  0  0  0
   -7.4746   -1.9102   -4.1485 C   0  0  0  0  0  0  0  0  0  0  0  0
   -8.1367   -0.6870   -4.3801 C   0  0  0  0  0  0  0  0  0  0  0  0
   -9.3996   -0.3550   -3.7013 C   0  0  0  0  0  0  0  0  0  0  0  0
  -10.8757   -1.0752   -4.0571 S   0  0  0  0  0  0  0  0  0  0  0  0
  -11.7749   -0.1996   -2.9371 C   0  0  0  0  0  0  0  0  0  0  0  0
  -13.2518   -0.3561   -2.7182 C   0  0  0  0  0  0  0  0  0  0  0  0
  -13.5380   -1.5060   -1.7601 C   0  0  0  0  0  0  0  0  0  0  0  0
  -10.9166    0.6597   -2.2485 C   0  0  0  0  0  0  0  0  0  0  0  0
  -11.4418    1.7300   -0.9549 Cl  0  0  0  0  0  0  0  0  0  0  0  0
   -9.5837    0.5799   -2.6857 C   0  0  0  0  0  0  0  0  0  0  0  0
   -8.2723    1.5251   -1.9919 Cl  0  0  0  0  0  0  0  0  0  0  0  0
   -7.5425    0.1973   -5.3022 C   0  0  0  0  0  0  0  0  0  0  0  0
   -6.3680   -0.1222   -5.9933 C   0  0  0  0  0  0  0  0  0  0  0  0
   -5.7233   -1.3530   -5.7850 C   0  0  0  0  0  0  0  0  0  0  0  0
   -4.3851   -1.6337   -6.3395 C   0  0  0  0  0  0  0  0  0  0  0  0
   -2.9787   -1.7234   -5.4201 S   0  0  0  0  0  0  0  0  0  0  0  0
   -1.9362   -1.9916   -6.7114 C   0  0  0  0  0  0  0  0  0  0  0  0
   -0.4639   -2.2316   -6.5711 C   0  0  0  0  0  0  0  0  0  0  0  0
   -0.1821   -3.7048   -6.2971 C   0  0  0  0  0  0  0  0  0  0  0  0
   -2.6872   -2.0330   -7.8884 C   0  0  0  0  0  0  0  0  0  0  0  0
   -4.0590   -1.8167   -7.6804 C   0  0  0  0  0  0  0  0  0  0  0  0
   -5.2468   -1.8102   -8.9761 Cl  0  0  0  0  0  0  0  0  0  0  0  0
   -1.9887   -2.3383   -9.4725 Cl  0  0  0  0  0  0  0  0  0  0  0  0
   -6.3136   -2.2252   -4.8600 C   0  0  0  0  0  0  0  0  0  0  0  0
   -5.7038   -3.6820   -4.3114 S   0  0  0  0  0  0  0  0  0  0  0  0
   -5.8834    0.9274   -6.7785 C   0  0  0  0  0  0  0  0  0  0  0  0
   -6.6630    2.0779   -6.6982 C   0  0  0  0  0  0  0  0  0  0  0  0
   -7.9634    1.7941   -5.6493 S   0  0  0  0  0  0  0  0  0  0  0  0
   -6.1997    3.3844   -7.1957 C   0  0  0  0  0  0  0  0  0  0  0  0
   -6.1569    4.4941   -6.3250 C   0  0  0  0  0  0  0  0  0  0  0  0
   -5.3538    5.6037   -6.6283 C   0  0  0  0  0  0  0  0  0  0  0  0
   -4.6459    5.6181   -7.8362 C   0  0  0  0  0  0  0  0  0  0  0  0
   -3.4714    6.4296   -8.2185 C   0  0  0  0  0  0  0  0  0  0  0  0
   -2.9899    5.7593   -9.4308 C   0  0  0  0  0  0  0  0  0  0  0  0
   -1.9769    6.1145  -10.0919 O   0  0  0  0  0  0  0  0  0  0  0  0
   -3.8161    4.6586   -9.7979 N   0  0  0  0  0  0  0  0  0  0  0  0
   -3.4127    3.5711  -10.6811 C   0  0  0  0  0  0  0  0  0  0  0  0
   -4.7741    4.5746   -8.7433 C   0  0  0  0  0  0  0  0  0  0  0  0
   -5.5369    3.4467   -8.4360 C   0  0  0  0  0  0  0  0  0  0  0  0
   -2.6803    7.0662   -7.3417 C   0  0  0  0  0  0  0  0  0  0  0  0
   -3.0892    8.0466   -6.3319 C   0  0  0  0  0  0  0  0  0  0  0  0
   -4.2002    8.6388   -6.3059 O   0  0  0  0  0  0  0  0  0  0  0  0
   -2.0309    8.3117   -5.4102 N   0  0  0  0  0  0  0  0  0  0  0  0
   -2.1995    8.9334   -4.1016 C   0  0  0  0  0  0  0  0  0  0  0  0
   -0.9961    7.3992   -5.7824 C   0  0  0  0  0  0  0  0  0  0  0  0
    0.1427    7.0937   -5.0311 C   0  0  0  0  0  0  0  0  0  0  0  0
    0.9266    5.9852   -5.4035 C   0  0  0  0  0  0  0  0  0  0  0  0
    0.5583    5.2089   -6.5200 C   0  0  0  0  0  0  0  0  0  0  0  0
   -0.5752    5.5400   -7.2779 C   0  0  0  0  0  0  0  0  0  0  0  0
   -1.3310    6.6602   -6.9089 C   0  0  0  0  0  0  0  0  0  0  0  0
    2.0443    5.5713   -4.5441 C   0  0  0  0  0  0  0  0  0  0  0  0
    3.0644    6.4102   -4.1025 C   0  0  0  0  0  0  0  0  0  0  0  0
    3.8437    5.8344   -3.0860 C   0  0  0  0  0  0  0  0  0  0  0  0
    4.9268    6.4389   -2.4198 C   0  0  0  0  0  0  0  0  0  0  0  0
    5.4516    7.7590   -2.8107 C   0  0  0  0  0  0  0  0  0  0  0  0
    4.6107    9.2115   -2.6973 S   0  0  0  0  0  0  0  0  0  0  0  0
    5.8499   10.1803   -3.3017 C   0  0  0  0  0  0  0  0  0  0  0  0
    5.7288   11.6517   -3.5584 C   0  0  0  0  0  0  0  0  0  0  0  0
    5.2298   11.9108   -4.9764 C   0  0  0  0  0  0  0  0  0  0  0  0
    6.9383    9.3670   -3.6168 C   0  0  0  0  0  0  0  0  0  0  0  0
    8.4353    9.9718   -4.3168 Cl  0  0  0  0  0  0  0  0  0  0  0  0
    6.7173    8.0118   -3.3326 C   0  0  0  0  0  0  0  0  0  0  0  0
    7.8971    6.7494   -3.6677 Cl  0  0  0  0  0  0  0  0  0  0  0  0
    5.5019    5.7206   -1.3590 C   0  0  0  0  0  0  0  0  0  0  0  0
    5.0639    4.4480   -0.9823 C   0  0  0  0  0  0  0  0  0  0  0  0
    4.0125    3.8191   -1.6828 C   0  0  0  0  0  0  0  0  0  0  0  0
    3.5182    2.4846   -1.3048 C   0  0  0  0  0  0  0  0  0  0  0  0
    4.3720    1.0497   -1.5169 S   0  0  0  0  0  0  0  0  0  0  0  0
    3.1719    0.0379   -0.9084 C   0  0  0  0  0  0  0  0  0  0  0  0
    3.2522   -1.4581   -0.8727 C   0  0  0  0  0  0  0  0  0  0  0  0
    2.5607   -2.0672   -2.0874 C   0  0  0  0  0  0  0  0  0  0  0  0
    2.0741    0.8165   -0.5421 C   0  0  0  0  0  0  0  0  0  0  0  0
    2.2711    2.1901   -0.7567 C   0  0  0  0  0  0  0  0  0  0  0  0
    1.0828    3.4145   -0.3327 Cl  0  0  0  0  0  0  0  0  0  0  0  0
    0.5857    0.1473    0.1146 Cl  0  0  0  0  0  0  0  0  0  0  0  0
    3.4204    4.5486   -2.7311 C   0  0  0  0  0  0  0  0  0  0  0  0
    2.1042    4.1161   -3.6913 S   0  0  0  0  0  0  0  0  0  0  0  0
    5.7137    3.9582    0.1646 C   0  0  0  0  0  0  0  0  0  0  0  0
    6.6392    4.8625    0.6909 C   0  0  0  0  0  0  0  0  0  0  0  0
    6.6666    6.2505   -0.2717 S   0  0  0  0  0  0  0  0  0  0  0  0
    7.3709    4.7112    1.9560 C   0  0  0  0  0  0  0  0  0  0  0  0
    8.0465    5.7343    2.6226 C   0  0  0  0  0  0  0  0  0  0  0  0
    8.5674    5.3325    3.8640 C   0  0  0  0  0  0  0  0  0  0  0  0
    9.2504    6.1486    4.7866 C   0  0  0  0  0  0  0  0  0  0  0  0
    9.4480    7.5899    4.5511 C   0  0  0  0  0  0  0  0  0  0  0  0
    8.2085    8.7248    4.4979 S   0  0  0  0  0  0  0  0  0  0  0  0
    9.1963   10.0610    4.2471 C   0  0  0  0  0  0  0  0  0  0  0  0
    8.7109   11.4783    4.1691 C   0  0  0  0  0  0  0  0  0  0  0  0
    8.7715   12.1460    5.5371 C   0  0  0  0  0  0  0  0  0  0  0  0
   10.5249    9.6345    4.2217 C   0  0  0  0  0  0  0  0  0  0  0  0
   11.8903   10.7237    4.0038 Cl  0  0  0  0  0  0  0  0  0  0  0  0
   10.6660    8.2473    4.3890 C   0  0  0  0  0  0  0  0  0  0  0  0
   12.2176    7.4229    4.3522 Cl  0  0  0  0  0  0  0  0  0  0  0  0
    9.6734    5.5396    5.9803 C   0  0  0  0  0  0  0  0  0  0  0  0
    9.4330    4.1944    6.2681 C   0  0  0  0  0  0  0  0  0  0  0  0
    8.7424    3.3800    5.3479 C   0  0  0  0  0  0  0  0  0  0  0  0
    8.4559    1.9617    5.6219 C   0  0  0  0  0  0  0  0  0  0  0  0
    9.0902    0.6722    4.7509 S   0  0  0  0  0  0  0  0  0  0  0  0
    8.3266   -0.5339    5.6425 C   0  0  0  0  0  0  0  0  0  0  0  0
    8.4229   -1.9986    5.3411 C   0  0  0  0  0  0  0  0  0  0  0  0
    7.3523   -2.4113    4.3401 C   0  0  0  0  0  0  0  0  0  0  0  0
    7.5352    0.0645    6.6213 C   0  0  0  0  0  0  0  0  0  0  0  0
    7.6157    1.4660    6.6171 C   0  0  0  0  0  0  0  0  0  0  0  0
    6.6994    2.4924    7.7138 Cl  0  0  0  0  0  0  0  0  0  0  0  0
    6.5200   -0.8395    7.7374 Cl  0  0  0  0  0  0  0  0  0  0  0  0
    8.3272    3.9846    4.1484 C   0  0  0  0  0  0  0  0  0  0  0  0
    7.4376    3.3044    2.8897 S   0  0  0  0  0  0  0  0  0  0  0  0
    9.9361    3.8013    7.5210 C   0  0  0  0  0  0  0  0  0  0  0  0
   10.5488    4.8402    8.2161 C   0  0  0  0  0  0  0  0  0  0  0  0
   10.4746    6.2440    7.2823 S   0  0  0  0  0  0  0  0  0  0  0  0
    3.8355   -9.2164    9.4947 H   0  0  0  0  0  0  0  0  0  0  0  0
    3.8125  -10.1329    7.0599 H   0  0  0  0  0  0  0  0  0  0  0  0
    4.7206  -12.4849    1.2524 H   0  0  0  0  0  0  0  0  0  0  0  0
    3.2262  -13.3863    1.6678 H   0  0  0  0  0  0  0  0  0  0  0  0
    5.1845  -14.7601    2.2310 H   0  0  0  0  0  0  0  0  0  0  0  0
    4.3694  -14.2574    3.7622 H   0  0  0  0  0  0  0  0  0  0  0  0
    5.8908  -13.4301    3.2268 H   0  0  0  0  0  0  0  0  0  0  0  0
   -4.8510   -6.7381   10.2280 H   0  0  0  0  0  0  0  0  0  0  0  0
   -4.2082   -5.1215   10.6874 H   0  0  0  0  0  0  0  0  0  0  0  0
   -6.2908   -4.9293    9.3257 H   0  0  0  0  0  0  0  0  0  0  0  0
   -5.5129   -5.8471    7.9766 H   0  0  0  0  0  0  0  0  0  0  0  0
   -4.8896   -4.2108    8.4450 H   0  0  0  0  0  0  0  0  0  0  0  0
   -2.6031   -7.4531    5.4975 H   0  0  0  0  0  0  0  0  0  0  0  0
   -4.2059   -6.8976    3.8423 H   0  0  0  0  0  0  0  0  0  0  0  0
   -9.7056   -4.2018    4.9065 H   0  0  0  0  0  0  0  0  0  0  0  0
   -8.6651   -2.9482    5.6688 H   0  0  0  0  0  0  0  0  0  0  0  0
   -9.4179   -4.6630    7.3266 H   0  0  0  0  0  0  0  0  0  0  0  0
   -7.6261   -4.6900    7.1346 H   0  0  0  0  0  0  0  0  0  0  0  0
   -8.6418   -5.9671    6.3486 H   0  0  0  0  0  0  0  0  0  0  0  0
   -2.3718   -9.6295   -5.9697 H   0  0  0  0  0  0  0  0  0  0  0  0
   -3.8605  -10.4929   -5.4515 H   0  0  0  0  0  0  0  0  0  0  0  0
   -1.0020  -11.0687   -4.4253 H   0  0  0  0  0  0  0  0  0  0  0  0
   -2.5099  -11.9241   -3.8999 H   0  0  0  0  0  0  0  0  0  0  0  0
   -1.9377  -12.0598   -5.6071 H   0  0  0  0  0  0  0  0  0  0  0  0
   -5.4077   -6.3041   -3.1058 H   0  0  0  0  0  0  0  0  0  0  0  0
   -8.5964   -2.7503   -2.4487 H   0  0  0  0  0  0  0  0  0  0  0  0
  -13.6813    0.5832   -2.3087 H   0  0  0  0  0  0  0  0  0  0  0  0
  -13.7441   -0.5603   -3.6931 H   0  0  0  0  0  0  0  0  0  0  0  0
  -13.1415   -2.4606   -2.1699 H   0  0  0  0  0  0  0  0  0  0  0  0
  -14.6360   -1.6077   -1.6230 H   0  0  0  0  0  0  0  0  0  0  0  0
  -13.0692   -1.3101   -0.7710 H   0  0  0  0  0  0  0  0  0  0  0  0
   -0.0677   -1.6213   -5.7299 H   0  0  0  0  0  0  0  0  0  0  0  0
    0.0657   -1.9168   -7.4956 H   0  0  0  0  0  0  0  0  0  0  0  0
    0.9131   -3.8662   -6.2163 H   0  0  0  0  0  0  0  0  0  0  0  0
   -0.6579   -4.0181   -5.3430 H   0  0  0  0  0  0  0  0  0  0  0  0
   -0.5745   -4.3346   -7.1257 H   0  0  0  0  0  0  0  0  0  0  0  0
   -4.9459    0.8861   -7.3186 H   0  0  0  0  0  0  0  0  0  0  0  0
   -6.6361    4.4467   -5.3540 H   0  0  0  0  0  0  0  0  0  0  0  0
   -5.2230    6.3774   -5.8890 H   0  0  0  0  0  0  0  0  0  0  0  0
   -2.7871    3.9647  -11.5099 H   0  0  0  0  0  0  0  0  0  0  0  0
   -4.3100    3.0894  -11.1229 H   0  0  0  0  0  0  0  0  0  0  0  0
   -2.8290    2.8188  -10.1079 H   0  0  0  0  0  0  0  0  0  0  0  0
   -5.5239    2.5854   -9.0922 H   0  0  0  0  0  0  0  0  0  0  0  0
   -2.9392    9.7594   -4.1649 H   0  0  0  0  0  0  0  0  0  0  0  0
   -2.5591    8.1783   -3.3724 H   0  0  0  0  0  0  0  0  0  0  0  0
   -1.2358    9.3585   -3.7538 H   0  0  0  0  0  0  0  0  0  0  0  0
    0.3796    7.6555   -4.1363 H   0  0  0  0  0  0  0  0  0  0  0  0
    1.1370    4.3320   -6.7889 H   0  0  0  0  0  0  0  0  0  0  0  0
   -0.8737    4.8937   -8.0890 H   0  0  0  0  0  0  0  0  0  0  0  0
    3.2078    7.4118   -4.4854 H   0  0  0  0  0  0  0  0  0  0  0  0
    6.7135   12.1449   -3.4153 H   0  0  0  0  0  0  0  0  0  0  0  0
    5.0142   12.0920   -2.8337 H   0  0  0  0  0  0  0  0  0  0  0  0
    5.1465   13.0041   -5.1462 H   0  0  0  0  0  0  0  0  0  0  0  0
    5.9394   11.4872   -5.7192 H   0  0  0  0  0  0  0  0  0  0  0  0
    4.2290   11.4506   -5.1190 H   0  0  0  0  0  0  0  0  0  0  0  0
    4.3176   -1.7725   -0.8628 H   0  0  0  0  0  0  0  0  0  0  0  0
    2.7762   -1.8365    0.0563 H   0  0  0  0  0  0  0  0  0  0  0  0
    1.4868   -1.7825   -2.1063 H   0  0  0  0  0  0  0  0  0  0  0  0
    2.6313   -3.1743   -2.0406 H   0  0  0  0  0  0  0  0  0  0  0  0
    3.0483   -1.7197   -3.0233 H   0  0  0  0  0  0  0  0  0  0  0  0
    5.4799    3.0089    0.6278 H   0  0  0  0  0  0  0  0  0  0  0  0
    8.1370    6.7401    2.2327 H   0  0  0  0  0  0  0  0  0  0  0  0
    9.3288   12.0519    3.4461 H   0  0  0  0  0  0  0  0  0  0  0  0
    7.6616   11.4881    3.8023 H   0  0  0  0  0  0  0  0  0  0  0  0
    9.8203   12.1851    5.9019 H   0  0  0  0  0  0  0  0  0  0  0  0
    8.3834   13.1853    5.4621 H   0  0  0  0  0  0  0  0  0  0  0  0
    8.1489   11.5855    6.2669 H   0  0  0  0  0  0  0  0  0  0  0  0
    8.3091   -2.5894    6.2743 H   0  0  0  0  0  0  0  0  0  0  0  0
    9.4264   -2.2192    4.9194 H   0  0  0  0  0  0  0  0  0  0  0  0
    7.4553   -1.8300    3.3980 H   0  0  0  0  0  0  0  0  0  0  0  0
    7.4606   -3.4913    4.1059 H   0  0  0  0  0  0  0  0  0  0  0  0
    6.3394   -2.2407    4.7676 H   0  0  0  0  0  0  0  0  0  0  0  0
    9.8589    2.7999    7.9205 H   0  0  0  0  0  0  0  0  0  0  0  0
   10.9959    4.7582    9.1975 H   0  0  0  0  0  0  0  0  0  0  0  0
  1  2  2  0
  2  3  1  0
  3  4  2  0
  4  5  1  0
  5  6  1  0
  6  7  1  0
  7  8  1  0
  8  9  1  0
  7 10  2  0
 10 11  1  0
 10 12  1  0
 12 13  1  0
  4 14  1  0
 14 15  2  0
 15 16  1  0
 16 17  1  0
 17 18  1  0
 18 19  1  0
 19 20  1  0
 20 21  1  0
 19 22  2  0
 22 23  1  0
 23 24  1  0
 22 25  1  0
 16 26  2  0
 26 27  1  0
 15 28  1  0
 28 29  2  0
 29 30  1  0
 29 31  1  0
 31 32  2  0
 32 33  1  0
 33 34  2  0
 34 35  1  0
 35 36  1  0
 36 37  1  0
 37 38  1  0
 38 39  1  0
 37 40  2  0
 40 41  1  0
 40 42  1  0
 42 43  1  0
 34 44  1  0
 44 45  2  0
 45 46  1  0
 46 47  1  0
 47 48  1  0
 48 49  1  0
 49 50  1  0
 50 51  1  0
 49 52  2  0
 52 53  1  0
 53 54  1  0
 52 55  1  0
 46 56  2  0
 56 57  1  0
 45 58  1  0
 58 59  2  0
 59 60  1  0
 59 61  1  0
 61 62  2  0
 62 63  1  0
 63 64  2  0
 64 65  1  0
 65 66  1  0
 66 67  1  0
 67 68  1  0
 68 69  1  0
 67 70  2  0
 70 71  1  0
 70 72  1  0
 72 73  1  0
 64 74  1  0
 74 75  2  0
 75 76  1  0
 76 77  1  0
 77 78  1  0
 78 79  1  0
 79 80  1  0
 80 81  1  0
 79 82  2  0
 82 83  1  0
 83 84  1  0
 82 85  1  0
 76 86  2  0
 86 87  1  0
 75 88  1  0
 88 89  2  0
 89 90  1  0
 89 91  1  0
 91 92  2  0
 92 93  1  0
 93 94  2  0
 94 95  1  0
 95 96  1  0
 96 97  2  0
 96 98  1  0
 98 99  1  0
 98100  1  0
100101  2  0
 95102  2  3
102103  1  0
103104  2  0
103105  1  0
105106  1  0
105107  1  0
107108  2  0
108109  1  0
109110  2  0
110111  1  0
111112  2  0
109113  1  0
113114  2  0
114115  1  0
115116  2  0
116117  1  0
117118  1  0
118119  1  0
119120  1  0
120121  1  0
119122  2  0
122123  1  0
122124  1  0
124125  1  0
116126  1  0
126127  2  0
127128  1  0
128129  1  0
129130  1  0
130131  1  0
131132  1  0
132133  1  0
131134  2  0
134135  1  0
135136  1  0
134137  1  0
128138  2  0
138139  1  0
127140  1  0
140141  2  0
141142  1  0
141143  1  0
143144  2  0
144145  1  0
145146  2  0
146147  1  0
147148  1  0
148149  1  0
149150  1  0
150151  1  0
149152  2  0
152153  1  0
152154  1  0
154155  1  0
146156  1  0
156157  2  0
157158  1  0
158159  1  0
159160  1  0
160161  1  0
161162  1  0
162163  1  0
161164  2  0
164165  1  0
165166  1  0
164167  1  0
158168  2  0
168169  1  0
157170  1  0
170171  2  0
171172  1  0
 27  1  1  0
 57 31  1  0
 87 61  1  0
101 91  1  0
112102  1  0
139113  1  0
169143  1  0
 26  3  1  0
 56 33  1  0
 86 63  1  0
100 94  1  0
112107  1  0
138115  1  0
168145  1  0
 12  5  2  0
 30 14  1  0
 42 35  2  0
 60 44  1  0
 72 65  2  0
 90 74  1  0
124117  2  0
142126  1  0
154147  2  0
172156  1  0
 23 17  2  0
 53 47  2  0
 83 77  2  0
135129  2  0
165159  2  0
  1173  1  0
  2174  1  0
  8175  1  0
  8176  1  0
  9177  1  0
  9178  1  0
  9179  1  0
 20180  1  0
 20181  1  0
 21182  1  0
 21183  1  0
 21184  1  0
 28185  1  0
 32186  1  0
 38187  1  0
 38188  1  0
 39189  1  0
 39190  1  0
 39191  1  0
 50192  1  0
 50193  1  0
 51194  1  0
 51195  1  0
 51196  1  0
 58197  1  0
 62198  1  0
 68199  1  0
 68200  1  0
 69201  1  0
 69202  1  0
 69203  1  0
 80204  1  0
 80205  1  0
 81206  1  0
 81207  1  0
 81208  1  0
 88209  1  0
 92210  1  0
 93211  1  0
 99212  1  0
 99213  1  0
 99214  1  0
101215  1  0
106216  1  0
106217  1  0
106218  1  0
108219  1  0
110220  1  0
111221  1  0
114222  1  0
120223  1  0
120224  1  0
121225  1  0
121226  1  0
121227  1  0
132228  1  0
132229  1  0
133230  1  0
133231  1  0
133232  1  0
140233  1  0
144234  1  0
150235  1  0
150236  1  0
151237  1  0
151238  1  0
151239  1  0
162240  1  0
162241  1  0
163242  1  0
163243  1  0
163244  1  0
170245  1  0
171246  1  0
M  END

