
     RDKit          3D

242265  0  0  0  0  0  0  0  0999 V2000
    2.0859   -2.4906    9.1324 C   0  0  0  0  0  0  0  0  0  0  0  0
    2.0103   -1.8333    7.9086 C   0  0  0  0  0  0  0  0  0  0  0  0
    1.5073   -2.6416    6.8716 C   0  0  0  0  0  0  0  0  0  0  0  0
    1.2767   -2.2509    5.5317 C   0  0  0  0  0  0  0  0  0  0  0  0
    1.4916   -0.8540    5.0854 C   0  0  0  0  0  0  0  0  0  0  0  0
    2.7508   -0.2449    5.2187 C   0  0  0  0  0  0  0  0  0  0  0  0
    2.8859    1.1340    5.0355 C   0  0  0  0  0  0  0  0  0  0  0  0
    1.7732    1.9128    4.6975 C   0  0  0  0  0  0  0  0  0  0  0  0
    1.8766    3.7057    4.7577 S   0  0  0  0  0  0  0  0  0  0  0  0
    2.7068    3.9280    3.1501 C   0  0  0  0  0  0  0  0  0  0  0  0
    4.1690    4.2787    3.3823 C   0  0  0  0  0  0  0  0  0  0  0  0
    0.5401    1.2931    4.4590 C   0  0  0  0  0  0  0  0  0  0  0  0
   -0.5449    2.0323    4.1223 F   0  0  0  0  0  0  0  0  0  0  0  0
    0.3984   -0.0834    4.6572 C   0  0  0  0  0  0  0  0  0  0  0  0
    0.7103   -3.2212    4.6814 C   0  0  0  0  0  0  0  0  0  0  0  0
    0.3493   -4.4975    5.1241 C   0  0  0  0  0  0  0  0  0  0  0  0
    0.5670   -4.8789    6.4633 C   0  0  0  0  0  0  0  0  0  0  0  0
    0.1533   -6.1997    6.9816 C   0  0  0  0  0  0  0  0  0  0  0  0
    1.1163   -7.1122    7.4360 C   0  0  0  0  0  0  0  0  0  0  0  0
    0.7238   -8.3570    7.9341 C   0  0  0  0  0  0  0  0  0  0  0  0
   -0.6336   -8.6950    7.9964 C   0  0  0  0  0  0  0  0  0  0  0  0
   -1.1248  -10.3016    8.6343 S   0  0  0  0  0  0  0  0  0  0  0  0
   -1.0498   -9.8171   10.3950 C   0  0  0  0  0  0  0  0  0  0  0  0
   -2.2662   -8.9920   10.7970 C   0  0  0  0  0  0  0  0  0  0  0  0
   -1.5990   -7.7877    7.5369 C   0  0  0  0  0  0  0  0  0  0  0  0
   -1.2063   -6.5432    7.0356 C   0  0  0  0  0  0  0  0  0  0  0  0
   -2.9174   -8.1076    7.5746 F   0  0  0  0  0  0  0  0  0  0  0  0
    1.1688   -3.9281    7.3037 C   0  0  0  0  0  0  0  0  0  0  0  0
    1.5062   -4.0613    8.9470 S   0  0  0  0  0  0  0  0  0  0  0  0
   -0.2371   -5.2909    4.1236 C   0  0  0  0  0  0  0  0  0  0  0  0
   -0.3042   -4.6533    2.8826 C   0  0  0  0  0  0  0  0  0  0  0  0
    0.3187   -3.0886    3.0513 S   0  0  0  0  0  0  0  0  0  0  0  0
   -0.9688   -5.1485    1.6580 C   0  0  0  0  0  0  0  0  0  0  0  0
   -1.8270   -4.1170    0.6533 S   0  0  0  0  0  0  0  0  0  0  0  0
   -2.4662   -5.2776   -0.3701 C   0  0  0  0  0  0  0  0  0  0  0  0
   -2.0382   -6.5303    0.0815 C   0  0  0  0  0  0  0  0  0  0  0  0
   -1.1445   -6.4668    1.1843 C   0  0  0  0  0  0  0  0  0  0  0  0
   -0.4860   -7.7249    1.7589 C   0  0  2  0  0  0  0  0  0  0  0  0
    1.0537   -7.6781    1.6189 C   0  0  0  0  0  0  0  0  0  0  0  0
    1.6051   -8.8670    2.0643 F   0  0  0  0  0  0  0  0  0  0  0  0
    1.4076   -7.4920    0.2925 F   0  0  0  0  0  0  0  0  0  0  0  0
    1.6006   -6.6562    2.3677 F   0  0  0  0  0  0  0  0  0  0  0  0
   -1.0177   -9.0356    1.1094 C   0  0  0  0  0  0  0  0  0  0  0  0
   -2.4633   -8.9164    0.6246 C   0  0  0  0  0  0  0  0  0  0  0  0
   -2.5443   -7.8397   -0.4559 C   0  0  0  0  0  0  0  0  0  0  0  0
   -3.4393   -4.9488   -1.4272 C   0  0  0  0  0  0  0  0  0  0  0  0
   -4.6823   -3.8573   -1.1510 S   0  0  0  0  0  0  0  0  0  0  0  0
   -5.2165   -3.6925   -2.7322 C   0  0  0  0  0  0  0  0  0  0  0  0
   -4.4211   -4.5346   -3.5207 C   0  0  0  0  0  0  0  0  0  0  0  0
   -3.3739   -5.1823   -2.8155 C   0  0  0  0  0  0  0  0  0  0  0  0
   -2.2700   -5.9476   -3.5514 C   0  0  2  0  0  0  0  0  0  0  0  0
   -0.8988   -5.2354   -3.4456 C   0  0  0  0  0  0  0  0  0  0  0  0
   -1.0105   -3.9158   -3.8514 F   0  0  0  0  0  0  0  0  0  0  0  0
    0.0295   -5.8724   -4.2521 F   0  0  0  0  0  0  0  0  0  0  0  0
   -0.4123   -5.2665   -2.1552 F   0  0  0  0  0  0  0  0  0  0  0  0
   -2.5969   -6.1993   -5.0569 C   0  0  0  0  0  0  0  0  0  0  0  0
   -4.0878   -6.1208   -5.3891 C   0  0  0  0  0  0  0  0  0  0  0  0
   -4.6275   -4.7491   -4.9913 C   0  0  0  0  0  0  0  0  0  0  0  0
   -5.9896   -2.5129   -3.1848 C   0  0  0  0  0  0  0  0  0  0  0  0
   -6.4861   -1.5546   -2.2957 C   0  0  0  0  0  0  0  0  0  0  0  0
   -6.5135   -0.2533   -2.8270 C   0  0  0  0  0  0  0  0  0  0  0  0
   -6.6052    0.9327   -2.0681 C   0  0  0  0  0  0  0  0  0  0  0  0
   -6.8923    0.9074   -0.6208 C   0  0  0  0  0  0  0  0  0  0  0  0
   -5.9396    0.4181    0.2867 C   0  0  0  0  0  0  0  0  0  0  0  0
   -6.2400    0.3512    1.6494 C   0  0  0  0  0  0  0  0  0  0  0  0
   -7.4893    0.7763    2.1159 C   0  0  0  0  0  0  0  0  0  0  0  0
   -7.8862    0.6312    3.8601 S   0  0  0  0  0  0  0  0  0  0  0  0
   -8.5925   -1.0417    3.6750 C   0  0  0  0  0  0  0  0  0  0  0  0
   -9.1353   -1.5317    5.0084 C   0  0  0  0  0  0  0  0  0  0  0  0
   -8.4281    1.3023    1.2171 C   0  0  0  0  0  0  0  0  0  0  0  0
   -9.6368    1.7314    1.6602 F   0  0  0  0  0  0  0  0  0  0  0  0
   -8.1289    1.3670   -0.1474 C   0  0  0  0  0  0  0  0  0  0  0  0
   -6.1810    2.1181   -2.6923 C   0  0  0  0  0  0  0  0  0  0  0  0
   -5.7694    2.1586   -4.0277 C   0  0  0  0  0  0  0  0  0  0  0  0
   -5.8116    0.9941   -4.8251 C   0  0  0  0  0  0  0  0  0  0  0  0
   -5.2825    0.9670   -6.2039 C   0  0  0  0  0  0  0  0  0  0  0  0
   -3.9039    1.0808   -6.4405 C   0  0  0  0  0  0  0  0  0  0  0  0
   -3.4119    1.0385   -7.7470 C   0  0  0  0  0  0  0  0  0  0  0  0
   -4.2903    0.8850   -8.8255 C   0  0  0  0  0  0  0  0  0  0  0  0
   -3.6422    0.8487  -10.5011 S   0  0  0  0  0  0  0  0  0  0  0  0
   -3.5801    2.6664  -10.6936 C   0  0  0  0  0  0  0  0  0  0  0  0
   -4.9588    3.2374  -11.0031 C   0  0  0  0  0  0  0  0  0  0  0  0
   -5.6644    0.7364   -8.5898 C   0  0  0  0  0  0  0  0  0  0  0  0
   -6.1581    0.7780   -7.2818 C   0  0  0  0  0  0  0  0  0  0  0  0
   -6.5248    0.5513   -9.6223 F   0  0  0  0  0  0  0  0  0  0  0  0
   -6.1487   -0.2035   -4.1748 C   0  0  0  0  0  0  0  0  0  0  0  0
   -5.7314   -1.7512   -4.6703 S   0  0  0  0  0  0  0  0  0  0  0  0
   -5.0754    3.3352   -4.3556 C   0  0  0  0  0  0  0  0  0  0  0  0
   -4.8008    4.1494   -3.2510 C   0  0  0  0  0  0  0  0  0  0  0  0
   -5.6115    3.4951   -1.9189 S   0  0  0  0  0  0  0  0  0  0  0  0
   -3.5085    4.8562   -3.0905 C   0  0  0  0  0  0  0  0  0  0  0  0
   -2.4273    4.6538   -3.9552 C   0  0  0  0  0  0  0  0  0  0  0  0
   -1.1774    4.7501   -3.3266 C   0  0  0  0  0  0  0  0  0  0  0  0
    0.0445    4.3289   -3.8839 C   0  0  0  0  0  0  0  0  0  0  0  0
    0.1268    3.7999   -5.2564 C   0  0  0  0  0  0  0  0  0  0  0  0
    0.0555    2.4169   -5.4782 C   0  0  0  0  0  0  0  0  0  0  0  0
    0.1471    1.9098   -6.7753 C   0  0  0  0  0  0  0  0  0  0  0  0
    0.3139    2.7792   -7.8611 C   0  0  0  0  0  0  0  0  0  0  0  0
    0.4209    2.1135   -9.5264 S   0  0  0  0  0  0  0  0  0  0  0  0
    2.2061    1.7248   -9.4392 C   0  0  0  0  0  0  0  0  0  0  0  0
    3.0566    2.9722   -9.6446 C   0  0  0  0  0  0  0  0  0  0  0  0
    0.3649    4.1641   -7.6428 C   0  0  0  0  0  0  0  0  0  0  0  0
    0.5011    5.0194   -8.6877 F   0  0  0  0  0  0  0  0  0  0  0  0
    0.2733    4.6721   -6.3432 C   0  0  0  0  0  0  0  0  0  0  0  0
    1.1398    4.2313   -3.0143 C   0  0  0  0  0  0  0  0  0  0  0  0
    1.0614    4.5562   -1.6558 C   0  0  0  0  0  0  0  0  0  0  0  0
   -0.1480    5.0387   -1.1079 C   0  0  0  0  0  0  0  0  0  0  0  0
   -0.2820    5.3467    0.3316 C   0  0  0  0  0  0  0  0  0  0  0  0
    0.4418    6.4105    0.8893 C   0  0  0  0  0  0  0  0  0  0  0  0
    0.2942    6.7283    2.2424 C   0  0  0  0  0  0  0  0  0  0  0  0
   -0.5790    5.9878    3.0481 C   0  0  0  0  0  0  0  0  0  0  0  0
   -0.7412    6.3849    4.7935 S   0  0  0  0  0  0  0  0  0  0  0  0
   -2.2038    7.4627    4.5923 C   0  0  0  0  0  0  0  0  0  0  0  0
   -1.7914    8.8690    4.1790 C   0  0  0  0  0  0  0  0  0  0  0  0
   -1.2935    4.9153    2.4982 C   0  0  0  0  0  0  0  0  0  0  0  0
   -1.1416    4.5930    1.1463 C   0  0  0  0  0  0  0  0  0  0  0  0
   -2.1480    4.1926    3.2651 F   0  0  0  0  0  0  0  0  0  0  0  0
   -1.2574    5.1035   -1.9776 C   0  0  0  0  0  0  0  0  0  0  0  0
   -2.8806    5.2746   -1.5749 S   0  0  0  0  0  0  0  0  0  0  0  0
    2.2138    4.1868   -0.9365 C   0  0  0  0  0  0  0  0  0  0  0  0
    3.1751    3.5630   -1.7349 C   0  0  0  0  0  0  0  0  0  0  0  0
    2.6175    3.4997   -3.3257 S   0  0  0  0  0  0  0  0  0  0  0  0
    4.3569    2.8283   -1.2546 C   0  0  0  0  0  0  0  0  0  0  0  0
    5.1122    1.9527   -2.0323 C   0  0  0  0  0  0  0  0  0  0  0  0
    6.0619    1.2333   -1.2916 C   0  0  0  0  0  0  0  0  0  0  0  0
    6.9197    0.2315   -1.7916 C   0  0  0  0  0  0  0  0  0  0  0  0
    6.8793   -0.1870   -3.2095 C   0  0  0  0  0  0  0  0  0  0  0  0
    5.7064   -0.7423   -3.7460 C   0  0  0  0  0  0  0  0  0  0  0  0
    5.6360   -1.0627   -5.1033 C   0  0  0  0  0  0  0  0  0  0  0  0
    6.7348   -0.8303   -5.9385 C   0  0  0  0  0  0  0  0  0  0  0  0
    6.6164   -1.2197   -7.6897 S   0  0  0  0  0  0  0  0  0  0  0  0
    5.8373    0.3650   -8.1675 C   0  0  0  0  0  0  0  0  0  0  0  0
    6.8824    1.4606   -8.3374 C   0  0  0  0  0  0  0  0  0  0  0  0
    7.9221   -0.3131   -5.4006 C   0  0  0  0  0  0  0  0  0  0  0  0
    9.0056   -0.1142   -6.1926 F   0  0  0  0  0  0  0  0  0  0  0  0
    7.9919    0.0097   -4.0411 C   0  0  0  0  0  0  0  0  0  0  0  0
    7.7906   -0.3720   -0.8682 C   0  0  0  0  0  0  0  0  0  0  0  0
    7.8132   -0.0246    0.4875 C   0  0  0  0  0  0  0  0  0  0  0  0
    6.9455    0.9693    0.9904 C   0  0  0  0  0  0  0  0  0  0  0  0
    6.9607    1.3682    2.4140 C   0  0  0  0  0  0  0  0  0  0  0  0
    6.5923    0.4526    3.4116 C   0  0  0  0  0  0  0  0  0  0  0  0
    6.7090    0.7976    4.7613 C   0  0  0  0  0  0  0  0  0  0  0  0
    7.1857    2.0628    5.1263 C   0  0  0  0  0  0  0  0  0  0  0  0
    7.4433    2.4610    6.8611 S   0  0  0  0  0  0  0  0  0  0  0  0
    5.7541    3.0890    7.1642 C   0  0  0  0  0  0  0  0  0  0  0  0
    4.9238    2.0331    7.8828 C   0  0  0  0  0  0  0  0  0  0  0  0
    7.5274    2.9906    4.1319 C   0  0  0  0  0  0  0  0  0  0  0  0
    7.4122    2.6447    2.7813 C   0  0  0  0  0  0  0  0  0  0  0  0
    7.9965    4.2179    4.4708 F   0  0  0  0  0  0  0  0  0  0  0  0
    6.0801    1.5790    0.0638 C   0  0  0  0  0  0  0  0  0  0  0  0
    4.8856    2.7310    0.3463 S   0  0  0  0  0  0  0  0  0  0  0  0
    8.7609   -0.7535    1.2253 C   0  0  0  0  0  0  0  0  0  0  0  0
    9.4602   -1.6784    0.4573 C   0  0  0  0  0  0  0  0  0  0  0  0
    8.9167   -1.5912   -1.1364 S   0  0  0  0  0  0  0  0  0  0  0  0
    2.4388   -2.0544   10.0568 H   0  0  0  0  0  0  0  0  0  0  0  0
    2.2963   -0.7981    7.7950 H   0  0  0  0  0  0  0  0  0  0  0  0
    3.6090   -0.8252    5.5334 H   0  0  0  0  0  0  0  0  0  0  0  0
    3.8450    1.6027    5.1997 H   0  0  0  0  0  0  0  0  0  0  0  0
    2.6227    3.0248    2.5092 H   0  0  0  0  0  0  0  0  0  0  0  0
    2.2196    4.7702    2.6233 H   0  0  0  0  0  0  0  0  0  0  0  0
    4.7182    3.3817    3.7343 H   0  0  0  0  0  0  0  0  0  0  0  0
    4.2591    5.0852    4.1405 H   0  0  0  0  0  0  0  0  0  0  0  0
    4.6285    4.6429    2.4406 H   0  0  0  0  0  0  0  0  0  0  0  0
   -0.5802   -0.5349    4.5474 H   0  0  0  0  0  0  0  0  0  0  0  0
    2.1690   -6.8610    7.3983 H   0  0  0  0  0  0  0  0  0  0  0  0
    1.4744   -9.0562    8.2800 H   0  0  0  0  0  0  0  0  0  0  0  0
   -0.1184   -9.2498   10.6062 H   0  0  0  0  0  0  0  0  0  0  0  0
   -1.0304  -10.7441   11.0057 H   0  0  0  0  0  0  0  0  0  0  0  0
   -2.2585   -8.0107   10.2806 H   0  0  0  0  0  0  0  0  0  0  0  0
   -2.2456   -8.8097   11.8927 H   0  0  0  0  0  0  0  0  0  0  0  0
   -3.2000   -9.5363   10.5423 H   0  0  0  0  0  0  0  0  0  0  0  0
   -1.9595   -5.8443    6.6916 H   0  0  0  0  0  0  0  0  0  0  0  0
   -0.6377   -6.2696    4.3206 H   0  0  0  0  0  0  0  0  0  0  0  0
   -0.7498   -7.7969    2.8282 H   0  0  0  0  0  0  0  0  0  0  0  0
   -0.9499   -9.8670    1.8431 H   0  0  0  0  0  0  0  0  0  0  0  0
   -0.3899   -9.3237    0.2375 H   0  0  0  0  0  0  0  0  0  0  0  0
   -3.1330   -8.6624    1.4760 H   0  0  0  0  0  0  0  0  0  0  0  0
   -2.7920   -9.8893    0.2004 H   0  0  0  0  0  0  0  0  0  0  0  0
   -1.9121   -8.1577   -1.3087 H   0  0  0  0  0  0  0  0  0  0  0  0
   -3.5974   -7.7402   -0.7962 H   0  0  0  0  0  0  0  0  0  0  0  0
   -2.1830   -6.9407   -3.0825 H   0  0  0  0  0  0  0  0  0  0  0  0
   -2.0775   -5.4562   -5.7028 H   0  0  0  0  0  0  0  0  0  0  0  0
   -2.2155   -7.2009   -5.3536 H   0  0  0  0  0  0  0  0  0  0  0  0
   -4.6388   -6.9229   -4.8511 H   0  0  0  0  0  0  0  0  0  0  0  0
   -4.2327   -6.2708   -6.4808 H   0  0  0  0  0  0  0  0  0  0  0  0
   -5.7115   -4.7067   -5.2333 H   0  0  0  0  0  0  0  0  0  0  0  0
   -4.0977   -3.9558   -5.5612 H   0  0  0  0  0  0  0  0  0  0  0  0
   -6.6354   -1.7631   -1.2447 H   0  0  0  0  0  0  0  0  0  0  0  0
   -4.9742    0.0745   -0.0659 H   0  0  0  0  0  0  0  0  0  0  0  0
   -5.5074   -0.0465    2.3403 H   0  0  0  0  0  0  0  0  0  0  0  0
   -9.4196   -1.0208    2.9329 H   0  0  0  0  0  0  0  0  0  0  0  0
   -7.8056   -1.7415    3.3190 H   0  0  0  0  0  0  0  0  0  0  0  0
   -8.3133   -1.6006    5.7524 H   0  0  0  0  0  0  0  0  0  0  0  0
   -9.5864   -2.5385    4.8807 H   0  0  0  0  0  0  0  0  0  0  0  0
   -9.9156   -0.8354    5.3835 H   0  0  0  0  0  0  0  0  0  0  0  0
   -8.8676    1.7581   -0.8377 H   0  0  0  0  0  0  0  0  0  0  0  0
   -3.2123    1.2015   -5.6139 H   0  0  0  0  0  0  0  0  0  0  0  0
   -2.3499    1.1322   -7.9234 H   0  0  0  0  0  0  0  0  0  0  0  0
   -3.1648    3.1449   -9.7808 H   0  0  0  0  0  0  0  0  0  0  0  0
   -2.8996    2.8998  -11.5392 H   0  0  0  0  0  0  0  0  0  0  0  0
   -5.6361    3.1102  -10.1335 H   0  0  0  0  0  0  0  0  0  0  0  0
   -5.3953    2.7276  -11.8884 H   0  0  0  0  0  0  0  0  0  0  0  0
   -4.8717    4.3237  -11.2220 H   0  0  0  0  0  0  0  0  0  0  0  0
   -7.2219    0.6655   -7.1065 H   0  0  0  0  0  0  0  0  0  0  0  0
   -4.6088    3.4850   -5.3184 H   0  0  0  0  0  0  0  0  0  0  0  0
   -2.5331    4.2719   -4.9609 H   0  0  0  0  0  0  0  0  0  0  0  0
   -0.0694    1.7342   -4.6457 H   0  0  0  0  0  0  0  0  0  0  0  0
    0.0926    0.8405   -6.9371 H   0  0  0  0  0  0  0  0  0  0  0  0
    2.4586    1.2471   -8.4683 H   0  0  0  0  0  0  0  0  0  0  0  0
    2.4397    0.9987  -10.2460 H   0  0  0  0  0  0  0  0  0  0  0  0
    2.7481    3.5007  -10.5715 H   0  0  0  0  0  0  0  0  0  0  0  0
    2.9579    3.6566   -8.7767 H   0  0  0  0  0  0  0  0  0  0  0  0
    4.1232    2.6802   -9.7413 H   0  0  0  0  0  0  0  0  0  0  0  0
    0.3217    5.7422   -6.1810 H   0  0  0  0  0  0  0  0  0  0  0  0
    1.1147    6.9967    0.2748 H   0  0  0  0  0  0  0  0  0  0  0  0
    0.8628    7.5469    2.6646 H   0  0  0  0  0  0  0  0  0  0  0  0
   -2.7288    7.5169    5.5686 H   0  0  0  0  0  0  0  0  0  0  0  0
   -2.9081    7.0362    3.8466 H   0  0  0  0  0  0  0  0  0  0  0  0
   -2.6884    9.5242    4.1525 H   0  0  0  0  0  0  0  0  0  0  0  0
   -1.3335    8.8591    3.1686 H   0  0  0  0  0  0  0  0  0  0  0  0
   -1.0653    9.2871    4.9087 H   0  0  0  0  0  0  0  0  0  0  0  0
   -1.6959    3.7589    0.7320 H   0  0  0  0  0  0  0  0  0  0  0  0
    2.3072    4.2796    0.1363 H   0  0  0  0  0  0  0  0  0  0  0  0
    4.9504    1.8168   -3.0939 H   0  0  0  0  0  0  0  0  0  0  0  0
    4.8415   -0.9102   -3.1154 H   0  0  0  0  0  0  0  0  0  0  0  0
    4.7217   -1.4770   -5.5092 H   0  0  0  0  0  0  0  0  0  0  0  0
    5.0781    0.6763   -7.4183 H   0  0  0  0  0  0  0  0  0  0  0  0
    5.3163    0.2152   -9.1367 H   0  0  0  0  0  0  0  0  0  0  0  0
    7.6764    1.1288   -9.0399 H   0  0  0  0  0  0  0  0  0  0  0  0
    7.3377    1.7171   -7.3589 H   0  0  0  0  0  0  0  0  0  0  0  0
    6.4027    2.3732   -8.7512 H   0  0  0  0  0  0  0  0  0  0  0  0
    8.9048    0.4324   -3.6398 H   0  0  0  0  0  0  0  0  0  0  0  0
    6.2405   -0.5363    3.1440 H   0  0  0  0  0  0  0  0  0  0  0  0
    6.4502    0.0733    5.5230 H   0  0  0  0  0  0  0  0  0  0  0  0
    5.8251    3.9901    7.8088 H   0  0  0  0  0  0  0  0  0  0  0  0
    5.2543    3.3910    6.2199 H   0  0  0  0  0  0  0  0  0  0  0  0
    5.3526    1.8326    8.8881 H   0  0  0  0  0  0  0  0  0  0  0  0
    4.9086    1.0862    7.3041 H   0  0  0  0  0  0  0  0  0  0  0  0
    3.8811    2.3976    8.0039 H   0  0  0  0  0  0  0  0  0  0  0  0
    7.7045    3.3600    2.0222 H   0  0  0  0  0  0  0  0  0  0  0  0
    8.9391   -0.6227    2.2838 H   0  0  0  0  0  0  0  0  0  0  0  0
   10.2289   -2.3442    0.8257 H   0  0  0  0  0  0  0  0  0  0  0  0
  1  2  2  0
  2  3  1  0
  3  4  2  0
  4  5  1  0
  5  6  2  0
  6  7  1  0
  7  8  2  0
  8  9  1  0
  9 10  1  0
 10 11  1  0
  8 12  1  0
 12 13  1  0
 12 14  2  0
  4 15  1  0
 15 16  2  0
 16 17  1  0
 17 18  1  0
 18 19  2  0
 19 20  1  0
 20 21  2  0
 21 22  1  0
 22 23  1  0
 23 24  1  0
 21 25  1  0
 25 26  2  0
 25 27  1  0
 17 28  2  0
 28 29  1  0
 16 30  1  0
 30 31  2  0
 31 32  1  0
 31 33  1  0
 33 34  1  0
 34 35  1  0
 35 36  2  0
 36 37  1  0
 37 38  1  0
 38 39  1  0
 39 40  1  0
 39 41  1  0
 39 42  1  0
 38 43  1  0
 43 44  1  0
 44 45  1  0
 35 46  1  0
 46 47  1  0
 47 48  1  0
 48 49  2  0
 49 50  1  0
 50 51  1  0
 51 52  1  0
 52 53  1  0
 52 54  1  0
 52 55  1  0
 51 56  1  0
 56 57  1  0
 57 58  1  0
 48 59  1  0
 59 60  2  0
 60 61  1  0
 61 62  2  0
 62 63  1  0
 63 64  2  0
 64 65  1  0
 65 66  2  0
 66 67  1  0
 67 68  1  0
 68 69  1  0
 66 70  1  0
 70 71  1  0
 70 72  2  0
 62 73  1  0
 73 74  2  0
 74 75  1  0
 75 76  1  0
 76 77  2  0
 77 78  1  0
 78 79  2  0
 79 80  1  0
 80 81  1  0
 81 82  1  0
 79 83  1  0
 83 84  2  0
 83 85  1  0
 75 86  2  0
 86 87  1  0
 74 88  1  0
 88 89  2  0
 89 90  1  0
 89 91  1  0
 91 92  2  0
 92 93  1  0
 93 94  2  0
 94 95  1  0
 95 96  2  0
 96 97  1  0
 97 98  2  0
 98 99  1  0
 99100  1  0
100101  1  0
 98102  1  0
102103  1  0
102104  2  0
 94105  1  0
105106  2  0
106107  1  0
107108  1  0
108109  2  0
109110  1  0
110111  2  0
111112  1  0
112113  1  0
113114  1  0
111115  1  0
115116  2  0
115117  1  0
107118  2  0
118119  1  0
106120  1  0
120121  2  0
121122  1  0
121123  1  0
123124  2  0
124125  1  0
125126  2  0
126127  1  0
127128  2  0
128129  1  0
129130  2  0
130131  1  0
131132  1  0
132133  1  0
130134  1  0
134135  1  0
134136  2  0
126137  1  0
137138  2  0
138139  1  0
139140  1  0
140141  2  0
141142  1  0
142143  2  0
143144  1  0
144145  1  0
145146  1  0
143147  1  0
147148  2  0
147149  1  0
139150  2  0
150151  1  0
138152  1  0
152153  2  0
153154  1  0
 29  1  1  0
 37 33  2  0
 50 46  2  0
 87 59  1  0
119 91  1  0
151123  1  0
 28  3  1  0
 45 36  1  0
 58 49  1  0
 86 61  1  0
118 93  1  0
150125  1  0
 14  5  1  0
 32 15  1  0
 72 63  1  0
 90 73  1  0
104 95  1  0
122105  1  0
136127  1  0
154137  1  0
 26 18  1  0
 84 76  1  0
116108  1  0
148140  1  0
  1155  1  0
  2156  1  0
  6157  1  0
  7158  1  0
 10159  1  0
 10160  1  0
 11161  1  0
 11162  1  0
 11163  1  0
 14164  1  0
 19165  1  0
 20166  1  0
 23167  1  0
 23168  1  0
 24169  1  0
 24170  1  0
 24171  1  0
 26172  1  0
 30173  1  0
 38174  1  1
 43175  1  0
 43176  1  0
 44177  1  0
 44178  1  0
 45179  1  0
 45180  1  0
 51181  1  1
 56182  1  0
 56183  1  0
 57184  1  0
 57185  1  0
 58186  1  0
 58187  1  0
 60188  1  0
 64189  1  0
 65190  1  0
 68191  1  0
 68192  1  0
 69193  1  0
 69194  1  0
 69195  1  0
 72196  1  0
 77197  1  0
 78198  1  0
 81199  1  0
 81200  1  0
 82201  1  0
 82202  1  0
 82203  1  0
 84204  1  0
 88205  1  0
 92206  1  0
 96207  1  0
 97208  1  0
100209  1  0
100210  1  0
101211  1  0
101212  1  0
101213  1  0
104214  1  0
109215  1  0
110216  1  0
113217  1  0
113218  1  0
114219  1  0
114220  1  0
114221  1  0
116222  1  0
120223  1  0
124224  1  0
128225  1  0
129226  1  0
132227  1  0
132228  1  0
133229  1  0
133230  1  0
133231  1  0
136232  1  0
141233  1  0
142234  1  0
145235  1  0
145236  1  0
146237  1  0
146238  1  0
146239  1  0
148240  1  0
152241  1  0
153242  1  0
M  END

