
     RDKit          3D

196219  0  0  0  0  0  0  0  0999 V2000
    3.8581   -4.7960    9.3592 C   0  0  0  0  0  0  0  0  0  0  0  0
    3.4365   -3.4920    9.1114 C   0  0  0  0  0  0  0  0  0  0  0  0
    2.1180   -3.4175    8.6339 C   0  0  0  0  0  0  0  0  0  0  0  0
    1.4181   -2.2460    8.2750 C   0  0  0  0  0  0  0  0  0  0  0  0
    2.0429   -0.9139    8.3528 C   0  0  0  0  0  0  0  0  0  0  0  0
    2.4909   -0.1359    9.7758 S   0  0  0  0  0  0  0  0  0  0  0  0
    3.1562    1.2213    9.0335 C   0  0  0  0  0  0  0  0  0  0  0  0
    3.7330    2.3972    9.7623 C   0  0  0  0  0  0  0  0  0  0  0  0
    2.7260    3.5396    9.8390 C   0  0  0  0  0  0  0  0  0  0  0  0
    3.0291    1.0812    7.6515 C   0  0  0  0  0  0  0  0  0  0  0  0
    3.6073    2.2783    6.4997 Cl  0  0  0  0  0  0  0  0  0  0  0  0
    2.4105   -0.1171    7.2698 C   0  0  0  0  0  0  0  0  0  0  0  0
    2.1691   -0.5890    5.5932 Cl  0  0  0  0  0  0  0  0  0  0  0  0
    0.1083   -2.4107    7.7925 C   0  0  0  0  0  0  0  0  0  0  0  0
   -0.4830   -3.6684    7.6377 C   0  0  0  0  0  0  0  0  0  0  0  0
    0.2142   -4.8378    7.9990 C   0  0  0  0  0  0  0  0  0  0  0  0
   -0.3971   -6.1714    7.8753 C   0  0  0  0  0  0  0  0  0  0  0  0
   -0.8231   -6.9105    6.4240 S   0  0  0  0  0  0  0  0  0  0  0  0
   -1.5421   -8.2651    7.1166 C   0  0  0  0  0  0  0  0  0  0  0  0
   -2.2460   -9.3402    6.3428 C   0  0  0  0  0  0  0  0  0  0  0  0
   -3.6767   -8.9226    6.0229 C   0  0  0  0  0  0  0  0  0  0  0  0
   -1.4822   -8.1410    8.5052 C   0  0  0  0  0  0  0  0  0  0  0  0
   -0.8342   -6.9697    8.9292 C   0  0  0  0  0  0  0  0  0  0  0  0
   -0.6647   -6.5144   10.6202 Cl  0  0  0  0  0  0  0  0  0  0  0  0
   -2.1961   -9.3016    9.6163 Cl  0  0  0  0  0  0  0  0  0  0  0  0
    1.5140   -4.6715    8.5023 C   0  0  0  0  0  0  0  0  0  0  0  0
    2.6056   -5.8606    8.9760 S   0  0  0  0  0  0  0  0  0  0  0  0
   -1.7831   -3.6068    7.1163 C   0  0  0  0  0  0  0  0  0  0  0  0
   -2.2162   -2.3040    6.8977 C   0  0  0  0  0  0  0  0  0  0  0  0
   -0.9880   -1.2210    7.3139 S   0  0  0  0  0  0  0  0  0  0  0  0
   -3.4660   -1.9497    6.2210 C   0  0  0  0  0  0  0  0  0  0  0  0
   -3.9150   -2.5432    4.7212 S   0  0  0  0  0  0  0  0  0  0  0  0
   -5.3599   -1.6850    4.5615 C   0  0  0  0  0  0  0  0  0  0  0  0
   -5.5304   -0.9320    5.7375 C   0  0  0  0  0  0  0  0  0  0  0  0
   -4.4532   -1.0646    6.6446 C   0  0  0  0  0  0  0  0  0  0  0  0
   -4.4502   -0.3689    7.8582 C   0  0  0  0  0  0  0  0  0  0  0  0
   -5.5380    0.4519    8.1770 C   0  0  0  0  0  0  0  0  0  0  0  0
   -6.6327    0.5485    7.3075 C   0  0  0  0  0  0  0  0  0  0  0  0
   -6.6434   -0.1471    6.0905 C   0  0  0  0  0  0  0  0  0  0  0  0
   -7.7697   -0.1258    5.3378 F   0  0  0  0  0  0  0  0  0  0  0  0
   -6.0533   -1.5649    3.2617 C   0  0  0  0  0  0  0  0  0  0  0  0
   -5.8099   -2.4158    2.1816 C   0  0  0  0  0  0  0  0  0  0  0  0
   -6.2036   -1.8801    0.9456 C   0  0  0  0  0  0  0  0  0  0  0  0
   -5.9135   -2.4268   -0.3201 C   0  0  0  0  0  0  0  0  0  0  0  0
   -5.0656   -3.6211   -0.4600 C   0  0  0  0  0  0  0  0  0  0  0  0
   -5.6048   -5.1448   -0.9221 S   0  0  0  0  0  0  0  0  0  0  0  0
   -4.1062   -5.9065   -0.7919 C   0  0  0  0  0  0  0  0  0  0  0  0
   -3.8831   -7.3776   -0.9539 C   0  0  0  0  0  0  0  0  0  0  0  0
   -4.0222   -8.0908    0.3863 C   0  0  0  0  0  0  0  0  0  0  0  0
   -3.1643   -4.9708   -0.3612 C   0  0  0  0  0  0  0  0  0  0  0  0
   -1.4793   -5.3600   -0.0461 Cl  0  0  0  0  0  0  0  0  0  0  0  0
   -3.7024   -3.6884   -0.1808 C   0  0  0  0  0  0  0  0  0  0  0  0
   -2.7517   -2.3034    0.3441 Cl  0  0  0  0  0  0  0  0  0  0  0  0
   -6.2297   -1.6401   -1.4380 C   0  0  0  0  0  0  0  0  0  0  0  0
   -6.7973   -0.3651   -1.3288 C   0  0  0  0  0  0  0  0  0  0  0  0
   -7.1239    0.1620   -0.0644 C   0  0  0  0  0  0  0  0  0  0  0  0
   -7.6650    1.5193    0.0874 C   0  0  0  0  0  0  0  0  0  0  0  0
   -9.2503    1.9541   -0.2580 S   0  0  0  0  0  0  0  0  0  0  0  0
   -9.0927    3.5717    0.1775 C   0  0  0  0  0  0  0  0  0  0  0  0
  -10.2167    4.5651    0.1863 C   0  0  0  0  0  0  0  0  0  0  0  0
  -10.9182    4.5759    1.5387 C   0  0  0  0  0  0  0  0  0  0  0  0
   -7.7865    3.7879    0.6219 C   0  0  0  0  0  0  0  0  0  0  0  0
   -6.9821    2.6390    0.5588 C   0  0  0  0  0  0  0  0  0  0  0  0
   -5.2769    2.6251    0.9888 Cl  0  0  0  0  0  0  0  0  0  0  0  0
   -7.2044    5.3417    1.2057 Cl  0  0  0  0  0  0  0  0  0  0  0  0
   -6.7961   -0.6196    1.0551 C   0  0  0  0  0  0  0  0  0  0  0  0
   -6.7856   -0.1611    2.6697 S   0  0  0  0  0  0  0  0  0  0  0  0
   -6.7708    0.3594   -2.5321 C   0  0  0  0  0  0  0  0  0  0  0  0
   -6.1502   -0.3315   -3.5783 C   0  0  0  0  0  0  0  0  0  0  0  0
   -5.6961   -1.8594   -3.0122 S   0  0  0  0  0  0  0  0  0  0  0  0
   -5.4745    0.3256   -4.7092 C   0  0  0  0  0  0  0  0  0  0  0  0
   -4.5597   -0.3266   -5.5349 C   0  0  0  0  0  0  0  0  0  0  0  0
   -3.5875    0.5285   -6.0798 C   0  0  0  0  0  0  0  0  0  0  0  0
   -2.4150    0.1072   -6.7382 C   0  0  0  0  0  0  0  0  0  0  0  0
   -2.1641   -1.3180   -7.0239 C   0  0  0  0  0  0  0  0  0  0  0  0
   -1.0000   -2.2617   -6.2574 S   0  0  0  0  0  0  0  0  0  0  0  0
   -1.4065   -3.7026   -7.0190 C   0  0  0  0  0  0  0  0  0  0  0  0
   -0.6824   -4.9999   -6.8228 C   0  0  0  0  0  0  0  0  0  0  0  0
    0.5178   -5.0903   -7.7576 C   0  0  0  0  0  0  0  0  0  0  0  0
   -2.4606   -3.4619   -7.8991 C   0  0  0  0  0  0  0  0  0  0  0  0
   -3.1808   -4.6991   -8.9180 Cl  0  0  0  0  0  0  0  0  0  0  0  0
   -2.8984   -2.1270   -7.8889 C   0  0  0  0  0  0  0  0  0  0  0  0
   -4.2183   -1.5318   -8.8867 Cl  0  0  0  0  0  0  0  0  0  0  0  0
   -1.4127    1.0704   -6.9187 C   0  0  0  0  0  0  0  0  0  0  0  0
   -1.5495    2.3981   -6.4982 C   0  0  0  0  0  0  0  0  0  0  0  0
   -2.7639    2.8469   -5.9327 C   0  0  0  0  0  0  0  0  0  0  0  0
   -2.9451    4.2478   -5.4909 C   0  0  0  0  0  0  0  0  0  0  0  0
   -3.4037    4.7357   -3.9425 S   0  0  0  0  0  0  0  0  0  0  0  0
   -3.4450    6.3847   -4.2630 C   0  0  0  0  0  0  0  0  0  0  0  0
   -3.9013    7.4303   -3.2932 C   0  0  0  0  0  0  0  0  0  0  0  0
   -5.4092    7.6362   -3.3989 C   0  0  0  0  0  0  0  0  0  0  0  0
   -3.1166    6.5793   -5.6054 C   0  0  0  0  0  0  0  0  0  0  0  0
   -2.8253    5.3856   -6.2892 C   0  0  0  0  0  0  0  0  0  0  0  0
   -2.4446    5.3369   -8.0071 Cl  0  0  0  0  0  0  0  0  0  0  0  0
   -3.1099    8.1586   -6.3787 Cl  0  0  0  0  0  0  0  0  0  0  0  0
   -3.7551    1.8688   -5.7110 C   0  0  0  0  0  0  0  0  0  0  0  0
   -5.1180    1.9786   -4.7308 S   0  0  0  0  0  0  0  0  0  0  0  0
   -0.3346    3.1098   -6.5161 C   0  0  0  0  0  0  0  0  0  0  0  0
    0.7429    2.3452   -6.9692 C   0  0  0  0  0  0  0  0  0  0  0  0
    0.1833    0.8025   -7.3567 S   0  0  0  0  0  0  0  0  0  0  0  0
    2.1639    2.6151   -6.6857 C   0  0  0  0  0  0  0  0  0  0  0  0
    3.2046    1.4219   -6.1414 S   0  0  0  0  0  0  0  0  0  0  0  0
    4.5276    2.3890   -5.7672 C   0  0  0  0  0  0  0  0  0  0  0  0
    4.1741    3.7153   -6.1019 C   0  0  0  0  0  0  0  0  0  0  0  0
    2.8452    3.8308   -6.5951 C   0  0  0  0  0  0  0  0  0  0  0  0
    2.3318    5.0748   -6.9805 C   0  0  0  0  0  0  0  0  0  0  0  0
    3.1337    6.2134   -6.8648 C   0  0  0  0  0  0  0  0  0  0  0  0
    4.4527    6.1077   -6.4031 C   0  0  0  0  0  0  0  0  0  0  0  0
    4.9873    4.8637   -6.0357 C   0  0  0  0  0  0  0  0  0  0  0  0
    6.2987    4.8012   -5.7128 F   0  0  0  0  0  0  0  0  0  0  0  0
    5.7124    1.8264   -5.0770 C   0  0  0  0  0  0  0  0  0  0  0  0
    5.9777    0.4554   -4.9984 C   0  0  0  0  0  0  0  0  0  0  0  0
    7.0355    0.1301   -4.1382 C   0  0  0  0  0  0  0  0  0  0  0  0
    7.4605   -1.1691   -3.7973 C   0  0  0  0  0  0  0  0  0  0  0  0
    6.7879   -2.3696   -4.3294 C   0  0  0  0  0  0  0  0  0  0  0  0
    6.7899   -2.8438   -5.9433 S   0  0  0  0  0  0  0  0  0  0  0  0
    5.7786   -4.1726   -5.7397 C   0  0  0  0  0  0  0  0  0  0  0  0
    5.3818   -5.1195   -6.8312 C   0  0  0  0  0  0  0  0  0  0  0  0
    6.3268   -6.3133   -6.8819 C   0  0  0  0  0  0  0  0  0  0  0  0
    5.4323   -4.2700   -4.3927 C   0  0  0  0  0  0  0  0  0  0  0  0
    4.3957   -5.5328   -3.7446 Cl  0  0  0  0  0  0  0  0  0  0  0  0
    5.9910   -3.2536   -3.6033 C   0  0  0  0  0  0  0  0  0  0  0  0
    5.6720   -3.0807   -1.8829 Cl  0  0  0  0  0  0  0  0  0  0  0  0
    8.5080   -1.2709   -2.8670 C   0  0  0  0  0  0  0  0  0  0  0  0
    9.1118   -0.1507   -2.2865 C   0  0  0  0  0  0  0  0  0  0  0  0
    8.6697    1.1493   -2.6104 C   0  0  0  0  0  0  0  0  0  0  0  0
    9.2457    2.3489   -1.9743 C   0  0  0  0  0  0  0  0  0  0  0  0
    9.1995    2.6718   -0.3243 S   0  0  0  0  0  0  0  0  0  0  0  0
   10.0041    4.1453   -0.4041 C   0  0  0  0  0  0  0  0  0  0  0  0
   10.2490    5.0420    0.7702 C   0  0  0  0  0  0  0  0  0  0  0  0
    9.0873    6.0093    0.9607 C   0  0  0  0  0  0  0  0  0  0  0  0
   10.2949    4.4228   -1.7388 C   0  0  0  0  0  0  0  0  0  0  0  0
    9.8806    3.4106   -2.6201 C   0  0  0  0  0  0  0  0  0  0  0  0
   10.1783    3.4608   -4.3538 Cl  0  0  0  0  0  0  0  0  0  0  0  0
   11.0960    5.8933   -2.2711 Cl  0  0  0  0  0  0  0  0  0  0  0  0
    7.6188    1.2499   -3.5408 C   0  0  0  0  0  0  0  0  0  0  0  0
    6.7806    2.6239   -4.0365 S   0  0  0  0  0  0  0  0  0  0  0  0
   10.1546   -0.4863   -1.4066 C   0  0  0  0  0  0  0  0  0  0  0  0
   10.3561   -1.8593   -1.2917 C   0  0  0  0  0  0  0  0  0  0  0  0
    9.2550   -2.6601   -2.2876 S   0  0  0  0  0  0  0  0  0  0  0  0
    4.8367   -5.0762    9.7272 H   0  0  0  0  0  0  0  0  0  0  0  0
    4.0728   -2.6326    9.2694 H   0  0  0  0  0  0  0  0  0  0  0  0
    4.6527    2.7432    9.2461 H   0  0  0  0  0  0  0  0  0  0  0  0
    4.0204    2.0949   10.7912 H   0  0  0  0  0  0  0  0  0  0  0  0
    3.1882    4.4099   10.3509 H   0  0  0  0  0  0  0  0  0  0  0  0
    2.4198    3.8546    8.8201 H   0  0  0  0  0  0  0  0  0  0  0  0
    1.8245    3.2230   10.4090 H   0  0  0  0  0  0  0  0  0  0  0  0
   -1.7005   -9.5284    5.3943 H   0  0  0  0  0  0  0  0  0  0  0  0
   -2.2578  -10.2847    6.9254 H   0  0  0  0  0  0  0  0  0  0  0  0
   -3.6786   -8.0127    5.3865 H   0  0  0  0  0  0  0  0  0  0  0  0
   -4.1914   -9.7397    5.4733 H   0  0  0  0  0  0  0  0  0  0  0  0
   -4.2386   -8.7151    6.9589 H   0  0  0  0  0  0  0  0  0  0  0  0
   -2.3930   -4.4752    6.9009 H   0  0  0  0  0  0  0  0  0  0  0  0
   -3.6304   -0.4660    8.5570 H   0  0  0  0  0  0  0  0  0  0  0  0
   -5.5477    0.9900    9.1169 H   0  0  0  0  0  0  0  0  0  0  0  0
   -7.4872    1.1533    7.5893 H   0  0  0  0  0  0  0  0  0  0  0  0
   -5.2650   -3.3473    2.2782 H   0  0  0  0  0  0  0  0  0  0  0  0
   -4.6254   -7.7911   -1.6696 H   0  0  0  0  0  0  0  0  0  0  0  0
   -2.8685   -7.5622   -1.3682 H   0  0  0  0  0  0  0  0  0  0  0  0
   -3.8503   -9.1799    0.2502 H   0  0  0  0  0  0  0  0  0  0  0  0
   -5.0425   -7.9421    0.7990 H   0  0  0  0  0  0  0  0  0  0  0  0
   -3.2767   -7.7024    1.1127 H   0  0  0  0  0  0  0  0  0  0  0  0
  -10.9508    4.2957   -0.6025 H   0  0  0  0  0  0  0  0  0  0  0  0
   -9.8289    5.5814   -0.0396 H   0  0  0  0  0  0  0  0  0  0  0  0
  -10.2056    4.8527    2.3433 H   0  0  0  0  0  0  0  0  0  0  0  0
  -11.7435    5.3172    1.5242 H   0  0  0  0  0  0  0  0  0  0  0  0
  -11.3459    3.5740    1.7605 H   0  0  0  0  0  0  0  0  0  0  0  0
   -7.0458    1.4045   -2.5985 H   0  0  0  0  0  0  0  0  0  0  0  0
   -4.5058   -1.4048   -5.6062 H   0  0  0  0  0  0  0  0  0  0  0  0
   -0.3348   -5.0681   -5.7700 H   0  0  0  0  0  0  0  0  0  0  0  0
   -1.3664   -5.8545   -7.0114 H   0  0  0  0  0  0  0  0  0  0  0  0
    1.2333   -4.2635   -7.5543 H   0  0  0  0  0  0  0  0  0  0  0  0
    0.1871   -5.0353   -8.8166 H   0  0  0  0  0  0  0  0  0  0  0  0
    1.0394   -6.0594   -7.6022 H   0  0  0  0  0  0  0  0  0  0  0  0
   -3.6468    7.1102   -2.2596 H   0  0  0  0  0  0  0  0  0  0  0  0
   -3.3814    8.3906   -3.4955 H   0  0  0  0  0  0  0  0  0  0  0  0
   -5.7305    8.4179   -2.6770 H   0  0  0  0  0  0  0  0  0  0  0  0
   -5.9462    6.6938   -3.1640 H   0  0  0  0  0  0  0  0  0  0  0  0
   -5.6868    7.9671   -4.4226 H   0  0  0  0  0  0  0  0  0  0  0  0
   -0.2223    4.0916   -6.0733 H   0  0  0  0  0  0  0  0  0  0  0  0
    1.3380    5.1691   -7.3959 H   0  0  0  0  0  0  0  0  0  0  0  0
    2.7430    7.1774   -7.1604 H   0  0  0  0  0  0  0  0  0  0  0  0
    5.0686    6.9945   -6.3527 H   0  0  0  0  0  0  0  0  0  0  0  0
    5.3882   -0.2888   -5.5183 H   0  0  0  0  0  0  0  0  0  0  0  0
    4.3430   -5.4762   -6.6675 H   0  0  0  0  0  0  0  0  0  0  0  0
    5.4071   -4.5920   -7.8083 H   0  0  0  0  0  0  0  0  0  0  0  0
    6.0239   -6.9909   -7.7109 H   0  0  0  0  0  0  0  0  0  0  0  0
    7.3725   -5.9756   -7.0625 H   0  0  0  0  0  0  0  0  0  0  0  0
    6.2899   -6.8814   -5.9264 H   0  0  0  0  0  0  0  0  0  0  0  0
   10.3651    4.4227    1.6854 H   0  0  0  0  0  0  0  0  0  0  0  0
   11.1912    5.6118    0.6263 H   0  0  0  0  0  0  0  0  0  0  0  0
    8.9561    6.6421    0.0562 H   0  0  0  0  0  0  0  0  0  0  0  0
    9.2876    6.6675    1.8324 H   0  0  0  0  0  0  0  0  0  0  0  0
    8.1485    5.4440    1.1519 H   0  0  0  0  0  0  0  0  0  0  0  0
   10.7525    0.2393   -0.8713 H   0  0  0  0  0  0  0  0  0  0  0  0
   11.1072   -2.3303   -0.6737 H   0  0  0  0  0  0  0  0  0  0  0  0
  1  2  2  0
  2  3  1  0
  3  4  2  0
  4  5  1  0
  5  6  1  0
  6  7  1  0
  7  8  1  0
  8  9  1  0
  7 10  2  0
 10 11  1  0
 10 12  1  0
 12 13  1  0
  4 14  1  0
 14 15  2  0
 15 16  1  0
 16 17  1  0
 17 18  1  0
 18 19  1  0
 19 20  1  0
 20 21  1  0
 19 22  2  0
 22 23  1  0
 23 24  1  0
 22 25  1  0
 16 26  2  0
 26 27  1  0
 15 28  1  0
 28 29  2  0
 29 30  1  0
 29 31  1  0
 31 32  1  0
 32 33  1  0
 33 34  2  0
 34 35  1  0
 35 36  1  0
 36 37  2  0
 37 38  1  0
 38 39  2  0
 39 40  1  0
 33 41  1  0
 41 42  2  0
 42 43  1  0
 43 44  2  0
 44 45  1  0
 45 46  1  0
 46 47  1  0
 47 48  1  0
 48 49  1  0
 47 50  2  0
 50 51  1  0
 50 52  1  0
 52 53  1  0
 44 54  1  0
 54 55  2  0
 55 56  1  0
 56 57  1  0
 57 58  1  0
 58 59  1  0
 59 60  1  0
 60 61  1  0
 59 62  2  0
 62 63  1  0
 63 64  1  0
 62 65  1  0
 56 66  2  0
 66 67  1  0
 55 68  1  0
 68 69  2  0
 69 70  1  0
 69 71  1  0
 71 72  2  0
 72 73  1  0
 73 74  2  0
 74 75  1  0
 75 76  1  0
 76 77  1  0
 77 78  1  0
 78 79  1  0
 77 80  2  0
 80 81  1  0
 80 82  1  0
 82 83  1  0
 74 84  1  0
 84 85  2  0
 85 86  1  0
 86 87  1  0
 87 88  1  0
 88 89  1  0
 89 90  1  0
 90 91  1  0
 89 92  2  0
 92 93  1  0
 93 94  1  0
 92 95  1  0
 86 96  2  0
 96 97  1  0
 85 98  1  0
 98 99  2  0
 99100  1  0
 99101  1  0
101102  1  0
102103  1  0
103104  2  0
104105  1  0
105106  1  0
106107  2  0
107108  1  0
108109  2  0
109110  1  0
103111  1  0
111112  2  0
112113  1  0
113114  2  0
114115  1  0
115116  1  0
116117  1  0
117118  1  0
118119  1  0
117120  2  0
120121  1  0
120122  1  0
122123  1  0
114124  1  0
124125  2  0
125126  1  0
126127  1  0
127128  1  0
128129  1  0
129130  1  0
130131  1  0
129132  2  0
132133  1  0
133134  1  0
132135  1  0
126136  2  0
136137  1  0
125138  1  0
138139  2  0
139140  1  0
 27  1  1  0
 35 31  2  0
 67 41  1  0
 97 71  1  0
105101  2  0
137111  1  0
 26  3  1  0
 39 34  1  0
 66 43  1  0
 96 73  1  0
109104  1  0
136113  1  0
 12  5  2  0
 30 14  1  0
 52 45  2  0
 70 54  1  0
 82 75  2  0
100 84  1  0
122115  2  0
140124  1  0
 23 17  2  0
 63 57  2  0
 93 87  2  0
133127  2  0
  1141  1  0
  2142  1  0
  8143  1  0
  8144  1  0
  9145  1  0
  9146  1  0
  9147  1  0
 20148  1  0
 20149  1  0
 21150  1  0
 21151  1  0
 21152  1  0
 28153  1  0
 36154  1  0
 37155  1  0
 38156  1  0
 42157  1  0
 48158  1  0
 48159  1  0
 49160  1  0
 49161  1  0
 49162  1  0
 60163  1  0
 60164  1  0
 61165  1  0
 61166  1  0
 61167  1  0
 68168  1  0
 72169  1  0
 78170  1  0
 78171  1  0
 79172  1  0
 79173  1  0
 79174  1  0
 90175  1  0
 90176  1  0
 91177  1  0
 91178  1  0
 91179  1  0
 98180  1  0
106181  1  0
107182  1  0
108183  1  0
112184  1  0
118185  1  0
118186  1  0
119187  1  0
119188  1  0
119189  1  0
130190  1  0
130191  1  0
131192  1  0
131193  1  0
131194  1  0
138195  1  0
139196  1  0
M  END

