
     RDKit          3D

196219  0  0  0  0  0  0  0  0999 V2000
   -4.0409    5.8063  -11.0927 C   0  0  0  0  0  0  0  0  0  0  0  0
   -4.6478    5.2911   -9.9510 C   0  0  0  0  0  0  0  0  0  0  0  0
   -4.2915    3.9570   -9.6896 C   0  0  0  0  0  0  0  0  0  0  0  0
   -4.7037    3.1821   -8.5870 C   0  0  0  0  0  0  0  0  0  0  0  0
   -5.6572    3.6883   -7.5838 C   0  0  0  0  0  0  0  0  0  0  0  0
   -5.3223    3.8697   -5.9436 S   0  0  0  0  0  0  0  0  0  0  0  0
   -6.8602    4.3909   -5.5039 C   0  0  0  0  0  0  0  0  0  0  0  0
   -7.2898    4.6784   -4.0976 C   0  0  0  0  0  0  0  0  0  0  0  0
   -7.7855    3.4090   -3.4163 C   0  0  0  0  0  0  0  0  0  0  0  0
   -7.6710    4.4029   -6.6384 C   0  0  0  0  0  0  0  0  0  0  0  0
   -9.3775    4.8240   -6.6090 Cl  0  0  0  0  0  0  0  0  0  0  0  0
   -6.9937    4.0162   -7.8061 C   0  0  0  0  0  0  0  0  0  0  0  0
   -7.7773    3.8867   -9.3779 Cl  0  0  0  0  0  0  0  0  0  0  0  0
   -4.1662    1.8887   -8.4863 C   0  0  0  0  0  0  0  0  0  0  0  0
   -3.2915    1.3532   -9.4351 C   0  0  0  0  0  0  0  0  0  0  0  0
   -2.8699    2.1324  -10.5345 C   0  0  0  0  0  0  0  0  0  0  0  0
   -1.8618    1.6482  -11.4941 C   0  0  0  0  0  0  0  0  0  0  0  0
   -2.1035    1.4937  -13.1534 S   0  0  0  0  0  0  0  0  0  0  0  0
   -0.5429    0.9761  -13.5150 C   0  0  0  0  0  0  0  0  0  0  0  0
   -0.0787    0.5648  -14.8792 C   0  0  0  0  0  0  0  0  0  0  0  0
   -0.3367   -0.9185  -15.1068 C   0  0  0  0  0  0  0  0  0  0  0  0
    0.1876    0.9009  -12.3314 C   0  0  0  0  0  0  0  0  0  0  0  0
   -0.5459    1.2890  -11.2002 C   0  0  0  0  0  0  0  0  0  0  0  0
    0.1490    1.3670   -9.5845 Cl  0  0  0  0  0  0  0  0  0  0  0  0
    1.8669    0.3766  -12.2594 Cl  0  0  0  0  0  0  0  0  0  0  0  0
   -3.3997    3.4325  -10.6311 C   0  0  0  0  0  0  0  0  0  0  0  0
   -3.0568    4.6197  -11.7735 S   0  0  0  0  0  0  0  0  0  0  0  0
   -2.9341    0.0170   -9.1685 C   0  0  0  0  0  0  0  0  0  0  0  0
   -3.4702   -0.4680   -7.9699 C   0  0  0  0  0  0  0  0  0  0  0  0
   -4.4504    0.7365   -7.3029 S   0  0  0  0  0  0  0  0  0  0  0  0
   -3.2979   -1.7995   -7.3407 C   0  0  0  0  0  0  0  0  0  0  0  0
   -4.3021   -2.3303   -6.0996 S   0  0  0  0  0  0  0  0  0  0  0  0
   -3.5274   -3.7748   -5.7398 C   0  0  0  0  0  0  0  0  0  0  0  0
   -2.4463   -3.8870   -6.6245 C   0  0  0  0  0  0  0  0  0  0  0  0
   -2.2888   -2.7696   -7.4875 C   0  0  0  0  0  0  0  0  0  0  0  0
   -1.1569   -2.6893   -8.3157 C   0  0  0  0  0  0  0  0  0  0  0  0
   -0.2542   -3.7604   -8.3579 C   0  0  0  0  0  0  0  0  0  0  0  0
   -0.4642   -4.9011   -7.5748 C   0  0  0  0  0  0  0  0  0  0  0  0
   -1.5538   -4.9701   -6.6979 C   0  0  0  0  0  0  0  0  0  0  0  0
   -1.7607   -6.1100   -5.9910 F   0  0  0  0  0  0  0  0  0  0  0  0
   -3.7075   -4.4448   -4.4372 C   0  0  0  0  0  0  0  0  0  0  0  0
   -2.6550   -4.7884   -3.5855 C   0  0  0  0  0  0  0  0  0  0  0  0
   -3.0385   -4.9175   -2.2405 C   0  0  0  0  0  0  0  0  0  0  0  0
   -2.1597   -5.0668   -1.1483 C   0  0  0  0  0  0  0  0  0  0  0  0
   -0.7093   -5.2713   -1.3440 C   0  0  0  0  0  0  0  0  0  0  0  0
    0.4904   -4.2031   -0.8382 S   0  0  0  0  0  0  0  0  0  0  0  0
    1.7873   -5.0697   -1.4667 C   0  0  0  0  0  0  0  0  0  0  0  0
    3.2271   -4.6855   -1.2997 C   0  0  0  0  0  0  0  0  0  0  0  0
    3.8095   -5.3201   -0.0435 C   0  0  0  0  0  0  0  0  0  0  0  0
    1.2970   -6.2222   -2.0767 C   0  0  0  0  0  0  0  0  0  0  0  0
    2.3270   -7.4294   -2.8360 Cl  0  0  0  0  0  0  0  0  0  0  0  0
   -0.1018   -6.3311   -2.0167 C   0  0  0  0  0  0  0  0  0  0  0  0
   -0.9917   -7.6932   -2.6851 Cl  0  0  0  0  0  0  0  0  0  0  0  0
   -2.7012   -4.8431    0.1305 C   0  0  0  0  0  0  0  0  0  0  0  0
   -4.0416   -4.4989    0.3356 C   0  0  0  0  0  0  0  0  0  0  0  0
   -4.9391   -4.4603   -0.7518 C   0  0  0  0  0  0  0  0  0  0  0  0
   -6.3610   -4.1173   -0.5807 C   0  0  0  0  0  0  0  0  0  0  0  0
   -6.9461   -2.5956   -0.1684 S   0  0  0  0  0  0  0  0  0  0  0  0
   -8.5766   -3.0160   -0.2132 C   0  0  0  0  0  0  0  0  0  0  0  0
   -9.7078   -2.0572   -0.0063 C   0  0  0  0  0  0  0  0  0  0  0  0
  -10.2985   -1.6148   -1.3422 C   0  0  0  0  0  0  0  0  0  0  0  0
   -8.6818   -4.3588   -0.5749 C   0  0  0  0  0  0  0  0  0  0  0  0
   -7.4371   -4.9739   -0.7868 C   0  0  0  0  0  0  0  0  0  0  0  0
   -7.2539   -6.6594   -1.2614 Cl  0  0  0  0  0  0  0  0  0  0  0  0
  -10.2135   -5.2008   -0.7613 Cl  0  0  0  0  0  0  0  0  0  0  0  0
   -4.3967   -4.6625   -2.0324 C   0  0  0  0  0  0  0  0  0  0  0  0
   -5.1123   -4.2976   -3.5093 S   0  0  0  0  0  0  0  0  0  0  0  0
   -4.3089   -4.0799    1.6513 C   0  0  0  0  0  0  0  0  0  0  0  0
   -3.1842   -4.1097    2.4757 C   0  0  0  0  0  0  0  0  0  0  0  0
   -1.8716   -4.6714    1.5791 S   0  0  0  0  0  0  0  0  0  0  0  0
   -2.9780   -3.2216    3.6211 C   0  0  0  0  0  0  0  0  0  0  0  0
   -2.1199   -3.5186    4.6787 C   0  0  0  0  0  0  0  0  0  0  0  0
   -1.5584   -2.3769    5.2753 C   0  0  0  0  0  0  0  0  0  0  0  0
   -0.5617   -2.3634    6.2712 C   0  0  0  0  0  0  0  0  0  0  0  0
   -0.0595   -3.6002    6.8881 C   0  0  0  0  0  0  0  0  0  0  0  0
   -0.3273   -4.0431    8.4873 S   0  0  0  0  0  0  0  0  0  0  0  0
    0.5288   -5.4899    8.4136 C   0  0  0  0  0  0  0  0  0  0  0  0
    0.6338   -6.4711    9.5407 C   0  0  0  0  0  0  0  0  0  0  0  0
   -0.4657   -7.5225    9.4446 C   0  0  0  0  0  0  0  0  0  0  0  0
    1.0310   -5.6495    7.1225 C   0  0  0  0  0  0  0  0  0  0  0  0
    1.9668   -7.0478    6.6118 Cl  0  0  0  0  0  0  0  0  0  0  0  0
    0.7098   -4.5830    6.2685 C   0  0  0  0  0  0  0  0  0  0  0  0
    1.2460   -4.4872    4.5946 Cl  0  0  0  0  0  0  0  0  0  0  0  0
    0.0222   -1.1223    6.5713 C   0  0  0  0  0  0  0  0  0  0  0  0
   -0.3458    0.0591    5.9189 C   0  0  0  0  0  0  0  0  0  0  0  0
   -1.3897    0.0576    4.9732 C   0  0  0  0  0  0  0  0  0  0  0  0
   -1.7601    1.2767    4.2330 C   0  0  0  0  0  0  0  0  0  0  0  0
   -2.6005    2.5761    4.8929 S   0  0  0  0  0  0  0  0  0  0  0  0
   -2.6153    3.5082    3.4907 C   0  0  0  0  0  0  0  0  0  0  0  0
   -3.3105    4.8293    3.3492 C   0  0  0  0  0  0  0  0  0  0  0  0
   -4.7138    4.6442    2.7834 C   0  0  0  0  0  0  0  0  0  0  0  0
   -1.9674    2.8015    2.4778 C   0  0  0  0  0  0  0  0  0  0  0  0
   -1.4786    1.5537    2.8965 C   0  0  0  0  0  0  0  0  0  0  0  0
   -0.5708    0.4686    1.8481 Cl  0  0  0  0  0  0  0  0  0  0  0  0
   -1.7936    3.3993    0.8334 Cl  0  0  0  0  0  0  0  0  0  0  0  0
   -1.9776   -1.1836    4.6784 C   0  0  0  0  0  0  0  0  0  0  0  0
   -3.0530   -1.5437    3.4414 S   0  0  0  0  0  0  0  0  0  0  0  0
    0.5295    1.1262    6.1766 C   0  0  0  0  0  0  0  0  0  0  0  0
    1.5741    0.7781    7.0336 C   0  0  0  0  0  0  0  0  0  0  0  0
    1.4076   -0.8406    7.4799 S   0  0  0  0  0  0  0  0  0  0  0  0
    2.8363    1.5140    7.1499 C   0  0  0  0  0  0  0  0  0  0  0  0
    3.7964    1.3092    8.1392 C   0  0  0  0  0  0  0  0  0  0  0  0
    5.0518    1.8423    7.8033 C   0  0  0  0  0  0  0  0  0  0  0  0
    6.2433    1.7057    8.5449 C   0  0  0  0  0  0  0  0  0  0  0  0
    6.2722    1.0518    9.8628 C   0  0  0  0  0  0  0  0  0  0  0  0
    6.5557    1.8456   11.3176 S   0  0  0  0  0  0  0  0  0  0  0  0
    6.4243    0.4811   12.2927 C   0  0  0  0  0  0  0  0  0  0  0  0
    6.6262    0.4771   13.7791 C   0  0  0  0  0  0  0  0  0  0  0  0
    8.1088    0.3965   14.1193 C   0  0  0  0  0  0  0  0  0  0  0  0
    6.1862   -0.6285   11.4804 C   0  0  0  0  0  0  0  0  0  0  0  0
    6.0378   -2.2696   12.0940 Cl  0  0  0  0  0  0  0  0  0  0  0  0
    6.0916   -0.3052   10.1177 C   0  0  0  0  0  0  0  0  0  0  0  0
    5.8104   -1.5001    8.8557 Cl  0  0  0  0  0  0  0  0  0  0  0  0
    7.4232    2.1850    7.9495 C   0  0  0  0  0  0  0  0  0  0  0  0
    7.4392    2.7648    6.6770 C   0  0  0  0  0  0  0  0  0  0  0  0
    6.2447    2.9295    5.9484 C   0  0  0  0  0  0  0  0  0  0  0  0
    6.2495    3.4019    4.5551 C   0  0  0  0  0  0  0  0  0  0  0  0
    6.9105    2.5452    3.2664 S   0  0  0  0  0  0  0  0  0  0  0  0
    6.4355    3.6284    2.0701 C   0  0  0  0  0  0  0  0  0  0  0  0
    6.7385    3.4678    0.6115 C   0  0  0  0  0  0  0  0  0  0  0  0
    8.1180    4.0223    0.2788 C   0  0  0  0  0  0  0  0  0  0  0  0
    5.7628    4.6918    2.6725 C   0  0  0  0  0  0  0  0  0  0  0  0
    5.6436    4.5553    4.0661 C   0  0  0  0  0  0  0  0  0  0  0  0
    4.8356    5.7312    5.0947 Cl  0  0  0  0  0  0  0  0  0  0  0  0
    5.1131    6.0642    1.7857 Cl  0  0  0  0  0  0  0  0  0  0  0  0
    5.0645    2.4676    6.5517 C   0  0  0  0  0  0  0  0  0  0  0  0
    3.5339    2.3577    5.8662 S   0  0  0  0  0  0  0  0  0  0  0  0
    8.7299    3.0857    6.2328 C   0  0  0  0  0  0  0  0  0  0  0  0
    9.7231    2.7158    7.1368 C   0  0  0  0  0  0  0  0  0  0  0  0
    9.0052    2.0488    8.5131 S   0  0  0  0  0  0  0  0  0  0  0  0
   11.1730    2.8453    6.9247 C   0  0  0  0  0  0  0  0  0  0  0  0
   12.2789    3.2577    8.1283 S   0  0  0  0  0  0  0  0  0  0  0  0
   13.6610    3.2376    7.1672 C   0  0  0  0  0  0  0  0  0  0  0  0
   13.2710    2.8855    5.8801 C   0  0  0  0  0  0  0  0  0  0  0  0
   11.8894    2.6543    5.7383 C   0  0  0  0  0  0  0  0  0  0  0  0
   11.3742    2.2158    4.5093 C   0  0  0  0  0  0  0  0  0  0  0  0
   12.2406    2.0620    3.4192 C   0  0  0  0  0  0  0  0  0  0  0  0
   13.6125    2.3253    3.5571 C   0  0  0  0  0  0  0  0  0  0  0  0
   14.1373    2.7294    4.7924 C   0  0  0  0  0  0  0  0  0  0  0  0
   15.4706    2.9480    4.9253 F   0  0  0  0  0  0  0  0  0  0  0  0
   -4.1676    6.8133  -11.4693 H   0  0  0  0  0  0  0  0  0  0  0  0
   -5.3099    5.8753   -9.3278 H   0  0  0  0  0  0  0  0  0  0  0  0
   -8.0959    5.4423   -4.0966 H   0  0  0  0  0  0  0  0  0  0  0  0
   -6.4305    5.0914   -3.5266 H   0  0  0  0  0  0  0  0  0  0  0  0
   -8.6452    2.9820   -3.9756 H   0  0  0  0  0  0  0  0  0  0  0  0
   -8.1143    3.6486   -2.3842 H   0  0  0  0  0  0  0  0  0  0  0  0
   -6.9699    2.6559   -3.3661 H   0  0  0  0  0  0  0  0  0  0  0  0
   -0.6186    1.1565  -15.6485 H   0  0  0  0  0  0  0  0  0  0  0  0
    1.0060    0.7744  -14.9892 H   0  0  0  0  0  0  0  0  0  0  0  0
    0.2071   -1.5245  -14.3514 H   0  0  0  0  0  0  0  0  0  0  0  0
   -1.4235   -1.1355  -15.0347 H   0  0  0  0  0  0  0  0  0  0  0  0
    0.0200   -1.2059  -16.1192 H   0  0  0  0  0  0  0  0  0  0  0  0
   -2.3511   -0.5708   -9.8588 H   0  0  0  0  0  0  0  0  0  0  0  0
   -0.9294   -1.8138   -8.8976 H   0  0  0  0  0  0  0  0  0  0  0  0
    0.6133   -3.7058   -9.0039 H   0  0  0  0  0  0  0  0  0  0  0  0
    0.2277   -5.7335   -7.6405 H   0  0  0  0  0  0  0  0  0  0  0  0
   -1.6181   -4.7793   -3.8953 H   0  0  0  0  0  0  0  0  0  0  0  0
    3.8097   -5.0056   -2.1883 H   0  0  0  0  0  0  0  0  0  0  0  0
    3.3063   -3.5807   -1.2226 H   0  0  0  0  0  0  0  0  0  0  0  0
    4.8710   -5.0134    0.0702 H   0  0  0  0  0  0  0  0  0  0  0  0
    3.2443   -4.9870    0.8527 H   0  0  0  0  0  0  0  0  0  0  0  0
    3.7642   -6.4279   -0.1148 H   0  0  0  0  0  0  0  0  0  0  0  0
  -10.4981   -2.5363    0.6118 H   0  0  0  0  0  0  0  0  0  0  0  0
   -9.3389   -1.1636    0.5406 H   0  0  0  0  0  0  0  0  0  0  0  0
   -9.5029   -1.2051   -2.0012 H   0  0  0  0  0  0  0  0  0  0  0  0
  -11.0606   -0.8265   -1.1710 H   0  0  0  0  0  0  0  0  0  0  0  0
  -10.7854   -2.4720   -1.8529 H   0  0  0  0  0  0  0  0  0  0  0  0
   -5.2523   -3.6524    1.9652 H   0  0  0  0  0  0  0  0  0  0  0  0
   -1.8223   -4.5305    4.9226 H   0  0  0  0  0  0  0  0  0  0  0  0
    1.6276   -6.9660    9.5207 H   0  0  0  0  0  0  0  0  0  0  0  0
    0.5405   -5.9321   10.5077 H   0  0  0  0  0  0  0  0  0  0  0  0
   -0.3630   -8.1060    8.5047 H   0  0  0  0  0  0  0  0  0  0  0  0
   -0.3883   -8.2187   10.3078 H   0  0  0  0  0  0  0  0  0  0  0  0
   -1.4650   -7.0388    9.4678 H   0  0  0  0  0  0  0  0  0  0  0  0
   -3.3758    5.3217    4.3415 H   0  0  0  0  0  0  0  0  0  0  0  0
   -2.7242    5.4927    2.6795 H   0  0  0  0  0  0  0  0  0  0  0  0
   -4.6716    4.1133    1.8094 H   0  0  0  0  0  0  0  0  0  0  0  0
   -5.1858    5.6357    2.6246 H   0  0  0  0  0  0  0  0  0  0  0  0
   -5.3406    4.0611    3.4908 H   0  0  0  0  0  0  0  0  0  0  0  0
    0.4699    2.0853    5.6794 H   0  0  0  0  0  0  0  0  0  0  0  0
    3.6065    0.7269    9.0307 H   0  0  0  0  0  0  0  0  0  0  0  0
    6.0934   -0.3815   14.2374 H   0  0  0  0  0  0  0  0  0  0  0  0
    6.2024    1.4107   14.2086 H   0  0  0  0  0  0  0  0  0  0  0  0
    8.2362    0.3868   15.2213 H   0  0  0  0  0  0  0  0  0  0  0  0
    8.5496   -0.5353   13.7032 H   0  0  0  0  0  0  0  0  0  0  0  0
    8.6466    1.2791   13.7106 H   0  0  0  0  0  0  0  0  0  0  0  0
    5.9708    3.9867   -0.0006 H   0  0  0  0  0  0  0  0  0  0  0  0
    6.7038    2.3892    0.3501 H   0  0  0  0  0  0  0  0  0  0  0  0
    8.3232    3.8765   -0.8011 H   0  0  0  0  0  0  0  0  0  0  0  0
    8.8990    3.4907    0.8631 H   0  0  0  0  0  0  0  0  0  0  0  0
    8.1637    5.1085    0.5074 H   0  0  0  0  0  0  0  0  0  0  0  0
    8.9325    3.5739    5.2872 H   0  0  0  0  0  0  0  0  0  0  0  0
   14.6695    3.4453    7.4978 H   0  0  0  0  0  0  0  0  0  0  0  0
   10.3305    1.9642    4.3874 H   0  0  0  0  0  0  0  0  0  0  0  0
   11.8511    1.7239    2.4667 H   0  0  0  0  0  0  0  0  0  0  0  0
   14.2718    2.1972    2.7083 H   0  0  0  0  0  0  0  0  0  0  0  0
  1  2  2  0
  2  3  1  0
  3  4  2  0
  4  5  1  0
  5  6  1  0
  6  7  1  0
  7  8  1  0
  8  9  1  0
  7 10  2  0
 10 11  1  0
 10 12  1  0
 12 13  1  0
  4 14  1  0
 14 15  2  0
 15 16  1  0
 16 17  1  0
 17 18  1  0
 18 19  1  0
 19 20  1  0
 20 21  1  0
 19 22  2  0
 22 23  1  0
 23 24  1  0
 22 25  1  0
 16 26  2  0
 26 27  1  0
 15 28  1  0
 28 29  2  0
 29 30  1  0
 29 31  1  0
 31 32  1  0
 32 33  1  0
 33 34  2  0
 34 35  1  0
 35 36  1  0
 36 37  2  0
 37 38  1  0
 38 39  2  0
 39 40  1  0
 33 41  1  0
 41 42  2  0
 42 43  1  0
 43 44  2  0
 44 45  1  0
 45 46  1  0
 46 47  1  0
 47 48  1  0
 48 49  1  0
 47 50  2  0
 50 51  1  0
 50 52  1  0
 52 53  1  0
 44 54  1  0
 54 55  2  0
 55 56  1  0
 56 57  1  0
 57 58  1  0
 58 59  1  0
 59 60  1  0
 60 61  1  0
 59 62  2  0
 62 63  1  0
 63 64  1  0
 62 65  1  0
 56 66  2  0
 66 67  1  0
 55 68  1  0
 68 69  2  0
 69 70  1  0
 69 71  1  0
 71 72  2  0
 72 73  1  0
 73 74  2  0
 74 75  1  0
 75 76  1  0
 76 77  1  0
 77 78  1  0
 78 79  1  0
 77 80  2  0
 80 81  1  0
 80 82  1  0
 82 83  1  0
 74 84  1  0
 84 85  2  0
 85 86  1  0
 86 87  1  0
 87 88  1  0
 88 89  1  0
 89 90  1  0
 90 91  1  0
 89 92  2  0
 92 93  1  0
 93 94  1  0
 92 95  1  0
 86 96  2  0
 96 97  1  0
 85 98  1  0
 98 99  2  0
 99100  1  0
 99101  1  0
101102  2  0
102103  1  0
103104  2  0
104105  1  0
105106  1  0
106107  1  0
107108  1  0
108109  1  0
107110  2  0
110111  1  0
110112  1  0
112113  1  0
104114  1  0
114115  2  0
115116  1  0
116117  1  0
117118  1  0
118119  1  0
119120  1  0
120121  1  0
119122  2  0
122123  1  0
123124  1  0
122125  1  0
116126  2  0
126127  1  0
115128  1  0
128129  2  0
129130  1  0
129131  1  0
131132  1  0
132133  1  0
133134  2  0
134135  1  0
135136  1  0
136137  2  0
137138  1  0
138139  2  0
139140  1  0
 27  1  1  0
 35 31  2  0
 67 41  1  0
 97 71  1  0
127101  1  0
135131  2  0
 26  3  1  0
 39 34  1  0
 66 43  1  0
 96 73  1  0
126103  1  0
139134  1  0
 12  5  2  0
 30 14  1  0
 52 45  2  0
 70 54  1  0
 82 75  2  0
100 84  1  0
112105  2  0
130114  1  0
 23 17  2  0
 63 57  2  0
 93 87  2  0
123117  2  0
  1141  1  0
  2142  1  0
  8143  1  0
  8144  1  0
  9145  1  0
  9146  1  0
  9147  1  0
 20148  1  0
 20149  1  0
 21150  1  0
 21151  1  0
 21152  1  0
 28153  1  0
 36154  1  0
 37155  1  0
 38156  1  0
 42157  1  0
 48158  1  0
 48159  1  0
 49160  1  0
 49161  1  0
 49162  1  0
 60163  1  0
 60164  1  0
 61165  1  0
 61166  1  0
 61167  1  0
 68168  1  0
 72169  1  0
 78170  1  0
 78171  1  0
 79172  1  0
 79173  1  0
 79174  1  0
 90175  1  0
 90176  1  0
 91177  1  0
 91178  1  0
 91179  1  0
 98180  1  0
102181  1  0
108182  1  0
108183  1  0
109184  1  0
109185  1  0
109186  1  0
120187  1  0
120188  1  0
121189  1  0
121190  1  0
121191  1  0
128192  1  0
133193  1  0
136194  1  0
137195  1  0
138196  1  0
M  END

