
     RDKit          3D

225251  0  0  0  0  0  0  0  0999 V2000
   -2.8869   -7.5172    9.2397 C   0  0  0  0  0  0  0  0  0  0  0  0
   -1.9136   -7.3984    8.2547 C   0  0  0  0  0  0  0  0  0  0  0  0
   -2.4450   -7.3564    6.9542 C   0  0  0  0  0  0  0  0  0  0  0  0
   -1.7172   -7.1957    5.7585 C   0  0  0  0  0  0  0  0  0  0  0  0
   -0.2602   -6.9931    5.7601 C   0  0  0  0  0  0  0  0  0  0  0  0
    0.8681   -8.1251    5.2408 S   0  0  0  0  0  0  0  0  0  0  0  0
    2.2267   -7.1947    5.5889 C   0  0  0  0  0  0  0  0  0  0  0  0
    3.6414   -7.6663    5.4481 C   0  0  0  0  0  0  0  0  0  0  0  0
    4.1608   -8.2161    6.7729 C   0  0  0  0  0  0  0  0  0  0  0  0
    1.8077   -5.9796    6.1347 C   0  0  0  0  0  0  0  0  0  0  0  0
    2.9136   -4.7181    6.6593 Cl  0  0  0  0  0  0  0  0  0  0  0  0
    0.4127   -5.8666    6.2251 C   0  0  0  0  0  0  0  0  0  0  0  0
   -0.4043   -4.4382    6.8473 Cl  0  0  0  0  0  0  0  0  0  0  0  0
   -2.4522   -7.1601    4.5619 C   0  0  0  0  0  0  0  0  0  0  0  0
   -3.8475   -7.2572    4.5367 C   0  0  0  0  0  0  0  0  0  0  0  0
   -4.5792   -7.4155    5.7304 C   0  0  0  0  0  0  0  0  0  0  0  0
   -6.0532   -7.4160    5.7410 C   0  0  0  0  0  0  0  0  0  0  0  0
   -7.0041   -6.1243    5.2323 S   0  0  0  0  0  0  0  0  0  0  0  0
   -8.4848   -6.8365    5.5878 C   0  0  0  0  0  0  0  0  0  0  0  0
   -9.8061   -6.1415    5.4727 C   0  0  0  0  0  0  0  0  0  0  0  0
  -10.0989   -5.3361    6.7327 C   0  0  0  0  0  0  0  0  0  0  0  0
   -8.2511   -8.0942    6.1441 C   0  0  0  0  0  0  0  0  0  0  0  0
   -6.8884   -8.4250    6.2154 C   0  0  0  0  0  0  0  0  0  0  0  0
   -6.3029   -9.9688    6.8266 Cl  0  0  0  0  0  0  0  0  0  0  0  0
   -9.5287   -9.1456    6.7396 Cl  0  0  0  0  0  0  0  0  0  0  0  0
   -3.8388   -7.4657    6.9266 C   0  0  0  0  0  0  0  0  0  0  0  0
   -4.4056   -7.5721    8.5073 S   0  0  0  0  0  0  0  0  0  0  0  0
   -4.3855   -7.1400    3.2453 C   0  0  0  0  0  0  0  0  0  0  0  0
   -3.4156   -6.9176    2.2697 C   0  0  0  0  0  0  0  0  0  0  0  0
   -1.8883   -6.8900    2.9974 S   0  0  0  0  0  0  0  0  0  0  0  0
   -3.6958   -6.5878    0.8652 C   0  0  0  0  0  0  0  0  0  0  0  0
   -2.7448   -6.2493   -0.0968 C   0  0  0  0  0  0  0  0  0  0  0  0
   -3.3187   -5.7850   -1.2934 C   0  0  0  0  0  0  0  0  0  0  0  0
   -2.6245   -5.2717   -2.4083 C   0  0  0  0  0  0  0  0  0  0  0  0
   -1.1584   -5.1359   -2.4122 C   0  0  0  0  0  0  0  0  0  0  0  0
   -0.1148   -6.0109   -3.3968 S   0  0  0  0  0  0  0  0  0  0  0  0
    1.3023   -5.3089   -2.8170 C   0  0  0  0  0  0  0  0  0  0  0  0
    2.6774   -5.6374   -3.3119 C   0  0  0  0  0  0  0  0  0  0  0  0
    3.1127   -4.6569   -4.3957 C   0  0  0  0  0  0  0  0  0  0  0  0
    0.9686   -4.3519   -1.8596 C   0  0  0  0  0  0  0  0  0  0  0  0
    2.1537   -3.3483   -1.0344 Cl  0  0  0  0  0  0  0  0  0  0  0  0
   -0.4124   -4.2573   -1.6299 C   0  0  0  0  0  0  0  0  0  0  0  0
   -1.1307   -3.1112   -0.5077 Cl  0  0  0  0  0  0  0  0  0  0  0  0
   -3.4022   -4.7502   -3.4550 C   0  0  0  0  0  0  0  0  0  0  0  0
   -4.7996   -4.7155   -3.4102 C   0  0  0  0  0  0  0  0  0  0  0  0
   -5.4912   -5.2543   -2.3103 C   0  0  0  0  0  0  0  0  0  0  0  0
   -6.9514   -5.1261   -2.1877 C   0  0  0  0  0  0  0  0  0  0  0  0
   -8.0719   -6.0491   -3.0333 S   0  0  0  0  0  0  0  0  0  0  0  0
   -9.4349   -5.2714   -2.4207 C   0  0  0  0  0  0  0  0  0  0  0  0
  -10.8459   -5.6763   -2.7156 C   0  0  0  0  0  0  0  0  0  0  0  0
  -11.3586   -6.6597   -1.6688 C   0  0  0  0  0  0  0  0  0  0  0  0
   -9.0235   -4.2764   -1.5350 C   0  0  0  0  0  0  0  0  0  0  0  0
   -7.6280   -4.1890   -1.4142 C   0  0  0  0  0  0  0  0  0  0  0  0
   -6.8139   -2.9982   -0.4056 Cl  0  0  0  0  0  0  0  0  0  0  0  0
  -10.1338   -3.2390   -0.6510 Cl  0  0  0  0  0  0  0  0  0  0  0  0
   -4.7170   -5.7835   -1.2666 C   0  0  0  0  0  0  0  0  0  0  0  0
   -5.2413   -6.3406    0.2273 S   0  0  0  0  0  0  0  0  0  0  0  0
   -5.3693   -3.9348   -4.4287 C   0  0  0  0  0  0  0  0  0  0  0  0
   -4.4219   -3.3329   -5.2553 C   0  0  0  0  0  0  0  0  0  0  0  0
   -2.8801   -3.8083   -4.7449 S   0  0  0  0  0  0  0  0  0  0  0  0
   -4.6666   -2.0951   -6.0113 C   0  0  0  0  0  0  0  0  0  0  0  0
   -3.6591   -1.3699   -6.6481 C   0  0  0  0  0  0  0  0  0  0  0  0
   -3.9278    0.0074   -6.7232 C   0  0  0  0  0  0  0  0  0  0  0  0
   -2.9923    1.0069   -7.0524 C   0  0  0  0  0  0  0  0  0  0  0  0
   -1.6125    0.6741   -7.4514 C   0  0  0  0  0  0  0  0  0  0  0  0
   -0.4672   -0.0309   -6.4395 S   0  0  0  0  0  0  0  0  0  0  0  0
    0.7997    0.0114   -7.5473 C   0  0  0  0  0  0  0  0  0  0  0  0
    2.1658   -0.5467   -7.2897 C   0  0  0  0  0  0  0  0  0  0  0  0
    2.1950   -2.0468   -7.5585 C   0  0  0  0  0  0  0  0  0  0  0  0
    0.3334    0.5725   -8.7357 C   0  0  0  0  0  0  0  0  0  0  0  0
    1.3278    0.7810  -10.1723 Cl  0  0  0  0  0  0  0  0  0  0  0  0
   -1.0143    0.9618   -8.6735 C   0  0  0  0  0  0  0  0  0  0  0  0
   -1.8693    1.7259  -10.0077 Cl  0  0  0  0  0  0  0  0  0  0  0  0
   -3.3407    2.3293   -6.7321 C   0  0  0  0  0  0  0  0  0  0  0  0
   -4.5599    2.6682   -6.1348 C   0  0  0  0  0  0  0  0  0  0  0  0
   -5.5434    1.6802   -5.9192 C   0  0  0  0  0  0  0  0  0  0  0  0
   -6.8177    1.9734   -5.2367 C   0  0  0  0  0  0  0  0  0  0  0  0
   -6.9701    2.4205   -3.6198 S   0  0  0  0  0  0  0  0  0  0  0  0
   -8.6528    2.4187   -3.5936 C   0  0  0  0  0  0  0  0  0  0  0  0
   -9.4842    2.8020   -2.4075 C   0  0  0  0  0  0  0  0  0  0  0  0
   -9.7167    4.3070   -2.3762 C   0  0  0  0  0  0  0  0  0  0  0  0
   -9.1212    2.0738   -4.8608 C   0  0  0  0  0  0  0  0  0  0  0  0
   -8.0906    1.8031   -5.7756 C   0  0  0  0  0  0  0  0  0  0  0  0
   -8.3754    1.3102   -7.4404 Cl  0  0  0  0  0  0  0  0  0  0  0  0
  -10.8263    1.9793   -5.2794 Cl  0  0  0  0  0  0  0  0  0  0  0  0
   -5.1822    0.3526   -6.2087 C   0  0  0  0  0  0  0  0  0  0  0  0
   -5.9307   -1.0373   -5.6367 S   0  0  0  0  0  0  0  0  0  0  0  0
   -4.5707    3.9710   -5.6018 C   0  0  0  0  0  0  0  0  0  0  0  0
   -3.3424    4.6268   -5.7173 C   0  0  0  0  0  0  0  0  0  0  0  0
   -2.2884    3.6251   -6.5766 S   0  0  0  0  0  0  0  0  0  0  0  0
   -2.8317    5.5634   -4.7033 C   0  0  0  0  0  0  0  0  0  0  0  0
   -1.5275    6.0647   -4.7347 C   0  0  0  0  0  0  0  0  0  0  0  0
   -0.9580    6.2296   -3.4604 C   0  0  0  0  0  0  0  0  0  0  0  0
    0.4158    6.4247   -3.2058 C   0  0  0  0  0  0  0  0  0  0  0  0
    1.3494    6.8300   -4.2765 C   0  0  0  0  0  0  0  0  0  0  0  0
    2.7188    5.9764   -4.7588 S   0  0  0  0  0  0  0  0  0  0  0  0
    3.2190    7.0812   -5.9265 C   0  0  0  0  0  0  0  0  0  0  0  0
    4.4951    6.9756   -6.7051 C   0  0  0  0  0  0  0  0  0  0  0  0
    5.6676    7.5124   -5.8943 C   0  0  0  0  0  0  0  0  0  0  0  0
    2.3197    8.1480   -5.9443 C   0  0  0  0  0  0  0  0  0  0  0  0
    2.5013    9.5578   -6.9801 Cl  0  0  0  0  0  0  0  0  0  0  0  0
    1.2652    7.9990   -5.0290 C   0  0  0  0  0  0  0  0  0  0  0  0
    0.0075    9.2102   -4.8070 Cl  0  0  0  0  0  0  0  0  0  0  0  0
    0.8611    6.1388   -1.9028 C   0  0  0  0  0  0  0  0  0  0  0  0
   -0.0113    5.7697   -0.8731 C   0  0  0  0  0  0  0  0  0  0  0  0
   -1.4002    5.6983   -1.1021 C   0  0  0  0  0  0  0  0  0  0  0  0
   -2.3409    5.2257   -0.0677 C   0  0  0  0  0  0  0  0  0  0  0  0
   -2.3224    3.6927    0.6303 S   0  0  0  0  0  0  0  0  0  0  0  0
   -3.6667    3.9286    1.6138 C   0  0  0  0  0  0  0  0  0  0  0  0
   -4.1886    2.9199    2.5940 C   0  0  0  0  0  0  0  0  0  0  0  0
   -3.4474    3.0237    3.9203 C   0  0  0  0  0  0  0  0  0  0  0  0
   -4.1417    5.2244    1.4175 C   0  0  0  0  0  0  0  0  0  0  0  0
   -3.4071    5.9452    0.4623 C   0  0  0  0  0  0  0  0  0  0  0  0
   -3.7718    7.6035    0.0035 Cl  0  0  0  0  0  0  0  0  0  0  0  0
   -5.5205    5.8998    2.2775 Cl  0  0  0  0  0  0  0  0  0  0  0  0
   -1.8356    5.9134   -2.4192 C   0  0  0  0  0  0  0  0  0  0  0  0
   -3.2984    5.4280   -3.0828 S   0  0  0  0  0  0  0  0  0  0  0  0
    0.6557    5.3763    0.2989 C   0  0  0  0  0  0  0  0  0  0  0  0
    2.0419    5.3669    0.1595 C   0  0  0  0  0  0  0  0  0  0  0  0
    2.4454    5.9529   -1.3686 S   0  0  0  0  0  0  0  0  0  0  0  0
    2.9975    4.6728    1.0375 C   0  0  0  0  0  0  0  0  0  0  0  0
    4.6020    5.1457    1.2366 S   0  0  0  0  0  0  0  0  0  0  0  0
    5.1376    3.7831    2.0658 C   0  0  0  0  0  0  0  0  0  0  0  0
    4.0510    2.9089    2.1973 C   0  0  0  0  0  0  0  0  0  0  0  0
    2.8660    3.3922    1.5972 C   0  0  0  0  0  0  0  0  0  0  0  0
    1.7305    2.5670    1.5284 C   0  0  0  0  0  0  0  0  0  0  0  0
    1.7597    1.3029    2.1270 C   0  0  0  0  0  0  0  0  0  0  0  0
    2.9121    0.8562    2.7864 C   0  0  0  0  0  0  0  0  0  0  0  0
    4.0618    1.6522    2.8282 C   0  0  0  0  0  0  0  0  0  0  0  0
    5.1444    1.2142    3.5190 F   0  0  0  0  0  0  0  0  0  0  0  0
    6.5603    3.4744    2.2691 C   0  0  0  0  0  0  0  0  0  0  0  0
    7.1827    2.2887    1.8866 C   0  0  0  0  0  0  0  0  0  0  0  0
    8.5704    2.3091    2.0807 C   0  0  0  0  0  0  0  0  0  0  0  0
    9.4651    1.2558    1.8080 C   0  0  0  0  0  0  0  0  0  0  0  0
    9.0100   -0.0149    1.2168 C   0  0  0  0  0  0  0  0  0  0  0  0
    8.9702   -1.4884    2.0219 S   0  0  0  0  0  0  0  0  0  0  0  0
    8.2721   -2.3620    0.7644 C   0  0  0  0  0  0  0  0  0  0  0  0
    7.8456   -3.7950    0.8605 C   0  0  0  0  0  0  0  0  0  0  0  0
    6.4084   -3.8990    1.3596 C   0  0  0  0  0  0  0  0  0  0  0  0
    8.0393   -1.4973   -0.3027 C   0  0  0  0  0  0  0  0  0  0  0  0
    7.2679   -1.9922   -1.8040 Cl  0  0  0  0  0  0  0  0  0  0  0  0
    8.4599   -0.1830   -0.0521 C   0  0  0  0  0  0  0  0  0  0  0  0
    8.3098    1.1221   -1.2229 Cl  0  0  0  0  0  0  0  0  0  0  0  0
   10.8175    1.4753    2.1111 C   0  0  0  0  0  0  0  0  0  0  0  0
   11.2867    2.6861    2.6333 C   0  0  0  0  0  0  0  0  0  0  0  0
   10.3918    3.7489    2.8908 C   0  0  0  0  0  0  0  0  0  0  0  0
   10.8495    5.0529    3.4012 C   0  0  0  0  0  0  0  0  0  0  0  0
   10.6635    6.5147    2.5917 S   0  0  0  0  0  0  0  0  0  0  0  0
   11.4059    7.4662    3.7616 C   0  0  0  0  0  0  0  0  0  0  0  0
   11.5094    8.9593    3.7018 C   0  0  0  0  0  0  0  0  0  0  0  0
   10.2789    9.6087    4.3220 C   0  0  0  0  0  0  0  0  0  0  0  0
   11.7913    6.6473    4.8229 C   0  0  0  0  0  0  0  0  0  0  0  0
   11.4816    5.2957    4.6198 C   0  0  0  0  0  0  0  0  0  0  0  0
   11.8017    4.0425    5.8150 Cl  0  0  0  0  0  0  0  0  0  0  0  0
   12.5675    7.2482    6.2818 Cl  0  0  0  0  0  0  0  0  0  0  0  0
    9.0339    3.5205    2.6017 C   0  0  0  0  0  0  0  0  0  0  0  0
    7.7278    4.5651    2.8102 S   0  0  0  0  0  0  0  0  0  0  0  0
   12.6817    2.7068    2.7995 C   0  0  0  0  0  0  0  0  0  0  0  0
   13.2961    1.5139    2.4267 C   0  0  0  0  0  0  0  0  0  0  0  0
   12.1218    0.4407    1.8691 S   0  0  0  0  0  0  0  0  0  0  0  0
   -2.7023   -7.5614   10.3042 H   0  0  0  0  0  0  0  0  0  0  0  0
   -0.8567   -7.3348    8.4793 H   0  0  0  0  0  0  0  0  0  0  0  0
    4.2885   -6.8291    5.1133 H   0  0  0  0  0  0  0  0  0  0  0  0
    3.6895   -8.4637    4.6758 H   0  0  0  0  0  0  0  0  0  0  0  0
    3.5089   -9.0426    7.1292 H   0  0  0  0  0  0  0  0  0  0  0  0
    5.1902   -8.6078    6.6347 H   0  0  0  0  0  0  0  0  0  0  0  0
    4.1873   -7.4141    7.5423 H   0  0  0  0  0  0  0  0  0  0  0  0
  -10.6160   -6.8847    5.3067 H   0  0  0  0  0  0  0  0  0  0  0  0
   -9.7871   -5.4581    4.5981 H   0  0  0  0  0  0  0  0  0  0  0  0
  -11.0796   -4.8269    6.6314 H   0  0  0  0  0  0  0  0  0  0  0  0
   -9.3115   -4.5677    6.8893 H   0  0  0  0  0  0  0  0  0  0  0  0
  -10.1388   -6.0073    7.6170 H   0  0  0  0  0  0  0  0  0  0  0  0
   -5.4448   -7.1820    3.0279 H   0  0  0  0  0  0  0  0  0  0  0  0
   -1.6781   -6.2848    0.0856 H   0  0  0  0  0  0  0  0  0  0  0  0
    3.3981   -5.6039   -2.4671 H   0  0  0  0  0  0  0  0  0  0  0  0
    2.6871   -6.6675   -3.7274 H   0  0  0  0  0  0  0  0  0  0  0  0
    4.1264   -4.9313   -4.7584 H   0  0  0  0  0  0  0  0  0  0  0  0
    2.4049   -4.6854   -5.2518 H   0  0  0  0  0  0  0  0  0  0  0  0
    3.1515   -3.6251   -3.9859 H   0  0  0  0  0  0  0  0  0  0  0  0
  -10.8920   -6.1522   -3.7189 H   0  0  0  0  0  0  0  0  0  0  0  0
  -11.4999   -4.7782   -2.7367 H   0  0  0  0  0  0  0  0  0  0  0  0
  -11.3655   -6.1867   -0.6644 H   0  0  0  0  0  0  0  0  0  0  0  0
  -12.3953   -6.9651   -1.9198 H   0  0  0  0  0  0  0  0  0  0  0  0
  -10.7156   -7.5651   -1.6455 H   0  0  0  0  0  0  0  0  0  0  0  0
   -6.4249   -3.7014   -4.4772 H   0  0  0  0  0  0  0  0  0  0  0  0
   -2.6993   -1.8018   -6.8967 H   0  0  0  0  0  0  0  0  0  0  0  0
    2.9187   -0.0382   -7.9303 H   0  0  0  0  0  0  0  0  0  0  0  0
    2.4449   -0.3570   -6.2317 H   0  0  0  0  0  0  0  0  0  0  0  0
    1.4612   -2.5688   -6.9052 H   0  0  0  0  0  0  0  0  0  0  0  0
    1.9481   -2.2512   -8.6229 H   0  0  0  0  0  0  0  0  0  0  0  0
    3.2086   -2.4466   -7.3445 H   0  0  0  0  0  0  0  0  0  0  0  0
   -8.9668    2.4871   -1.4761 H   0  0  0  0  0  0  0  0  0  0  0  0
  -10.4629    2.2792   -2.4432 H   0  0  0  0  0  0  0  0  0  0  0  0
  -10.3126    4.5726   -1.4779 H   0  0  0  0  0  0  0  0  0  0  0  0
   -8.7455    4.8483   -2.3399 H   0  0  0  0  0  0  0  0  0  0  0  0
  -10.2754    4.6272   -3.2827 H   0  0  0  0  0  0  0  0  0  0  0  0
   -5.3754    4.3560   -4.9908 H   0  0  0  0  0  0  0  0  0  0  0  0
   -0.9440    6.1076   -5.6473 H   0  0  0  0  0  0  0  0  0  0  0  0
    4.6810    5.9103   -6.9584 H   0  0  0  0  0  0  0  0  0  0  0  0
    4.4134    7.5417   -7.6568 H   0  0  0  0  0  0  0  0  0  0  0  0
    5.5085    8.5868   -5.6546 H   0  0  0  0  0  0  0  0  0  0  0  0
    6.6050    7.4169   -6.4835 H   0  0  0  0  0  0  0  0  0  0  0  0
    5.7803    6.9407   -4.9473 H   0  0  0  0  0  0  0  0  0  0  0  0
   -5.2753    3.0766    2.7616 H   0  0  0  0  0  0  0  0  0  0  0  0
   -4.0552    1.8998    2.1791 H   0  0  0  0  0  0  0  0  0  0  0  0
   -2.3602    2.8430    3.7691 H   0  0  0  0  0  0  0  0  0  0  0  0
   -3.5933    4.0296    4.3711 H   0  0  0  0  0  0  0  0  0  0  0  0
   -3.8375    2.2587    4.6226 H   0  0  0  0  0  0  0  0  0  0  0  0
    0.1499    5.0428    1.1962 H   0  0  0  0  0  0  0  0  0  0  0  0
    0.8326    2.8643    1.0082 H   0  0  0  0  0  0  0  0  0  0  0  0
    0.8842    0.6688    2.0815 H   0  0  0  0  0  0  0  0  0  0  0  0
    2.9109   -0.1156    3.2658 H   0  0  0  0  0  0  0  0  0  0  0  0
    6.6486    1.4519    1.4565 H   0  0  0  0  0  0  0  0  0  0  0  0
    8.5182   -4.3342    1.5625 H   0  0  0  0  0  0  0  0  0  0  0  0
    7.9292   -4.2818   -0.1364 H   0  0  0  0  0  0  0  0  0  0  0  0
    6.1126   -4.9651    1.4368 H   0  0  0  0  0  0  0  0  0  0  0  0
    6.3166   -3.4312    2.3639 H   0  0  0  0  0  0  0  0  0  0  0  0
    5.7153   -3.3913    0.6547 H   0  0  0  0  0  0  0  0  0  0  0  0
   12.4223    9.3017    4.2357 H   0  0  0  0  0  0  0  0  0  0  0  0
   11.5986    9.2810    2.6414 H   0  0  0  0  0  0  0  0  0  0  0  0
   10.3709   10.7130    4.2662 H   0  0  0  0  0  0  0  0  0  0  0  0
    9.3656    9.3001    3.7698 H   0  0  0  0  0  0  0  0  0  0  0  0
   10.1831    9.3120    5.3883 H   0  0  0  0  0  0  0  0  0  0  0  0
   13.2384    3.5587    3.1671 H   0  0  0  0  0  0  0  0  0  0  0  0
   14.3582    1.3175    2.4730 H   0  0  0  0  0  0  0  0  0  0  0  0
  1  2  2  0
  2  3  1  0
  3  4  2  0
  4  5  1  0
  5  6  1  0
  6  7  1  0
  7  8  1  0
  8  9  1  0
  7 10  2  0
 10 11  1  0
 10 12  1  0
 12 13  1  0
  4 14  1  0
 14 15  2  0
 15 16  1  0
 16 17  1  0
 17 18  1  0
 18 19  1  0
 19 20  1  0
 20 21  1  0
 19 22  2  0
 22 23  1  0
 23 24  1  0
 22 25  1  0
 16 26  2  0
 26 27  1  0
 15 28  1  0
 28 29  2  0
 29 30  1  0
 29 31  1  0
 31 32  2  0
 32 33  1  0
 33 34  2  0
 34 35  1  0
 35 36  1  0
 36 37  1  0
 37 38  1  0
 38 39  1  0
 37 40  2  0
 40 41  1  0
 40 42  1  0
 42 43  1  0
 34 44  1  0
 44 45  2  0
 45 46  1  0
 46 47  1  0
 47 48  1  0
 48 49  1  0
 49 50  1  0
 50 51  1  0
 49 52  2  0
 52 53  1  0
 53 54  1  0
 52 55  1  0
 46 56  2  0
 56 57  1  0
 45 58  1  0
 58 59  2  0
 59 60  1  0
 59 61  1  0
 61 62  2  0
 62 63  1  0
 63 64  2  0
 64 65  1  0
 65 66  1  0
 66 67  1  0
 67 68  1  0
 68 69  1  0
 67 70  2  0
 70 71  1  0
 70 72  1  0
 72 73  1  0
 64 74  1  0
 74 75  2  0
 75 76  1  0
 76 77  1  0
 77 78  1  0
 78 79  1  0
 79 80  1  0
 80 81  1  0
 79 82  2  0
 82 83  1  0
 83 84  1  0
 82 85  1  0
 76 86  2  0
 86 87  1  0
 75 88  1  0
 88 89  2  0
 89 90  1  0
 89 91  1  0
 91 92  2  0
 92 93  1  0
 93 94  2  0
 94 95  1  0
 95 96  1  0
 96 97  1  0
 97 98  1  0
 98 99  1  0
 97100  2  0
100101  1  0
100102  1  0
102103  1  0
 94104  1  0
104105  2  0
105106  1  0
106107  1  0
107108  1  0
108109  1  0
109110  1  0
110111  1  0
109112  2  0
112113  1  0
113114  1  0
112115  1  0
106116  2  0
116117  1  0
105118  1  0
118119  2  0
119120  1  0
119121  1  0
121122  1  0
122123  1  0
123124  2  0
124125  1  0
125126  1  0
126127  2  0
127128  1  0
128129  2  0
129130  1  0
123131  1  0
131132  2  0
132133  1  0
133134  2  0
134135  1  0
135136  1  0
136137  1  0
137138  1  0
138139  1  0
137140  2  0
140141  1  0
140142  1  0
142143  1  0
134144  1  0
144145  2  0
145146  1  0
146147  1  0
147148  1  0
148149  1  0
149150  1  0
150151  1  0
149152  2  0
152153  1  0
153154  1  0
152155  1  0
146156  2  0
156157  1  0
145158  1  0
158159  2  0
159160  1  0
 27  1  1  0
 57 31  1  0
 87 61  1  0
117 91  1  0
125121  2  0
157131  1  0
 26  3  1  0
 56 33  1  0
 86 63  1  0
116 93  1  0
129124  1  0
156133  1  0
 12  5  2  0
 30 14  1  0
 42 35  2  0
 60 44  1  0
 72 65  2  0
 90 74  1  0
102 95  2  0
120104  1  0
142135  2  0
160144  1  0
 23 17  2  0
 53 47  2  0
 83 77  2  0
113107  2  0
153147  2  0
  1161  1  0
  2162  1  0
  8163  1  0
  8164  1  0
  9165  1  0
  9166  1  0
  9167  1  0
 20168  1  0
 20169  1  0
 21170  1  0
 21171  1  0
 21172  1  0
 28173  1  0
 32174  1  0
 38175  1  0
 38176  1  0
 39177  1  0
 39178  1  0
 39179  1  0
 50180  1  0
 50181  1  0
 51182  1  0
 51183  1  0
 51184  1  0
 58185  1  0
 62186  1  0
 68187  1  0
 68188  1  0
 69189  1  0
 69190  1  0
 69191  1  0
 80192  1  0
 80193  1  0
 81194  1  0
 81195  1  0
 81196  1  0
 88197  1  0
 92198  1  0
 98199  1  0
 98200  1  0
 99201  1  0
 99202  1  0
 99203  1  0
110204  1  0
110205  1  0
111206  1  0
111207  1  0
111208  1  0
118209  1  0
126210  1  0
127211  1  0
128212  1  0
132213  1  0
138214  1  0
138215  1  0
139216  1  0
139217  1  0
139218  1  0
150219  1  0
150220  1  0
151221  1  0
151222  1  0
151223  1  0
158224  1  0
159225  1  0
M  END

