
     RDKit          3D

138155  0  0  0  0  0  0  0  0999 V2000
    7.9139    0.3150   11.3891 C   0  0  0  0  0  0  0  0  0  0  0  0
    6.2691    0.3535   11.0485 S   0  0  0  0  0  0  0  0  0  0  0  0
    6.3901    0.3779    9.3670 C   0  0  0  0  0  0  0  0  0  0  0  0
    7.7527    0.3795    9.0399 C   0  0  0  0  0  0  0  0  0  0  0  0
    8.5886    0.3314   10.1751 C   0  0  0  0  0  0  0  0  0  0  0  0
    9.9790    0.3281   10.0450 C   0  0  0  0  0  0  0  0  0  0  0  0
   10.5428    0.3897    8.7650 C   0  0  0  0  0  0  0  0  0  0  0  0
    9.7215    0.4762    7.6312 C   0  0  0  0  0  0  0  0  0  0  0  0
    8.3250    0.4812    7.7578 C   0  0  0  0  0  0  0  0  0  0  0  0
    7.5688    0.6534    6.6483 F   0  0  0  0  0  0  0  0  0  0  0  0
    5.2232    0.3483    8.4716 C   0  0  0  0  0  0  0  0  0  0  0  0
    4.0291    1.0296    8.7001 C   0  0  0  0  0  0  0  0  0  0  0  0
    3.0465    0.7526    7.7363 C   0  0  0  0  0  0  0  0  0  0  0  0
    1.7442    1.2910    7.6894 C   0  0  0  0  0  0  0  0  0  0  0  0
    1.2649    2.2647    8.6856 C   0  0  0  0  0  0  0  0  0  0  0  0
    1.8733    3.8207    8.8813 S   0  0  0  0  0  0  0  0  0  0  0  0
    0.8422    4.2569   10.1378 C   0  0  0  0  0  0  0  0  0  0  0  0
    0.8138    5.6080   10.7860 C   0  0  0  0  0  0  0  0  0  0  0  0
   -0.2255    6.5037   10.1215 C   0  0  0  0  0  0  0  0  0  0  0  0
   -0.0099    3.1879   10.4095 C   0  0  0  0  0  0  0  0  0  0  0  0
   -1.2616    3.2315   11.6440 Cl  0  0  0  0  0  0  0  0  0  0  0  0
    0.2310    2.0684    9.5985 C   0  0  0  0  0  0  0  0  0  0  0  0
   -0.6556    0.5572    9.7506 Cl  0  0  0  0  0  0  0  0  0  0  0  0
    0.9203    0.8660    6.6336 C   0  0  0  0  0  0  0  0  0  0  0  0
    1.3398   -0.0594    5.6750 C   0  0  0  0  0  0  0  0  0  0  0  0
    2.6360   -0.6092    5.7287 C   0  0  0  0  0  0  0  0  0  0  0  0
    3.1171   -1.5674    4.7166 C   0  0  0  0  0  0  0  0  0  0  0  0
    2.4799   -3.1048    4.4689 S   0  0  0  0  0  0  0  0  0  0  0  0
    3.4690   -3.4995    3.1660 C   0  0  0  0  0  0  0  0  0  0  0  0
    3.3527   -4.7583    2.3602 C   0  0  0  0  0  0  0  0  0  0  0  0
    2.3671   -4.5710    1.2111 C   0  0  0  0  0  0  0  0  0  0  0  0
    4.2981   -2.4133    2.8893 C   0  0  0  0  0  0  0  0  0  0  0  0
    4.1058   -1.3324    3.7635 C   0  0  0  0  0  0  0  0  0  0  0  0
    4.9648    0.1942    3.6121 Cl  0  0  0  0  0  0  0  0  0  0  0  0
    5.4386   -2.3785    1.5508 Cl  0  0  0  0  0  0  0  0  0  0  0  0
    3.4662   -0.1744    6.7752 C   0  0  0  0  0  0  0  0  0  0  0  0
    5.0415   -0.6520    7.1216 S   0  0  0  0  0  0  0  0  0  0  0  0
    0.3814   -0.2914    4.6775 C   0  0  0  0  0  0  0  0  0  0  0  0
   -0.7912    0.4519    4.8429 C   0  0  0  0  0  0  0  0  0  0  0  0
   -0.6207    1.4039    6.2304 S   0  0  0  0  0  0  0  0  0  0  0  0
   -1.9032    0.4712    3.8626 C   0  0  0  0  0  0  0  0  0  0  0  0
   -1.7909   -0.2916    2.3655 S   0  0  0  0  0  0  0  0  0  0  0  0
   -3.2651    0.1953    1.7400 C   0  0  0  0  0  0  0  0  0  0  0  0
   -3.8866    1.0053    2.6934 C   0  0  0  0  0  0  0  0  0  0  0  0
   -3.1401    1.1440    3.8910 C   0  0  0  0  0  0  0  0  0  0  0  0
   -3.6624    1.9058    4.9485 C   0  0  0  0  0  0  0  0  0  0  0  0
   -4.8906    2.5588    4.7890 C   0  0  0  0  0  0  0  0  0  0  0  0
   -5.5974    2.4649    3.5842 C   0  0  0  0  0  0  0  0  0  0  0  0
   -5.1006    1.6928    2.5287 C   0  0  0  0  0  0  0  0  0  0  0  0
   -5.7855    1.6536    1.3583 F   0  0  0  0  0  0  0  0  0  0  0  0
   -3.7195   -0.1655    0.3906 C   0  0  0  0  0  0  0  0  0  0  0  0
   -2.7425   -0.0561   -0.9687 S   0  0  0  0  0  0  0  0  0  0  0  0
   -3.7722   -0.8393   -2.0418 C   0  0  0  0  0  0  0  0  0  0  0  0
   -4.9049   -1.2533   -1.3274 C   0  0  0  0  0  0  0  0  0  0  0  0
   -4.8653   -0.8807    0.0362 C   0  0  0  0  0  0  0  0  0  0  0  0
   -5.8662   -1.3063    0.9191 C   0  0  0  0  0  0  0  0  0  0  0  0
   -6.9262   -2.0779    0.4305 C   0  0  0  0  0  0  0  0  0  0  0  0
   -6.9711   -2.4484   -0.9209 C   0  0  0  0  0  0  0  0  0  0  0  0
   -5.9587   -2.0516   -1.8047 C   0  0  0  0  0  0  0  0  0  0  0  0
   -5.9971   -2.4920   -3.0850 F   0  0  0  0  0  0  0  0  0  0  0  0
   -3.4014   -1.1180   -3.4355 C   0  0  0  0  0  0  0  0  0  0  0  0
   -2.1320   -1.5246   -3.8365 C   0  0  0  0  0  0  0  0  0  0  0  0
   -1.9843   -1.5718   -5.2298 C   0  0  0  0  0  0  0  0  0  0  0  0
   -0.8188   -1.9412   -5.9312 C   0  0  0  0  0  0  0  0  0  0  0  0
    0.4309   -2.3059   -5.2366 C   0  0  0  0  0  0  0  0  0  0  0  0
    1.1826   -3.8084   -5.3371 S   0  0  0  0  0  0  0  0  0  0  0  0
    2.4720   -3.4337   -4.3236 C   0  0  0  0  0  0  0  0  0  0  0  0
    3.5548   -4.3931   -3.9303 C   0  0  0  0  0  0  0  0  0  0  0  0
    3.2266   -5.0648   -2.6025 C   0  0  0  0  0  0  0  0  0  0  0  0
    2.3222   -2.1217   -3.8771 C   0  0  0  0  0  0  0  0  0  0  0  0
    3.4422   -1.3393   -2.7696 Cl  0  0  0  0  0  0  0  0  0  0  0  0
    1.1839   -1.4857   -4.3971 C   0  0  0  0  0  0  0  0  0  0  0  0
    0.7824    0.1940   -4.0605 Cl  0  0  0  0  0  0  0  0  0  0  0  0
   -0.9032   -1.9538   -7.3331 C   0  0  0  0  0  0  0  0  0  0  0  0
   -2.0646   -1.5878   -8.0234 C   0  0  0  0  0  0  0  0  0  0  0  0
   -3.2195   -1.1864   -7.3214 C   0  0  0  0  0  0  0  0  0  0  0  0
   -4.4470   -0.7568   -8.0168 C   0  0  0  0  0  0  0  0  0  0  0  0
   -5.9479   -1.5036   -7.8693 S   0  0  0  0  0  0  0  0  0  0  0  0
   -6.7687   -0.4621   -8.9047 C   0  0  0  0  0  0  0  0  0  0  0  0
   -8.2422   -0.5183   -9.1736 C   0  0  0  0  0  0  0  0  0  0  0  0
   -9.0021    0.3725   -8.1968 C   0  0  0  0  0  0  0  0  0  0  0  0
   -5.8775    0.5078   -9.3613 C   0  0  0  0  0  0  0  0  0  0  0  0
   -4.5746    0.3393   -8.8678 C   0  0  0  0  0  0  0  0  0  0  0  0
   -3.2588    1.4508   -9.2253 Cl  0  0  0  0  0  0  0  0  0  0  0  0
   -6.3401    1.8278  -10.4270 Cl  0  0  0  0  0  0  0  0  0  0  0  0
   -3.1468   -1.2054   -5.9181 C   0  0  0  0  0  0  0  0  0  0  0  0
   -4.3373   -0.7850   -4.8014 S   0  0  0  0  0  0  0  0  0  0  0  0
   -1.9369   -1.7042   -9.4176 C   0  0  0  0  0  0  0  0  0  0  0  0
   -0.6668   -2.1228   -9.8147 C   0  0  0  0  0  0  0  0  0  0  0  0
    0.2814   -2.3918   -8.4451 S   0  0  0  0  0  0  0  0  0  0  0  0
   -0.2403   -2.4202  -11.1913 C   0  0  0  0  0  0  0  0  0  0  0  0
    0.7694   -3.7028  -11.6100 S   0  0  0  0  0  0  0  0  0  0  0  0
    0.7397   -3.4733  -13.2767 C   0  0  0  0  0  0  0  0  0  0  0  0
   -0.0640   -2.3676  -13.5285 C   0  0  0  0  0  0  0  0  0  0  0  0
   -0.6056   -1.7690  -12.3736 C   0  0  0  0  0  0  0  0  0  0  0  0
   -1.3793   -0.6047  -12.4847 C   0  0  0  0  0  0  0  0  0  0  0  0
   -1.6410   -0.0765  -13.7568 C   0  0  0  0  0  0  0  0  0  0  0  0
   -1.1264   -0.6963  -14.9064 C   0  0  0  0  0  0  0  0  0  0  0  0
   -0.3282   -1.8427  -14.7972 C   0  0  0  0  0  0  0  0  0  0  0  0
    0.1794   -2.4263  -15.9111 F   0  0  0  0  0  0  0  0  0  0  0  0
    8.3620    0.2922   12.3736 H   0  0  0  0  0  0  0  0  0  0  0  0
   10.6179    0.2862   10.9178 H   0  0  0  0  0  0  0  0  0  0  0  0
   11.6191    0.3914    8.6510 H   0  0  0  0  0  0  0  0  0  0  0  0
   10.1716    0.5565    6.6501 H   0  0  0  0  0  0  0  0  0  0  0  0
    3.8835    1.6984    9.5388 H   0  0  0  0  0  0  0  0  0  0  0  0
    0.5774    5.5030   11.8669 H   0  0  0  0  0  0  0  0  0  0  0  0
    1.8149    6.0811   10.6997 H   0  0  0  0  0  0  0  0  0  0  0  0
    0.0201    6.6454    9.0469 H   0  0  0  0  0  0  0  0  0  0  0  0
   -0.2323    7.4965   10.6182 H   0  0  0  0  0  0  0  0  0  0  0  0
   -1.2376    6.0551   10.2109 H   0  0  0  0  0  0  0  0  0  0  0  0
    3.0036   -5.5858    3.0142 H   0  0  0  0  0  0  0  0  0  0  0  0
    4.3477   -5.0416    1.9550 H   0  0  0  0  0  0  0  0  0  0  0  0
    2.6829   -3.7270    0.5631 H   0  0  0  0  0  0  0  0  0  0  0  0
    1.3503   -4.3622    1.6074 H   0  0  0  0  0  0  0  0  0  0  0  0
    2.3275   -5.4972    0.5989 H   0  0  0  0  0  0  0  0  0  0  0  0
    0.5497   -0.9512    3.8367 H   0  0  0  0  0  0  0  0  0  0  0  0
   -3.1582    1.9990    5.8939 H   0  0  0  0  0  0  0  0  0  0  0  0
   -5.2923    3.1505    5.6015 H   0  0  0  0  0  0  0  0  0  0  0  0
   -6.5338    2.9953    3.4701 H   0  0  0  0  0  0  0  0  0  0  0  0
   -5.8260   -1.0606    1.9718 H   0  0  0  0  0  0  0  0  0  0  0  0
   -7.7062   -2.4084    1.1042 H   0  0  0  0  0  0  0  0  0  0  0  0
   -7.7832   -3.0674   -1.2788 H   0  0  0  0  0  0  0  0  0  0  0  0
   -1.3453   -1.7715   -3.1358 H   0  0  0  0  0  0  0  0  0  0  0  0
    4.5233   -3.8565   -3.8471 H   0  0  0  0  0  0  0  0  0  0  0  0
    3.6621   -5.1715   -4.7160 H   0  0  0  0  0  0  0  0  0  0  0  0
    3.1472   -4.3048   -1.7975 H   0  0  0  0  0  0  0  0  0  0  0  0
    4.0342   -5.7791   -2.3367 H   0  0  0  0  0  0  0  0  0  0  0  0
    2.2687   -5.6227   -2.6779 H   0  0  0  0  0  0  0  0  0  0  0  0
   -8.5986   -1.5652   -9.0671 H   0  0  0  0  0  0  0  0  0  0  0  0
   -8.4502   -0.1920  -10.2146 H   0  0  0  0  0  0  0  0  0  0  0  0
   -8.6760    1.4296   -8.3019 H   0  0  0  0  0  0  0  0  0  0  0  0
   -8.8241    0.0376   -7.1529 H   0  0  0  0  0  0  0  0  0  0  0  0
  -10.0905    0.3142   -8.4091 H   0  0  0  0  0  0  0  0  0  0  0  0
   -2.7520   -1.5377  -10.1087 H   0  0  0  0  0  0  0  0  0  0  0  0
    1.2587   -4.0735  -14.0127 H   0  0  0  0  0  0  0  0  0  0  0  0
   -1.7533   -0.0890  -11.6133 H   0  0  0  0  0  0  0  0  0  0  0  0
   -2.2388    0.8211  -13.8520 H   0  0  0  0  0  0  0  0  0  0  0  0
   -1.3371   -0.2769  -15.8812 H   0  0  0  0  0  0  0  0  0  0  0  0
  1  2  1  0
  2  3  1  0
  3  4  2  0
  4  5  1  0
  5  6  1  0
  6  7  2  0
  7  8  1  0
  8  9  2  0
  9 10  1  0
  3 11  1  0
 11 12  2  0
 12 13  1  0
 13 14  2  0
 14 15  1  0
 15 16  1  0
 16 17  1  0
 17 18  1  0
 18 19  1  0
 17 20  2  0
 20 21  1  0
 20 22  1  0
 22 23  1  0
 14 24  1  0
 24 25  2  0
 25 26  1  0
 26 27  1  0
 27 28  1  0
 28 29  1  0
 29 30  1  0
 30 31  1  0
 29 32  2  0
 32 33  1  0
 33 34  1  0
 32 35  1  0
 26 36  2  0
 36 37  1  0
 25 38  1  0
 38 39  2  0
 39 40  1  0
 39 41  1  0
 41 42  1  0
 42 43  1  0
 43 44  2  0
 44 45  1  0
 45 46  1  0
 46 47  2  0
 47 48  1  0
 48 49  2  0
 49 50  1  0
 43 51  1  0
 51 52  1  0
 52 53  1  0
 53 54  2  0
 54 55  1  0
 55 56  1  0
 56 57  2  0
 57 58  1  0
 58 59  2  0
 59 60  1  0
 53 61  1  0
 61 62  2  0
 62 63  1  0
 63 64  2  0
 64 65  1  0
 65 66  1  0
 66 67  1  0
 67 68  1  0
 68 69  1  0
 67 70  2  0
 70 71  1  0
 70 72  1  0
 72 73  1  0
 64 74  1  0
 74 75  2  0
 75 76  1  0
 76 77  1  0
 77 78  1  0
 78 79  1  0
 79 80  1  0
 80 81  1  0
 79 82  2  0
 82 83  1  0
 83 84  1  0
 82 85  1  0
 76 86  2  0
 86 87  1  0
 75 88  1  0
 88 89  2  0
 89 90  1  0
 89 91  1  0
 91 92  1  0
 92 93  1  0
 93 94  2  0
 94 95  1  0
 95 96  1  0
 96 97  2  0
 97 98  1  0
 98 99  2  0
 99100  1  0
  5  1  2  0
 37 11  1  0
 45 41  2  0
 55 51  2  0
 87 61  1  0
 95 91  2  0
  9  4  1  0
 36 13  1  0
 49 44  1  0
 59 54  1  0
 86 63  1  0
 99 94  1  0
 22 15  2  0
 40 24  1  0
 72 65  2  0
 90 74  1  0
 33 27  2  0
 83 77  2  0
  1101  1  0
  6102  1  0
  7103  1  0
  8104  1  0
 12105  1  0
 18106  1  0
 18107  1  0
 19108  1  0
 19109  1  0
 19110  1  0
 30111  1  0
 30112  1  0
 31113  1  0
 31114  1  0
 31115  1  0
 38116  1  0
 46117  1  0
 47118  1  0
 48119  1  0
 56120  1  0
 57121  1  0
 58122  1  0
 62123  1  0
 68124  1  0
 68125  1  0
 69126  1  0
 69127  1  0
 69128  1  0
 80129  1  0
 80130  1  0
 81131  1  0
 81132  1  0
 81133  1  0
 88134  1  0
 93135  1  0
 96136  1  0
 97137  1  0
 98138  1  0
M  END

