
     RDKit          3D

185205  0  0  0  0  0  0  0  0999 V2000
   11.2000   -6.8596    7.8697 C   0  0  0  0  0  0  0  0  0  0  0  0
   11.0170   -5.5338    7.4889 C   0  0  0  0  0  0  0  0  0  0  0  0
    9.6659   -5.1453    7.4607 C   0  0  0  0  0  0  0  0  0  0  0  0
    9.1690   -3.8661    7.1339 C   0  0  0  0  0  0  0  0  0  0  0  0
   10.0575   -2.7619    6.7096 C   0  0  0  0  0  0  0  0  0  0  0  0
   10.8375   -2.8864    5.5510 C   0  0  0  0  0  0  0  0  0  0  0  0
   11.6736   -1.8417    5.1450 C   0  0  0  0  0  0  0  0  0  0  0  0
   12.4281   -1.9961    4.0275 F   0  0  0  0  0  0  0  0  0  0  0  0
   11.7301   -0.6483    5.8878 C   0  0  0  0  0  0  0  0  0  0  0  0
   12.6544    0.4659    5.4650 C   0  0  0  0  0  0  0  0  0  0  0  0
   14.0600    0.2398    6.0124 C   0  0  0  0  0  0  0  0  0  0  0  0
   10.9566   -0.5305    7.0563 C   0  0  0  0  0  0  0  0  0  0  0  0
   11.0122    0.5966    7.8110 F   0  0  0  0  0  0  0  0  0  0  0  0
   10.1209   -1.5777    7.4575 C   0  0  0  0  0  0  0  0  0  0  0  0
    7.7748   -3.6927    7.2061 C   0  0  0  0  0  0  0  0  0  0  0  0
    6.9014   -4.7210    7.5741 C   0  0  0  0  0  0  0  0  0  0  0  0
    7.3973   -6.0009    7.9012 C   0  0  0  0  0  0  0  0  0  0  0  0
    6.5038   -7.1117    8.2969 C   0  0  0  0  0  0  0  0  0  0  0  0
    5.6694   -6.9828    9.4164 C   0  0  0  0  0  0  0  0  0  0  0  0
    4.8086   -8.0207    9.7827 C   0  0  0  0  0  0  0  0  0  0  0  0
    4.7820   -9.2145    9.0388 C   0  0  0  0  0  0  0  0  0  0  0  0
    3.8184  -10.3176    9.4025 C   0  0  0  0  0  0  0  0  0  0  0  0
    2.4832  -10.1247    8.6910 C   0  0  0  0  0  0  0  0  0  0  0  0
    5.6196   -9.3431    7.9158 C   0  0  0  0  0  0  0  0  0  0  0  0
    6.4758   -8.2989    7.5518 C   0  0  0  0  0  0  0  0  0  0  0  0
    5.5998  -10.4736    7.1650 F   0  0  0  0  0  0  0  0  0  0  0  0
    3.9975   -7.8574   10.8602 F   0  0  0  0  0  0  0  0  0  0  0  0
    8.7930   -6.1752    7.8295 C   0  0  0  0  0  0  0  0  0  0  0  0
    9.6940   -7.5504    8.1849 S   0  0  0  0  0  0  0  0  0  0  0  0
    5.5481   -4.3474    7.5015 C   0  0  0  0  0  0  0  0  0  0  0  0
    5.3610   -3.0260    7.0914 C   0  0  0  0  0  0  0  0  0  0  0  0
    6.8747   -2.3382    6.7848 S   0  0  0  0  0  0  0  0  0  0  0  0
    4.0522   -2.4374    6.7378 C   0  0  0  0  0  0  0  0  0  0  0  0
    2.7274   -3.3690    6.2703 S   0  0  0  0  0  0  0  0  0  0  0  0
    1.7423   -2.1131    5.7535 C   0  0  0  0  0  0  0  0  0  0  0  0
    2.4445   -0.9177    5.9295 C   0  0  0  0  0  0  0  0  0  0  0  0
    3.7276   -1.0960    6.4980 C   0  0  0  0  0  0  0  0  0  0  0  0
    4.5324    0.0203    6.7727 C   0  0  0  0  0  0  0  0  0  0  0  0
    4.0719    1.2987    6.4385 C   0  0  0  0  0  0  0  0  0  0  0  0
    2.8111    1.4715    5.8536 C   0  0  0  0  0  0  0  0  0  0  0  0
    1.9853    0.3681    5.6036 C   0  0  0  0  0  0  0  0  0  0  0  0
    0.7468    0.5694    5.0904 F   0  0  0  0  0  0  0  0  0  0  0  0
    0.5340   -2.3250    4.9440 C   0  0  0  0  0  0  0  0  0  0  0  0
    0.4294   -1.9447    3.3104 S   0  0  0  0  0  0  0  0  0  0  0  0
   -1.0495   -2.6875    3.0135 C   0  0  0  0  0  0  0  0  0  0  0  0
   -1.4863   -3.2794    4.2065 C   0  0  0  0  0  0  0  0  0  0  0  0
   -0.5912   -3.0776    5.2808 C   0  0  0  0  0  0  0  0  0  0  0  0
   -0.8629   -3.6124    6.5451 C   0  0  0  0  0  0  0  0  0  0  0  0
   -2.0280   -4.3664    6.7294 C   0  0  0  0  0  0  0  0  0  0  0  0
   -2.9033   -4.5979    5.6581 C   0  0  0  0  0  0  0  0  0  0  0  0
   -2.6371   -4.0651    4.3882 C   0  0  0  0  0  0  0  0  0  0  0  0
   -3.4645   -4.3659    3.3587 F   0  0  0  0  0  0  0  0  0  0  0  0
   -1.7220   -2.6224    1.7108 C   0  0  0  0  0  0  0  0  0  0  0  0
   -3.0418   -2.2280    1.4959 C   0  0  0  0  0  0  0  0  0  0  0  0
   -3.3197   -1.9609    0.1429 C   0  0  0  0  0  0  0  0  0  0  0  0
   -4.5294   -1.4565   -0.3854 C   0  0  0  0  0  0  0  0  0  0  0  0
   -5.7076   -1.1903    0.4664 C   0  0  0  0  0  0  0  0  0  0  0  0
   -5.6358   -0.2561    1.5100 C   0  0  0  0  0  0  0  0  0  0  0  0
   -6.7452   -0.0200    2.3253 C   0  0  0  0  0  0  0  0  0  0  0  0
   -6.6405    0.8776    3.3387 F   0  0  0  0  0  0  0  0  0  0  0  0
   -7.9511   -0.7051    2.0975 C   0  0  0  0  0  0  0  0  0  0  0  0
   -9.1388   -0.4712    2.9979 C   0  0  0  0  0  0  0  0  0  0  0  0
   -9.0794   -1.3771    4.2243 C   0  0  0  0  0  0  0  0  0  0  0  0
   -8.0212   -1.6422    1.0515 C   0  0  0  0  0  0  0  0  0  0  0  0
   -9.1653   -2.3370    0.8206 F   0  0  0  0  0  0  0  0  0  0  0  0
   -6.9089   -1.8749    0.2377 C   0  0  0  0  0  0  0  0  0  0  0  0
   -4.5411   -1.1454   -1.7583 C   0  0  0  0  0  0  0  0  0  0  0  0
   -3.4270   -1.3394   -2.5806 C   0  0  0  0  0  0  0  0  0  0  0  0
   -2.2342   -1.8813   -2.0630 C   0  0  0  0  0  0  0  0  0  0  0  0
   -1.0286   -2.0479   -2.9034 C   0  0  0  0  0  0  0  0  0  0  0  0
   -1.0129   -3.0001   -3.9300 C   0  0  0  0  0  0  0  0  0  0  0  0
    0.1183   -3.1498   -4.7386 C   0  0  0  0  0  0  0  0  0  0  0  0
    1.2482   -2.3346   -4.5385 C   0  0  0  0  0  0  0  0  0  0  0  0
    2.4788   -2.5117   -5.3924 C   0  0  0  0  0  0  0  0  0  0  0  0
    3.4005   -3.5748   -4.8031 C   0  0  0  0  0  0  0  0  0  0  0  0
    1.2311   -1.3844   -3.4995 C   0  0  0  0  0  0  0  0  0  0  0  0
    0.0989   -1.2406   -2.6922 C   0  0  0  0  0  0  0  0  0  0  0  0
    2.3129   -0.5993   -3.2641 F   0  0  0  0  0  0  0  0  0  0  0  0
    0.1154   -4.0962   -5.7127 F   0  0  0  0  0  0  0  0  0  0  0  0
   -2.2136   -2.1637   -0.6891 C   0  0  0  0  0  0  0  0  0  0  0  0
   -0.9017   -2.6476    0.2391 S   0  0  0  0  0  0  0  0  0  0  0  0
   -3.5850   -0.7994   -3.8633 C   0  0  0  0  0  0  0  0  0  0  0  0
   -4.8055   -0.1493   -4.0405 C   0  0  0  0  0  0  0  0  0  0  0  0
   -5.7090   -0.2866   -2.6173 S   0  0  0  0  0  0  0  0  0  0  0  0
   -5.0913    0.7971   -5.1324 C   0  0  0  0  0  0  0  0  0  0  0  0
   -4.1273    1.3066   -5.9995 C   0  0  0  0  0  0  0  0  0  0  0  0
   -4.5771    2.4033   -6.7451 C   0  0  0  0  0  0  0  0  0  0  0  0
   -3.7915    3.1847   -7.6143 C   0  0  0  0  0  0  0  0  0  0  0  0
   -2.3474    2.9295   -7.7916 C   0  0  0  0  0  0  0  0  0  0  0  0
   -1.4758    3.0456   -6.6988 C   0  0  0  0  0  0  0  0  0  0  0  0
   -0.1234    2.7222   -6.8343 C   0  0  0  0  0  0  0  0  0  0  0  0
    0.6868    2.8064   -5.7488 F   0  0  0  0  0  0  0  0  0  0  0  0
    0.3824    2.2919   -8.0737 C   0  0  0  0  0  0  0  0  0  0  0  0
    1.8244    1.8654   -8.1944 C   0  0  0  0  0  0  0  0  0  0  0  0
    1.9884    0.4045   -7.7805 C   0  0  0  0  0  0  0  0  0  0  0  0
   -0.4921    2.1892   -9.1738 C   0  0  0  0  0  0  0  0  0  0  0  0
   -0.0388    1.7519  -10.3773 F   0  0  0  0  0  0  0  0  0  0  0  0
   -1.8454    2.5170   -9.0329 C   0  0  0  0  0  0  0  0  0  0  0  0
   -4.4200    4.2844   -8.2177 C   0  0  0  0  0  0  0  0  0  0  0  0
   -5.7606    4.6112   -7.9818 C   0  0  0  0  0  0  0  0  0  0  0  0
   -6.5493    3.8237   -7.1137 C   0  0  0  0  0  0  0  0  0  0  0  0
   -7.9607    4.1529   -6.8258 C   0  0  0  0  0  0  0  0  0  0  0  0
   -8.3556    4.4995   -5.5258 C   0  0  0  0  0  0  0  0  0  0  0  0
   -9.6927    4.7951   -5.2482 C   0  0  0  0  0  0  0  0  0  0  0  0
  -10.6590    4.7364   -6.2694 C   0  0  0  0  0  0  0  0  0  0  0  0
  -12.0997    5.0700   -5.9758 C   0  0  0  0  0  0  0  0  0  0  0  0
  -12.3538    6.5658   -6.1347 C   0  0  0  0  0  0  0  0  0  0  0  0
  -10.2557    4.4130   -7.5792 C   0  0  0  0  0  0  0  0  0  0  0  0
   -8.9161    4.1188   -7.8502 C   0  0  0  0  0  0  0  0  0  0  0  0
  -11.1580    4.3799   -8.5929 F   0  0  0  0  0  0  0  0  0  0  0  0
  -10.0448    5.1404   -3.9849 F   0  0  0  0  0  0  0  0  0  0  0  0
   -5.9136    2.7288   -6.4978 C   0  0  0  0  0  0  0  0  0  0  0  0
   -6.5203    1.6810   -5.3227 S   0  0  0  0  0  0  0  0  0  0  0  0
   -6.1491    5.8103   -8.6045 C   0  0  0  0  0  0  0  0  0  0  0  0
   -5.1059    6.4262   -9.2979 C   0  0  0  0  0  0  0  0  0  0  0  0
   -3.7204    5.4693   -9.1804 S   0  0  0  0  0  0  0  0  0  0  0  0
   -5.2091    7.7109  -10.0116 C   0  0  0  0  0  0  0  0  0  0  0  0
   -6.5975    8.2379  -10.8074 S   0  0  0  0  0  0  0  0  0  0  0  0
   -5.9957    9.7116  -11.3535 C   0  0  0  0  0  0  0  0  0  0  0  0
   -4.6878    9.8191  -10.8977 C   0  0  0  0  0  0  0  0  0  0  0  0
   -4.2396    8.7128  -10.1469 C   0  0  0  0  0  0  0  0  0  0  0  0
   -2.9560    8.7267   -9.5798 C   0  0  0  0  0  0  0  0  0  0  0  0
   -2.1225    9.8320   -9.7950 C   0  0  0  0  0  0  0  0  0  0  0  0
   -2.5673   10.9219  -10.5586 C   0  0  0  0  0  0  0  0  0  0  0  0
   -3.8539   10.9219  -11.1130 C   0  0  0  0  0  0  0  0  0  0  0  0
   -4.2829   11.9913  -11.8321 F   0  0  0  0  0  0  0  0  0  0  0  0
   12.1537   -7.3596    7.9567 H   0  0  0  0  0  0  0  0  0  0  0  0
   11.8428   -4.8761    7.2535 H   0  0  0  0  0  0  0  0  0  0  0  0
   10.7981   -3.7948    4.9615 H   0  0  0  0  0  0  0  0  0  0  0  0
   12.6988    0.5277    4.3559 H   0  0  0  0  0  0  0  0  0  0  0  0
   12.2743    1.4479    5.8261 H   0  0  0  0  0  0  0  0  0  0  0  0
   14.4819   -0.7075    5.6130 H   0  0  0  0  0  0  0  0  0  0  0  0
   14.0389    0.1925    7.1218 H   0  0  0  0  0  0  0  0  0  0  0  0
   14.7195    1.0793    5.7054 H   0  0  0  0  0  0  0  0  0  0  0  0
    9.5319   -1.4716    8.3597 H   0  0  0  0  0  0  0  0  0  0  0  0
    5.6830   -6.0733   10.0024 H   0  0  0  0  0  0  0  0  0  0  0  0
    4.2425  -11.3078    9.1275 H   0  0  0  0  0  0  0  0  0  0  0  0
    3.6493  -10.3364   10.5004 H   0  0  0  0  0  0  0  0  0  0  0  0
    2.6295  -10.1189    7.5889 H   0  0  0  0  0  0  0  0  0  0  0  0
    1.7977  -10.9589    8.9537 H   0  0  0  0  0  0  0  0  0  0  0  0
    2.0160   -9.1669    9.0050 H   0  0  0  0  0  0  0  0  0  0  0  0
    7.1064   -8.4111    6.6789 H   0  0  0  0  0  0  0  0  0  0  0  0
    4.7249   -5.0234    7.6916 H   0  0  0  0  0  0  0  0  0  0  0  0
    5.4918   -0.0763    7.2582 H   0  0  0  0  0  0  0  0  0  0  0  0
    4.6905    2.1629    6.6444 H   0  0  0  0  0  0  0  0  0  0  0  0
    2.4680    2.4694    5.6080 H   0  0  0  0  0  0  0  0  0  0  0  0
   -0.1910   -3.4475    7.3771 H   0  0  0  0  0  0  0  0  0  0  0  0
   -2.2478   -4.7855    7.7020 H   0  0  0  0  0  0  0  0  0  0  0  0
   -3.7848   -5.2066    5.8121 H   0  0  0  0  0  0  0  0  0  0  0  0
   -3.7467   -2.0639    2.3005 H   0  0  0  0  0  0  0  0  0  0  0  0
   -4.7160    0.2868    1.6936 H   0  0  0  0  0  0  0  0  0  0  0  0
   -9.1671    0.5897    3.3278 H   0  0  0  0  0  0  0  0  0  0  0  0
  -10.0862   -0.6610    2.4476 H   0  0  0  0  0  0  0  0  0  0  0  0
   -9.9816   -1.2096    4.8505 H   0  0  0  0  0  0  0  0  0  0  0  0
   -8.1796   -1.1476    4.8331 H   0  0  0  0  0  0  0  0  0  0  0  0
   -9.0533   -2.4441    3.9182 H   0  0  0  0  0  0  0  0  0  0  0  0
   -6.9779   -2.6000   -0.5634 H   0  0  0  0  0  0  0  0  0  0  0  0
   -1.8747   -3.6325   -4.0992 H   0  0  0  0  0  0  0  0  0  0  0  0
    2.1912   -2.8085   -6.4258 H   0  0  0  0  0  0  0  0  0  0  0  0
    3.0356   -1.5534   -5.4756 H   0  0  0  0  0  0  0  0  0  0  0  0
    3.7116   -3.2913   -3.7756 H   0  0  0  0  0  0  0  0  0  0  0  0
    2.8830   -4.5565   -4.7715 H   0  0  0  0  0  0  0  0  0  0  0  0
    4.3074   -3.6720   -5.4353 H   0  0  0  0  0  0  0  0  0  0  0  0
    0.0971   -0.4982   -1.9045 H   0  0  0  0  0  0  0  0  0  0  0  0
   -2.7950   -0.7973   -4.6010 H   0  0  0  0  0  0  0  0  0  0  0  0
   -3.1127    0.9395   -6.0418 H   0  0  0  0  0  0  0  0  0  0  0  0
   -1.8520    3.3623   -5.7340 H   0  0  0  0  0  0  0  0  0  0  0  0
    2.1837    1.9933   -9.2380 H   0  0  0  0  0  0  0  0  0  0  0  0
    2.4656    2.5020   -7.5491 H   0  0  0  0  0  0  0  0  0  0  0  0
    1.3816   -0.2539   -8.4392 H   0  0  0  0  0  0  0  0  0  0  0  0
    3.0547    0.1094   -7.8663 H   0  0  0  0  0  0  0  0  0  0  0  0
    1.6649    0.2619   -6.7270 H   0  0  0  0  0  0  0  0  0  0  0  0
   -2.5084    2.4200   -9.8829 H   0  0  0  0  0  0  0  0  0  0  0  0
   -7.6236    4.5501   -4.7299 H   0  0  0  0  0  0  0  0  0  0  0  0
  -12.7742    4.5093   -6.6600 H   0  0  0  0  0  0  0  0  0  0  0  0
  -12.3633    4.7598   -4.9425 H   0  0  0  0  0  0  0  0  0  0  0  0
  -12.1426    6.8825   -7.1781 H   0  0  0  0  0  0  0  0  0  0  0  0
  -13.4168    6.7870   -5.9015 H   0  0  0  0  0  0  0  0  0  0  0  0
  -11.7082    7.1418   -5.4382 H   0  0  0  0  0  0  0  0  0  0  0  0
   -8.6223    3.8592   -8.8602 H   0  0  0  0  0  0  0  0  0  0  0  0
   -7.1363    6.2461   -8.5136 H   0  0  0  0  0  0  0  0  0  0  0  0
   -6.5353   10.4443  -11.9383 H   0  0  0  0  0  0  0  0  0  0  0  0
   -2.5988    7.9187   -8.9617 H   0  0  0  0  0  0  0  0  0  0  0  0
   -1.1336    9.8546   -9.3565 H   0  0  0  0  0  0  0  0  0  0  0  0
   -1.9148   11.7732  -10.7085 H   0  0  0  0  0  0  0  0  0  0  0  0
  1  2  2  0
  2  3  1  0
  3  4  2  0
  4  5  1  0
  5  6  2  0
  6  7  1  0
  7  8  1  0
  7  9  2  0
  9 10  1  0
 10 11  1  0
  9 12  1  0
 12 13  1  0
 12 14  2  0
  4 15  1  0
 15 16  2  0
 16 17  1  0
 17 18  1  0
 18 19  2  0
 19 20  1  0
 20 21  2  0
 21 22  1  0
 22 23  1  0
 21 24  1  0
 24 25  2  0
 24 26  1  0
 20 27  1  0
 17 28  2  0
 28 29  1  0
 16 30  1  0
 30 31  2  0
 31 32  1  0
 31 33  1  0
 33 34  1  0
 34 35  1  0
 35 36  2  0
 36 37  1  0
 37 38  1  0
 38 39  2  0
 39 40  1  0
 40 41  2  0
 41 42  1  0
 35 43  1  0
 43 44  1  0
 44 45  1  0
 45 46  2  0
 46 47  1  0
 47 48  1  0
 48 49  2  0
 49 50  1  0
 50 51  2  0
 51 52  1  0
 45 53  1  0
 53 54  2  0
 54 55  1  0
 55 56  2  0
 56 57  1  0
 57 58  2  0
 58 59  1  0
 59 60  1  0
 59 61  2  0
 61 62  1  0
 62 63  1  0
 61 64  1  0
 64 65  1  0
 64 66  2  0
 56 67  1  0
 67 68  2  0
 68 69  1  0
 69 70  1  0
 70 71  2  0
 71 72  1  0
 72 73  2  0
 73 74  1  0
 74 75  1  0
 73 76  1  0
 76 77  2  0
 76 78  1  0
 72 79  1  0
 69 80  2  0
 80 81  1  0
 68 82  1  0
 82 83  2  0
 83 84  1  0
 83 85  1  0
 85 86  2  0
 86 87  1  0
 87 88  2  0
 88 89  1  0
 89 90  2  0
 90 91  1  0
 91 92  1  0
 91 93  2  0
 93 94  1  0
 94 95  1  0
 93 96  1  0
 96 97  1  0
 96 98  2  0
 88 99  1  0
 99100  2  0
100101  1  0
101102  1  0
102103  2  0
103104  1  0
104105  2  0
105106  1  0
106107  1  0
105108  1  0
108109  2  0
108110  1  0
104111  1  0
101112  2  0
112113  1  0
100114  1  0
114115  2  0
115116  1  0
115117  1  0
117118  1  0
118119  1  0
119120  2  0
120121  1  0
121122  1  0
122123  2  0
123124  1  0
124125  2  0
125126  1  0
 29  1  1  0
 37 33  2  0
 47 43  2  0
 81 53  1  0
113 85  1  0
121117  2  0
 28  3  1  0
 41 36  1  0
 51 46  1  0
 80 55  1  0
112 87  1  0
125120  1  0
 14  5  1  0
 32 15  1  0
 66 57  1  0
 84 67  1  0
 98 89  1  0
116 99  1  0
 25 18  1  0
 77 70  1  0
109102  1  0
  1127  1  0
  2128  1  0
  6129  1  0
 10130  1  0
 10131  1  0
 11132  1  0
 11133  1  0
 11134  1  0
 14135  1  0
 19136  1  0
 22137  1  0
 22138  1  0
 23139  1  0
 23140  1  0
 23141  1  0
 25142  1  0
 30143  1  0
 38144  1  0
 39145  1  0
 40146  1  0
 48147  1  0
 49148  1  0
 50149  1  0
 54150  1  0
 58151  1  0
 62152  1  0
 62153  1  0
 63154  1  0
 63155  1  0
 63156  1  0
 66157  1  0
 71158  1  0
 74159  1  0
 74160  1  0
 75161  1  0
 75162  1  0
 75163  1  0
 77164  1  0
 82165  1  0
 86166  1  0
 90167  1  0
 94168  1  0
 94169  1  0
 95170  1  0
 95171  1  0
 95172  1  0
 98173  1  0
103174  1  0
106175  1  0
106176  1  0
107177  1  0
107178  1  0
107179  1  0
109180  1  0
114181  1  0
119182  1  0
122183  1  0
123184  1  0
124185  1  0
M  END

