
     RDKit          3D

196219  0  0  0  0  0  0  0  0999 V2000
    3.3546   -1.6857    9.6943 C   0  0  0  0  0  0  0  0  0  0  0  0
    2.0004   -1.2252    8.8106 S   0  0  0  0  0  0  0  0  0  0  0  0
    1.0243   -2.5479    9.1896 C   0  0  0  0  0  0  0  0  0  0  0  0
    1.7591   -3.3832   10.0390 C   0  0  0  0  0  0  0  0  0  0  0  0
    3.0561   -2.8972   10.3031 C   0  0  0  0  0  0  0  0  0  0  0  0
    3.9339   -3.6084   11.1247 C   0  0  0  0  0  0  0  0  0  0  0  0
    3.5032   -4.8067   11.7073 C   0  0  0  0  0  0  0  0  0  0  0  0
    2.2030   -5.2782   11.4813 C   0  0  0  0  0  0  0  0  0  0  0  0
    1.3202   -4.5689   10.6533 C   0  0  0  0  0  0  0  0  0  0  0  0
    0.0482   -5.0151   10.5128 F   0  0  0  0  0  0  0  0  0  0  0  0
   -0.2690   -2.8080    8.5415 C   0  0  0  0  0  0  0  0  0  0  0  0
   -1.1877   -1.8220    8.1801 C   0  0  0  0  0  0  0  0  0  0  0  0
   -2.2056   -2.2987    7.3365 C   0  0  0  0  0  0  0  0  0  0  0  0
   -3.2119   -1.5220    6.7260 C   0  0  0  0  0  0  0  0  0  0  0  0
   -3.3360   -0.0730    6.9780 C   0  0  0  0  0  0  0  0  0  0  0  0
   -3.0695    1.1286    5.8317 S   0  0  0  0  0  0  0  0  0  0  0  0
   -3.3653    2.4259    6.8574 C   0  0  0  0  0  0  0  0  0  0  0  0
   -3.3559    3.8645    6.4368 C   0  0  0  0  0  0  0  0  0  0  0  0
   -4.7401    4.3029    5.9756 C   0  0  0  0  0  0  0  0  0  0  0  0
   -3.6977    1.9314    8.1184 C   0  0  0  0  0  0  0  0  0  0  0  0
   -4.1236    2.9552    9.4828 Cl  0  0  0  0  0  0  0  0  0  0  0  0
   -3.6690    0.5298    8.1886 C   0  0  0  0  0  0  0  0  0  0  0  0
   -4.0708   -0.3745    9.6433 Cl  0  0  0  0  0  0  0  0  0  0  0  0
   -4.0178   -2.1646    5.7709 C   0  0  0  0  0  0  0  0  0  0  0  0
   -3.8596   -3.5127    5.4319 C   0  0  0  0  0  0  0  0  0  0  0  0
   -2.8845   -4.2994    6.0774 C   0  0  0  0  0  0  0  0  0  0  0  0
   -2.6436   -5.7031    5.7047 C   0  0  0  0  0  0  0  0  0  0  0  0
   -2.0835   -6.2146    4.2034 S   0  0  0  0  0  0  0  0  0  0  0  0
   -2.0506   -7.8535    4.5770 C   0  0  0  0  0  0  0  0  0  0  0  0
   -1.7263   -8.9387    3.5972 C   0  0  0  0  0  0  0  0  0  0  0  0
   -2.9808   -9.3780    2.8565 C   0  0  0  0  0  0  0  0  0  0  0  0
   -2.4935   -8.0236    5.8881 C   0  0  0  0  0  0  0  0  0  0  0  0
   -2.8142   -6.8146    6.5243 C   0  0  0  0  0  0  0  0  0  0  0  0
   -3.4249   -6.7181    8.1702 Cl  0  0  0  0  0  0  0  0  0  0  0  0
   -2.6611   -9.5958    6.6602 Cl  0  0  0  0  0  0  0  0  0  0  0  0
   -2.0699   -3.6548    7.0249 C   0  0  0  0  0  0  0  0  0  0  0  0
   -0.6937   -4.2571    7.7819 S   0  0  0  0  0  0  0  0  0  0  0  0
   -4.6785   -3.9147    4.3628 C   0  0  0  0  0  0  0  0  0  0  0  0
   -5.4603   -2.8769    3.8502 C   0  0  0  0  0  0  0  0  0  0  0  0
   -5.1658   -1.4784    4.7523 S   0  0  0  0  0  0  0  0  0  0  0  0
   -6.0712   -2.8598    2.5119 C   0  0  0  0  0  0  0  0  0  0  0  0
   -5.6556   -3.6738    1.4548 C   0  0  0  0  0  0  0  0  0  0  0  0
   -5.9803   -3.1469    0.1941 C   0  0  0  0  0  0  0  0  0  0  0  0
   -5.5056   -3.6203   -1.0446 C   0  0  0  0  0  0  0  0  0  0  0  0
   -4.6091   -4.7862   -1.1415 C   0  0  0  0  0  0  0  0  0  0  0  0
   -4.9924   -6.2247   -1.9174 S   0  0  0  0  0  0  0  0  0  0  0  0
   -3.4987   -6.9603   -1.6728 C   0  0  0  0  0  0  0  0  0  0  0  0
   -3.1678   -8.3635   -2.0789 C   0  0  0  0  0  0  0  0  0  0  0  0
   -3.4252   -9.3288   -0.9297 C   0  0  0  0  0  0  0  0  0  0  0  0
   -2.6787   -6.0861   -0.9617 C   0  0  0  0  0  0  0  0  0  0  0  0
   -1.0346   -6.4741   -0.4732 Cl  0  0  0  0  0  0  0  0  0  0  0  0
   -3.2954   -4.8586   -0.6784 C   0  0  0  0  0  0  0  0  0  0  0  0
   -2.4767   -3.5298    0.1371 Cl  0  0  0  0  0  0  0  0  0  0  0  0
   -5.7589   -2.8203   -2.1707 C   0  0  0  0  0  0  0  0  0  0  0  0
   -6.4505   -1.6083   -2.0929 C   0  0  0  0  0  0  0  0  0  0  0  0
   -6.9788   -1.1682   -0.8634 C   0  0  0  0  0  0  0  0  0  0  0  0
   -7.6650    0.1277   -0.7416 C   0  0  0  0  0  0  0  0  0  0  0  0
   -9.2481    0.4140   -1.2237 S   0  0  0  0  0  0  0  0  0  0  0  0
   -9.2846    2.0311   -0.7587 C   0  0  0  0  0  0  0  0  0  0  0  0
  -10.5001    2.9025   -0.8204 C   0  0  0  0  0  0  0  0  0  0  0  0
  -11.3263    2.7546    0.4529 C   0  0  0  0  0  0  0  0  0  0  0  0
   -8.0511    2.3628   -0.1976 C   0  0  0  0  0  0  0  0  0  0  0  0
   -7.1372    1.2963   -0.1985 C   0  0  0  0  0  0  0  0  0  0  0  0
   -5.4885    1.4314    0.3982 Cl  0  0  0  0  0  0  0  0  0  0  0  0
   -7.6781    3.9495    0.4610 Cl  0  0  0  0  0  0  0  0  0  0  0  0
   -6.7075   -1.9558    0.2659 C   0  0  0  0  0  0  0  0  0  0  0  0
   -6.9072   -1.5337    1.8800 S   0  0  0  0  0  0  0  0  0  0  0  0
   -6.3336   -0.8252   -3.2551 C   0  0  0  0  0  0  0  0  0  0  0  0
   -5.5076   -1.3988   -4.2251 C   0  0  0  0  0  0  0  0  0  0  0  0
   -4.9968   -2.9093   -3.6638 S   0  0  0  0  0  0  0  0  0  0  0  0
   -4.7408   -0.6163   -5.2146 C   0  0  0  0  0  0  0  0  0  0  0  0
   -3.5875   -1.0963   -5.8377 C   0  0  0  0  0  0  0  0  0  0  0  0
   -2.6832   -0.0837   -6.2000 C   0  0  0  0  0  0  0  0  0  0  0  0
   -1.3518   -0.2912   -6.6083 C   0  0  0  0  0  0  0  0  0  0  0  0
   -0.8249   -1.6463   -6.8624 C   0  0  0  0  0  0  0  0  0  0  0  0
    0.3752   -2.4018   -5.9555 S   0  0  0  0  0  0  0  0  0  0  0  0
    0.3915   -3.8336   -6.8392 C   0  0  0  0  0  0  0  0  0  0  0  0
    1.3703   -4.9474   -6.6282 C   0  0  0  0  0  0  0  0  0  0  0  0
    2.6249   -4.7177   -7.4624 C   0  0  0  0  0  0  0  0  0  0  0  0
   -0.5425   -3.7340   -7.8687 C   0  0  0  0  0  0  0  0  0  0  0  0
   -0.8117   -4.9977   -9.0618 Cl  0  0  0  0  0  0  0  0  0  0  0  0
   -1.2335   -2.5125   -7.8733 C   0  0  0  0  0  0  0  0  0  0  0  0
   -2.4453   -2.0926   -9.0776 Cl  0  0  0  0  0  0  0  0  0  0  0  0
   -0.5064    0.8290   -6.5971 C   0  0  0  0  0  0  0  0  0  0  0  0
   -0.9503    2.1099   -6.2538 C   0  0  0  0  0  0  0  0  0  0  0  0
   -2.3116    2.3369   -5.9583 C   0  0  0  0  0  0  0  0  0  0  0  0
   -2.8140    3.6846   -5.6229 C   0  0  0  0  0  0  0  0  0  0  0  0
   -3.5840    4.1100   -4.1883 S   0  0  0  0  0  0  0  0  0  0  0  0
   -3.8514    5.7210   -4.5922 C   0  0  0  0  0  0  0  0  0  0  0  0
   -4.6270    6.6887   -3.7535 C   0  0  0  0  0  0  0  0  0  0  0  0
   -6.1144    6.6001   -4.0718 C   0  0  0  0  0  0  0  0  0  0  0  0
   -3.3481    5.9466   -5.8718 C   0  0  0  0  0  0  0  0  0  0  0  0
   -2.7602    4.8091   -6.4463 C   0  0  0  0  0  0  0  0  0  0  0  0
   -2.0935    4.7911   -8.0735 Cl  0  0  0  0  0  0  0  0  0  0  0  0
   -3.4609    7.4931   -6.7008 Cl  0  0  0  0  0  0  0  0  0  0  0  0
   -3.1459    1.2025   -5.9061 C   0  0  0  0  0  0  0  0  0  0  0  0
   -4.6679    1.0736   -5.2004 S   0  0  0  0  0  0  0  0  0  0  0  0
    0.1034    3.0258   -6.0616 C   0  0  0  0  0  0  0  0  0  0  0  0
    1.3644    2.4618   -6.2676 C   0  0  0  0  0  0  0  0  0  0  0  0
    1.1683    0.8429   -6.6958 S   0  0  0  0  0  0  0  0  0  0  0  0
    2.6421    2.9977   -5.7683 C   0  0  0  0  0  0  0  0  0  0  0  0
    3.7705    2.0521   -4.9795 S   0  0  0  0  0  0  0  0  0  0  0  0
    4.8530    3.2539   -4.5185 C   0  0  0  0  0  0  0  0  0  0  0  0
    4.3376    4.4742   -5.0246 C   0  0  0  0  0  0  0  0  0  0  0  0
    3.0921    4.3179   -5.6986 C   0  0  0  0  0  0  0  0  0  0  0  0
    2.4379    5.4200   -6.2630 C   0  0  0  0  0  0  0  0  0  0  0  0
    3.0066    6.6879   -6.1496 C   0  0  0  0  0  0  0  0  0  0  0  0
    4.2387    6.8547   -5.5103 C   0  0  0  0  0  0  0  0  0  0  0  0
    4.9207    5.7592   -4.9637 C   0  0  0  0  0  0  0  0  0  0  0  0
    6.1546    5.9793   -4.4652 F   0  0  0  0  0  0  0  0  0  0  0  0
    6.0159    2.9302   -3.6460 C   0  0  0  0  0  0  0  0  0  0  0  0
    6.3534    1.6248   -3.2661 C   0  0  0  0  0  0  0  0  0  0  0  0
    7.4210    1.5528   -2.3601 C   0  0  0  0  0  0  0  0  0  0  0  0
    7.9476    0.3800   -1.7834 C   0  0  0  0  0  0  0  0  0  0  0  0
    7.3580   -0.9451   -2.0394 C   0  0  0  0  0  0  0  0  0  0  0  0
    7.4421   -1.7761   -3.4983 S   0  0  0  0  0  0  0  0  0  0  0  0
    6.5403   -3.1053   -2.9918 C   0  0  0  0  0  0  0  0  0  0  0  0
    6.1477   -4.2576   -3.8678 C   0  0  0  0  0  0  0  0  0  0  0  0
    4.8245   -3.9708   -4.5688 C   0  0  0  0  0  0  0  0  0  0  0  0
    6.1409   -2.9015   -1.6726 C   0  0  0  0  0  0  0  0  0  0  0  0
    5.1326   -4.0300   -0.7766 Cl  0  0  0  0  0  0  0  0  0  0  0  0
    6.6070   -1.6929   -1.1362 C   0  0  0  0  0  0  0  0  0  0  0  0
    6.2247   -1.1451    0.4914 Cl  0  0  0  0  0  0  0  0  0  0  0  0
    9.0219    0.5369   -0.8939 C   0  0  0  0  0  0  0  0  0  0  0  0
    9.5550    1.7870   -0.5689 C   0  0  0  0  0  0  0  0  0  0  0  0
    9.0081    2.9619   -1.1250 C   0  0  0  0  0  0  0  0  0  0  0  0
    9.5308    4.2975   -0.7912 C   0  0  0  0  0  0  0  0  0  0  0  0
    8.6922    5.4640    0.0800 S   0  0  0  0  0  0  0  0  0  0  0  0
    9.9244    6.6099    0.0700 C   0  0  0  0  0  0  0  0  0  0  0  0
    9.8058    7.9836    0.6547 C   0  0  0  0  0  0  0  0  0  0  0  0
    9.1515    8.9340   -0.3403 C   0  0  0  0  0  0  0  0  0  0  0  0
   11.0070    6.0994   -0.6447 C   0  0  0  0  0  0  0  0  0  0  0  0
   10.7902    4.7958   -1.1180 C   0  0  0  0  0  0  0  0  0  0  0  0
   11.9685    3.9030   -2.0726 Cl  0  0  0  0  0  0  0  0  0  0  0  0
   12.4906    6.9982   -0.9441 Cl  0  0  0  0  0  0  0  0  0  0  0  0
    7.9312    2.8030   -2.0138 C   0  0  0  0  0  0  0  0  0  0  0  0
    7.0471    3.9868   -2.8173 S   0  0  0  0  0  0  0  0  0  0  0  0
   10.6116    1.7097    0.3535 C   0  0  0  0  0  0  0  0  0  0  0  0
   10.9141    0.4043    0.7321 C   0  0  0  0  0  0  0  0  0  0  0  0
    9.8684   -0.6552   -0.0620 S   0  0  0  0  0  0  0  0  0  0  0  0
    4.2858   -1.1438    9.7599 H   0  0  0  0  0  0  0  0  0  0  0  0
    4.9326   -3.2371   11.3187 H   0  0  0  0  0  0  0  0  0  0  0  0
    4.1736   -5.3634   12.3490 H   0  0  0  0  0  0  0  0  0  0  0  0
    1.8747   -6.1910   11.9604 H   0  0  0  0  0  0  0  0  0  0  0  0
   -1.0857   -0.7840    8.4699 H   0  0  0  0  0  0  0  0  0  0  0  0
   -3.0214    4.5058    7.2789 H   0  0  0  0  0  0  0  0  0  0  0  0
   -2.6359    3.9985    5.6016 H   0  0  0  0  0  0  0  0  0  0  0  0
   -4.7012    5.3634    5.6503 H   0  0  0  0  0  0  0  0  0  0  0  0
   -5.0803    3.6803    5.1204 H   0  0  0  0  0  0  0  0  0  0  0  0
   -5.4720    4.2113    6.8058 H   0  0  0  0  0  0  0  0  0  0  0  0
   -1.2777   -9.8083    4.1204 H   0  0  0  0  0  0  0  0  0  0  0  0
   -0.9810   -8.5608    2.8674 H   0  0  0  0  0  0  0  0  0  0  0  0
   -3.4263   -8.5217    2.3062 H   0  0  0  0  0  0  0  0  0  0  0  0
   -2.7202  -10.1779    2.1300 H   0  0  0  0  0  0  0  0  0  0  0  0
   -3.7270   -9.7813    3.5729 H   0  0  0  0  0  0  0  0  0  0  0  0
   -4.6472   -4.8986    3.9207 H   0  0  0  0  0  0  0  0  0  0  0  0
   -5.0198   -4.5379    1.5882 H   0  0  0  0  0  0  0  0  0  0  0  0
   -3.7921   -8.6527   -2.9504 H   0  0  0  0  0  0  0  0  0  0  0  0
   -2.1043   -8.4240   -2.3881 H   0  0  0  0  0  0  0  0  0  0  0  0
   -4.4807   -9.2552   -0.5890 H   0  0  0  0  0  0  0  0  0  0  0  0
   -2.7479   -9.0948   -0.0825 H   0  0  0  0  0  0  0  0  0  0  0  0
   -3.2299  -10.3682   -1.2656 H   0  0  0  0  0  0  0  0  0  0  0  0
  -11.1197    2.6077   -1.6941 H   0  0  0  0  0  0  0  0  0  0  0  0
  -10.2064    3.9640   -0.9543 H   0  0  0  0  0  0  0  0  0  0  0  0
  -12.2177    3.4125    0.3943 H   0  0  0  0  0  0  0  0  0  0  0  0
  -10.7266    3.0436    1.3433 H   0  0  0  0  0  0  0  0  0  0  0  0
  -11.6706    1.7031    0.5699 H   0  0  0  0  0  0  0  0  0  0  0  0
   -6.6921    0.1956   -3.3160 H   0  0  0  0  0  0  0  0  0  0  0  0
   -3.3381   -2.1492   -5.8739 H   0  0  0  0  0  0  0  0  0  0  0  0
    1.6460   -4.9979   -5.5548 H   0  0  0  0  0  0  0  0  0  0  0  0
    0.9096   -5.9183   -6.9053 H   0  0  0  0  0  0  0  0  0  0  0  0
    3.1083   -3.7600   -7.1724 H   0  0  0  0  0  0  0  0  0  0  0  0
    2.3681   -4.6829   -8.5432 H   0  0  0  0  0  0  0  0  0  0  0  0
    3.3404   -5.5504   -7.2930 H   0  0  0  0  0  0  0  0  0  0  0  0
   -4.4644    6.4535   -2.6799 H   0  0  0  0  0  0  0  0  0  0  0  0
   -4.2680    7.7242   -3.9331 H   0  0  0  0  0  0  0  0  0  0  0  0
   -6.6796    7.2885   -3.4097 H   0  0  0  0  0  0  0  0  0  0  0  0
   -6.4878    5.5640   -3.9123 H   0  0  0  0  0  0  0  0  0  0  0  0
   -6.2979    6.8947   -5.1285 H   0  0  0  0  0  0  0  0  0  0  0  0
   -0.0445    4.0147   -5.6479 H   0  0  0  0  0  0  0  0  0  0  0  0
    1.5112    5.3046   -6.8061 H   0  0  0  0  0  0  0  0  0  0  0  0
    2.5055    7.5435   -6.5806 H   0  0  0  0  0  0  0  0  0  0  0  0
    4.6822    7.8403   -5.4618 H   0  0  0  0  0  0  0  0  0  0  0  0
    5.8255    0.7489   -3.6171 H   0  0  0  0  0  0  0  0  0  0  0  0
    6.9397   -4.4329   -4.6275 H   0  0  0  0  0  0  0  0  0  0  0  0
    6.0504   -5.1791   -3.2590 H   0  0  0  0  0  0  0  0  0  0  0  0
    4.5365   -4.8521   -5.1792 H   0  0  0  0  0  0  0  0  0  0  0  0
    4.0257   -3.7797   -3.8230 H   0  0  0  0  0  0  0  0  0  0  0  0
    4.9260   -3.0900   -5.2371 H   0  0  0  0  0  0  0  0  0  0  0  0
    9.1894    7.9338    1.5768 H   0  0  0  0  0  0  0  0  0  0  0  0
   10.8059    8.3705    0.9398 H   0  0  0  0  0  0  0  0  0  0  0  0
    9.0722    9.9473    0.1075 H   0  0  0  0  0  0  0  0  0  0  0  0
    9.7607    8.9981   -1.2674 H   0  0  0  0  0  0  0  0  0  0  0  0
    8.1299    8.5798   -0.5990 H   0  0  0  0  0  0  0  0  0  0  0  0
   11.1454    2.5689    0.7392 H   0  0  0  0  0  0  0  0  0  0  0  0
   11.6893    0.1201    1.4302 H   0  0  0  0  0  0  0  0  0  0  0  0
  1  2  1  0
  2  3  1  0
  3  4  2  0
  4  5  1  0
  5  6  1  0
  6  7  2  0
  7  8  1  0
  8  9  2  0
  9 10  1  0
  3 11  1  0
 11 12  2  0
 12 13  1  0
 13 14  2  0
 14 15  1  0
 15 16  1  0
 16 17  1  0
 17 18  1  0
 18 19  1  0
 17 20  2  0
 20 21  1  0
 20 22  1  0
 22 23  1  0
 14 24  1  0
 24 25  2  0
 25 26  1  0
 26 27  1  0
 27 28  1  0
 28 29  1  0
 29 30  1  0
 30 31  1  0
 29 32  2  0
 32 33  1  0
 33 34  1  0
 32 35  1  0
 26 36  2  0
 36 37  1  0
 25 38  1  0
 38 39  2  0
 39 40  1  0
 39 41  1  0
 41 42  2  0
 42 43  1  0
 43 44  2  0
 44 45  1  0
 45 46  1  0
 46 47  1  0
 47 48  1  0
 48 49  1  0
 47 50  2  0
 50 51  1  0
 50 52  1  0
 52 53  1  0
 44 54  1  0
 54 55  2  0
 55 56  1  0
 56 57  1  0
 57 58  1  0
 58 59  1  0
 59 60  1  0
 60 61  1  0
 59 62  2  0
 62 63  1  0
 63 64  1  0
 62 65  1  0
 56 66  2  0
 66 67  1  0
 55 68  1  0
 68 69  2  0
 69 70  1  0
 69 71  1  0
 71 72  2  0
 72 73  1  0
 73 74  2  0
 74 75  1  0
 75 76  1  0
 76 77  1  0
 77 78  1  0
 78 79  1  0
 77 80  2  0
 80 81  1  0
 80 82  1  0
 82 83  1  0
 74 84  1  0
 84 85  2  0
 85 86  1  0
 86 87  1  0
 87 88  1  0
 88 89  1  0
 89 90  1  0
 90 91  1  0
 89 92  2  0
 92 93  1  0
 93 94  1  0
 92 95  1  0
 86 96  2  0
 96 97  1  0
 85 98  1  0
 98 99  2  0
 99100  1  0
 99101  1  0
101102  1  0
102103  1  0
103104  2  0
104105  1  0
105106  1  0
106107  2  0
107108  1  0
108109  2  0
109110  1  0
103111  1  0
111112  2  0
112113  1  0
113114  2  0
114115  1  0
115116  1  0
116117  1  0
117118  1  0
118119  1  0
117120  2  0
120121  1  0
120122  1  0
122123  1  0
114124  1  0
124125  2  0
125126  1  0
126127  1  0
127128  1  0
128129  1  0
129130  1  0
130131  1  0
129132  2  0
132133  1  0
133134  1  0
132135  1  0
126136  2  0
136137  1  0
125138  1  0
138139  2  0
139140  1  0
  5  1  2  0
 37 11  1  0
 67 41  1  0
 97 71  1  0
105101  2  0
137111  1  0
  9  4  1  0
 36 13  1  0
 66 43  1  0
 96 73  1  0
109104  1  0
136113  1  0
 22 15  2  0
 40 24  1  0
 52 45  2  0
 70 54  1  0
 82 75  2  0
100 84  1  0
122115  2  0
140124  1  0
 33 27  2  0
 63 57  2  0
 93 87  2  0
133127  2  0
  1141  1  0
  6142  1  0
  7143  1  0
  8144  1  0
 12145  1  0
 18146  1  0
 18147  1  0
 19148  1  0
 19149  1  0
 19150  1  0
 30151  1  0
 30152  1  0
 31153  1  0
 31154  1  0
 31155  1  0
 38156  1  0
 42157  1  0
 48158  1  0
 48159  1  0
 49160  1  0
 49161  1  0
 49162  1  0
 60163  1  0
 60164  1  0
 61165  1  0
 61166  1  0
 61167  1  0
 68168  1  0
 72169  1  0
 78170  1  0
 78171  1  0
 79172  1  0
 79173  1  0
 79174  1  0
 90175  1  0
 90176  1  0
 91177  1  0
 91178  1  0
 91179  1  0
 98180  1  0
106181  1  0
107182  1  0
108183  1  0
112184  1  0
118185  1  0
118186  1  0
119187  1  0
119188  1  0
119189  1  0
130190  1  0
130191  1  0
131192  1  0
131193  1  0
131194  1  0
138195  1  0
139196  1  0
M  END

