
     RDKit          3D

167187  0  0  0  0  0  0  0  0999 V2000
    8.0529  -12.6418    8.1520 C   0  0  0  0  0  0  0  0  0  0  0  0
    8.1461  -11.2575    8.0298 C   0  0  0  0  0  0  0  0  0  0  0  0
    7.1235  -10.7018    7.2434 C   0  0  0  0  0  0  0  0  0  0  0  0
    6.9612   -9.3384    6.9204 C   0  0  0  0  0  0  0  0  0  0  0  0
    7.9321   -8.3109    7.3392 C   0  0  0  0  0  0  0  0  0  0  0  0
    7.5606   -6.9573    8.2677 S   0  0  0  0  0  0  0  0  0  0  0  0
    9.0888   -6.2566    8.1862 C   0  0  0  0  0  0  0  0  0  0  0  0
    9.4328   -4.9085    8.7415 C   0  0  0  0  0  0  0  0  0  0  0  0
    9.0905   -3.8117    7.7394 C   0  0  0  0  0  0  0  0  0  0  0  0
    9.9064   -7.0644    7.3963 C   0  0  0  0  0  0  0  0  0  0  0  0
   11.5634   -6.6523    6.9768 Cl  0  0  0  0  0  0  0  0  0  0  0  0
    9.2599   -8.2175    6.9252 C   0  0  0  0  0  0  0  0  0  0  0  0
   10.0209   -9.3689    5.8352 Cl  0  0  0  0  0  0  0  0  0  0  0  0
    5.8566   -9.0039    6.1210 C   0  0  0  0  0  0  0  0  0  0  0  0
    4.9639   -9.9614    5.6255 C   0  0  0  0  0  0  0  0  0  0  0  0
    5.1277  -11.3237    5.9479 C   0  0  0  0  0  0  0  0  0  0  0  0
    4.2303  -12.3617    5.4104 C   0  0  0  0  0  0  0  0  0  0  0  0
    4.1259  -12.7859    3.7871 S   0  0  0  0  0  0  0  0  0  0  0  0
    2.9609  -13.9820    3.9898 C   0  0  0  0  0  0  0  0  0  0  0  0
    2.4286  -14.8442    2.8854 C   0  0  0  0  0  0  0  0  0  0  0  0
    3.2582  -16.1152    2.7451 C   0  0  0  0  0  0  0  0  0  0  0  0
    2.6533  -14.0801    5.3464 C   0  0  0  0  0  0  0  0  0  0  0  0
    3.3611  -13.1666    6.1428 C   0  0  0  0  0  0  0  0  0  0  0  0
    3.1346  -13.0225    7.8787 Cl  0  0  0  0  0  0  0  0  0  0  0  0
    1.4928  -15.2290    5.9984 Cl  0  0  0  0  0  0  0  0  0  0  0  0
    6.2195  -11.6563    6.7672 C   0  0  0  0  0  0  0  0  0  0  0  0
    6.7050  -13.1793    7.2939 S   0  0  0  0  0  0  0  0  0  0  0  0
    3.9653   -9.4147    4.8026 C   0  0  0  0  0  0  0  0  0  0  0  0
    4.0855   -8.0346    4.6484 C   0  0  0  0  0  0  0  0  0  0  0  0
    5.4181   -7.4910    5.5286 S   0  0  0  0  0  0  0  0  0  0  0  0
    3.2546   -7.1940    3.7753 C   0  0  0  0  0  0  0  0  0  0  0  0
    3.2961   -5.8018    3.7145 C   0  0  0  0  0  0  0  0  0  0  0  0
    2.4855   -5.2751    2.6950 C   0  0  0  0  0  0  0  0  0  0  0  0
    2.3518   -3.9143    2.3500 C   0  0  0  0  0  0  0  0  0  0  0  0
    3.0358   -2.8480    3.1035 C   0  0  0  0  0  0  0  0  0  0  0  0
    4.7035   -2.6538    3.2066 S   0  0  0  0  0  0  0  0  0  0  0  0
    4.6632   -1.3169    4.2279 C   0  0  0  0  0  0  0  0  0  0  0  0
    5.8763   -0.6677    4.8234 C   0  0  0  0  0  0  0  0  0  0  0  0
    6.2698   -1.3544    6.1253 C   0  0  0  0  0  0  0  0  0  0  0  0
    3.3332   -1.0175    4.5212 C   0  0  0  0  0  0  0  0  0  0  0  0
    2.8458    0.2755    5.6088 Cl  0  0  0  0  0  0  0  0  0  0  0  0
    2.4204   -1.8704    3.8832 C   0  0  0  0  0  0  0  0  0  0  0  0
    0.6794   -1.7669    4.1142 Cl  0  0  0  0  0  0  0  0  0  0  0  0
    1.5429   -3.6167    1.2412 C   0  0  0  0  0  0  0  0  0  0  0  0
    0.8682   -4.6037    0.5160 C   0  0  0  0  0  0  0  0  0  0  0  0
    0.9660   -5.9584    0.8863 C   0  0  0  0  0  0  0  0  0  0  0  0
    0.2889   -7.0232    0.1263 C   0  0  0  0  0  0  0  0  0  0  0  0
    0.6150   -7.4179   -1.4760 S   0  0  0  0  0  0  0  0  0  0  0  0
   -0.5120   -8.6616   -1.5870 C   0  0  0  0  0  0  0  0  0  0  0  0
   -0.8103   -9.4306   -2.8391 C   0  0  0  0  0  0  0  0  0  0  0  0
   -1.9155   -8.7503   -3.6379 C   0  0  0  0  0  0  0  0  0  0  0  0
   -1.1781   -8.7712   -0.3658 C   0  0  0  0  0  0  0  0  0  0  0  0
   -0.7226   -7.8572    0.5975 C   0  0  0  0  0  0  0  0  0  0  0  0
   -1.4146   -7.7301    2.2082 Cl  0  0  0  0  0  0  0  0  0  0  0  0
   -2.4801   -9.9150   -0.0701 Cl  0  0  0  0  0  0  0  0  0  0  0  0
    1.7947   -6.2591    1.9797 C   0  0  0  0  0  0  0  0  0  0  0  0
    2.2029   -7.7740    2.5891 S   0  0  0  0  0  0  0  0  0  0  0  0
    0.1370   -4.0923   -0.5663 C   0  0  0  0  0  0  0  0  0  0  0  0
    0.2856   -2.7152   -0.7184 C   0  0  0  0  0  0  0  0  0  0  0  0
    1.2651   -2.1196    0.5223 S   0  0  0  0  0  0  0  0  0  0  0  0
   -0.3036   -1.8933   -1.7868 C   0  0  0  0  0  0  0  0  0  0  0  0
   -0.8618   -0.3187   -1.5689 S   0  0  0  0  0  0  0  0  0  0  0  0
   -1.3606   -0.0569   -3.1533 C   0  0  0  0  0  0  0  0  0  0  0  0
   -1.0922   -1.2112   -3.8936 C   0  0  0  0  0  0  0  0  0  0  0  0
   -0.4828   -2.2310   -3.1338 C   0  0  0  0  0  0  0  0  0  0  0  0
   -0.0694   -3.4179   -3.7553 C   0  0  0  0  0  0  0  0  0  0  0  0
   -0.3307   -3.6068   -5.1173 C   0  0  0  0  0  0  0  0  0  0  0  0
   -0.9883   -2.6154   -5.8598 C   0  0  0  0  0  0  0  0  0  0  0  0
   -1.3708   -1.4111   -5.2560 C   0  0  0  0  0  0  0  0  0  0  0  0
   -2.0223   -0.4774   -5.9926 F   0  0  0  0  0  0  0  0  0  0  0  0
   -1.8542    1.2317   -3.6571 C   0  0  0  0  0  0  0  0  0  0  0  0
   -3.2768    1.9784   -3.1574 S   0  0  0  0  0  0  0  0  0  0  0  0
   -3.1554    3.3245   -4.1649 C   0  0  0  0  0  0  0  0  0  0  0  0
   -1.9770    3.2110   -4.9097 C   0  0  0  0  0  0  0  0  0  0  0  0
   -1.2466    2.0438   -4.6139 C   0  0  0  0  0  0  0  0  0  0  0  0
   -0.0274    1.7853   -5.2516 C   0  0  0  0  0  0  0  0  0  0  0  0
    0.4433    2.6845   -6.2156 C   0  0  0  0  0  0  0  0  0  0  0  0
   -0.3001    3.8276   -6.5415 C   0  0  0  0  0  0  0  0  0  0  0  0
   -1.5145    4.0986   -5.8962 C   0  0  0  0  0  0  0  0  0  0  0  0
   -2.2289    5.1907   -6.2624 F   0  0  0  0  0  0  0  0  0  0  0  0
   -4.1363    4.4169   -4.2110 C   0  0  0  0  0  0  0  0  0  0  0  0
   -3.8104    6.0172   -3.8344 S   0  0  0  0  0  0  0  0  0  0  0  0
   -5.3331    6.6483   -4.1974 C   0  0  0  0  0  0  0  0  0  0  0  0
   -6.1363    5.5798   -4.6485 C   0  0  0  0  0  0  0  0  0  0  0  0
   -5.4618    4.3345   -4.6263 C   0  0  0  0  0  0  0  0  0  0  0  0
   -6.0956    3.1634   -5.0585 C   0  0  0  0  0  0  0  0  0  0  0  0
   -7.4151    3.2300   -5.5148 C   0  0  0  0  0  0  0  0  0  0  0  0
   -8.0809    4.4607   -5.5770 C   0  0  0  0  0  0  0  0  0  0  0  0
   -7.4474    5.6411   -5.1663 C   0  0  0  0  0  0  0  0  0  0  0  0
   -8.0977    6.8111   -5.3566 F   0  0  0  0  0  0  0  0  0  0  0  0
   -5.6432    8.0869   -4.0479 C   0  0  0  0  0  0  0  0  0  0  0  0
   -4.6872    9.1032   -4.1022 C   0  0  0  0  0  0  0  0  0  0  0  0
   -5.2151   10.3794   -3.8524 C   0  0  0  0  0  0  0  0  0  0  0  0
   -4.4976   11.5902   -3.8487 C   0  0  0  0  0  0  0  0  0  0  0  0
   -3.0366   11.6250   -4.0289 C   0  0  0  0  0  0  0  0  0  0  0  0
   -1.9289   11.0331   -2.9129 S   0  0  0  0  0  0  0  0  0  0  0  0
   -0.5550   11.4581   -3.7853 C   0  0  0  0  0  0  0  0  0  0  0  0
    0.8516   11.2688   -3.3027 C   0  0  0  0  0  0  0  0  0  0  0  0
    1.3577   12.5289   -2.6091 C   0  0  0  0  0  0  0  0  0  0  0  0
   -0.9512   12.0910   -4.9632 C   0  0  0  0  0  0  0  0  0  0  0  0
    0.1776   12.7179   -6.1563 Cl  0  0  0  0  0  0  0  0  0  0  0  0
   -2.3441   12.1795   -5.1019 C   0  0  0  0  0  0  0  0  0  0  0  0
   -3.1351   12.8861   -6.5054 Cl  0  0  0  0  0  0  0  0  0  0  0  0
   -5.2328   12.7638   -3.6170 C   0  0  0  0  0  0  0  0  0  0  0  0
   -6.6114   12.7563   -3.3865 C   0  0  0  0  0  0  0  0  0  0  0  0
   -7.3257   11.5389   -3.3591 C   0  0  0  0  0  0  0  0  0  0  0  0
   -8.7817   11.4901   -3.1317 C   0  0  0  0  0  0  0  0  0  0  0  0
   -9.9050   10.9387   -4.2571 S   0  0  0  0  0  0  0  0  0  0  0  0
  -11.2642   11.2312   -3.3118 C   0  0  0  0  0  0  0  0  0  0  0  0
  -12.6775   11.0318   -3.7707 C   0  0  0  0  0  0  0  0  0  0  0  0
  -13.2033   12.2921   -4.4502 C   0  0  0  0  0  0  0  0  0  0  0  0
  -10.8548   11.7830   -2.0980 C   0  0  0  0  0  0  0  0  0  0  0  0
   -9.4614   11.9186   -1.9930 C   0  0  0  0  0  0  0  0  0  0  0  0
   -8.6583   12.5239   -0.5502 Cl  0  0  0  0  0  0  0  0  0  0  0  0
  -11.9675   12.2733   -0.8285 Cl  0  0  0  0  0  0  0  0  0  0  0  0
   -6.5893   10.3668   -3.6016 C   0  0  0  0  0  0  0  0  0  0  0  0
   -7.1322    8.7754   -3.6367 S   0  0  0  0  0  0  0  0  0  0  0  0
   -7.1437   14.0445   -3.2098 C   0  0  0  0  0  0  0  0  0  0  0  0
   -6.1835   15.0488   -3.2751 C   0  0  0  0  0  0  0  0  0  0  0  0
   -4.6757   14.3508   -3.5622 S   0  0  0  0  0  0  0  0  0  0  0  0
    8.7367  -13.2693    8.7071 H   0  0  0  0  0  0  0  0  0  0  0  0
    8.9360  -10.6818    8.4951 H   0  0  0  0  0  0  0  0  0  0  0  0
    8.8589   -4.7413    9.6786 H   0  0  0  0  0  0  0  0  0  0  0  0
   10.5139   -4.8637    8.9909 H   0  0  0  0  0  0  0  0  0  0  0  0
    8.0029   -3.8221    7.5153 H   0  0  0  0  0  0  0  0  0  0  0  0
    9.6592   -3.9568    6.7965 H   0  0  0  0  0  0  0  0  0  0  0  0
    9.3544   -2.8211    8.1674 H   0  0  0  0  0  0  0  0  0  0  0  0
    2.4568  -14.2780    1.9283 H   0  0  0  0  0  0  0  0  0  0  0  0
    1.3699  -15.1145    3.0898 H   0  0  0  0  0  0  0  0  0  0  0  0
    3.1782  -16.7304    3.6664 H   0  0  0  0  0  0  0  0  0  0  0  0
    4.3245  -15.8658    2.5641 H   0  0  0  0  0  0  0  0  0  0  0  0
    2.8839  -16.7098    1.8859 H   0  0  0  0  0  0  0  0  0  0  0  0
    3.1901   -9.9986    4.3245 H   0  0  0  0  0  0  0  0  0  0  0  0
    3.9087   -5.2010    4.3722 H   0  0  0  0  0  0  0  0  0  0  0  0
    5.6772    0.4075    5.0168 H   0  0  0  0  0  0  0  0  0  0  0  0
    6.7195   -0.7328    4.1035 H   0  0  0  0  0  0  0  0  0  0  0  0
    6.4773   -2.4314    5.9461 H   0  0  0  0  0  0  0  0  0  0  0  0
    5.4520   -1.2619    6.8715 H   0  0  0  0  0  0  0  0  0  0  0  0
    7.1832   -0.8790    6.5377 H   0  0  0  0  0  0  0  0  0  0  0  0
    0.1080   -9.4901   -3.4622 H   0  0  0  0  0  0  0  0  0  0  0  0
   -1.1168  -10.4669   -2.5851 H   0  0  0  0  0  0  0  0  0  0  0  0
   -2.1138   -9.3278   -4.5648 H   0  0  0  0  0  0  0  0  0  0  0  0
   -2.8516   -8.7040   -3.0405 H   0  0  0  0  0  0  0  0  0  0  0  0
   -1.6091   -7.7200   -3.9204 H   0  0  0  0  0  0  0  0  0  0  0  0
   -0.4907   -4.6966   -1.2059 H   0  0  0  0  0  0  0  0  0  0  0  0
    0.4687   -4.1828   -3.2192 H   0  0  0  0  0  0  0  0  0  0  0  0
   -0.0206   -4.5239   -5.6024 H   0  0  0  0  0  0  0  0  0  0  0  0
   -1.1929   -2.7805   -6.9105 H   0  0  0  0  0  0  0  0  0  0  0  0
    0.5525    0.9034   -5.0142 H   0  0  0  0  0  0  0  0  0  0  0  0
    1.3827    2.4905   -6.7177 H   0  0  0  0  0  0  0  0  0  0  0  0
    0.0677    4.5053   -7.3013 H   0  0  0  0  0  0  0  0  0  0  0  0
   -5.5818    2.2116   -5.0501 H   0  0  0  0  0  0  0  0  0  0  0  0
   -7.9127    2.3308   -5.8531 H   0  0  0  0  0  0  0  0  0  0  0  0
   -9.0878    4.5016   -5.9721 H   0  0  0  0  0  0  0  0  0  0  0  0
   -3.6437    8.9215   -4.3245 H   0  0  0  0  0  0  0  0  0  0  0  0
    1.5165   11.0232   -4.1589 H   0  0  0  0  0  0  0  0  0  0  0  0
    0.8871   10.4179   -2.5881 H   0  0  0  0  0  0  0  0  0  0  0  0
    1.3534   13.3863   -3.3146 H   0  0  0  0  0  0  0  0  0  0  0  0
    2.3962   12.3665   -2.2531 H   0  0  0  0  0  0  0  0  0  0  0  0
    0.7170   12.7720   -1.7353 H   0  0  0  0  0  0  0  0  0  0  0  0
  -13.3270   10.7751   -2.9070 H   0  0  0  0  0  0  0  0  0  0  0  0
  -12.7153   10.1848   -4.4897 H   0  0  0  0  0  0  0  0  0  0  0  0
  -14.2587   12.1357   -4.7593 H   0  0  0  0  0  0  0  0  0  0  0  0
  -12.5988   12.5230   -5.3538 H   0  0  0  0  0  0  0  0  0  0  0  0
  -13.1595   13.1547   -3.7533 H   0  0  0  0  0  0  0  0  0  0  0  0
   -8.1933   14.2515   -3.0432 H   0  0  0  0  0  0  0  0  0  0  0  0
   -6.3752   16.1073   -3.1647 H   0  0  0  0  0  0  0  0  0  0  0  0
  1  2  2  0
  2  3  1  0
  3  4  2  0
  4  5  1  0
  5  6  1  0
  6  7  1  0
  7  8  1  0
  8  9  1  0
  7 10  2  0
 10 11  1  0
 10 12  1  0
 12 13  1  0
  4 14  1  0
 14 15  2  0
 15 16  1  0
 16 17  1  0
 17 18  1  0
 18 19  1  0
 19 20  1  0
 20 21  1  0
 19 22  2  0
 22 23  1  0
 23 24  1  0
 22 25  1  0
 16 26  2  0
 26 27  1  0
 15 28  1  0
 28 29  2  0
 29 30  1  0
 29 31  1  0
 31 32  2  0
 32 33  1  0
 33 34  2  0
 34 35  1  0
 35 36  1  0
 36 37  1  0
 37 38  1  0
 38 39  1  0
 37 40  2  0
 40 41  1  0
 40 42  1  0
 42 43  1  0
 34 44  1  0
 44 45  2  0
 45 46  1  0
 46 47  1  0
 47 48  1  0
 48 49  1  0
 49 50  1  0
 50 51  1  0
 49 52  2  0
 52 53  1  0
 53 54  1  0
 52 55  1  0
 46 56  2  0
 56 57  1  0
 45 58  1  0
 58 59  2  0
 59 60  1  0
 59 61  1  0
 61 62  1  0
 62 63  1  0
 63 64  2  0
 64 65  1  0
 65 66  1  0
 66 67  2  0
 67 68  1  0
 68 69  2  0
 69 70  1  0
 63 71  1  0
 71 72  1  0
 72 73  1  0
 73 74  2  0
 74 75  1  0
 75 76  1  0
 76 77  2  0
 77 78  1  0
 78 79  2  0
 79 80  1  0
 73 81  1  0
 81 82  1  0
 82 83  1  0
 83 84  2  0
 84 85  1  0
 85 86  1  0
 86 87  2  0
 87 88  1  0
 88 89  2  0
 89 90  1  0
 83 91  1  0
 91 92  2  0
 92 93  1  0
 93 94  2  0
 94 95  1  0
 95 96  1  0
 96 97  1  0
 97 98  1  0
 98 99  1  0
 97100  2  0
100101  1  0
100102  1  0
102103  1  0
 94104  1  0
104105  2  0
105106  1  0
106107  1  0
107108  1  0
108109  1  0
109110  1  0
110111  1  0
109112  2  0
112113  1  0
113114  1  0
112115  1  0
106116  2  0
116117  1  0
105118  1  0
118119  2  0
119120  1  0
 27  1  1  0
 57 31  1  0
 65 61  2  0
 75 71  2  0
 85 81  2  0
117 91  1  0
 26  3  1  0
 56 33  1  0
 69 64  1  0
 79 74  1  0
 89 84  1  0
116 93  1  0
 12  5  2  0
 30 14  1  0
 42 35  2  0
 60 44  1  0
102 95  2  0
120104  1  0
 23 17  2  0
 53 47  2  0
113107  2  0
  1121  1  0
  2122  1  0
  8123  1  0
  8124  1  0
  9125  1  0
  9126  1  0
  9127  1  0
 20128  1  0
 20129  1  0
 21130  1  0
 21131  1  0
 21132  1  0
 28133  1  0
 32134  1  0
 38135  1  0
 38136  1  0
 39137  1  0
 39138  1  0
 39139  1  0
 50140  1  0
 50141  1  0
 51142  1  0
 51143  1  0
 51144  1  0
 58145  1  0
 66146  1  0
 67147  1  0
 68148  1  0
 76149  1  0
 77150  1  0
 78151  1  0
 86152  1  0
 87153  1  0
 88154  1  0
 92155  1  0
 98156  1  0
 98157  1  0
 99158  1  0
 99159  1  0
 99160  1  0
110161  1  0
110162  1  0
111163  1  0
111164  1  0
111165  1  0
118166  1  0
119167  1  0
M  END

