
     RDKit          3D

225251  0  0  0  0  0  0  0  0999 V2000
    4.2031  -10.1001   10.2940 C   0  0  0  0  0  0  0  0  0  0  0  0
    4.4150   -8.8810    9.6583 C   0  0  0  0  0  0  0  0  0  0  0  0
    3.3727   -8.5213    8.7906 C   0  0  0  0  0  0  0  0  0  0  0  0
    3.3007   -7.3539    8.0054 C   0  0  0  0  0  0  0  0  0  0  0  0
    4.3473   -6.3157    8.0295 C   0  0  0  0  0  0  0  0  0  0  0  0
    5.2505   -5.8403    6.6926 S   0  0  0  0  0  0  0  0  0  0  0  0
    6.0673   -4.5864    7.4614 C   0  0  0  0  0  0  0  0  0  0  0  0
    7.0038   -3.6375    6.7752 C   0  0  0  0  0  0  0  0  0  0  0  0
    6.2421   -2.4364    6.2256 C   0  0  0  0  0  0  0  0  0  0  0  0
    5.6158   -4.5033    8.7774 C   0  0  0  0  0  0  0  0  0  0  0  0
    6.1522   -3.2708    9.9104 Cl  0  0  0  0  0  0  0  0  0  0  0  0
    4.6545   -5.4779    9.0977 C   0  0  0  0  0  0  0  0  0  0  0  0
    3.8454   -5.5600   10.6563 Cl  0  0  0  0  0  0  0  0  0  0  0  0
    2.1645   -7.2082    7.1935 C   0  0  0  0  0  0  0  0  0  0  0  0
    1.1395   -8.1575    7.1413 C   0  0  0  0  0  0  0  0  0  0  0  0
    1.2132   -9.3242    7.9264 C   0  0  0  0  0  0  0  0  0  0  0  0
    0.1480  -10.3403    7.9143 C   0  0  0  0  0  0  0  0  0  0  0  0
   -0.1955  -11.3520    6.6183 S   0  0  0  0  0  0  0  0  0  0  0  0
   -1.4670  -12.1643    7.3655 C   0  0  0  0  0  0  0  0  0  0  0  0
   -2.2962  -13.2280    6.7114 C   0  0  0  0  0  0  0  0  0  0  0  0
   -3.4725  -12.6139    5.9630 C   0  0  0  0  0  0  0  0  0  0  0  0
   -1.6564  -11.6268    8.6382 C   0  0  0  0  0  0  0  0  0  0  0  0
   -0.7407  -10.6104    8.9489 C   0  0  0  0  0  0  0  0  0  0  0  0
   -0.7518   -9.7284   10.4698 Cl  0  0  0  0  0  0  0  0  0  0  0  0
   -2.9180  -12.1568    9.7435 Cl  0  0  0  0  0  0  0  0  0  0  0  0
    2.3477   -9.4705    8.7449 C   0  0  0  0  0  0  0  0  0  0  0  0
    2.7323  -10.7418    9.7770 S   0  0  0  0  0  0  0  0  0  0  0  0
    0.0764   -7.7826    6.2988 C   0  0  0  0  0  0  0  0  0  0  0  0
    0.2628   -6.5243    5.7281 C   0  0  0  0  0  0  0  0  0  0  0  0
    1.7546   -5.9051    6.2195 S   0  0  0  0  0  0  0  0  0  0  0  0
   -0.6517   -5.8595    4.7843 C   0  0  0  0  0  0  0  0  0  0  0  0
   -1.4340   -6.6408    3.5106 S   0  0  0  0  0  0  0  0  0  0  0  0
   -2.0794   -5.2638    2.7869 C   0  0  0  0  0  0  0  0  0  0  0  0
   -1.6562   -4.1480    3.5201 C   0  0  0  0  0  0  0  0  0  0  0  0
   -0.8839   -4.4867    4.6516 C   0  0  0  0  0  0  0  0  0  0  0  0
   -0.4253   -3.4830    5.5200 C   0  0  0  0  0  0  0  0  0  0  0  0
   -0.6803   -2.1437    5.2170 C   0  0  0  0  0  0  0  0  0  0  0  0
   -1.3898   -1.8008    4.0600 C   0  0  0  0  0  0  0  0  0  0  0  0
   -1.8753   -2.7949    3.2019 C   0  0  0  0  0  0  0  0  0  0  0  0
   -2.5006   -2.4161    2.0611 F   0  0  0  0  0  0  0  0  0  0  0  0
   -2.8298   -5.2722    1.5242 C   0  0  0  0  0  0  0  0  0  0  0  0
   -2.3130   -5.7064    0.3068 C   0  0  0  0  0  0  0  0  0  0  0  0
   -3.1241   -5.3567   -0.7855 C   0  0  0  0  0  0  0  0  0  0  0  0
   -2.7794   -5.4917   -2.1463 C   0  0  0  0  0  0  0  0  0  0  0  0
   -1.5580   -6.2069   -2.5653 C   0  0  0  0  0  0  0  0  0  0  0  0
   -0.2612   -5.5183   -3.3919 S   0  0  0  0  0  0  0  0  0  0  0  0
    0.6931   -6.9035   -3.4220 C   0  0  0  0  0  0  0  0  0  0  0  0
    2.0311   -7.0047   -4.0921 C   0  0  0  0  0  0  0  0  0  0  0  0
    1.8855   -7.5424   -5.5101 C   0  0  0  0  0  0  0  0  0  0  0  0
   -0.0027   -7.9372   -2.7995 C   0  0  0  0  0  0  0  0  0  0  0  0
    0.6220   -9.5732   -2.6446 Cl  0  0  0  0  0  0  0  0  0  0  0  0
   -1.2601   -7.5456   -2.3140 C   0  0  0  0  0  0  0  0  0  0  0  0
   -2.3681   -8.6493   -1.5053 Cl  0  0  0  0  0  0  0  0  0  0  0  0
   -3.6008   -4.8249   -3.0728 C   0  0  0  0  0  0  0  0  0  0  0  0
   -4.7425   -4.1136   -2.6888 C   0  0  0  0  0  0  0  0  0  0  0  0
   -5.1215   -4.0399   -1.3363 C   0  0  0  0  0  0  0  0  0  0  0  0
   -6.2322   -3.1799   -0.8952 C   0  0  0  0  0  0  0  0  0  0  0  0
   -7.7667   -3.7261   -0.4849 S   0  0  0  0  0  0  0  0  0  0  0  0
   -8.4118   -2.2041   -0.1699 C   0  0  0  0  0  0  0  0  0  0  0  0
   -9.8097   -1.9620    0.3198 C   0  0  0  0  0  0  0  0  0  0  0  0
   -9.8580   -1.9809    1.8432 C   0  0  0  0  0  0  0  0  0  0  0  0
   -7.4175   -1.2456   -0.3603 C   0  0  0  0  0  0  0  0  0  0  0  0
   -6.1957   -1.7931   -0.7747 C   0  0  0  0  0  0  0  0  0  0  0  0
   -4.7619   -0.8296   -1.1144 Cl  0  0  0  0  0  0  0  0  0  0  0  0
   -7.6640    0.4777   -0.1081 Cl  0  0  0  0  0  0  0  0  0  0  0  0
   -4.2815   -4.6669   -0.4058 C   0  0  0  0  0  0  0  0  0  0  0  0
   -4.3109   -4.5036    1.2673 S   0  0  0  0  0  0  0  0  0  0  0  0
   -5.3266   -3.3892   -3.7397 C   0  0  0  0  0  0  0  0  0  0  0  0
   -4.6151   -3.4790   -4.9385 C   0  0  0  0  0  0  0  0  0  0  0  0
   -3.3050   -4.5248   -4.7020 S   0  0  0  0  0  0  0  0  0  0  0  0
   -4.6749   -2.4505   -5.9922 C   0  0  0  0  0  0  0  0  0  0  0  0
   -3.5673   -2.0547   -6.7459 C   0  0  0  0  0  0  0  0  0  0  0  0
   -3.6483   -0.7253   -7.1976 C   0  0  0  0  0  0  0  0  0  0  0  0
   -2.5797    0.0171   -7.7411 C   0  0  0  0  0  0  0  0  0  0  0  0
   -1.2894   -0.6234   -8.0713 C   0  0  0  0  0  0  0  0  0  0  0  0
    0.1815   -0.2907   -7.3207 S   0  0  0  0  0  0  0  0  0  0  0  0
    1.0928   -1.3910   -8.2060 C   0  0  0  0  0  0  0  0  0  0  0  0
    2.5838   -1.5274   -8.1082 C   0  0  0  0  0  0  0  0  0  0  0  0
    3.2777   -0.5088   -9.0065 C   0  0  0  0  0  0  0  0  0  0  0  0
    0.2552   -2.0302   -9.1174 C   0  0  0  0  0  0  0  0  0  0  0  0
    0.8154   -3.2187  -10.2865 Cl  0  0  0  0  0  0  0  0  0  0  0  0
   -1.0823   -1.6090   -9.0324 C   0  0  0  0  0  0  0  0  0  0  0  0
   -2.3552   -2.2184  -10.0810 Cl  0  0  0  0  0  0  0  0  0  0  0  0
   -2.7384    1.4160   -7.7778 C   0  0  0  0  0  0  0  0  0  0  0  0
   -3.9118    2.0504   -7.3603 C   0  0  0  0  0  0  0  0  0  0  0  0
   -5.0241    1.2960   -6.9369 C   0  0  0  0  0  0  0  0  0  0  0  0
   -6.2584    1.9506   -6.4663 C   0  0  0  0  0  0  0  0  0  0  0  0
   -6.8280    1.9407   -4.8809 S   0  0  0  0  0  0  0  0  0  0  0  0
   -8.1682    2.9197   -5.1661 C   0  0  0  0  0  0  0  0  0  0  0  0
   -9.2024    3.2680   -4.1360 C   0  0  0  0  0  0  0  0  0  0  0  0
  -10.2604    2.1735   -4.0487 C   0  0  0  0  0  0  0  0  0  0  0  0
   -8.1975    3.2515   -6.5191 C   0  0  0  0  0  0  0  0  0  0  0  0
   -7.1195    2.7221   -7.2426 C   0  0  0  0  0  0  0  0  0  0  0  0
   -6.8895    2.9824   -8.9680 Cl  0  0  0  0  0  0  0  0  0  0  0  0
   -9.4629    4.2261   -7.2559 Cl  0  0  0  0  0  0  0  0  0  0  0  0
   -4.8433   -0.0925   -6.8333 C   0  0  0  0  0  0  0  0  0  0  0  0
   -5.7864   -1.1772   -5.9694 S   0  0  0  0  0  0  0  0  0  0  0  0
   -3.7607    3.4347   -7.1821 C   0  0  0  0  0  0  0  0  0  0  0  0
   -2.4627    3.8868   -7.4218 C   0  0  0  0  0  0  0  0  0  0  0  0
   -1.5354    2.5769   -7.9462 S   0  0  0  0  0  0  0  0  0  0  0  0
   -1.8526    5.0161   -6.7022 C   0  0  0  0  0  0  0  0  0  0  0  0
   -2.2688    5.4000   -5.4250 C   0  0  0  0  0  0  0  0  0  0  0  0
   -1.2561    6.0057   -4.6665 C   0  0  0  0  0  0  0  0  0  0  0  0
   -1.3076    6.2673   -3.2790 C   0  0  0  0  0  0  0  0  0  0  0  0
   -2.4842    5.9010   -2.4674 C   0  0  0  0  0  0  0  0  0  0  0  0
   -3.0481    4.3280   -2.2589 S   0  0  0  0  0  0  0  0  0  0  0  0
   -4.3431    4.7288   -1.2651 C   0  0  0  0  0  0  0  0  0  0  0  0
   -5.2907    3.7348   -0.6624 C   0  0  0  0  0  0  0  0  0  0  0  0
   -4.9146    3.4298    0.7842 C   0  0  0  0  0  0  0  0  0  0  0  0
   -4.3370    6.1085   -1.0618 C   0  0  0  0  0  0  0  0  0  0  0  0
   -5.5225    6.9484   -0.0713 Cl  0  0  0  0  0  0  0  0  0  0  0  0
   -3.2906    6.7649   -1.7341 C   0  0  0  0  0  0  0  0  0  0  0  0
   -3.0382    8.5053   -1.6754 Cl  0  0  0  0  0  0  0  0  0  0  0  0
   -0.1140    6.6932   -2.6680 C   0  0  0  0  0  0  0  0  0  0  0  0
    1.0810    6.8357   -3.3815 C   0  0  0  0  0  0  0  0  0  0  0  0
    1.1249    6.5938   -4.7687 C   0  0  0  0  0  0  0  0  0  0  0  0
    2.3931    6.6145   -5.5193 C   0  0  0  0  0  0  0  0  0  0  0  0
    3.6579    5.5259   -5.2994 S   0  0  0  0  0  0  0  0  0  0  0  0
    4.6838    6.2125   -6.4436 C   0  0  0  0  0  0  0  0  0  0  0  0
    6.0556    5.7016   -6.7691 C   0  0  0  0  0  0  0  0  0  0  0  0
    6.0669    4.9504   -8.0961 C   0  0  0  0  0  0  0  0  0  0  0  0
    4.0392    7.3046   -7.0218 C   0  0  0  0  0  0  0  0  0  0  0  0
    2.7515    7.5263   -6.5047 C   0  0  0  0  0  0  0  0  0  0  0  0
    1.7054    8.8374   -7.0333 Cl  0  0  0  0  0  0  0  0  0  0  0  0
    4.7657    8.3208   -8.2596 Cl  0  0  0  0  0  0  0  0  0  0  0  0
   -0.0674    6.1762   -5.3802 C   0  0  0  0  0  0  0  0  0  0  0  0
   -0.2487    5.5066   -6.9112 S   0  0  0  0  0  0  0  0  0  0  0  0
    2.1904    7.0640   -2.5558 C   0  0  0  0  0  0  0  0  0  0  0  0
    1.8716    7.0830   -1.2023 C   0  0  0  0  0  0  0  0  0  0  0  0
    0.2181    6.8173   -1.0194 S   0  0  0  0  0  0  0  0  0  0  0  0
    2.8535    6.8117   -0.1538 C   0  0  0  0  0  0  0  0  0  0  0  0
    3.6393    5.6676   -0.1177 C   0  0  0  0  0  0  0  0  0  0  0  0
    4.4873    5.6223    0.9965 C   0  0  0  0  0  0  0  0  0  0  0  0
    5.3757    4.5794    1.3229 C   0  0  0  0  0  0  0  0  0  0  0  0
    5.4605    3.3485    0.5129 C   0  0  0  0  0  0  0  0  0  0  0  0
    4.9094    1.8457    1.0284 S   0  0  0  0  0  0  0  0  0  0  0  0
    5.1374    1.0522   -0.4367 C   0  0  0  0  0  0  0  0  0  0  0  0
    4.7142   -0.3609   -0.7067 C   0  0  0  0  0  0  0  0  0  0  0  0
    3.2502   -0.4101   -1.1363 C   0  0  0  0  0  0  0  0  0  0  0  0
    5.6318    1.9685   -1.3646 C   0  0  0  0  0  0  0  0  0  0  0  0
    5.9390    1.5743   -3.0510 Cl  0  0  0  0  0  0  0  0  0  0  0  0
    5.8233    3.2528   -0.8290 C   0  0  0  0  0  0  0  0  0  0  0  0
    6.4502    4.6058   -1.7651 Cl  0  0  0  0  0  0  0  0  0  0  0  0
    6.1050    4.7229    2.5140 C   0  0  0  0  0  0  0  0  0  0  0  0
    5.9897    5.8450    3.3413 C   0  0  0  0  0  0  0  0  0  0  0  0
    5.0988    6.8876    3.0104 C   0  0  0  0  0  0  0  0  0  0  0  0
    4.9350    8.0721    3.8685 C   0  0  0  0  0  0  0  0  0  0  0  0
    3.5636    8.4154    4.7768 S   0  0  0  0  0  0  0  0  0  0  0  0
    4.1465    9.8454    5.4440 C   0  0  0  0  0  0  0  0  0  0  0  0
    3.4070   10.6815    6.4446 C   0  0  0  0  0  0  0  0  0  0  0  0
    3.8487   10.3413    7.8617 C   0  0  0  0  0  0  0  0  0  0  0  0
    5.4381   10.0666    4.9699 C   0  0  0  0  0  0  0  0  0  0  0  0
    5.8794    9.0732    4.0824 C   0  0  0  0  0  0  0  0  0  0  0  0
    7.4540    9.0994    3.2992 Cl  0  0  0  0  0  0  0  0  0  0  0  0
    6.4190   11.4531    5.4293 Cl  0  0  0  0  0  0  0  0  0  0  0  0
    4.3484    6.7365    1.8311 C   0  0  0  0  0  0  0  0  0  0  0  0
    3.1797    7.7742    1.1906 S   0  0  0  0  0  0  0  0  0  0  0  0
    6.8011    5.7717    4.4854 C   0  0  0  0  0  0  0  0  0  0  0  0
    7.5525    4.6027    4.5486 C   0  0  0  0  0  0  0  0  0  0  0  0
    7.2126    3.6556    3.1931 S   0  0  0  0  0  0  0  0  0  0  0  0
    4.8785  -10.5604   11.0024 H   0  0  0  0  0  0  0  0  0  0  0  0
    5.2995   -8.2802    9.8211 H   0  0  0  0  0  0  0  0  0  0  0  0
    7.5110   -4.1632    5.9392 H   0  0  0  0  0  0  0  0  0  0  0  0
    7.7811   -3.2886    7.4859 H   0  0  0  0  0  0  0  0  0  0  0  0
    5.4475   -2.7687    5.5224 H   0  0  0  0  0  0  0  0  0  0  0  0
    5.7758   -1.8638    7.0582 H   0  0  0  0  0  0  0  0  0  0  0  0
    6.9415   -1.7667    5.6798 H   0  0  0  0  0  0  0  0  0  0  0  0
   -1.6644  -13.7979    5.9969 H   0  0  0  0  0  0  0  0  0  0  0  0
   -2.6711  -13.9431    7.4737 H   0  0  0  0  0  0  0  0  0  0  0  0
   -4.0540  -13.4174    5.4705 H   0  0  0  0  0  0  0  0  0  0  0  0
   -4.1384  -12.0730    6.6702 H   0  0  0  0  0  0  0  0  0  0  0  0
   -3.1094  -11.9089    5.1855 H   0  0  0  0  0  0  0  0  0  0  0  0
   -0.8077   -8.3845    6.1347 H   0  0  0  0  0  0  0  0  0  0  0  0
    0.1116   -3.7207    6.4259 H   0  0  0  0  0  0  0  0  0  0  0  0
   -0.3215   -1.3641    5.8767 H   0  0  0  0  0  0  0  0  0  0  0  0
   -1.5559   -0.7587    3.8222 H   0  0  0  0  0  0  0  0  0  0  0  0
   -1.3349   -6.1594    0.2157 H   0  0  0  0  0  0  0  0  0  0  0  0
    2.5058   -6.0001   -4.1308 H   0  0  0  0  0  0  0  0  0  0  0  0
    2.6958   -7.6735   -3.5073 H   0  0  0  0  0  0  0  0  0  0  0  0
    1.3852   -8.5350   -5.4976 H   0  0  0  0  0  0  0  0  0  0  0  0
    1.2858   -6.8392   -6.1275 H   0  0  0  0  0  0  0  0  0  0  0  0
    2.8892   -7.6584   -5.9725 H   0  0  0  0  0  0  0  0  0  0  0  0
  -10.1805   -0.9857   -0.0546 H   0  0  0  0  0  0  0  0  0  0  0  0
  -10.4792   -2.7533   -0.0775 H   0  0  0  0  0  0  0  0  0  0  0  0
  -10.8965   -1.7812    2.1799 H   0  0  0  0  0  0  0  0  0  0  0  0
   -9.1847   -1.2039    2.2626 H   0  0  0  0  0  0  0  0  0  0  0  0
   -9.5479   -2.9812    2.2171 H   0  0  0  0  0  0  0  0  0  0  0  0
   -6.1595   -2.7128   -3.5992 H   0  0  0  0  0  0  0  0  0  0  0  0
   -2.6641   -2.6457   -6.8131 H   0  0  0  0  0  0  0  0  0  0  0  0
    2.8957   -2.5509   -8.4012 H   0  0  0  0  0  0  0  0  0  0  0  0
    2.8971   -1.3632   -7.0571 H   0  0  0  0  0  0  0  0  0  0  0  0
    4.3776   -0.5826   -8.8737 H   0  0  0  0  0  0  0  0  0  0  0  0
    3.0318   -0.7077  -10.0726 H   0  0  0  0  0  0  0  0  0  0  0  0
    2.9558    0.5235   -8.7428 H   0  0  0  0  0  0  0  0  0  0  0  0
   -8.7137    3.3898   -3.1481 H   0  0  0  0  0  0  0  0  0  0  0  0
   -9.6879    4.2321   -4.3945 H   0  0  0  0  0  0  0  0  0  0  0  0
  -11.0252    2.4544   -3.2954 H   0  0  0  0  0  0  0  0  0  0  0  0
  -10.7609    2.0407   -5.0321 H   0  0  0  0  0  0  0  0  0  0  0  0
   -9.7937    1.2132   -3.7405 H   0  0  0  0  0  0  0  0  0  0  0  0
   -4.5201    4.0557   -6.7213 H   0  0  0  0  0  0  0  0  0  0  0  0
   -3.2235    5.1114   -5.0075 H   0  0  0  0  0  0  0  0  0  0  0  0
   -6.3296    4.1256   -0.7069 H   0  0  0  0  0  0  0  0  0  0  0  0
   -5.2558    2.7914   -1.2467 H   0  0  0  0  0  0  0  0  0  0  0  0
   -5.0068    4.3437    1.4083 H   0  0  0  0  0  0  0  0  0  0  0  0
   -5.5924    2.6520    1.1911 H   0  0  0  0  0  0  0  0  0  0  0  0
   -3.8705    3.0516    0.8390 H   0  0  0  0  0  0  0  0  0  0  0  0
    6.3891    5.0118   -5.9658 H   0  0  0  0  0  0  0  0  0  0  0  0
    6.7713    6.5494   -6.8106 H   0  0  0  0  0  0  0  0  0  0  0  0
    5.2994    4.1489   -8.0955 H   0  0  0  0  0  0  0  0  0  0  0  0
    5.8628    5.6482   -8.9346 H   0  0  0  0  0  0  0  0  0  0  0  0
    7.0647    4.4905   -8.2554 H   0  0  0  0  0  0  0  0  0  0  0  0
    3.2107    7.1108   -2.9142 H   0  0  0  0  0  0  0  0  0  0  0  0
    3.5719    4.8854   -0.8645 H   0  0  0  0  0  0  0  0  0  0  0  0
    4.8420   -0.9647    0.2170 H   0  0  0  0  0  0  0  0  0  0  0  0
    5.3486   -0.8083   -1.4989 H   0  0  0  0  0  0  0  0  0  0  0  0
    2.5994    0.0057   -0.3384 H   0  0  0  0  0  0  0  0  0  0  0  0
    2.9537   -1.4655   -1.3215 H   0  0  0  0  0  0  0  0  0  0  0  0
    3.1029    0.1708   -2.0720 H   0  0  0  0  0  0  0  0  0  0  0  0
    3.5919   11.7580    6.2438 H   0  0  0  0  0  0  0  0  0  0  0  0
    2.3173   10.4943    6.3453 H   0  0  0  0  0  0  0  0  0  0  0  0
    3.6689    9.2672    8.0770 H   0  0  0  0  0  0  0  0  0  0  0  0
    3.2702   10.9546    8.5869 H   0  0  0  0  0  0  0  0  0  0  0  0
    4.9285   10.5655    7.9950 H   0  0  0  0  0  0  0  0  0  0  0  0
    6.8418    6.5345    5.2499 H   0  0  0  0  0  0  0  0  0  0  0  0
    8.2417    4.3402    5.3417 H   0  0  0  0  0  0  0  0  0  0  0  0
  1  2  2  0
  2  3  1  0
  3  4  2  0
  4  5  1  0
  5  6  1  0
  6  7  1  0
  7  8  1  0
  8  9  1  0
  7 10  2  0
 10 11  1  0
 10 12  1  0
 12 13  1  0
  4 14  1  0
 14 15  2  0
 15 16  1  0
 16 17  1  0
 17 18  1  0
 18 19  1  0
 19 20  1  0
 20 21  1  0
 19 22  2  0
 22 23  1  0
 23 24  1  0
 22 25  1  0
 16 26  2  0
 26 27  1  0
 15 28  1  0
 28 29  2  0
 29 30  1  0
 29 31  1  0
 31 32  1  0
 32 33  1  0
 33 34  2  0
 34 35  1  0
 35 36  1  0
 36 37  2  0
 37 38  1  0
 38 39  2  0
 39 40  1  0
 33 41  1  0
 41 42  2  0
 42 43  1  0
 43 44  2  0
 44 45  1  0
 45 46  1  0
 46 47  1  0
 47 48  1  0
 48 49  1  0
 47 50  2  0
 50 51  1  0
 50 52  1  0
 52 53  1  0
 44 54  1  0
 54 55  2  0
 55 56  1  0
 56 57  1  0
 57 58  1  0
 58 59  1  0
 59 60  1  0
 60 61  1  0
 59 62  2  0
 62 63  1  0
 63 64  1  0
 62 65  1  0
 56 66  2  0
 66 67  1  0
 55 68  1  0
 68 69  2  0
 69 70  1  0
 69 71  1  0
 71 72  2  0
 72 73  1  0
 73 74  2  0
 74 75  1  0
 75 76  1  0
 76 77  1  0
 77 78  1  0
 78 79  1  0
 77 80  2  0
 80 81  1  0
 80 82  1  0
 82 83  1  0
 74 84  1  0
 84 85  2  0
 85 86  1  0
 86 87  1  0
 87 88  1  0
 88 89  1  0
 89 90  1  0
 90 91  1  0
 89 92  2  0
 92 93  1  0
 93 94  1  0
 92 95  1  0
 86 96  2  0
 96 97  1  0
 85 98  1  0
 98 99  2  0
 99100  1  0
 99101  1  0
101102  2  0
102103  1  0
103104  2  0
104105  1  0
105106  1  0
106107  1  0
107108  1  0
108109  1  0
107110  2  0
110111  1  0
110112  1  0
112113  1  0
104114  1  0
114115  2  0
115116  1  0
116117  1  0
117118  1  0
118119  1  0
119120  1  0
120121  1  0
119122  2  0
122123  1  0
123124  1  0
122125  1  0
116126  2  0
126127  1  0
115128  1  0
128129  2  0
129130  1  0
129131  1  0
131132  2  0
132133  1  0
133134  2  0
134135  1  0
135136  1  0
136137  1  0
137138  1  0
138139  1  0
137140  2  0
140141  1  0
140142  1  0
142143  1  0
134144  1  0
144145  2  0
145146  1  0
146147  1  0
147148  1  0
148149  1  0
149150  1  0
150151  1  0
149152  2  0
152153  1  0
153154  1  0
152155  1  0
146156  2  0
156157  1  0
145158  1  0
158159  2  0
159160  1  0
 27  1  1  0
 35 31  2  0
 67 41  1  0
 97 71  1  0
127101  1  0
157131  1  0
 26  3  1  0
 39 34  1  0
 66 43  1  0
 96 73  1  0
126103  1  0
156133  1  0
 12  5  2  0
 30 14  1  0
 52 45  2  0
 70 54  1  0
 82 75  2  0
100 84  1  0
112105  2  0
130114  1  0
142135  2  0
160144  1  0
 23 17  2  0
 63 57  2  0
 93 87  2  0
123117  2  0
153147  2  0
  1161  1  0
  2162  1  0
  8163  1  0
  8164  1  0
  9165  1  0
  9166  1  0
  9167  1  0
 20168  1  0
 20169  1  0
 21170  1  0
 21171  1  0
 21172  1  0
 28173  1  0
 36174  1  0
 37175  1  0
 38176  1  0
 42177  1  0
 48178  1  0
 48179  1  0
 49180  1  0
 49181  1  0
 49182  1  0
 60183  1  0
 60184  1  0
 61185  1  0
 61186  1  0
 61187  1  0
 68188  1  0
 72189  1  0
 78190  1  0
 78191  1  0
 79192  1  0
 79193  1  0
 79194  1  0
 90195  1  0
 90196  1  0
 91197  1  0
 91198  1  0
 91199  1  0
 98200  1  0
102201  1  0
108202  1  0
108203  1  0
109204  1  0
109205  1  0
109206  1  0
120207  1  0
120208  1  0
121209  1  0
121210  1  0
121211  1  0
128212  1  0
132213  1  0
138214  1  0
138215  1  0
139216  1  0
139217  1  0
139218  1  0
150219  1  0
150220  1  0
151221  1  0
151222  1  0
151223  1  0
158224  1  0
159225  1  0
M  END

