
     RDKit          3D

227253  0  0  0  0  0  0  0  0999 V2000
    0.5447  -10.7336   11.9251 C   0  0  0  0  0  0  0  0  0  0  0  0
    1.4411   -9.8792   11.2890 C   0  0  0  0  0  0  0  0  0  0  0  0
    0.9478   -9.3539   10.0830 C   0  0  0  0  0  0  0  0  0  0  0  0
    1.6097   -8.4520    9.2278 C   0  0  0  0  0  0  0  0  0  0  0  0
    3.0072   -8.0453    9.4613 C   0  0  0  0  0  0  0  0  0  0  0  0
    4.3190   -9.0977    9.4375 S   0  0  0  0  0  0  0  0  0  0  0  0
    5.4963   -7.9202    9.6693 C   0  0  0  0  0  0  0  0  0  0  0  0
    6.9722   -8.1834    9.6898 C   0  0  0  0  0  0  0  0  0  0  0  0
    7.5497   -8.1339    8.2814 C   0  0  0  0  0  0  0  0  0  0  0  0
    4.8761   -6.6749    9.7434 C   0  0  0  0  0  0  0  0  0  0  0  0
    5.7508   -5.1613    9.9294 Cl  0  0  0  0  0  0  0  0  0  0  0  0
    3.4799   -6.7447    9.6350 C   0  0  0  0  0  0  0  0  0  0  0  0
    2.4308   -5.3383    9.7522 Cl  0  0  0  0  0  0  0  0  0  0  0  0
    0.9067   -8.0289    8.0865 C   0  0  0  0  0  0  0  0  0  0  0  0
   -0.3779   -8.4882    7.7751 C   0  0  0  0  0  0  0  0  0  0  0  0
   -1.0361   -9.3958    8.6283 C   0  0  0  0  0  0  0  0  0  0  0  0
   -2.3843   -9.9082    8.3293 C   0  0  0  0  0  0  0  0  0  0  0  0
   -3.7924   -8.9913    8.3776 S   0  0  0  0  0  0  0  0  0  0  0  0
   -4.8333  -10.2458    7.9547 C   0  0  0  0  0  0  0  0  0  0  0  0
   -6.3124  -10.0949    7.7498 C   0  0  0  0  0  0  0  0  0  0  0  0
   -6.6124   -9.6288    6.3301 C   0  0  0  0  0  0  0  0  0  0  0  0
   -4.0805  -11.4006    7.7427 C   0  0  0  0  0  0  0  0  0  0  0  0
   -2.7073  -11.2123    7.9644 C   0  0  0  0  0  0  0  0  0  0  0  0
   -1.5104  -12.4824    7.7515 Cl  0  0  0  0  0  0  0  0  0  0  0  0
   -4.7697  -12.9333    7.2282 Cl  0  0  0  0  0  0  0  0  0  0  0  0
   -0.3433   -9.8014    9.7820 C   0  0  0  0  0  0  0  0  0  0  0  0
   -0.8642  -10.8344   11.0050 S   0  0  0  0  0  0  0  0  0  0  0  0
   -0.8644   -7.9879    6.5570 C   0  0  0  0  0  0  0  0  0  0  0  0
    0.0347   -7.1246    5.9322 C   0  0  0  0  0  0  0  0  0  0  0  0
    1.4347   -6.9998    6.8650 S   0  0  0  0  0  0  0  0  0  0  0  0
   -0.1819   -6.4357    4.6526 C   0  0  0  0  0  0  0  0  0  0  0  0
    0.4879   -5.2887    4.2361 C   0  0  0  0  0  0  0  0  0  0  0  0
    0.0832   -4.8450    2.9657 C   0  0  0  0  0  0  0  0  0  0  0  0
    0.5190   -3.6723    2.3110 C   0  0  0  0  0  0  0  0  0  0  0  0
    1.4527   -2.7282    2.9506 C   0  0  0  0  0  0  0  0  0  0  0  0
    1.0386   -1.1703    3.4299 S   0  0  0  0  0  0  0  0  0  0  0  0
    2.5148   -0.8036    4.1455 C   0  0  0  0  0  0  0  0  0  0  0  0
    2.8537    0.5264    4.7469 C   0  0  0  0  0  0  0  0  0  0  0  0
    3.3636    1.4862    3.6764 C   0  0  0  0  0  0  0  0  0  0  0  0
    3.3659   -1.8987    4.0020 C   0  0  0  0  0  0  0  0  0  0  0  0
    5.0255   -1.9214    4.5812 Cl  0  0  0  0  0  0  0  0  0  0  0  0
    2.7666   -2.9809    3.3381 C   0  0  0  0  0  0  0  0  0  0  0  0
    3.6096   -4.4825    2.9816 Cl  0  0  0  0  0  0  0  0  0  0  0  0
   -0.0644   -3.3889    1.0630 C   0  0  0  0  0  0  0  0  0  0  0  0
   -1.0343   -4.2129    0.4829 C   0  0  0  0  0  0  0  0  0  0  0  0
   -1.4949   -5.3642    1.1522 C   0  0  0  0  0  0  0  0  0  0  0  0
   -2.5910   -6.1927    0.6145 C   0  0  0  0  0  0  0  0  0  0  0  0
   -2.4578   -7.8213    0.2187 S   0  0  0  0  0  0  0  0  0  0  0  0
   -4.0533   -8.0131   -0.2830 C   0  0  0  0  0  0  0  0  0  0  0  0
   -4.6309   -9.2892   -0.8157 C   0  0  0  0  0  0  0  0  0  0  0  0
   -4.6550   -9.2861   -2.3406 C   0  0  0  0  0  0  0  0  0  0  0  0
   -4.7122   -6.7913   -0.1591 C   0  0  0  0  0  0  0  0  0  0  0  0
   -3.8960   -5.7721    0.3526 C   0  0  0  0  0  0  0  0  0  0  0  0
   -4.4816   -4.1464    0.6826 Cl  0  0  0  0  0  0  0  0  0  0  0  0
   -6.4009   -6.5472   -0.5889 Cl  0  0  0  0  0  0  0  0  0  0  0  0
   -0.9062   -5.6544    2.3941 C   0  0  0  0  0  0  0  0  0  0  0  0
   -1.2862   -6.9019    3.4612 S   0  0  0  0  0  0  0  0  0  0  0  0
   -1.4763   -3.7502   -0.7646 C   0  0  0  0  0  0  0  0  0  0  0  0
   -0.8795   -2.5511   -1.1479 C   0  0  0  0  0  0  0  0  0  0  0  0
    0.2131   -2.0720    0.0468 S   0  0  0  0  0  0  0  0  0  0  0  0
   -1.2672   -1.7560   -2.3213 C   0  0  0  0  0  0  0  0  0  0  0  0
   -2.4962   -1.8557   -2.9679 C   0  0  0  0  0  0  0  0  0  0  0  0
   -2.6922   -0.8578   -3.9312 C   0  0  0  0  0  0  0  0  0  0  0  0
   -3.8916   -0.6164   -4.6304 C   0  0  0  0  0  0  0  0  0  0  0  0
   -5.0581   -1.5184   -4.5199 C   0  0  0  0  0  0  0  0  0  0  0  0
   -6.5932   -1.0744   -3.9863 S   0  0  0  0  0  0  0  0  0  0  0  0
   -7.3314   -2.5542   -4.2844 C   0  0  0  0  0  0  0  0  0  0  0  0
   -8.7857   -2.8419   -4.0651 C   0  0  0  0  0  0  0  0  0  0  0  0
   -9.0002   -3.6430   -2.7846 C   0  0  0  0  0  0  0  0  0  0  0  0
   -6.3751   -3.4312   -4.7930 C   0  0  0  0  0  0  0  0  0  0  0  0
   -6.7382   -5.0812   -5.2783 Cl  0  0  0  0  0  0  0  0  0  0  0  0
   -5.1031   -2.8499   -4.9291 C   0  0  0  0  0  0  0  0  0  0  0  0
   -3.7299   -3.7017   -5.6244 Cl  0  0  0  0  0  0  0  0  0  0  0  0
   -3.9656    0.5906   -5.3446 C   0  0  0  0  0  0  0  0  0  0  0  0
   -2.8804    1.4625   -5.4695 C   0  0  0  0  0  0  0  0  0  0  0  0
   -1.6294    1.1424   -4.9001 C   0  0  0  0  0  0  0  0  0  0  0  0
   -0.4256    1.9554   -5.1904 C   0  0  0  0  0  0  0  0  0  0  0  0
    0.6001    2.6591   -4.0562 S   0  0  0  0  0  0  0  0  0  0  0  0
    1.6014    3.4384   -5.1648 C   0  0  0  0  0  0  0  0  0  0  0  0
    2.7837    4.2899   -4.8122 C   0  0  0  0  0  0  0  0  0  0  0  0
    4.0833    3.5024   -4.9112 C   0  0  0  0  0  0  0  0  0  0  0  0
    1.1553    3.1391   -6.4486 C   0  0  0  0  0  0  0  0  0  0  0  0
    0.0285    2.3060   -6.4647 C   0  0  0  0  0  0  0  0  0  0  0  0
   -0.6970    1.7166   -7.9562 Cl  0  0  0  0  0  0  0  0  0  0  0  0
    1.9226    3.7506   -7.9075 Cl  0  0  0  0  0  0  0  0  0  0  0  0
   -1.5991    0.0117   -4.0591 C   0  0  0  0  0  0  0  0  0  0  0  0
   -0.4087   -0.4499   -2.9587 S   0  0  0  0  0  0  0  0  0  0  0  0
   -3.2293    2.6991   -6.0386 C   0  0  0  0  0  0  0  0  0  0  0  0
   -4.5871    2.8028   -6.3440 C   0  0  0  0  0  0  0  0  0  0  0  0
   -5.3377    1.3425   -5.9554 S   0  0  0  0  0  0  0  0  0  0  0  0
   -5.2943    4.0766   -6.5752 C   0  0  0  0  0  0  0  0  0  0  0  0
   -4.5509    5.5891   -6.5902 S   0  0  0  0  0  0  0  0  0  0  0  0
   -5.9482    6.5297   -6.4331 C   0  0  0  0  0  0  0  0  0  0  0  0
   -7.0309    5.6544   -6.4233 C   0  0  0  0  0  0  0  0  0  0  0  0
   -6.6711    4.3019   -6.4867 C   0  0  0  0  0  0  0  0  0  0  0  0
   -7.6155    3.3318   -6.4086 N   0  0  0  0  0  0  0  0  0  0  0  0
   -8.9262    3.6730   -6.2774 C   0  0  0  0  0  0  0  0  0  0  0  0
   -9.2957    4.9856   -6.2105 N   0  0  0  0  0  0  0  0  0  0  0  0
   -8.3768    5.9866   -6.2820 C   0  0  0  0  0  0  0  0  0  0  0  0
   -6.0147    8.0011   -6.2975 C   0  0  0  0  0  0  0  0  0  0  0  0
   -5.1130    8.7621   -5.6574 C   0  0  0  0  0  0  0  0  0  0  0  0
   -3.9775    8.2596   -4.8634 C   0  0  0  0  0  0  0  0  0  0  0  0
   -3.9823    7.1926   -3.9578 C   0  0  0  0  0  0  0  0  0  0  0  0
   -2.7156    6.9514   -3.3935 C   0  0  0  0  0  0  0  0  0  0  0  0
   -2.3638    5.8868   -2.5335 C   0  0  0  0  0  0  0  0  0  0  0  0
   -3.3323    4.8518   -2.1323 C   0  0  0  0  0  0  0  0  0  0  0  0
   -3.1759    3.2204   -2.4970 S   0  0  0  0  0  0  0  0  0  0  0  0
   -4.5660    2.7187   -1.7021 C   0  0  0  0  0  0  0  0  0  0  0  0
   -4.9990    1.2907   -1.5887 C   0  0  0  0  0  0  0  0  0  0  0  0
   -4.1995    0.5601   -0.5131 C   0  0  0  0  0  0  0  0  0  0  0  0
   -5.1667    3.8296   -1.1104 C   0  0  0  0  0  0  0  0  0  0  0  0
   -6.6204    3.7404   -0.1282 Cl  0  0  0  0  0  0  0  0  0  0  0  0
   -4.4765    5.0271   -1.3562 C   0  0  0  0  0  0  0  0  0  0  0  0
   -4.9635    6.5767   -0.6851 Cl  0  0  0  0  0  0  0  0  0  0  0  0
   -1.0079    5.7919   -2.1611 C   0  0  0  0  0  0  0  0  0  0  0  0
   -0.0464    6.7095   -2.5940 C   0  0  0  0  0  0  0  0  0  0  0  0
   -0.3955    7.7667   -3.4542 C   0  0  0  0  0  0  0  0  0  0  0  0
    0.6222    8.6668   -4.0270 C   0  0  0  0  0  0  0  0  0  0  0  0
    1.0822    8.6706   -5.6432 S   0  0  0  0  0  0  0  0  0  0  0  0
    2.3093    9.8085   -5.4749 C   0  0  0  0  0  0  0  0  0  0  0  0
    3.2309   10.2304   -6.5783 C   0  0  0  0  0  0  0  0  0  0  0  0
    4.4661    9.3373   -6.6173 C   0  0  0  0  0  0  0  0  0  0  0  0
    2.3934   10.1773   -4.1339 C   0  0  0  0  0  0  0  0  0  0  0  0
    1.4414    9.5436   -3.3229 C   0  0  0  0  0  0  0  0  0  0  0  0
    1.3014    9.8289   -1.5936 Cl  0  0  0  0  0  0  0  0  0  0  0  0
    3.5978   11.2976   -3.5113 Cl  0  0  0  0  0  0  0  0  0  0  0  0
   -1.7421    7.8553   -3.8373 C   0  0  0  0  0  0  0  0  0  0  0  0
   -2.4400    8.9443   -4.9121 S   0  0  0  0  0  0  0  0  0  0  0  0
    1.2491    6.3890   -2.1735 C   0  0  0  0  0  0  0  0  0  0  0  0
    1.3091    5.2194   -1.4201 C   0  0  0  0  0  0  0  0  0  0  0  0
   -0.2471    4.5858   -1.2577 S   0  0  0  0  0  0  0  0  0  0  0  0
    2.5677    4.5661   -1.0282 C   0  0  0  0  0  0  0  0  0  0  0  0
    2.8348    3.1947   -1.0810 C   0  0  0  0  0  0  0  0  0  0  0  0
    4.2057    2.9013   -0.9360 C   0  0  0  0  0  0  0  0  0  0  0  0
    4.8134    1.6269   -1.0085 C   0  0  0  0  0  0  0  0  0  0  0  0
    4.0569    0.4051   -1.3456 C   0  0  0  0  0  0  0  0  0  0  0  0
    3.3989    0.1031   -2.8632 S   0  0  0  0  0  0  0  0  0  0  0  0
    3.0477   -1.5202   -2.5943 C   0  0  0  0  0  0  0  0  0  0  0  0
    2.5145   -2.4618   -3.6319 C   0  0  0  0  0  0  0  0  0  0  0  0
    3.6537   -3.1580   -4.3683 C   0  0  0  0  0  0  0  0  0  0  0  0
    3.4739   -1.8595   -1.3121 C   0  0  0  0  0  0  0  0  0  0  0  0
    3.3930   -3.4905   -0.6602 Cl  0  0  0  0  0  0  0  0  0  0  0  0
    4.0347   -0.7812   -0.6126 C   0  0  0  0  0  0  0  0  0  0  0  0
    4.6874   -0.9255    1.0111 Cl  0  0  0  0  0  0  0  0  0  0  0  0
    6.2161    1.5867   -0.8746 C   0  0  0  0  0  0  0  0  0  0  0  0
    6.9937    2.7336   -0.6841 C   0  0  0  0  0  0  0  0  0  0  0  0
    6.3875    4.0013   -0.6215 C   0  0  0  0  0  0  0  0  0  0  0  0
    7.1786    5.2414   -0.5284 C   0  0  0  0  0  0  0  0  0  0  0  0
    7.2575    6.4152   -1.7323 S   0  0  0  0  0  0  0  0  0  0  0  0
    8.2973    7.4472   -0.9092 C   0  0  0  0  0  0  0  0  0  0  0  0
    8.7361    8.7867   -1.4185 C   0  0  0  0  0  0  0  0  0  0  0  0
    7.6830    9.8456   -1.1201 C   0  0  0  0  0  0  0  0  0  0  0  0
    8.5761    6.8950    0.3428 C   0  0  0  0  0  0  0  0  0  0  0  0
    7.9551    5.6537    0.5526 C   0  0  0  0  0  0  0  0  0  0  0  0
    8.0943    4.7394    2.0496 Cl  0  0  0  0  0  0  0  0  0  0  0  0
    9.5895    7.6800    1.5485 Cl  0  0  0  0  0  0  0  0  0  0  0  0
    4.9917    4.0455   -0.7514 C   0  0  0  0  0  0  0  0  0  0  0  0
    4.0102    5.4041   -0.7870 S   0  0  0  0  0  0  0  0  0  0  0  0
    8.3738    2.4705   -0.6469 C   0  0  0  0  0  0  0  0  0  0  0  0
    8.6792    1.1239   -0.8081 C   0  0  0  0  0  0  0  0  0  0  0  0
    7.2449    0.2624   -1.0148 S   0  0  0  0  0  0  0  0  0  0  0  0
    0.7245  -11.2463   12.8619 H   0  0  0  0  0  0  0  0  0  0  0  0
    2.4128   -9.6440   11.7011 H   0  0  0  0  0  0  0  0  0  0  0  0
    7.4824   -7.4312   10.3260 H   0  0  0  0  0  0  0  0  0  0  0  0
    7.1617   -9.1845   10.1336 H   0  0  0  0  0  0  0  0  0  0  0  0
    7.3477   -7.1471    7.8167 H   0  0  0  0  0  0  0  0  0  0  0  0
    8.6481   -8.2883    8.3275 H   0  0  0  0  0  0  0  0  0  0  0  0
    7.1013   -8.9362    7.6544 H   0  0  0  0  0  0  0  0  0  0  0  0
   -6.7145   -9.3536    8.4719 H   0  0  0  0  0  0  0  0  0  0  0  0
   -6.8248  -11.0620    7.9341 H   0  0  0  0  0  0  0  0  0  0  0  0
   -6.1610  -10.3248    5.5917 H   0  0  0  0  0  0  0  0  0  0  0  0
   -6.2101   -8.6056    6.1707 H   0  0  0  0  0  0  0  0  0  0  0  0
   -7.7108   -9.6084    6.1677 H   0  0  0  0  0  0  0  0  0  0  0  0
   -1.8311   -8.2402    6.1422 H   0  0  0  0  0  0  0  0  0  0  0  0
    1.2242   -4.7818    4.8476 H   0  0  0  0  0  0  0  0  0  0  0  0
    1.9444    0.9545    5.2210 H   0  0  0  0  0  0  0  0  0  0  0  0
    3.6262    0.4065    5.5355 H   0  0  0  0  0  0  0  0  0  0  0  0
    4.3087    1.1057    3.2383 H   0  0  0  0  0  0  0  0  0  0  0  0
    2.6078    1.6102    2.8688 H   0  0  0  0  0  0  0  0  0  0  0  0
    3.5621    2.4785    4.1321 H   0  0  0  0  0  0  0  0  0  0  0  0
   -4.0221  -10.1478   -0.4642 H   0  0  0  0  0  0  0  0  0  0  0  0
   -5.6638   -9.4248   -0.4274 H   0  0  0  0  0  0  0  0  0  0  0  0
   -5.0535  -10.2557   -2.7064 H   0  0  0  0  0  0  0  0  0  0  0  0
   -3.6290   -9.1484   -2.7439 H   0  0  0  0  0  0  0  0  0  0  0  0
   -5.3116   -8.4723   -2.7167 H   0  0  0  0  0  0  0  0  0  0  0  0
   -2.2188   -4.2603   -1.3647 H   0  0  0  0  0  0  0  0  0  0  0  0
   -3.2582   -2.5689   -2.6894 H   0  0  0  0  0  0  0  0  0  0  0  0
   -9.1866   -3.4087   -4.9316 H   0  0  0  0  0  0  0  0  0  0  0  0
   -9.3477   -1.8877   -3.9977 H   0  0  0  0  0  0  0  0  0  0  0  0
  -10.0868   -3.8190   -2.6416 H   0  0  0  0  0  0  0  0  0  0  0  0
   -8.6111   -3.0818   -1.9082 H   0  0  0  0  0  0  0  0  0  0  0  0
   -8.4869   -4.6254   -2.8495 H   0  0  0  0  0  0  0  0  0  0  0  0
    2.6794    4.6649   -3.7798 H   0  0  0  0  0  0  0  0  0  0  0  0
    2.8279    5.1726   -5.4876 H   0  0  0  0  0  0  0  0  0  0  0  0
    4.2109    3.0943   -5.9383 H   0  0  0  0  0  0  0  0  0  0  0  0
    4.9418    4.1709   -4.6904 H   0  0  0  0  0  0  0  0  0  0  0  0
    4.0856    2.6671   -4.1793 H   0  0  0  0  0  0  0  0  0  0  0  0
   -2.5450    3.5354   -6.1039 H   0  0  0  0  0  0  0  0  0  0  0  0
   -9.6772    2.8979   -6.2225 H   0  0  0  0  0  0  0  0  0  0  0  0
   -8.6989    7.0143   -6.2049 H   0  0  0  0  0  0  0  0  0  0  0  0
   -6.8521    8.5035   -6.7645 H   0  0  0  0  0  0  0  0  0  0  0  0
   -5.2181    9.8345   -5.7297 H   0  0  0  0  0  0  0  0  0  0  0  0
   -4.8621    6.5974   -3.7502 H   0  0  0  0  0  0  0  0  0  0  0  0
   -4.8321    0.7967   -2.5615 H   0  0  0  0  0  0  0  0  0  0  0  0
   -6.0827    1.2251   -1.3566 H   0  0  0  0  0  0  0  0  0  0  0  0
   -3.1129    0.5973   -0.7445 H   0  0  0  0  0  0  0  0  0  0  0  0
   -4.5107   -0.5048   -0.4767 H   0  0  0  0  0  0  0  0  0  0  0  0
   -4.3808    1.0224    0.4817 H   0  0  0  0  0  0  0  0  0  0  0  0
    2.7007   10.1589   -7.5511 H   0  0  0  0  0  0  0  0  0  0  0  0
    3.5382   11.2882   -6.4350 H   0  0  0  0  0  0  0  0  0  0  0  0
    4.1717    8.2810   -6.8036 H   0  0  0  0  0  0  0  0  0  0  0  0
    5.0150    9.3986   -5.6552 H   0  0  0  0  0  0  0  0  0  0  0  0
    5.1413    9.6734   -7.4355 H   0  0  0  0  0  0  0  0  0  0  0  0
    2.1313    6.9430   -2.4668 H   0  0  0  0  0  0  0  0  0  0  0  0
    2.0764    2.4518   -1.2885 H   0  0  0  0  0  0  0  0  0  0  0  0
    1.8564   -3.2194   -3.1547 H   0  0  0  0  0  0  0  0  0  0  0  0
    1.9000   -1.8952   -4.3651 H   0  0  0  0  0  0  0  0  0  0  0  0
    4.2845   -2.4069   -4.8931 H   0  0  0  0  0  0  0  0  0  0  0  0
    4.2860   -3.7311   -3.6583 H   0  0  0  0  0  0  0  0  0  0  0  0
    3.2348   -3.8604   -5.1198 H   0  0  0  0  0  0  0  0  0  0  0  0
    9.6996    9.0809   -0.9510 H   0  0  0  0  0  0  0  0  0  0  0  0
    8.8972    8.7244   -2.5168 H   0  0  0  0  0  0  0  0  0  0  0  0
    7.4977    9.9068   -0.0251 H   0  0  0  0  0  0  0  0  0  0  0  0
    6.7341    9.6004   -1.6456 H   0  0  0  0  0  0  0  0  0  0  0  0
    8.0362   10.8358   -1.4755 H   0  0  0  0  0  0  0  0  0  0  0  0
    9.1330    3.2291   -0.5242 H   0  0  0  0  0  0  0  0  0  0  0  0
    9.6748    0.7065   -0.8227 H   0  0  0  0  0  0  0  0  0  0  0  0
  1  2  2  0
  2  3  1  0
  3  4  2  0
  4  5  1  0
  5  6  1  0
  6  7  1  0
  7  8  1  0
  8  9  1  0
  7 10  2  0
 10 11  1  0
 10 12  1  0
 12 13  1  0
  4 14  1  0
 14 15  2  0
 15 16  1  0
 16 17  1  0
 17 18  1  0
 18 19  1  0
 19 20  1  0
 20 21  1  0
 19 22  2  0
 22 23  1  0
 23 24  1  0
 22 25  1  0
 16 26  2  0
 26 27  1  0
 15 28  1  0
 28 29  2  0
 29 30  1  0
 29 31  1  0
 31 32  2  0
 32 33  1  0
 33 34  2  0
 34 35  1  0
 35 36  1  0
 36 37  1  0
 37 38  1  0
 38 39  1  0
 37 40  2  0
 40 41  1  0
 40 42  1  0
 42 43  1  0
 34 44  1  0
 44 45  2  0
 45 46  1  0
 46 47  1  0
 47 48  1  0
 48 49  1  0
 49 50  1  0
 50 51  1  0
 49 52  2  0
 52 53  1  0
 53 54  1  0
 52 55  1  0
 46 56  2  0
 56 57  1  0
 45 58  1  0
 58 59  2  0
 59 60  1  0
 59 61  1  0
 61 62  2  0
 62 63  1  0
 63 64  2  0
 64 65  1  0
 65 66  1  0
 66 67  1  0
 67 68  1  0
 68 69  1  0
 67 70  2  0
 70 71  1  0
 70 72  1  0
 72 73  1  0
 64 74  1  0
 74 75  2  0
 75 76  1  0
 76 77  1  0
 77 78  1  0
 78 79  1  0
 79 80  1  0
 80 81  1  0
 79 82  2  0
 82 83  1  0
 83 84  1  0
 82 85  1  0
 76 86  2  0
 86 87  1  0
 75 88  1  0
 88 89  2  0
 89 90  1  0
 89 91  1  0
 91 92  1  0
 92 93  1  0
 93 94  2  0
 94 95  1  0
 95 96  1  0
 96 97  2  0
 97 98  1  0
 98 99  2  0
 93100  1  0
100101  2  3
101102  1  0
102103  2  0
103104  1  0
104105  2  0
105106  1  0
106107  1  0
107108  1  0
108109  1  0
109110  1  0
108111  2  0
111112  1  0
111113  1  0
113114  1  0
105115  1  0
115116  2  0
116117  1  0
117118  1  0
118119  1  0
119120  1  0
120121  1  0
121122  1  0
120123  2  0
123124  1  0
124125  1  0
123126  1  0
117127  2  0
127128  1  0
116129  1  0
129130  2  0
130131  1  0
130132  1  0
132133  2  0
133134  1  0
134135  2  0
135136  1  0
136137  1  0
137138  1  0
138139  1  0
139140  1  0
138141  2  0
141142  1  0
141143  1  0
143144  1  0
135145  1  0
145146  2  0
146147  1  0
147148  1  0
148149  1  0
149150  1  0
150151  1  0
151152  1  0
150153  2  0
153154  1  0
154155  1  0
153156  1  0
147157  2  0
157158  1  0
146159  1  0
159160  2  0
160161  1  0
 27  1  1  0
 57 31  1  0
 87 61  1  0
 95 91  2  0
128102  1  0
158132  1  0
 26  3  1  0
 56 33  1  0
 86 63  1  0
 99 94  1  0
127104  1  0
157134  1  0
 12  5  2  0
 30 14  1  0
 42 35  2  0
 60 44  1  0
 72 65  2  0
 90 74  1  0
113106  2  0
131115  1  0
143136  2  0
161145  1  0
 23 17  2  0
 53 47  2  0
 83 77  2  0
124118  2  0
154148  2  0
  1162  1  0
  2163  1  0
  8164  1  0
  8165  1  0
  9166  1  0
  9167  1  0
  9168  1  0
 20169  1  0
 20170  1  0
 21171  1  0
 21172  1  0
 21173  1  0
 28174  1  0
 32175  1  0
 38176  1  0
 38177  1  0
 39178  1  0
 39179  1  0
 39180  1  0
 50181  1  0
 50182  1  0
 51183  1  0
 51184  1  0
 51185  1  0
 58186  1  0
 62187  1  0
 68188  1  0
 68189  1  0
 69190  1  0
 69191  1  0
 69192  1  0
 80193  1  0
 80194  1  0
 81195  1  0
 81196  1  0
 81197  1  0
 88198  1  0
 97199  1  0
 99200  1  0
100201  1  0
101202  1  0
103203  1  0
109204  1  0
109205  1  0
110206  1  0
110207  1  0
110208  1  0
121209  1  0
121210  1  0
122211  1  0
122212  1  0
122213  1  0
129214  1  0
133215  1  0
139216  1  0
139217  1  0
140218  1  0
140219  1  0
140220  1  0
151221  1  0
151222  1  0
152223  1  0
152224  1  0
152225  1  0
159226  1  0
160227  1  0
M  END

