
     RDKit          3D

234260  0  0  0  0  0  0  0  0999 V2000
    1.8050  -13.5251   -0.8625 C   0  0  0  0  0  0  0  0  0  0  0  0
    1.5967  -12.1573   -0.7061 C   0  0  0  0  0  0  0  0  0  0  0  0
    2.7033  -11.4883   -0.1599 C   0  0  0  0  0  0  0  0  0  0  0  0
    2.7996  -10.1103    0.1156 C   0  0  0  0  0  0  0  0  0  0  0  0
    1.6971   -9.1661   -0.1529 C   0  0  0  0  0  0  0  0  0  0  0  0
    0.9554   -8.2049    1.0145 S   0  0  0  0  0  0  0  0  0  0  0  0
    0.0383   -7.2894   -0.0584 C   0  0  0  0  0  0  0  0  0  0  0  0
   -0.9015   -6.1926    0.3476 C   0  0  0  0  0  0  0  0  0  0  0  0
   -2.3126   -6.7310    0.5420 C   0  0  0  0  0  0  0  0  0  0  0  0
    0.2986   -7.7284   -1.3535 C   0  0  0  0  0  0  0  0  0  0  0  0
   -0.4392   -7.0225   -2.7857 Cl  0  0  0  0  0  0  0  0  0  0  0  0
    1.2378   -8.7748   -1.4081 C   0  0  0  0  0  0  0  0  0  0  0  0
    1.8428   -9.4522   -2.9144 Cl  0  0  0  0  0  0  0  0  0  0  0  0
    4.0150   -9.6555    0.6504 C   0  0  0  0  0  0  0  0  0  0  0  0
    5.1009  -10.5005    0.9039 C   0  0  0  0  0  0  0  0  0  0  0  0
    4.9913  -11.8845    0.6602 C   0  0  0  0  0  0  0  0  0  0  0  0
    6.0736  -12.8219    0.9929 C   0  0  0  0  0  0  0  0  0  0  0  0
    5.9941  -13.9686    2.2208 S   0  0  0  0  0  0  0  0  0  0  0  0
    7.5410  -14.5880    1.9868 C   0  0  0  0  0  0  0  0  0  0  0  0
    8.1760  -15.6397    2.8465 C   0  0  0  0  0  0  0  0  0  0  0  0
    9.0088  -14.9967    3.9511 C   0  0  0  0  0  0  0  0  0  0  0  0
    8.1460  -13.8938    0.9373 C   0  0  0  0  0  0  0  0  0  0  0  0
    7.3207  -12.9028    0.3808 C   0  0  0  0  0  0  0  0  0  0  0  0
    7.8003  -11.8888   -0.9753 Cl  0  0  0  0  0  0  0  0  0  0  0  0
    9.7792  -14.2141    0.3732 Cl  0  0  0  0  0  0  0  0  0  0  0  0
    3.7744  -12.3436    0.1234 C   0  0  0  0  0  0  0  0  0  0  0  0
    3.3531  -13.9130   -0.3128 S   0  0  0  0  0  0  0  0  0  0  0  0
    6.2311   -9.8175    1.3968 C   0  0  0  0  0  0  0  0  0  0  0  0
    6.0067   -8.4478    1.5226 C   0  0  0  0  0  0  0  0  0  0  0  0
    4.4408   -8.0766    1.0256 S   0  0  0  0  0  0  0  0  0  0  0  0
    6.9710   -7.4176    1.8954 C   0  0  0  0  0  0  0  0  0  0  0  0
    7.7371   -6.7548    0.9338 C   0  0  0  0  0  0  0  0  0  0  0  0
    7.9671   -5.4004    1.2409 C   0  0  0  0  0  0  0  0  0  0  0  0
    8.4938   -4.4351    0.3566 C   0  0  0  0  0  0  0  0  0  0  0  0
    9.1434   -4.8290   -0.9089 C   0  0  0  0  0  0  0  0  0  0  0  0
    8.5882   -4.4641   -2.4579 S   0  0  0  0  0  0  0  0  0  0  0  0
    9.8160   -5.2704   -3.2829 C   0  0  0  0  0  0  0  0  0  0  0  0
    9.9001   -5.4070   -4.7750 C   0  0  0  0  0  0  0  0  0  0  0  0
    9.3792   -6.7677   -5.2227 C   0  0  0  0  0  0  0  0  0  0  0  0
   10.6737   -5.8487   -2.3525 C   0  0  0  0  0  0  0  0  0  0  0  0
   12.0957   -6.7890   -2.7902 Cl  0  0  0  0  0  0  0  0  0  0  0  0
   10.2956   -5.6066   -1.0226 C   0  0  0  0  0  0  0  0  0  0  0  0
   11.2020   -6.2043    0.3643 Cl  0  0  0  0  0  0  0  0  0  0  0  0
    8.2874   -3.0872    0.6996 C   0  0  0  0  0  0  0  0  0  0  0  0
    7.6843   -2.7035    1.9050 C   0  0  0  0  0  0  0  0  0  0  0  0
    7.2800   -3.6690    2.8467 C   0  0  0  0  0  0  0  0  0  0  0  0
    6.6017   -3.2889    4.1002 C   0  0  0  0  0  0  0  0  0  0  0  0
    5.0031   -3.6433    4.4883 S   0  0  0  0  0  0  0  0  0  0  0  0
    5.0144   -2.9010    5.9971 C   0  0  0  0  0  0  0  0  0  0  0  0
    3.8236   -2.7926    6.8994 C   0  0  0  0  0  0  0  0  0  0  0  0
    3.1102   -1.4645    6.6880 C   0  0  0  0  0  0  0  0  0  0  0  0
    6.2713   -2.3364    6.2099 C   0  0  0  0  0  0  0  0  0  0  0  0
    7.1620   -2.5539    5.1426 C   0  0  0  0  0  0  0  0  0  0  0  0
    8.8230   -1.9785    5.1417 Cl  0  0  0  0  0  0  0  0  0  0  0  0
    6.6982   -1.4328    7.6554 Cl  0  0  0  0  0  0  0  0  0  0  0  0
    7.3980   -5.0128    2.4583 C   0  0  0  0  0  0  0  0  0  0  0  0
    6.6258   -6.3335    3.1412 S   0  0  0  0  0  0  0  0  0  0  0  0
    7.3442   -1.3422    1.9454 C   0  0  0  0  0  0  0  0  0  0  0  0
    7.6354   -0.6621    0.7619 C   0  0  0  0  0  0  0  0  0  0  0  0
    8.3928   -1.7389   -0.3006 S   0  0  0  0  0  0  0  0  0  0  0  0
    6.9402    0.5640    0.3196 C   0  0  0  0  0  0  0  0  0  0  0  0
    5.8389    1.1305    0.9707 C   0  0  0  0  0  0  0  0  0  0  0  0
    5.0659    1.9561    0.1381 C   0  0  0  0  0  0  0  0  0  0  0  0
    3.8312    2.5426    0.4722 C   0  0  0  0  0  0  0  0  0  0  0  0
    3.1468    2.2665    1.7484 C   0  0  0  0  0  0  0  0  0  0  0  0
    2.6592    3.4405    2.8550 S   0  0  0  0  0  0  0  0  0  0  0  0
    1.7153    2.4136    3.7972 C   0  0  0  0  0  0  0  0  0  0  0  0
    0.9667    2.8278    5.0251 C   0  0  0  0  0  0  0  0  0  0  0  0
    1.7774    2.5271    6.2799 C   0  0  0  0  0  0  0  0  0  0  0  0
    1.7619    1.1328    3.2496 C   0  0  0  0  0  0  0  0  0  0  0  0
    0.8414   -0.2258    3.8789 Cl  0  0  0  0  0  0  0  0  0  0  0  0
    2.5586    1.0540    2.0964 C   0  0  0  0  0  0  0  0  0  0  0  0
    2.7219   -0.4157    1.1384 Cl  0  0  0  0  0  0  0  0  0  0  0  0
    3.1496    3.2169   -0.5520 C   0  0  0  0  0  0  0  0  0  0  0  0
    3.6254    3.2695   -1.8675 C   0  0  0  0  0  0  0  0  0  0  0  0
    4.8773    2.7074   -2.1969 C   0  0  0  0  0  0  0  0  0  0  0  0
    5.4189    2.7707   -3.5651 C   0  0  0  0  0  0  0  0  0  0  0  0
    5.9323    4.1906   -4.3106 S   0  0  0  0  0  0  0  0  0  0  0  0
    6.5720    3.4527   -5.6793 C   0  0  0  0  0  0  0  0  0  0  0  0
    7.3295    4.1763   -6.7500 C   0  0  0  0  0  0  0  0  0  0  0  0
    8.7322    4.5422   -6.2699 C   0  0  0  0  0  0  0  0  0  0  0  0
    6.4057    2.0716   -5.5627 C   0  0  0  0  0  0  0  0  0  0  0  0
    5.7437    1.6914   -4.3860 C   0  0  0  0  0  0  0  0  0  0  0  0
    5.3386    0.0207   -4.0109 Cl  0  0  0  0  0  0  0  0  0  0  0  0
    7.0010    0.9130   -6.7424 Cl  0  0  0  0  0  0  0  0  0  0  0  0
    5.5774    2.0640   -1.1589 C   0  0  0  0  0  0  0  0  0  0  0  0
    6.9839    1.1463   -1.2656 S   0  0  0  0  0  0  0  0  0  0  0  0
    2.6752    3.7807   -2.7760 C   0  0  0  0  0  0  0  0  0  0  0  0
    1.4834    4.1561   -2.1563 C   0  0  0  0  0  0  0  0  0  0  0  0
    1.5868    3.8293   -0.5078 S   0  0  0  0  0  0  0  0  0  0  0  0
    0.2007    4.3898   -2.8217 C   0  0  0  0  0  0  0  0  0  0  0  0
   -0.7668    5.2653   -2.3389 C   0  0  0  0  0  0  0  0  0  0  0  0
   -2.0654    4.9482   -2.7667 C   0  0  0  0  0  0  0  0  0  0  0  0
   -3.2511    5.5765   -2.3427 C   0  0  0  0  0  0  0  0  0  0  0  0
   -3.2161    6.8075   -1.5415 C   0  0  0  0  0  0  0  0  0  0  0  0
   -3.0850    8.3513   -2.1923 S   0  0  0  0  0  0  0  0  0  0  0  0
   -2.9270    9.1491   -0.7210 C   0  0  0  0  0  0  0  0  0  0  0  0
   -2.7409   10.6259   -0.5758 C   0  0  0  0  0  0  0  0  0  0  0  0
   -1.2723   11.0104   -0.7066 C   0  0  0  0  0  0  0  0  0  0  0  0
   -2.9317    8.2023    0.3048 C   0  0  0  0  0  0  0  0  0  0  0  0
   -2.6617    8.5937    1.9958 Cl  0  0  0  0  0  0  0  0  0  0  0  0
   -3.1115    6.8883   -0.1564 C   0  0  0  0  0  0  0  0  0  0  0  0
   -3.1489    5.4837    0.9018 Cl  0  0  0  0  0  0  0  0  0  0  0  0
   -4.4620    4.9585   -2.6857 C   0  0  0  0  0  0  0  0  0  0  0  0
   -4.5150    3.7983   -3.4613 C   0  0  0  0  0  0  0  0  0  0  0  0
   -3.3320    3.2128   -3.9560 C   0  0  0  0  0  0  0  0  0  0  0  0
   -3.3574    1.9429   -4.7014 C   0  0  0  0  0  0  0  0  0  0  0  0
   -2.7816    0.4731   -4.1168 S   0  0  0  0  0  0  0  0  0  0  0  0
   -3.2421   -0.4390   -5.4529 C   0  0  0  0  0  0  0  0  0  0  0  0
   -2.9597   -1.9015   -5.6150 C   0  0  0  0  0  0  0  0  0  0  0  0
   -1.6214   -2.1193   -6.3130 C   0  0  0  0  0  0  0  0  0  0  0  0
   -3.8363    0.4048   -6.3887 C   0  0  0  0  0  0  0  0  0  0  0  0
   -3.9184    1.7380   -5.9585 C   0  0  0  0  0  0  0  0  0  0  0  0
   -4.6342    3.0255   -6.9224 Cl  0  0  0  0  0  0  0  0  0  0  0  0
   -4.4237   -0.1437   -7.9551 Cl  0  0  0  0  0  0  0  0  0  0  0  0
   -2.1175    3.8086   -3.5727 C   0  0  0  0  0  0  0  0  0  0  0  0
   -0.5553    3.2213   -3.7780 S   0  0  0  0  0  0  0  0  0  0  0  0
   -5.8012    3.2386   -3.5236 C   0  0  0  0  0  0  0  0  0  0  0  0
   -6.7470    3.9667   -2.8037 C   0  0  0  0  0  0  0  0  0  0  0  0
   -5.9912    5.2837   -2.0716 S   0  0  0  0  0  0  0  0  0  0  0  0
   -7.9998    3.3909   -2.3119 C   0  0  0  0  0  0  0  0  0  0  0  0
   -9.2766    4.0407   -2.4480 N   0  0  0  0  0  0  0  0  0  0  0  0
   -9.7920    4.6147   -3.6851 C   0  0  0  0  0  0  0  0  0  0  0  0
  -10.0848    3.5172   -1.3892 C   0  0  0  0  0  0  0  0  0  0  0  0
  -11.2876    3.8298   -1.1767 O   0  0  0  0  0  0  0  0  0  0  0  0
   -9.2927    2.5763   -0.6260 C   0  0  0  0  0  0  0  0  0  0  0  0
   -8.0290    2.5307   -1.2910 C   0  0  0  0  0  0  0  0  0  0  0  0
   -7.0594    2.2506   -0.2497 C   0  0  0  0  0  0  0  0  0  0  0  0
   -5.8034    2.2373   -0.3753 O   0  0  0  0  0  0  0  0  0  0  0  0
   -7.7536    2.1105    0.9913 N   0  0  0  0  0  0  0  0  0  0  0  0
   -7.1172    2.0985    2.3013 C   0  0  0  0  0  0  0  0  0  0  0  0
   -9.1296    2.4194    0.6889 C   0  0  0  0  0  0  0  0  0  0  0  0
  -10.1685    2.6732    1.6990 C   0  0  0  0  0  0  0  0  0  0  0  0
  -10.0799    3.6313    2.6283 C   0  0  0  0  0  0  0  0  0  0  0  0
   -9.1013    4.7307    2.5842 C   0  0  0  0  0  0  0  0  0  0  0  0
   -8.3872    5.1990    3.6831 C   0  0  0  0  0  0  0  0  0  0  0  0
   -7.6702    6.3760    3.4051 C   0  0  0  0  0  0  0  0  0  0  0  0
   -6.8482    7.0829    4.3036 C   0  0  0  0  0  0  0  0  0  0  0  0
   -6.5149    6.5377    5.6309 C   0  0  0  0  0  0  0  0  0  0  0  0
   -5.6167    5.1364    5.8754 S   0  0  0  0  0  0  0  0  0  0  0  0
   -5.6272    5.2074    7.5544 C   0  0  0  0  0  0  0  0  0  0  0  0
   -4.8918    4.2565    8.4492 C   0  0  0  0  0  0  0  0  0  0  0  0
   -3.5245    4.8172    8.8236 C   0  0  0  0  0  0  0  0  0  0  0  0
   -6.3267    6.3453    7.9476 C   0  0  0  0  0  0  0  0  0  0  0  0
   -6.5458    6.8189    9.6274 Cl  0  0  0  0  0  0  0  0  0  0  0  0
   -6.8323    7.0905    6.8693 C   0  0  0  0  0  0  0  0  0  0  0  0
   -7.7947    8.5526    7.0683 Cl  0  0  0  0  0  0  0  0  0  0  0  0
   -6.2955    8.2891    3.8458 C   0  0  0  0  0  0  0  0  0  0  0  0
   -6.5240    8.7798    2.5547 C   0  0  0  0  0  0  0  0  0  0  0  0
   -7.3236    8.0577    1.6486 C   0  0  0  0  0  0  0  0  0  0  0  0
   -7.5874    8.5497    0.2902 C   0  0  0  0  0  0  0  0  0  0  0  0
   -6.4685    8.5411   -0.9606 S   0  0  0  0  0  0  0  0  0  0  0  0
   -7.5131    9.1137   -2.1466 C   0  0  0  0  0  0  0  0  0  0  0  0
   -7.1703    9.2168   -3.5985 C   0  0  0  0  0  0  0  0  0  0  0  0
   -7.6882    8.0010   -4.3640 C   0  0  0  0  0  0  0  0  0  0  0  0
   -8.7659    9.3204   -1.5726 C   0  0  0  0  0  0  0  0  0  0  0  0
   -8.8074    9.0044   -0.2059 C   0  0  0  0  0  0  0  0  0  0  0  0
  -10.2567    9.1650    0.7791 Cl  0  0  0  0  0  0  0  0  0  0  0  0
  -10.1655    9.8970   -2.4698 Cl  0  0  0  0  0  0  0  0  0  0  0  0
   -7.8762    6.8501    2.1068 C   0  0  0  0  0  0  0  0  0  0  0  0
   -8.8862    5.7834    1.2825 S   0  0  0  0  0  0  0  0  0  0  0  0
   -5.8851   10.0088    2.3102 C   0  0  0  0  0  0  0  0  0  0  0  0
   -5.1578   10.4727    3.4035 C   0  0  0  0  0  0  0  0  0  0  0  0
   -5.2910    9.3582    4.6671 S   0  0  0  0  0  0  0  0  0  0  0  0
    1.0941  -14.2251   -1.2741 H   0  0  0  0  0  0  0  0  0  0  0  0
    0.6714  -11.6716   -0.9891 H   0  0  0  0  0  0  0  0  0  0  0  0
   -0.5499   -5.7397    1.2977 H   0  0  0  0  0  0  0  0  0  0  0  0
   -0.9122   -5.3952   -0.4239 H   0  0  0  0  0  0  0  0  0  0  0  0
   -2.9872   -5.9039    0.8483 H   0  0  0  0  0  0  0  0  0  0  0  0
   -2.3283   -7.5086    1.3380 H   0  0  0  0  0  0  0  0  0  0  0  0
   -2.6956   -7.1692   -0.4055 H   0  0  0  0  0  0  0  0  0  0  0  0
    7.3859  -16.2697    3.3089 H   0  0  0  0  0  0  0  0  0  0  0  0
    8.8190  -16.3006    2.2297 H   0  0  0  0  0  0  0  0  0  0  0  0
    9.8237  -14.3798    3.5150 H   0  0  0  0  0  0  0  0  0  0  0  0
    8.3698  -14.3569    4.5984 H   0  0  0  0  0  0  0  0  0  0  0  0
    9.4645  -15.7865    4.5818 H   0  0  0  0  0  0  0  0  0  0  0  0
    7.1735  -10.2875    1.6370 H   0  0  0  0  0  0  0  0  0  0  0  0
    7.9494   -7.1831   -0.0365 H   0  0  0  0  0  0  0  0  0  0  0  0
   10.9532   -5.2824   -5.1032 H   0  0  0  0  0  0  0  0  0  0  0  0
    9.2956   -4.6087   -5.2545 H   0  0  0  0  0  0  0  0  0  0  0  0
    9.4653   -6.8554   -6.3263 H   0  0  0  0  0  0  0  0  0  0  0  0
    9.9682   -7.5865   -4.7592 H   0  0  0  0  0  0  0  0  0  0  0  0
    8.3107   -6.8810   -4.9418 H   0  0  0  0  0  0  0  0  0  0  0  0
    3.1185   -3.6254    6.6808 H   0  0  0  0  0  0  0  0  0  0  0  0
    4.1398   -2.8853    7.9602 H   0  0  0  0  0  0  0  0  0  0  0  0
    2.1662   -1.4472    7.2719 H   0  0  0  0  0  0  0  0  0  0  0  0
    3.7543   -0.6205    7.0198 H   0  0  0  0  0  0  0  0  0  0  0  0
    2.8654   -1.3286    5.6142 H   0  0  0  0  0  0  0  0  0  0  0  0
    6.7699   -0.9059    2.7502 H   0  0  0  0  0  0  0  0  0  0  0  0
    5.5426    0.8696    1.9767 H   0  0  0  0  0  0  0  0  0  0  0  0
    0.7521    3.9159    4.9817 H   0  0  0  0  0  0  0  0  0  0  0  0
   -0.0059    2.2943    5.0722 H   0  0  0  0  0  0  0  0  0  0  0  0
    2.7134    3.1275    6.2828 H   0  0  0  0  0  0  0  0  0  0  0  0
    1.1840    2.7940    7.1777 H   0  0  0  0  0  0  0  0  0  0  0  0
    2.0326    1.4461    6.3321 H   0  0  0  0  0  0  0  0  0  0  0  0
    7.4050    3.5516   -7.6685 H   0  0  0  0  0  0  0  0  0  0  0  0
    6.7866    5.1060   -7.0226 H   0  0  0  0  0  0  0  0  0  0  0  0
    9.2889    3.6280   -5.9654 H   0  0  0  0  0  0  0  0  0  0  0  0
    8.6733    5.2407   -5.4075 H   0  0  0  0  0  0  0  0  0  0  0  0
    9.2893    5.0417   -7.0914 H   0  0  0  0  0  0  0  0  0  0  0  0
    2.8113    3.7973   -3.8482 H   0  0  0  0  0  0  0  0  0  0  0  0
   -0.5522    6.0377   -1.6115 H   0  0  0  0  0  0  0  0  0  0  0  0
   -3.1336   10.9722    0.4070 H   0  0  0  0  0  0  0  0  0  0  0  0
   -3.3295   11.1460   -1.3617 H   0  0  0  0  0  0  0  0  0  0  0  0
   -1.1734   12.1112   -0.6115 H   0  0  0  0  0  0  0  0  0  0  0  0
   -0.8741   10.7022   -1.6981 H   0  0  0  0  0  0  0  0  0  0  0  0
   -0.6758   10.5269    0.0993 H   0  0  0  0  0  0  0  0  0  0  0  0
   -3.7692   -2.3773   -6.2056 H   0  0  0  0  0  0  0  0  0  0  0  0
   -2.9371   -2.3840   -4.6165 H   0  0  0  0  0  0  0  0  0  0  0  0
   -1.3831   -3.2030   -6.3264 H   0  0  0  0  0  0  0  0  0  0  0  0
   -0.8126   -1.5788   -5.7761 H   0  0  0  0  0  0  0  0  0  0  0  0
   -1.6738   -1.7503   -7.3608 H   0  0  0  0  0  0  0  0  0  0  0  0
   -6.0199    2.2828   -3.9841 H   0  0  0  0  0  0  0  0  0  0  0  0
  -10.7008    5.2213   -3.4750 H   0  0  0  0  0  0  0  0  0  0  0  0
  -10.0540    3.8018   -4.3943 H   0  0  0  0  0  0  0  0  0  0  0  0
   -9.0263    5.2727   -4.1402 H   0  0  0  0  0  0  0  0  0  0  0  0
   -6.2622    1.3880    2.2931 H   0  0  0  0  0  0  0  0  0  0  0  0
   -6.7366    3.1111    2.5498 H   0  0  0  0  0  0  0  0  0  0  0  0
   -7.8396    1.7695    3.0780 H   0  0  0  0  0  0  0  0  0  0  0  0
  -11.0034    1.9819    1.7420 H   0  0  0  0  0  0  0  0  0  0  0  0
  -10.8001    3.6297    3.4398 H   0  0  0  0  0  0  0  0  0  0  0  0
   -8.4023    4.7131    4.6490 H   0  0  0  0  0  0  0  0  0  0  0  0
   -5.4833    4.0682    9.3729 H   0  0  0  0  0  0  0  0  0  0  0  0
   -4.7544    3.2894    7.9236 H   0  0  0  0  0  0  0  0  0  0  0  0
   -3.6359    5.7612    9.3955 H   0  0  0  0  0  0  0  0  0  0  0  0
   -2.9796    4.0810    9.4521 H   0  0  0  0  0  0  0  0  0  0  0  0
   -2.9289    5.0160    7.9070 H   0  0  0  0  0  0  0  0  0  0  0  0
   -7.6138   10.1411   -4.0270 H   0  0  0  0  0  0  0  0  0  0  0  0
   -6.0658    9.2743   -3.7168 H   0  0  0  0  0  0  0  0  0  0  0  0
   -7.3872    8.0711   -5.4284 H   0  0  0  0  0  0  0  0  0  0  0  0
   -8.7942    7.9442   -4.3080 H   0  0  0  0  0  0  0  0  0  0  0  0
   -7.2547    7.0732   -3.9379 H   0  0  0  0  0  0  0  0  0  0  0  0
   -5.9448   10.5507    1.3733 H   0  0  0  0  0  0  0  0  0  0  0  0
   -4.5894   11.3916    3.4327 H   0  0  0  0  0  0  0  0  0  0  0  0
  1  2  2  0
  2  3  1  0
  3  4  2  0
  4  5  1  0
  5  6  1  0
  6  7  1  0
  7  8  1  0
  8  9  1  0
  7 10  2  0
 10 11  1  0
 10 12  1  0
 12 13  1  0
  4 14  1  0
 14 15  2  0
 15 16  1  0
 16 17  1  0
 17 18  1  0
 18 19  1  0
 19 20  1  0
 20 21  1  0
 19 22  2  0
 22 23  1  0
 23 24  1  0
 22 25  1  0
 16 26  2  0
 26 27  1  0
 15 28  1  0
 28 29  2  0
 29 30  1  0
 29 31  1  0
 31 32  2  0
 32 33  1  0
 33 34  2  0
 34 35  1  0
 35 36  1  0
 36 37  1  0
 37 38  1  0
 38 39  1  0
 37 40  2  0
 40 41  1  0
 40 42  1  0
 42 43  1  0
 34 44  1  0
 44 45  2  0
 45 46  1  0
 46 47  1  0
 47 48  1  0
 48 49  1  0
 49 50  1  0
 50 51  1  0
 49 52  2  0
 52 53  1  0
 53 54  1  0
 52 55  1  0
 46 56  2  0
 56 57  1  0
 45 58  1  0
 58 59  2  0
 59 60  1  0
 59 61  1  0
 61 62  2  0
 62 63  1  0
 63 64  2  0
 64 65  1  0
 65 66  1  0
 66 67  1  0
 67 68  1  0
 68 69  1  0
 67 70  2  0
 70 71  1  0
 70 72  1  0
 72 73  1  0
 64 74  1  0
 74 75  2  0
 75 76  1  0
 76 77  1  0
 77 78  1  0
 78 79  1  0
 79 80  1  0
 80 81  1  0
 79 82  2  0
 82 83  1  0
 83 84  1  0
 82 85  1  0
 76 86  2  0
 86 87  1  0
 75 88  1  0
 88 89  2  0
 89 90  1  0
 89 91  1  0
 91 92  2  0
 92 93  1  0
 93 94  2  0
 94 95  1  0
 95 96  1  0
 96 97  1  0
 97 98  1  0
 98 99  1  0
 97100  2  0
100101  1  0
100102  1  0
102103  1  0
 94104  1  0
104105  2  0
105106  1  0
106107  1  0
107108  1  0
108109  1  0
109110  1  0
110111  1  0
109112  2  0
112113  1  0
113114  1  0
112115  1  0
106116  2  0
116117  1  0
105118  1  0
118119  2  0
119120  1  0
119121  1  0
121122  1  0
122123  1  0
122124  1  0
124125  2  0
124126  1  0
126127  1  0
127128  1  0
128129  2  0
128130  1  0
130131  1  0
130132  1  0
132133  1  0
133134  2  3
134135  1  0
135136  2  0
136137  1  0
137138  2  0
138139  1  0
139140  1  0
140141  1  0
141142  1  0
142143  1  0
141144  2  0
144145  1  0
144146  1  0
146147  1  0
138148  1  0
148149  2  0
149150  1  0
150151  1  0
151152  1  0
152153  1  0
153154  1  0
154155  1  0
153156  2  0
156157  1  0
157158  1  0
156159  1  0
150160  2  0
160161  1  0
149162  1  0
162163  2  0
163164  1  0
 27  1  1  0
 57 31  1  0
 87 61  1  0
117 91  1  0
127121  2  0
161135  1  0
 26  3  1  0
 56 33  1  0
 86 63  1  0
116 93  1  0
132126  2  0
160137  1  0
 12  5  2  0
 30 14  1  0
 42 35  2  0
 60 44  1  0
 72 65  2  0
 90 74  1  0
102 95  2  0
120104  1  0
146139  2  0
164148  1  0
 23 17  2  0
 53 47  2  0
 83 77  2  0
113107  2  0
157151  2  0
  1165  1  0
  2166  1  0
  8167  1  0
  8168  1  0
  9169  1  0
  9170  1  0
  9171  1  0
 20172  1  0
 20173  1  0
 21174  1  0
 21175  1  0
 21176  1  0
 28177  1  0
 32178  1  0
 38179  1  0
 38180  1  0
 39181  1  0
 39182  1  0
 39183  1  0
 50184  1  0
 50185  1  0
 51186  1  0
 51187  1  0
 51188  1  0
 58189  1  0
 62190  1  0
 68191  1  0
 68192  1  0
 69193  1  0
 69194  1  0
 69195  1  0
 80196  1  0
 80197  1  0
 81198  1  0
 81199  1  0
 81200  1  0
 88201  1  0
 92202  1  0
 98203  1  0
 98204  1  0
 99205  1  0
 99206  1  0
 99207  1  0
110208  1  0
110209  1  0
111210  1  0
111211  1  0
111212  1  0
118213  1  0
123214  1  0
123215  1  0
123216  1  0
131217  1  0
131218  1  0
131219  1  0
133220  1  0
134221  1  0
136222  1  0
142223  1  0
142224  1  0
143225  1  0
143226  1  0
143227  1  0
154228  1  0
154229  1  0
155230  1  0
155231  1  0
155232  1  0
162233  1  0
163234  1  0
M  END

