
     RDKit          3D

104112  0  0  0  0  0  0  0  0999 V2000
    6.8071   -1.9200   -0.8484 C   0  0  0  0  0  0  0  0  0  0  0  0
    6.8912   -0.8743   -2.1653 S   0  0  0  0  0  0  0  0  0  0  0  0
    6.9731    0.5319   -1.2535 C   0  0  0  0  0  0  0  0  0  0  0  0
    7.0681    1.8181   -1.7765 O   0  0  0  0  0  0  0  0  0  0  0  0
    6.9256    0.2168    0.0968 C   0  0  0  0  0  0  0  0  0  0  0  0
    6.8376   -1.1693    0.3192 C   0  0  0  0  0  0  0  0  0  0  0  0
    6.9942    1.2424    1.1578 C   0  0  0  0  0  0  0  0  0  0  0  0
    6.3394    1.1942    2.3242 C   0  0  0  0  0  0  0  0  0  0  0  0
    5.3225    0.1808    2.6880 C   0  0  0  0  0  0  0  0  0  0  0  0
    4.1676   -0.1361    1.8768 N   0  0  0  0  0  0  0  0  0  0  0  0
    3.8035    0.4586    0.5932 C   0  0  0  0  0  0  0  0  0  0  0  0
    3.2312   -0.7221    2.7814 C   0  0  0  0  0  0  0  0  0  0  0  0
    2.0648   -1.0807    2.4723 O   0  0  0  0  0  0  0  0  0  0  0  0
    3.8220   -0.7863    4.1025 C   0  0  0  0  0  0  0  0  0  0  0  0
    5.1342   -0.2522    3.9420 C   0  0  0  0  0  0  0  0  0  0  0  0
    5.4622    0.3322    5.2252 C   0  0  0  0  0  0  0  0  0  0  0  0
    6.5039    0.9716    5.5118 O   0  0  0  0  0  0  0  0  0  0  0  0
    4.3503    0.1629    6.1125 N   0  0  0  0  0  0  0  0  0  0  0  0
    4.1023    1.0378    7.2526 C   0  0  0  0  0  0  0  0  0  0  0  0
    3.3318   -0.4786    5.3078 C   0  0  0  0  0  0  0  0  0  0  0  0
    1.8854   -0.3210    5.5404 C   0  0  0  0  0  0  0  0  0  0  0  0
    1.2913   -0.5941    6.7056 C   0  0  0  0  0  0  0  0  0  0  0  0
   -0.1729   -0.4838    6.8719 C   0  0  0  0  0  0  0  0  0  0  0  0
   -1.0287   -1.1348    8.1629 S   0  0  0  0  0  0  0  0  0  0  0  0
   -2.5551   -0.7476    7.5777 C   0  0  0  0  0  0  0  0  0  0  0  0
   -3.7456   -1.0696    8.2228 O   0  0  0  0  0  0  0  0  0  0  0  0
   -2.4293   -0.0824    6.3608 C   0  0  0  0  0  0  0  0  0  0  0  0
   -1.0874    0.0684    5.9730 C   0  0  0  0  0  0  0  0  0  0  0  0
   -3.5577    0.2287    5.4635 C   0  0  0  0  0  0  0  0  0  0  0  0
   -3.4581    1.1503    4.5021 C   0  0  0  0  0  0  0  0  0  0  0  0
   -4.3881    1.2289    3.3616 C   0  0  0  0  0  0  0  0  0  0  0  0
   -4.1863    2.3187    2.0964 S   0  0  0  0  0  0  0  0  0  0  0  0
   -5.2952    1.5862    1.0715 C   0  0  0  0  0  0  0  0  0  0  0  0
   -5.6093    2.0463   -0.2039 O   0  0  0  0  0  0  0  0  0  0  0  0
   -5.8386    0.4691    1.6952 C   0  0  0  0  0  0  0  0  0  0  0  0
   -5.3510    0.2865    2.9938 C   0  0  0  0  0  0  0  0  0  0  0  0
   -6.7467   -0.4873    1.0344 C   0  0  0  0  0  0  0  0  0  0  0  0
   -6.3800   -1.2233   -0.0248 C   0  0  0  0  0  0  0  0  0  0  0  0
   -4.9950   -1.2443   -0.5398 C   0  0  0  0  0  0  0  0  0  0  0  0
   -3.8455   -1.6845    0.2226 N   0  0  0  0  0  0  0  0  0  0  0  0
   -3.9028   -2.4770    1.4488 C   0  0  0  0  0  0  0  0  0  0  0  0
   -2.8139   -1.8764   -0.7510 C   0  0  0  0  0  0  0  0  0  0  0  0
   -1.6710   -2.3455   -0.5039 O   0  0  0  0  0  0  0  0  0  0  0  0
   -3.3285   -1.5070   -2.0571 C   0  0  0  0  0  0  0  0  0  0  0  0
   -4.6729   -1.0927   -1.8244 C   0  0  0  0  0  0  0  0  0  0  0  0
   -5.3732   -1.3682   -3.0571 C   0  0  0  0  0  0  0  0  0  0  0  0
   -6.5997   -1.1992   -3.2742 O   0  0  0  0  0  0  0  0  0  0  0  0
   -4.4450   -1.9276   -3.9903 N   0  0  0  0  0  0  0  0  0  0  0  0
   -4.7943   -2.5515   -5.2660 C   0  0  0  0  0  0  0  0  0  0  0  0
   -3.1893   -2.0349   -3.2778 C   0  0  0  0  0  0  0  0  0  0  0  0
   -2.1317   -3.0102   -3.6117 C   0  0  0  0  0  0  0  0  0  0  0  0
   -1.5142   -3.0768   -4.7949 C   0  0  0  0  0  0  0  0  0  0  0  0
   -1.6805   -2.0875   -5.8786 C   0  0  0  0  0  0  0  0  0  0  0  0
   -1.6575   -2.4480   -7.2736 N   0  0  0  0  0  0  0  0  0  0  0  0
   -1.4603   -3.7947   -7.7891 C   0  0  0  0  0  0  0  0  0  0  0  0
   -1.3014   -1.2482   -7.9704 C   0  0  0  0  0  0  0  0  0  0  0  0
   -0.9825   -1.1977   -9.1866 O   0  0  0  0  0  0  0  0  0  0  0  0
   -1.2117   -0.1654   -7.0170 C   0  0  0  0  0  0  0  0  0  0  0  0
   -1.4893   -0.7693   -5.7443 C   0  0  0  0  0  0  0  0  0  0  0  0
   -0.7233    0.0080   -4.7897 C   0  0  0  0  0  0  0  0  0  0  0  0
   -0.6160   -0.2042   -3.5518 O   0  0  0  0  0  0  0  0  0  0  0  0
   -0.0302    1.0357   -5.4982 N   0  0  0  0  0  0  0  0  0  0  0  0
    0.6969    2.1515   -4.8923 C   0  0  0  0  0  0  0  0  0  0  0  0
   -0.3208    0.8231   -6.8921 C   0  0  0  0  0  0  0  0  0  0  0  0
    0.4339    1.3856   -8.0322 C   0  0  0  0  0  0  0  0  0  0  0  0
    1.7043    1.7738   -7.9435 C   0  0  0  0  0  0  0  0  0  0  0  0
    6.7457   -2.9981   -0.8977 H   0  0  0  0  0  0  0  0  0  0  0  0
    7.0839    1.9683   -2.7793 H   0  0  0  0  0  0  0  0  0  0  0  0
    6.8266   -1.6201    1.3014 H   0  0  0  0  0  0  0  0  0  0  0  0
    7.6303    2.0988    0.9702 H   0  0  0  0  0  0  0  0  0  0  0  0
    6.5557    1.9732    3.0451 H   0  0  0  0  0  0  0  0  0  0  0  0
    4.2184    1.4850    0.5051 H   0  0  0  0  0  0  0  0  0  0  0  0
    4.1828   -0.1696   -0.2303 H   0  0  0  0  0  0  0  0  0  0  0  0
    2.7048    0.5190    0.4960 H   0  0  0  0  0  0  0  0  0  0  0  0
    3.4983    1.9129    6.9241 H   0  0  0  0  0  0  0  0  0  0  0  0
    3.5612    0.4924    8.0541 H   0  0  0  0  0  0  0  0  0  0  0  0
    5.0645    1.4034    7.6835 H   0  0  0  0  0  0  0  0  0  0  0  0
    1.2883   -0.0321    4.6884 H   0  0  0  0  0  0  0  0  0  0  0  0
    1.8737   -0.9849    7.5329 H   0  0  0  0  0  0  0  0  0  0  0  0
   -4.6485   -0.7974    7.8557 H   0  0  0  0  0  0  0  0  0  0  0  0
   -0.8031    0.5143    5.0346 H   0  0  0  0  0  0  0  0  0  0  0  0
   -4.4337   -0.3907    5.5288 H   0  0  0  0  0  0  0  0  0  0  0  0
   -2.6130    1.8203    4.4877 H   0  0  0  0  0  0  0  0  0  0  0  0
   -6.3138    1.5972   -0.7781 H   0  0  0  0  0  0  0  0  0  0  0  0
   -5.6263   -0.5633    3.6050 H   0  0  0  0  0  0  0  0  0  0  0  0
   -7.7549   -0.5735    1.4137 H   0  0  0  0  0  0  0  0  0  0  0  0
   -7.1245   -1.8366   -0.5200 H   0  0  0  0  0  0  0  0  0  0  0  0
   -3.0051   -2.2677    2.0681 H   0  0  0  0  0  0  0  0  0  0  0  0
   -3.9317   -3.5593    1.1958 H   0  0  0  0  0  0  0  0  0  0  0  0
   -4.8055   -2.2361    2.0399 H   0  0  0  0  0  0  0  0  0  0  0  0
   -4.2897   -3.5367   -5.3593 H   0  0  0  0  0  0  0  0  0  0  0  0
   -5.8910   -2.7149   -5.3313 H   0  0  0  0  0  0  0  0  0  0  0  0
   -4.4826   -1.8865   -6.0940 H   0  0  0  0  0  0  0  0  0  0  0  0
   -1.8606   -3.7402   -2.8568 H   0  0  0  0  0  0  0  0  0  0  0  0
   -0.8245   -3.8913   -4.9660 H   0  0  0  0  0  0  0  0  0  0  0  0
   -2.0881   -4.5106   -7.2219 H   0  0  0  0  0  0  0  0  0  0  0  0
   -1.7569   -3.8389   -8.8583 H   0  0  0  0  0  0  0  0  0  0  0  0
   -0.3899   -4.0763   -7.6987 H   0  0  0  0  0  0  0  0  0  0  0  0
    1.7371    1.8382   -4.6552 H   0  0  0  0  0  0  0  0  0  0  0  0
    0.7211    3.0182   -5.5846 H   0  0  0  0  0  0  0  0  0  0  0  0
    0.1938    2.4660   -3.9536 H   0  0  0  0  0  0  0  0  0  0  0  0
   -0.0457    1.4233   -8.9971 H   0  0  0  0  0  0  0  0  0  0  0  0
    2.2663    1.6937   -7.0243 H   0  0  0  0  0  0  0  0  0  0  0  0
    2.2142    2.1383   -8.8227 H   0  0  0  0  0  0  0  0  0  0  0  0
  1  2  1  0
  2  3  1  0
  3  4  1  0
  3  5  2  0
  5  6  1  0
  5  7  1  0
  7  8  2  3
  8  9  1  0
  9 10  1  0
 10 11  1  0
 10 12  1  0
 12 13  2  0
 12 14  1  0
 14 15  1  0
 15 16  1  0
 16 17  2  0
 16 18  1  0
 18 19  1  0
 18 20  1  0
 20 21  1  0
 21 22  2  3
 22 23  1  0
 23 24  1  0
 24 25  1  0
 25 26  1  0
 25 27  2  0
 27 28  1  0
 27 29  1  0
 29 30  2  3
 30 31  1  0
 31 32  1  0
 32 33  1  0
 33 34  1  0
 33 35  2  0
 35 36  1  0
 35 37  1  0
 37 38  2  3
 38 39  1  0
 39 40  1  0
 40 41  1  0
 40 42  1  0
 42 43  2  0
 42 44  1  0
 44 45  1  0
 45 46  1  0
 46 47  2  0
 46 48  1  0
 48 49  1  0
 48 50  1  0
 50 51  1  0
 51 52  2  3
 52 53  1  0
 53 54  1  0
 54 55  1  0
 54 56  1  0
 56 57  2  0
 56 58  1  0
 58 59  1  0
 59 60  1  0
 60 61  2  0
 60 62  1  0
 62 63  1  0
 62 64  1  0
 64 65  1  0
 65 66  2  3
  6  1  2  0
 15  9  2  0
 28 23  2  0
 36 31  2  0
 45 39  2  0
 59 53  2  0
 20 14  2  0
 50 44  2  0
 64 58  2  0
  1 67  1  0
  4 68  1  0
  6 69  1  0
  7 70  1  0
  8 71  1  0
 11 72  1  0
 11 73  1  0
 11 74  1  0
 19 75  1  0
 19 76  1  0
 19 77  1  0
 21 78  1  0
 22 79  1  0
 26 80  1  0
 28 81  1  0
 29 82  1  0
 30 83  1  0
 34 84  1  0
 36 85  1  0
 37 86  1  0
 38 87  1  0
 41 88  1  0
 41 89  1  0
 41 90  1  0
 49 91  1  0
 49 92  1  0
 49 93  1  0
 51 94  1  0
 52 95  1  0
 55 96  1  0
 55 97  1  0
 55 98  1  0
 63 99  1  0
 63100  1  0
 63101  1  0
 65102  1  0
 66103  1  0
 66104  1  0
M  END

