
     RDKit          3D

236261  0  0  0  0  0  0  0  0999 V2000
    4.5547    3.4907    3.1360 C   0  0  0  0  0  0  0  0  0  0  0  0
    4.5855    3.3665    1.7506 C   0  0  0  0  0  0  0  0  0  0  0  0
    4.0521    2.1500    1.2873 C   0  0  0  0  0  0  0  0  0  0  0  0
    4.0302    1.7013   -0.0501 C   0  0  0  0  0  0  0  0  0  0  0  0
    4.6845    2.4853   -1.1209 C   0  0  0  0  0  0  0  0  0  0  0  0
    5.8800    2.0247   -1.6930 C   0  0  0  0  0  0  0  0  0  0  0  0
    6.6070    2.8471   -2.5582 C   0  0  0  0  0  0  0  0  0  0  0  0
    6.1370    4.1266   -2.8709 C   0  0  0  0  0  0  0  0  0  0  0  0
    7.0972    5.1780   -3.9663 S   0  0  0  0  0  0  0  0  0  0  0  0
    8.0739    5.9370   -2.6242 C   0  0  0  0  0  0  0  0  0  0  0  0
    9.4228    6.3934   -3.1722 C   0  0  0  0  0  0  0  0  0  0  0  0
    4.9214    4.5750   -2.3387 C   0  0  0  0  0  0  0  0  0  0  0  0
    4.4534    5.8090   -2.6440 F   0  0  0  0  0  0  0  0  0  0  0  0
    4.2012    3.7589   -1.4624 C   0  0  0  0  0  0  0  0  0  0  0  0
    3.5461    0.3951   -0.2695 C   0  0  0  0  0  0  0  0  0  0  0  0
    3.1331   -0.4441    0.7706 C   0  0  0  0  0  0  0  0  0  0  0  0
    3.1419    0.0205    2.1007 C   0  0  0  0  0  0  0  0  0  0  0  0
    2.6962   -0.8053    3.2353 C   0  0  0  0  0  0  0  0  0  0  0  0
    1.5713   -0.4012    3.9678 C   0  0  0  0  0  0  0  0  0  0  0  0
    1.2124   -1.0869    5.1268 C   0  0  0  0  0  0  0  0  0  0  0  0
    1.9672   -2.1745    5.5673 C   0  0  0  0  0  0  0  0  0  0  0  0
    1.5278   -2.9678    7.1146 S   0  0  0  0  0  0  0  0  0  0  0  0
    2.2648   -1.6627    8.1598 C   0  0  0  0  0  0  0  0  0  0  0  0
    3.7242   -1.9810    8.4579 C   0  0  0  0  0  0  0  0  0  0  0  0
    3.0721   -2.6067    4.8190 C   0  0  0  0  0  0  0  0  0  0  0  0
    3.4399   -1.9182    3.6583 C   0  0  0  0  0  0  0  0  0  0  0  0
    3.8087   -3.6689    5.2331 F   0  0  0  0  0  0  0  0  0  0  0  0
    3.6091    1.3240    2.3206 C   0  0  0  0  0  0  0  0  0  0  0  0
    3.8851    2.0900    3.7898 S   0  0  0  0  0  0  0  0  0  0  0  0
    2.8420   -1.7561    0.3477 C   0  0  0  0  0  0  0  0  0  0  0  0
    2.9951   -1.9363   -1.0288 C   0  0  0  0  0  0  0  0  0  0  0  0
    3.5177   -0.4828   -1.7004 S   0  0  0  0  0  0  0  0  0  0  0  0
    3.2754   -3.2285   -1.6597 C   0  0  0  0  0  0  0  0  0  0  0  0
    4.5496   -4.2265   -1.1456 S   0  0  0  0  0  0  0  0  0  0  0  0
    4.4644   -5.2355   -2.4746 C   0  0  0  0  0  0  0  0  0  0  0  0
    4.6398   -6.6440   -2.6389 C   0  0  0  0  0  0  0  0  0  0  0  0
    3.7421   -7.1340   -3.5242 C   0  0  0  0  0  0  0  0  0  0  0  0
    3.7120   -8.4961   -2.9281 C   0  0  0  0  0  3  0  0  0  0  0  0
    4.9232   -8.1954   -1.7498 S   0  0  0  0  0  0  0  0  0  0  0  0
    2.8314   -6.0910   -4.0735 C   0  0  0  0  0  0  0  0  0  0  0  0
    3.3766   -4.8989   -3.2692 C   0  0  0  0  0  0  0  0  0  0  0  0
    2.7088   -3.7398   -2.8415 C   0  0  0  0  0  0  0  0  0  0  0  0
    1.3687   -3.4056   -3.3465 C   0  0  0  0  0  0  0  0  0  0  0  0
    1.1690   -3.1543   -4.6394 C   0  0  0  0  0  0  0  0  0  0  0  0
   -0.1395   -3.4238   -5.2578 C   0  0  0  0  0  0  0  0  0  0  0  0
   -0.9389   -4.9168   -5.0497 S   0  0  0  0  0  0  0  0  0  0  0  0
   -2.1435   -4.5380   -6.1344 C   0  0  0  0  0  0  0  0  0  0  0  0
   -2.9768   -5.2780   -7.0185 C   0  0  0  0  0  0  0  0  0  0  0  0
   -3.2586   -4.5471   -8.1110 C   0  0  0  0  0  0  0  0  0  0  0  0
   -3.8330   -5.6704   -8.8881 C   0  0  0  0  0  3  0  0  0  0  0  0
   -3.5327   -6.8641   -7.6859 S   0  0  0  0  0  0  0  0  0  0  0  0
   -2.6590   -3.1841   -8.1029 C   0  0  0  0  0  0  0  0  0  0  0  0
   -1.9095   -3.3177   -6.7607 C   0  0  0  0  0  0  0  0  0  0  0  0
   -0.7699   -2.6555   -6.2622 C   0  0  0  0  0  0  0  0  0  0  0  0
   -0.3182   -1.2857   -6.6131 C   0  0  0  0  0  0  0  0  0  0  0  0
   -1.1364   -0.3686   -7.1567 C   0  0  0  0  0  0  0  0  0  0  0  0
   -0.9386    1.0822   -6.9444 C   0  0  0  0  0  0  0  0  0  0  0  0
    0.1918    1.6784   -6.3863 C   0  0  0  0  0  0  0  0  0  0  0  0
   -0.0935    2.8637   -5.6821 C   0  0  0  0  0  0  0  0  0  0  0  0
    0.7816    3.5013   -4.7808 C   0  0  0  0  0  0  0  0  0  0  0  0
    2.2266    3.2014   -4.7849 C   0  0  0  0  0  0  0  0  0  0  0  0
    3.0904    4.1009   -5.4251 C   0  0  0  0  0  0  0  0  0  0  0  0
    4.3936    3.7120   -5.7503 C   0  0  0  0  0  0  0  0  0  0  0  0
    4.8437    2.4243   -5.4359 C   0  0  0  0  0  0  0  0  0  0  0  0
    6.4855    1.8998   -5.9487 S   0  0  0  0  0  0  0  0  0  0  0  0
    5.9952    1.4124   -7.6420 C   0  0  0  0  0  0  0  0  0  0  0  0
    5.2375    0.0891   -7.6517 C   0  0  0  0  0  0  0  0  0  0  0  0
    4.0080    1.5507   -4.7322 C   0  0  0  0  0  0  0  0  0  0  0  0
    4.4283    0.2925   -4.4496 F   0  0  0  0  0  0  0  0  0  0  0  0
    2.7065    1.9405   -4.3938 C   0  0  0  0  0  0  0  0  0  0  0  0
    0.2079    4.4037   -3.8730 C   0  0  0  0  0  0  0  0  0  0  0  0
   -1.1362    4.7895   -3.9548 C   0  0  0  0  0  0  0  0  0  0  0  0
   -1.9799    4.2563   -4.9548 C   0  0  0  0  0  0  0  0  0  0  0  0
   -3.4268    4.5876   -4.9980 C   0  0  0  0  0  0  0  0  0  0  0  0
   -3.8267    5.9211   -5.1986 C   0  0  0  0  0  0  0  0  0  0  0  0
   -5.1828    6.2505   -5.2303 C   0  0  0  0  0  0  0  0  0  0  0  0
   -6.1542    5.2505   -5.1134 C   0  0  0  0  0  0  0  0  0  0  0  0
   -7.8982    5.6696   -5.2175 S   0  0  0  0  0  0  0  0  0  0  0  0
   -7.9929    5.5658   -7.0420 C   0  0  0  0  0  0  0  0  0  0  0  0
   -7.7845    6.9453   -7.6578 C   0  0  0  0  0  0  0  0  0  0  0  0
   -5.7626    3.9223   -4.8975 C   0  0  0  0  0  0  0  0  0  0  0  0
   -4.4071    3.5962   -4.8229 C   0  0  0  0  0  0  0  0  0  0  0  0
   -6.6912    2.9459   -4.7651 F   0  0  0  0  0  0  0  0  0  0  0  0
   -1.4313    3.2470   -5.7638 C   0  0  0  0  0  0  0  0  0  0  0  0
   -2.2534    2.1078   -6.6897 S   0  0  0  0  0  0  0  0  0  0  0  0
   -1.6052    5.4044   -2.7806 C   0  0  0  0  0  0  0  0  0  0  0  0
   -0.7380    5.2714   -1.6896 C   0  0  0  0  0  0  0  0  0  0  0  0
    0.7326    4.6937   -2.3010 S   0  0  0  0  0  0  0  0  0  0  0  0
   -1.2856    4.6588   -0.4625 C   0  0  0  0  0  0  0  0  0  0  0  0
   -2.2386    3.6477   -0.5493 C   0  0  0  0  0  0  0  0  0  0  0  0
   -2.2924    2.8227    0.5707 C   0  0  0  0  0  0  0  0  0  0  0  0
   -3.0444    1.6424    0.6483 C   0  0  0  0  0  0  0  0  0  0  0  0
   -3.8999    1.1954   -0.4680 C   0  0  0  0  0  0  0  0  0  0  0  0
   -3.3243    0.6222   -1.6132 C   0  0  0  0  0  0  0  0  0  0  0  0
   -4.1342    0.2234   -2.6795 C   0  0  0  0  0  0  0  0  0  0  0  0
   -5.5233    0.3957   -2.6091 C   0  0  0  0  0  0  0  0  0  0  0  0
   -6.5589   -0.1586   -3.9686 S   0  0  0  0  0  0  0  0  0  0  0  0
   -6.7293   -1.8689   -3.3561 C   0  0  0  0  0  0  0  0  0  0  0  0
   -7.8451   -1.9753   -2.3246 C   0  0  0  0  0  0  0  0  0  0  0  0
   -6.0953    1.0042   -1.4840 C   0  0  0  0  0  0  0  0  0  0  0  0
   -7.4327    1.2272   -1.4227 F   0  0  0  0  0  0  0  0  0  0  0  0
   -5.2856    1.3953   -0.4125 C   0  0  0  0  0  0  0  0  0  0  0  0
   -2.8661    0.8568    1.7839 C   0  0  0  0  0  0  0  0  0  0  0  0
   -2.0453    1.2333    2.8496 C   0  0  0  0  0  0  0  0  0  0  0  0
   -1.3367    2.4637    2.8085 C   0  0  0  0  0  0  0  0  0  0  0  0
   -0.6348    2.9990    4.0013 C   0  0  0  0  0  0  0  0  0  0  0  0
   -1.3101    3.0349    5.2329 C   0  0  0  0  0  0  0  0  0  0  0  0
   -0.7134    3.6141    6.3561 C   0  0  0  0  0  0  0  0  0  0  0  0
    0.5534    4.1968    6.2551 C   0  0  0  0  0  0  0  0  0  0  0  0
    1.2715    5.0128    7.6802 S   0  0  0  0  0  0  0  0  0  0  0  0
    0.4373    6.6154    7.3853 C   0  0  0  0  0  0  0  0  0  0  0  0
    1.1474    7.4155    6.2975 C   0  0  0  0  0  0  0  0  0  0  0  0
    1.2449    4.1436    5.0387 C   0  0  0  0  0  0  0  0  0  0  0  0
    0.6580    3.5399    3.9199 C   0  0  0  0  0  0  0  0  0  0  0  0
    2.4697    4.7113    4.9313 F   0  0  0  0  0  0  0  0  0  0  0  0
   -1.4340    3.2077    1.6036 C   0  0  0  0  0  0  0  0  0  0  0  0
   -0.5447    4.5461    1.0577 S   0  0  0  0  0  0  0  0  0  0  0  0
   -1.9463    0.2257    3.8354 C   0  0  0  0  0  0  0  0  0  0  0  0
   -2.6436   -0.9395    3.4973 C   0  0  0  0  0  0  0  0  0  0  0  0
   -3.4298   -0.6975    2.0237 S   0  0  0  0  0  0  0  0  0  0  0  0
   -2.5411   -2.2684    4.1286 C   0  0  0  0  0  0  0  0  0  0  0  0
   -2.8451   -3.4473    3.4585 C   0  0  0  0  0  0  0  0  0  0  0  0
   -2.6024   -4.6018    4.2082 C   0  0  0  0  0  0  0  0  0  0  0  0
   -2.7727   -5.9213    3.7447 C   0  0  0  0  0  0  0  0  0  0  0  0
   -3.0913   -6.2033    2.3285 C   0  0  0  0  0  0  0  0  0  0  0  0
   -4.2800   -6.8535    1.9778 C   0  0  0  0  0  0  0  0  0  0  0  0
   -4.6200   -7.0225    0.6294 C   0  0  0  0  0  0  0  0  0  0  0  0
   -3.7664   -6.5462   -0.3758 C   0  0  0  0  0  0  0  0  0  0  0  0
   -4.2369   -6.6957   -2.1032 S   0  0  0  0  0  0  0  0  0  0  0  0
   -3.3379   -8.2659   -2.3389 C   0  0  0  0  0  0  0  0  0  0  0  0
   -3.3382   -8.6439   -3.8095 C   0  0  0  0  0  0  0  0  0  0  0  0
   -2.5653   -5.9148   -0.0300 C   0  0  0  0  0  0  0  0  0  0  0  0
   -1.7300   -5.4424   -0.9885 F   0  0  0  0  0  0  0  0  0  0  0  0
   -2.2259   -5.7517    1.3139 C   0  0  0  0  0  0  0  0  0  0  0  0
   -2.5467   -6.9477    4.6695 C   0  0  0  0  0  0  0  0  0  0  0  0
   -2.1144   -6.7037    5.9758 C   0  0  0  0  0  0  0  0  0  0  0  0
   -1.8567   -5.3802    6.4201 C   0  0  0  0  0  0  0  0  0  0  0  0
   -1.2662   -5.1187    7.7588 C   0  0  0  0  0  0  0  0  0  0  0  0
   -0.1013   -5.7993    8.1588 C   0  0  0  0  0  0  0  0  0  0  0  0
    0.3946   -5.6515    9.4568 C   0  0  0  0  0  0  0  0  0  0  0  0
   -0.2419   -4.7957   10.3619 C   0  0  0  0  0  0  0  0  0  0  0  0
    0.3728   -4.6710   12.0490 S   0  0  0  0  0  0  0  0  0  0  0  0
    1.7591   -3.5405   11.6660 C   0  0  0  0  0  0  0  0  0  0  0  0
    3.0850   -4.2021   12.0125 C   0  0  0  0  0  0  0  0  0  0  0  0
   -1.3759   -4.0765    9.9548 C   0  0  0  0  0  0  0  0  0  0  0  0
   -1.8896   -4.2427    8.6628 C   0  0  0  0  0  0  0  0  0  0  0  0
   -2.0058   -3.2459   10.8211 F   0  0  0  0  0  0  0  0  0  0  0  0
   -2.1416   -4.3396    5.5029 C   0  0  0  0  0  0  0  0  0  0  0  0
   -1.9788   -2.6624    5.6767 S   0  0  0  0  0  0  0  0  0  0  0  0
   -1.9875   -7.8868    6.7310 C   0  0  0  0  0  0  0  0  0  0  0  0
   -2.2737   -9.0400    6.0091 C   0  0  0  0  0  0  0  0  0  0  0  0
   -2.7061   -8.6053    4.4384 S   0  0  0  0  0  0  0  0  0  0  0  0
    4.9205    4.3376    3.7008 H   0  0  0  0  0  0  0  0  0  0  0  0
    5.0117    4.1247    1.1111 H   0  0  0  0  0  0  0  0  0  0  0  0
    6.2730    1.0476   -1.4397 H   0  0  0  0  0  0  0  0  0  0  0  0
    7.5354    2.4887   -2.9814 H   0  0  0  0  0  0  0  0  0  0  0  0
    7.5198    6.8036   -2.2059 H   0  0  0  0  0  0  0  0  0  0  0  0
    8.2559    5.2051   -1.8083 H   0  0  0  0  0  0  0  0  0  0  0  0
   10.0000    5.5167   -3.5374 H   0  0  0  0  0  0  0  0  0  0  0  0
    9.2715    7.1052   -4.0109 H   0  0  0  0  0  0  0  0  0  0  0  0
    9.9991    6.9083   -2.3769 H   0  0  0  0  0  0  0  0  0  0  0  0
    3.2931    4.1306   -1.0083 H   0  0  0  0  0  0  0  0  0  0  0  0
    1.0005    0.4615    3.6584 H   0  0  0  0  0  0  0  0  0  0  0  0
    0.3815   -0.7349    5.7219 H   0  0  0  0  0  0  0  0  0  0  0  0
    2.1907   -0.6613    7.6821 H   0  0  0  0  0  0  0  0  0  0  0  0
    1.6941   -1.6099    9.1067 H   0  0  0  0  0  0  0  0  0  0  0  0
    3.8095   -2.9810    8.9389 H   0  0  0  0  0  0  0  0  0  0  0  0
    4.1362   -1.2175    9.1508 H   0  0  0  0  0  0  0  0  0  0  0  0
    4.3160   -1.9705    7.5192 H   0  0  0  0  0  0  0  0  0  0  0  0
    4.3129   -2.2318    3.1002 H   0  0  0  0  0  0  0  0  0  0  0  0
    2.6261   -2.5689    1.0297 H   0  0  0  0  0  0  0  0  0  0  0  0
    2.7323   -8.6636   -2.4250 H   0  0  0  0  0  0  0  0  0  0  0  0
    2.9934   -5.9456   -5.1609 H   0  0  0  0  0  0  0  0  0  0  0  0
    1.7722   -6.3150   -3.8202 H   0  0  0  0  0  0  0  0  0  0  0  0
    0.5173   -3.6178   -2.7049 H   0  0  0  0  0  0  0  0  0  0  0  0
    2.0081   -2.9044   -5.2836 H   0  0  0  0  0  0  0  0  0  0  0  0
   -3.2069   -5.8735   -9.7831 H   0  0  0  0  0  0  0  0  0  0  0  0
   -1.9546   -3.0538   -8.9495 H   0  0  0  0  0  0  0  0  0  0  0  0
   -3.4599   -2.4154   -8.0534 H   0  0  0  0  0  0  0  0  0  0  0  0
    0.6276   -0.9690   -6.1928 H   0  0  0  0  0  0  0  0  0  0  0  0
   -2.1136   -0.6619   -7.5107 H   0  0  0  0  0  0  0  0  0  0  0  0
    1.1542    1.1938   -6.3689 H   0  0  0  0  0  0  0  0  0  0  0  0
    2.7351    5.0729   -5.7429 H   0  0  0  0  0  0  0  0  0  0  0  0
    5.0325    4.3962   -6.2912 H   0  0  0  0  0  0  0  0  0  0  0  0
    5.3735    2.2045   -8.1068 H   0  0  0  0  0  0  0  0  0  0  0  0
    6.9205    1.2982   -8.2473 H   0  0  0  0  0  0  0  0  0  0  0  0
    5.8162   -0.6907   -7.1126 H   0  0  0  0  0  0  0  0  0  0  0  0
    4.2439    0.2063   -7.1714 H   0  0  0  0  0  0  0  0  0  0  0  0
    5.0806   -0.2408   -8.6992 H   0  0  0  0  0  0  0  0  0  0  0  0
    2.0435    1.2299   -3.9144 H   0  0  0  0  0  0  0  0  0  0  0  0
   -3.0880    6.7016   -5.3293 H   0  0  0  0  0  0  0  0  0  0  0  0
   -5.4793    7.2835   -5.3642 H   0  0  0  0  0  0  0  0  0  0  0  0
   -9.0051    5.2000   -7.3136 H   0  0  0  0  0  0  0  0  0  0  0  0
   -7.2460    4.8528   -7.4535 H   0  0  0  0  0  0  0  0  0  0  0  0
   -8.5502    7.6510   -7.2709 H   0  0  0  0  0  0  0  0  0  0  0  0
   -7.8783    6.8896   -8.7646 H   0  0  0  0  0  0  0  0  0  0  0  0
   -6.7726    7.3300   -7.4072 H   0  0  0  0  0  0  0  0  0  0  0  0
   -4.1236    2.5727   -4.6271 H   0  0  0  0  0  0  0  0  0  0  0  0
   -2.6599    5.6133   -2.6284 H   0  0  0  0  0  0  0  0  0  0  0  0
   -2.7863    3.4293   -1.4594 H   0  0  0  0  0  0  0  0  0  0  0  0
   -2.2518    0.4903   -1.6781 H   0  0  0  0  0  0  0  0  0  0  0  0
   -3.6853   -0.2189   -3.5572 H   0  0  0  0  0  0  0  0  0  0  0  0
   -6.9763   -2.5212   -4.2199 H   0  0  0  0  0  0  0  0  0  0  0  0
   -5.7740   -2.2321   -2.9166 H   0  0  0  0  0  0  0  0  0  0  0  0
   -8.7932   -1.5684   -2.7397 H   0  0  0  0  0  0  0  0  0  0  0  0
   -7.9981   -3.0383   -2.0519 H   0  0  0  0  0  0  0  0  0  0  0  0
   -7.5816   -1.4140   -1.4063 H   0  0  0  0  0  0  0  0  0  0  0  0
   -5.7325    1.8664    0.4561 H   0  0  0  0  0  0  0  0  0  0  0  0
   -2.3180    2.6403    5.3255 H   0  0  0  0  0  0  0  0  0  0  0  0
   -1.2549    3.6425    7.2922 H   0  0  0  0  0  0  0  0  0  0  0  0
   -0.6265    6.4610    7.1087 H   0  0  0  0  0  0  0  0  0  0  0  0
    0.4653    7.1973    8.3320 H   0  0  0  0  0  0  0  0  0  0  0  0
    1.0064    6.9353    5.3060 H   0  0  0  0  0  0  0  0  0  0  0  0
    0.7205    8.4407    6.2520 H   0  0  0  0  0  0  0  0  0  0  0  0
    2.2329    7.4906    6.5202 H   0  0  0  0  0  0  0  0  0  0  0  0
    1.2132    3.4998    2.9915 H   0  0  0  0  0  0  0  0  0  0  0  0
   -1.3321    0.3058    4.7139 H   0  0  0  0  0  0  0  0  0  0  0  0
   -3.2148   -3.4648    2.4394 H   0  0  0  0  0  0  0  0  0  0  0  0
   -4.9635   -7.2007    2.7433 H   0  0  0  0  0  0  0  0  0  0  0  0
   -5.5540   -7.5021    0.3652 H   0  0  0  0  0  0  0  0  0  0  0  0
   -3.8349   -9.0672   -1.7492 H   0  0  0  0  0  0  0  0  0  0  0  0
   -2.2872   -8.1623   -1.9903 H   0  0  0  0  0  0  0  0  0  0  0  0
   -4.3784   -8.8137   -4.1607 H   0  0  0  0  0  0  0  0  0  0  0  0
   -2.7550   -9.5787   -3.9533 H   0  0  0  0  0  0  0  0  0  0  0  0
   -2.8704   -7.8368   -4.4139 H   0  0  0  0  0  0  0  0  0  0  0  0
   -1.3042   -5.2442    1.5715 H   0  0  0  0  0  0  0  0  0  0  0  0
    0.4080   -6.4620    7.4707 H   0  0  0  0  0  0  0  0  0  0  0  0
    1.2757   -6.2055    9.7558 H   0  0  0  0  0  0  0  0  0  0  0  0
    1.7696   -3.2722   10.5959 H   0  0  0  0  0  0  0  0  0  0  0  0
    1.6390   -2.6141   12.2648 H   0  0  0  0  0  0  0  0  0  0  0  0
    3.9248   -3.5125   11.7782 H   0  0  0  0  0  0  0  0  0  0  0  0
    3.2103   -5.1294   11.4148 H   0  0  0  0  0  0  0  0  0  0  0  0
    3.1227   -4.4513   13.0953 H   0  0  0  0  0  0  0  0  0  0  0  0
   -2.7890   -3.7142    8.3765 H   0  0  0  0  0  0  0  0  0  0  0  0
   -1.7083   -7.9200    7.7767 H   0  0  0  0  0  0  0  0  0  0  0  0
   -2.2358  -10.0496    6.3942 H   0  0  0  0  0  0  0  0  0  0  0  0
  1  2  2  0
  2  3  1  0
  3  4  2  0
  4  5  1  0
  5  6  2  0
  6  7  1  0
  7  8  2  0
  8  9  1  0
  9 10  1  0
 10 11  1  0
  8 12  1  0
 12 13  1  0
 12 14  2  0
  4 15  1  0
 15 16  2  0
 16 17  1  0
 17 18  1  0
 18 19  2  0
 19 20  1  0
 20 21  2  0
 21 22  1  0
 22 23  1  0
 23 24  1  0
 21 25  1  0
 25 26  2  0
 25 27  1  0
 17 28  2  0
 28 29  1  0
 16 30  1  0
 30 31  2  0
 31 32  1  0
 31 33  1  0
 33 34  1  0
 34 35  1  0
 35 36  1  0
 36 37  2  0
 37 38  1  0
 38 39  1  0
 37 40  1  0
 40 41  1  0
 41 42  1  0
 42 43  1  0
 43 44  2  3
 44 45  1  0
 45 46  1  0
 46 47  1  0
 47 48  1  0
 48 49  2  0
 49 50  1  0
 50 51  1  0
 49 52  1  0
 52 53  1  0
 53 54  1  0
 54 55  1  0
 55 56  2  3
 56 57  1  0
 57 58  2  0
 58 59  1  0
 59 60  2  0
 60 61  1  0
 61 62  2  0
 62 63  1  0
 63 64  2  0
 64 65  1  0
 65 66  1  0
 66 67  1  0
 64 68  1  0
 68 69  1  0
 68 70  2  0
 60 71  1  0
 71 72  2  0
 72 73  1  0
 73 74  1  0
 74 75  2  0
 75 76  1  0
 76 77  2  0
 77 78  1  0
 78 79  1  0
 79 80  1  0
 77 81  1  0
 81 82  2  0
 81 83  1  0
 73 84  2  0
 84 85  1  0
 72 86  1  0
 86 87  2  0
 87 88  1  0
 87 89  1  0
 89 90  2  0
 90 91  1  0
 91 92  2  0
 92 93  1  0
 93 94  2  0
 94 95  1  0
 95 96  2  0
 96 97  1  0
 97 98  1  0
 98 99  1  0
 96100  1  0
100101  1  0
100102  2  0
 92103  1  0
103104  2  0
104105  1  0
105106  1  0
106107  2  0
107108  1  0
108109  2  0
109110  1  0
110111  1  0
111112  1  0
109113  1  0
113114  2  0
113115  1  0
105116  2  0
116117  1  0
104118  1  0
118119  2  0
119120  1  0
119121  1  0
121122  2  0
122123  1  0
123124  2  0
124125  1  0
125126  2  0
126127  1  0
127128  2  0
128129  1  0
129130  1  0
130131  1  0
128132  1  0
132133  1  0
132134  2  0
124135  1  0
135136  2  0
136137  1  0
137138  1  0
138139  2  0
139140  1  0
140141  2  0
141142  1  0
142143  1  0
143144  1  0
141145  1  0
145146  2  0
145147  1  0
137148  2  0
148149  1  0
136150  1  0
150151  2  0
151152  1  0
 29  1  1  0
 42 33  2  0
 54 45  2  0
 85 57  1  0
117 89  1  0
149121  1  0
 28  3  1  0
 41 35  2  0
 53 47  2  0
 84 59  1  0
116 91  1  0
148123  1  0
 14  5  1  0
 32 15  1  0
 39 36  1  0
 51 48  1  0
 70 61  1  0
 88 71  1  0
102 93  1  0
120103  1  0
134125  1  0
152135  1  0
 26 18  1  0
 82 74  1  0
114106  1  0
146138  1  0
  1153  1  0
  2154  1  0
  6155  1  0
  7156  1  0
 10157  1  0
 10158  1  0
 11159  1  0
 11160  1  0
 11161  1  0
 14162  1  0
 19163  1  0
 20164  1  0
 23165  1  0
 23166  1  0
 24167  1  0
 24168  1  0
 24169  1  0
 26170  1  0
 30171  1  0
 38172  1  0
 40173  1  0
 40174  1  0
 43175  1  0
 44176  1  0
 50177  1  0
 52178  1  0
 52179  1  0
 55180  1  0
 56181  1  0
 58182  1  0
 62183  1  0
 63184  1  0
 66185  1  0
 66186  1  0
 67187  1  0
 67188  1  0
 67189  1  0
 70190  1  0
 75191  1  0
 76192  1  0
 79193  1  0
 79194  1  0
 80195  1  0
 80196  1  0
 80197  1  0
 82198  1  0
 86199  1  0
 90200  1  0
 94201  1  0
 95202  1  0
 98203  1  0
 98204  1  0
 99205  1  0
 99206  1  0
 99207  1  0
102208  1  0
107209  1  0
108210  1  0
111211  1  0
111212  1  0
112213  1  0
112214  1  0
112215  1  0
114216  1  0
118217  1  0
122218  1  0
126219  1  0
127220  1  0
130221  1  0
130222  1  0
131223  1  0
131224  1  0
131225  1  0
134226  1  0
139227  1  0
140228  1  0
143229  1  0
143230  1  0
144231  1  0
144232  1  0
144233  1  0
146234  1  0
150235  1  0
151236  1  0
M  RAD  2  38   2  50   2
M  END

