
     RDKit          3D

154171  0  0  0  0  0  0  0  0999 V2000
    2.3466    6.3388    3.1683 C   0  0  0  0  0  0  0  0  0  0  0  0
    1.1298    5.6179    3.1776 C   0  0  0  0  0  0  0  0  0  0  0  0
    0.6202    5.0143    4.3591 C   0  0  0  0  0  0  0  0  0  0  0  0
    1.3990    5.0455    5.6228 C   0  0  0  0  0  0  0  0  0  0  0  0
    2.5635    4.4147    5.7423 C   0  0  0  0  0  0  0  0  0  0  0  0
   -0.6618    4.4008    4.3378 C   0  0  0  0  0  0  0  0  0  0  0  0
   -1.3977    4.3362    3.1225 C   0  0  0  0  0  0  0  0  0  0  0  0
   -0.8506    4.8925    1.9552 C   0  0  0  0  0  0  0  0  0  0  0  0
    0.3868    5.5358    1.9748 C   0  0  0  0  0  0  0  0  0  0  0  0
    0.8762    6.1378    0.7997 C   0  0  0  0  0  0  0  0  0  0  0  0
    2.0820    6.8349    0.8150 C   0  0  0  0  0  0  0  0  0  0  0  0
    2.8110    6.9405    1.9962 C   0  0  0  0  0  0  0  0  0  0  0  0
   -2.6738    3.7094    3.1015 C   0  0  0  0  0  0  0  0  0  0  0  0
   -3.2177    3.1999    4.2844 C   0  0  0  0  0  0  0  0  0  0  0  0
   -2.4919    3.2455    5.4705 C   0  0  0  0  0  0  0  0  0  0  0  0
   -1.2261    3.8279    5.5013 C   0  0  0  0  0  0  0  0  0  0  0  0
   -3.3986    3.4608    1.8322 C   0  0  0  0  0  0  0  0  0  0  0  0
   -3.1245    2.3968    1.0588 C   0  0  0  0  0  0  0  0  0  0  0  0
   -2.1697    1.3592    1.5007 C   0  0  0  0  0  0  0  0  0  0  0  0
   -2.4844    0.4676    2.5692 C   0  0  0  0  0  0  0  0  0  0  0  0
   -3.8185    0.0812    2.8972 C   0  0  0  0  0  0  0  0  0  0  0  0
   -4.9138    0.3324    1.9254 C   0  0  0  0  0  0  0  0  0  0  0  0
   -5.9490    1.1217    2.2070 C   0  0  0  0  0  0  0  0  0  0  0  0
   -4.0640   -0.6596    4.0900 C   0  0  0  0  0  0  0  0  0  0  0  0
   -2.9836   -1.0013    4.9519 C   0  0  0  0  0  0  0  0  0  0  0  0
   -1.6753   -0.6627    4.5732 C   0  0  0  0  0  0  0  0  0  0  0  0
   -1.4165   -0.0057    3.3705 C   0  0  0  0  0  0  0  0  0  0  0  0
   -0.0867    0.2225    2.9836 C   0  0  0  0  0  0  0  0  0  0  0  0
    0.1964    0.9413    1.8256 C   0  0  0  0  0  0  0  0  0  0  0  0
   -0.8360    1.5308    1.1033 C   0  0  0  0  0  0  0  0  0  0  0  0
   -3.2426   -1.7092    6.1601 C   0  0  0  0  0  0  0  0  0  0  0  0
   -4.5587   -2.0412    6.5003 C   0  0  0  0  0  0  0  0  0  0  0  0
   -5.6062   -1.7559    5.6360 C   0  0  0  0  0  0  0  0  0  0  0  0
   -5.3648   -1.0841    4.4400 C   0  0  0  0  0  0  0  0  0  0  0  0
   -2.1839   -2.1167    7.1140 C   0  0  0  0  0  0  0  0  0  0  0  0
   -1.1898   -2.9760    6.8376 C   0  0  0  0  0  0  0  0  0  0  0  0
   -0.9890   -3.6381    5.5365 C   0  0  0  0  0  0  0  0  0  0  0  0
    0.5294   -3.8739    4.8440 S   0  0  0  0  0  0  0  0  0  0  0  0
   -0.0522   -4.5763    3.4357 C   0  0  0  0  0  0  0  0  0  0  0  0
   -1.4440   -4.6388    3.4899 C   0  0  0  0  0  0  0  0  0  0  0  0
   -1.9801   -4.1222    4.6750 C   0  0  0  0  0  0  0  0  0  0  0  0
   -2.1410   -5.1848    2.4061 C   0  0  0  0  0  0  0  0  0  0  0  0
   -1.4229   -5.6487    1.3037 C   0  0  0  0  0  0  0  0  0  0  0  0
   -2.5104   -6.2285    0.1570 S   0  0  0  0  0  0  0  0  0  0  0  0
   -3.8997   -5.9018    1.0610 C   0  0  0  0  0  0  0  0  0  0  0  0
   -3.5294   -5.3271    2.2736 C   0  0  0  0  0  0  0  0  0  0  0  0
   -0.0138   -5.5759    1.2314 C   0  0  0  0  0  0  0  0  0  0  0  0
    0.6803   -5.0312    2.3352 C   0  0  0  0  0  0  0  0  0  0  0  0
    0.7425   -6.0840    0.0652 C   0  0  0  0  0  0  0  0  0  0  0  0
    1.7035   -5.2841   -0.6309 C   0  0  0  0  0  0  0  0  0  0  0  0
    1.7601   -3.8632   -0.5300 C   0  0  0  0  0  0  0  0  0  0  0  0
    0.5675   -3.0773   -0.1162 C   0  0  0  0  0  0  0  0  0  0  0  0
   -0.5704   -3.1451   -0.8136 C   0  0  0  0  0  0  0  0  0  0  0  0
    2.9252   -3.1773   -0.9599 C   0  0  0  0  0  0  0  0  0  0  0  0
    3.9209   -3.8690   -1.7031 C   0  0  0  0  0  0  0  0  0  0  0  0
    3.7504   -5.2383   -1.9636 C   0  0  0  0  0  0  0  0  0  0  0  0
    2.6714   -5.9467   -1.4302 C   0  0  0  0  0  0  0  0  0  0  0  0
    2.5759   -7.3281   -1.6602 C   0  0  0  0  0  0  0  0  0  0  0  0
    1.5637   -8.0708   -1.0635 C   0  0  0  0  0  0  0  0  0  0  0  0
    0.6701   -7.4629   -0.1890 C   0  0  0  0  0  0  0  0  0  0  0  0
    5.0739   -3.1735   -2.1522 C   0  0  0  0  0  0  0  0  0  0  0  0
    5.2891   -1.8594   -1.7268 C   0  0  0  0  0  0  0  0  0  0  0  0
    4.3116   -1.1738   -1.0163 C   0  0  0  0  0  0  0  0  0  0  0  0
    3.1235   -1.8109   -0.6667 C   0  0  0  0  0  0  0  0  0  0  0  0
    6.0492   -3.7627   -3.1015 C   0  0  0  0  0  0  0  0  0  0  0  0
    5.7439   -4.0538   -4.3790 C   0  0  0  0  0  0  0  0  0  0  0  0
    4.3962   -3.8165   -4.9507 C   0  0  0  0  0  0  0  0  0  0  0  0
    3.7998   -2.5190   -5.0091 C   0  0  0  0  0  0  0  0  0  0  0  0
    4.5615   -1.3131   -5.0063 C   0  0  0  0  0  0  0  0  0  0  0  0
    5.9758   -1.3755   -5.4753 C   0  0  0  0  0  0  0  0  0  0  0  0
    7.0193   -0.9152   -4.7865 C   0  0  0  0  0  0  0  0  0  0  0  0
    3.8911   -0.0622   -4.8216 C   0  0  0  0  0  0  0  0  0  0  0  0
    2.4664   -0.0231   -4.7441 C   0  0  0  0  0  0  0  0  0  0  0  0
    1.7424   -1.2101   -4.9425 C   0  0  0  0  0  0  0  0  0  0  0  0
    2.3889   -2.4385   -5.0851 C   0  0  0  0  0  0  0  0  0  0  0  0
    1.6266   -3.5982   -5.3048 C   0  0  0  0  0  0  0  0  0  0  0  0
    2.2473   -4.8394   -5.4212 C   0  0  0  0  0  0  0  0  0  0  0  0
    3.6223   -4.9503   -5.2294 C   0  0  0  0  0  0  0  0  0  0  0  0
    1.7982    1.2222   -4.5530 C   0  0  0  0  0  0  0  0  0  0  0  0
    2.5560    2.3935   -4.4076 C   0  0  0  0  0  0  0  0  0  0  0  0
    3.9371    2.3570   -4.5185 C   0  0  0  0  0  0  0  0  0  0  0  0
    4.5962    1.1577   -4.7527 C   0  0  0  0  0  0  0  0  0  0  0  0
    0.3179    1.3273   -4.4980 C   0  0  0  0  0  0  0  0  0  0  0  0
   -0.3363    2.3046   -5.1465 C   0  0  0  0  0  0  0  0  0  0  0  0
   -1.8029    2.4350   -5.1625 C   0  0  0  0  0  0  0  0  0  0  0  0
   -2.5997    3.7148   -5.9345 S   0  0  0  0  0  0  0  0  0  0  0  0
   -4.1461    3.1915   -5.5567 C   0  0  0  0  0  0  0  0  0  0  0  0
   -4.0664    2.0099   -4.8221 C   0  0  0  0  0  0  0  0  0  0  0  0
   -2.7505    1.5745   -4.5917 C   0  0  0  0  0  0  0  0  0  0  0  0
   -5.2531    1.3931   -4.4102 C   0  0  0  0  0  0  0  0  0  0  0  0
   -6.4714    1.9825   -4.7405 C   0  0  0  0  0  0  0  0  0  0  0  0
   -7.7262    1.0375   -4.1463 S   0  0  0  0  0  0  0  0  0  0  0  0
   -6.7225   -0.1387   -3.4574 C   0  0  0  0  0  0  0  0  0  0  0  0
   -5.3901    0.1998   -3.6859 C   0  0  0  0  0  0  0  0  0  0  0  0
   -6.5596    3.1720   -5.4767 C   0  0  0  0  0  0  0  0  0  0  0  0
   -5.3668    3.7908   -5.8988 C   0  0  0  0  0  0  0  0  0  0  0  0
    2.9419    6.4697    4.0623 H   0  0  0  0  0  0  0  0  0  0  0  0
    0.9700    5.5269    6.4914 H   0  0  0  0  0  0  0  0  0  0  0  0
    3.0023    3.8864    4.9031 H   0  0  0  0  0  0  0  0  0  0  0  0
    3.0911    4.4261    6.6873 H   0  0  0  0  0  0  0  0  0  0  0  0
   -1.4078    4.8630    1.0241 H   0  0  0  0  0  0  0  0  0  0  0  0
    0.3164    6.0753   -0.1260 H   0  0  0  0  0  0  0  0  0  0  0  0
    2.4500    7.3038   -0.0899 H   0  0  0  0  0  0  0  0  0  0  0  0
    3.7386    7.4968    2.0104 H   0  0  0  0  0  0  0  0  0  0  0  0
   -4.1851    2.7173    4.2807 H   0  0  0  0  0  0  0  0  0  0  0  0
   -2.9048    2.8085    6.3689 H   0  0  0  0  0  0  0  0  0  0  0  0
   -0.6982    3.8244    6.4444 H   0  0  0  0  0  0  0  0  0  0  0  0
   -4.1288    4.1887    1.5013 H   0  0  0  0  0  0  0  0  0  0  0  0
   -3.6203    2.2897    0.1005 H   0  0  0  0  0  0  0  0  0  0  0  0
   -4.8114   -0.0529    0.9177 H   0  0  0  0  0  0  0  0  0  0  0  0
   -6.6944    1.3199    1.4504 H   0  0  0  0  0  0  0  0  0  0  0  0
   -6.0559    1.5842    3.1801 H   0  0  0  0  0  0  0  0  0  0  0  0
   -0.8389   -0.9099    5.2090 H   0  0  0  0  0  0  0  0  0  0  0  0
    0.7368   -0.1589    3.5775 H   0  0  0  0  0  0  0  0  0  0  0  0
    1.2237    1.1122    1.5333 H   0  0  0  0  0  0  0  0  0  0  0  0
   -0.5870    2.2050    0.2948 H   0  0  0  0  0  0  0  0  0  0  0  0
   -4.7689   -2.5672    7.4246 H   0  0  0  0  0  0  0  0  0  0  0  0
   -6.6137   -2.0546    5.8938 H   0  0  0  0  0  0  0  0  0  0  0  0
   -6.2157   -0.9139    3.7986 H   0  0  0  0  0  0  0  0  0  0  0  0
   -2.2542   -1.7292    8.1219 H   0  0  0  0  0  0  0  0  0  0  0  0
   -0.4342   -3.1393    7.5958 H   0  0  0  0  0  0  0  0  0  0  0  0
   -3.0392   -4.1108    4.9028 H   0  0  0  0  0  0  0  0  0  0  0  0
   -4.9181   -6.1090    0.7525 H   0  0  0  0  0  0  0  0  0  0  0  0
   -4.2430   -5.0307    3.0267 H   0  0  0  0  0  0  0  0  0  0  0  0
    1.7607   -4.9604    2.3367 H   0  0  0  0  0  0  0  0  0  0  0  0
    0.6299   -2.3887    0.7155 H   0  0  0  0  0  0  0  0  0  0  0  0
   -0.6575   -3.7983   -1.6704 H   0  0  0  0  0  0  0  0  0  0  0  0
   -1.4206   -2.5428   -0.5270 H   0  0  0  0  0  0  0  0  0  0  0  0
    4.4979   -5.7808   -2.5296 H   0  0  0  0  0  0  0  0  0  0  0  0
    3.3008   -7.8357   -2.2852 H   0  0  0  0  0  0  0  0  0  0  0  0
    1.5080   -9.1406   -1.2306 H   0  0  0  0  0  0  0  0  0  0  0  0
   -0.0416   -8.0816    0.3441 H   0  0  0  0  0  0  0  0  0  0  0  0
    6.2065   -1.3452   -1.9791 H   0  0  0  0  0  0  0  0  0  0  0  0
    4.4737   -0.1428   -0.7319 H   0  0  0  0  0  0  0  0  0  0  0  0
    2.3965   -1.2323   -0.1168 H   0  0  0  0  0  0  0  0  0  0  0  0
    7.0676   -3.9099   -2.7656 H   0  0  0  0  0  0  0  0  0  0  0  0
    6.4917   -4.5269   -5.0033 H   0  0  0  0  0  0  0  0  0  0  0  0
    6.1787   -1.9382   -6.3776 H   0  0  0  0  0  0  0  0  0  0  0  0
    6.8974   -0.3909   -3.8525 H   0  0  0  0  0  0  0  0  0  0  0  0
    8.0224   -1.0658   -5.1679 H   0  0  0  0  0  0  0  0  0  0  0  0
    0.6599   -1.1954   -4.9842 H   0  0  0  0  0  0  0  0  0  0  0  0
    0.5491   -3.5464   -5.3972 H   0  0  0  0  0  0  0  0  0  0  0  0
    1.6556   -5.7255   -5.6025 H   0  0  0  0  0  0  0  0  0  0  0  0
    4.0706   -5.9363   -5.2101 H   0  0  0  0  0  0  0  0  0  0  0  0
    2.0784    3.3447   -4.2175 H   0  0  0  0  0  0  0  0  0  0  0  0
    4.5039    3.2740   -4.4287 H   0  0  0  0  0  0  0  0  0  0  0  0
    5.6627    1.2165   -4.8745 H   0  0  0  0  0  0  0  0  0  0  0  0
   -0.2353    0.5732   -3.9600 H   0  0  0  0  0  0  0  0  0  0  0  0
    0.2260    3.0344   -5.7179 H   0  0  0  0  0  0  0  0  0  0  0  0
   -2.5065    0.6762   -4.0451 H   0  0  0  0  0  0  0  0  0  0  0  0
   -7.0616   -1.0161   -2.9257 H   0  0  0  0  0  0  0  0  0  0  0  0
   -4.5605   -0.4014   -3.3448 H   0  0  0  0  0  0  0  0  0  0  0  0
   -7.5200    3.6031   -5.7211 H   0  0  0  0  0  0  0  0  0  0  0  0
   -5.3938    4.7040   -6.4791 H   0  0  0  0  0  0  0  0  0  0  0  0
  1  2  2  0
  2  3  1  0
  3  4  1  0
  4  5  2  3
  3  6  2  0
  6  7  1  0
  7  8  2  0
  8  9  1  0
  9 10  2  0
 10 11  1  0
 11 12  2  0
  7 13  1  0
 13 14  2  0
 14 15  1  0
 15 16  2  0
 13 17  1  0
 17 18  2  3
 18 19  1  0
 19 20  1  0
 20 21  2  0
 21 22  1  0
 22 23  2  3
 21 24  1  0
 24 25  2  0
 25 26  1  0
 26 27  2  0
 27 28  1  0
 28 29  2  0
 29 30  1  0
 25 31  1  0
 31 32  2  0
 32 33  1  0
 33 34  2  0
 31 35  1  0
 35 36  2  3
 36 37  1  0
 37 38  1  0
 38 39  1  0
 39 40  2  0
 40 41  1  0
 40 42  1  0
 42 43  2  0
 43 44  1  0
 44 45  1  0
 45 46  2  0
 43 47  1  0
 47 48  2  0
 47 49  1  0
 49 50  1  0
 50 51  2  0
 51 52  1  0
 52 53  2  3
 51 54  1  0
 54 55  2  0
 55 56  1  0
 56 57  2  0
 57 58  1  0
 58 59  2  0
 59 60  1  0
 55 61  1  0
 61 62  2  0
 62 63  1  0
 63 64  2  0
 61 65  1  0
 65 66  2  3
 66 67  1  0
 67 68  1  0
 68 69  2  0
 69 70  1  0
 70 71  2  3
 69 72  1  0
 72 73  2  0
 73 74  1  0
 74 75  2  0
 75 76  1  0
 76 77  2  0
 77 78  1  0
 73 79  1  0
 79 80  2  0
 80 81  1  0
 81 82  2  0
 79 83  1  0
 83 84  2  3
 84 85  1  0
 85 86  1  0
 86 87  1  0
 87 88  2  0
 88 89  1  0
 88 90  1  0
 90 91  2  0
 91 92  1  0
 92 93  1  0
 93 94  2  0
 91 95  1  0
 95 96  2  0
 12  1  1  0
 30 19  2  0
 41 37  2  0
 46 42  1  0
 60 49  2  0
 78 67  2  0
 89 85  2  0
 94 90  1  0
  9  2  1  0
 27 20  1  0
 48 39  1  0
 57 50  1  0
 75 68  1  0
 96 87  1  0
 16  6  1  0
 34 24  1  0
 64 54  1  0
 82 72  1  0
  1 97  1  0
  4 98  1  0
  5 99  1  0
  5100  1  0
  8101  1  0
 10102  1  0
 11103  1  0
 12104  1  0
 14105  1  0
 15106  1  0
 16107  1  0
 17108  1  0
 18109  1  0
 22110  1  0
 23111  1  0
 23112  1  0
 26113  1  0
 28114  1  0
 29115  1  0
 30116  1  0
 32117  1  0
 33118  1  0
 34119  1  0
 35120  1  0
 36121  1  0
 41122  1  0
 45123  1  0
 46124  1  0
 48125  1  0
 52126  1  0
 53127  1  0
 53128  1  0
 56129  1  0
 58130  1  0
 59131  1  0
 60132  1  0
 62133  1  0
 63134  1  0
 64135  1  0
 65136  1  0
 66137  1  0
 70138  1  0
 71139  1  0
 71140  1  0
 74141  1  0
 76142  1  0
 77143  1  0
 78144  1  0
 80145  1  0
 81146  1  0
 82147  1  0
 83148  1  0
 84149  1  0
 89150  1  0
 93151  1  0
 94152  1  0
 95153  1  0
 96154  1  0
M  END

