
     RDKit          3D

230257  0  0  0  0  0  0  0  0999 V2000
    2.2795   -6.7734   11.3559 C   0  0  0  0  0  0  0  0  0  0  0  0
    2.4877   -5.6122   10.6146 C   0  0  0  0  0  0  0  0  0  0  0  0
    1.5362   -5.4284    9.5976 C   0  0  0  0  0  0  0  0  0  0  0  0
    1.5059   -4.3742    8.6634 C   0  0  0  0  0  0  0  0  0  0  0  0
    2.4682   -3.2574    8.6995 C   0  0  0  0  0  0  0  0  0  0  0  0
    3.5129   -2.8460    7.4466 S   0  0  0  0  0  0  0  0  0  0  0  0
    4.1330   -1.4606    8.1729 C   0  0  0  0  0  0  0  0  0  0  0  0
    5.0875   -0.5120    7.5141 C   0  0  0  0  0  0  0  0  0  0  0  0
    4.3351    0.5539    6.7267 C   0  0  0  0  0  0  0  0  0  0  0  0
    3.5042   -1.2861    9.4049 C   0  0  0  0  0  0  0  0  0  0  0  0
    3.8061    0.0888   10.4603 Cl  0  0  0  0  0  0  0  0  0  0  0  0
    2.5755   -2.2959    9.7025 C   0  0  0  0  0  0  0  0  0  0  0  0
    1.5819   -2.2932   11.1538 Cl  0  0  0  0  0  0  0  0  0  0  0  0
    0.4989   -4.4259    7.6850 C   0  0  0  0  0  0  0  0  0  0  0  0
   -0.4497   -5.4531    7.6266 C   0  0  0  0  0  0  0  0  0  0  0  0
   -0.4277   -6.4978    8.5703 C   0  0  0  0  0  0  0  0  0  0  0  0
   -1.4003   -7.6042    8.5251 C   0  0  0  0  0  0  0  0  0  0  0  0
   -1.5335   -8.7146    7.2696 S   0  0  0  0  0  0  0  0  0  0  0  0
   -2.8152   -9.5832    7.9313 C   0  0  0  0  0  0  0  0  0  0  0  0
   -3.5039  -10.7281    7.2502 C   0  0  0  0  0  0  0  0  0  0  0  0
   -4.6248  -10.2225    6.3480 C   0  0  0  0  0  0  0  0  0  0  0  0
   -3.1740   -8.9915    9.1422 C   0  0  0  0  0  0  0  0  0  0  0  0
   -2.3734   -7.8890    9.4806 C   0  0  0  0  0  0  0  0  0  0  0  0
   -2.6223   -6.9225   10.9290 Cl  0  0  0  0  0  0  0  0  0  0  0  0
   -4.5144   -9.5492   10.1353 Cl  0  0  0  0  0  0  0  0  0  0  0  0
    0.5860   -6.4530    9.5434 C   0  0  0  0  0  0  0  0  0  0  0  0
    0.9252   -7.5758   10.7476 S   0  0  0  0  0  0  0  0  0  0  0  0
   -1.3749   -5.2917    6.5797 C   0  0  0  0  0  0  0  0  0  0  0  0
   -1.1395   -4.1462    5.8222 C   0  0  0  0  0  0  0  0  0  0  0  0
    0.1955   -3.3277    6.4503 S   0  0  0  0  0  0  0  0  0  0  0  0
   -1.8862   -3.7318    4.6282 C   0  0  0  0  0  0  0  0  0  0  0  0
   -1.5789   -2.6236    3.8438 C   0  0  0  0  0  0  0  0  0  0  0  0
   -2.3949   -2.5127    2.7103 C   0  0  0  0  0  0  0  0  0  0  0  0
   -2.2789   -1.5378    1.7055 C   0  0  0  0  0  0  0  0  0  0  0  0
   -1.2391   -0.4894    1.7478 C   0  0  0  0  0  0  0  0  0  0  0  0
    0.4184   -0.7759    1.6574 S   0  0  0  0  0  0  0  0  0  0  0  0
    0.8823    0.8428    1.6160 C   0  0  0  0  0  0  0  0  0  0  0  0
    2.2969    1.3208    1.4796 C   0  0  0  0  0  0  0  0  0  0  0  0
    2.9997    1.3334    2.8301 C   0  0  0  0  0  0  0  0  0  0  0  0
   -0.2619    1.6358    1.6971 C   0  0  0  0  0  0  0  0  0  0  0  0
   -0.2283    3.3944    1.6721 Cl  0  0  0  0  0  0  0  0  0  0  0  0
   -1.4499    0.8894    1.7665 C   0  0  0  0  0  0  0  0  0  0  0  0
   -3.0429    1.6251    1.8874 Cl  0  0  0  0  0  0  0  0  0  0  0  0
   -3.1668   -1.6412    0.6221 C   0  0  0  0  0  0  0  0  0  0  0  0
   -4.1483   -2.6368    0.5318 C   0  0  0  0  0  0  0  0  0  0  0  0
   -4.2729   -3.6047    1.5509 C   0  0  0  0  0  0  0  0  0  0  0  0
   -5.2471   -4.7078    1.4633 C   0  0  0  0  0  0  0  0  0  0  0  0
   -5.2365   -5.8955    0.2702 S   0  0  0  0  0  0  0  0  0  0  0  0
   -6.5235   -6.7841    0.8891 C   0  0  0  0  0  0  0  0  0  0  0  0
   -7.0084   -8.0863    0.3276 C   0  0  0  0  0  0  0  0  0  0  0  0
   -6.2995   -9.2586    0.9942 C   0  0  0  0  0  0  0  0  0  0  0  0
   -6.9672   -6.1699    2.0598 C   0  0  0  0  0  0  0  0  0  0  0  0
   -6.2560   -5.0021    2.3769 C   0  0  0  0  0  0  0  0  0  0  0  0
   -6.6320   -3.9971    3.7707 Cl  0  0  0  0  0  0  0  0  0  0  0  0
   -8.2679   -6.8058    3.0557 Cl  0  0  0  0  0  0  0  0  0  0  0  0
   -3.3658   -3.5156    2.6250 C   0  0  0  0  0  0  0  0  0  0  0  0
   -3.1794   -4.5669    3.9291 S   0  0  0  0  0  0  0  0  0  0  0  0
   -4.9263   -2.5407   -0.6405 C   0  0  0  0  0  0  0  0  0  0  0  0
   -4.5007   -1.5089   -1.4751 C   0  0  0  0  0  0  0  0  0  0  0  0
   -3.2248   -0.6885   -0.7551 S   0  0  0  0  0  0  0  0  0  0  0  0
   -5.1207   -1.0590   -2.7192 C   0  0  0  0  0  0  0  0  0  0  0  0
   -6.3453   -0.3956   -2.7596 C   0  0  0  0  0  0  0  0  0  0  0  0
   -6.4713    0.4521   -3.8744 C   0  0  0  0  0  0  0  0  0  0  0  0
   -7.4834    1.4140   -4.0798 C   0  0  0  0  0  0  0  0  0  0  0  0
   -8.6285    1.5566   -3.1651 C   0  0  0  0  0  0  0  0  0  0  0  0
   -8.5271    1.9925   -1.5422 S   0  0  0  0  0  0  0  0  0  0  0  0
  -10.1845    1.9879   -1.2533 C   0  0  0  0  0  0  0  0  0  0  0  0
  -10.8166    2.2470    0.0809 C   0  0  0  0  0  0  0  0  0  0  0  0
  -10.8837    0.9630    0.8989 C   0  0  0  0  0  0  0  0  0  0  0  0
  -10.8418    1.6272   -2.4302 C   0  0  0  0  0  0  0  0  0  0  0  0
  -12.5869    1.4548   -2.5581 Cl  0  0  0  0  0  0  0  0  0  0  0  0
   -9.9694    1.4007   -3.5046 C   0  0  0  0  0  0  0  0  0  0  0  0
  -10.5124    0.9349   -5.1110 Cl  0  0  0  0  0  0  0  0  0  0  0  0
   -7.2879    2.3281   -5.1292 C   0  0  0  0  0  0  0  0  0  0  0  0
   -6.1817    2.2690   -5.9769 C   0  0  0  0  0  0  0  0  0  0  0  0
   -5.2012    1.2765   -5.8082 C   0  0  0  0  0  0  0  0  0  0  0  0
   -3.9716    1.2814   -6.6162 C   0  0  0  0  0  0  0  0  0  0  0  0
   -2.7828    2.4667   -6.5183 S   0  0  0  0  0  0  0  0  0  0  0  0
   -1.9913    2.0545   -7.9427 C   0  0  0  0  0  0  0  0  0  0  0  0
   -0.8903    2.8626   -8.5589 C   0  0  0  0  0  0  0  0  0  0  0  0
   -1.4678    4.0238   -9.3608 C   0  0  0  0  0  0  0  0  0  0  0  0
   -2.6769    0.9962   -8.5378 C   0  0  0  0  0  0  0  0  0  0  0  0
   -3.7848    0.5627   -7.7914 C   0  0  0  0  0  0  0  0  0  0  0  0
   -4.9082   -0.6695   -8.3497 Cl  0  0  0  0  0  0  0  0  0  0  0  0
   -2.2564    0.3316  -10.1096 Cl  0  0  0  0  0  0  0  0  0  0  0  0
   -5.3661    0.3959   -4.7310 C   0  0  0  0  0  0  0  0  0  0  0  0
   -4.2181   -0.6350   -4.0778 S   0  0  0  0  0  0  0  0  0  0  0  0
   -6.0596    3.3863   -6.8122 C   0  0  0  0  0  0  0  0  0  0  0  0
   -7.0041    4.3785   -6.5561 C   0  0  0  0  0  0  0  0  0  0  0  0
   -8.0566    3.8089   -5.3599 S   0  0  0  0  0  0  0  0  0  0  0  0
   -6.7162    5.8434   -6.7596 C   0  0  0  0  0  0  0  0  0  0  0  0
   -5.9841    6.1013   -8.0498 C   0  0  0  0  0  0  0  0  0  0  0  0
   -6.4974    5.9805   -9.1923 O   0  0  0  0  0  0  0  0  0  0  0  0
   -4.6537    6.4673   -7.8510 O   0  0  0  0  0  0  0  0  0  0  0  0
   -4.4637    6.5318   -6.4832 C   0  0  0  0  0  0  0  0  0  0  0  0
   -5.6416    6.2592   -5.7970 C   0  0  0  0  0  0  0  0  0  0  0  0
   -5.6840    6.2638   -4.3944 C   0  0  0  0  0  0  0  0  0  0  0  0
   -4.4864    6.5418   -3.7268 C   0  0  0  0  0  0  0  0  0  0  0  0
   -3.2988    6.7812   -4.4085 C   0  0  0  0  0  0  0  0  0  0  0  0
   -3.2593    6.8010   -5.8142 C   0  0  0  0  0  0  0  0  0  0  0  0
   -2.2030    7.0832   -3.4257 C   0  0  0  0  0  0  0  0  0  0  0  0
   -2.9856    6.9657   -2.1468 C   0  0  0  0  0  0  0  0  0  0  0  0
   -2.5055    7.1585   -0.9994 O   0  0  0  0  0  0  0  0  0  0  0  0
   -4.3189    6.6353   -2.3593 O   0  0  0  0  0  0  0  0  0  0  0  0
   -1.0675    6.0942   -3.4355 C   0  0  0  0  0  0  0  0  0  0  0  0
    0.1543    6.3218   -2.8037 C   0  0  0  0  0  0  0  0  0  0  0  0
    0.9734    5.1815   -2.7475 C   0  0  0  0  0  0  0  0  0  0  0  0
    2.2373    5.0895   -2.1259 C   0  0  0  0  0  0  0  0  0  0  0  0
    2.8862    6.2531   -1.4950 C   0  0  0  0  0  0  0  0  0  0  0  0
    3.2974    6.3578    0.1342 S   0  0  0  0  0  0  0  0  0  0  0  0
    3.9861    7.8899    0.0497 C   0  0  0  0  0  0  0  0  0  0  0  0
    4.6443    8.5899    1.2013 C   0  0  0  0  0  0  0  0  0  0  0  0
    6.0406    8.0330    1.4456 C   0  0  0  0  0  0  0  0  0  0  0  0
    3.9233    8.3346   -1.2720 C   0  0  0  0  0  0  0  0  0  0  0  0
    4.5850    9.8704   -1.8162 Cl  0  0  0  0  0  0  0  0  0  0  0  0
    3.3007    7.4193   -2.1355 C   0  0  0  0  0  0  0  0  0  0  0  0
    3.1213    7.6925   -3.8633 Cl  0  0  0  0  0  0  0  0  0  0  0  0
    2.8449    3.8230   -2.1023 C   0  0  0  0  0  0  0  0  0  0  0  0
    2.2421    2.6923   -2.6593 C   0  0  0  0  0  0  0  0  0  0  0  0
    0.9977    2.7904   -3.3095 C   0  0  0  0  0  0  0  0  0  0  0  0
    0.3877    1.6249   -3.9683 C   0  0  0  0  0  0  0  0  0  0  0  0
    0.4577    1.3269   -5.6175 S   0  0  0  0  0  0  0  0  0  0  0  0
   -0.1752   -0.2308   -5.5519 C   0  0  0  0  0  0  0  0  0  0  0  0
   -0.3032   -1.1461   -6.7319 C   0  0  0  0  0  0  0  0  0  0  0  0
    0.9578   -1.9837   -6.9019 C   0  0  0  0  0  0  0  0  0  0  0  0
   -0.3964   -0.5622   -4.2179 C   0  0  0  0  0  0  0  0  0  0  0  0
   -0.0713    0.4771   -3.3333 C   0  0  0  0  0  0  0  0  0  0  0  0
   -0.1245    0.3140   -1.5939 Cl  0  0  0  0  0  0  0  0  0  0  0  0
   -0.9405   -2.1478   -3.6816 Cl  0  0  0  0  0  0  0  0  0  0  0  0
    0.3830    4.0539   -3.3289 C   0  0  0  0  0  0  0  0  0  0  0  0
   -1.1479    4.4654   -3.8985 S   0  0  0  0  0  0  0  0  0  0  0  0
    3.0110    1.5279   -2.5163 C   0  0  0  0  0  0  0  0  0  0  0  0
    4.2235    1.7598   -1.8821 C   0  0  0  0  0  0  0  0  0  0  0  0
    4.3539    3.3936   -1.4834 S   0  0  0  0  0  0  0  0  0  0  0  0
    5.2226    0.7309   -1.5962 C   0  0  0  0  0  0  0  0  0  0  0  0
    6.5807    0.8230   -1.8827 C   0  0  0  0  0  0  0  0  0  0  0  0
    7.2785   -0.3509   -1.5585 C   0  0  0  0  0  0  0  0  0  0  0  0
    8.6530   -0.5861   -1.7574 C   0  0  0  0  0  0  0  0  0  0  0  0
    9.5130    0.3915   -2.4470 C   0  0  0  0  0  0  0  0  0  0  0  0
    9.3396    0.8370   -4.0612 S   0  0  0  0  0  0  0  0  0  0  0  0
   10.6583    1.8808   -4.1005 C   0  0  0  0  0  0  0  0  0  0  0  0
   11.1581    2.5694   -5.3346 C   0  0  0  0  0  0  0  0  0  0  0  0
   12.2107    1.7176   -6.0343 C   0  0  0  0  0  0  0  0  0  0  0  0
   11.2698    1.8728   -2.8474 C   0  0  0  0  0  0  0  0  0  0  0  0
   12.7188    2.7965   -2.4709 Cl  0  0  0  0  0  0  0  0  0  0  0  0
   10.6232    1.0447   -1.9186 C   0  0  0  0  0  0  0  0  0  0  0  0
   11.1432    0.8755   -0.2470 Cl  0  0  0  0  0  0  0  0  0  0  0  0
    9.1523   -1.8319   -1.3345 C   0  0  0  0  0  0  0  0  0  0  0  0
    8.3454   -2.8019   -0.7334 C   0  0  0  0  0  0  0  0  0  0  0  0
    6.9700   -2.5677   -0.5378 C   0  0  0  0  0  0  0  0  0  0  0  0
    6.0960   -3.5435    0.1372 C   0  0  0  0  0  0  0  0  0  0  0  0
    4.8123   -4.3539   -0.5876 S   0  0  0  0  0  0  0  0  0  0  0  0
    4.3160   -5.1767    0.7947 C   0  0  0  0  0  0  0  0  0  0  0  0
    3.2176   -6.1950    0.8318 C   0  0  0  0  0  0  0  0  0  0  0  0
    3.7734   -7.5911    0.5822 C   0  0  0  0  0  0  0  0  0  0  0  0
    5.1628   -4.8317    1.8468 C   0  0  0  0  0  0  0  0  0  0  0  0
    6.1552   -3.9086    1.4793 C   0  0  0  0  0  0  0  0  0  0  0  0
    7.3295   -3.2506    2.6119 Cl  0  0  0  0  0  0  0  0  0  0  0  0
    5.0008   -5.4770    3.4751 Cl  0  0  0  0  0  0  0  0  0  0  0  0
    6.4662   -1.3362   -0.9854 C   0  0  0  0  0  0  0  0  0  0  0  0
    4.8804   -0.7792   -0.9261 S   0  0  0  0  0  0  0  0  0  0  0  0
    9.0409   -3.9813   -0.4209 C   0  0  0  0  0  0  0  0  0  0  0  0
   10.3864   -3.9365   -0.7802 C   0  0  0  0  0  0  0  0  0  0  0  0
   10.7129   -2.4407   -1.4901 S   0  0  0  0  0  0  0  0  0  0  0  0
    2.8966   -7.1139   12.1757 H   0  0  0  0  0  0  0  0  0  0  0  0
    3.3124   -4.9392   10.8053 H   0  0  0  0  0  0  0  0  0  0  0  0
    5.7311   -0.0278    8.2795 H   0  0  0  0  0  0  0  0  0  0  0  0
    5.7491   -1.0778    6.8221 H   0  0  0  0  0  0  0  0  0  0  0  0
    3.7089    1.1666    7.4105 H   0  0  0  0  0  0  0  0  0  0  0  0
    5.0590    1.2204    6.2142 H   0  0  0  0  0  0  0  0  0  0  0  0
    3.6805    0.0828    5.9615 H   0  0  0  0  0  0  0  0  0  0  0  0
   -3.9220  -11.4276    8.0043 H   0  0  0  0  0  0  0  0  0  0  0  0
   -2.7638  -11.2876    6.6396 H   0  0  0  0  0  0  0  0  0  0  0  0
   -4.2315   -9.4878    5.6097 H   0  0  0  0  0  0  0  0  0  0  0  0
   -5.4164   -9.7370    6.9576 H   0  0  0  0  0  0  0  0  0  0  0  0
   -5.0723  -11.0753    5.7945 H   0  0  0  0  0  0  0  0  0  0  0  0
   -2.1826   -5.9838    6.3783 H   0  0  0  0  0  0  0  0  0  0  0  0
   -0.7780   -1.9347    4.0769 H   0  0  0  0  0  0  0  0  0  0  0  0
    2.3227    2.3398    1.0366 H   0  0  0  0  0  0  0  0  0  0  0  0
    2.8421    0.6449    0.7897 H   0  0  0  0  0  0  0  0  0  0  0  0
    2.4724    2.0153    3.5309 H   0  0  0  0  0  0  0  0  0  0  0  0
    4.0439    1.6891    2.7036 H   0  0  0  0  0  0  0  0  0  0  0  0
    3.0229    0.3088    3.2611 H   0  0  0  0  0  0  0  0  0  0  0  0
   -6.8126   -8.1141   -0.7651 H   0  0  0  0  0  0  0  0  0  0  0  0
   -8.1051   -8.1785    0.4775 H   0  0  0  0  0  0  0  0  0  0  0  0
   -6.5055   -9.2649    2.0864 H   0  0  0  0  0  0  0  0  0  0  0  0
   -6.6666  -10.2130    0.5583 H   0  0  0  0  0  0  0  0  0  0  0  0
   -5.2032   -9.1893    0.8302 H   0  0  0  0  0  0  0  0  0  0  0  0
   -5.7547   -3.1933   -0.8787 H   0  0  0  0  0  0  0  0  0  0  0  0
   -7.0466   -0.4190   -1.9371 H   0  0  0  0  0  0  0  0  0  0  0  0
  -10.2152    3.0037    0.6294 H   0  0  0  0  0  0  0  0  0  0  0  0
  -11.8400    2.6547   -0.0543 H   0  0  0  0  0  0  0  0  0  0  0  0
  -11.4967    0.2008    0.3711 H   0  0  0  0  0  0  0  0  0  0  0  0
  -11.3487    1.1752    1.8849 H   0  0  0  0  0  0  0  0  0  0  0  0
   -9.8613    0.5595    1.0664 H   0  0  0  0  0  0  0  0  0  0  0  0
   -0.2340    3.2709   -7.7609 H   0  0  0  0  0  0  0  0  0  0  0  0
   -0.2661    2.2223   -9.2195 H   0  0  0  0  0  0  0  0  0  0  0  0
   -2.1316    3.6474  -10.1686 H   0  0  0  0  0  0  0  0  0  0  0  0
   -2.0476    4.6992   -8.6951 H   0  0  0  0  0  0  0  0  0  0  0  0
   -0.6406    4.6035   -9.8235 H   0  0  0  0  0  0  0  0  0  0  0  0
   -5.2124    3.5503   -7.4610 H   0  0  0  0  0  0  0  0  0  0  0  0
   -7.6264    6.4745   -6.6646 H   0  0  0  0  0  0  0  0  0  0  0  0
   -6.5947    6.0488   -3.8501 H   0  0  0  0  0  0  0  0  0  0  0  0
   -2.3448    7.0047   -6.3538 H   0  0  0  0  0  0  0  0  0  0  0  0
   -1.8352    8.1227   -3.5604 H   0  0  0  0  0  0  0  0  0  0  0  0
    0.4140    7.2721   -2.3531 H   0  0  0  0  0  0  0  0  0  0  0  0
    4.0261    8.4467    2.1133 H   0  0  0  0  0  0  0  0  0  0  0  0
    4.7093    9.6801    1.0049 H   0  0  0  0  0  0  0  0  0  0  0  0
    6.6693    8.1552    0.5377 H   0  0  0  0  0  0  0  0  0  0  0  0
    6.5170    8.5802    2.2878 H   0  0  0  0  0  0  0  0  0  0  0  0
    5.9840    6.9563    1.7117 H   0  0  0  0  0  0  0  0  0  0  0  0
   -1.1849   -1.8096   -6.6021 H   0  0  0  0  0  0  0  0  0  0  0  0
   -0.4584   -0.5427   -7.6501 H   0  0  0  0  0  0  0  0  0  0  0  0
    1.8394   -1.3251   -7.0600 H   0  0  0  0  0  0  0  0  0  0  0  0
    0.8460   -2.6461   -7.7868 H   0  0  0  0  0  0  0  0  0  0  0  0
    1.1320   -2.6171   -6.0053 H   0  0  0  0  0  0  0  0  0  0  0  0
    2.7144    0.5526   -2.8791 H   0  0  0  0  0  0  0  0  0  0  0  0
    7.0347    1.6960   -2.3309 H   0  0  0  0  0  0  0  0  0  0  0  0
   10.3084    2.7422   -6.0292 H   0  0  0  0  0  0  0  0  0  0  0  0
   11.5902    3.5588   -5.0695 H   0  0  0  0  0  0  0  0  0  0  0  0
   12.5584    2.2360   -6.9524 H   0  0  0  0  0  0  0  0  0  0  0  0
   13.0820    1.5522   -5.3672 H   0  0  0  0  0  0  0  0  0  0  0  0
   11.7791    0.7345   -6.3213 H   0  0  0  0  0  0  0  0  0  0  0  0
    2.7073   -6.1669    1.8192 H   0  0  0  0  0  0  0  0  0  0  0  0
    2.4636   -5.9547    0.0516 H   0  0  0  0  0  0  0  0  0  0  0  0
    4.5086   -7.8637    1.3701 H   0  0  0  0  0  0  0  0  0  0  0  0
    4.2687   -7.6365   -0.4120 H   0  0  0  0  0  0  0  0  0  0  0  0
    2.9462   -8.3304    0.5979 H   0  0  0  0  0  0  0  0  0  0  0  0
    8.5879   -4.8504    0.0365 H   0  0  0  0  0  0  0  0  0  0  0  0
   11.1028   -4.7338   -0.6352 H   0  0  0  0  0  0  0  0  0  0  0  0
  1  2  2  0
  2  3  1  0
  3  4  2  0
  4  5  1  0
  5  6  1  0
  6  7  1  0
  7  8  1  0
  8  9  1  0
  7 10  2  0
 10 11  1  0
 10 12  1  0
 12 13  1  0
  4 14  1  0
 14 15  2  0
 15 16  1  0
 16 17  1  0
 17 18  1  0
 18 19  1  0
 19 20  1  0
 20 21  1  0
 19 22  2  0
 22 23  1  0
 23 24  1  0
 22 25  1  0
 16 26  2  0
 26 27  1  0
 15 28  1  0
 28 29  2  0
 29 30  1  0
 29 31  1  0
 31 32  2  0
 32 33  1  0
 33 34  2  0
 34 35  1  0
 35 36  1  0
 36 37  1  0
 37 38  1  0
 38 39  1  0
 37 40  2  0
 40 41  1  0
 40 42  1  0
 42 43  1  0
 34 44  1  0
 44 45  2  0
 45 46  1  0
 46 47  1  0
 47 48  1  0
 48 49  1  0
 49 50  1  0
 50 51  1  0
 49 52  2  0
 52 53  1  0
 53 54  1  0
 52 55  1  0
 46 56  2  0
 56 57  1  0
 45 58  1  0
 58 59  2  0
 59 60  1  0
 59 61  1  0
 61 62  2  0
 62 63  1  0
 63 64  2  0
 64 65  1  0
 65 66  1  0
 66 67  1  0
 67 68  1  0
 68 69  1  0
 67 70  2  0
 70 71  1  0
 70 72  1  0
 72 73  1  0
 64 74  1  0
 74 75  2  0
 75 76  1  0
 76 77  1  0
 77 78  1  0
 78 79  1  0
 79 80  1  0
 80 81  1  0
 79 82  2  0
 82 83  1  0
 83 84  1  0
 82 85  1  0
 76 86  2  0
 86 87  1  0
 75 88  1  0
 88 89  2  0
 89 90  1  0
 89 91  1  0
 91 92  1  0
 92 93  2  0
 92 94  1  0
 94 95  1  0
 95 96  2  0
 96 97  1  0
 97 98  2  0
 98 99  1  0
 99100  2  0
 99101  1  0
101102  1  0
102103  2  0
102104  1  0
101105  1  0
105106  2  0
106107  1  0
107108  2  0
108109  1  0
109110  1  0
110111  1  0
111112  1  0
112113  1  0
111114  2  0
114115  1  0
114116  1  0
116117  1  0
108118  1  0
118119  2  0
119120  1  0
120121  1  0
121122  1  0
122123  1  0
123124  1  0
124125  1  0
123126  2  0
126127  1  0
127128  1  0
126129  1  0
120130  2  0
130131  1  0
119132  1  0
132133  2  0
133134  1  0
133135  1  0
135136  2  0
136137  1  0
137138  2  0
138139  1  0
139140  1  0
140141  1  0
141142  1  0
142143  1  0
141144  2  0
144145  1  0
144146  1  0
146147  1  0
138148  1  0
148149  2  0
149150  1  0
150151  1  0
151152  1  0
152153  1  0
153154  1  0
154155  1  0
153156  2  0
156157  1  0
157158  1  0
156159  1  0
150160  2  0
160161  1  0
149162  1  0
162163  2  0
163164  1  0
 27  1  1  0
 57 31  1  0
 87 61  1  0
 96 91  1  0
104 98  1  0
131105  1  0
161135  1  0
 26  3  1  0
 56 33  1  0
 86 63  1  0
100 95  1  0
130107  1  0
160137  1  0
 12  5  2  0
 30 14  1  0
 42 35  2  0
 60 44  1  0
 72 65  2  0
 90 74  1  0
116109  2  0
134118  1  0
146139  2  0
164148  1  0
 23 17  2  0
 53 47  2  0
 83 77  2  0
127121  2  0
157151  2  0
  1165  1  0
  2166  1  0
  8167  1  0
  8168  1  0
  9169  1  0
  9170  1  0
  9171  1  0
 20172  1  0
 20173  1  0
 21174  1  0
 21175  1  0
 21176  1  0
 28177  1  0
 32178  1  0
 38179  1  0
 38180  1  0
 39181  1  0
 39182  1  0
 39183  1  0
 50184  1  0
 50185  1  0
 51186  1  0
 51187  1  0
 51188  1  0
 58189  1  0
 62190  1  0
 68191  1  0
 68192  1  0
 69193  1  0
 69194  1  0
 69195  1  0
 80196  1  0
 80197  1  0
 81198  1  0
 81199  1  0
 81200  1  0
 88201  1  0
 91202  1  0
 97203  1  0
100204  1  0
101205  1  0
106206  1  0
112207  1  0
112208  1  0
113209  1  0
113210  1  0
113211  1  0
124212  1  0
124213  1  0
125214  1  0
125215  1  0
125216  1  0
132217  1  0
136218  1  0
142219  1  0
142220  1  0
143221  1  0
143222  1  0
143223  1  0
154224  1  0
154225  1  0
155226  1  0
155227  1  0
155228  1  0
162229  1  0
163230  1  0
M  END

