
     RDKit          3D

188205  0  0  0  0  0  0  0  0999 V2000
    2.6426   -5.9134   11.1466 C   0  0  0  0  0  0  0  0  0  0  0  0
    2.9299   -4.6825   10.5636 C   0  0  0  0  0  0  0  0  0  0  0  0
    2.5904   -4.6216    9.2012 C   0  0  0  0  0  0  0  0  0  0  0  0
    2.7521   -3.5165    8.3402 C   0  0  0  0  0  0  0  0  0  0  0  0
    3.2829   -2.2275    8.8203 C   0  0  0  0  0  0  0  0  0  0  0  0
    4.6209   -2.1201    9.2366 C   0  0  0  0  0  0  0  0  0  0  0  0
    5.1115   -0.8966    9.6993 C   0  0  0  0  0  0  0  0  0  0  0  0
    4.2700    0.2237    9.7584 C   0  0  0  0  0  0  0  0  0  0  0  0
    4.9258    1.8054   10.3061 S   0  0  0  0  0  0  0  0  0  0  0  0
    5.2691    2.4203    8.6194 C   0  0  0  0  0  0  0  0  0  0  0  0
    6.5419    1.8025    8.0514 C   0  0  0  0  0  0  0  0  0  0  0  0
    2.9281    0.1105    9.3770 C   0  0  0  0  0  0  0  0  0  0  0  0
    2.0957    1.1820    9.4639 F   0  0  0  0  0  0  0  0  0  0  0  0
    2.4357   -1.1102    8.9075 C   0  0  0  0  0  0  0  0  0  0  0  0
    2.3332   -3.6800    7.0047 C   0  0  0  0  0  0  0  0  0  0  0  0
    1.7683   -4.8690    6.5356 C   0  0  0  0  0  0  0  0  0  0  0  0
    1.5959   -5.9682    7.4001 C   0  0  0  0  0  0  0  0  0  0  0  0
    0.9957   -7.2332    6.9399 C   0  0  0  0  0  0  0  0  0  0  0  0
    1.7404   -8.1238    6.1538 C   0  0  0  0  0  0  0  0  0  0  0  0
    1.1805   -9.3375    5.7466 C   0  0  0  0  0  0  0  0  0  0  0  0
   -0.1367   -9.6596    6.1041 C   0  0  0  0  0  0  0  0  0  0  0  0
   -0.8496  -11.2327    5.5907 S   0  0  0  0  0  0  0  0  0  0  0  0
   -1.3438  -10.6746    3.9238 C   0  0  0  0  0  0  0  0  0  0  0  0
   -0.3366  -11.1657    2.8901 C   0  0  0  0  0  0  0  0  0  0  0  0
   -0.8841   -8.7648    6.8797 C   0  0  0  0  0  0  0  0  0  0  0  0
   -0.3198   -7.5564    7.3041 C   0  0  0  0  0  0  0  0  0  0  0  0
   -2.1571   -9.0689    7.2410 F   0  0  0  0  0  0  0  0  0  0  0  0
    2.0245   -5.8085    8.7246 C   0  0  0  0  0  0  0  0  0  0  0  0
    1.9624   -6.9280    9.9801 S   0  0  0  0  0  0  0  0  0  0  0  0
    1.4087   -4.8153    5.1803 C   0  0  0  0  0  0  0  0  0  0  0  0
    1.7096   -3.5904    4.5840 C   0  0  0  0  0  0  0  0  0  0  0  0
    2.4123   -2.5724    5.7380 S   0  0  0  0  0  0  0  0  0  0  0  0
    1.4693   -3.2490    3.1715 C   0  0  0  0  0  0  0  0  0  0  0  0
    1.9468   -2.1155    2.5095 C   0  0  0  0  0  0  0  0  0  0  0  0
    1.6043   -2.0957    1.1485 C   0  0  0  0  0  0  0  0  0  0  0  0
    1.9678   -1.1113    0.2024 C   0  0  0  0  0  0  0  0  0  0  0  0
    2.6384    0.1336    0.6061 C   0  0  0  0  0  0  0  0  0  0  0  0
    4.0276    0.1770    0.7686 C   0  0  0  0  0  0  0  0  0  0  0  0
    4.6445    1.3540    1.2035 C   0  0  0  0  0  0  0  0  0  0  0  0
    3.8735    2.4923    1.4792 C   0  0  0  0  0  0  0  0  0  0  0  0
    4.6722    3.9865    2.0759 S   0  0  0  0  0  0  0  0  0  0  0  0
    4.8931    4.6863    0.4033 C   0  0  0  0  0  0  0  0  0  0  0  0
    5.4840    6.0817    0.5087 C   0  0  0  0  0  0  0  0  0  0  0  0
    2.4825    2.4517    1.3117 C   0  0  0  0  0  0  0  0  0  0  0  0
    1.7217    3.5450    1.5769 F   0  0  0  0  0  0  0  0  0  0  0  0
    1.8671    1.2744    0.8721 C   0  0  0  0  0  0  0  0  0  0  0  0
    1.5603   -1.3182   -1.1242 C   0  0  0  0  0  0  0  0  0  0  0  0
    0.7694   -2.4058   -1.5054 C   0  0  0  0  0  0  0  0  0  0  0  0
    0.3849   -3.3779   -0.5607 C   0  0  0  0  0  0  0  0  0  0  0  0
   -0.4531   -4.5292   -0.9385 C   0  0  0  0  0  0  0  0  0  0  0  0
   -1.8262   -4.5177   -0.6605 C   0  0  0  0  0  0  0  0  0  0  0  0
   -2.6333   -5.5828   -1.0730 C   0  0  0  0  0  0  0  0  0  0  0  0
   -2.0745   -6.6618   -1.7687 C   0  0  0  0  0  0  0  0  0  0  0  0
   -3.1319   -8.0079   -2.3161 S   0  0  0  0  0  0  0  0  0  0  0  0
   -3.6585   -7.2005   -3.8741 C   0  0  0  0  0  0  0  0  0  0  0  0
   -2.5967   -7.3517   -4.9559 C   0  0  0  0  0  0  0  0  0  0  0  0
   -0.6960   -6.6836   -2.0263 C   0  0  0  0  0  0  0  0  0  0  0  0
    0.1115   -5.6197   -1.6167 C   0  0  0  0  0  0  0  0  0  0  0  0
   -0.1331   -7.7355   -2.6751 F   0  0  0  0  0  0  0  0  0  0  0  0
    0.8369   -3.1980    0.7572 C   0  0  0  0  0  0  0  0  0  0  0  0
    0.6047   -4.2083    2.0795 S   0  0  0  0  0  0  0  0  0  0  0  0
    0.4497   -2.4036   -2.8704 C   0  0  0  0  0  0  0  0  0  0  0  0
    0.9976   -1.3259   -3.5767 C   0  0  0  0  0  0  0  0  0  0  0  0
    1.9168   -0.4031   -2.4928 S   0  0  0  0  0  0  0  0  0  0  0  0
    0.9418   -1.2233   -5.0548 C   0  0  0  0  0  0  0  0  0  0  0  0
    0.8229   -2.5987   -6.0266 S   0  0  0  0  0  0  0  0  0  0  0  0
    0.7695   -1.8388   -7.5116 C   0  0  0  0  0  0  0  0  0  0  0  0
    0.8279   -0.4768   -7.2831 C   0  0  0  0  0  0  0  0  0  0  0  0
    0.9251   -0.1134   -5.9299 C   0  0  0  0  0  0  0  0  0  0  0  0
    0.9762    1.2550   -5.6311 O   0  0  0  0  0  0  0  0  0  0  0  0
    1.2203    1.8424   -4.3909 C   0  0  0  0  0  0  0  0  0  0  0  0
    2.3102    2.5993   -4.2258 C   0  0  0  0  0  0  0  0  0  0  0  0
    3.3367    2.6814   -5.2816 C   0  0  0  0  0  0  0  0  0  0  0  0
    4.2331    1.3660   -5.8152 S   0  0  0  0  0  0  0  0  0  0  0  0
    5.2215    2.2267   -6.8740 C   0  0  0  0  0  0  0  0  0  0  0  0
    4.8638    3.5675   -6.8089 C   0  0  0  0  0  0  0  0  0  0  0  0
    3.8019    3.8255   -5.9369 C   0  0  0  0  0  0  0  0  0  0  0  0
    3.2831    5.1173   -5.7765 O   0  0  0  0  0  0  0  0  0  0  0  0
    1.9491    5.3766   -5.4466 C   0  0  0  0  0  0  0  0  0  0  0  0
    0.9477    4.6926   -6.0149 C   0  0  0  0  0  0  0  0  0  0  0  0
   -0.3998    4.6462   -5.4261 C   0  0  0  0  0  0  0  0  0  0  0  0
   -1.3949    3.7593   -5.8346 C   0  0  0  0  0  0  0  0  0  0  0  0
   -2.4707    3.6937   -4.9351 C   0  0  0  0  0  0  0  0  0  0  0  0
   -3.5831    2.8334   -5.0201 C   0  0  0  0  0  0  0  0  0  0  0  0
   -3.6901    1.8103   -6.0781 C   0  0  0  0  0  0  0  0  0  0  0  0
   -2.7512    0.7703   -6.1399 C   0  0  0  0  0  0  0  0  0  0  0  0
   -2.8139   -0.1726   -7.1641 C   0  0  0  0  0  0  0  0  0  0  0  0
   -3.8077   -0.0771   -8.1467 C   0  0  0  0  0  0  0  0  0  0  0  0
   -3.8356   -1.2582   -9.5044 S   0  0  0  0  0  0  0  0  0  0  0  0
   -2.5831   -0.3737  -10.5041 C   0  0  0  0  0  0  0  0  0  0  0  0
   -3.2004    0.8043  -11.2492 C   0  0  0  0  0  0  0  0  0  0  0  0
   -4.7748    0.9382   -8.0657 C   0  0  0  0  0  0  0  0  0  0  0  0
   -5.7574    1.0302   -8.9967 F   0  0  0  0  0  0  0  0  0  0  0  0
   -4.7121    1.8821   -7.0354 C   0  0  0  0  0  0  0  0  0  0  0  0
   -4.5370    2.9195   -3.9857 C   0  0  0  0  0  0  0  0  0  0  0  0
   -4.3780    3.7720   -2.8871 C   0  0  0  0  0  0  0  0  0  0  0  0
   -3.2404    4.5961   -2.7840 C   0  0  0  0  0  0  0  0  0  0  0  0
   -2.9380    5.3539   -1.5624 C   0  0  0  0  0  0  0  0  0  0  0  0
   -1.9904    4.8523   -0.6581 C   0  0  0  0  0  0  0  0  0  0  0  0
   -1.6529    5.5859    0.4829 C   0  0  0  0  0  0  0  0  0  0  0  0
   -2.2407    6.8367    0.7117 C   0  0  0  0  0  0  0  0  0  0  0  0
   -1.7695    7.7878    2.1619 S   0  0  0  0  0  0  0  0  0  0  0  0
   -0.2341    8.4626    1.4299 C   0  0  0  0  0  0  0  0  0  0  0  0
   -0.5317    9.6126    0.4738 C   0  0  0  0  0  0  0  0  0  0  0  0
   -3.2072    7.3281   -0.1804 C   0  0  0  0  0  0  0  0  0  0  0  0
   -3.5548    6.5882   -1.3155 C   0  0  0  0  0  0  0  0  0  0  0  0
   -3.8013    8.5276    0.0448 F   0  0  0  0  0  0  0  0  0  0  0  0
   -2.3214    4.5463   -3.8389 C   0  0  0  0  0  0  0  0  0  0  0  0
   -0.8575    5.3612   -3.9635 S   0  0  0  0  0  0  0  0  0  0  0  0
   -5.3965    3.6411   -1.9343 C   0  0  0  0  0  0  0  0  0  0  0  0
   -6.3498    2.6871   -2.2821 C   0  0  0  0  0  0  0  0  0  0  0  0
   -5.9251    1.9943   -3.7662 S   0  0  0  0  0  0  0  0  0  0  0  0
   -7.5008    2.2943   -1.4409 C   0  0  0  0  0  0  0  0  0  0  0  0
   -7.8078    2.8922    0.1033 S   0  0  0  0  0  0  0  0  0  0  0  0
   -9.1941    1.9954    0.3937 C   0  0  0  0  0  0  0  0  0  0  0  0
   -9.4446    1.2112   -0.7215 C   0  0  0  0  0  0  0  0  0  0  0  0
   -8.4963    1.3682   -1.7497 C   0  0  0  0  0  0  0  0  0  0  0  0
   -8.5647    0.7130   -2.9891 O   0  0  0  0  0  0  0  0  0  0  0  0
   -9.2130   -0.5062   -3.2260 C   0  0  0  0  0  0  0  0  0  0  0  0
   -9.2463   -1.4927   -2.3325 C   0  0  0  0  0  0  0  0  0  0  0  0
    2.8349   -6.1775   12.1758 H   0  0  0  0  0  0  0  0  0  0  0  0
    3.3691   -3.8633   11.1158 H   0  0  0  0  0  0  0  0  0  0  0  0
    5.2809   -2.9750    9.1857 H   0  0  0  0  0  0  0  0  0  0  0  0
    6.1478   -0.8160   10.0067 H   0  0  0  0  0  0  0  0  0  0  0  0
    4.4127    2.2114    7.9424 H   0  0  0  0  0  0  0  0  0  0  0  0
    5.3974    3.5220    8.6699 H   0  0  0  0  0  0  0  0  0  0  0  0
    6.7779    2.2747    7.0752 H   0  0  0  0  0  0  0  0  0  0  0  0
    6.4120    0.7127    7.8863 H   0  0  0  0  0  0  0  0  0  0  0  0
    7.3912    1.9655    8.7491 H   0  0  0  0  0  0  0  0  0  0  0  0
    1.3988   -1.1853    8.6042 H   0  0  0  0  0  0  0  0  0  0  0  0
    2.7563   -7.8805    5.8625 H   0  0  0  0  0  0  0  0  0  0  0  0
    1.7688  -10.0241    5.1521 H   0  0  0  0  0  0  0  0  0  0  0  0
   -1.4365   -9.5671    3.8635 H   0  0  0  0  0  0  0  0  0  0  0  0
   -2.3341  -11.1144    3.6879 H   0  0  0  0  0  0  0  0  0  0  0  0
   -0.2651  -12.2744    2.9299 H   0  0  0  0  0  0  0  0  0  0  0  0
    0.6654  -10.7303    3.0870 H   0  0  0  0  0  0  0  0  0  0  0  0
   -0.6615  -10.8629    1.8747 H   0  0  0  0  0  0  0  0  0  0  0  0
   -0.9030   -6.8718    7.9112 H   0  0  0  0  0  0  0  0  0  0  0  0
    0.9541   -5.6388    4.6468 H   0  0  0  0  0  0  0  0  0  0  0  0
    2.5449   -1.3495    2.9894 H   0  0  0  0  0  0  0  0  0  0  0  0
    4.6292   -0.6979    0.5638 H   0  0  0  0  0  0  0  0  0  0  0  0
    5.7178    1.3816    1.3295 H   0  0  0  0  0  0  0  0  0  0  0  0
    3.9098    4.7474   -0.1121 H   0  0  0  0  0  0  0  0  0  0  0  0
    5.5783    4.0353   -0.1859 H   0  0  0  0  0  0  0  0  0  0  0  0
    6.4780    6.0443    1.0067 H   0  0  0  0  0  0  0  0  0  0  0  0
    5.6106    6.5104   -0.5089 H   0  0  0  0  0  0  0  0  0  0  0  0
    4.8064    6.7425    1.0915 H   0  0  0  0  0  0  0  0  0  0  0  0
    0.7922    1.2474    0.7514 H   0  0  0  0  0  0  0  0  0  0  0  0
   -2.2728   -3.6761   -0.1455 H   0  0  0  0  0  0  0  0  0  0  0  0
   -3.6978   -5.5562   -0.8725 H   0  0  0  0  0  0  0  0  0  0  0  0
   -3.8837   -6.1228   -3.7118 H   0  0  0  0  0  0  0  0  0  0  0  0
   -4.5909   -7.6915   -4.2224 H   0  0  0  0  0  0  0  0  0  0  0  0
   -2.9801   -6.9449   -5.9158 H   0  0  0  0  0  0  0  0  0  0  0  0
   -2.3470   -8.4243   -5.0995 H   0  0  0  0  0  0  0  0  0  0  0  0
   -1.6787   -6.7930   -4.6817 H   0  0  0  0  0  0  0  0  0  0  0  0
    1.1694   -5.6296   -1.8416 H   0  0  0  0  0  0  0  0  0  0  0  0
   -0.1493   -3.1714   -3.3437 H   0  0  0  0  0  0  0  0  0  0  0  0
    0.7042   -2.3246   -8.4751 H   0  0  0  0  0  0  0  0  0  0  0  0
    0.7999    0.2491   -8.0847 H   0  0  0  0  0  0  0  0  0  0  0  0
    0.4908    1.7539   -3.5931 H   0  0  0  0  0  0  0  0  0  0  0  0
    2.4328    3.1736   -3.3128 H   0  0  0  0  0  0  0  0  0  0  0  0
    6.0043    1.8089   -7.4900 H   0  0  0  0  0  0  0  0  0  0  0  0
    5.3481    4.3341   -7.4044 H   0  0  0  0  0  0  0  0  0  0  0  0
    1.7489    6.1247   -4.6934 H   0  0  0  0  0  0  0  0  0  0  0  0
    1.1713    4.0086   -6.8236 H   0  0  0  0  0  0  0  0  0  0  0  0
   -1.3047    3.1414   -6.7163 H   0  0  0  0  0  0  0  0  0  0  0  0
   -1.9643    0.6988   -5.3955 H   0  0  0  0  0  0  0  0  0  0  0  0
   -2.0758   -0.9647   -7.2131 H   0  0  0  0  0  0  0  0  0  0  0  0
   -1.7410   -0.0242   -9.8686 H   0  0  0  0  0  0  0  0  0  0  0  0
   -2.1687   -1.0881  -11.2470 H   0  0  0  0  0  0  0  0  0  0  0  0
   -2.4296    1.2876  -11.8865 H   0  0  0  0  0  0  0  0  0  0  0  0
   -4.0317    0.4534  -11.8947 H   0  0  0  0  0  0  0  0  0  0  0  0
   -3.5836    1.5604  -10.5317 H   0  0  0  0  0  0  0  0  0  0  0  0
   -5.4441    2.6804   -6.9945 H   0  0  0  0  0  0  0  0  0  0  0  0
   -1.5088    3.9024   -0.8416 H   0  0  0  0  0  0  0  0  0  0  0  0
   -0.9128    5.1952    1.1714 H   0  0  0  0  0  0  0  0  0  0  0  0
    0.3295    7.6636    0.8982 H   0  0  0  0  0  0  0  0  0  0  0  0
    0.4064    8.8361    2.2561 H   0  0  0  0  0  0  0  0  0  0  0  0
   -1.1008    9.2490   -0.4062 H   0  0  0  0  0  0  0  0  0  0  0  0
    0.4248   10.0534    0.1185 H   0  0  0  0  0  0  0  0  0  0  0  0
   -1.1188   10.4018    0.9933 H   0  0  0  0  0  0  0  0  0  0  0  0
   -4.2872    6.9804   -2.0096 H   0  0  0  0  0  0  0  0  0  0  0  0
   -5.4322    4.2115   -1.0168 H   0  0  0  0  0  0  0  0  0  0  0  0
   -9.7963    2.0299    1.2884 H   0  0  0  0  0  0  0  0  0  0  0  0
  -10.3089    0.5610   -0.7909 H   0  0  0  0  0  0  0  0  0  0  0  0
   -9.6707   -0.6657   -4.1952 H   0  0  0  0  0  0  0  0  0  0  0  0
   -9.7516   -2.4177   -2.5659 H   0  0  0  0  0  0  0  0  0  0  0  0
   -8.7551   -1.3960   -1.3721 H   0  0  0  0  0  0  0  0  0  0  0  0
  1  2  2  0
  2  3  1  0
  3  4  2  0
  4  5  1  0
  5  6  2  0
  6  7  1  0
  7  8  2  0
  8  9  1  0
  9 10  1  0
 10 11  1  0
  8 12  1  0
 12 13  1  0
 12 14  2  0
  4 15  1  0
 15 16  2  0
 16 17  1  0
 17 18  1  0
 18 19  2  0
 19 20  1  0
 20 21  2  0
 21 22  1  0
 22 23  1  0
 23 24  1  0
 21 25  1  0
 25 26  2  0
 25 27  1  0
 17 28  2  0
 28 29  1  0
 16 30  1  0
 30 31  2  0
 31 32  1  0
 31 33  1  0
 33 34  2  0
 34 35  1  0
 35 36  2  0
 36 37  1  0
 37 38  2  0
 38 39  1  0
 39 40  2  0
 40 41  1  0
 41 42  1  0
 42 43  1  0
 40 44  1  0
 44 45  1  0
 44 46  2  0
 36 47  1  0
 47 48  2  0
 48 49  1  0
 49 50  1  0
 50 51  2  0
 51 52  1  0
 52 53  2  0
 53 54  1  0
 54 55  1  0
 55 56  1  0
 53 57  1  0
 57 58  2  0
 57 59  1  0
 49 60  2  0
 60 61  1  0
 48 62  1  0
 62 63  2  0
 63 64  1  0
 63 65  1  0
 65 66  1  0
 66 67  1  0
 67 68  2  0
 68 69  1  0
 69 70  1  0
 70 71  1  0
 71 72  2  3
 72 73  1  0
 73 74  1  0
 74 75  1  0
 75 76  2  0
 76 77  1  0
 77 78  1  0
 78 79  1  0
 79 80  2  3
 80 81  1  0
 81 82  2  0
 82 83  1  0
 83 84  2  0
 84 85  1  0
 85 86  2  0
 86 87  1  0
 87 88  2  0
 88 89  1  0
 89 90  1  0
 90 91  1  0
 88 92  1  0
 92 93  1  0
 92 94  2  0
 84 95  1  0
 95 96  2  0
 96 97  1  0
 97 98  1  0
 98 99  2  0
 99100  1  0
100101  2  0
101102  1  0
102103  1  0
103104  1  0
101105  1  0
105106  2  0
105107  1  0
 97108  2  0
108109  1  0
 96110  1  0
110111  2  0
111112  1  0
111113  1  0
113114  1  0
114115  1  0
115116  2  0
116117  1  0
117118  1  0
118119  1  0
119120  2  3
 29  1  1  0
 61 33  1  0
 69 65  2  0
 77 73  2  0
109 81  1  0
117113  2  0
 28  3  1  0
 60 35  1  0
108 83  1  0
 14  5  1  0
 32 15  1  0
 46 37  1  0
 64 47  1  0
 94 85  1  0
112 95  1  0
 26 18  1  0
 58 50  1  0
106 98  1  0
  1121  1  0
  2122  1  0
  6123  1  0
  7124  1  0
 10125  1  0
 10126  1  0
 11127  1  0
 11128  1  0
 11129  1  0
 14130  1  0
 19131  1  0
 20132  1  0
 23133  1  0
 23134  1  0
 24135  1  0
 24136  1  0
 24137  1  0
 26138  1  0
 30139  1  0
 34140  1  0
 38141  1  0
 39142  1  0
 42143  1  0
 42144  1  0
 43145  1  0
 43146  1  0
 43147  1  0
 46148  1  0
 51149  1  0
 52150  1  0
 55151  1  0
 55152  1  0
 56153  1  0
 56154  1  0
 56155  1  0
 58156  1  0
 62157  1  0
 67158  1  0
 68159  1  0
 71160  1  0
 72161  1  0
 75162  1  0
 76163  1  0
 79164  1  0
 80165  1  0
 82166  1  0
 86167  1  0
 87168  1  0
 90169  1  0
 90170  1  0
 91171  1  0
 91172  1  0
 91173  1  0
 94174  1  0
 99175  1  0
100176  1  0
103177  1  0
103178  1  0
104179  1  0
104180  1  0
104181  1  0
106182  1  0
110183  1  0
115184  1  0
116185  1  0
119186  1  0
120187  1  0
120188  1  0
M  END

