
     RDKit          3D

224249  0  0  0  0  0  0  0  0999 V2000
    7.1868   -1.6881    8.4023 C   0  0  0  0  0  0  0  0  0  0  0  0
    6.6393   -0.4414    8.1060 C   0  0  0  0  0  0  0  0  0  0  0  0
    5.3061   -0.5125    7.6666 C   0  0  0  0  0  0  0  0  0  0  0  0
    4.4859    0.5762    7.2943 C   0  0  0  0  0  0  0  0  0  0  0  0
    4.9381    1.9718    7.4266 C   0  0  0  0  0  0  0  0  0  0  0  0
    5.1731    3.0366    6.1464 S   0  0  0  0  0  0  0  0  0  0  0  0
    5.6979    4.3290    7.0892 C   0  0  0  0  0  0  0  0  0  0  0  0
    6.1463    5.6557    6.5529 C   0  0  0  0  0  0  0  0  0  0  0  0
    7.6040    5.5891    6.1044 C   0  0  0  0  0  0  0  0  0  0  0  0
    5.7054    3.9345    8.4266 C   0  0  0  0  0  0  0  0  0  0  0  0
    6.2173    4.9793    9.7446 Cl  0  0  0  0  0  0  0  0  0  0  0  0
    5.2719    2.6163    8.6164 C   0  0  0  0  0  0  0  0  0  0  0  0
    5.1191    1.8715   10.2017 Cl  0  0  0  0  0  0  0  0  0  0  0  0
    3.1930    0.2657    6.8393 C   0  0  0  0  0  0  0  0  0  0  0  0
    2.7118   -1.0453    6.7858 C   0  0  0  0  0  0  0  0  0  0  0  0
    3.5258   -2.1239    7.1731 C   0  0  0  0  0  0  0  0  0  0  0  0
    3.0234   -3.5015    7.1383 C   0  0  0  0  0  0  0  0  0  0  0  0
    3.1122   -4.5021    5.7899 S   0  0  0  0  0  0  0  0  0  0  0  0
    2.0454   -5.6731    6.3673 C   0  0  0  0  0  0  0  0  0  0  0  0
    1.5501   -6.8349    5.5627 C   0  0  0  0  0  0  0  0  0  0  0  0
    0.3965   -6.4055    4.6592 C   0  0  0  0  0  0  0  0  0  0  0  0
    1.5689   -5.2668    7.6102 C   0  0  0  0  0  0  0  0  0  0  0  0
    2.1148   -4.0508    8.0417 C   0  0  0  0  0  0  0  0  0  0  0  0
    1.6338   -3.2466    9.5272 Cl  0  0  0  0  0  0  0  0  0  0  0  0
    0.3446   -6.1471    8.5120 Cl  0  0  0  0  0  0  0  0  0  0  0  0
    4.8244   -1.8239    7.6007 C   0  0  0  0  0  0  0  0  0  0  0  0
    6.0271   -2.8806    8.1098 S   0  0  0  0  0  0  0  0  0  0  0  0
    1.3964   -1.1416    6.3098 C   0  0  0  0  0  0  0  0  0  0  0  0
    0.8459    0.0930    5.9818 C   0  0  0  0  0  0  0  0  0  0  0  0
    1.9868    1.3026    6.2856 S   0  0  0  0  0  0  0  0  0  0  0  0
   -0.4584    0.2912    5.3398 C   0  0  0  0  0  0  0  0  0  0  0  0
   -1.3770   -0.7169    5.0328 C   0  0  0  0  0  0  0  0  0  0  0  0
   -2.4240   -0.2739    4.2082 C   0  0  0  0  0  0  0  0  0  0  0  0
   -3.3997   -1.0876    3.6022 C   0  0  0  0  0  0  0  0  0  0  0  0
   -3.5221   -2.5143    3.9317 C   0  0  0  0  0  0  0  0  0  0  0  0
   -4.2159   -3.0983    5.3461 S   0  0  0  0  0  0  0  0  0  0  0  0
   -4.0222   -4.7286    4.9847 C   0  0  0  0  0  0  0  0  0  0  0  0
   -4.4407   -5.8448    5.8932 C   0  0  0  0  0  0  0  0  0  0  0  0
   -3.2969   -6.2502    6.8133 C   0  0  0  0  0  0  0  0  0  0  0  0
   -3.3745   -4.8406    3.7548 C   0  0  0  0  0  0  0  0  0  0  0  0
   -2.9530   -6.3759    3.0175 Cl  0  0  0  0  0  0  0  0  0  0  0  0
   -3.1030   -3.5967    3.1559 C   0  0  0  0  0  0  0  0  0  0  0  0
   -2.2724   -3.4170    1.6151 Cl  0  0  0  0  0  0  0  0  0  0  0  0
   -4.2236   -0.4847    2.6417 C   0  0  0  0  0  0  0  0  0  0  0  0
   -4.1497    0.8807    2.3427 C   0  0  0  0  0  0  0  0  0  0  0  0
   -3.2084    1.7098    2.9868 C   0  0  0  0  0  0  0  0  0  0  0  0
   -3.0174    3.1239    2.6082 C   0  0  0  0  0  0  0  0  0  0  0  0
   -2.5754    3.6503    1.0743 S   0  0  0  0  0  0  0  0  0  0  0  0
   -2.4484    5.2845    1.4674 C   0  0  0  0  0  0  0  0  0  0  0  0
   -2.1839    6.3932    0.4891 C   0  0  0  0  0  0  0  0  0  0  0  0
   -1.1672    5.9860   -0.5781 C   0  0  0  0  0  0  0  0  0  0  0  0
   -2.7756    5.4363    2.8165 C   0  0  0  0  0  0  0  0  0  0  0  0
   -3.0770    4.2242    3.4565 C   0  0  0  0  0  0  0  0  0  0  0  0
   -3.5515    4.1229    5.1476 Cl  0  0  0  0  0  0  0  0  0  0  0  0
   -2.8321    6.9908    3.6288 Cl  0  0  0  0  0  0  0  0  0  0  0  0
   -2.3470    1.0878    3.9059 C   0  0  0  0  0  0  0  0  0  0  0  0
   -0.9657    1.7297    4.6217 S   0  0  0  0  0  0  0  0  0  0  0  0
   -5.0030    1.2603    1.2962 C   0  0  0  0  0  0  0  0  0  0  0  0
   -5.7022    0.1909    0.7403 C   0  0  0  0  0  0  0  0  0  0  0  0
   -5.3019   -1.2236    1.5808 S   0  0  0  0  0  0  0  0  0  0  0  0
   -6.3159    0.2356   -0.5942 C   0  0  0  0  0  0  0  0  0  0  0  0
   -6.1904   -0.7815   -1.5361 C   0  0  0  0  0  0  0  0  0  0  0  0
   -6.4596   -0.3533   -2.8458 C   0  0  0  0  0  0  0  0  0  0  0  0
   -6.2553   -1.1031   -4.0189 C   0  0  0  0  0  0  0  0  0  0  0  0
   -5.7254   -2.4769   -3.9799 C   0  0  0  0  0  0  0  0  0  0  0  0
   -4.2084   -2.9018   -3.3883 S   0  0  0  0  0  0  0  0  0  0  0  0
   -4.3968   -4.5608   -3.5923 C   0  0  0  0  0  0  0  0  0  0  0  0
   -3.4203   -5.5830   -3.0876 C   0  0  0  0  0  0  0  0  0  0  0  0
   -3.6047   -5.8043   -1.5907 C   0  0  0  0  0  0  0  0  0  0  0  0
   -5.6663   -4.8041   -4.1197 C   0  0  0  0  0  0  0  0  0  0  0  0
   -6.3068   -6.4173   -4.4033 Cl  0  0  0  0  0  0  0  0  0  0  0  0
   -6.4056   -3.6330   -4.3438 C   0  0  0  0  0  0  0  0  0  0  0  0
   -8.0607   -3.6336   -4.9305 Cl  0  0  0  0  0  0  0  0  0  0  0  0
   -6.4772   -0.4453   -5.2366 C   0  0  0  0  0  0  0  0  0  0  0  0
   -6.8682    0.8954   -5.3150 C   0  0  0  0  0  0  0  0  0  0  0  0
   -7.1013    1.6381   -4.1393 C   0  0  0  0  0  0  0  0  0  0  0  0
   -7.5262    3.0492   -4.1695 C   0  0  0  0  0  0  0  0  0  0  0  0
   -6.6031    4.3189   -4.7712 S   0  0  0  0  0  0  0  0  0  0  0  0
   -7.7250    5.5298   -4.4280 C   0  0  0  0  0  0  0  0  0  0  0  0
   -7.5159    6.9894   -4.7078 C   0  0  0  0  0  0  0  0  0  0  0  0
   -7.0922    7.7268   -3.4395 C   0  0  0  0  0  0  0  0  0  0  0  0
   -8.8320    4.9530   -3.8102 C   0  0  0  0  0  0  0  0  0  0  0  0
   -8.7220    3.5612   -3.6673 C   0  0  0  0  0  0  0  0  0  0  0  0
   -9.9844    2.5608   -2.9662 Cl  0  0  0  0  0  0  0  0  0  0  0  0
  -10.2334    5.8657   -3.2761 Cl  0  0  0  0  0  0  0  0  0  0  0  0
   -6.8647    0.9814   -2.9185 C   0  0  0  0  0  0  0  0  0  0  0  0
   -6.8100    1.6494   -1.3727 S   0  0  0  0  0  0  0  0  0  0  0  0
   -6.9506    1.3709   -6.6372 C   0  0  0  0  0  0  0  0  0  0  0  0
   -6.5880    0.4085   -7.5871 C   0  0  0  0  0  0  0  0  0  0  0  0
   -6.2092   -1.0289   -6.7858 S   0  0  0  0  0  0  0  0  0  0  0  0
   -6.5073    0.6247   -9.0433 C   0  0  0  0  0  0  0  0  0  0  0  0
   -7.1038    1.9767   -9.8445 S   0  0  0  0  0  0  0  0  0  0  0  0
   -6.7151    1.4817  -11.4019 C   0  0  0  0  0  0  0  0  0  0  0  0
   -6.1086    0.2376  -11.3236 C   0  0  0  0  0  0  0  0  0  0  0  0
   -5.9794   -0.2405  -10.0082 C   0  0  0  0  0  0  0  0  0  0  0  0
   -5.3814   -1.4742   -9.7210 O   0  0  0  0  0  0  0  0  0  0  0  0
   -4.0819   -1.6133   -9.2085 C   0  0  0  0  0  0  0  0  0  0  0  0
   -3.2843   -0.5720   -8.9307 C   0  0  0  0  0  0  0  0  0  0  0  0
   -2.0025   -0.7288   -8.2109 C   0  0  0  0  0  0  0  0  0  0  0  0
   -1.2421    0.3331   -7.7273 C   0  0  0  0  0  0  0  0  0  0  0  0
   -0.1671   -0.0842   -6.9273 C   0  0  0  0  0  0  0  0  0  0  0  0
    0.7037    0.7544   -6.2087 C   0  0  0  0  0  0  0  0  0  0  0  0
    0.5591    2.2149   -6.2159 C   0  0  0  0  0  0  0  0  0  0  0  0
   -0.3716    3.0725   -5.1082 S   0  0  0  0  0  0  0  0  0  0  0  0
    0.1303    4.6021   -5.6064 C   0  0  0  0  0  0  0  0  0  0  0  0
   -0.2403    5.8804   -4.9160 C   0  0  0  0  0  0  0  0  0  0  0  0
    0.7480    6.1812   -3.7927 C   0  0  0  0  0  0  0  0  0  0  0  0
    1.0654    4.4522   -6.6331 C   0  0  0  0  0  0  0  0  0  0  0  0
    1.9071    5.8006   -7.3798 Cl  0  0  0  0  0  0  0  0  0  0  0  0
    1.3038    3.1092   -6.9743 C   0  0  0  0  0  0  0  0  0  0  0  0
    2.4667    2.6084   -8.1839 Cl  0  0  0  0  0  0  0  0  0  0  0  0
    1.6348    0.1329   -5.3588 C   0  0  0  0  0  0  0  0  0  0  0  0
    1.7167   -1.2558   -5.2122 C   0  0  0  0  0  0  0  0  0  0  0  0
    0.8524   -2.0955   -5.9465 C   0  0  0  0  0  0  0  0  0  0  0  0
    0.8034   -3.5437   -5.7082 C   0  0  0  0  0  0  0  0  0  0  0  0
    0.2043   -4.2500   -4.3080 S   0  0  0  0  0  0  0  0  0  0  0  0
    0.4634   -5.8478   -4.7841 C   0  0  0  0  0  0  0  0  0  0  0  0
    0.0521   -7.0567   -3.9926 C   0  0  0  0  0  0  0  0  0  0  0  0
    0.4294   -6.9301   -2.5184 C   0  0  0  0  0  0  0  0  0  0  0  0
    0.9983   -5.8405   -6.0732 C   0  0  0  0  0  0  0  0  0  0  0  0
    1.1894   -4.5456   -6.5900 C   0  0  0  0  0  0  0  0  0  0  0  0
    1.8518   -4.2270   -8.1889 Cl  0  0  0  0  0  0  0  0  0  0  0  0
    1.3795   -7.2995   -6.9751 Cl  0  0  0  0  0  0  0  0  0  0  0  0
   -0.0769   -1.4746   -6.7998 C   0  0  0  0  0  0  0  0  0  0  0  0
   -1.3361   -2.1882   -7.6570 S   0  0  0  0  0  0  0  0  0  0  0  0
    2.6339   -1.6547   -4.2227 C   0  0  0  0  0  0  0  0  0  0  0  0
    3.2133   -0.5711   -3.5572 C   0  0  0  0  0  0  0  0  0  0  0  0
    2.6385    0.8648   -4.2239 S   0  0  0  0  0  0  0  0  0  0  0  0
    3.9471   -0.6475   -2.2821 C   0  0  0  0  0  0  0  0  0  0  0  0
    4.5799   -1.7727   -1.7569 C   0  0  0  0  0  0  0  0  0  0  0  0
    4.9832   -1.5949   -0.4206 C   0  0  0  0  0  0  0  0  0  0  0  0
    5.6398   -2.5425    0.3918 C   0  0  0  0  0  0  0  0  0  0  0  0
    6.0338   -3.8705   -0.1173 C   0  0  0  0  0  0  0  0  0  0  0  0
    7.6237   -4.4041   -0.2931 S   0  0  0  0  0  0  0  0  0  0  0  0
    7.2461   -5.8856   -0.9941 C   0  0  0  0  0  0  0  0  0  0  0  0
    8.2506   -6.8869   -1.4643 C   0  0  0  0  0  0  0  0  0  0  0  0
    8.3718   -8.0570   -0.4886 C   0  0  0  0  0  0  0  0  0  0  0  0
    5.8587   -5.9916   -1.0884 C   0  0  0  0  0  0  0  0  0  0  0  0
    5.0269   -7.3731   -1.7879 Cl  0  0  0  0  0  0  0  0  0  0  0  0
    5.1800   -4.8612   -0.5916 C   0  0  0  0  0  0  0  0  0  0  0  0
    3.4275   -4.7356   -0.5413 Cl  0  0  0  0  0  0  0  0  0  0  0  0
    5.9208   -2.1561    1.7148 C   0  0  0  0  0  0  0  0  0  0  0  0
    5.5710   -0.9036    2.2320 C   0  0  0  0  0  0  0  0  0  0  0  0
    4.9331    0.0502    1.4150 C   0  0  0  0  0  0  0  0  0  0  0  0
    4.5780    1.3985    1.9053 C   0  0  0  0  0  0  0  0  0  0  0  0
    3.0296    2.0551    1.8443 S   0  0  0  0  0  0  0  0  0  0  0  0
    3.4756    3.6103    2.3080 C   0  0  0  0  0  0  0  0  0  0  0  0
    2.5538    4.7930    2.2877 C   0  0  0  0  0  0  0  0  0  0  0  0
    2.5831    5.4618    0.9136 C   0  0  0  0  0  0  0  0  0  0  0  0
    4.8573    3.6399    2.4854 C   0  0  0  0  0  0  0  0  0  0  0  0
    5.4716    2.3988    2.2801 C   0  0  0  0  0  0  0  0  0  0  0  0
    7.2108    2.1656    2.3388 Cl  0  0  0  0  0  0  0  0  0  0  0  0
    5.7562    5.1116    2.8371 Cl  0  0  0  0  0  0  0  0  0  0  0  0
    4.6594   -0.3312    0.0868 C   0  0  0  0  0  0  0  0  0  0  0  0
    3.8982    0.5601   -1.1076 S   0  0  0  0  0  0  0  0  0  0  0  0
    5.8781   -0.7546    3.5954 C   0  0  0  0  0  0  0  0  0  0  0  0
    6.4777   -1.8797    4.1471 C   0  0  0  0  0  0  0  0  0  0  0  0
    6.6177   -3.0672    2.9531 S   0  0  0  0  0  0  0  0  0  0  0  0
    8.1884   -1.8640    8.7654 H   0  0  0  0  0  0  0  0  0  0  0  0
    7.1968    0.4794    8.2100 H   0  0  0  0  0  0  0  0  0  0  0  0
    6.0342    6.4446    7.3215 H   0  0  0  0  0  0  0  0  0  0  0  0
    5.5097    5.9340    5.6873 H   0  0  0  0  0  0  0  0  0  0  0  0
    8.2690    5.3575    6.9644 H   0  0  0  0  0  0  0  0  0  0  0  0
    7.8993    6.5752    5.6808 H   0  0  0  0  0  0  0  0  0  0  0  0
    7.7321    4.8176    5.3181 H   0  0  0  0  0  0  0  0  0  0  0  0
    1.2119   -7.6485    6.2395 H   0  0  0  0  0  0  0  0  0  0  0  0
    2.3805   -7.2285    4.9370 H   0  0  0  0  0  0  0  0  0  0  0  0
    0.7322   -5.6366    3.9327 H   0  0  0  0  0  0  0  0  0  0  0  0
    0.0201   -7.2861    4.0930 H   0  0  0  0  0  0  0  0  0  0  0  0
   -0.4344   -5.9892    5.2663 H   0  0  0  0  0  0  0  0  0  0  0  0
    0.8797   -2.0856    6.1831 H   0  0  0  0  0  0  0  0  0  0  0  0
   -1.2491   -1.7527    5.3215 H   0  0  0  0  0  0  0  0  0  0  0  0
   -5.3053   -5.5069    6.5093 H   0  0  0  0  0  0  0  0  0  0  0  0
   -4.7688   -6.7208    5.2946 H   0  0  0  0  0  0  0  0  0  0  0  0
   -2.8847   -5.3645    7.3491 H   0  0  0  0  0  0  0  0  0  0  0  0
   -3.6649   -6.9685    7.5709 H   0  0  0  0  0  0  0  0  0  0  0  0
   -2.4930   -6.7392    6.2286 H   0  0  0  0  0  0  0  0  0  0  0  0
   -3.1388    6.6746   -0.0060 H   0  0  0  0  0  0  0  0  0  0  0  0
   -1.7920    7.2840    1.0231 H   0  0  0  0  0  0  0  0  0  0  0  0
   -0.9156    6.8708   -1.2089 H   0  0  0  0  0  0  0  0  0  0  0  0
   -0.2391    5.6062   -0.1005 H   0  0  0  0  0  0  0  0  0  0  0  0
   -1.5875    5.2011   -1.2408 H   0  0  0  0  0  0  0  0  0  0  0  0
   -5.0476    2.2590    0.8857 H   0  0  0  0  0  0  0  0  0  0  0  0
   -5.8111   -1.7685   -1.2890 H   0  0  0  0  0  0  0  0  0  0  0  0
   -3.5442   -6.5439   -3.6333 H   0  0  0  0  0  0  0  0  0  0  0  0
   -2.3920   -5.2195   -3.2819 H   0  0  0  0  0  0  0  0  0  0  0  0
   -2.8526   -6.5347   -1.2191 H   0  0  0  0  0  0  0  0  0  0  0  0
   -4.6229   -6.1988   -1.3857 H   0  0  0  0  0  0  0  0  0  0  0  0
   -3.4555   -4.8526   -1.0434 H   0  0  0  0  0  0  0  0  0  0  0  0
   -8.4522    7.4336   -5.1063 H   0  0  0  0  0  0  0  0  0  0  0  0
   -6.7254    7.1079   -5.4796 H   0  0  0  0  0  0  0  0  0  0  0  0
   -7.9170    7.7354   -2.6979 H   0  0  0  0  0  0  0  0  0  0  0  0
   -6.1962    7.2455   -2.9902 H   0  0  0  0  0  0  0  0  0  0  0  0
   -6.8360    8.7765   -3.6894 H   0  0  0  0  0  0  0  0  0  0  0  0
   -7.2180    2.3877   -6.8967 H   0  0  0  0  0  0  0  0  0  0  0  0
   -6.8981    2.0295  -12.3152 H   0  0  0  0  0  0  0  0  0  0  0  0
   -5.7579   -0.3114  -12.1866 H   0  0  0  0  0  0  0  0  0  0  0  0
   -3.7415   -2.6218   -9.0062 H   0  0  0  0  0  0  0  0  0  0  0  0
   -3.6073    0.4373   -9.1533 H   0  0  0  0  0  0  0  0  0  0  0  0
   -1.4899    1.3739   -7.8961 H   0  0  0  0  0  0  0  0  0  0  0  0
   -1.2584    5.7768   -4.4856 H   0  0  0  0  0  0  0  0  0  0  0  0
   -0.2504    6.7170   -5.6460 H   0  0  0  0  0  0  0  0  0  0  0  0
    0.4553    7.1195   -3.2775 H   0  0  0  0  0  0  0  0  0  0  0  0
    0.7657    5.3529   -3.0475 H   0  0  0  0  0  0  0  0  0  0  0  0
    1.7698    6.3144   -4.2043 H   0  0  0  0  0  0  0  0  0  0  0  0
    0.5344   -7.9698   -4.3969 H   0  0  0  0  0  0  0  0  0  0  0  0
   -1.0458   -7.1908   -4.0830 H   0  0  0  0  0  0  0  0  0  0  0  0
    0.1059   -7.8428   -1.9658 H   0  0  0  0  0  0  0  0  0  0  0  0
   -0.0785   -6.0556   -2.0550 H   0  0  0  0  0  0  0  0  0  0  0  0
    1.5299   -6.8127   -2.4146 H   0  0  0  0  0  0  0  0  0  0  0  0
    2.7979   -2.6815   -3.9335 H   0  0  0  0  0  0  0  0  0  0  0  0
    4.7294   -2.6829   -2.3221 H   0  0  0  0  0  0  0  0  0  0  0  0
    7.9655   -7.2697   -2.4748 H   0  0  0  0  0  0  0  0  0  0  0  0
    9.2484   -6.4031   -1.5677 H   0  0  0  0  0  0  0  0  0  0  0  0
    8.7232   -7.6990    0.4977 H   0  0  0  0  0  0  0  0  0  0  0  0
    7.3990   -8.5695   -0.3693 H   0  0  0  0  0  0  0  0  0  0  0  0
    9.1094   -8.7907   -0.8765 H   0  0  0  0  0  0  0  0  0  0  0  0
    2.8586    5.5228    3.0674 H   0  0  0  0  0  0  0  0  0  0  0  0
    1.5195    4.4642    2.5119 H   0  0  0  0  0  0  0  0  0  0  0  0
    1.9922    6.4054    0.9487 H   0  0  0  0  0  0  0  0  0  0  0  0
    3.6200    5.7087    0.6155 H   0  0  0  0  0  0  0  0  0  0  0  0
    2.1295    4.7911    0.1570 H   0  0  0  0  0  0  0  0  0  0  0  0
    5.6609    0.1367    4.1717 H   0  0  0  0  0  0  0  0  0  0  0  0
    6.7953   -1.9810    5.1808 H   0  0  0  0  0  0  0  0  0  0  0  0
  1  2  2  0
  2  3  1  0
  3  4  2  0
  4  5  1  0
  5  6  1  0
  6  7  1  0
  7  8  1  0
  8  9  1  0
  7 10  2  0
 10 11  1  0
 10 12  1  0
 12 13  1  0
  4 14  1  0
 14 15  2  0
 15 16  1  0
 16 17  1  0
 17 18  1  0
 18 19  1  0
 19 20  1  0
 20 21  1  0
 19 22  2  0
 22 23  1  0
 23 24  1  0
 22 25  1  0
 16 26  2  0
 26 27  1  0
 15 28  1  0
 28 29  2  0
 29 30  1  0
 29 31  1  0
 31 32  2  0
 32 33  1  0
 33 34  2  0
 34 35  1  0
 35 36  1  0
 36 37  1  0
 37 38  1  0
 38 39  1  0
 37 40  2  0
 40 41  1  0
 40 42  1  0
 42 43  1  0
 34 44  1  0
 44 45  2  0
 45 46  1  0
 46 47  1  0
 47 48  1  0
 48 49  1  0
 49 50  1  0
 50 51  1  0
 49 52  2  0
 52 53  1  0
 53 54  1  0
 52 55  1  0
 46 56  2  0
 56 57  1  0
 45 58  1  0
 58 59  2  0
 59 60  1  0
 59 61  1  0
 61 62  2  0
 62 63  1  0
 63 64  2  0
 64 65  1  0
 65 66  1  0
 66 67  1  0
 67 68  1  0
 68 69  1  0
 67 70  2  0
 70 71  1  0
 70 72  1  0
 72 73  1  0
 64 74  1  0
 74 75  2  0
 75 76  1  0
 76 77  1  0
 77 78  1  0
 78 79  1  0
 79 80  1  0
 80 81  1  0
 79 82  2  0
 82 83  1  0
 83 84  1  0
 82 85  1  0
 76 86  2  0
 86 87  1  0
 75 88  1  0
 88 89  2  0
 89 90  1  0
 89 91  1  0
 91 92  1  0
 92 93  1  0
 93 94  2  0
 94 95  1  0
 95 96  1  0
 96 97  1  0
 97 98  2  3
 98 99  1  0
 99100  2  0
100101  1  0
101102  2  0
102103  1  0
103104  1  0
104105  1  0
105106  1  0
106107  1  0
105108  2  0
108109  1  0
108110  1  0
110111  1  0
102112  1  0
112113  2  0
113114  1  0
114115  1  0
115116  1  0
116117  1  0
117118  1  0
118119  1  0
117120  2  0
120121  1  0
121122  1  0
120123  1  0
114124  2  0
124125  1  0
113126  1  0
126127  2  0
127128  1  0
127129  1  0
129130  2  0
130131  1  0
131132  2  0
132133  1  0
133134  1  0
134135  1  0
135136  1  0
136137  1  0
135138  2  0
138139  1  0
138140  1  0
140141  1  0
132142  1  0
142143  2  0
143144  1  0
144145  1  0
145146  1  0
146147  1  0
147148  1  0
148149  1  0
147150  2  0
150151  1  0
151152  1  0
150153  1  0
144154  2  0
154155  1  0
143156  1  0
156157  2  0
157158  1  0
 27  1  1  0
 57 31  1  0
 87 61  1  0
 95 91  2  0
125 99  1  0
155129  1  0
 26  3  1  0
 56 33  1  0
 86 63  1  0
124101  1  0
154131  1  0
 12  5  2  0
 30 14  1  0
 42 35  2  0
 60 44  1  0
 72 65  2  0
 90 74  1  0
110103  2  0
128112  1  0
140133  2  0
158142  1  0
 23 17  2  0
 53 47  2  0
 83 77  2  0
121115  2  0
151145  2  0
  1159  1  0
  2160  1  0
  8161  1  0
  8162  1  0
  9163  1  0
  9164  1  0
  9165  1  0
 20166  1  0
 20167  1  0
 21168  1  0
 21169  1  0
 21170  1  0
 28171  1  0
 32172  1  0
 38173  1  0
 38174  1  0
 39175  1  0
 39176  1  0
 39177  1  0
 50178  1  0
 50179  1  0
 51180  1  0
 51181  1  0
 51182  1  0
 58183  1  0
 62184  1  0
 68185  1  0
 68186  1  0
 69187  1  0
 69188  1  0
 69189  1  0
 80190  1  0
 80191  1  0
 81192  1  0
 81193  1  0
 81194  1  0
 88195  1  0
 93196  1  0
 94197  1  0
 97198  1  0
 98199  1  0
100200  1  0
106201  1  0
106202  1  0
107203  1  0
107204  1  0
107205  1  0
118206  1  0
118207  1  0
119208  1  0
119209  1  0
119210  1  0
126211  1  0
130212  1  0
136213  1  0
136214  1  0
137215  1  0
137216  1  0
137217  1  0
148218  1  0
148219  1  0
149220  1  0
149221  1  0
149222  1  0
156223  1  0
157224  1  0
M  END

