
     RDKit          3D

264288  0  0  0  0  0  0  0  0999 V2000
    0.0654    6.7352    4.1734 C   0  0  0  0  0  0  0  0  0  0  0  0
    0.4736    5.4313    4.4320 C   0  0  0  0  0  0  0  0  0  0  0  0
   -0.4463    4.4644    3.9943 C   0  0  0  0  0  0  0  0  0  0  0  0
   -0.2801    3.0646    4.0489 C   0  0  0  0  0  0  0  0  0  0  0  0
    1.0112    2.4800    4.4378 C   0  0  0  0  0  0  0  0  0  0  0  0
    1.2097    1.9985    5.7366 C   0  0  0  0  0  0  0  0  0  0  0  0
    2.4867    1.6099    6.1499 C   0  0  0  0  0  0  0  0  0  0  0  0
    3.5723    1.6917    5.2667 C   0  0  0  0  0  0  0  0  0  0  0  0
    5.2237    1.2480    5.8224 S   0  0  0  0  0  0  0  0  0  0  0  0
    5.6705    2.9518    6.3078 C   0  0  0  0  0  0  0  0  0  0  0  0
    7.1425    3.0208    6.6858 C   0  0  0  0  0  0  0  0  0  0  0  0
    3.3645    2.1367    3.9545 C   0  0  0  0  0  0  0  0  0  0  0  0
    4.4065    2.2413    3.0917 F   0  0  0  0  0  0  0  0  0  0  0  0
    2.0911    2.5331    3.5425 C   0  0  0  0  0  0  0  0  0  0  0  0
   -1.3302    2.2770    3.5468 C   0  0  0  0  0  0  0  0  0  0  0  0
   -2.4658    2.8411    2.9519 C   0  0  0  0  0  0  0  0  0  0  0  0
   -2.5913    4.2389    2.8262 C   0  0  0  0  0  0  0  0  0  0  0  0
   -3.5619    4.8446    1.8984 C   0  0  0  0  0  0  0  0  0  0  0  0
   -3.2108    4.9875    0.5473 C   0  0  0  0  0  0  0  0  0  0  0  0
   -4.0785    5.6181   -0.3450 C   0  0  0  0  0  0  0  0  0  0  0  0
   -5.3108    6.1102    0.1058 C   0  0  0  0  0  0  0  0  0  0  0  0
   -6.3896    6.9680   -1.0422 S   0  0  0  0  0  0  0  0  0  0  0  0
   -7.2461    5.4468   -1.5634 C   0  0  0  0  0  0  0  0  0  0  0  0
   -8.1413    5.7388   -2.7583 C   0  0  0  0  0  0  0  0  0  0  0  0
   -5.6726    5.9564    1.4518 C   0  0  0  0  0  0  0  0  0  0  0  0
   -4.8009    5.3245    2.3482 C   0  0  0  0  0  0  0  0  0  0  0  0
   -6.8649    6.4291    1.8967 F   0  0  0  0  0  0  0  0  0  0  0  0
   -1.5782    5.0211    3.3970 C   0  0  0  0  0  0  0  0  0  0  0  0
   -1.4284    6.6956    3.3901 S   0  0  0  0  0  0  0  0  0  0  0  0
   -3.3377    1.8901    2.4112 C   0  0  0  0  0  0  0  0  0  0  0  0
   -2.8811    0.5791    2.5533 C   0  0  0  0  0  0  0  0  0  0  0  0
   -1.3878    0.6045    3.3512 S   0  0  0  0  0  0  0  0  0  0  0  0
   -3.4300   -0.5664    1.8063 C   0  0  0  0  0  0  0  0  0  0  0  0
   -4.6750   -0.5586    1.1746 C   0  0  0  0  0  0  0  0  0  0  0  0
   -4.7588   -1.4668    0.1106 C   0  0  0  0  0  0  0  0  0  0  0  0
   -5.7772   -1.4891   -0.8623 C   0  0  0  0  0  0  0  0  0  0  0  0
   -7.0304   -0.7364   -0.6828 C   0  0  0  0  0  0  0  0  0  0  0  0
   -8.0928   -1.3316    0.0054 C   0  0  0  0  0  0  0  0  0  0  0  0
   -9.2756   -0.6195    0.2202 C   0  0  0  0  0  0  0  0  0  0  0  0
   -9.3974    0.6974   -0.2385 C   0  0  0  0  0  0  0  0  0  0  0  0
  -10.9182    1.6090    0.0552 S   0  0  0  0  0  0  0  0  0  0  0  0
  -10.3366    2.4182    1.5906 C   0  0  0  0  0  0  0  0  0  0  0  0
  -10.4219    1.4708    2.7810 C   0  0  0  0  0  0  0  0  0  0  0  0
   -8.3394    1.2881   -0.9464 C   0  0  0  0  0  0  0  0  0  0  0  0
   -8.4567    2.5540   -1.4178 F   0  0  0  0  0  0  0  0  0  0  0  0
   -7.1546    0.5746   -1.1629 C   0  0  0  0  0  0  0  0  0  0  0  0
   -5.4996   -2.1748   -2.0540 C   0  0  0  0  0  0  0  0  0  0  0  0
   -4.3230   -2.9057   -2.2410 C   0  0  0  0  0  0  0  0  0  0  0  0
   -3.3591   -2.9860   -1.2121 C   0  0  0  0  0  0  0  0  0  0  0  0
   -2.0729   -3.6892   -1.3883 C   0  0  0  0  0  0  0  0  0  0  0  0
   -1.0756   -3.1578   -2.2210 C   0  0  0  0  0  0  0  0  0  0  0  0
    0.1498   -3.8200   -2.3575 C   0  0  0  0  0  0  0  0  0  0  0  0
    0.3804   -5.0208   -1.6725 C   0  0  0  0  0  0  0  0  0  0  0  0
    1.9503   -5.8745   -1.8669 S   0  0  0  0  0  0  0  0  0  0  0  0
    1.5096   -6.6500   -3.4621 C   0  0  0  0  0  0  0  0  0  0  0  0
    0.6373   -7.8834   -3.2657 C   0  0  0  0  0  0  0  0  0  0  0  0
   -0.6075   -5.5415   -0.8250 C   0  0  0  0  0  0  0  0  0  0  0  0
   -1.8268   -4.8739   -0.6799 C   0  0  0  0  0  0  0  0  0  0  0  0
   -0.3906   -6.6905   -0.1378 F   0  0  0  0  0  0  0  0  0  0  0  0
   -3.5960   -2.2211   -0.0600 C   0  0  0  0  0  0  0  0  0  0  0  0
   -2.4664   -1.7576    1.0998 S   0  0  0  0  0  0  0  0  0  0  0  0
   -4.1338   -3.3075   -3.5712 C   0  0  0  0  0  0  0  0  0  0  0  0
   -5.1055   -2.8171   -4.4492 C   0  0  0  0  0  0  0  0  0  0  0  0
   -6.2586   -1.9781   -3.5433 S   0  0  0  0  0  0  0  0  0  0  0  0
   -4.7515   -2.4511   -5.8308 C   0  0  0  0  0  0  0  0  0  0  0  0
   -3.8192   -3.1797   -6.5719 C   0  0  0  0  0  0  0  0  0  0  0  0
   -2.9619   -2.3750   -7.3405 C   0  0  0  0  0  0  0  0  0  0  0  0
   -1.7622   -2.8136   -7.9273 C   0  0  0  0  0  0  0  0  0  0  0  0
   -1.4103   -4.2446   -7.9831 C   0  0  0  0  0  0  0  0  0  0  0  0
   -0.6866   -4.8397   -6.9397 C   0  0  0  0  0  0  0  0  0  0  0  0
   -0.3456   -6.1941   -7.0106 C   0  0  0  0  0  0  0  0  0  0  0  0
   -0.7186   -6.9596   -8.1223 C   0  0  0  0  0  0  0  0  0  0  0  0
   -0.2621   -8.6971   -8.2044 S   0  0  0  0  0  0  0  0  0  0  0  0
    1.4401   -8.4018   -8.8055 C   0  0  0  0  0  0  0  0  0  0  0  0
    1.4531   -8.0541  -10.2899 C   0  0  0  0  0  0  0  0  0  0  0  0
   -1.4643   -6.3694   -9.1554 C   0  0  0  0  0  0  0  0  0  0  0  0
   -1.8592   -7.1042  -10.2251 F   0  0  0  0  0  0  0  0  0  0  0  0
   -1.8081   -5.0148   -9.0826 C   0  0  0  0  0  0  0  0  0  0  0  0
   -0.8270   -1.8277   -8.2768 C   0  0  0  0  0  0  0  0  0  0  0  0
   -1.0810   -0.4621   -8.1226 C   0  0  0  0  0  0  0  0  0  0  0  0
   -2.3421   -0.0127   -7.6699 C   0  0  0  0  0  0  0  0  0  0  0  0
   -2.6158    1.4339   -7.4978 C   0  0  0  0  0  0  0  0  0  0  0  0
   -2.4838    2.2974   -8.5991 C   0  0  0  0  0  0  0  0  0  0  0  0
   -2.6243    3.6801   -8.4356 C   0  0  0  0  0  0  0  0  0  0  0  0
   -2.9283    4.2126   -7.1794 C   0  0  0  0  0  0  0  0  0  0  0  0
   -3.0711    5.9931   -6.9678 S   0  0  0  0  0  0  0  0  0  0  0  0
   -4.7751    6.1234   -7.6248 C   0  0  0  0  0  0  0  0  0  0  0  0
   -4.7443    6.7118   -9.0301 C   0  0  0  0  0  0  0  0  0  0  0  0
   -3.0767    3.3583   -6.0779 C   0  0  0  0  0  0  0  0  0  0  0  0
   -2.9058    1.9783   -6.2319 C   0  0  0  0  0  0  0  0  0  0  0  0
   -3.3387    3.8661   -4.8474 F   0  0  0  0  0  0  0  0  0  0  0  0
   -3.2500   -1.0094   -7.2537 C   0  0  0  0  0  0  0  0  0  0  0  0
   -4.5785   -0.8232   -6.2484 S   0  0  0  0  0  0  0  0  0  0  0  0
    0.0827    0.3259   -8.1889 C   0  0  0  0  0  0  0  0  0  0  0  0
    1.2551   -0.4221   -8.3326 C   0  0  0  0  0  0  0  0  0  0  0  0
    0.8206   -2.0491   -8.4899 S   0  0  0  0  0  0  0  0  0  0  0  0
    2.5631   -0.0087   -7.7799 C   0  0  0  0  0  0  0  0  0  0  0  0
    2.7800    1.1856   -7.0811 C   0  0  0  0  0  0  0  0  0  0  0  0
    3.8099    1.0943   -6.1269 C   0  0  0  0  0  0  0  0  0  0  0  0
    4.0650    2.0386   -5.1097 C   0  0  0  0  0  0  0  0  0  0  0  0
    3.3708    3.3397   -5.0813 C   0  0  0  0  0  0  0  0  0  0  0  0
    3.7649    4.3549   -5.9653 C   0  0  0  0  0  0  0  0  0  0  0  0
    3.1073    5.5890   -5.9527 C   0  0  0  0  0  0  0  0  0  0  0  0
    2.0483    5.8128   -5.0660 C   0  0  0  0  0  0  0  0  0  0  0  0
    1.2410    7.4134   -5.0383 S   0  0  0  0  0  0  0  0  0  0  0  0
    2.3718    8.0832   -3.7694 C   0  0  0  0  0  0  0  0  0  0  0  0
    2.0375    9.5403   -3.4936 C   0  0  0  0  0  0  0  0  0  0  0  0
    1.6311    4.7899   -4.2010 C   0  0  0  0  0  0  0  0  0  0  0  0
    0.5991    4.9912   -3.3446 F   0  0  0  0  0  0  0  0  0  0  0  0
    2.2938    3.5562   -4.2088 C   0  0  0  0  0  0  0  0  0  0  0  0
    4.8956    1.6253   -4.0518 C   0  0  0  0  0  0  0  0  0  0  0  0
    5.4939    0.3621   -4.0212 C   0  0  0  0  0  0  0  0  0  0  0  0
    5.2992   -0.5535   -5.0737 C   0  0  0  0  0  0  0  0  0  0  0  0
    5.7578   -1.9521   -4.9552 C   0  0  0  0  0  0  0  0  0  0  0  0
    7.1277   -2.2546   -4.9876 C   0  0  0  0  0  0  0  0  0  0  0  0
    7.5615   -3.5649   -4.7624 C   0  0  0  0  0  0  0  0  0  0  0  0
    6.6327   -4.5776   -4.5030 C   0  0  0  0  0  0  0  0  0  0  0  0
    7.1960   -6.2532   -4.1732 S   0  0  0  0  0  0  0  0  0  0  0  0
    7.5235   -5.9834   -2.3916 C   0  0  0  0  0  0  0  0  0  0  0  0
    6.2296   -5.8939   -1.5878 C   0  0  0  0  0  0  0  0  0  0  0  0
    5.2631   -4.2844   -4.4960 C   0  0  0  0  0  0  0  0  0  0  0  0
    4.8283   -2.9743   -4.7069 C   0  0  0  0  0  0  0  0  0  0  0  0
    4.3513   -5.2573   -4.2519 F   0  0  0  0  0  0  0  0  0  0  0  0
    4.4339   -0.1555   -6.1057 C   0  0  0  0  0  0  0  0  0  0  0  0
    3.7143   -1.1311   -7.2654 S   0  0  0  0  0  0  0  0  0  0  0  0
    6.0880    0.0617   -2.7871 C   0  0  0  0  0  0  0  0  0  0  0  0
    5.9207    1.0691   -1.8350 C   0  0  0  0  0  0  0  0  0  0  0  0
    5.0955    2.3580   -2.5474 S   0  0  0  0  0  0  0  0  0  0  0  0
    6.0266    0.8862   -0.3759 C   0  0  0  0  0  0  0  0  0  0  0  0
    5.8314   -0.3208    0.1697 C   0  0  0  0  0  0  0  0  0  0  0  0
    5.5673   -0.4943    1.6039 C   0  0  0  0  0  0  0  0  0  0  0  0
    4.8644   -1.5532    2.0097 C   0  0  0  0  0  0  0  0  0  0  0  0
    4.4207   -1.7086    3.4008 C   0  0  0  0  0  0  0  0  0  0  0  0
    3.4108   -2.5340    3.6832 C   0  0  0  0  0  0  0  0  0  0  0  0
    2.8574   -2.7066    5.0322 C   0  0  0  0  0  0  0  0  0  0  0  0
    3.4824   -2.4302    6.2502 C   0  0  0  0  0  0  0  0  0  0  0  0
    2.7014   -2.8000    7.3605 C   0  0  0  0  0  0  0  0  0  0  0  0
    3.0780   -2.7180    8.7174 C   0  0  0  0  0  0  0  0  0  0  0  0
    4.3697   -2.1303    9.1359 C   0  0  0  0  0  0  0  0  0  0  0  0
    4.6530   -0.7862    8.8530 C   0  0  0  0  0  0  0  0  0  0  0  0
    5.8729   -0.2256    9.2351 C   0  0  0  0  0  0  0  0  0  0  0  0
    6.8193   -0.9982    9.9176 C   0  0  0  0  0  0  0  0  0  0  0  0
    8.4009   -0.2754   10.3748 S   0  0  0  0  0  0  0  0  0  0  0  0
    7.7896    0.5248   11.9002 C   0  0  0  0  0  0  0  0  0  0  0  0
    7.6453   -0.4820   13.0351 C   0  0  0  0  0  0  0  0  0  0  0  0
    6.5411   -2.3424   10.2079 C   0  0  0  0  0  0  0  0  0  0  0  0
    7.4595   -3.1119   10.8467 F   0  0  0  0  0  0  0  0  0  0  0  0
    5.3183   -2.9034    9.8216 C   0  0  0  0  0  0  0  0  0  0  0  0
    2.1557   -3.2100    9.6613 C   0  0  0  0  0  0  0  0  0  0  0  0
    0.9160   -3.7470    9.3016 C   0  0  0  0  0  0  0  0  0  0  0  0
    0.5379   -3.8234    7.9444 C   0  0  0  0  0  0  0  0  0  0  0  0
   -0.7595   -4.3878    7.5111 C   0  0  0  0  0  0  0  0  0  0  0  0
   -1.0819   -5.7260    7.7835 C   0  0  0  0  0  0  0  0  0  0  0  0
   -2.2874   -6.2664    7.3249 C   0  0  0  0  0  0  0  0  0  0  0  0
   -3.1780   -5.4792    6.5874 C   0  0  0  0  0  0  0  0  0  0  0  0
   -4.6989   -6.2012    5.9565 S   0  0  0  0  0  0  0  0  0  0  0  0
   -5.7324   -5.6636    7.3632 C   0  0  0  0  0  0  0  0  0  0  0  0
   -5.5660   -6.5973    8.5547 C   0  0  0  0  0  0  0  0  0  0  0  0
   -2.8593   -4.1424    6.3092 C   0  0  0  0  0  0  0  0  0  0  0  0
   -1.6580   -3.5985    6.7726 C   0  0  0  0  0  0  0  0  0  0  0  0
   -3.7103   -3.3679    5.5869 F   0  0  0  0  0  0  0  0  0  0  0  0
    1.4648   -3.3487    7.0011 C   0  0  0  0  0  0  0  0  0  0  0  0
    1.3514   -3.4030    5.3258 S   0  0  0  0  0  0  0  0  0  0  0  0
    0.1417   -4.1386   10.4068 C   0  0  0  0  0  0  0  0  0  0  0  0
    0.7770   -3.9181   11.6267 C   0  0  0  0  0  0  0  0  0  0  0  0
    2.2890   -3.2277   11.3393 S   0  0  0  0  0  0  0  0  0  0  0  0
    0.6233    7.6278    4.4209 H   0  0  0  0  0  0  0  0  0  0  0  0
    1.4150    5.1972    4.9123 H   0  0  0  0  0  0  0  0  0  0  0  0
    0.3843    1.9657    6.4415 H   0  0  0  0  0  0  0  0  0  0  0  0
    2.6316    1.2820    7.1694 H   0  0  0  0  0  0  0  0  0  0  0  0
    5.0445    3.2607    7.1711 H   0  0  0  0  0  0  0  0  0  0  0  0
    5.4873    3.6539    5.4651 H   0  0  0  0  0  0  0  0  0  0  0  0
    7.3657    2.3056    7.5044 H   0  0  0  0  0  0  0  0  0  0  0  0
    7.7740    2.7715    5.8066 H   0  0  0  0  0  0  0  0  0  0  0  0
    7.3966    4.0461    7.0307 H   0  0  0  0  0  0  0  0  0  0  0  0
    1.9499    2.9212    2.5399 H   0  0  0  0  0  0  0  0  0  0  0  0
   -2.2517    4.6260    0.1916 H   0  0  0  0  0  0  0  0  0  0  0  0
   -3.7897    5.7306   -1.3824 H   0  0  0  0  0  0  0  0  0  0  0  0
   -7.8589    5.0622   -0.7183 H   0  0  0  0  0  0  0  0  0  0  0  0
   -6.4983    4.6762   -1.8538 H   0  0  0  0  0  0  0  0  0  0  0  0
   -8.9409    6.4534   -2.4705 H   0  0  0  0  0  0  0  0  0  0  0  0
   -8.6036    4.7968   -3.1176 H   0  0  0  0  0  0  0  0  0  0  0  0
   -7.5398    6.1770   -3.5812 H   0  0  0  0  0  0  0  0  0  0  0  0
   -5.0763    5.2223    3.3905 H   0  0  0  0  0  0  0  0  0  0  0  0
   -4.2260    2.1549    1.8550 H   0  0  0  0  0  0  0  0  0  0  0  0
   -5.4383    0.1804    1.3806 H   0  0  0  0  0  0  0  0  0  0  0  0
   -8.0048   -2.3445    0.3796 H   0  0  0  0  0  0  0  0  0  0  0  0
  -10.0929   -1.0910    0.7546 H   0  0  0  0  0  0  0  0  0  0  0  0
  -10.9864    3.2982    1.7840 H   0  0  0  0  0  0  0  0  0  0  0  0
   -9.2933    2.7848    1.4708 H   0  0  0  0  0  0  0  0  0  0  0  0
   -9.6763    0.6559    2.6788 H   0  0  0  0  0  0  0  0  0  0  0  0
  -11.4412    1.0348    2.8561 H   0  0  0  0  0  0  0  0  0  0  0  0
  -10.2072    2.0293    3.7138 H   0  0  0  0  0  0  0  0  0  0  0  0
   -6.3348    1.0457   -1.6947 H   0  0  0  0  0  0  0  0  0  0  0  0
   -1.2439   -2.2312   -2.7608 H   0  0  0  0  0  0  0  0  0  0  0  0
    0.9113   -3.4123   -3.0114 H   0  0  0  0  0  0  0  0  0  0  0  0
    0.9930   -5.9144   -4.1136 H   0  0  0  0  0  0  0  0  0  0  0  0
    2.4462   -6.9555   -3.9708 H   0  0  0  0  0  0  0  0  0  0  0  0
    0.4288   -8.3517   -4.2507 H   0  0  0  0  0  0  0  0  0  0  0  0
    1.1634   -8.6220   -2.6241 H   0  0  0  0  0  0  0  0  0  0  0  0
   -0.3281   -7.6088   -2.7967 H   0  0  0  0  0  0  0  0  0  0  0  0
   -2.5799   -5.2794   -0.0182 H   0  0  0  0  0  0  0  0  0  0  0  0
   -3.2121   -3.7581   -3.9174 H   0  0  0  0  0  0  0  0  0  0  0  0
   -3.6352   -4.2324   -6.3902 H   0  0  0  0  0  0  0  0  0  0  0  0
   -0.3892   -4.2577   -6.0744 H   0  0  0  0  0  0  0  0  0  0  0  0
    0.2197   -6.6501   -6.2102 H   0  0  0  0  0  0  0  0  0  0  0  0
    1.9230   -7.5885   -8.2195 H   0  0  0  0  0  0  0  0  0  0  0  0
    2.0268   -9.3308   -8.6487 H   0  0  0  0  0  0  0  0  0  0  0  0
    2.5049   -7.9953  -10.6466 H   0  0  0  0  0  0  0  0  0  0  0  0
    0.9639   -7.0748  -10.4648 H   0  0  0  0  0  0  0  0  0  0  0  0
    0.9248   -8.8407  -10.8735 H   0  0  0  0  0  0  0  0  0  0  0  0
   -2.3802   -4.5668   -9.8861 H   0  0  0  0  0  0  0  0  0  0  0  0
   -2.2473    1.9001   -9.5797 H   0  0  0  0  0  0  0  0  0  0  0  0
   -2.4905    4.3319   -9.2893 H   0  0  0  0  0  0  0  0  0  0  0  0
   -5.2915    5.1392   -7.6405 H   0  0  0  0  0  0  0  0  0  0  0  0
   -5.3546    6.8014   -6.9630 H   0  0  0  0  0  0  0  0  0  0  0  0
   -4.2017    6.0347   -9.7213 H   0  0  0  0  0  0  0  0  0  0  0  0
   -5.7821    6.8446   -9.4056 H   0  0  0  0  0  0  0  0  0  0  0  0
   -4.2417    7.7025   -9.0198 H   0  0  0  0  0  0  0  0  0  0  0  0
   -2.9658    1.3397   -5.3589 H   0  0  0  0  0  0  0  0  0  0  0  0
    0.0845    1.3792   -7.9452 H   0  0  0  0  0  0  0  0  0  0  0  0
    2.1175    2.0382   -7.1408 H   0  0  0  0  0  0  0  0  0  0  0  0
    4.5838    4.1921   -6.6546 H   0  0  0  0  0  0  0  0  0  0  0  0
    3.4304    6.3720   -6.6270 H   0  0  0  0  0  0  0  0  0  0  0  0
    3.4231    8.0082   -4.1226 H   0  0  0  0  0  0  0  0  0  0  0  0
    2.2623    7.4970   -2.8305 H   0  0  0  0  0  0  0  0  0  0  0  0
    0.9829    9.6336   -3.1603 H   0  0  0  0  0  0  0  0  0  0  0  0
    2.1824   10.1435   -4.4156 H   0  0  0  0  0  0  0  0  0  0  0  0
    2.7076    9.9357   -2.6981 H   0  0  0  0  0  0  0  0  0  0  0  0
    1.9660    2.7711   -3.5376 H   0  0  0  0  0  0  0  0  0  0  0  0
    7.8563   -1.4739   -5.1643 H   0  0  0  0  0  0  0  0  0  0  0  0
    8.6220   -3.7844   -4.7667 H   0  0  0  0  0  0  0  0  0  0  0  0
    8.1257   -5.0598   -2.2481 H   0  0  0  0  0  0  0  0  0  0  0  0
    8.1185   -6.8444   -2.0176 H   0  0  0  0  0  0  0  0  0  0  0  0
    6.4657   -5.8865   -0.5033 H   0  0  0  0  0  0  0  0  0  0  0  0
    5.5815   -6.7704   -1.8039 H   0  0  0  0  0  0  0  0  0  0  0  0
    5.6794   -4.9624   -1.8326 H   0  0  0  0  0  0  0  0  0  0  0  0
    3.7698   -2.7504   -4.6518 H   0  0  0  0  0  0  0  0  0  0  0  0
    6.5259   -0.9012   -2.5607 H   0  0  0  0  0  0  0  0  0  0  0  0
    6.0421    1.7654    0.2564 H   0  0  0  0  0  0  0  0  0  0  0  0
    5.6925   -1.1856   -0.4690 H   0  0  0  0  0  0  0  0  0  0  0  0
    5.8561    0.2779    2.3059 H   0  0  0  0  0  0  0  0  0  0  0  0
    4.5260   -2.2779    1.2756 H   0  0  0  0  0  0  0  0  0  0  0  0
    4.8719   -1.1093    4.1753 H   0  0  0  0  0  0  0  0  0  0  0  0
    2.9245   -3.0730    2.8790 H   0  0  0  0  0  0  0  0  0  0  0  0
    4.4802   -2.0188    6.3277 H   0  0  0  0  0  0  0  0  0  0  0  0
    3.9233   -0.1763    8.3415 H   0  0  0  0  0  0  0  0  0  0  0  0
    6.0757    0.8128    9.0072 H   0  0  0  0  0  0  0  0  0  0  0  0
    6.8179    1.0318   11.7134 H   0  0  0  0  0  0  0  0  0  0  0  0
    8.5245    1.3000   12.2001 H   0  0  0  0  0  0  0  0  0  0  0  0
    6.8244   -1.1977   12.8167 H   0  0  0  0  0  0  0  0  0  0  0  0
    7.4079    0.0513   13.9813 H   0  0  0  0  0  0  0  0  0  0  0  0
    8.5967   -1.0423   13.1748 H   0  0  0  0  0  0  0  0  0  0  0  0
    5.1190   -3.9469   10.0391 H   0  0  0  0  0  0  0  0  0  0  0  0
   -0.3911   -6.3570    8.3309 H   0  0  0  0  0  0  0  0  0  0  0  0
   -2.5229   -7.3015    7.5358 H   0  0  0  0  0  0  0  0  0  0  0  0
   -6.7899   -5.6792    7.0347 H   0  0  0  0  0  0  0  0  0  0  0  0
   -5.4826   -4.6228    7.6555 H   0  0  0  0  0  0  0  0  0  0  0  0
   -6.3064   -6.3357    9.3391 H   0  0  0  0  0  0  0  0  0  0  0  0
   -5.7365   -7.6511    8.2467 H   0  0  0  0  0  0  0  0  0  0  0  0
   -4.5482   -6.4998    8.9841 H   0  0  0  0  0  0  0  0  0  0  0  0
   -1.4198   -2.5645    6.5493 H   0  0  0  0  0  0  0  0  0  0  0  0
   -0.8522   -4.5582   10.3346 H   0  0  0  0  0  0  0  0  0  0  0  0
    0.3640   -4.1454   12.5987 H   0  0  0  0  0  0  0  0  0  0  0  0
  1  2  2  0
  2  3  1  0
  3  4  2  0
  4  5  1  0
  5  6  2  0
  6  7  1  0
  7  8  2  0
  8  9  1  0
  9 10  1  0
 10 11  1  0
  8 12  1  0
 12 13  1  0
 12 14  2  0
  4 15  1  0
 15 16  2  0
 16 17  1  0
 17 18  1  0
 18 19  2  0
 19 20  1  0
 20 21  2  0
 21 22  1  0
 22 23  1  0
 23 24  1  0
 21 25  1  0
 25 26  2  0
 25 27  1  0
 17 28  2  0
 28 29  1  0
 16 30  1  0
 30 31  2  0
 31 32  1  0
 31 33  1  0
 33 34  2  0
 34 35  1  0
 35 36  2  0
 36 37  1  0
 37 38  2  0
 38 39  1  0
 39 40  2  0
 40 41  1  0
 41 42  1  0
 42 43  1  0
 40 44  1  0
 44 45  1  0
 44 46  2  0
 36 47  1  0
 47 48  2  0
 48 49  1  0
 49 50  1  0
 50 51  2  0
 51 52  1  0
 52 53  2  0
 53 54  1  0
 54 55  1  0
 55 56  1  0
 53 57  1  0
 57 58  2  0
 57 59  1  0
 49 60  2  0
 60 61  1  0
 48 62  1  0
 62 63  2  0
 63 64  1  0
 63 65  1  0
 65 66  2  0
 66 67  1  0
 67 68  2  0
 68 69  1  0
 69 70  2  0
 70 71  1  0
 71 72  2  0
 72 73  1  0
 73 74  1  0
 74 75  1  0
 72 76  1  0
 76 77  1  0
 76 78  2  0
 68 79  1  0
 79 80  2  0
 80 81  1  0
 81 82  1  0
 82 83  2  0
 83 84  1  0
 84 85  2  0
 85 86  1  0
 86 87  1  0
 87 88  1  0
 85 89  1  0
 89 90  2  0
 89 91  1  0
 81 92  2  0
 92 93  1  0
 80 94  1  0
 94 95  2  0
 95 96  1  0
 95 97  1  0
 97 98  2  0
 98 99  1  0
 99100  2  0
100101  1  0
101102  2  0
102103  1  0
103104  2  0
104105  1  0
105106  1  0
106107  1  0
104108  1  0
108109  1  0
108110  2  0
100111  1  0
111112  2  0
112113  1  0
113114  1  0
114115  2  0
115116  1  0
116117  2  0
117118  1  0
118119  1  0
119120  1  0
117121  1  0
121122  2  0
121123  1  0
113124  2  0
124125  1  0
112126  1  0
126127  2  0
127128  1  0
127129  1  0
129130  2  3
130131  1  0
131132  2  3
132133  1  0
133134  2  3
134135  1  0
135136  2  0
136137  1  0
137138  2  0
138139  1  0
139140  2  0
140141  1  0
141142  2  0
142143  1  0
143144  1  0
144145  1  0
142146  1  0
146147  1  0
146148  2  0
138149  1  0
149150  2  0
150151  1  0
151152  1  0
152153  2  0
153154  1  0
154155  2  0
155156  1  0
156157  1  0
157158  1  0
155159  1  0
159160  2  0
159161  1  0
151162  2  0
162163  1  0
150164  1  0
164165  2  0
165166  1  0
 29  1  1  0
 61 33  1  0
 93 65  1  0
125 97  1  0
163135  1  0
 28  3  1  0
 60 35  1  0
 92 67  1  0
124 99  1  0
162137  1  0
 14  5  1  0
 32 15  1  0
 46 37  1  0
 64 47  1  0
 78 69  1  0
 96 79  1  0
110101  1  0
128111  1  0
148139  1  0
166149  1  0
 26 18  1  0
 58 50  1  0
 90 82  1  0
122114  1  0
160152  1  0
  1167  1  0
  2168  1  0
  6169  1  0
  7170  1  0
 10171  1  0
 10172  1  0
 11173  1  0
 11174  1  0
 11175  1  0
 14176  1  0
 19177  1  0
 20178  1  0
 23179  1  0
 23180  1  0
 24181  1  0
 24182  1  0
 24183  1  0
 26184  1  0
 30185  1  0
 34186  1  0
 38187  1  0
 39188  1  0
 42189  1  0
 42190  1  0
 43191  1  0
 43192  1  0
 43193  1  0
 46194  1  0
 51195  1  0
 52196  1  0
 55197  1  0
 55198  1  0
 56199  1  0
 56200  1  0
 56201  1  0
 58202  1  0
 62203  1  0
 66204  1  0
 70205  1  0
 71206  1  0
 74207  1  0
 74208  1  0
 75209  1  0
 75210  1  0
 75211  1  0
 78212  1  0
 83213  1  0
 84214  1  0
 87215  1  0
 87216  1  0
 88217  1  0
 88218  1  0
 88219  1  0
 90220  1  0
 94221  1  0
 98222  1  0
102223  1  0
103224  1  0
106225  1  0
106226  1  0
107227  1  0
107228  1  0
107229  1  0
110230  1  0
115231  1  0
116232  1  0
119233  1  0
119234  1  0
120235  1  0
120236  1  0
120237  1  0
122238  1  0
126239  1  0
129240  1  0
130241  1  0
131242  1  0
132243  1  0
133244  1  0
134245  1  0
136246  1  0
140247  1  0
141248  1  0
144249  1  0
144250  1  0
145251  1  0
145252  1  0
145253  1  0
148254  1  0
153255  1  0
154256  1  0
157257  1  0
157258  1  0
158259  1  0
158260  1  0
158261  1  0
160262  1  0
164263  1  0
165264  1  0
M  END

