
     RDKit          3D

236257  0  0  0  0  0  0  0  0999 V2000
    3.9931   -3.1048   10.0980 C   0  0  0  0  0  0  0  0  0  0  0  0
    3.8627   -3.0301   11.4796 C   0  0  0  0  0  0  0  0  0  0  0  0
    4.6254   -3.8386   12.4840 C   0  0  0  0  0  0  0  0  0  0  0  0
    4.3956   -5.3358   12.2920 C   0  0  0  0  0  0  0  0  0  0  0  0
    2.8341   -1.7520   11.8575 S   0  0  0  0  0  0  0  0  0  0  0  0
    2.4907   -1.3268   10.2677 C   0  0  0  0  0  0  0  0  0  0  0  0
    3.2221   -2.1556    9.4183 C   0  0  0  0  0  0  0  0  0  0  0  0
    1.6890   -0.1512    9.8812 C   0  0  0  0  0  0  0  0  0  0  0  0
    0.9345   -0.0665    8.7767 C   0  0  0  0  0  0  0  0  0  0  0  0
    0.6116   -1.2043    7.8904 C   0  0  0  0  0  0  0  0  0  0  0  0
    0.5863   -1.1092    6.4986 C   0  0  0  0  0  0  0  0  0  0  0  0
    0.9629    0.0784    5.6655 C   0  0  0  0  0  0  0  0  0  0  0  0
   -0.2667    0.8931    5.2863 C   0  0  0  0  0  0  0  0  0  0  0  0
    0.1006   -2.5916    5.8801 S   0  0  0  0  0  0  0  0  0  0  0  0
   -0.0877   -3.3805    7.3535 C   0  0  0  0  0  0  0  0  0  0  0  0
    0.2335   -2.4744    8.3607 C   0  0  0  0  0  0  0  0  0  0  0  0
   -0.3795   -4.8098    7.6095 C   0  0  0  0  0  0  0  0  0  0  0  0
   -1.0350   -5.6722    6.8188 C   0  0  0  0  0  0  0  0  0  0  0  0
   -1.6636   -5.3692    5.5249 C   0  0  0  0  0  0  0  0  0  0  0  0
   -3.0206   -5.5421    5.2579 C   0  0  0  0  0  0  0  0  0  0  0  0
   -3.3463   -5.3375    3.9043 C   0  0  0  0  0  0  0  0  0  0  0  0
   -4.6405   -5.3759    3.3304 C   0  0  0  0  0  0  0  0  0  0  0  0
   -5.8294   -5.7951    4.1094 C   0  0  0  0  0  0  0  0  0  0  0  0
   -6.9525   -4.9601    4.2150 C   0  0  0  0  0  0  0  0  0  0  0  0
   -8.0906   -5.3927    4.9028 C   0  0  0  0  0  0  0  0  0  0  0  0
   -8.1138   -6.6598    5.4988 C   0  0  0  0  0  0  0  0  0  0  0  0
   -9.5964   -7.2261    6.3410 S   0  0  0  0  0  0  0  0  0  0  0  0
  -10.2222   -8.2018    4.9257 C   0  0  0  0  0  0  0  0  0  0  0  0
  -10.9088   -7.3113    3.8990 C   0  0  0  0  0  0  0  0  0  0  0  0
   -6.9775   -7.4788    5.4341 C   0  0  0  0  0  0  0  0  0  0  0  0
   -6.9762   -8.6971    6.0308 F   0  0  0  0  0  0  0  0  0  0  0  0
   -5.8467   -7.0527    4.7339 C   0  0  0  0  0  0  0  0  0  0  0  0
   -4.7378   -5.0232    1.9674 C   0  0  0  0  0  0  0  0  0  0  0  0
   -3.6167   -4.6924    1.1994 C   0  0  0  0  0  0  0  0  0  0  0  0
   -2.3305   -4.6707    1.7683 C   0  0  0  0  0  0  0  0  0  0  0  0
   -1.1772   -4.1214    1.0272 C   0  0  0  0  0  0  0  0  0  0  0  0
   -0.6256   -4.8203   -0.0571 C   0  0  0  0  0  0  0  0  0  0  0  0
    0.3735   -4.2295   -0.8351 C   0  0  0  0  0  0  0  0  0  0  0  0
    0.8204   -2.9362   -0.5443 C   0  0  0  0  0  0  0  0  0  0  0  0
    2.0346   -2.1507   -1.6119 S   0  0  0  0  0  0  0  0  0  0  0  0
    3.4908   -2.6524   -0.6290 C   0  0  0  0  0  0  0  0  0  0  0  0
    4.4333   -3.4849   -1.4857 C   0  0  0  0  0  0  0  0  0  0  0  0
    0.2857   -2.2421    0.5495 C   0  0  0  0  0  0  0  0  0  0  0  0
   -0.6995   -2.8405    1.3403 C   0  0  0  0  0  0  0  0  0  0  0  0
    0.7039   -0.9823    0.8359 F   0  0  0  0  0  0  0  0  0  0  0  0
   -2.2325   -5.0120    3.1240 C   0  0  0  0  0  0  0  0  0  0  0  0
   -0.8506   -5.0520    4.0794 S   0  0  0  0  0  0  0  0  0  0  0  0
   -3.9355   -4.2962   -0.1029 C   0  0  0  0  0  0  0  0  0  0  0  0
   -5.3029   -4.2949   -0.3647 C   0  0  0  0  0  0  0  0  0  0  0  0
   -6.1239   -4.7868    1.0274 S   0  0  0  0  0  0  0  0  0  0  0  0
   -5.8760   -3.5598   -1.4980 C   0  0  0  0  0  0  0  0  0  0  0  0
   -6.5715   -2.3634   -1.3152 C   0  0  0  0  0  0  0  0  0  0  0  0
   -6.3495   -1.4263   -2.3426 C   0  0  0  0  0  0  0  0  0  0  0  0
   -6.6674   -0.0504   -2.2939 C   0  0  0  0  0  0  0  0  0  0  0  0
   -7.4778    0.5421   -1.2102 C   0  0  0  0  0  0  0  0  0  0  0  0
   -7.0139    0.5528    0.1144 C   0  0  0  0  0  0  0  0  0  0  0  0
   -7.7746    1.1555    1.1200 C   0  0  0  0  0  0  0  0  0  0  0  0
   -8.9999    1.7580    0.8091 C   0  0  0  0  0  0  0  0  0  0  0  0
   -9.9683    2.5404    2.1061 S   0  0  0  0  0  0  0  0  0  0  0  0
  -11.0635    1.1040    2.3897 C   0  0  0  0  0  0  0  0  0  0  0  0
  -10.4091    0.0974    3.3251 C   0  0  0  0  0  0  0  0  0  0  0  0
   -9.4519    1.7740   -0.5177 C   0  0  0  0  0  0  0  0  0  0  0  0
  -10.6262    2.3733   -0.8375 F   0  0  0  0  0  0  0  0  0  0  0  0
   -8.6930    1.1686   -1.5212 C   0  0  0  0  0  0  0  0  0  0  0  0
   -6.0438    0.7783   -3.2432 C   0  0  0  0  0  0  0  0  0  0  0  0
   -5.2146    0.2774   -4.2519 C   0  0  0  0  0  0  0  0  0  0  0  0
   -4.9793   -1.1072   -4.3651 C   0  0  0  0  0  0  0  0  0  0  0  0
   -3.9683   -1.6294   -5.3068 C   0  0  0  0  0  0  0  0  0  0  0  0
   -2.7076   -2.0250   -4.8353 C   0  0  0  0  0  0  0  0  0  0  0  0
   -1.7311   -2.4662   -5.7292 C   0  0  0  0  0  0  0  0  0  0  0  0
   -2.0052   -2.5205   -7.1011 C   0  0  0  0  0  0  0  0  0  0  0  0
   -0.7348   -3.0829   -8.2411 S   0  0  0  0  0  0  0  0  0  0  0  0
   -1.0652   -4.8649   -8.0073 C   0  0  0  0  0  0  0  0  0  0  0  0
   -2.2715   -5.3153   -8.8193 C   0  0  0  0  0  0  0  0  0  0  0  0
   -3.2591   -2.1098   -7.5772 C   0  0  0  0  0  0  0  0  0  0  0  0
   -4.2368   -1.6644   -6.6815 C   0  0  0  0  0  0  0  0  0  0  0  0
   -3.5276   -2.1277   -8.9070 F   0  0  0  0  0  0  0  0  0  0  0  0
   -5.5407   -1.9261   -3.3720 C   0  0  0  0  0  0  0  0  0  0  0  0
   -5.0822   -3.4913   -2.9849 S   0  0  0  0  0  0  0  0  0  0  0  0
   -4.4520    1.2709   -4.8850 C   0  0  0  0  0  0  0  0  0  0  0  0
   -4.6024    2.5353   -4.3183 C   0  0  0  0  0  0  0  0  0  0  0  0
   -5.7674    2.4319   -3.0999 S   0  0  0  0  0  0  0  0  0  0  0  0
   -3.4733    3.4737   -4.2669 C   0  0  0  0  0  0  0  0  0  0  0  0
   -2.7788    3.7105   -3.0772 C   0  0  0  0  0  0  0  0  0  0  0  0
   -1.4215    4.0091   -3.2724 C   0  0  0  0  0  0  0  0  0  0  0  0
   -0.4336    4.0448   -2.2639 C   0  0  0  0  0  0  0  0  0  0  0  0
   -0.7873    3.9484   -0.8301 C   0  0  0  0  0  0  0  0  0  0  0  0
   -0.3640    2.8533   -0.0611 C   0  0  0  0  0  0  0  0  0  0  0  0
   -0.7208    2.7595    1.2877 C   0  0  0  0  0  0  0  0  0  0  0  0
   -1.5000    3.7622    1.8790 C   0  0  0  0  0  0  0  0  0  0  0  0
   -1.9520    3.6345    3.6087 S   0  0  0  0  0  0  0  0  0  0  0  0
   -3.4939    2.7243    3.2710 C   0  0  0  0  0  0  0  0  0  0  0  0
   -4.1593    2.3245    4.5776 C   0  0  0  0  0  0  0  0  0  0  0  0
   -1.9182    4.8606    1.1172 C   0  0  0  0  0  0  0  0  0  0  0  0
   -2.6621    5.8459    1.6815 F   0  0  0  0  0  0  0  0  0  0  0  0
   -1.5634    4.9541   -0.2316 C   0  0  0  0  0  0  0  0  0  0  0  0
    0.9064    4.0701   -2.6915 C   0  0  0  0  0  0  0  0  0  0  0  0
    1.2669    4.0924   -4.0445 C   0  0  0  0  0  0  0  0  0  0  0  0
    0.2753    4.1478   -5.0438 C   0  0  0  0  0  0  0  0  0  0  0  0
    0.5974    4.2754   -6.4768 C   0  0  0  0  0  0  0  0  0  0  0  0
    0.3119    5.4750   -7.1426 C   0  0  0  0  0  0  0  0  0  0  0  0
    0.5487    5.5950   -8.5140 C   0  0  0  0  0  0  0  0  0  0  0  0
    1.0400    4.5029   -9.2371 C   0  0  0  0  0  0  0  0  0  0  0  0
    1.2763    4.6416  -11.0125 S   0  0  0  0  0  0  0  0  0  0  0  0
    3.0283    5.1541  -10.9255 C   0  0  0  0  0  0  0  0  0  0  0  0
    3.1749    6.5958  -11.3860 C   0  0  0  0  0  0  0  0  0  0  0  0
    1.3179    3.2983   -8.5775 C   0  0  0  0  0  0  0  0  0  0  0  0
    1.1070    3.1849   -7.1984 C   0  0  0  0  0  0  0  0  0  0  0  0
    1.7626    2.2274   -9.2791 F   0  0  0  0  0  0  0  0  0  0  0  0
   -1.0607    4.0704   -4.6195 C   0  0  0  0  0  0  0  0  0  0  0  0
   -2.4079    3.7077   -5.5587 S   0  0  0  0  0  0  0  0  0  0  0  0
    2.6525    3.9855   -4.2493 C   0  0  0  0  0  0  0  0  0  0  0  0
    3.3686    3.8870   -3.0548 C   0  0  0  0  0  0  0  0  0  0  0  0
    2.2990    3.9584   -1.7527 S   0  0  0  0  0  0  0  0  0  0  0  0
    4.7916    3.5455   -2.9313 C   0  0  0  0  0  0  0  0  0  0  0  0
    5.5060    2.7530   -3.8286 C   0  0  0  0  0  0  0  0  0  0  0  0
    6.7975    2.4408   -3.3760 C   0  0  0  0  0  0  0  0  0  0  0  0
    7.7301    1.6010   -4.0207 C   0  0  0  0  0  0  0  0  0  0  0  0
    7.3997    0.8841   -5.2676 C   0  0  0  0  0  0  0  0  0  0  0  0
    7.1391    1.5913   -6.4514 C   0  0  0  0  0  0  0  0  0  0  0  0
    6.7439    0.9065   -7.6038 C   0  0  0  0  0  0  0  0  0  0  0  0
    6.5982   -0.4856   -7.5793 C   0  0  0  0  0  0  0  0  0  0  0  0
    5.9982   -1.3479   -9.0361 S   0  0  0  0  0  0  0  0  0  0  0  0
    4.2586   -1.4109   -8.4769 C   0  0  0  0  0  0  0  0  0  0  0  0
    3.5553   -0.0814   -8.7101 C   0  0  0  0  0  0  0  0  0  0  0  0
    6.8963   -1.1986   -6.4087 C   0  0  0  0  0  0  0  0  0  0  0  0
    6.7730   -2.5483   -6.3760 F   0  0  0  0  0  0  0  0  0  0  0  0
    7.2950   -0.5144   -5.2589 C   0  0  0  0  0  0  0  0  0  0  0  0
    8.9547    1.3884   -3.3607 C   0  0  0  0  0  0  0  0  0  0  0  0
    9.2540    1.9618   -2.1207 C   0  0  0  0  0  0  0  0  0  0  0  0
    8.3115    2.7798   -1.4656 C   0  0  0  0  0  0  0  0  0  0  0  0
    8.5781    3.3539   -0.1346 C   0  0  0  0  0  0  0  0  0  0  0  0
    9.5487    4.3534    0.0187 C   0  0  0  0  0  0  0  0  0  0  0  0
    9.8154    4.8831    1.2834 C   0  0  0  0  0  0  0  0  0  0  0  0
    9.1292    4.4044    2.4063 C   0  0  0  0  0  0  0  0  0  0  0  0
    9.4949    5.0808    4.0322 S   0  0  0  0  0  0  0  0  0  0  0  0
   10.9612    4.0302    4.3298 C   0  0  0  0  0  0  0  0  0  0  0  0
   10.5624    2.6155    4.7312 C   0  0  0  0  0  0  0  0  0  0  0  0
    8.1486    3.4122    2.2536 C   0  0  0  0  0  0  0  0  0  0  0  0
    7.8735    2.8915    0.9854 C   0  0  0  0  0  0  0  0  0  0  0  0
    7.4637    2.9518    3.3295 F   0  0  0  0  0  0  0  0  0  0  0  0
    7.0885    2.9954   -2.1244 C   0  0  0  0  0  0  0  0  0  0  0  0
    5.7493    3.8554   -1.5746 S   0  0  0  0  0  0  0  0  0  0  0  0
   10.5193    1.5904   -1.6353 C   0  0  0  0  0  0  0  0  0  0  0  0
   11.2096    0.7399   -2.4963 C   0  0  0  0  0  0  0  0  0  0  0  0
   10.2564    0.4430   -3.8534 S   0  0  0  0  0  0  0  0  0  0  0  0
    4.6467   -3.8056    9.5953 H   0  0  0  0  0  0  0  0  0  0  0  0
    4.3060   -3.5566   13.5095 H   0  0  0  0  0  0  0  0  0  0  0  0
    5.7100   -3.6137   12.3873 H   0  0  0  0  0  0  0  0  0  0  0  0
    3.3123   -5.5724   12.3747 H   0  0  0  0  0  0  0  0  0  0  0  0
    4.7676   -5.6634   11.2987 H   0  0  0  0  0  0  0  0  0  0  0  0
    4.9444   -5.8979   13.0773 H   0  0  0  0  0  0  0  0  0  0  0  0
    3.2373   -2.0495    8.3416 H   0  0  0  0  0  0  0  0  0  0  0  0
    1.7496    0.7192   10.5223 H   0  0  0  0  0  0  0  0  0  0  0  0
    0.4997    0.8947    8.5311 H   0  0  0  0  0  0  0  0  0  0  0  0
    1.4701   -0.2691    4.7410 H   0  0  0  0  0  0  0  0  0  0  0  0
    1.6775    0.7216    6.2210 H   0  0  0  0  0  0  0  0  0  0  0  0
   -0.8277    1.2016    6.1925 H   0  0  0  0  0  0  0  0  0  0  0  0
   -0.9363    0.3017    4.6246 H   0  0  0  0  0  0  0  0  0  0  0  0
    0.0599    1.8010    4.7406 H   0  0  0  0  0  0  0  0  0  0  0  0
    0.1877   -2.7276    9.4134 H   0  0  0  0  0  0  0  0  0  0  0  0
   -0.0805   -5.1805    8.5822 H   0  0  0  0  0  0  0  0  0  0  0  0
   -1.2339   -6.6565    7.2222 H   0  0  0  0  0  0  0  0  0  0  0  0
   -3.7427   -5.7936    6.0234 H   0  0  0  0  0  0  0  0  0  0  0  0
   -6.9512   -3.9775    3.7610 H   0  0  0  0  0  0  0  0  0  0  0  0
   -8.9568   -4.7457    4.9667 H   0  0  0  0  0  0  0  0  0  0  0  0
   -9.3978   -8.7699    4.4440 H   0  0  0  0  0  0  0  0  0  0  0  0
  -10.9590   -8.9375    5.3099 H   0  0  0  0  0  0  0  0  0  0  0  0
  -11.3221   -7.9369    3.0812 H   0  0  0  0  0  0  0  0  0  0  0  0
  -10.1883   -6.5944    3.4578 H   0  0  0  0  0  0  0  0  0  0  0  0
  -11.7388   -6.7514    4.3765 H   0  0  0  0  0  0  0  0  0  0  0  0
   -4.9887   -7.7087    4.6662 H   0  0  0  0  0  0  0  0  0  0  0  0
   -0.9948   -5.8033   -0.3165 H   0  0  0  0  0  0  0  0  0  0  0  0
    0.7854   -4.7737   -1.6760 H   0  0  0  0  0  0  0  0  0  0  0  0
    3.2096   -3.2341    0.2751 H   0  0  0  0  0  0  0  0  0  0  0  0
    4.0154   -1.7333   -0.2942 H   0  0  0  0  0  0  0  0  0  0  0  0
    5.3581   -3.7077   -0.9133 H   0  0  0  0  0  0  0  0  0  0  0  0
    3.9458   -4.4406   -1.7710 H   0  0  0  0  0  0  0  0  0  0  0  0
    4.7114   -2.9268   -2.4044 H   0  0  0  0  0  0  0  0  0  0  0  0
   -1.1252   -2.2858    2.1691 H   0  0  0  0  0  0  0  0  0  0  0  0
   -3.2019   -3.9146   -0.8026 H   0  0  0  0  0  0  0  0  0  0  0  0
   -7.0549   -2.1149   -0.3800 H   0  0  0  0  0  0  0  0  0  0  0  0
   -6.0601    0.1031    0.3639 H   0  0  0  0  0  0  0  0  0  0  0  0
   -7.4088    1.1604    2.1395 H   0  0  0  0  0  0  0  0  0  0  0  0
  -11.3302    0.6136    1.4273 H   0  0  0  0  0  0  0  0  0  0  0  0
  -12.0021    1.4714    2.8574 H   0  0  0  0  0  0  0  0  0  0  0  0
  -10.1736    0.5778    4.2977 H   0  0  0  0  0  0  0  0  0  0  0  0
  -11.1043   -0.7487    3.5024 H   0  0  0  0  0  0  0  0  0  0  0  0
   -9.4768   -0.3026    2.8774 H   0  0  0  0  0  0  0  0  0  0  0  0
   -9.0499    1.1882   -2.5437 H   0  0  0  0  0  0  0  0  0  0  0  0
   -2.4800   -1.9760   -3.7781 H   0  0  0  0  0  0  0  0  0  0  0  0
   -0.7608   -2.7651   -5.3566 H   0  0  0  0  0  0  0  0  0  0  0  0
   -0.1719   -5.4275   -8.3532 H   0  0  0  0  0  0  0  0  0  0  0  0
   -1.2203   -5.0956   -6.9312 H   0  0  0  0  0  0  0  0  0  0  0  0
   -2.3989   -6.4115   -8.7136 H   0  0  0  0  0  0  0  0  0  0  0  0
   -2.1208   -5.0750   -9.8927 H   0  0  0  0  0  0  0  0  0  0  0  0
   -3.1946   -4.8206   -8.4564 H   0  0  0  0  0  0  0  0  0  0  0  0
   -5.1991   -1.3416   -7.0596 H   0  0  0  0  0  0  0  0  0  0  0  0
   -3.6515    1.0403   -5.5768 H   0  0  0  0  0  0  0  0  0  0  0  0
   -3.1982    3.4877   -2.1030 H   0  0  0  0  0  0  0  0  0  0  0  0
    0.2293    2.0637   -0.5066 H   0  0  0  0  0  0  0  0  0  0  0  0
   -0.3917    1.9112    1.8720 H   0  0  0  0  0  0  0  0  0  0  0  0
   -4.1825    3.3720    2.6879 H   0  0  0  0  0  0  0  0  0  0  0  0
   -3.2725    1.8099    2.6815 H   0  0  0  0  0  0  0  0  0  0  0  0
   -4.3927    3.2269    5.1816 H   0  0  0  0  0  0  0  0  0  0  0  0
   -3.4874    1.6555    5.1589 H   0  0  0  0  0  0  0  0  0  0  0  0
   -5.1043    1.7836    4.3636 H   0  0  0  0  0  0  0  0  0  0  0  0
   -1.8919    5.8061   -0.8121 H   0  0  0  0  0  0  0  0  0  0  0  0
   -0.0945    6.3178   -6.5982 H   0  0  0  0  0  0  0  0  0  0  0  0
    0.3228    6.5259   -9.0169 H   0  0  0  0  0  0  0  0  0  0  0  0
    3.6142    4.4970  -11.6022 H   0  0  0  0  0  0  0  0  0  0  0  0
    3.4472    5.0484   -9.9016 H   0  0  0  0  0  0  0  0  0  0  0  0
    2.6652    7.2810  -10.6780 H   0  0  0  0  0  0  0  0  0  0  0  0
    2.7377    6.7226  -12.3985 H   0  0  0  0  0  0  0  0  0  0  0  0
    4.2514    6.8598  -11.4309 H   0  0  0  0  0  0  0  0  0  0  0  0
    1.3194    2.2491   -6.6981 H   0  0  0  0  0  0  0  0  0  0  0  0
    3.1142    3.9296   -5.2260 H   0  0  0  0  0  0  0  0  0  0  0  0
    5.0772    2.3694   -4.7425 H   0  0  0  0  0  0  0  0  0  0  0  0
    7.2236    2.6701   -6.4729 H   0  0  0  0  0  0  0  0  0  0  0  0
    6.5311    1.4612   -8.5097 H   0  0  0  0  0  0  0  0  0  0  0  0
    3.7365   -2.1987   -9.0574 H   0  0  0  0  0  0  0  0  0  0  0  0
    4.2005   -1.6860   -7.4022 H   0  0  0  0  0  0  0  0  0  0  0  0
    3.6118    0.1951   -9.7831 H   0  0  0  0  0  0  0  0  0  0  0  0
    2.4886   -0.1716   -8.4164 H   0  0  0  0  0  0  0  0  0  0  0  0
    4.0147    0.7210   -8.0998 H   0  0  0  0  0  0  0  0  0  0  0  0
    7.4932   -1.0733   -4.3531 H   0  0  0  0  0  0  0  0  0  0  0  0
   10.0962    4.7197   -0.8411 H   0  0  0  0  0  0  0  0  0  0  0  0
   10.5648    5.6576    1.3926 H   0  0  0  0  0  0  0  0  0  0  0  0
   11.6116    4.0037    3.4280 H   0  0  0  0  0  0  0  0  0  0  0  0
   11.5442    4.4875    5.1569 H   0  0  0  0  0  0  0  0  0  0  0  0
    9.8861    2.6441    5.6117 H   0  0  0  0  0  0  0  0  0  0  0  0
   11.4713    2.0363    4.9963 H   0  0  0  0  0  0  0  0  0  0  0  0
   10.0541    2.1009    3.8904 H   0  0  0  0  0  0  0  0  0  0  0  0
    7.1226    2.1193    0.8776 H   0  0  0  0  0  0  0  0  0  0  0  0
   10.9260    1.9139   -0.6870 H   0  0  0  0  0  0  0  0  0  0  0  0
   12.1948    0.3306   -2.3160 H   0  0  0  0  0  0  0  0  0  0  0  0
  1  2  2  0
  2  3  1  0
  3  4  1  0
  2  5  1  0
  5  6  1  0
  6  7  2  0
  6  8  1  0
  8  9  2  3
  9 10  1  0
 10 11  2  0
 11 12  1  0
 12 13  1  0
 11 14  1  0
 14 15  1  0
 15 16  2  0
 15 17  1  0
 17 18  2  3
 18 19  1  0
 19 20  2  0
 20 21  1  0
 21 22  2  0
 22 23  1  0
 23 24  2  0
 24 25  1  0
 25 26  2  0
 26 27  1  0
 27 28  1  0
 28 29  1  0
 26 30  1  0
 30 31  1  0
 30 32  2  0
 22 33  1  0
 33 34  2  0
 34 35  1  0
 35 36  1  0
 36 37  2  0
 37 38  1  0
 38 39  2  0
 39 40  1  0
 40 41  1  0
 41 42  1  0
 39 43  1  0
 43 44  2  0
 43 45  1  0
 35 46  2  0
 46 47  1  0
 34 48  1  0
 48 49  2  0
 49 50  1  0
 49 51  1  0
 51 52  2  0
 52 53  1  0
 53 54  2  0
 54 55  1  0
 55 56  2  0
 56 57  1  0
 57 58  2  0
 58 59  1  0
 59 60  1  0
 60 61  1  0
 58 62  1  0
 62 63  1  0
 62 64  2  0
 54 65  1  0
 65 66  2  0
 66 67  1  0
 67 68  1  0
 68 69  2  0
 69 70  1  0
 70 71  2  0
 71 72  1  0
 72 73  1  0
 73 74  1  0
 71 75  1  0
 75 76  2  0
 75 77  1  0
 67 78  2  0
 78 79  1  0
 66 80  1  0
 80 81  2  0
 81 82  1  0
 81 83  1  0
 83 84  2  0
 84 85  1  0
 85 86  2  0
 86 87  1  0
 87 88  2  0
 88 89  1  0
 89 90  2  0
 90 91  1  0
 91 92  1  0
 92 93  1  0
 90 94  1  0
 94 95  1  0
 94 96  2  0
 86 97  1  0
 97 98  2  0
 98 99  1  0
 99100  1  0
100101  2  0
101102  1  0
102103  2  0
103104  1  0
104105  1  0
105106  1  0
103107  1  0
107108  2  0
107109  1  0
 99110  2  0
110111  1  0
 98112  1  0
112113  2  0
113114  1  0
113115  1  0
115116  2  0
116117  1  0
117118  2  0
118119  1  0
119120  2  0
120121  1  0
121122  2  0
122123  1  0
123124  1  0
124125  1  0
122126  1  0
126127  1  0
126128  2  0
118129  1  0
129130  2  0
130131  1  0
131132  1  0
132133  2  0
133134  1  0
134135  2  0
135136  1  0
136137  1  0
137138  1  0
135139  1  0
139140  2  0
139141  1  0
131142  2  0
142143  1  0
130144  1  0
144145  2  0
145146  1  0
  7  1  1  0
 16 10  1  0
 47 19  1  0
 79 51  1  0
111 83  1  0
143115  1  0
 46 21  1  0
 78 53  1  0
110 85  1  0
142117  1  0
 32 23  1  0
 50 33  1  0
 64 55  1  0
 82 65  1  0
 96 87  1  0
114 97  1  0
128119  1  0
146129  1  0
 44 36  1  0
 76 68  1  0
108100  1  0
140132  1  0
  1147  1  0
  3148  1  0
  3149  1  0
  4150  1  0
  4151  1  0
  4152  1  0
  7153  1  0
  8154  1  0
  9155  1  0
 12156  1  0
 12157  1  0
 13158  1  0
 13159  1  0
 13160  1  0
 16161  1  0
 17162  1  0
 18163  1  0
 20164  1  0
 24165  1  0
 25166  1  0
 28167  1  0
 28168  1  0
 29169  1  0
 29170  1  0
 29171  1  0
 32172  1  0
 37173  1  0
 38174  1  0
 41175  1  0
 41176  1  0
 42177  1  0
 42178  1  0
 42179  1  0
 44180  1  0
 48181  1  0
 52182  1  0
 56183  1  0
 57184  1  0
 60185  1  0
 60186  1  0
 61187  1  0
 61188  1  0
 61189  1  0
 64190  1  0
 69191  1  0
 70192  1  0
 73193  1  0
 73194  1  0
 74195  1  0
 74196  1  0
 74197  1  0
 76198  1  0
 80199  1  0
 84200  1  0
 88201  1  0
 89202  1  0
 92203  1  0
 92204  1  0
 93205  1  0
 93206  1  0
 93207  1  0
 96208  1  0
101209  1  0
102210  1  0
105211  1  0
105212  1  0
106213  1  0
106214  1  0
106215  1  0
108216  1  0
112217  1  0
116218  1  0
120219  1  0
121220  1  0
124221  1  0
124222  1  0
125223  1  0
125224  1  0
125225  1  0
128226  1  0
133227  1  0
134228  1  0
137229  1  0
137230  1  0
138231  1  0
138232  1  0
138233  1  0
140234  1  0
144235  1  0
145236  1  0
M  END

