
     RDKit          3D

215232  0  0  0  0  0  0  0  0999 V2000
    2.4047   -7.5474    5.1582 C   0  0  0  0  0  0  0  0  0  0  0  0
    3.6054   -7.3308    4.6299 C   0  0  0  0  0  0  0  0  0  0  0  0
    4.4380   -6.1895    5.0431 C   0  0  0  0  0  0  0  0  0  0  0  0
    4.0452   -5.2505    5.8833 O   0  0  0  0  0  0  0  0  0  0  0  0
    5.0270   -4.3795    6.0431 C   0  0  0  0  0  0  0  0  0  0  0  0
    6.1018   -4.7615    5.2723 C   0  0  0  0  0  0  0  0  0  0  0  0
    5.7273   -5.9137    4.6213 C   0  0  0  0  0  0  0  0  0  0  0  0
    6.5037   -6.6382    3.7210 O   0  0  0  0  0  0  0  0  0  0  0  0
    7.3183   -4.0945    5.1549 O   0  0  0  0  0  0  0  0  0  0  0  0
    4.9601   -3.1982    6.9082 C   0  0  0  0  0  0  0  0  0  0  0  0
    3.7883   -2.6223    7.1899 C   0  0  0  0  0  0  0  0  0  0  0  0
    3.6993   -1.4739    8.1147 C   0  0  0  0  0  0  0  0  0  0  0  0
    2.6221   -0.6857    8.2687 C   0  0  0  0  0  0  0  0  0  0  0  0
    1.3554   -0.7962    7.5221 C   0  0  0  0  0  0  0  0  0  0  0  0
    0.6287   -1.9501    7.2410 C   0  0  0  0  0  0  0  0  0  0  0  0
   -0.4731   -1.7032    6.4110 C   0  0  0  0  0  0  0  0  0  0  0  0
   -1.3112   -2.6737    5.8321 C   0  0  0  0  0  0  0  0  0  0  0  0
   -1.2171   -4.1065    6.1747 C   0  0  0  0  0  0  0  0  0  0  0  0
   -0.8142   -5.0391    5.2037 C   0  0  0  0  0  0  0  0  0  0  0  0
   -0.8482   -6.4045    5.4919 C   0  0  0  0  0  0  0  0  0  0  0  0
   -1.2805   -6.8521    6.7502 C   0  0  0  0  0  0  0  0  0  0  0  0
   -1.3736   -8.6165    7.0828 S   0  0  0  0  0  0  0  0  0  0  0  0
   -3.1549   -8.7635    6.6942 C   0  0  0  0  0  0  0  0  0  0  0  0
   -3.3815   -8.9045    5.1953 C   0  0  0  0  0  0  0  0  0  0  0  0
   -1.6288   -5.9182    7.7396 C   0  0  0  0  0  0  0  0  0  0  0  0
   -2.0307   -6.3380    8.9643 F   0  0  0  0  0  0  0  0  0  0  0  0
   -1.5998   -4.5501    7.4484 C   0  0  0  0  0  0  0  0  0  0  0  0
   -2.2334   -2.2202    4.8693 C   0  0  0  0  0  0  0  0  0  0  0  0
   -2.3989   -0.8693    4.5419 C   0  0  0  0  0  0  0  0  0  0  0  0
   -1.6512    0.1158    5.2309 C   0  0  0  0  0  0  0  0  0  0  0  0
   -1.9471    1.5646    5.1567 C   0  0  0  0  0  0  0  0  0  0  0  0
   -1.8682    2.2681    3.9498 C   0  0  0  0  0  0  0  0  0  0  0  0
   -2.1304    3.6435    3.9263 C   0  0  0  0  0  0  0  0  0  0  0  0
   -2.4483    4.3296    5.1021 C   0  0  0  0  0  0  0  0  0  0  0  0
   -2.8028    6.0932    5.0428 S   0  0  0  0  0  0  0  0  0  0  0  0
   -1.0972    6.6413    5.4283 C   0  0  0  0  0  0  0  0  0  0  0  0
   -0.2512    6.7067    4.1611 C   0  0  0  0  0  0  0  0  0  0  0  0
   -2.5169    3.6341    6.3118 C   0  0  0  0  0  0  0  0  0  0  0  0
   -2.2734    2.2594    6.3385 C   0  0  0  0  0  0  0  0  0  0  0  0
   -2.8208    4.2855    7.4657 F   0  0  0  0  0  0  0  0  0  0  0  0
   -0.6528   -0.3521    6.1110 C   0  0  0  0  0  0  0  0  0  0  0  0
    0.5742    0.5340    6.8458 S   0  0  0  0  0  0  0  0  0  0  0  0
   -3.3046   -0.6706    3.4715 C   0  0  0  0  0  0  0  0  0  0  0  0
   -3.8301   -1.8668    2.9814 C   0  0  0  0  0  0  0  0  0  0  0  0
   -3.2193   -3.1540    3.8861 S   0  0  0  0  0  0  0  0  0  0  0  0
   -4.5280   -2.0941    1.7119 C   0  0  0  0  0  0  0  0  0  0  0  0
   -3.8549   -1.9820    0.5592 C   0  0  0  0  0  0  0  0  0  0  0  0
   -4.0858   -2.9848   -0.4980 C   0  0  0  0  0  0  0  0  0  0  0  0
   -4.7865   -2.8045   -1.6042 O   0  0  0  0  0  0  0  0  0  0  0  0
   -4.8526   -3.9576   -2.2473 C   0  0  0  0  0  0  0  0  0  0  0  0
   -4.1693   -4.9232   -1.5397 C   0  0  0  0  0  0  0  0  0  0  0  0
   -3.6589   -4.3001   -0.4363 C   0  0  0  0  0  0  0  0  0  0  0  0
   -2.8604   -4.8885    0.5385 O   0  0  0  0  0  0  0  0  0  0  0  0
   -4.0205   -6.2612   -1.8880 O   0  0  0  0  0  0  0  0  0  0  0  0
   -5.5883   -4.2082   -3.4979 C   0  0  0  0  0  0  0  0  0  0  0  0
   -5.6717   -3.3076   -4.4769 C   0  0  0  0  0  0  0  0  0  0  0  0
   -6.3955   -3.6410   -5.7241 C   0  0  0  0  0  0  0  0  0  0  0  0
   -6.2032   -3.0075   -6.8908 C   0  0  0  0  0  0  0  0  0  0  0  0
   -5.1344   -2.0342   -7.1128 C   0  0  0  0  0  0  0  0  0  0  0  0
   -3.7935   -2.2247   -6.7827 C   0  0  0  0  0  0  0  0  0  0  0  0
   -3.0453   -1.0428   -6.8741 C   0  0  0  0  0  0  0  0  0  0  0  0
   -1.7043   -0.8861   -6.4920 C   0  0  0  0  0  0  0  0  0  0  0  0
   -0.8920   -2.0090   -5.9717 C   0  0  0  0  0  0  0  0  0  0  0  0
    0.2993   -2.3730   -6.6180 C   0  0  0  0  0  0  0  0  0  0  0  0
    1.1308   -3.3528   -6.0654 C   0  0  0  0  0  0  0  0  0  0  0  0
    0.7778   -3.9796   -4.8591 C   0  0  0  0  0  0  0  0  0  0  0  0
    1.9196   -5.1311   -4.0893 S   0  0  0  0  0  0  0  0  0  0  0  0
    1.1656   -6.6406   -4.7832 C   0  0  0  0  0  0  0  0  0  0  0  0
    1.6879   -6.9181   -6.1871 C   0  0  0  0  0  0  0  0  0  0  0  0
   -0.4154   -3.6217   -4.2156 C   0  0  0  0  0  0  0  0  0  0  0  0
   -0.7598   -4.2037   -3.0416 F   0  0  0  0  0  0  0  0  0  0  0  0
   -1.2489   -2.6439   -4.7684 C   0  0  0  0  0  0  0  0  0  0  0  0
   -1.2173    0.4291   -6.4566 C   0  0  0  0  0  0  0  0  0  0  0  0
   -1.9898    1.5378   -6.8082 C   0  0  0  0  0  0  0  0  0  0  0  0
   -3.2847    1.3691   -7.3346 C   0  0  0  0  0  0  0  0  0  0  0  0
   -4.0599    2.4985   -7.9011 C   0  0  0  0  0  0  0  0  0  0  0  0
   -3.5270    3.2386   -8.9669 C   0  0  0  0  0  0  0  0  0  0  0  0
   -4.2933    4.2183   -9.6017 C   0  0  0  0  0  0  0  0  0  0  0  0
   -5.6110    4.4607   -9.1871 C   0  0  0  0  0  0  0  0  0  0  0  0
   -6.6319    5.6451  -10.0749 S   0  0  0  0  0  0  0  0  0  0  0  0
   -7.3905    4.4033  -11.1868 C   0  0  0  0  0  0  0  0  0  0  0  0
   -6.5102    4.1565  -12.4049 C   0  0  0  0  0  0  0  0  0  0  0  0
   -6.1294    3.7667   -8.0862 C   0  0  0  0  0  0  0  0  0  0  0  0
   -5.3589    2.7911   -7.4444 C   0  0  0  0  0  0  0  0  0  0  0  0
   -7.3880    4.0128   -7.6465 F   0  0  0  0  0  0  0  0  0  0  0  0
   -3.7995    0.0578   -7.3153 C   0  0  0  0  0  0  0  0  0  0  0  0
   -5.3831   -0.4436   -7.5965 S   0  0  0  0  0  0  0  0  0  0  0  0
   -1.4387    2.7556   -6.3632 C   0  0  0  0  0  0  0  0  0  0  0  0
   -0.2448    2.5913   -5.6568 C   0  0  0  0  0  0  0  0  0  0  0  0
    0.1503    0.9519   -5.6435 S   0  0  0  0  0  0  0  0  0  0  0  0
    0.1543    3.4284   -4.5302 C   0  0  0  0  0  0  0  0  0  0  0  0
    1.4278    3.3825   -3.9631 C   0  0  0  0  0  0  0  0  0  0  0  0
    1.4327    3.6714   -2.5894 C   0  0  0  0  0  0  0  0  0  0  0  0
    2.5247    3.4970   -1.7194 C   0  0  0  0  0  0  0  0  0  0  0  0
    3.7838    2.8699   -2.1745 C   0  0  0  0  0  0  0  0  0  0  0  0
    4.9360    3.6400   -2.3907 C   0  0  0  0  0  0  0  0  0  0  0  0
    6.1438    3.0107   -2.7193 C   0  0  0  0  0  0  0  0  0  0  0  0
    6.2099    1.6144   -2.8105 C   0  0  0  0  0  0  0  0  0  0  0  0
    7.7929    0.8093   -3.0427 S   0  0  0  0  0  0  0  0  0  0  0  0
    7.6798    0.6702   -4.8628 C   0  0  0  0  0  0  0  0  0  0  0  0
    8.1150    1.9740   -5.5333 C   0  0  0  0  0  0  0  0  0  0  0  0
    5.0558    0.8494   -2.6067 C   0  0  0  0  0  0  0  0  0  0  0  0
    5.1082   -0.5005   -2.6796 F   0  0  0  0  0  0  0  0  0  0  0  0
    3.8464    1.4749   -2.2998 C   0  0  0  0  0  0  0  0  0  0  0  0
    2.2744    3.6605   -0.3497 C   0  0  0  0  0  0  0  0  0  0  0  0
    1.0019    3.9096    0.1586 C   0  0  0  0  0  0  0  0  0  0  0  0
   -0.1075    4.0251   -0.7046 C   0  0  0  0  0  0  0  0  0  0  0  0
   -1.4841    3.8570   -0.1928 C   0  0  0  0  0  0  0  0  0  0  0  0
   -1.9690    2.5599    0.0321 C   0  0  0  0  0  0  0  0  0  0  0  0
   -3.2103    2.3664    0.6473 C   0  0  0  0  0  0  0  0  0  0  0  0
   -3.9790    3.4708    1.0383 C   0  0  0  0  0  0  0  0  0  0  0  0
   -5.4623    3.2189    2.0166 S   0  0  0  0  0  0  0  0  0  0  0  0
   -6.5969    3.0383    0.5980 C   0  0  0  0  0  0  0  0  0  0  0  0
   -6.6708    1.5836    0.1495 C   0  0  0  0  0  0  0  0  0  0  0  0
   -3.5159    4.7717    0.7711 C   0  0  0  0  0  0  0  0  0  0  0  0
   -2.2664    4.9663    0.1615 C   0  0  0  0  0  0  0  0  0  0  0  0
   -4.2275    5.8518    1.1898 F   0  0  0  0  0  0  0  0  0  0  0  0
    0.1574    3.9507   -2.0825 C   0  0  0  0  0  0  0  0  0  0  0  0
   -0.9590    3.8393   -3.3299 S   0  0  0  0  0  0  0  0  0  0  0  0
    0.9505    3.8569    1.5581 C   0  0  0  0  0  0  0  0  0  0  0  0
    2.1733    3.5703    2.1583 C   0  0  0  0  0  0  0  0  0  0  0  0
    3.3207    3.3566    0.9291 S   0  0  0  0  0  0  0  0  0  0  0  0
    2.3362    3.3670    3.6195 C   0  0  0  0  0  0  0  0  0  0  0  0
    3.4522    2.9792    4.2539 C   0  0  0  0  0  0  0  0  0  0  0  0
    4.7413    2.7295    3.5898 C   0  0  0  0  0  0  0  0  0  0  0  0
    5.1908    1.5282    3.2924 O   0  0  0  0  0  0  0  0  0  0  0  0
    6.3476    1.6542    2.6708 C   0  0  0  0  0  0  0  0  0  0  0  0
    6.6697    3.0005    2.5691 C   0  0  0  0  0  0  0  0  0  0  0  0
    5.6433    3.6821    3.1655 C   0  0  0  0  0  0  0  0  0  0  0  0
    5.5203    5.0643    3.2767 O   0  0  0  0  0  0  0  0  0  0  0  0
    7.7941    3.5649    1.9689 O   0  0  0  0  0  0  0  0  0  0  0  0
    7.1413    0.5270    2.1440 C   0  0  0  0  0  0  0  0  0  0  0  0
    6.7501   -0.7428    2.3368 C   0  0  0  0  0  0  0  0  0  0  0  0
    7.4618   -1.9258    1.8109 C   0  0  0  0  0  0  0  0  0  0  0  0
    8.6579   -1.9055    1.2130 C   0  0  0  0  0  0  0  0  0  0  0  0
    2.0004   -6.8856    5.9147 H   0  0  0  0  0  0  0  0  0  0  0  0
    1.8148   -8.3911    4.8282 H   0  0  0  0  0  0  0  0  0  0  0  0
    3.9734   -8.0189    3.8781 H   0  0  0  0  0  0  0  0  0  0  0  0
    6.1516   -7.4792    3.2811 H   0  0  0  0  0  0  0  0  0  0  0  0
    8.0513   -4.4466    4.5540 H   0  0  0  0  0  0  0  0  0  0  0  0
    5.8826   -2.7942    7.3099 H   0  0  0  0  0  0  0  0  0  0  0  0
    2.9089   -2.9998    6.6885 H   0  0  0  0  0  0  0  0  0  0  0  0
    4.5894   -1.2069    8.6740 H   0  0  0  0  0  0  0  0  0  0  0  0
    2.7360    0.1899    8.8928 H   0  0  0  0  0  0  0  0  0  0  0  0
    0.8910   -2.9396    7.6045 H   0  0  0  0  0  0  0  0  0  0  0  0
   -0.4920   -4.7068    4.2217 H   0  0  0  0  0  0  0  0  0  0  0  0
   -0.5502   -7.1208    4.7316 H   0  0  0  0  0  0  0  0  0  0  0  0
   -3.7210   -7.8901    7.0855 H   0  0  0  0  0  0  0  0  0  0  0  0
   -3.5395   -9.6752    7.1948 H   0  0  0  0  0  0  0  0  0  0  0  0
   -2.8973   -9.8347    4.8242 H   0  0  0  0  0  0  0  0  0  0  0  0
   -4.4714   -8.9620    4.9906 H   0  0  0  0  0  0  0  0  0  0  0  0
   -2.9725   -8.0281    4.6532 H   0  0  0  0  0  0  0  0  0  0  0  0
   -1.9181   -3.8407    8.2007 H   0  0  0  0  0  0  0  0  0  0  0  0
   -1.6041    1.7581    3.0343 H   0  0  0  0  0  0  0  0  0  0  0  0
   -2.0751    4.1802    2.9899 H   0  0  0  0  0  0  0  0  0  0  0  0
   -1.1525    7.6576    5.8749 H   0  0  0  0  0  0  0  0  0  0  0  0
   -0.6217    5.9649    6.1729 H   0  0  0  0  0  0  0  0  0  0  0  0
   -0.7138    7.4028    3.4247 H   0  0  0  0  0  0  0  0  0  0  0  0
    0.7676    7.0734    4.4154 H   0  0  0  0  0  0  0  0  0  0  0  0
   -0.1530    5.6967    3.7149 H   0  0  0  0  0  0  0  0  0  0  0  0
   -2.3331    1.7312    7.2839 H   0  0  0  0  0  0  0  0  0  0  0  0
   -3.5298    0.2864    3.0350 H   0  0  0  0  0  0  0  0  0  0  0  0
   -5.3919   -2.7547    1.7526 H   0  0  0  0  0  0  0  0  0  0  0  0
   -2.8955   -1.4760    0.5475 H   0  0  0  0  0  0  0  0  0  0  0  0
   -2.4308   -4.3408    1.2750 H   0  0  0  0  0  0  0  0  0  0  0  0
   -3.4921   -6.8940   -1.3010 H   0  0  0  0  0  0  0  0  0  0  0  0
   -6.0031   -5.2024   -3.6441 H   0  0  0  0  0  0  0  0  0  0  0  0
   -5.1856   -2.3499   -4.3630 H   0  0  0  0  0  0  0  0  0  0  0  0
   -7.1356   -4.4343   -5.6954 H   0  0  0  0  0  0  0  0  0  0  0  0
   -6.8492   -3.2498   -7.7243 H   0  0  0  0  0  0  0  0  0  0  0  0
   -3.4000   -3.1662   -6.4229 H   0  0  0  0  0  0  0  0  0  0  0  0
    0.5904   -1.8821   -7.5414 H   0  0  0  0  0  0  0  0  0  0  0  0
    2.0589   -3.6064   -6.5637 H   0  0  0  0  0  0  0  0  0  0  0  0
    1.4352   -7.4960   -4.1277 H   0  0  0  0  0  0  0  0  0  0  0  0
    0.0589   -6.5543   -4.8019 H   0  0  0  0  0  0  0  0  0  0  0  0
    2.8011   -6.9294   -6.1978 H   0  0  0  0  0  0  0  0  0  0  0  0
    1.3220   -7.9113   -6.5264 H   0  0  0  0  0  0  0  0  0  0  0  0
    1.3152   -6.1501   -6.8969 H   0  0  0  0  0  0  0  0  0  0  0  0
   -2.1538   -2.3564   -4.2467 H   0  0  0  0  0  0  0  0  0  0  0  0
   -2.5196    3.0467   -9.3274 H   0  0  0  0  0  0  0  0  0  0  0  0
   -3.8813    4.7704  -10.4393 H   0  0  0  0  0  0  0  0  0  0  0  0
   -8.3742    4.7940  -11.5180 H   0  0  0  0  0  0  0  0  0  0  0  0
   -7.5624    3.4468  -10.6482 H   0  0  0  0  0  0  0  0  0  0  0  0
   -5.5167    3.7768  -12.0963 H   0  0  0  0  0  0  0  0  0  0  0  0
   -6.9829    3.3943  -13.0638 H   0  0  0  0  0  0  0  0  0  0  0  0
   -6.3921    5.0984  -12.9875 H   0  0  0  0  0  0  0  0  0  0  0  0
   -5.7673    2.2614   -6.5952 H   0  0  0  0  0  0  0  0  0  0  0  0
   -1.9803    3.6885   -6.3798 H   0  0  0  0  0  0  0  0  0  0  0  0
    2.2961    3.0150   -4.4920 H   0  0  0  0  0  0  0  0  0  0  0  0
    4.9053    4.7210   -2.2790 H   0  0  0  0  0  0  0  0  0  0  0  0
    7.0340    3.6076   -2.8625 H   0  0  0  0  0  0  0  0  0  0  0  0
    8.3614   -0.1479   -5.1888 H   0  0  0  0  0  0  0  0  0  0  0  0
    6.6497    0.4075   -5.1880 H   0  0  0  0  0  0  0  0  0  0  0  0
    8.4847    1.7602   -6.5654 H   0  0  0  0  0  0  0  0  0  0  0  0
    7.2632    2.6947   -5.5829 H   0  0  0  0  0  0  0  0  0  0  0  0
    8.9586    2.4373   -4.9697 H   0  0  0  0  0  0  0  0  0  0  0  0
    2.9639    0.8725   -2.1145 H   0  0  0  0  0  0  0  0  0  0  0  0
   -1.3688    1.6961   -0.2341 H   0  0  0  0  0  0  0  0  0  0  0  0
   -3.5471    1.3592    0.8502 H   0  0  0  0  0  0  0  0  0  0  0  0
   -7.6109    3.3627    0.9199 H   0  0  0  0  0  0  0  0  0  0  0  0
   -6.2866    3.6915   -0.2465 H   0  0  0  0  0  0  0  0  0  0  0  0
   -6.9603    0.9289    1.0028 H   0  0  0  0  0  0  0  0  0  0  0  0
   -7.4314    1.4805   -0.6558 H   0  0  0  0  0  0  0  0  0  0  0  0
   -5.6945    1.2529   -0.2506 H   0  0  0  0  0  0  0  0  0  0  0  0
   -1.8886    5.9735    0.0213 H   0  0  0  0  0  0  0  0  0  0  0  0
    0.0381    3.9888    2.1177 H   0  0  0  0  0  0  0  0  0  0  0  0
    1.4478    3.5092    4.2241 H   0  0  0  0  0  0  0  0  0  0  0  0
    3.3960    2.7998    5.3211 H   0  0  0  0  0  0  0  0  0  0  0  0
    4.7012    5.4862    3.6905 H   0  0  0  0  0  0  0  0  0  0  0  0
    8.5046    2.9928    1.5322 H   0  0  0  0  0  0  0  0  0  0  0  0
    8.0177    0.7605    1.5615 H   0  0  0  0  0  0  0  0  0  0  0  0
    5.8581   -0.9399    2.9180 H   0  0  0  0  0  0  0  0  0  0  0  0
    6.9731   -2.8884    1.9173 H   0  0  0  0  0  0  0  0  0  0  0  0
    9.2361   -0.9951    1.1014 H   0  0  0  0  0  0  0  0  0  0  0  0
    9.0921   -2.8281    0.8604 H   0  0  0  0  0  0  0  0  0  0  0  0
  1  2  2  3
  2  3  1  0
  3  4  1  0
  4  5  1  0
  5  6  2  0
  6  7  1  0
  7  8  1  0
  6  9  1  0
  5 10  1  0
 10 11  2  3
 11 12  1  0
 12 13  2  3
 13 14  1  0
 14 15  2  0
 15 16  1  0
 16 17  2  0
 17 18  1  0
 18 19  2  0
 19 20  1  0
 20 21  2  0
 21 22  1  0
 22 23  1  0
 23 24  1  0
 21 25  1  0
 25 26  1  0
 25 27  2  0
 17 28  1  0
 28 29  2  0
 29 30  1  0
 30 31  1  0
 31 32  2  0
 32 33  1  0
 33 34  2  0
 34 35  1  0
 35 36  1  0
 36 37  1  0
 34 38  1  0
 38 39  2  0
 38 40  1  0
 30 41  2  0
 41 42  1  0
 29 43  1  0
 43 44  2  0
 44 45  1  0
 44 46  1  0
 46 47  2  3
 47 48  1  0
 48 49  1  0
 49 50  1  0
 50 51  2  0
 51 52  1  0
 52 53  1  0
 51 54  1  0
 50 55  1  0
 55 56  2  3
 56 57  1  0
 57 58  2  3
 58 59  1  0
 59 60  2  0
 60 61  1  0
 61 62  2  0
 62 63  1  0
 63 64  2  0
 64 65  1  0
 65 66  2  0
 66 67  1  0
 67 68  1  0
 68 69  1  0
 66 70  1  0
 70 71  1  0
 70 72  2  0
 62 73  1  0
 73 74  2  0
 74 75  1  0
 75 76  1  0
 76 77  2  0
 77 78  1  0
 78 79  2  0
 79 80  1  0
 80 81  1  0
 81 82  1  0
 79 83  1  0
 83 84  2  0
 83 85  1  0
 75 86  2  0
 86 87  1  0
 74 88  1  0
 88 89  2  0
 89 90  1  0
 89 91  1  0
 91 92  2  0
 92 93  1  0
 93 94  2  0
 94 95  1  0
 95 96  2  0
 96 97  1  0
 97 98  2  0
 98 99  1  0
 99100  1  0
100101  1  0
 98102  1  0
102103  1  0
102104  2  0
 94105  1  0
105106  2  0
106107  1  0
107108  1  0
108109  2  0
109110  1  0
110111  2  0
111112  1  0
112113  1  0
113114  1  0
111115  1  0
115116  2  0
115117  1  0
107118  2  0
118119  1  0
106120  1  0
120121  2  0
121122  1  0
121123  1  0
123124  2  3
124125  1  0
125126  1  0
126127  1  0
127128  2  0
128129  1  0
129130  1  0
128131  1  0
127132  1  0
132133  2  3
133134  1  0
134135  2  3
  7  3  2  0
 42 14  1  0
 52 48  2  0
 87 59  1  0
119 91  1  0
129125  2  0
 41 16  1  0
 86 61  1  0
118 93  1  0
 27 18  1  0
 45 28  1  0
 72 63  1  0
 90 73  1  0
104 95  1  0
122105  1  0
 39 31  1  0
 84 76  1  0
116108  1  0
  1136  1  0
  1137  1  0
  2138  1  0
  8139  1  0
  9140  1  0
 10141  1  0
 11142  1  0
 12143  1  0
 13144  1  0
 15145  1  0
 19146  1  0
 20147  1  0
 23148  1  0
 23149  1  0
 24150  1  0
 24151  1  0
 24152  1  0
 27153  1  0
 32154  1  0
 33155  1  0
 36156  1  0
 36157  1  0
 37158  1  0
 37159  1  0
 37160  1  0
 39161  1  0
 43162  1  0
 46163  1  0
 47164  1  0
 53165  1  0
 54166  1  0
 55167  1  0
 56168  1  0
 57169  1  0
 58170  1  0
 60171  1  0
 64172  1  0
 65173  1  0
 68174  1  0
 68175  1  0
 69176  1  0
 69177  1  0
 69178  1  0
 72179  1  0
 77180  1  0
 78181  1  0
 81182  1  0
 81183  1  0
 82184  1  0
 82185  1  0
 82186  1  0
 84187  1  0
 88188  1  0
 92189  1  0
 96190  1  0
 97191  1  0
100192  1  0
100193  1  0
101194  1  0
101195  1  0
101196  1  0
104197  1  0
109198  1  0
110199  1  0
113200  1  0
113201  1  0
114202  1  0
114203  1  0
114204  1  0
116205  1  0
120206  1  0
123207  1  0
124208  1  0
130209  1  0
131210  1  0
132211  1  0
133212  1  0
134213  1  0
135214  1  0
135215  1  0
M  END

