
     RDKit          3D

233258  0  0  0  0  0  0  0  0999 V2000
    2.8578   -4.4027    8.8912 C   0  0  0  0  0  0  0  0  0  0  0  0
    2.7970   -3.0061    8.8636 C   0  0  0  0  0  0  0  0  0  0  0  0
    1.5076   -2.4744    8.7350 C   0  0  0  0  0  0  0  0  0  0  0  0
    1.0997   -1.0756    8.7450 C   0  0  0  0  0  0  0  0  0  0  0  0
    2.1038    0.0045    8.9830 C   0  0  0  0  0  0  0  0  0  0  0  0
    2.0966    1.4677    8.1396 S   0  0  0  0  0  0  0  0  0  0  0  0
    3.2425    2.1780    9.1164 C   0  0  0  0  0  0  0  0  0  0  0  0
    3.8283    3.5522    8.8878 C   0  0  0  0  0  0  0  0  0  0  0  0
    5.2182    3.4323    8.2978 C   0  0  0  0  0  0  0  0  0  0  0  0
    3.6795    1.2754   10.0709 C   0  0  0  0  0  0  0  0  0  0  0  0
    4.9531    1.6463   11.2339 Cl  0  0  0  0  0  0  0  0  0  0  0  0
    3.0236    0.0821   10.0261 C   0  0  0  0  0  0  0  0  0  0  0  0
    3.2439   -1.1338   11.2873 Cl  0  0  0  0  0  0  0  0  0  0  0  0
   -0.2580   -0.7993    8.5630 C   0  0  0  0  0  0  0  0  0  0  0  0
   -1.2409   -1.8011    8.4611 C   0  0  0  0  0  0  0  0  0  0  0  0
   -0.8903   -3.1852    8.5356 C   0  0  0  0  0  0  0  0  0  0  0  0
   -1.9971   -4.2043    8.6021 C   0  0  0  0  0  0  0  0  0  0  0  0
   -3.4432   -3.9696    9.4242 S   0  0  0  0  0  0  0  0  0  0  0  0
   -4.2263   -5.3393    8.9006 C   0  0  0  0  0  0  0  0  0  0  0  0
   -5.6844   -5.6030    9.1013 C   0  0  0  0  0  0  0  0  0  0  0  0
   -6.4654   -5.4126    7.8144 C   0  0  0  0  0  0  0  0  0  0  0  0
   -3.3522   -6.0516    8.1558 C   0  0  0  0  0  0  0  0  0  0  0  0
   -2.1251   -5.4326    7.9888 C   0  0  0  0  0  0  0  0  0  0  0  0
   -0.8825   -6.2487    7.0422 Cl  0  0  0  0  0  0  0  0  0  0  0  0
   -3.7246   -7.6537    7.5861 Cl  0  0  0  0  0  0  0  0  0  0  0  0
    0.4996   -3.4589    8.6121 C   0  0  0  0  0  0  0  0  0  0  0  0
    1.3164   -4.9864    8.7803 S   0  0  0  0  0  0  0  0  0  0  0  0
   -2.4881   -1.2411    8.3931 C   0  0  0  0  0  0  0  0  0  0  0  0
   -2.5569    0.1416    8.3410 C   0  0  0  0  0  0  0  0  0  0  0  0
   -1.0114    0.7314    8.5071 S   0  0  0  0  0  0  0  0  0  0  0  0
   -3.8300    0.8249    8.0856 C   0  0  0  0  0  0  0  0  0  0  0  0
   -4.7071    0.3419    7.1614 C   0  0  0  0  0  0  0  0  0  0  0  0
   -4.3040   -0.5776    6.0500 C   0  0  0  0  0  0  0  0  0  0  0  0
   -4.4371   -1.9016    6.1816 O   0  0  0  0  0  0  0  0  0  0  0  0
   -4.1169   -2.4799    4.9326 C   0  0  0  0  0  0  0  0  0  0  0  0
   -3.5130   -1.3998    4.2165 C   0  0  0  0  0  0  0  0  0  0  0  0
   -3.8055   -0.2175    4.8737 C   0  0  0  0  0  0  0  0  0  0  0  0
   -3.3500    1.0517    4.6415 O   0  0  0  0  0  0  0  0  0  0  0  0
   -2.8602   -1.4207    2.9531 O   0  0  0  0  0  0  0  0  0  0  0  0
   -4.0888   -3.9556    4.6527 C   0  0  0  0  0  0  0  0  0  0  0  0
   -4.6093   -4.8268    3.7980 C   0  0  0  0  0  0  0  0  0  0  0  0
   -4.0268   -6.1989    3.7974 C   0  0  0  0  0  0  0  0  0  0  0  0
   -4.0724   -7.0268    2.6522 C   0  0  0  0  0  0  0  0  0  0  0  0
   -3.9853   -6.4570    1.2748 C   0  0  0  0  0  0  0  0  0  0  0  0
   -5.1919   -6.3257    0.5693 C   0  0  0  0  0  0  0  0  0  0  0  0
   -5.3083   -5.1951   -0.2602 C   0  0  0  0  0  0  0  0  0  0  0  0
   -6.3405   -4.8207   -1.1949 C   0  0  0  0  0  0  0  0  0  0  0  0
   -7.5135   -5.7009   -1.4396 C   0  0  0  0  0  0  0  0  0  0  0  0
   -8.2412   -6.7621   -0.3265 S   0  0  0  0  0  0  0  0  0  0  0  0
   -9.2990   -7.4207   -1.4080 C   0  0  0  0  0  0  0  0  0  0  0  0
  -10.1704   -8.6389   -1.1254 C   0  0  0  0  0  0  0  0  0  0  0  0
   -9.5442   -9.8937   -1.7420 C   0  0  0  0  0  0  0  0  0  0  0  0
   -9.1223   -6.8402   -2.6260 C   0  0  0  0  0  0  0  0  0  0  0  0
  -10.0795   -7.2484   -4.0402 Cl  0  0  0  0  0  0  0  0  0  0  0  0
   -8.1470   -5.8901   -2.6501 C   0  0  0  0  0  0  0  0  0  0  0  0
   -7.6531   -5.2271   -4.2116 Cl  0  0  0  0  0  0  0  0  0  0  0  0
   -6.1581   -3.5235   -1.7977 C   0  0  0  0  0  0  0  0  0  0  0  0
   -4.9790   -2.7475   -1.6223 C   0  0  0  0  0  0  0  0  0  0  0  0
   -3.9382   -3.1853   -0.7841 C   0  0  0  0  0  0  0  0  0  0  0  0
   -2.5887   -2.5645   -0.8314 C   0  0  0  0  0  0  0  0  0  0  0  0
   -2.0866   -1.1477   -0.0607 S   0  0  0  0  0  0  0  0  0  0  0  0
   -0.4722   -1.3150   -0.6153 C   0  0  0  0  0  0  0  0  0  0  0  0
    0.7475   -0.4903   -0.2690 C   0  0  0  0  0  0  0  0  0  0  0  0
    1.2609    0.3374   -1.4679 C   0  0  0  0  0  0  0  0  0  0  0  0
   -0.3737   -2.4771   -1.3693 C   0  0  0  0  0  0  0  0  0  0  0  0
   -1.5455   -3.1979   -1.4736 C   0  0  0  0  0  0  0  0  0  0  0  0
   -1.7845   -4.6096   -2.4174 Cl  0  0  0  0  0  0  0  0  0  0  0  0
    1.0897   -3.0672   -2.1068 Cl  0  0  0  0  0  0  0  0  0  0  0  0
   -4.1667   -4.3895   -0.1657 C   0  0  0  0  0  0  0  0  0  0  0  0
   -3.0489   -5.1484    0.8817 S   0  0  0  0  0  0  0  0  0  0  0  0
   -5.0002   -1.5632   -2.2643 C   0  0  0  0  0  0  0  0  0  0  0  0
   -6.1620   -1.2501   -2.9855 C   0  0  0  0  0  0  0  0  0  0  0  0
   -7.2461   -2.4981   -2.6930 S   0  0  0  0  0  0  0  0  0  0  0  0
   -6.4446    0.1389   -3.5389 C   0  0  0  0  0  0  0  0  0  0  0  0
   -6.1162    0.5576   -4.8740 C   0  0  0  0  0  0  0  0  0  0  0  0
   -5.4930    1.8414   -4.9962 C   0  0  0  0  0  0  0  0  0  0  0  0
   -4.9236    2.3896   -6.2159 C   0  0  0  0  0  0  0  0  0  0  0  0
   -5.4144    1.9922   -7.5566 C   0  0  0  0  0  0  0  0  0  0  0  0
   -4.5321    2.0853   -8.9776 S   0  0  0  0  0  0  0  0  0  0  0  0
   -5.8364    1.7875  -10.0057 C   0  0  0  0  0  0  0  0  0  0  0  0
   -5.7941    1.7610  -11.5262 C   0  0  0  0  0  0  0  0  0  0  0  0
   -6.4495    3.0007  -12.1600 C   0  0  0  0  0  0  0  0  0  0  0  0
   -6.9825    1.6751   -9.2298 C   0  0  0  0  0  0  0  0  0  0  0  0
   -8.5671    1.4118   -9.9394 Cl  0  0  0  0  0  0  0  0  0  0  0  0
   -6.7678    1.8223   -7.8890 C   0  0  0  0  0  0  0  0  0  0  0  0
   -8.1164    1.8738   -6.7525 Cl  0  0  0  0  0  0  0  0  0  0  0  0
   -3.9877    3.4461   -5.9931 C   0  0  0  0  0  0  0  0  0  0  0  0
   -3.7615    4.0656   -4.7650 C   0  0  0  0  0  0  0  0  0  0  0  0
   -4.5409    3.6516   -3.6127 C   0  0  0  0  0  0  0  0  0  0  0  0
   -4.3412    4.3290   -2.3081 C   0  0  0  0  0  0  0  0  0  0  0  0
   -4.5659    6.0052   -2.0974 S   0  0  0  0  0  0  0  0  0  0  0  0
   -4.3497    5.9418   -0.4127 C   0  0  0  0  0  0  0  0  0  0  0  0
   -4.3558    7.1219    0.5221 C   0  0  0  0  0  0  0  0  0  0  0  0
   -2.9259    7.4576    0.9993 C   0  0  0  0  0  0  0  0  0  0  0  0
   -4.1198    4.6462   -0.0375 C   0  0  0  0  0  0  0  0  0  0  0  0
   -4.1409    3.7479   -1.0613 C   0  0  0  0  0  0  0  0  0  0  0  0
   -3.5900    2.1055   -0.7955 Cl  0  0  0  0  0  0  0  0  0  0  0  0
   -3.8559    4.1484    1.6291 Cl  0  0  0  0  0  0  0  0  0  0  0  0
   -5.3272    2.4903   -3.8159 C   0  0  0  0  0  0  0  0  0  0  0  0
   -6.0100    1.4684   -2.6268 S   0  0  0  0  0  0  0  0  0  0  0  0
   -2.5974    4.8664   -4.7462 C   0  0  0  0  0  0  0  0  0  0  0  0
   -1.7964    4.7284   -5.8886 C   0  0  0  0  0  0  0  0  0  0  0  0
   -2.6592    3.8042   -6.9827 S   0  0  0  0  0  0  0  0  0  0  0  0
   -0.3160    4.7939   -5.8589 C   0  0  0  0  0  0  0  0  0  0  0  0
    0.5815    5.3873   -4.8962 C   0  0  0  0  0  0  0  0  0  0  0  0
    1.8514    4.7507   -4.7809 C   0  0  0  0  0  0  0  0  0  0  0  0
    2.8633    4.9109   -3.7505 C   0  0  0  0  0  0  0  0  0  0  0  0
    2.8566    6.0164   -2.7794 C   0  0  0  0  0  0  0  0  0  0  0  0
    4.2542    6.9063   -2.5041 S   0  0  0  0  0  0  0  0  0  0  0  0
    3.6525    7.7571   -1.1997 C   0  0  0  0  0  0  0  0  0  0  0  0
    4.3773    8.8778   -0.4875 C   0  0  0  0  0  0  0  0  0  0  0  0
    3.8397   10.2504   -0.9241 C   0  0  0  0  0  0  0  0  0  0  0  0
    2.3402    7.3678   -0.9911 C   0  0  0  0  0  0  0  0  0  0  0  0
    1.3296    8.0809    0.2704 Cl  0  0  0  0  0  0  0  0  0  0  0  0
    1.9103    6.3689   -1.8343 C   0  0  0  0  0  0  0  0  0  0  0  0
    0.3278    5.5751   -1.6414 Cl  0  0  0  0  0  0  0  0  0  0  0  0
    3.9237    3.9343   -3.7494 C   0  0  0  0  0  0  0  0  0  0  0  0
    4.0515    2.9638   -4.7250 C   0  0  0  0  0  0  0  0  0  0  0  0
    3.1317    2.8606   -5.7917 C   0  0  0  0  0  0  0  0  0  0  0  0
    3.2222    1.7817   -6.8183 C   0  0  0  0  0  0  0  0  0  0  0  0
    3.6287    0.1339   -6.5116 S   0  0  0  0  0  0  0  0  0  0  0  0
    3.4210   -0.3584   -8.0980 C   0  0  0  0  0  0  0  0  0  0  0  0
    3.5959   -1.7502   -8.6137 C   0  0  0  0  0  0  0  0  0  0  0  0
    4.8943   -1.9218   -9.4033 C   0  0  0  0  0  0  0  0  0  0  0  0
    2.9905    0.7115   -8.8554 C   0  0  0  0  0  0  0  0  0  0  0  0
    2.8988    1.8856   -8.1632 C   0  0  0  0  0  0  0  0  0  0  0  0
    2.5722    3.4314   -8.9806 Cl  0  0  0  0  0  0  0  0  0  0  0  0
    2.5883    0.6084  -10.5626 Cl  0  0  0  0  0  0  0  0  0  0  0  0
    2.0327    3.7866   -5.7579 C   0  0  0  0  0  0  0  0  0  0  0  0
    0.5675    3.5844   -6.6091 S   0  0  0  0  0  0  0  0  0  0  0  0
    5.1131    2.0883   -4.4480 C   0  0  0  0  0  0  0  0  0  0  0  0
    5.7183    2.2487   -3.1852 C   0  0  0  0  0  0  0  0  0  0  0  0
    5.0039    3.6189   -2.4802 S   0  0  0  0  0  0  0  0  0  0  0  0
    6.6183    1.2202   -2.5610 C   0  0  0  0  0  0  0  0  0  0  0  0
    6.8734   -0.0477   -3.1331 C   0  0  0  0  0  0  0  0  0  0  0  0
    7.5910   -0.9419   -2.3516 C   0  0  0  0  0  0  0  0  0  0  0  0
    7.9575   -2.3087   -2.6186 C   0  0  0  0  0  0  0  0  0  0  0  0
    7.4078   -3.0508   -3.8110 C   0  0  0  0  0  0  0  0  0  0  0  0
    8.2846   -4.2267   -4.6295 S   0  0  0  0  0  0  0  0  0  0  0  0
    6.9751   -4.8975   -5.4420 C   0  0  0  0  0  0  0  0  0  0  0  0
    7.0821   -5.9210   -6.5376 C   0  0  0  0  0  0  0  0  0  0  0  0
    7.4955   -5.2398   -7.8441 C   0  0  0  0  0  0  0  0  0  0  0  0
    5.8638   -4.1381   -5.1379 C   0  0  0  0  0  0  0  0  0  0  0  0
    4.3009   -4.4588   -5.8602 Cl  0  0  0  0  0  0  0  0  0  0  0  0
    6.0776   -3.1633   -4.1851 C   0  0  0  0  0  0  0  0  0  0  0  0
    4.7206   -2.2257   -3.5065 Cl  0  0  0  0  0  0  0  0  0  0  0  0
    8.8165   -2.9193   -1.6945 C   0  0  0  0  0  0  0  0  0  0  0  0
    9.2420   -2.3243   -0.4986 C   0  0  0  0  0  0  0  0  0  0  0  0
    8.7752   -1.0138   -0.1645 C   0  0  0  0  0  0  0  0  0  0  0  0
    8.9401   -0.5632    1.2592 C   0  0  0  0  0  0  0  0  0  0  0  0
    9.3152    1.0029    1.7631 S   0  0  0  0  0  0  0  0  0  0  0  0
    9.1851    0.6214    3.4090 C   0  0  0  0  0  0  0  0  0  0  0  0
    9.2778    1.5716    4.5778 C   0  0  0  0  0  0  0  0  0  0  0  0
    7.8760    1.8569    5.1075 C   0  0  0  0  0  0  0  0  0  0  0  0
    8.7874   -0.7016    3.5466 C   0  0  0  0  0  0  0  0  0  0  0  0
    8.6207   -1.3501    2.3720 C   0  0  0  0  0  0  0  0  0  0  0  0
    7.9411   -2.9965    2.3137 Cl  0  0  0  0  0  0  0  0  0  0  0  0
    8.4878   -1.4820    5.0926 Cl  0  0  0  0  0  0  0  0  0  0  0  0
    8.0088   -0.3342   -1.1318 C   0  0  0  0  0  0  0  0  0  0  0  0
    7.3596    1.2672   -1.0362 S   0  0  0  0  0  0  0  0  0  0  0  0
   10.1020   -3.1656    0.2100 C   0  0  0  0  0  0  0  0  0  0  0  0
   10.3109   -4.4402   -0.3399 C   0  0  0  0  0  0  0  0  0  0  0  0
    9.4634   -4.4943   -1.7681 S   0  0  0  0  0  0  0  0  0  0  0  0
    3.7414   -4.9649    8.9805 H   0  0  0  0  0  0  0  0  0  0  0  0
    3.6723   -2.4156    8.9323 H   0  0  0  0  0  0  0  0  0  0  0  0
    3.1911    4.1620    8.1996 H   0  0  0  0  0  0  0  0  0  0  0  0
    3.8833    4.1032    9.8622 H   0  0  0  0  0  0  0  0  0  0  0  0
    5.6105    4.4173    7.9821 H   0  0  0  0  0  0  0  0  0  0  0  0
    5.1973    2.7592    7.4158 H   0  0  0  0  0  0  0  0  0  0  0  0
    5.9114    2.9912    9.0480 H   0  0  0  0  0  0  0  0  0  0  0  0
   -5.7951   -6.6548    9.4439 H   0  0  0  0  0  0  0  0  0  0  0  0
   -6.1225   -4.9505    9.8951 H   0  0  0  0  0  0  0  0  0  0  0  0
   -6.3413   -4.3612    7.4580 H   0  0  0  0  0  0  0  0  0  0  0  0
   -6.0866   -6.1104    7.0504 H   0  0  0  0  0  0  0  0  0  0  0  0
   -7.5583   -5.5981    7.9738 H   0  0  0  0  0  0  0  0  0  0  0  0
   -3.4426   -1.7386    8.3128 H   0  0  0  0  0  0  0  0  0  0  0  0
   -4.1705    1.6121    8.7657 H   0  0  0  0  0  0  0  0  0  0  0  0
   -5.6770    0.8364    7.0509 H   0  0  0  0  0  0  0  0  0  0  0  0
   -2.4126    1.1578    4.2667 H   0  0  0  0  0  0  0  0  0  0  0  0
   -2.3636   -0.5976    2.6155 H   0  0  0  0  0  0  0  0  0  0  0  0
   -4.7721   -3.0942    4.5964 H   0  0  0  0  0  0  0  0  0  0  0  0
   -5.4033   -4.7151    3.0121 H   0  0  0  0  0  0  0  0  0  0  0  0
   -3.6693   -6.6966    4.7576 H   0  0  0  0  0  0  0  0  0  0  0  0
   -3.6398   -8.0692    2.7710 H   0  0  0  0  0  0  0  0  0  0  0  0
   -6.0265   -7.0967    0.6928 H   0  0  0  0  0  0  0  0  0  0  0  0
  -10.2850   -8.8156   -0.0326 H   0  0  0  0  0  0  0  0  0  0  0  0
  -11.1649   -8.4962   -1.5978 H   0  0  0  0  0  0  0  0  0  0  0  0
  -10.0586  -10.8041   -1.3627 H   0  0  0  0  0  0  0  0  0  0  0  0
   -8.4662   -9.9737   -1.4768 H   0  0  0  0  0  0  0  0  0  0  0  0
   -9.6532   -9.8844   -2.8516 H   0  0  0  0  0  0  0  0  0  0  0  0
    1.5853   -1.1896   -0.0296 H   0  0  0  0  0  0  0  0  0  0  0  0
    0.5782    0.1718    0.5943 H   0  0  0  0  0  0  0  0  0  0  0  0
    2.3486    0.5492   -1.3622 H   0  0  0  0  0  0  0  0  0  0  0  0
    0.7230    1.3159   -1.5819 H   0  0  0  0  0  0  0  0  0  0  0  0
    1.1549   -0.2313   -2.4371 H   0  0  0  0  0  0  0  0  0  0  0  0
   -4.2249   -0.8527   -2.2405 H   0  0  0  0  0  0  0  0  0  0  0  0
   -6.2922   -0.1163   -5.6974 H   0  0  0  0  0  0  0  0  0  0  0  0
   -4.7271    1.7034  -11.8848 H   0  0  0  0  0  0  0  0  0  0  0  0
   -6.3162    0.8491  -11.8905 H   0  0  0  0  0  0  0  0  0  0  0  0
   -7.3421    2.7106  -12.7811 H   0  0  0  0  0  0  0  0  0  0  0  0
   -5.7362    3.5172  -12.8373 H   0  0  0  0  0  0  0  0  0  0  0  0
   -6.7953    3.7239  -11.3896 H   0  0  0  0  0  0  0  0  0  0  0  0
   -4.8085    8.0126    0.0469 H   0  0  0  0  0  0  0  0  0  0  0  0
   -4.9570    6.8888    1.4392 H   0  0  0  0  0  0  0  0  0  0  0  0
   -2.8374    8.5517    1.1608 H   0  0  0  0  0  0  0  0  0  0  0  0
   -2.7046    6.9430    1.9557 H   0  0  0  0  0  0  0  0  0  0  0  0
   -2.1629    7.1498    0.2375 H   0  0  0  0  0  0  0  0  0  0  0  0
   -2.2484    5.3603   -3.8356 H   0  0  0  0  0  0  0  0  0  0  0  0
    0.2494    6.1544   -4.2369 H   0  0  0  0  0  0  0  0  0  0  0  0
    4.2735    8.7497    0.6199 H   0  0  0  0  0  0  0  0  0  0  0  0
    5.4695    8.8356   -0.7081 H   0  0  0  0  0  0  0  0  0  0  0  0
    3.0332   10.1360   -1.6801 H   0  0  0  0  0  0  0  0  0  0  0  0
    4.6503   10.8478   -1.3835 H   0  0  0  0  0  0  0  0  0  0  0  0
    3.4170   10.8098   -0.0565 H   0  0  0  0  0  0  0  0  0  0  0  0
    2.7228   -2.0177   -9.2576 H   0  0  0  0  0  0  0  0  0  0  0  0
    3.6165   -2.4836   -7.7840 H   0  0  0  0  0  0  0  0  0  0  0  0
    4.7815   -2.6966  -10.2116 H   0  0  0  0  0  0  0  0  0  0  0  0
    5.7070   -2.2727   -8.7227 H   0  0  0  0  0  0  0  0  0  0  0  0
    5.2386   -0.9737   -9.8818 H   0  0  0  0  0  0  0  0  0  0  0  0
    5.4026    1.2808   -5.0840 H   0  0  0  0  0  0  0  0  0  0  0  0
    6.5106   -0.3199   -4.1151 H   0  0  0  0  0  0  0  0  0  0  0  0
    7.7842   -6.7379   -6.2718 H   0  0  0  0  0  0  0  0  0  0  0  0
    6.0924   -6.3980   -6.7005 H   0  0  0  0  0  0  0  0  0  0  0  0
    8.6041   -5.3336   -7.9800 H   0  0  0  0  0  0  0  0  0  0  0  0
    7.2380   -4.1503   -7.8145 H   0  0  0  0  0  0  0  0  0  0  0  0
    6.9708   -5.6669   -8.7099 H   0  0  0  0  0  0  0  0  0  0  0  0
    9.8443    1.0636    5.3900 H   0  0  0  0  0  0  0  0  0  0  0  0
    9.8122    2.5092    4.3314 H   0  0  0  0  0  0  0  0  0  0  0  0
    7.8841    2.3172    6.1272 H   0  0  0  0  0  0  0  0  0  0  0  0
    7.2970    0.9116    5.2185 H   0  0  0  0  0  0  0  0  0  0  0  0
    7.3255    2.4921    4.3859 H   0  0  0  0  0  0  0  0  0  0  0  0
   10.5341   -2.9111    1.1656 H   0  0  0  0  0  0  0  0  0  0  0  0
   10.9260   -5.2115    0.0842 H   0  0  0  0  0  0  0  0  0  0  0  0
  1  2  2  0
  2  3  1  0
  3  4  2  0
  4  5  1  0
  5  6  1  0
  6  7  1  0
  7  8  1  0
  8  9  1  0
  7 10  2  0
 10 11  1  0
 10 12  1  0
 12 13  1  0
  4 14  1  0
 14 15  2  0
 15 16  1  0
 16 17  1  0
 17 18  1  0
 18 19  1  0
 19 20  1  0
 20 21  1  0
 19 22  2  0
 22 23  1  0
 23 24  1  0
 22 25  1  0
 16 26  2  0
 26 27  1  0
 15 28  1  0
 28 29  2  0
 29 30  1  0
 29 31  1  0
 31 32  2  3
 32 33  1  0
 33 34  1  0
 34 35  1  0
 35 36  2  0
 36 37  1  0
 37 38  1  0
 36 39  1  0
 35 40  1  0
 40 41  2  3
 41 42  1  0
 42 43  2  3
 43 44  1  0
 44 45  2  0
 45 46  1  0
 46 47  2  0
 47 48  1  0
 48 49  1  0
 49 50  1  0
 50 51  1  0
 51 52  1  0
 50 53  2  0
 53 54  1  0
 53 55  1  0
 55 56  1  0
 47 57  1  0
 57 58  2  0
 58 59  1  0
 59 60  1  0
 60 61  1  0
 61 62  1  0
 62 63  1  0
 63 64  1  0
 62 65  2  0
 65 66  1  0
 66 67  1  0
 65 68  1  0
 59 69  2  0
 69 70  1  0
 58 71  1  0
 71 72  2  0
 72 73  1  0
 72 74  1  0
 74 75  2  0
 75 76  1  0
 76 77  2  0
 77 78  1  0
 78 79  1  0
 79 80  1  0
 80 81  1  0
 81 82  1  0
 80 83  2  0
 83 84  1  0
 83 85  1  0
 85 86  1  0
 77 87  1  0
 87 88  2  0
 88 89  1  0
 89 90  1  0
 90 91  1  0
 91 92  1  0
 92 93  1  0
 93 94  1  0
 92 95  2  0
 95 96  1  0
 96 97  1  0
 95 98  1  0
 89 99  2  0
 99100  1  0
 88101  1  0
101102  2  0
102103  1  0
102104  1  0
104105  2  0
105106  1  0
106107  2  0
107108  1  0
108109  1  0
109110  1  0
110111  1  0
111112  1  0
110113  2  0
113114  1  0
113115  1  0
115116  1  0
107117  1  0
117118  2  0
118119  1  0
119120  1  0
120121  1  0
121122  1  0
122123  1  0
123124  1  0
122125  2  0
125126  1  0
126127  1  0
125128  1  0
119129  2  0
129130  1  0
118131  1  0
131132  2  0
132133  1  0
132134  1  0
134135  2  0
135136  1  0
136137  2  0
137138  1  0
138139  1  0
139140  1  0
140141  1  0
141142  1  0
140143  2  0
143144  1  0
143145  1  0
145146  1  0
137147  1  0
147148  2  0
148149  1  0
149150  1  0
150151  1  0
151152  1  0
152153  1  0
153154  1  0
152155  2  0
155156  1  0
156157  1  0
155158  1  0
149159  2  0
159160  1  0
148161  1  0
161162  2  0
162163  1  0
 27  1  1  0
 37 33  2  0
 70 44  1  0
100 74  1  0
130104  1  0
160134  1  0
 26  3  1  0
 69 46  1  0
 99 76  1  0
129106  1  0
159136  1  0
 12  5  2  0
 30 14  1  0
 55 48  2  0
 73 57  1  0
 85 78  2  0
103 87  1  0
115108  2  0
133117  1  0
145138  2  0
163147  1  0
 23 17  2  0
 66 60  2  0
 96 90  2  0
126120  2  0
156150  2  0
  1164  1  0
  2165  1  0
  8166  1  0
  8167  1  0
  9168  1  0
  9169  1  0
  9170  1  0
 20171  1  0
 20172  1  0
 21173  1  0
 21174  1  0
 21175  1  0
 28176  1  0
 31177  1  0
 32178  1  0
 38179  1  0
 39180  1  0
 40181  1  0
 41182  1  0
 42183  1  0
 43184  1  0
 45185  1  0
 51186  1  0
 51187  1  0
 52188  1  0
 52189  1  0
 52190  1  0
 63191  1  0
 63192  1  0
 64193  1  0
 64194  1  0
 64195  1  0
 71196  1  0
 75197  1  0
 81198  1  0
 81199  1  0
 82200  1  0
 82201  1  0
 82202  1  0
 93203  1  0
 93204  1  0
 94205  1  0
 94206  1  0
 94207  1  0
101208  1  0
105209  1  0
111210  1  0
111211  1  0
112212  1  0
112213  1  0
112214  1  0
123215  1  0
123216  1  0
124217  1  0
124218  1  0
124219  1  0
131220  1  0
135221  1  0
141222  1  0
141223  1  0
142224  1  0
142225  1  0
142226  1  0
153227  1  0
153228  1  0
154229  1  0
154230  1  0
154231  1  0
161232  1  0
162233  1  0
M  END

