
     RDKit          3D

230257  0  0  0  0  0  0  0  0999 V2000
    3.5812   -5.7919   11.2423 C   0  0  0  0  0  0  0  0  0  0  0  0
    3.1935   -4.5727   10.6748 C   0  0  0  0  0  0  0  0  0  0  0  0
    2.2320   -4.7528    9.5807 C   0  0  0  0  0  0  0  0  0  0  0  0
    1.7547   -3.7115    8.7810 C   0  0  0  0  0  0  0  0  0  0  0  0
    1.9615   -2.2723    8.9786 C   0  0  0  0  0  0  0  0  0  0  0  0
    2.2206   -1.1095    7.7862 S   0  0  0  0  0  0  0  0  0  0  0  0
    2.2471    0.2580    8.7628 C   0  0  0  0  0  0  0  0  0  0  0  0
    2.4798    1.6815    8.3676 C   0  0  0  0  0  0  0  0  0  0  0  0
    3.8995    2.1399    8.6991 C   0  0  0  0  0  0  0  0  0  0  0  0
    2.0675   -0.1735   10.0586 C   0  0  0  0  0  0  0  0  0  0  0  0
    2.0056    0.9102   11.4089 Cl  0  0  0  0  0  0  0  0  0  0  0  0
    1.8795   -1.5996   10.2177 C   0  0  0  0  0  0  0  0  0  0  0  0
    1.4648   -2.2970   11.7808 Cl  0  0  0  0  0  0  0  0  0  0  0  0
    0.9193   -4.0794    7.6587 C   0  0  0  0  0  0  0  0  0  0  0  0
    0.6261   -5.3956    7.4199 C   0  0  0  0  0  0  0  0  0  0  0  0
    1.0842   -6.4224    8.2277 C   0  0  0  0  0  0  0  0  0  0  0  0
    0.8187   -7.8452    7.9001 C   0  0  0  0  0  0  0  0  0  0  0  0
    0.7551   -8.5019    6.3868 S   0  0  0  0  0  0  0  0  0  0  0  0
    0.3307  -10.0704    6.7876 C   0  0  0  0  0  0  0  0  0  0  0  0
    0.1133  -11.2164    5.8566 C   0  0  0  0  0  0  0  0  0  0  0  0
    1.3580  -12.0874    5.8092 C   0  0  0  0  0  0  0  0  0  0  0  0
    0.3207  -10.1437    8.1750 C   0  0  0  0  0  0  0  0  0  0  0  0
    0.5810   -8.8750    8.8213 C   0  0  0  0  0  0  0  0  0  0  0  0
    0.4374   -8.7373   10.5269 Cl  0  0  0  0  0  0  0  0  0  0  0  0
   -0.0210  -11.5659    9.0940 Cl  0  0  0  0  0  0  0  0  0  0  0  0
    1.9280   -6.0616    9.3399 C   0  0  0  0  0  0  0  0  0  0  0  0
    2.8123   -7.0027   10.4064 S   0  0  0  0  0  0  0  0  0  0  0  0
   -0.2347   -5.5813    6.2487 C   0  0  0  0  0  0  0  0  0  0  0  0
   -0.5972   -4.4112    5.6223 C   0  0  0  0  0  0  0  0  0  0  0  0
    0.1470   -3.1296    6.4778 S   0  0  0  0  0  0  0  0  0  0  0  0
   -1.4691   -4.3500    4.3969 C   0  0  0  0  0  0  0  0  0  0  0  0
   -1.8579   -3.1607    3.8212 C   0  0  0  0  0  0  0  0  0  0  0  0
   -2.6527   -3.3138    2.6138 C   0  0  0  0  0  0  0  0  0  0  0  0
   -3.1090   -2.2707    1.8278 C   0  0  0  0  0  0  0  0  0  0  0  0
   -2.5559   -0.9288    2.0045 C   0  0  0  0  0  0  0  0  0  0  0  0
   -2.4529   -0.0561    3.4035 S   0  0  0  0  0  0  0  0  0  0  0  0
   -1.7015    1.2989    2.8367 C   0  0  0  0  0  0  0  0  0  0  0  0
   -1.4055    2.5741    3.5995 C   0  0  0  0  0  0  0  0  0  0  0  0
    0.0707    2.7112    3.9660 C   0  0  0  0  0  0  0  0  0  0  0  0
   -1.5134    1.1015    1.4720 C   0  0  0  0  0  0  0  0  0  0  0  0
   -0.8061    2.2445    0.3938 Cl  0  0  0  0  0  0  0  0  0  0  0  0
   -1.9667   -0.1756    0.9759 C   0  0  0  0  0  0  0  0  0  0  0  0
   -1.7198   -0.6785   -0.6850 Cl  0  0  0  0  0  0  0  0  0  0  0  0
   -3.8438   -2.5868    0.6500 C   0  0  0  0  0  0  0  0  0  0  0  0
   -4.0347   -3.8960    0.2747 C   0  0  0  0  0  0  0  0  0  0  0  0
   -3.6516   -4.9554    1.0986 C   0  0  0  0  0  0  0  0  0  0  0  0
   -4.1368   -6.3121    0.9146 C   0  0  0  0  0  0  0  0  0  0  0  0
   -4.3768   -7.1850   -0.4843 S   0  0  0  0  0  0  0  0  0  0  0  0
   -5.0106   -8.5786    0.1450 C   0  0  0  0  0  0  0  0  0  0  0  0
   -5.3507   -9.8576   -0.5731 C   0  0  0  0  0  0  0  0  0  0  0  0
   -4.2329  -10.8832   -0.3513 C   0  0  0  0  0  0  0  0  0  0  0  0
   -5.0580   -8.4104    1.5208 C   0  0  0  0  0  0  0  0  0  0  0  0
   -4.5837   -7.1360    1.9806 C   0  0  0  0  0  0  0  0  0  0  0  0
   -4.7467   -6.7047    3.6758 Cl  0  0  0  0  0  0  0  0  0  0  0  0
   -5.7110   -9.5835    2.6036 Cl  0  0  0  0  0  0  0  0  0  0  0  0
   -2.8828   -4.6217    2.2874 C   0  0  0  0  0  0  0  0  0  0  0  0
   -2.0633   -5.5811    3.4043 S   0  0  0  0  0  0  0  0  0  0  0  0
   -4.6853   -4.0493   -1.0159 C   0  0  0  0  0  0  0  0  0  0  0  0
   -5.0386   -2.8008   -1.6050 C   0  0  0  0  0  0  0  0  0  0  0  0
   -4.6048   -1.6326   -0.5020 S   0  0  0  0  0  0  0  0  0  0  0  0
   -5.6736   -2.6388   -2.9347 C   0  0  0  0  0  0  0  0  0  0  0  0
   -7.3038   -2.2516   -3.3616 S   0  0  0  0  0  0  0  0  0  0  0  0
   -4.8928   -2.5233   -4.0853 C   0  0  0  0  0  0  0  0  0  0  0  0
   -5.6342   -2.1493   -5.2639 C   0  0  0  0  0  0  0  0  0  0  0  0
   -5.3448   -1.5413   -6.5706 C   0  0  0  0  0  0  0  0  0  0  0  0
   -4.4161   -0.1974   -6.5447 S   0  0  0  0  0  0  0  0  0  0  0  0
   -6.9864   -2.0731   -5.0542 C   0  0  0  0  0  0  0  0  0  0  0  0
   -7.6555   -1.6012   -6.3019 C   0  0  0  0  0  0  0  0  0  0  0  0
   -9.1607   -1.2601   -7.0218 S   0  0  0  0  0  0  0  0  0  0  0  0
   -6.6747   -1.4481   -7.2258 C   0  0  0  0  0  0  0  0  0  0  0  0
   -7.1290   -0.9966   -8.5047 C   0  0  0  0  0  0  0  0  0  0  0  0
   -8.5411   -0.9045   -8.5775 C   0  0  0  0  0  0  0  0  0  0  0  0
   -9.1945   -0.3644   -9.8499 C   0  0  0  0  0  0  0  0  0  0  0  0
   -8.6719    0.7100  -10.4973 C   0  0  0  0  0  0  0  0  0  0  0  0
   -7.6449    1.5635   -9.8817 C   0  0  0  0  0  0  0  0  0  0  0  0
   -7.6570    1.8472   -8.5314 C   0  0  0  0  0  0  0  0  0  0  0  0
   -6.5072    2.5139   -8.0675 C   0  0  0  0  0  0  0  0  0  0  0  0
   -6.2545    2.8215   -6.7161 C   0  0  0  0  0  0  0  0  0  0  0  0
   -7.2078    2.7410   -5.6136 C   0  0  0  0  0  0  0  0  0  0  0  0
   -6.8340    2.3336   -4.0055 S   0  0  0  0  0  0  0  0  0  0  0  0
   -8.2806    2.6876   -3.3012 C   0  0  0  0  0  0  0  0  0  0  0  0
   -8.6873    2.5069   -1.8669 C   0  0  0  0  0  0  0  0  0  0  0  0
   -9.5161    1.2477   -1.6609 C   0  0  0  0  0  0  0  0  0  0  0  0
   -9.1257    3.1518   -4.3004 C   0  0  0  0  0  0  0  0  0  0  0  0
  -10.7507    3.6772   -4.0161 Cl  0  0  0  0  0  0  0  0  0  0  0  0
   -8.5383    3.1993   -5.6176 C   0  0  0  0  0  0  0  0  0  0  0  0
   -9.3956    3.8818   -6.9973 Cl  0  0  0  0  0  0  0  0  0  0  0  0
   -4.9828    3.3456   -6.3859 C   0  0  0  0  0  0  0  0  0  0  0  0
   -4.1033    3.7009   -7.3718 C   0  0  0  0  0  0  0  0  0  0  0  0
   -4.3599    3.4472   -8.7019 C   0  0  0  0  0  0  0  0  0  0  0  0
   -3.4188    3.8346   -9.7166 C   0  0  0  0  0  0  0  0  0  0  0  0
   -2.5063    5.2145   -9.7049 S   0  0  0  0  0  0  0  0  0  0  0  0
   -1.5269    4.9224  -10.9982 C   0  0  0  0  0  0  0  0  0  0  0  0
   -0.4394    5.7778  -11.5567 C   0  0  0  0  0  0  0  0  0  0  0  0
    0.9131    5.1368  -11.2553 C   0  0  0  0  0  0  0  0  0  0  0  0
   -1.9808    3.7273  -11.5732 C   0  0  0  0  0  0  0  0  0  0  0  0
   -3.0261    3.0646  -10.8360 C   0  0  0  0  0  0  0  0  0  0  0  0
   -3.4687    1.4088  -11.1080 Cl  0  0  0  0  0  0  0  0  0  0  0  0
   -1.3917    3.0316  -13.0506 Cl  0  0  0  0  0  0  0  0  0  0  0  0
   -5.6328    2.8626   -9.0708 C   0  0  0  0  0  0  0  0  0  0  0  0
   -6.2824    2.3228  -10.5443 S   0  0  0  0  0  0  0  0  0  0  0  0
   -2.7850    4.0686   -6.8162 C   0  0  0  0  0  0  0  0  0  0  0  0
   -2.7350    4.0213   -5.4053 C   0  0  0  0  0  0  0  0  0  0  0  0
   -4.1908    3.4228   -4.9110 S   0  0  0  0  0  0  0  0  0  0  0  0
   -1.4189    3.7216   -4.7362 C   0  0  0  0  0  0  0  0  0  0  0  0
   -0.8413    4.5975   -3.8024 C   0  0  0  0  0  0  0  0  0  0  0  0
    0.3162    3.9813   -3.1419 C   0  0  0  0  0  0  0  0  0  0  0  0
    1.0494    4.5598   -2.1508 C   0  0  0  0  0  0  0  0  0  0  0  0
    0.6041    5.7929   -1.5077 C   0  0  0  0  0  0  0  0  0  0  0  0
   -0.0421    7.1333   -2.2516 S   0  0  0  0  0  0  0  0  0  0  0  0
   -0.5896    7.9283   -0.8916 C   0  0  0  0  0  0  0  0  0  0  0  0
   -1.2436    9.2745   -0.8210 C   0  0  0  0  0  0  0  0  0  0  0  0
   -0.1857   10.3639   -0.7357 C   0  0  0  0  0  0  0  0  0  0  0  0
   -0.1585    7.2090    0.2071 C   0  0  0  0  0  0  0  0  0  0  0  0
   -0.3564    7.6829    1.8808 Cl  0  0  0  0  0  0  0  0  0  0  0  0
    0.5011    5.9778   -0.1259 C   0  0  0  0  0  0  0  0  0  0  0  0
    0.9187    4.8172    1.0996 Cl  0  0  0  0  0  0  0  0  0  0  0  0
    2.1117    3.7912   -1.5620 C   0  0  0  0  0  0  0  0  0  0  0  0
    2.2999    2.5040   -1.9569 C   0  0  0  0  0  0  0  0  0  0  0  0
    1.5715    1.9176   -3.0176 C   0  0  0  0  0  0  0  0  0  0  0  0
    1.7966    0.5882   -3.6354 C   0  0  0  0  0  0  0  0  0  0  0  0
    1.7554    0.2315   -5.2904 S   0  0  0  0  0  0  0  0  0  0  0  0
    1.9413   -1.4162   -5.1848 C   0  0  0  0  0  0  0  0  0  0  0  0
    1.9619   -2.4308   -6.3073 C   0  0  0  0  0  0  0  0  0  0  0  0
    3.3534   -2.9610   -6.5471 C   0  0  0  0  0  0  0  0  0  0  0  0
    2.0498   -1.7427   -3.8463 C   0  0  0  0  0  0  0  0  0  0  0  0
    1.9617   -0.6042   -2.9512 C   0  0  0  0  0  0  0  0  0  0  0  0
    1.8799   -0.8096   -1.2271 Cl  0  0  0  0  0  0  0  0  0  0  0  0
    2.2624   -3.3639   -3.2609 Cl  0  0  0  0  0  0  0  0  0  0  0  0
    0.5182    2.6823   -3.5591 C   0  0  0  0  0  0  0  0  0  0  0  0
   -0.6521    2.2526   -4.6821 S   0  0  0  0  0  0  0  0  0  0  0  0
    3.4367    1.8728   -1.3058 C   0  0  0  0  0  0  0  0  0  0  0  0
    4.0775    2.6470   -0.3830 C   0  0  0  0  0  0  0  0  0  0  0  0
    3.3515    4.1862   -0.4702 S   0  0  0  0  0  0  0  0  0  0  0  0
    5.2024    2.0125    0.3886 C   0  0  0  0  0  0  0  0  0  0  0  0
    6.1467    2.6667    1.1804 C   0  0  0  0  0  0  0  0  0  0  0  0
    7.0997    1.7440    1.7936 C   0  0  0  0  0  0  0  0  0  0  0  0
    8.1561    2.1280    2.5950 C   0  0  0  0  0  0  0  0  0  0  0  0
    8.3625    3.5293    2.9774 C   0  0  0  0  0  0  0  0  0  0  0  0
    7.2348    4.6831    3.3263 S   0  0  0  0  0  0  0  0  0  0  0  0
    8.2355    5.9839    3.5528 C   0  0  0  0  0  0  0  0  0  0  0  0
    7.8437    7.4117    3.8307 C   0  0  0  0  0  0  0  0  0  0  0  0
    8.0537    8.3004    2.6145 C   0  0  0  0  0  0  0  0  0  0  0  0
    9.5359    5.5299    3.3539 C   0  0  0  0  0  0  0  0  0  0  0  0
   10.9364    6.5205    3.4478 Cl  0  0  0  0  0  0  0  0  0  0  0  0
    9.6186    4.1507    3.0023 C   0  0  0  0  0  0  0  0  0  0  0  0
   11.1427    3.4529    2.6209 Cl  0  0  0  0  0  0  0  0  0  0  0  0
    9.0202    1.0823    3.0859 C   0  0  0  0  0  0  0  0  0  0  0  0
    8.8234   -0.2188    2.7505 C   0  0  0  0  0  0  0  0  0  0  0  0
    7.7228   -0.5912    1.9461 C   0  0  0  0  0  0  0  0  0  0  0  0
    7.3262   -1.9747    1.5488 C   0  0  0  0  0  0  0  0  0  0  0  0
    5.7602   -2.5896    1.5067 S   0  0  0  0  0  0  0  0  0  0  0  0
    6.0798   -4.0940    0.9088 C   0  0  0  0  0  0  0  0  0  0  0  0
    5.0637   -5.1805    0.6498 C   0  0  0  0  0  0  0  0  0  0  0  0
    4.7597   -5.2643   -0.8444 C   0  0  0  0  0  0  0  0  0  0  0  0
    7.4508   -4.1568    0.6665 C   0  0  0  0  0  0  0  0  0  0  0  0
    8.1830   -2.9543    1.0070 C   0  0  0  0  0  0  0  0  0  0  0  0
    9.8740   -2.8397    0.6775 Cl  0  0  0  0  0  0  0  0  0  0  0  0
    8.2121   -5.5770    0.0184 Cl  0  0  0  0  0  0  0  0  0  0  0  0
    6.8930    0.4479    1.4526 C   0  0  0  0  0  0  0  0  0  0  0  0
    5.5324    0.3929    0.4747 S   0  0  0  0  0  0  0  0  0  0  0  0
    9.7582   -1.1535    3.3676 C   0  0  0  0  0  0  0  0  0  0  0  0
   10.6760   -0.4805    4.1773 C   0  0  0  0  0  0  0  0  0  0  0  0
   10.3201    1.1442    4.1553 S   0  0  0  0  0  0  0  0  0  0  0  0
    4.2677   -5.8305   12.0986 H   0  0  0  0  0  0  0  0  0  0  0  0
    3.5978   -3.6278   10.9540 H   0  0  0  0  0  0  0  0  0  0  0  0
    1.7672    2.3054    8.9336 H   0  0  0  0  0  0  0  0  0  0  0  0
    2.2436    1.7797    7.2879 H   0  0  0  0  0  0  0  0  0  0  0  0
    4.5778    1.2780    8.8607 H   0  0  0  0  0  0  0  0  0  0  0  0
    3.8747    2.7274    9.6320 H   0  0  0  0  0  0  0  0  0  0  0  0
    4.2478    2.8089    7.8936 H   0  0  0  0  0  0  0  0  0  0  0  0
   -0.7763  -11.8201    6.2012 H   0  0  0  0  0  0  0  0  0  0  0  0
   -0.0776  -10.8140    4.8475 H   0  0  0  0  0  0  0  0  0  0  0  0
    1.2406  -12.9595    6.4788 H   0  0  0  0  0  0  0  0  0  0  0  0
    2.2642  -11.4713    6.0369 H   0  0  0  0  0  0  0  0  0  0  0  0
    1.4976  -12.4662    4.7753 H   0  0  0  0  0  0  0  0  0  0  0  0
   -0.5982   -6.4730    5.9102 H   0  0  0  0  0  0  0  0  0  0  0  0
   -1.6937   -2.2427    4.3124 H   0  0  0  0  0  0  0  0  0  0  0  0
   -1.7112    3.4263    2.9595 H   0  0  0  0  0  0  0  0  0  0  0  0
   -2.0078    2.6311    4.5110 H   0  0  0  0  0  0  0  0  0  0  0  0
    0.6954    2.0591    3.3075 H   0  0  0  0  0  0  0  0  0  0  0  0
    0.1955    2.3852    5.0265 H   0  0  0  0  0  0  0  0  0  0  0  0
    0.3544    3.7770    3.9592 H   0  0  0  0  0  0  0  0  0  0  0  0
   -5.5045   -9.6364   -1.6469 H   0  0  0  0  0  0  0  0  0  0  0  0
   -6.3240  -10.2396   -0.1842 H   0  0  0  0  0  0  0  0  0  0  0  0
   -3.2835  -10.3587   -0.0838 H   0  0  0  0  0  0  0  0  0  0  0  0
   -4.0530  -11.3964   -1.3005 H   0  0  0  0  0  0  0  0  0  0  0  0
   -4.4598  -11.5591    0.4902 H   0  0  0  0  0  0  0  0  0  0  0  0
   -4.4880   -4.9342   -1.5780 H   0  0  0  0  0  0  0  0  0  0  0  0
   -3.8561   -2.7659   -4.0882 H   0  0  0  0  0  0  0  0  0  0  0  0
   -6.4897   -0.7361   -9.3081 H   0  0  0  0  0  0  0  0  0  0  0  0
  -10.0363   -0.8619  -10.2233 H   0  0  0  0  0  0  0  0  0  0  0  0
   -9.1299    1.0722  -11.3961 H   0  0  0  0  0  0  0  0  0  0  0  0
   -8.4122    1.5270   -7.8565 H   0  0  0  0  0  0  0  0  0  0  0  0
   -7.7284    2.4279   -1.2996 H   0  0  0  0  0  0  0  0  0  0  0  0
   -9.2983    3.3950   -1.5484 H   0  0  0  0  0  0  0  0  0  0  0  0
  -10.6074    1.4584   -1.6740 H   0  0  0  0  0  0  0  0  0  0  0  0
   -9.2666    0.8039   -0.6798 H   0  0  0  0  0  0  0  0  0  0  0  0
   -9.2469    0.5166   -2.4360 H   0  0  0  0  0  0  0  0  0  0  0  0
   -0.4905    6.7980  -11.0617 H   0  0  0  0  0  0  0  0  0  0  0  0
   -0.5507    5.8438  -12.6670 H   0  0  0  0  0  0  0  0  0  0  0  0
    1.6953    5.4534  -11.9709 H   0  0  0  0  0  0  0  0  0  0  0  0
    0.8032    4.0349  -11.2647 H   0  0  0  0  0  0  0  0  0  0  0  0
    1.2549    5.4262  -10.2460 H   0  0  0  0  0  0  0  0  0  0  0  0
   -2.0023    4.4254   -7.4243 H   0  0  0  0  0  0  0  0  0  0  0  0
   -1.0543    5.6150   -3.8209 H   0  0  0  0  0  0  0  0  0  0  0  0
   -1.9484    9.3544    0.0681 H   0  0  0  0  0  0  0  0  0  0  0  0
   -1.8138    9.3976   -1.7511 H   0  0  0  0  0  0  0  0  0  0  0  0
    0.5265   10.1787   -1.5654 H   0  0  0  0  0  0  0  0  0  0  0  0
   -0.6491   11.3629   -0.9232 H   0  0  0  0  0  0  0  0  0  0  0  0
    0.3165   10.3524    0.2654 H   0  0  0  0  0  0  0  0  0  0  0  0
    1.5923   -1.9229   -7.2117 H   0  0  0  0  0  0  0  0  0  0  0  0
    1.2599   -3.2764   -6.1018 H   0  0  0  0  0  0  0  0  0  0  0  0
    4.0630   -2.1851   -6.2304 H   0  0  0  0  0  0  0  0  0  0  0  0
    3.4682   -3.1339   -7.6442 H   0  0  0  0  0  0  0  0  0  0  0  0
    3.4720   -3.9166   -5.9809 H   0  0  0  0  0  0  0  0  0  0  0  0
    3.7659    0.9020   -1.5524 H   0  0  0  0  0  0  0  0  0  0  0  0
    6.1276    3.6946    1.3426 H   0  0  0  0  0  0  0  0  0  0  0  0
    6.7632    7.3895    4.0926 H   0  0  0  0  0  0  0  0  0  0  0  0
    8.4952    7.8296    4.6494 H   0  0  0  0  0  0  0  0  0  0  0  0
    7.9438    7.6869    1.6990 H   0  0  0  0  0  0  0  0  0  0  0  0
    7.2834    9.1067    2.5515 H   0  0  0  0  0  0  0  0  0  0  0  0
    9.0607    8.7733    2.6364 H   0  0  0  0  0  0  0  0  0  0  0  0
    5.4113   -6.1777    1.0325 H   0  0  0  0  0  0  0  0  0  0  0  0
    4.1210   -4.8985    1.1759 H   0  0  0  0  0  0  0  0  0  0  0  0
    5.4785   -5.8953   -1.3820 H   0  0  0  0  0  0  0  0  0  0  0  0
    4.7951   -4.2446   -1.2649 H   0  0  0  0  0  0  0  0  0  0  0  0
    3.7337   -5.6314   -0.9885 H   0  0  0  0  0  0  0  0  0  0  0  0
    9.6923   -2.1962    3.2537 H   0  0  0  0  0  0  0  0  0  0  0  0
   11.4440   -1.0412    4.6999 H   0  0  0  0  0  0  0  0  0  0  0  0
  1  2  2  0
  2  3  1  0
  3  4  2  0
  4  5  1  0
  5  6  1  0
  6  7  1  0
  7  8  1  0
  8  9  1  0
  7 10  2  0
 10 11  1  0
 10 12  1  0
 12 13  1  0
  4 14  1  0
 14 15  2  0
 15 16  1  0
 16 17  1  0
 17 18  1  0
 18 19  1  0
 19 20  1  0
 20 21  1  0
 19 22  2  0
 22 23  1  0
 23 24  1  0
 22 25  1  0
 16 26  2  0
 26 27  1  0
 15 28  1  0
 28 29  2  0
 29 30  1  0
 29 31  1  0
 31 32  2  0
 32 33  1  0
 33 34  2  0
 34 35  1  0
 35 36  1  0
 36 37  1  0
 37 38  1  0
 38 39  1  0
 37 40  2  0
 40 41  1  0
 40 42  1  0
 42 43  1  0
 34 44  1  0
 44 45  2  0
 45 46  1  0
 46 47  1  0
 47 48  1  0
 48 49  1  0
 49 50  1  0
 50 51  1  0
 49 52  2  0
 52 53  1  0
 53 54  1  0
 52 55  1  0
 46 56  2  0
 56 57  1  0
 45 58  1  0
 58 59  2  0
 59 60  1  0
 59 61  1  0
 61 62  1  0
 61 63  2  0
 63 64  1  0
 64 65  1  0
 65 66  2  0
 64 67  2  0
 67 68  1  0
 68 69  1  0
 68 70  2  0
 70 71  1  0
 71 72  2  0
 72 73  1  0
 73 74  2  3
 74 75  1  0
 75 76  2  0
 76 77  1  0
 77 78  2  0
 78 79  1  0
 79 80  1  0
 80 81  1  0
 81 82  1  0
 82 83  1  0
 81 84  2  0
 84 85  1  0
 84 86  1  0
 86 87  1  0
 78 88  1  0
 88 89  2  0
 89 90  1  0
 90 91  1  0
 91 92  1  0
 92 93  1  0
 93 94  1  0
 94 95  1  0
 93 96  2  0
 96 97  1  0
 97 98  1  0
 96 99  1  0
 90100  2  0
100101  1  0
 89102  1  0
102103  2  0
103104  1  0
103105  1  0
105106  2  0
106107  1  0
107108  2  0
108109  1  0
109110  1  0
110111  1  0
111112  1  0
112113  1  0
111114  2  0
114115  1  0
114116  1  0
116117  1  0
108118  1  0
118119  2  0
119120  1  0
120121  1  0
121122  1  0
122123  1  0
123124  1  0
124125  1  0
123126  2  0
126127  1  0
127128  1  0
126129  1  0
120130  2  0
130131  1  0
119132  1  0
132133  2  0
133134  1  0
133135  1  0
135136  2  0
136137  1  0
137138  2  0
138139  1  0
139140  1  0
140141  1  0
141142  1  0
142143  1  0
141144  2  0
144145  1  0
144146  1  0
146147  1  0
138148  1  0
148149  2  0
149150  1  0
150151  1  0
151152  1  0
152153  1  0
153154  1  0
154155  1  0
153156  2  0
156157  1  0
157158  1  0
156159  1  0
150160  2  0
160161  1  0
149162  1  0
162163  2  0
163164  1  0
 27  1  1  0
 57 31  1  0
 67 62  1  0
101 75  1  0
131105  1  0
161135  1  0
 26  3  1  0
 56 33  1  0
 70 65  1  0
100 77  1  0
130107  1  0
160137  1  0
 12  5  2  0
 30 14  1  0
 42 35  2  0
 60 44  1  0
 72 69  1  0
 86 79  2  0
104 88  1  0
116109  2  0
134118  1  0
146139  2  0
164148  1  0
 23 17  2  0
 53 47  2  0
 97 91  2  0
127121  2  0
157151  2  0
  1165  1  0
  2166  1  0
  8167  1  0
  8168  1  0
  9169  1  0
  9170  1  0
  9171  1  0
 20172  1  0
 20173  1  0
 21174  1  0
 21175  1  0
 21176  1  0
 28177  1  0
 32178  1  0
 38179  1  0
 38180  1  0
 39181  1  0
 39182  1  0
 39183  1  0
 50184  1  0
 50185  1  0
 51186  1  0
 51187  1  0
 51188  1  0
 58189  1  0
 63190  1  0
 71191  1  0
 73192  1  0
 74193  1  0
 76194  1  0
 82195  1  0
 82196  1  0
 83197  1  0
 83198  1  0
 83199  1  0
 94200  1  0
 94201  1  0
 95202  1  0
 95203  1  0
 95204  1  0
102205  1  0
106206  1  0
112207  1  0
112208  1  0
113209  1  0
113210  1  0
113211  1  0
124212  1  0
124213  1  0
125214  1  0
125215  1  0
125216  1  0
132217  1  0
136218  1  0
142219  1  0
142220  1  0
143221  1  0
143222  1  0
143223  1  0
154224  1  0
154225  1  0
155226  1  0
155227  1  0
155228  1  0
162229  1  0
163230  1  0
M  END

