
     RDKit          3D

170187  0  0  0  0  0  0  0  0999 V2000
   -8.7854   -3.7407    0.3353 C   0  0  0  0  0  0  0  0  0  0  0  0
   -9.1956   -4.8434   -0.4056 C   0  0  0  0  0  0  0  0  0  0  0  0
   -8.0446   -5.1598   -1.5903 S   0  0  0  0  0  0  0  0  0  0  0  0
   -7.0159   -3.8956   -1.1724 C   0  0  0  0  0  0  0  0  0  0  0  0
   -7.5475   -3.2076   -0.0798 C   0  0  0  0  0  0  0  0  0  0  0  0
   -6.8626   -2.1041    0.4994 C   0  0  0  0  0  0  0  0  0  0  0  0
   -7.3762   -1.5303    1.8146 C   0  0  0  0  0  0  0  0  0  0  0  0
   -7.2020   -2.5105    2.9785 C   0  0  0  0  0  0  0  0  0  0  0  0
   -5.6694   -1.6608   -0.1667 C   0  0  0  0  0  0  0  0  0  0  0  0
   -5.1758   -2.3953   -1.2634 C   0  0  0  0  0  0  0  0  0  0  0  0
   -5.8200   -3.5227   -1.7910 C   0  0  0  0  0  0  0  0  0  0  0  0
   -5.2477   -4.2978   -2.9553 C   0  0  0  0  0  0  0  0  0  0  0  0
   -4.2594   -5.3513   -2.4672 C   0  0  0  0  0  0  0  0  0  0  0  0
   -3.7988   -1.6606   -1.8808 S   0  0  0  0  0  0  0  0  0  0  0  0
   -3.8022   -0.3755   -0.8117 C   0  0  0  0  0  0  0  0  0  0  0  0
   -4.8581   -0.5111    0.0876 C   0  0  0  0  0  0  0  0  0  0  0  0
   -5.2306    0.6599    0.8941 C   0  0  0  0  0  0  0  0  0  0  0  0
   -6.2983    1.4417    0.4531 C   0  0  0  0  0  0  0  0  0  0  0  0
   -6.4389    2.7905    1.4266 S   0  0  0  0  0  0  0  0  0  0  0  0
   -5.1464    2.4140    2.4305 C   0  0  0  0  0  0  0  0  0  0  0  0
   -4.5573    1.1980    2.0392 C   0  0  0  0  0  0  0  0  0  0  0  0
   -3.4516    0.6700    2.7942 C   0  0  0  0  0  0  0  0  0  0  0  0
   -2.7295   -0.6023    2.3845 C   0  0  0  0  0  0  0  0  0  0  0  0
   -3.4518   -1.8655    2.8451 C   0  0  0  0  0  0  0  0  0  0  0  0
   -3.0364    1.4107    3.9542 C   0  0  0  0  0  0  0  0  0  0  0  0
   -3.6393    2.6440    4.2491 C   0  0  0  0  0  0  0  0  0  0  0  0
   -4.6897    3.1821    3.5041 C   0  0  0  0  0  0  0  0  0  0  0  0
   -5.3566    4.4824    3.8937 C   0  0  0  0  0  0  0  0  0  0  0  0
   -6.5041    4.2338    4.8676 C   0  0  0  0  0  0  0  0  0  0  0  0
   -2.9666    3.3059    5.6387 S   0  0  0  0  0  0  0  0  0  0  0  0
   -1.9015    2.0506    5.9267 C   0  0  0  0  0  0  0  0  0  0  0  0
   -2.0443    1.0839    4.9319 C   0  0  0  0  0  0  0  0  0  0  0  0
   -1.4243   -0.2282    5.1582 C   0  0  0  0  0  0  0  0  0  0  0  0
   -2.1648   -1.2134    5.8090 C   0  0  0  0  0  0  0  0  0  0  0  0
   -1.1533   -2.4730    6.2429 S   0  0  0  0  0  0  0  0  0  0  0  0
    0.2497   -1.7840    5.6276 C   0  0  0  0  0  0  0  0  0  0  0  0
   -0.0381   -0.5410    5.0424 C   0  0  0  0  0  0  0  0  0  0  0  0
    1.0064    0.2125    4.4139 C   0  0  0  0  0  0  0  0  0  0  0  0
    0.6861    1.3335    3.4354 C   0  0  0  0  0  0  0  0  0  0  0  0
    0.6213    2.7242    4.0733 C   0  0  0  0  0  0  0  0  0  0  0  0
    2.3438   -0.2824    4.5633 C   0  0  0  0  0  0  0  0  0  0  0  0
    2.5632   -1.5346    5.1603 C   0  0  0  0  0  0  0  0  0  0  0  0
    1.5359   -2.3272    5.6800 C   0  0  0  0  0  0  0  0  0  0  0  0
    1.8115   -3.6583    6.3413 C   0  0  0  0  0  0  0  0  0  0  0  0
    2.0824   -3.4768    7.8312 C   0  0  0  0  0  0  0  0  0  0  0  0
    4.1989   -1.9167    5.1209 S   0  0  0  0  0  0  0  0  0  0  0  0
    4.6861   -0.5080    4.3619 C   0  0  0  0  0  0  0  0  0  0  0  0
    3.5726    0.2991    4.1301 C   0  0  0  0  0  0  0  0  0  0  0  0
    3.7768    1.6606    3.6128 C   0  0  0  0  0  0  0  0  0  0  0  0
    3.7157    2.7325    4.5018 C   0  0  0  0  0  0  0  0  0  0  0  0
    4.4085    4.0838    3.7937 S   0  0  0  0  0  0  0  0  0  0  0  0
    4.8330    3.3254    2.3564 C   0  0  0  0  0  0  0  0  0  0  0  0
    4.4093    1.9882    2.3777 C   0  0  0  0  0  0  0  0  0  0  0  0
    4.6871    1.1346    1.2632 C   0  0  0  0  0  0  0  0  0  0  0  0
    3.8491   -0.1095    0.9941 C   0  0  0  0  0  0  0  0  0  0  0  0
    2.8236    0.1453   -0.1058 C   0  0  0  0  0  0  0  0  0  0  0  0
    5.6007    1.6341    0.2791 C   0  0  0  0  0  0  0  0  0  0  0  0
    6.0009    2.9783    0.3179 C   0  0  0  0  0  0  0  0  0  0  0  0
    5.5930    3.8704    1.3158 C   0  0  0  0  0  0  0  0  0  0  0  0
    6.0764    5.3016    1.3488 C   0  0  0  0  0  0  0  0  0  0  0  0
    7.4118    5.4117    2.0788 C   0  0  0  0  0  0  0  0  0  0  0  0
    7.1001    3.2850   -0.9139 S   0  0  0  0  0  0  0  0  0  0  0  0
    7.1289    1.7212   -1.5124 C   0  0  0  0  0  0  0  0  0  0  0  0
    6.2461    0.9272   -0.7800 C   0  0  0  0  0  0  0  0  0  0  0  0
    6.3001   -0.5367   -0.9201 C   0  0  0  0  0  0  0  0  0  0  0  0
    7.0458   -1.2499    0.0178 C   0  0  0  0  0  0  0  0  0  0  0  0
    6.8375   -2.8863   -0.2357 S   0  0  0  0  0  0  0  0  0  0  0  0
    5.8097   -2.7269   -1.5543 C   0  0  0  0  0  0  0  0  0  0  0  0
    5.6128   -1.3694   -1.8645 C   0  0  0  0  0  0  0  0  0  0  0  0
    4.7997   -1.0110   -2.9973 C   0  0  0  0  0  0  0  0  0  0  0  0
    4.7252    0.4177   -3.5012 C   0  0  0  0  0  0  0  0  0  0  0  0
    5.7956    0.6801   -4.5581 C   0  0  0  0  0  0  0  0  0  0  0  0
    4.1689   -2.0826   -3.7221 C   0  0  0  0  0  0  0  0  0  0  0  0
    4.3866   -3.4128   -3.3258 C   0  0  0  0  0  0  0  0  0  0  0  0
    5.2016   -3.7727   -2.2513 C   0  0  0  0  0  0  0  0  0  0  0  0
    5.4536   -5.2208   -1.8935 C   0  0  0  0  0  0  0  0  0  0  0  0
    6.6621   -5.7617   -2.6506 C   0  0  0  0  0  0  0  0  0  0  0  0
    3.5501   -4.4671   -4.3301 S   0  0  0  0  0  0  0  0  0  0  0  0
    2.8716   -3.2850   -5.2947 C   0  0  0  0  0  0  0  0  0  0  0  0
    3.2744   -2.0296   -4.8439 C   0  0  0  0  0  0  0  0  0  0  0  0
    2.8334   -0.8481   -5.6063 C   0  0  0  0  0  0  0  0  0  0  0  0
    3.4755   -0.5468   -6.8069 C   0  0  0  0  0  0  0  0  0  0  0  0
    2.7165    0.7531   -7.5385 S   0  0  0  0  0  0  0  0  0  0  0  0
    1.5312    0.9434   -6.3653 C   0  0  0  0  0  0  0  0  0  0  0  0
    1.6959   -0.0204   -5.3513 C   0  0  0  0  0  0  0  0  0  0  0  0
    0.7708   -0.0558   -4.2580 C   0  0  0  0  0  0  0  0  0  0  0  0
    0.8649   -1.0388   -3.1083 C   0  0  0  0  0  0  0  0  0  0  0  0
    0.0416   -2.2936   -3.3826 C   0  0  0  0  0  0  0  0  0  0  0  0
   -0.3068    0.8688   -4.2927 C   0  0  0  0  0  0  0  0  0  0  0  0
   -0.4222    1.8045   -5.3212 C   0  0  0  0  0  0  0  0  0  0  0  0
    0.4940    1.8874   -6.3730 C   0  0  0  0  0  0  0  0  0  0  0  0
    0.3263    2.8849   -7.4946 C   0  0  0  0  0  0  0  0  0  0  0  0
   -0.5274    2.3017   -8.6158 C   0  0  0  0  0  0  0  0  0  0  0  0
   -1.8033    2.7347   -5.0766 S   0  0  0  0  0  0  0  0  0  0  0  0
   -2.2802    1.9642   -3.6596 C   0  0  0  0  0  0  0  0  0  0  0  0
   -1.3599    0.9656   -3.3625 C   0  0  0  0  0  0  0  0  0  0  0  0
   -9.3883   -3.3411    1.1380 H   0  0  0  0  0  0  0  0  0  0  0  0
  -10.1111   -5.3985   -0.2507 H   0  0  0  0  0  0  0  0  0  0  0  0
   -6.8760   -0.6048    2.1180 H   0  0  0  0  0  0  0  0  0  0  0  0
   -8.4505   -1.2697    1.7098 H   0  0  0  0  0  0  0  0  0  0  0  0
   -7.5370   -2.0282    3.9209 H   0  0  0  0  0  0  0  0  0  0  0  0
   -7.7994   -3.4317    2.8353 H   0  0  0  0  0  0  0  0  0  0  0  0
   -6.1409   -2.8009    3.0929 H   0  0  0  0  0  0  0  0  0  0  0  0
   -6.0561   -4.7945   -3.5326 H   0  0  0  0  0  0  0  0  0  0  0  0
   -4.7349   -3.6133   -3.6638 H   0  0  0  0  0  0  0  0  0  0  0  0
   -4.7667   -6.0693   -1.7883 H   0  0  0  0  0  0  0  0  0  0  0  0
   -3.8516   -5.9097   -3.3360 H   0  0  0  0  0  0  0  0  0  0  0  0
   -3.4162   -4.8694   -1.9276 H   0  0  0  0  0  0  0  0  0  0  0  0
   -3.1218    0.4645   -0.8453 H   0  0  0  0  0  0  0  0  0  0  0  0
   -6.9241    1.2276   -0.4038 H   0  0  0  0  0  0  0  0  0  0  0  0
   -2.5524   -0.6349    1.3030 H   0  0  0  0  0  0  0  0  0  0  0  0
   -1.6960   -0.6223    2.7584 H   0  0  0  0  0  0  0  0  0  0  0  0
   -4.1643   -2.2028    2.0715 H   0  0  0  0  0  0  0  0  0  0  0  0
   -2.7164   -2.6827    3.0021 H   0  0  0  0  0  0  0  0  0  0  0  0
   -4.0029   -1.6944    3.7921 H   0  0  0  0  0  0  0  0  0  0  0  0
   -4.6222    5.1727    4.3605 H   0  0  0  0  0  0  0  0  0  0  0  0
   -5.7447    5.0061    2.9947 H   0  0  0  0  0  0  0  0  0  0  0  0
   -6.9781    5.2005    5.1384 H   0  0  0  0  0  0  0  0  0  0  0  0
   -6.1267    3.7508    5.7940 H   0  0  0  0  0  0  0  0  0  0  0  0
   -7.2717    3.5800    4.4017 H   0  0  0  0  0  0  0  0  0  0  0  0
   -1.2497    1.9764    6.7876 H   0  0  0  0  0  0  0  0  0  0  0  0
   -3.2153   -1.1482    6.0604 H   0  0  0  0  0  0  0  0  0  0  0  0
   -0.2712    1.1291    2.9199 H   0  0  0  0  0  0  0  0  0  0  0  0
    1.4202    1.3358    2.6053 H   0  0  0  0  0  0  0  0  0  0  0  0
    1.3169    3.4150    3.5549 H   0  0  0  0  0  0  0  0  0  0  0  0
   -0.3903    3.1587    3.9439 H   0  0  0  0  0  0  0  0  0  0  0  0
    0.8682    2.6956    5.1555 H   0  0  0  0  0  0  0  0  0  0  0  0
    2.6833   -4.1566    5.8675 H   0  0  0  0  0  0  0  0  0  0  0  0
    0.9495   -4.3452    6.2057 H   0  0  0  0  0  0  0  0  0  0  0  0
    1.2021   -3.0196    8.3308 H   0  0  0  0  0  0  0  0  0  0  0  0
    2.9693   -2.8261    7.9856 H   0  0  0  0  0  0  0  0  0  0  0  0
    2.2806   -4.4651    8.2967 H   0  0  0  0  0  0  0  0  0  0  0  0
    5.7112   -0.2499    4.1284 H   0  0  0  0  0  0  0  0  0  0  0  0
    3.3555    2.6839    5.5213 H   0  0  0  0  0  0  0  0  0  0  0  0
    3.2655   -0.4381    1.8623 H   0  0  0  0  0  0  0  0  0  0  0  0
    4.4744   -0.9819    0.7473 H   0  0  0  0  0  0  0  0  0  0  0  0
    2.2534   -0.7867   -0.3030 H   0  0  0  0  0  0  0  0  0  0  0  0
    3.3152    0.4620   -1.0427 H   0  0  0  0  0  0  0  0  0  0  0  0
    2.1128    0.9385    0.2078 H   0  0  0  0  0  0  0  0  0  0  0  0
    6.1885    5.6929    0.3154 H   0  0  0  0  0  0  0  0  0  0  0  0
    5.3276    5.9500    1.8518 H   0  0  0  0  0  0  0  0  0  0  0  0
    7.3091    5.0630    3.1282 H   0  0  0  0  0  0  0  0  0  0  0  0
    8.1852    4.8012    1.5661 H   0  0  0  0  0  0  0  0  0  0  0  0
    7.7440    6.4708    2.0873 H   0  0  0  0  0  0  0  0  0  0  0  0
    7.8022    1.3728   -2.2821 H   0  0  0  0  0  0  0  0  0  0  0  0
    7.6298   -0.8161    0.8194 H   0  0  0  0  0  0  0  0  0  0  0  0
    3.7301    0.6594   -3.8935 H   0  0  0  0  0  0  0  0  0  0  0  0
    4.8111    1.1624   -2.7025 H   0  0  0  0  0  0  0  0  0  0  0  0
    6.8067    0.5213   -4.1364 H   0  0  0  0  0  0  0  0  0  0  0  0
    5.6826   -0.0104   -5.4151 H   0  0  0  0  0  0  0  0  0  0  0  0
    5.7145    1.7255   -4.9233 H   0  0  0  0  0  0  0  0  0  0  0  0
    5.6255   -5.3301   -0.8019 H   0  0  0  0  0  0  0  0  0  0  0  0
    4.5643   -5.8429   -2.1284 H   0  0  0  0  0  0  0  0  0  0  0  0
    6.4920   -5.6953   -3.7462 H   0  0  0  0  0  0  0  0  0  0  0  0
    7.5729   -5.1838   -2.3862 H   0  0  0  0  0  0  0  0  0  0  0  0
    6.8249   -6.8257   -2.3801 H   0  0  0  0  0  0  0  0  0  0  0  0
    2.2209   -3.4713   -6.1393 H   0  0  0  0  0  0  0  0  0  0  0  0
    4.3271   -1.0761   -7.2147 H   0  0  0  0  0  0  0  0  0  0  0  0
    0.5094   -0.5729   -2.1671 H   0  0  0  0  0  0  0  0  0  0  0  0
    1.9031   -1.3007   -2.8720 H   0  0  0  0  0  0  0  0  0  0  0  0
    0.1809   -3.0194   -2.5542 H   0  0  0  0  0  0  0  0  0  0  0  0
    0.3555   -2.7697   -4.3330 H   0  0  0  0  0  0  0  0  0  0  0  0
   -1.0366   -2.0385   -3.4534 H   0  0  0  0  0  0  0  0  0  0  0  0
   -0.1495    3.8150   -7.1170 H   0  0  0  0  0  0  0  0  0  0  0  0
    1.3163    3.1812   -7.9019 H   0  0  0  0  0  0  0  0  0  0  0  0
   -1.5338    2.0287   -8.2329 H   0  0  0  0  0  0  0  0  0  0  0  0
   -0.6468    3.0552   -9.4222 H   0  0  0  0  0  0  0  0  0  0  0  0
   -0.0407    1.3989   -9.0421 H   0  0  0  0  0  0  0  0  0  0  0  0
   -3.1607    2.1998   -3.0770 H   0  0  0  0  0  0  0  0  0  0  0  0
   -1.4725    0.3285   -2.5004 H   0  0  0  0  0  0  0  0  0  0  0  0
  1  2  2  0
  2  3  1  0
  3  4  1  0
  4  5  2  0
  5  6  1  0
  6  7  1  0
  7  8  1  0
  6  9  2  0
  9 10  1  0
 10 11  2  0
 11 12  1  0
 12 13  1  0
 10 14  1  0
 14 15  1  0
 15 16  2  0
 16 17  1  0
 17 18  2  0
 18 19  1  0
 19 20  1  0
 20 21  2  0
 21 22  1  0
 22 23  1  0
 23 24  1  0
 22 25  2  0
 25 26  1  0
 26 27  2  0
 27 28  1  0
 28 29  1  0
 26 30  1  0
 30 31  1  0
 31 32  2  0
 32 33  1  0
 33 34  2  0
 34 35  1  0
 35 36  1  0
 36 37  2  0
 37 38  1  0
 38 39  1  0
 39 40  1  0
 38 41  2  0
 41 42  1  0
 42 43  2  0
 43 44  1  0
 44 45  1  0
 42 46  1  0
 46 47  1  0
 47 48  2  0
 48 49  1  0
 49 50  2  0
 50 51  1  0
 51 52  1  0
 52 53  2  0
 53 54  1  0
 54 55  1  0
 55 56  1  0
 54 57  2  0
 57 58  1  0
 58 59  2  0
 59 60  1  0
 60 61  1  0
 58 62  1  0
 62 63  1  0
 63 64  2  0
 64 65  1  0
 65 66  2  0
 66 67  1  0
 67 68  1  0
 68 69  2  0
 69 70  1  0
 70 71  1  0
 71 72  1  0
 70 73  2  0
 73 74  1  0
 74 75  2  0
 75 76  1  0
 76 77  1  0
 74 78  1  0
 78 79  1  0
 79 80  2  0
 80 81  1  0
 81 82  2  0
 82 83  1  0
 83 84  1  0
 84 85  2  0
 85 86  1  0
 86 87  1  0
 87 88  1  0
 86 89  2  0
 89 90  1  0
 90 91  2  0
 91 92  1  0
 92 93  1  0
 90 94  1  0
 94 95  1  0
 95 96  2  0
  5  1  1  0
 16  9  1  0
 21 17  1  0
 32 25  1  0
 37 33  1  0
 48 41  1  0
 53 49  1  0
 64 57  1  0
 69 65  1  0
 80 73  1  0
 85 81  1  0
 96 89  1  0
 11  4  1  0
 27 20  1  0
 43 36  1  0
 59 52  1  0
 75 68  1  0
 91 84  1  0
  1 97  1  0
  2 98  1  0
  7 99  1  0
  7100  1  0
  8101  1  0
  8102  1  0
  8103  1  0
 12104  1  0
 12105  1  0
 13106  1  0
 13107  1  0
 13108  1  0
 15109  1  0
 18110  1  0
 23111  1  0
 23112  1  0
 24113  1  0
 24114  1  0
 24115  1  0
 28116  1  0
 28117  1  0
 29118  1  0
 29119  1  0
 29120  1  0
 31121  1  0
 34122  1  0
 39123  1  0
 39124  1  0
 40125  1  0
 40126  1  0
 40127  1  0
 44128  1  0
 44129  1  0
 45130  1  0
 45131  1  0
 45132  1  0
 47133  1  0
 50134  1  0
 55135  1  0
 55136  1  0
 56137  1  0
 56138  1  0
 56139  1  0
 60140  1  0
 60141  1  0
 61142  1  0
 61143  1  0
 61144  1  0
 63145  1  0
 66146  1  0
 71147  1  0
 71148  1  0
 72149  1  0
 72150  1  0
 72151  1  0
 76152  1  0
 76153  1  0
 77154  1  0
 77155  1  0
 77156  1  0
 79157  1  0
 82158  1  0
 87159  1  0
 87160  1  0
 88161  1  0
 88162  1  0
 88163  1  0
 92164  1  0
 92165  1  0
 93166  1  0
 93167  1  0
 93168  1  0
 95169  1  0
 96170  1  0
M  END

