
     RDKit          3D

204227  0  0  0  0  0  0  0  0999 V2000
   14.1590    3.9872   -6.4745 C   0  0  0  0  0  0  0  0  0  0  0  0
   13.6892    2.6787   -6.4119 C   0  0  0  0  0  0  0  0  0  0  0  0
   12.2866    2.5968   -6.3677 C   0  0  0  0  0  0  0  0  0  0  0  0
   11.5087    1.4164   -6.2819 C   0  0  0  0  0  0  0  0  0  0  0  0
   12.1262    0.0892   -6.0975 C   0  0  0  0  0  0  0  0  0  0  0  0
   12.0375   -0.7982   -4.6702 S   0  0  0  0  0  0  0  0  0  0  0  0
   13.0541   -2.0433   -5.1635 C   0  0  0  0  0  0  0  0  0  0  0  0
   13.5370   -3.1371   -4.2617 C   0  0  0  0  0  0  0  0  0  0  0  0
   14.8138   -2.7137   -3.5445 C   0  0  0  0  0  0  0  0  0  0  0  0
   13.5006   -1.7655   -6.4601 C   0  0  0  0  0  0  0  0  0  0  0  0
   14.6328   -2.7896   -7.3309 Cl  0  0  0  0  0  0  0  0  0  0  0  0
   12.9686   -0.5764   -6.9863 C   0  0  0  0  0  0  0  0  0  0  0  0
   13.3328    0.0139   -8.6057 Cl  0  0  0  0  0  0  0  0  0  0  0  0
   10.1106    1.5776   -6.2176 C   0  0  0  0  0  0  0  0  0  0  0  0
    9.5062    2.8329   -6.2042 C   0  0  0  0  0  0  0  0  0  0  0  0
   10.2805    4.0033   -6.2884 C   0  0  0  0  0  0  0  0  0  0  0  0
    9.6546    5.3309   -6.2634 C   0  0  0  0  0  0  0  0  0  0  0  0
    9.0446    6.1181   -7.6136 S   0  0  0  0  0  0  0  0  0  0  0  0
    8.2915    7.3656   -6.7673 C   0  0  0  0  0  0  0  0  0  0  0  0
    7.3444    8.3492   -7.3904 C   0  0  0  0  0  0  0  0  0  0  0  0
    5.9339    7.7689   -7.4204 C   0  0  0  0  0  0  0  0  0  0  0  0
    8.4951    7.1647   -5.4036 C   0  0  0  0  0  0  0  0  0  0  0  0
    9.2577    6.0223   -5.1226 C   0  0  0  0  0  0  0  0  0  0  0  0
    9.5714    5.4382   -3.4925 Cl  0  0  0  0  0  0  0  0  0  0  0  0
    7.7740    8.1726   -4.1528 Cl  0  0  0  0  0  0  0  0  0  0  0  0
   11.6676    3.8498   -6.3797 C   0  0  0  0  0  0  0  0  0  0  0  0
   12.8437    5.0501   -6.4574 S   0  0  0  0  0  0  0  0  0  0  0  0
    8.1126    2.7740   -6.1045 C   0  0  0  0  0  0  0  0  0  0  0  0
    7.6230    1.4698   -6.0782 C   0  0  0  0  0  0  0  0  0  0  0  0
    8.9172    0.3840   -6.1517 S   0  0  0  0  0  0  0  0  0  0  0  0
    6.2098    1.1210   -5.9486 C   0  0  0  0  0  0  0  0  0  0  0  0
    5.3246    1.7768   -5.1026 C   0  0  0  0  0  0  0  0  0  0  0  0
    3.9963    1.3690   -5.2852 C   0  0  0  0  0  0  0  0  0  0  0  0
    2.8821    1.8578   -4.5831 C   0  0  0  0  0  0  0  0  0  0  0  0
    3.0245    2.7534   -3.4186 C   0  0  0  0  0  0  0  0  0  0  0  0
    3.6049    4.3288   -3.4624 S   0  0  0  0  0  0  0  0  0  0  0  0
    3.4668    4.6168   -1.8108 C   0  0  0  0  0  0  0  0  0  0  0  0
    3.9456    5.8580   -1.1244 C   0  0  0  0  0  0  0  0  0  0  0  0
    5.4116    5.7194   -0.7342 C   0  0  0  0  0  0  0  0  0  0  0  0
    2.9718    3.4702   -1.1976 C   0  0  0  0  0  0  0  0  0  0  0  0
    2.7235    3.3235    0.5389 Cl  0  0  0  0  0  0  0  0  0  0  0  0
    2.7150    2.4268   -2.0991 C   0  0  0  0  0  0  0  0  0  0  0  0
    2.1461    0.8413   -1.5913 Cl  0  0  0  0  0  0  0  0  0  0  0  0
    1.6259    1.3847   -4.9813 C   0  0  0  0  0  0  0  0  0  0  0  0
    1.4561    0.4144   -5.9681 C   0  0  0  0  0  0  0  0  0  0  0  0
    2.5765   -0.1052   -6.6513 C   0  0  0  0  0  0  0  0  0  0  0  0
    2.4286   -1.0789   -7.7442 C   0  0  0  0  0  0  0  0  0  0  0  0
    1.6414   -0.7704   -9.1968 S   0  0  0  0  0  0  0  0  0  0  0  0
    1.7927   -2.3268   -9.8134 C   0  0  0  0  0  0  0  0  0  0  0  0
    1.1823   -2.7777  -11.1091 C   0  0  0  0  0  0  0  0  0  0  0  0
   -0.3246   -2.9350  -10.9595 C   0  0  0  0  0  0  0  0  0  0  0  0
    2.4507   -3.1176   -8.8767 C   0  0  0  0  0  0  0  0  0  0  0  0
    2.8128   -2.4145   -7.7160 C   0  0  0  0  0  0  0  0  0  0  0  0
    3.5815   -3.1695   -6.3275 Cl  0  0  0  0  0  0  0  0  0  0  0  0
    2.7556   -4.8335   -9.0939 Cl  0  0  0  0  0  0  0  0  0  0  0  0
    3.8395    0.4005   -6.2825 C   0  0  0  0  0  0  0  0  0  0  0  0
    5.3593    0.0439   -6.9327 S   0  0  0  0  0  0  0  0  0  0  0  0
    0.1104    0.0290   -6.1375 C   0  0  0  0  0  0  0  0  0  0  0  0
   -0.7739    0.7379   -5.3138 C   0  0  0  0  0  0  0  0  0  0  0  0
    0.1315    1.8016   -4.3634 S   0  0  0  0  0  0  0  0  0  0  0  0
   -2.2162    0.5048   -5.0602 C   0  0  0  0  0  0  0  0  0  0  0  0
   -2.9210    1.0073   -3.6219 S   0  0  0  0  0  0  0  0  0  0  0  0
   -4.4291    0.3204   -3.8226 C   0  0  0  0  0  0  0  0  0  0  0  0
   -4.4118   -0.3583   -5.0438 C   0  0  0  0  0  0  0  0  0  0  0  0
   -3.1867   -0.2388   -5.7529 C   0  0  0  0  0  0  0  0  0  0  0  0
   -3.0542   -0.8316   -7.0125 C   0  0  0  0  0  0  0  0  0  0  0  0
   -4.1091   -1.6016   -7.5374 C   0  0  0  0  0  0  0  0  0  0  0  0
   -3.9411   -2.1875   -8.8020 O   0  0  0  0  0  0  0  0  0  0  0  0
   -4.9193   -3.0005   -9.4468 C   0  0  0  0  0  0  0  0  0  0  0  0
   -5.2983   -1.7667   -6.7890 C   0  0  0  0  0  0  0  0  0  0  0  0
   -5.4493   -1.1492   -5.5462 C   0  0  0  0  0  0  0  0  0  0  0  0
   -5.4266    0.2818   -2.7421 C   0  0  0  0  0  0  0  0  0  0  0  0
   -4.9865    0.0918   -1.1355 S   0  0  0  0  0  0  0  0  0  0  0  0
   -6.4883    0.3888   -0.4545 C   0  0  0  0  0  0  0  0  0  0  0  0
   -7.3792    0.6596   -1.4943 C   0  0  0  0  0  0  0  0  0  0  0  0
   -6.7843    0.6272   -2.7722 C   0  0  0  0  0  0  0  0  0  0  0  0
   -7.5069    1.0382   -3.8962 C   0  0  0  0  0  0  0  0  0  0  0  0
   -8.8566    1.4334   -3.7472 C   0  0  0  0  0  0  0  0  0  0  0  0
   -9.6338    1.8771   -4.8274 O   0  0  0  0  0  0  0  0  0  0  0  0
   -9.1552    2.0114   -6.1652 C   0  0  0  0  0  0  0  0  0  0  0  0
   -9.4541    1.4003   -2.4759 C   0  0  0  0  0  0  0  0  0  0  0  0
   -8.7155    1.0363   -1.3446 C   0  0  0  0  0  0  0  0  0  0  0  0
   -6.6907    0.4965    0.9942 C   0  0  0  0  0  0  0  0  0  0  0  0
   -7.5797   -0.2646    1.7507 C   0  0  0  0  0  0  0  0  0  0  0  0
   -7.2250   -0.3136    3.1145 C   0  0  0  0  0  0  0  0  0  0  0  0
   -7.8196   -1.1203    4.1072 C   0  0  0  0  0  0  0  0  0  0  0  0
   -8.9920   -1.9591    3.8230 C   0  0  0  0  0  0  0  0  0  0  0  0
   -8.9872   -3.3448    2.8715 S   0  0  0  0  0  0  0  0  0  0  0  0
  -10.6137   -3.7155    3.0941 C   0  0  0  0  0  0  0  0  0  0  0  0
  -11.2920   -4.9381    2.5473 C   0  0  0  0  0  0  0  0  0  0  0  0
  -11.3287   -6.0429    3.5975 C   0  0  0  0  0  0  0  0  0  0  0  0
  -11.1783   -2.7611    3.9343 C   0  0  0  0  0  0  0  0  0  0  0  0
  -12.8583   -2.7906    4.4601 Cl  0  0  0  0  0  0  0  0  0  0  0  0
  -10.2672   -1.7793    4.3525 C   0  0  0  0  0  0  0  0  0  0  0  0
  -10.6970   -0.4369    5.4008 Cl  0  0  0  0  0  0  0  0  0  0  0  0
   -7.1658   -1.1803    5.3531 C   0  0  0  0  0  0  0  0  0  0  0  0
   -6.0060   -0.4478    5.6275 C   0  0  0  0  0  0  0  0  0  0  0  0
   -5.4585    0.4143    4.6626 C   0  0  0  0  0  0  0  0  0  0  0  0
   -4.1716    1.0990    4.8860 C   0  0  0  0  0  0  0  0  0  0  0  0
   -2.7411    0.7315    4.0882 S   0  0  0  0  0  0  0  0  0  0  0  0
   -1.7838    1.8379    4.9120 C   0  0  0  0  0  0  0  0  0  0  0  0
   -0.3472    2.1207    4.5875 C   0  0  0  0  0  0  0  0  0  0  0  0
   -0.2413    3.1337    3.4529 C   0  0  0  0  0  0  0  0  0  0  0  0
   -2.5844    2.5287    5.8219 C   0  0  0  0  0  0  0  0  0  0  0  0
   -3.9233    2.1072    5.8155 C   0  0  0  0  0  0  0  0  0  0  0  0
   -5.1636    2.7901    6.8591 Cl  0  0  0  0  0  0  0  0  0  0  0  0
   -1.9873    3.8096    6.8648 Cl  0  0  0  0  0  0  0  0  0  0  0  0
   -6.0844    0.4395    3.4092 C   0  0  0  0  0  0  0  0  0  0  0  0
   -5.5066    1.1430    2.0072 S   0  0  0  0  0  0  0  0  0  0  0  0
   -5.3914   -0.8097    6.8354 C   0  0  0  0  0  0  0  0  0  0  0  0
   -6.0402   -1.8570    7.4860 C   0  0  0  0  0  0  0  0  0  0  0  0
   -7.4159   -2.2884    6.5988 S   0  0  0  0  0  0  0  0  0  0  0  0
   -5.4601   -2.6467    8.5878 C   0  0  0  0  0  0  0  0  0  0  0  0
   -4.1435   -2.5487    9.0500 C   0  0  0  0  0  0  0  0  0  0  0  0
   -3.8142   -3.5423    9.9832 C   0  0  0  0  0  0  0  0  0  0  0  0
   -2.5518   -3.7387   10.5814 C   0  0  0  0  0  0  0  0  0  0  0  0
   -1.3896   -2.8876   10.2651 C   0  0  0  0  0  0  0  0  0  0  0  0
   -1.2485   -1.2639   10.6806 S   0  0  0  0  0  0  0  0  0  0  0  0
    0.3555   -1.0798   10.1851 C   0  0  0  0  0  0  0  0  0  0  0  0
    1.1644    0.1624   10.4212 C   0  0  0  0  0  0  0  0  0  0  0  0
    1.7593    0.7347    9.1294 C   0  0  0  0  0  0  0  0  0  0  0  0
    0.8130   -2.3129    9.7098 C   0  0  0  0  0  0  0  0  0  0  0  0
    2.4720   -2.6192    9.2265 Cl  0  0  0  0  0  0  0  0  0  0  0  0
   -0.1685   -3.3157    9.7405 C   0  0  0  0  0  0  0  0  0  0  0  0
    0.1109   -4.9473    9.1473 Cl  0  0  0  0  0  0  0  0  0  0  0  0
   -2.4360   -4.8207   11.4745 C   0  0  0  0  0  0  0  0  0  0  0  0
   -3.4890   -5.7006   11.7356 C   0  0  0  0  0  0  0  0  0  0  0  0
   -4.7396   -5.5268   11.1067 C   0  0  0  0  0  0  0  0  0  0  0  0
   -5.8332   -6.5048   11.2669 C   0  0  0  0  0  0  0  0  0  0  0  0
   -6.3775   -7.5234   10.0403 S   0  0  0  0  0  0  0  0  0  0  0  0
   -7.4613   -8.3787   10.9929 C   0  0  0  0  0  0  0  0  0  0  0  0
   -8.2130   -9.5909   10.5310 C   0  0  0  0  0  0  0  0  0  0  0  0
   -7.3956  -10.8547   10.7753 C   0  0  0  0  0  0  0  0  0  0  0  0
   -7.3968   -7.8906   12.3028 C   0  0  0  0  0  0  0  0  0  0  0  0
   -6.4962   -6.8304   12.4502 C   0  0  0  0  0  0  0  0  0  0  0  0
   -6.2287   -5.9919   13.9727 Cl  0  0  0  0  0  0  0  0  0  0  0  0
   -8.3415   -8.5519   13.6286 Cl  0  0  0  0  0  0  0  0  0  0  0  0
   -4.8697   -4.4274   10.2385 C   0  0  0  0  0  0  0  0  0  0  0  0
   -6.2055   -3.9770    9.3186 S   0  0  0  0  0  0  0  0  0  0  0  0
   -3.1352   -6.7333   12.6197 C   0  0  0  0  0  0  0  0  0  0  0  0
   -1.8259   -6.6376   13.0785 C   0  0  0  0  0  0  0  0  0  0  0  0
   -1.0954   -5.2933   12.3749 S   0  0  0  0  0  0  0  0  0  0  0  0
   15.1957    4.2758   -6.5179 H   0  0  0  0  0  0  0  0  0  0  0  0
   14.3520    1.8246   -6.3963 H   0  0  0  0  0  0  0  0  0  0  0  0
   12.7521   -3.3645   -3.5091 H   0  0  0  0  0  0  0  0  0  0  0  0
   13.7198   -4.0608   -4.8479 H   0  0  0  0  0  0  0  0  0  0  0  0
   14.6426   -1.7779   -2.9718 H   0  0  0  0  0  0  0  0  0  0  0  0
   15.6318   -2.5436   -4.2784 H   0  0  0  0  0  0  0  0  0  0  0  0
   15.1253   -3.5135   -2.8407 H   0  0  0  0  0  0  0  0  0  0  0  0
    7.3497    9.3044   -6.8206 H   0  0  0  0  0  0  0  0  0  0  0  0
    7.6664    8.5652   -8.4319 H   0  0  0  0  0  0  0  0  0  0  0  0
    5.2371    8.4924   -7.8967 H   0  0  0  0  0  0  0  0  0  0  0  0
    5.5840    7.5687   -6.3814 H   0  0  0  0  0  0  0  0  0  0  0  0
    5.9157    6.8181   -7.9982 H   0  0  0  0  0  0  0  0  0  0  0  0
    7.4781    3.6466   -6.0627 H   0  0  0  0  0  0  0  0  0  0  0  0
    5.6387    2.5224   -4.3894 H   0  0  0  0  0  0  0  0  0  0  0  0
    3.8255    6.7284   -1.8064 H   0  0  0  0  0  0  0  0  0  0  0  0
    3.3389    6.0473   -0.2149 H   0  0  0  0  0  0  0  0  0  0  0  0
    5.7602    6.6524   -0.2489 H   0  0  0  0  0  0  0  0  0  0  0  0
    5.5447    4.8696   -0.0301 H   0  0  0  0  0  0  0  0  0  0  0  0
    6.0365    5.5367   -1.6410 H   0  0  0  0  0  0  0  0  0  0  0  0
    1.6171   -3.7473  -11.4259 H   0  0  0  0  0  0  0  0  0  0  0  0
    1.4034   -2.0310  -11.9004 H   0  0  0  0  0  0  0  0  0  0  0  0
   -0.7753   -3.2202  -11.9334 H   0  0  0  0  0  0  0  0  0  0  0  0
   -0.5479   -3.7372  -10.2204 H   0  0  0  0  0  0  0  0  0  0  0  0
   -0.7958   -1.9881  -10.6096 H   0  0  0  0  0  0  0  0  0  0  0  0
   -0.1836   -0.7930   -6.7770 H   0  0  0  0  0  0  0  0  0  0  0  0
   -2.1780   -0.6822   -7.6154 H   0  0  0  0  0  0  0  0  0  0  0  0
   -5.1294   -3.9019   -8.8348 H   0  0  0  0  0  0  0  0  0  0  0  0
   -4.5301   -3.3263  -10.4319 H   0  0  0  0  0  0  0  0  0  0  0  0
   -5.8525   -2.4243   -9.6087 H   0  0  0  0  0  0  0  0  0  0  0  0
   -6.1175   -2.3616   -7.1735 H   0  0  0  0  0  0  0  0  0  0  0  0
   -6.3596   -1.2981   -4.9846 H   0  0  0  0  0  0  0  0  0  0  0  0
   -7.0252    1.0788   -4.8617 H   0  0  0  0  0  0  0  0  0  0  0  0
   -9.9643    2.4250   -6.7948 H   0  0  0  0  0  0  0  0  0  0  0  0
   -8.8539    1.0204   -6.5597 H   0  0  0  0  0  0  0  0  0  0  0  0
   -8.2912    2.7126   -6.1932 H   0  0  0  0  0  0  0  0  0  0  0  0
  -10.4873    1.6970   -2.3627 H   0  0  0  0  0  0  0  0  0  0  0  0
   -9.1808    1.0638   -0.3701 H   0  0  0  0  0  0  0  0  0  0  0  0
   -8.3679   -0.8550    1.3063 H   0  0  0  0  0  0  0  0  0  0  0  0
  -12.3257   -4.6847    2.2309 H   0  0  0  0  0  0  0  0  0  0  0  0
  -10.7345   -5.3019    1.6597 H   0  0  0  0  0  0  0  0  0  0  0  0
  -11.7855   -6.9523    3.1642 H   0  0  0  0  0  0  0  0  0  0  0  0
  -11.9324   -5.7260    4.4782 H   0  0  0  0  0  0  0  0  0  0  0  0
  -10.2998   -6.2964    3.9335 H   0  0  0  0  0  0  0  0  0  0  0  0
    0.1822    2.5094    5.4838 H   0  0  0  0  0  0  0  0  0  0  0  0
    0.1507    1.1752    4.2846 H   0  0  0  0  0  0  0  0  0  0  0  0
   -0.6993    4.0969    3.7655 H   0  0  0  0  0  0  0  0  0  0  0  0
   -0.7647    2.7595    2.5437 H   0  0  0  0  0  0  0  0  0  0  0  0
    0.8249    3.3075    3.2051 H   0  0  0  0  0  0  0  0  0  0  0  0
   -4.4465   -0.4013    7.1631 H   0  0  0  0  0  0  0  0  0  0  0  0
   -3.4384   -1.8123    8.6938 H   0  0  0  0  0  0  0  0  0  0  0  0
    0.5181    0.9406   10.8824 H   0  0  0  0  0  0  0  0  0  0  0  0
    1.9859   -0.0591   11.1357 H   0  0  0  0  0  0  0  0  0  0  0  0
    1.0238    0.7071    8.2901 H   0  0  0  0  0  0  0  0  0  0  0  0
    2.0703    1.7831    9.3032 H   0  0  0  0  0  0  0  0  0  0  0  0
    2.6655    0.1572    8.8379 H   0  0  0  0  0  0  0  0  0  0  0  0
   -8.4256   -9.4987    9.4448 H   0  0  0  0  0  0  0  0  0  0  0  0
   -9.1912   -9.6634   11.0565 H   0  0  0  0  0  0  0  0  0  0  0  0
   -6.4105  -10.7764   10.2763 H   0  0  0  0  0  0  0  0  0  0  0  0
   -7.9385  -11.7318   10.3599 H   0  0  0  0  0  0  0  0  0  0  0  0
   -7.2486  -11.0137   11.8654 H   0  0  0  0  0  0  0  0  0  0  0  0
   -3.7980   -7.5317   12.9238 H   0  0  0  0  0  0  0  0  0  0  0  0
   -1.3443   -7.3258   13.7640 H   0  0  0  0  0  0  0  0  0  0  0  0
  1  2  2  0
  2  3  1  0
  3  4  2  0
  4  5  1  0
  5  6  1  0
  6  7  1  0
  7  8  1  0
  8  9  1  0
  7 10  2  0
 10 11  1  0
 10 12  1  0
 12 13  1  0
  4 14  1  0
 14 15  2  0
 15 16  1  0
 16 17  1  0
 17 18  1  0
 18 19  1  0
 19 20  1  0
 20 21  1  0
 19 22  2  0
 22 23  1  0
 23 24  1  0
 22 25  1  0
 16 26  2  0
 26 27  1  0
 15 28  1  0
 28 29  2  0
 29 30  1  0
 29 31  1  0
 31 32  2  0
 32 33  1  0
 33 34  2  0
 34 35  1  0
 35 36  1  0
 36 37  1  0
 37 38  1  0
 38 39  1  0
 37 40  2  0
 40 41  1  0
 40 42  1  0
 42 43  1  0
 34 44  1  0
 44 45  2  0
 45 46  1  0
 46 47  1  0
 47 48  1  0
 48 49  1  0
 49 50  1  0
 50 51  1  0
 49 52  2  0
 52 53  1  0
 53 54  1  0
 52 55  1  0
 46 56  2  0
 56 57  1  0
 45 58  1  0
 58 59  2  0
 59 60  1  0
 59 61  1  0
 61 62  1  0
 62 63  1  0
 63 64  2  0
 64 65  1  0
 65 66  1  0
 66 67  2  0
 67 68  1  0
 68 69  1  0
 67 70  1  0
 70 71  2  0
 63 72  1  0
 72 73  1  0
 73 74  1  0
 74 75  2  0
 75 76  1  0
 76 77  1  0
 77 78  2  0
 78 79  1  0
 79 80  1  0
 78 81  1  0
 81 82  2  0
 74 83  1  0
 83 84  2  0
 84 85  1  0
 85 86  2  0
 86 87  1  0
 87 88  1  0
 88 89  1  0
 89 90  1  0
 90 91  1  0
 89 92  2  0
 92 93  1  0
 92 94  1  0
 94 95  1  0
 86 96  1  0
 96 97  2  0
 97 98  1  0
 98 99  1  0
 99100  1  0
100101  1  0
101102  1  0
102103  1  0
101104  2  0
104105  1  0
105106  1  0
104107  1  0
 98108  2  0
108109  1  0
 97110  1  0
110111  2  0
111112  1  0
111113  1  0
113114  2  0
114115  1  0
115116  2  0
116117  1  0
117118  1  0
118119  1  0
119120  1  0
120121  1  0
119122  2  0
122123  1  0
122124  1  0
124125  1  0
116126  1  0
126127  2  0
127128  1  0
128129  1  0
129130  1  0
130131  1  0
131132  1  0
132133  1  0
131134  2  0
134135  1  0
135136  1  0
134137  1  0
128138  2  0
138139  1  0
127140  1  0
140141  2  0
141142  1  0
 27  1  1  0
 57 31  1  0
 65 61  2  0
 76 72  2  0
109 83  1  0
139113  1  0
 26  3  1  0
 56 33  1  0
 71 64  1  0
 82 75  1  0
108 85  1  0
138115  1  0
 12  5  2  0
 30 14  1  0
 42 35  2  0
 60 44  1  0
 94 87  2  0
112 96  1  0
124117  2  0
142126  1  0
 23 17  2  0
 53 47  2  0
105 99  2  0
135129  2  0
  1143  1  0
  2144  1  0
  8145  1  0
  8146  1  0
  9147  1  0
  9148  1  0
  9149  1  0
 20150  1  0
 20151  1  0
 21152  1  0
 21153  1  0
 21154  1  0
 28155  1  0
 32156  1  0
 38157  1  0
 38158  1  0
 39159  1  0
 39160  1  0
 39161  1  0
 50162  1  0
 50163  1  0
 51164  1  0
 51165  1  0
 51166  1  0
 58167  1  0
 66168  1  0
 69169  1  0
 69170  1  0
 69171  1  0
 70172  1  0
 71173  1  0
 77174  1  0
 80175  1  0
 80176  1  0
 80177  1  0
 81178  1  0
 82179  1  0
 84180  1  0
 90181  1  0
 90182  1  0
 91183  1  0
 91184  1  0
 91185  1  0
102186  1  0
102187  1  0
103188  1  0
103189  1  0
103190  1  0
110191  1  0
114192  1  0
120193  1  0
120194  1  0
121195  1  0
121196  1  0
121197  1  0
132198  1  0
132199  1  0
133200  1  0
133201  1  0
133202  1  0
140203  1  0
141204  1  0
M  END

