
     RDKit          3D

 64 70  0  0  0  0  0  0  0  0999 V2000
    6.4679    3.1437   -0.8922 C   0  0  0  0  0  0  0  0  0  0  0  0
    5.2256    2.7418   -1.0503 O   0  0  0  0  0  0  0  0  0  0  0  0
    4.8275    3.0411   -2.2663 C   0  0  0  0  0  0  0  0  0  0  0  0
    5.8721    3.6559   -2.9421 C   0  0  0  0  0  0  0  0  0  0  0  0
    6.9242    3.7339   -2.0537 C   0  0  0  0  0  0  0  0  0  0  0  0
    5.9330    4.0143   -4.3281 N   0  0  0  0  0  4  0  0  0  0  0  0
    5.2243    3.2953   -5.2624 O   0  0  0  0  0  1  0  0  0  0  0  0
    6.7952    4.8279   -4.7189 O   0  0  0  0  0  0  0  0  0  0  0  0
    3.4618    2.7707   -2.7402 C   0  0  0  0  0  0  0  0  0  0  0  0
    2.7004    1.8262   -2.2327 O   0  0  0  0  0  0  0  0  0  0  0  0
    1.5279    1.8566   -2.8247 C   0  0  0  0  0  0  0  0  0  0  0  0
    1.5168    2.8920   -3.7495 C   0  0  0  0  0  0  0  0  0  0  0  0
    2.7646    3.4786   -3.7030 C   0  0  0  0  0  0  0  0  0  0  0  0
    0.3962    3.3995   -4.4843 N   0  0  0  0  0  4  0  0  0  0  0  0
   -0.8718    3.3177   -3.9587 O   0  0  0  0  0  1  0  0  0  0  0  0
    0.5881    4.1157   -5.4886 O   0  0  0  0  0  0  0  0  0  0  0  0
    0.4623    0.8913   -2.5163 C   0  0  0  0  0  0  0  0  0  0  0  0
    0.3745    0.2665   -1.3623 O   0  0  0  0  0  0  0  0  0  0  0  0
   -0.6529   -0.5507   -1.3973 C   0  0  0  0  0  0  0  0  0  0  0  0
   -1.2731   -0.4469   -2.6333 C   0  0  0  0  0  0  0  0  0  0  0  0
   -0.5457    0.4685   -3.3658 C   0  0  0  0  0  0  0  0  0  0  0  0
   -2.4976   -1.0645   -3.0530 N   0  0  0  0  0  4  0  0  0  0  0  0
   -3.3644   -1.5997   -2.1292 O   0  0  0  0  0  1  0  0  0  0  0  0
   -2.8521   -0.9968   -4.2476 O   0  0  0  0  0  0  0  0  0  0  0  0
   -1.0230   -1.4161   -0.2681 C   0  0  0  0  0  0  0  0  0  0  0  0
   -1.1550   -0.8835    1.3209 S   0  0  0  0  0  0  0  0  0  0  0  0
   -1.5321   -2.3722    2.0123 C   0  0  0  0  0  0  0  0  0  0  0  0
   -1.5618   -3.3258    0.9866 C   0  0  0  0  0  0  0  0  0  0  0  0
   -1.2528   -2.7935   -0.2814 C   0  0  0  0  0  0  0  0  0  0  0  0
   -1.1753   -3.6281   -1.4038 C   0  0  0  0  0  0  0  0  0  0  0  0
   -1.4784   -4.9991   -1.2710 C   0  0  0  0  0  0  0  0  0  0  0  0
   -1.4368   -5.8839   -2.3589 O   0  0  0  0  0  0  0  0  0  0  0  0
   -1.1024   -5.5060   -3.6903 C   0  0  0  0  0  0  0  0  0  0  0  0
   -1.8438   -5.5090   -0.0140 C   0  0  0  0  0  0  0  0  0  0  0  0
   -1.8899   -4.6814    1.1149 C   0  0  0  0  0  0  0  0  0  0  0  0
   -1.7396   -2.5599    3.4577 C   0  0  0  0  0  0  0  0  0  0  0  0
   -2.2484   -1.6290    4.2345 O   0  0  0  0  0  0  0  0  0  0  0  0
   -2.2849   -2.0706    5.4721 C   0  0  0  0  0  0  0  0  0  0  0  0
   -1.7720   -3.3633    5.5013 C   0  0  0  0  0  0  0  0  0  0  0  0
   -1.4042   -3.6725    4.2083 C   0  0  0  0  0  0  0  0  0  0  0  0
   -1.6527   -4.2525    6.6204 N   0  0  0  0  0  4  0  0  0  0  0  0
   -0.8646   -5.3748    6.5137 O   0  0  0  0  0  1  0  0  0  0  0  0
   -2.3922   -4.1298    7.6166 O   0  0  0  0  0  0  0  0  0  0  0  0
   -2.7686   -1.2445    6.5915 C   0  0  0  0  0  0  0  0  0  0  0  0
   -2.6150   -1.5325    7.8662 O   0  0  0  0  0  0  0  0  0  0  0  0
   -3.1498   -0.5748    8.5892 C   0  0  0  0  0  0  0  0  0  0  0  0
   -3.6699    0.3817    7.7427 C   0  0  0  0  0  0  0  0  0  0  0  0
   -3.4273   -0.0363    6.4527 C   0  0  0  0  0  0  0  0  0  0  0  0
   -4.3370    1.5869    8.1290 N   0  0  0  0  0  4  0  0  0  0  0  0
   -4.8046    2.4562    7.1713 O   0  0  0  0  0  1  0  0  0  0  0  0
   -4.5011    1.8578    9.3359 O   0  0  0  0  0  0  0  0  0  0  0  0
    7.0375    3.0179    0.0185 H   0  0  0  0  0  0  0  0  0  0  0  0
    7.9146    4.1285   -2.2386 H   0  0  0  0  0  0  0  0  0  0  0  0
    3.0887    4.3618   -4.2372 H   0  0  0  0  0  0  0  0  0  0  0  0
   -0.7298    0.7824   -4.3842 H   0  0  0  0  0  0  0  0  0  0  0  0
   -0.8882   -3.2183   -2.3613 H   0  0  0  0  0  0  0  0  0  0  0  0
   -1.8232   -4.7487   -4.0648 H   0  0  0  0  0  0  0  0  0  0  0  0
   -0.0695   -5.0999   -3.7241 H   0  0  0  0  0  0  0  0  0  0  0  0
   -1.1538   -6.4001   -4.3449 H   0  0  0  0  0  0  0  0  0  0  0  0
   -2.0954   -6.5572    0.0866 H   0  0  0  0  0  0  0  0  0  0  0  0
   -2.2031   -5.1021    2.0584 H   0  0  0  0  0  0  0  0  0  0  0  0
   -0.9282   -4.5828    3.8709 H   0  0  0  0  0  0  0  0  0  0  0  0
   -3.1671   -0.5585    9.6710 H   0  0  0  0  0  0  0  0  0  0  0  0
   -3.6936    0.4695    5.5336 H   0  0  0  0  0  0  0  0  0  0  0  0
  1  2  1  0
  2  3  1  0
  3  4  2  0
  4  5  1  0
  4  6  1  0
  6  7  1  0
  6  8  2  0
  3  9  1  0
  9 10  1  0
 10 11  1  0
 11 12  2  0
 12 13  1  0
 12 14  1  0
 14 15  1  0
 14 16  2  0
 11 17  1  0
 17 18  1  0
 18 19  1  0
 19 20  2  0
 20 21  1  0
 20 22  1  0
 22 23  1  0
 22 24  2  0
 19 25  1  0
 25 26  1  0
 26 27  1  0
 27 28  2  0
 28 29  1  0
 29 30  1  0
 30 31  2  0
 31 32  1  0
 32 33  1  0
 31 34  1  0
 34 35  2  0
 27 36  1  0
 36 37  1  0
 37 38  1  0
 38 39  2  0
 39 40  1  0
 39 41  1  0
 41 42  1  0
 41 43  2  0
 38 44  1  0
 44 45  1  0
 45 46  1  0
 46 47  2  0
 47 48  1  0
 47 49  1  0
 49 50  1  0
 49 51  2  0
  5  1  2  0
 13  9  2  0
 21 17  2  0
 29 25  2  0
 40 36  2  0
 48 44  2  0
 35 28  1  0
  1 52  1  0
  5 53  1  0
 13 54  1  0
 21 55  1  0
 30 56  1  0
 33 57  1  0
 33 58  1  0
 33 59  1  0
 34 60  1  0
 35 61  1  0
 40 62  1  0
 46 63  1  0
 48 64  1  0
M  CHG  8   6   1   7  -1  14   1  15  -1  22   1  23  -1  41   1  42  -1
M  CHG  2  49   1  50  -1
M  END

