
     RDKit          3D

129140  0  0  0  0  0  0  0  0999 V2000
    3.9137    0.1818   -2.5852 N   0  0  0  0  0  0  0  0  0  0  0  0
    4.4950   -0.6826   -1.5512 C   0  0  2  0  0  0  0  0  0  0  0  0
    5.8820   -1.2129   -1.8766 C   0  0  0  0  0  0  0  0  0  0  0  0
    6.2252   -2.4145   -0.5537 S   0  0  0  0  0  0  0  0  0  0  0  0
    4.4748   -2.8349   -0.4878 C   0  0  0  0  0  0  0  0  0  0  0  0
    4.1273   -4.2263   -0.3891 S   0  0  0  0  0  0  0  0  0  0  0  0
    3.6076   -1.8896   -1.2876 C   0  0  1  0  0  0  0  0  0  0  0  0
    2.3909   -1.3828   -0.6312 N   0  0  0  0  0  0  0  0  0  0  0  0
    1.8824   -0.0649   -1.0408 C   0  0  0  0  0  0  0  0  0  0  0  0
    2.4520    0.3778   -2.4175 C   0  0  0  0  0  0  0  0  0  0  0  0
    1.7477   -2.0262    0.4745 C   0  0  0  0  0  0  0  0  0  0  0  0
    1.1299   -3.2028    0.3321 C   0  0  0  0  0  0  0  0  0  0  0  0
    0.3805   -3.8268    1.4463 C   0  0  0  0  0  0  0  0  0  0  0  0
    0.0389   -3.0771    2.9203 S   0  0  0  0  0  0  0  0  0  0  0  0
   -0.7640   -4.3728    3.6283 C   0  0  0  0  0  0  0  0  0  0  0  0
   -0.7839   -5.4245    2.7199 C   0  0  0  0  0  0  0  0  0  0  0  0
   -0.1579   -5.1195    1.4946 C   0  0  0  0  0  0  0  0  0  0  0  0
   -0.1247   -6.0706    0.4657 C   0  0  0  0  0  0  0  0  0  0  0  0
   -0.7231   -7.3343    0.6708 C   0  0  0  0  0  0  0  0  0  0  0  0
   -0.7508   -8.3199   -0.3260 O   0  0  0  0  0  0  0  0  0  0  0  0
   -0.2187   -8.1541   -1.6382 C   0  0  0  0  0  0  0  0  0  0  0  0
   -1.3185   -7.6314    1.9105 C   0  0  0  0  0  0  0  0  0  0  0  0
   -1.3487   -6.6821    2.9402 C   0  0  0  0  0  0  0  0  0  0  0  0
   -1.3770   -4.3370    4.9300 N   0  0  0  0  0  0  0  0  0  0  0  0
   -2.8195   -4.0836    5.0539 C   0  0  2  0  0  0  0  0  0  0  0  0
   -3.7649   -4.6481    3.9898 C   0  0  0  0  0  0  0  0  0  0  0  0
   -5.3197   -3.6705    4.1121 S   0  0  0  0  0  0  0  0  0  0  0  0
   -4.5076   -2.4296    5.1319 C   0  0  0  0  0  0  0  0  0  0  0  0
   -5.1496   -1.9904    6.3405 S   0  0  0  0  0  0  0  0  0  0  0  0
   -3.0231   -2.5878    5.0289 C   0  0  1  0  0  0  0  0  0  0  0  0
   -2.1957   -1.9333    6.0643 N   0  0  0  0  0  0  0  0  0  0  0  0
   -1.3040   -2.7528    6.9045 C   0  0  0  0  0  0  0  0  0  0  0  0
   -0.5575   -3.8226    6.0545 C   0  0  0  0  0  0  0  0  0  0  0  0
   -2.0534   -0.5030    6.0700 C   0  0  0  0  0  0  0  0  0  0  0  0
   -1.7334    0.1568    4.9541 C   0  0  0  0  0  0  0  0  0  0  0  0
   -1.6827    1.5909    4.9082 N   0  0  0  0  0  0  0  0  0  0  0  0
   -2.9188    2.3904    4.9077 C   0  0  2  0  0  0  0  0  0  0  0  0
   -4.1634    1.8135    5.5825 C   0  0  0  0  0  0  0  0  0  0  0  0
   -5.6007    2.7447    4.9069 S   0  0  0  0  0  0  0  0  0  0  0  0
   -4.5872    3.4239    3.5842 C   0  0  0  0  0  0  0  0  0  0  0  0
   -4.6295    4.8424    3.3415 S   0  0  0  0  0  0  0  0  0  0  0  0
   -3.3160    2.6392    3.4650 C   0  0  1  0  0  0  0  0  0  0  0  0
   -2.2067    3.2604    2.7055 N   0  0  0  0  0  0  0  0  0  0  0  0
   -0.9177    3.4623    3.3988 C   0  0  0  0  0  0  0  0  0  0  0  0
   -0.5282    2.1944    4.2026 C   0  0  0  0  0  0  0  0  0  0  0  0
   -2.2189    3.3203    1.2604 C   0  0  0  0  0  0  0  0  0  0  0  0
   -3.2438    2.8822    0.5146 C   0  0  0  0  0  0  0  0  0  0  0  0
   -3.0795    2.6786   -0.8975 N   0  0  0  0  0  0  0  0  0  0  0  0
   -3.1840    1.3371   -1.4874 C   0  0  2  0  0  0  0  0  0  0  0  0
   -3.2501    0.1550   -0.5096 C   0  0  0  0  0  0  0  0  0  0  0  0
   -2.6421   -1.3340   -1.3992 S   0  0  0  0  0  0  0  0  0  0  0  0
   -2.0692   -0.3227   -2.7664 C   0  0  0  0  0  0  0  0  0  0  0  0
   -2.4951   -0.6649   -4.0980 S   0  0  0  0  0  0  0  0  0  0  0  0
   -1.9401    1.1005   -2.3165 C   0  0  1  0  0  0  0  0  0  0  0  0
   -1.7917    2.1227   -3.3669 N   0  0  0  0  0  0  0  0  0  0  0  0
   -2.5858    3.3629   -3.2627 C   0  0  0  0  0  0  0  0  0  0  0  0
   -2.7356    3.8076   -1.7835 C   0  0  0  0  0  0  0  0  0  0  0  0
   -0.5950    2.0806   -4.1635 C   0  0  0  0  0  0  0  0  0  0  0  0
   -0.5104    2.6343   -5.3752 C   0  0  0  0  0  0  0  0  0  0  0  0
    0.7120    2.5710   -6.1276 N   0  0  0  0  0  0  0  0  0  0  0  0
    2.0173    2.8452   -5.5035 C   0  0  2  0  0  0  0  0  0  0  0  0
    2.0545    4.0496   -4.5686 C   0  0  0  0  0  0  0  0  0  0  0  0
    3.8248    4.3971   -4.2794 S   0  0  0  0  0  0  0  0  0  0  0  0
    4.2313    3.7183   -5.8957 C   0  0  0  0  0  0  0  0  0  0  0  0
    5.2749    4.3439   -6.6640 S   0  0  0  0  0  0  0  0  0  0  0  0
    3.0296    3.1397   -6.5898 C   0  0  1  0  0  0  0  0  0  0  0  0
    3.2020    1.9031   -7.3664 N   0  0  0  0  0  0  0  0  0  0  0  0
    1.9650    1.2856   -7.9006 C   0  0  0  0  0  0  0  0  0  0  0  0
    0.6699    2.0649   -7.5179 C   0  0  0  0  0  0  0  0  0  0  0  0
    4.4357    1.1518   -7.3325 C   0  0  0  0  0  0  0  0  0  0  0  0
    4.7068    0.1758   -8.2026 C   0  0  0  0  0  0  0  0  0  0  0  0
    4.0807   -0.2432   -3.5302 H   0  0  0  0  0  0  0  0  0  0  0  0
    4.5922   -0.0793   -0.6158 H   0  0  0  0  0  0  0  0  0  0  0  0
    6.6341   -0.3970   -1.8617 H   0  0  0  0  0  0  0  0  0  0  0  0
    5.8969   -1.7270   -2.8640 H   0  0  0  0  0  0  0  0  0  0  0  0
    3.3275   -2.3665   -2.2563 H   0  0  0  0  0  0  0  0  0  0  0  0
    0.7768   -0.1100   -1.1158 H   0  0  0  0  0  0  0  0  0  0  0  0
    2.1488    0.6878   -0.2661 H   0  0  0  0  0  0  0  0  0  0  0  0
    1.9078   -0.1826   -3.2125 H   0  0  0  0  0  0  0  0  0  0  0  0
    2.2272    1.4568   -2.5521 H   0  0  0  0  0  0  0  0  0  0  0  0
    1.6553   -1.4688    1.3971 H   0  0  0  0  0  0  0  0  0  0  0  0
    1.1825   -3.7067   -0.6230 H   0  0  0  0  0  0  0  0  0  0  0  0
    0.3474   -5.8344   -0.4758 H   0  0  0  0  0  0  0  0  0  0  0  0
   -0.3986   -9.0783   -2.2218 H   0  0  0  0  0  0  0  0  0  0  0  0
    0.8770   -7.9718   -1.5848 H   0  0  0  0  0  0  0  0  0  0  0  0
   -0.7246   -7.3073   -2.1488 H   0  0  0  0  0  0  0  0  0  0  0  0
   -1.7709   -8.6012    2.0698 H   0  0  0  0  0  0  0  0  0  0  0  0
   -1.8090   -6.9307    3.8901 H   0  0  0  0  0  0  0  0  0  0  0  0
   -3.1626   -4.4971    6.0313 H   0  0  0  0  0  0  0  0  0  0  0  0
   -3.9742   -5.7225    4.1735 H   0  0  0  0  0  0  0  0  0  0  0  0
   -3.3629   -4.5147    2.9628 H   0  0  0  0  0  0  0  0  0  0  0  0
   -2.7216   -2.2189    4.0264 H   0  0  0  0  0  0  0  0  0  0  0  0
   -0.5625   -2.1145    7.4343 H   0  0  0  0  0  0  0  0  0  0  0  0
   -1.9156   -3.2591    7.6825 H   0  0  0  0  0  0  0  0  0  0  0  0
    0.3803   -3.3597    5.6810 H   0  0  0  0  0  0  0  0  0  0  0  0
   -0.2620   -4.6711    6.7055 H   0  0  0  0  0  0  0  0  0  0  0  0
   -2.1880    0.0434    6.9975 H   0  0  0  0  0  0  0  0  0  0  0  0
   -1.4697   -0.3905    4.0591 H   0  0  0  0  0  0  0  0  0  0  0  0
   -2.7054    3.3597    5.4149 H   0  0  0  0  0  0  0  0  0  0  0  0
   -4.3140    0.7467    5.3152 H   0  0  0  0  0  0  0  0  0  0  0  0
   -4.1114    1.9234    6.6851 H   0  0  0  0  0  0  0  0  0  0  0  0
   -3.5515    1.6515    3.0076 H   0  0  0  0  0  0  0  0  0  0  0  0
   -1.0087    4.3289    4.0912 H   0  0  0  0  0  0  0  0  0  0  0  0
   -0.1016    3.7074    2.6838 H   0  0  0  0  0  0  0  0  0  0  0  0
    0.2594    2.4488    4.9405 H   0  0  0  0  0  0  0  0  0  0  0  0
   -0.0918    1.4657    3.4814 H   0  0  0  0  0  0  0  0  0  0  0  0
   -1.3143    3.6276    0.7484 H   0  0  0  0  0  0  0  0  0  0  0  0
   -4.1396    2.4952    0.9751 H   0  0  0  0  0  0  0  0  0  0  0  0
   -4.0909    1.3022   -2.1371 H   0  0  0  0  0  0  0  0  0  0  0  0
   -4.2905   -0.0080   -0.1549 H   0  0  0  0  0  0  0  0  0  0  0  0
   -2.5854    0.3216    0.3656 H   0  0  0  0  0  0  0  0  0  0  0  0
   -1.0545    1.1673   -1.6459 H   0  0  0  0  0  0  0  0  0  0  0  0
   -2.1166    4.1959   -3.8306 H   0  0  0  0  0  0  0  0  0  0  0  0
   -3.5923    3.1827   -3.6976 H   0  0  0  0  0  0  0  0  0  0  0  0
   -1.7738    4.2555   -1.4543 H   0  0  0  0  0  0  0  0  0  0  0  0
   -3.5246    4.5860   -1.7126 H   0  0  0  0  0  0  0  0  0  0  0  0
    0.2442    1.5135   -3.7975 H   0  0  0  0  0  0  0  0  0  0  0  0
   -1.3891    3.0721   -5.8326 H   0  0  0  0  0  0  0  0  0  0  0  0
    2.3413    1.9451   -4.9378 H   0  0  0  0  0  0  0  0  0  0  0  0
    1.5715    4.9314   -5.0419 H   0  0  0  0  0  0  0  0  0  0  0  0
    1.5597    3.8218   -3.6032 H   0  0  0  0  0  0  0  0  0  0  0  0
    2.6208    3.9264   -7.2660 H   0  0  0  0  0  0  0  0  0  0  0  0
    2.0302    1.2205   -9.0099 H   0  0  0  0  0  0  0  0  0  0  0  0
    1.8752    0.2541   -7.4934 H   0  0  0  0  0  0  0  0  0  0  0  0
   -0.2007    1.3806   -7.6503 H   0  0  0  0  0  0  0  0  0  0  0  0
    0.5334    2.9249   -8.2101 H   0  0  0  0  0  0  0  0  0  0  0  0
    5.1886    1.3802   -6.5855 H   0  0  0  0  0  0  0  0  0  0  0  0
    4.0142   -0.1032   -8.9917 H   0  0  0  0  0  0  0  0  0  0  0  0
    5.6504   -0.3547   -8.1347 H   0  0  0  0  0  0  0  0  0  0  0  0
  1  2  1  0
  2  3  1  0
  3  4  1  0
  4  5  1  0
  5  6  2  0
  5  7  1  0
  7  8  1  0
  8  9  1  0
  9 10  1  0
  8 11  1  0
 11 12  2  3
 12 13  1  0
 13 14  1  0
 14 15  1  0
 15 16  2  0
 16 17  1  0
 17 18  1  0
 18 19  2  0
 19 20  1  0
 20 21  1  0
 19 22  1  0
 22 23  2  0
 15 24  1  0
 24 25  1  0
 25 26  1  0
 26 27  1  0
 27 28  1  0
 28 29  2  0
 28 30  1  0
 30 31  1  0
 31 32  1  0
 32 33  1  0
 31 34  1  0
 34 35  2  3
 35 36  1  0
 36 37  1  0
 37 38  1  0
 38 39  1  0
 39 40  1  0
 40 41  2  0
 40 42  1  0
 42 43  1  0
 43 44  1  0
 44 45  1  0
 43 46  1  0
 46 47  2  3
 47 48  1  0
 48 49  1  0
 49 50  1  0
 50 51  1  0
 51 52  1  0
 52 53  2  0
 52 54  1  0
 54 55  1  0
 55 56  1  0
 56 57  1  0
 55 58  1  0
 58 59  2  3
 59 60  1  0
 60 61  1  0
 61 62  1  0
 62 63  1  0
 63 64  1  0
 64 65  2  0
 64 66  1  0
 66 67  1  0
 67 68  1  0
 68 69  1  0
 67 70  1  0
 70 71  2  3
 10  1  1  0
 17 13  2  0
 33 24  1  0
 45 36  1  0
 57 48  1  0
 69 60  1  0
  7  2  1  0
 23 16  1  0
 30 25  1  0
 42 37  1  0
 54 49  1  0
 66 61  1  0
  1 72  1  0
  2 73  1  1
  3 74  1  0
  3 75  1  0
  7 76  1  6
  9 77  1  0
  9 78  1  0
 10 79  1  0
 10 80  1  0
 11 81  1  0
 12 82  1  0
 18 83  1  0
 21 84  1  0
 21 85  1  0
 21 86  1  0
 22 87  1  0
 23 88  1  0
 25 89  1  1
 26 90  1  0
 26 91  1  0
 30 92  1  6
 32 93  1  0
 32 94  1  0
 33 95  1  0
 33 96  1  0
 34 97  1  0
 35 98  1  0
 37 99  1  1
 38100  1  0
 38101  1  0
 42102  1  6
 44103  1  0
 44104  1  0
 45105  1  0
 45106  1  0
 46107  1  0
 47108  1  0
 49109  1  6
 50110  1  0
 50111  1  0
 54112  1  1
 56113  1  0
 56114  1  0
 57115  1  0
 57116  1  0
 58117  1  0
 59118  1  0
 61119  1  1
 62120  1  0
 62121  1  0
 66122  1  6
 68123  1  0
 68124  1  0
 69125  1  0
 69126  1  0
 70127  1  0
 71128  1  0
 71129  1  0
M  END

