
     RDKit          3D

154171  0  0  0  0  0  0  0  0999 V2000
    4.1247   -5.1602   12.2108 C   0  0  0  0  0  0  0  0  0  0  0  0
    3.7472   -5.9260   10.7625 S   0  0  0  0  0  0  0  0  0  0  0  0
    2.9545   -4.6329   10.0228 C   0  0  0  0  0  0  0  0  0  0  0  0
    2.9926   -3.5535   10.9183 C   0  0  0  0  0  0  0  0  0  0  0  0
    3.6390   -3.8618   12.1317 C   0  0  0  0  0  0  0  0  0  0  0  0
    3.7849   -2.9013   13.1357 C   0  0  0  0  0  0  0  0  0  0  0  0
    3.2908   -1.6051   12.9310 C   0  0  0  0  0  0  0  0  0  0  0  0
    3.4573   -0.6617   13.9562 O   0  0  0  0  0  0  0  0  0  0  0  0
    3.0186    0.6922   13.8810 C   0  0  0  0  0  0  0  0  0  0  0  0
    2.6527   -1.2892   11.7084 C   0  0  0  0  0  0  0  0  0  0  0  0
    2.5101   -2.2548   10.7026 C   0  0  0  0  0  0  0  0  0  0  0  0
    2.3603   -4.7038    8.6715 C   0  0  0  0  0  0  0  0  0  0  0  0
    2.7560   -5.5940    7.6692 C   0  0  0  0  0  0  0  0  0  0  0  0
    2.0271   -5.4435    6.4765 C   0  0  0  0  0  0  0  0  0  0  0  0
    2.2563   -6.1250    5.2627 C   0  0  0  0  0  0  0  0  0  0  0  0
    3.3721   -7.0714    5.1030 C   0  0  0  0  0  0  0  0  0  0  0  0
    3.2060   -8.7272    4.8686 S   0  0  0  0  0  0  0  0  0  0  0  0
    4.8517   -9.0456    4.7045 C   0  0  0  0  0  0  0  0  0  0  0  0
    5.4320  -10.3941    4.3884 C   0  0  0  0  0  0  0  0  0  0  0  0
    5.4723  -10.6243    2.8822 C   0  0  0  0  0  0  0  0  0  0  0  0
    5.5510   -7.8440    4.7967 C   0  0  0  0  0  0  0  0  0  0  0  0
    7.2921   -7.7130    4.6034 Cl  0  0  0  0  0  0  0  0  0  0  0  0
    4.7197   -6.7374    5.0248 C   0  0  0  0  0  0  0  0  0  0  0  0
    5.3111   -5.0859    5.1340 Cl  0  0  0  0  0  0  0  0  0  0  0  0
    1.4521   -5.7653    4.1673 C   0  0  0  0  0  0  0  0  0  0  0  0
    0.4734   -4.7730    4.2551 C   0  0  0  0  0  0  0  0  0  0  0  0
    0.2483   -4.0881    5.4634 C   0  0  0  0  0  0  0  0  0  0  0  0
   -0.6527   -2.9240    5.5317 C   0  0  0  0  0  0  0  0  0  0  0  0
   -0.3951   -1.4747    4.7170 S   0  0  0  0  0  0  0  0  0  0  0  0
   -1.8152   -0.7287    5.2212 C   0  0  0  0  0  0  0  0  0  0  0  0
   -2.2749    0.6175    4.7486 C   0  0  0  0  0  0  0  0  0  0  0  0
   -2.8722    0.5200    3.3491 C   0  0  0  0  0  0  0  0  0  0  0  0
   -2.5214   -1.6189    6.0326 C   0  0  0  0  0  0  0  0  0  0  0  0
   -1.8631   -2.8460    6.2137 C   0  0  0  0  0  0  0  0  0  0  0  0
   -2.5309   -4.1756    7.1490 Cl  0  0  0  0  0  0  0  0  0  0  0  0
   -4.0944   -1.2581    6.7321 Cl  0  0  0  0  0  0  0  0  0  0  0  0
    1.0369   -4.4614    6.5607 C   0  0  0  0  0  0  0  0  0  0  0  0
    1.0774   -3.7721    8.0891 S   0  0  0  0  0  0  0  0  0  0  0  0
   -0.1309   -4.4847    3.0267 C   0  0  0  0  0  0  0  0  0  0  0  0
    0.4015   -5.2098    1.9624 C   0  0  0  0  0  0  0  0  0  0  0  0
    1.6085   -6.2365    2.5560 S   0  0  0  0  0  0  0  0  0  0  0  0
    0.2175   -4.8091    0.5574 C   0  0  0  0  0  0  0  0  0  0  0  0
   -0.1270   -3.2280    0.1261 S   0  0  0  0  0  0  0  0  0  0  0  0
    0.0157   -3.3894   -1.5378 C   0  0  0  0  0  0  0  0  0  0  0  0
    0.3374   -4.7304   -1.7957 C   0  0  0  0  0  0  0  0  0  0  0  0
    0.4539   -5.5195   -0.6242 C   0  0  0  0  0  0  0  0  0  0  0  0
    0.7730   -6.8798   -0.7124 C   0  0  0  0  0  0  0  0  0  0  0  0
    1.0082   -7.4594   -1.9676 C   0  0  0  0  0  0  0  0  0  0  0  0
    1.3411   -8.8225   -2.0131 O   0  0  0  0  0  0  0  0  0  0  0  0
    1.7023   -9.5260   -3.1949 C   0  0  0  0  0  0  0  0  0  0  0  0
    0.9096   -6.6652   -3.1331 C   0  0  0  0  0  0  0  0  0  0  0  0
    0.5786   -5.3053   -3.0489 C   0  0  0  0  0  0  0  0  0  0  0  0
   -0.1074   -2.2290   -2.4421 C   0  0  0  0  0  0  0  0  0  0  0  0
   -0.0019   -0.9128   -1.9966 C   0  0  0  0  0  0  0  0  0  0  0  0
   -0.3049    0.0368   -2.9764 C   0  0  0  0  0  0  0  0  0  0  0  0
   -0.3296    1.4291   -2.7858 C   0  0  0  0  0  0  0  0  0  0  0  0
   -0.0745    2.0366   -1.4663 C   0  0  0  0  0  0  0  0  0  0  0  0
    1.4274    2.1226   -0.7150 S   0  0  0  0  0  0  0  0  0  0  0  0
    0.8742    2.8448    0.7016 C   0  0  0  0  0  0  0  0  0  0  0  0
    1.7491    3.2692    1.8414 C   0  0  0  0  0  0  0  0  0  0  0  0
    2.1448    4.7348    1.6977 C   0  0  0  0  0  0  0  0  0  0  0  0
   -0.5012    3.0427    0.5960 C   0  0  0  0  0  0  0  0  0  0  0  0
   -1.4708    3.7925    1.8550 Cl  0  0  0  0  0  0  0  0  0  0  0  0
   -1.0354    2.5798   -0.6153 C   0  0  0  0  0  0  0  0  0  0  0  0
   -2.7508    2.6309   -0.9970 Cl  0  0  0  0  0  0  0  0  0  0  0  0
   -0.7320    2.2094   -3.8771 C   0  0  0  0  0  0  0  0  0  0  0  0
   -1.1269    1.6558   -5.0969 C   0  0  0  0  0  0  0  0  0  0  0  0
   -1.0774    0.2565   -5.3005 C   0  0  0  0  0  0  0  0  0  0  0  0
   -1.4531   -0.3557   -6.5886 C   0  0  0  0  0  0  0  0  0  0  0  0
   -2.6818   -1.4843   -6.7950 S   0  0  0  0  0  0  0  0  0  0  0  0
   -2.5097   -1.6407   -8.4612 C   0  0  0  0  0  0  0  0  0  0  0  0
   -3.2829   -2.6044   -9.3096 C   0  0  0  0  0  0  0  0  0  0  0  0
   -2.5311   -3.9242   -9.4443 C   0  0  0  0  0  0  0  0  0  0  0  0
   -1.4654   -0.8187   -8.8801 C   0  0  0  0  0  0  0  0  0  0  0  0
   -0.8768   -0.0938   -7.8323 C   0  0  0  0  0  0  0  0  0  0  0  0
    0.5010    0.9746   -8.0640 Cl  0  0  0  0  0  0  0  0  0  0  0  0
   -0.9147   -0.7213  -10.5486 Cl  0  0  0  0  0  0  0  0  0  0  0  0
   -0.6666   -0.5282   -4.2037 C   0  0  0  0  0  0  0  0  0  0  0  0
   -0.5888   -2.2114   -4.0656 S   0  0  0  0  0  0  0  0  0  0  0  0
   -1.6174    2.6158   -5.9999 C   0  0  0  0  0  0  0  0  0  0  0  0
   -1.5258    3.9264   -5.5161 C   0  0  0  0  0  0  0  0  0  0  0  0
   -0.9167    3.8749   -3.9409 S   0  0  0  0  0  0  0  0  0  0  0  0
   -2.0313    5.1639   -6.1474 C   0  0  0  0  0  0  0  0  0  0  0  0
   -2.4568    6.5292   -5.2623 S   0  0  0  0  0  0  0  0  0  0  0  0
   -3.0327    7.4730   -6.5292 C   0  0  0  0  0  0  0  0  0  0  0  0
   -2.8743    6.7235   -7.7012 C   0  0  0  0  0  0  0  0  0  0  0  0
   -2.2978    5.4478   -7.4955 C   0  0  0  0  0  0  0  0  0  0  0  0
   -2.0087    4.6256   -8.5941 C   0  0  0  0  0  0  0  0  0  0  0  0
   -2.3882    5.0294   -9.8925 C   0  0  0  0  0  0  0  0  0  0  0  0
   -2.1737    4.2221  -11.0212 O   0  0  0  0  0  0  0  0  0  0  0  0
   -1.6548    2.8976  -10.9748 C   0  0  0  0  0  0  0  0  0  0  0  0
   -3.0090    6.2749  -10.0751 C   0  0  0  0  0  0  0  0  0  0  0  0
   -3.2501    7.1244   -8.9903 C   0  0  0  0  0  0  0  0  0  0  0  0
   -3.4703    8.8815   -6.3943 C   0  0  0  0  0  0  0  0  0  0  0  0
   -3.0784   10.1181   -7.4755 S   0  0  0  0  0  0  0  0  0  0  0  0
   -3.7496   11.3981   -6.6162 C   0  0  0  0  0  0  0  0  0  0  0  0
   -4.2802   10.8737   -5.4466 C   0  0  0  0  0  0  0  0  0  0  0  0
   -4.1305    9.4804   -5.3098 C   0  0  0  0  0  0  0  0  0  0  0  0
   -4.6414    8.8311   -4.1754 C   0  0  0  0  0  0  0  0  0  0  0  0
   -5.2701    9.5893   -3.1625 C   0  0  0  0  0  0  0  0  0  0  0  0
   -5.7746    8.9999   -1.9926 O   0  0  0  0  0  0  0  0  0  0  0  0
   -5.6803    7.6125   -1.6792 C   0  0  0  0  0  0  0  0  0  0  0  0
   -5.4007   10.9808   -3.3156 C   0  0  0  0  0  0  0  0  0  0  0  0
   -4.9144   11.6264   -4.4576 C   0  0  0  0  0  0  0  0  0  0  0  0
    4.6623   -5.5963   13.0444 H   0  0  0  0  0  0  0  0  0  0  0  0
    4.2848   -3.1500   14.0639 H   0  0  0  0  0  0  0  0  0  0  0  0
    3.2835    1.2108   14.8240 H   0  0  0  0  0  0  0  0  0  0  0  0
    3.5211    1.2102   13.0352 H   0  0  0  0  0  0  0  0  0  0  0  0
    1.9159    0.7293   13.7503 H   0  0  0  0  0  0  0  0  0  0  0  0
    2.2715   -0.2944   11.5218 H   0  0  0  0  0  0  0  0  0  0  0  0
    2.0489   -1.9616    9.7747 H   0  0  0  0  0  0  0  0  0  0  0  0
    3.5662   -6.3026    7.7914 H   0  0  0  0  0  0  0  0  0  0  0  0
    4.8107  -11.1848    4.8642 H   0  0  0  0  0  0  0  0  0  0  0  0
    6.4596  -10.4735    4.8069 H   0  0  0  0  0  0  0  0  0  0  0  0
    6.0569   -9.8233    2.3807 H   0  0  0  0  0  0  0  0  0  0  0  0
    4.4418  -10.6366    2.4680 H   0  0  0  0  0  0  0  0  0  0  0  0
    5.9510  -11.6011    2.6705 H   0  0  0  0  0  0  0  0  0  0  0  0
   -3.0339    1.0316    5.4437 H   0  0  0  0  0  0  0  0  0  0  0  0
   -1.4124    1.3183    4.7298 H   0  0  0  0  0  0  0  0  0  0  0  0
   -3.7296   -0.1898    3.3433 H   0  0  0  0  0  0  0  0  0  0  0  0
   -3.2384    1.5207    3.0335 H   0  0  0  0  0  0  0  0  0  0  0  0
   -2.1034    0.1835    2.6217 H   0  0  0  0  0  0  0  0  0  0  0  0
   -0.8784   -3.7147    2.8951 H   0  0  0  0  0  0  0  0  0  0  0  0
    0.8332   -7.4979    0.1732 H   0  0  0  0  0  0  0  0  0  0  0  0
    1.9553  -10.5740   -2.9306 H   0  0  0  0  0  0  0  0  0  0  0  0
    2.5911   -9.0545   -3.6652 H   0  0  0  0  0  0  0  0  0  0  0  0
    0.8528   -9.5358   -3.9094 H   0  0  0  0  0  0  0  0  0  0  0  0
    1.0859   -7.0930   -4.1115 H   0  0  0  0  0  0  0  0  0  0  0  0
    0.5212   -4.7236   -3.9556 H   0  0  0  0  0  0  0  0  0  0  0  0
    0.2628   -0.6516   -0.9797 H   0  0  0  0  0  0  0  0  0  0  0  0
    1.2133    3.1194    2.8039 H   0  0  0  0  0  0  0  0  0  0  0  0
    2.6648    2.6406    1.8569 H   0  0  0  0  0  0  0  0  0  0  0  0
    1.2471    5.3894    1.7527 H   0  0  0  0  0  0  0  0  0  0  0  0
    2.6656    4.9047    0.7308 H   0  0  0  0  0  0  0  0  0  0  0  0
    2.8339    5.0146    2.5223 H   0  0  0  0  0  0  0  0  0  0  0  0
   -3.4587   -2.1685  -10.3164 H   0  0  0  0  0  0  0  0  0  0  0  0
   -4.2731   -2.7929   -8.8424 H   0  0  0  0  0  0  0  0  0  0  0  0
   -2.3229   -4.3534   -8.4423 H   0  0  0  0  0  0  0  0  0  0  0  0
   -3.1473   -4.6447  -10.0199 H   0  0  0  0  0  0  0  0  0  0  0  0
   -1.5712   -3.7661   -9.9809 H   0  0  0  0  0  0  0  0  0  0  0  0
   -2.0926    2.3441   -6.9291 H   0  0  0  0  0  0  0  0  0  0  0  0
   -1.4635    3.7069   -8.4650 H   0  0  0  0  0  0  0  0  0  0  0  0
   -2.3019    2.2552  -10.3382 H   0  0  0  0  0  0  0  0  0  0  0  0
   -0.6161    2.9066  -10.5785 H   0  0  0  0  0  0  0  0  0  0  0  0
   -1.6400    2.4785  -12.0024 H   0  0  0  0  0  0  0  0  0  0  0  0
   -3.3051    6.5875  -11.0700 H   0  0  0  0  0  0  0  0  0  0  0  0
   -3.7441    8.0679   -9.1682 H   0  0  0  0  0  0  0  0  0  0  0  0
   -3.7564   12.4365   -6.9183 H   0  0  0  0  0  0  0  0  0  0  0  0
   -4.5748    7.7600   -4.0867 H   0  0  0  0  0  0  0  0  0  0  0  0
   -6.1489    7.4328   -0.6909 H   0  0  0  0  0  0  0  0  0  0  0  0
   -4.6150    7.3037   -1.6273 H   0  0  0  0  0  0  0  0  0  0  0  0
   -6.2159    7.0111   -2.4425 H   0  0  0  0  0  0  0  0  0  0  0  0
   -5.8875   11.5638   -2.5442 H   0  0  0  0  0  0  0  0  0  0  0  0
   -5.0253   12.6986   -4.5601 H   0  0  0  0  0  0  0  0  0  0  0  0
  1  2  1  0
  2  3  1  0
  3  4  2  0
  4  5  1  0
  5  6  1  0
  6  7  2  0
  7  8  1  0
  8  9  1  0
  7 10  1  0
 10 11  2  0
  3 12  1  0
 12 13  2  0
 13 14  1  0
 14 15  2  0
 15 16  1  0
 16 17  1  0
 17 18  1  0
 18 19  1  0
 19 20  1  0
 18 21  2  0
 21 22  1  0
 21 23  1  0
 23 24  1  0
 15 25  1  0
 25 26  2  0
 26 27  1  0
 27 28  1  0
 28 29  1  0
 29 30  1  0
 30 31  1  0
 31 32  1  0
 30 33  2  0
 33 34  1  0
 34 35  1  0
 33 36  1  0
 27 37  2  0
 37 38  1  0
 26 39  1  0
 39 40  2  0
 40 41  1  0
 40 42  1  0
 42 43  1  0
 43 44  1  0
 44 45  2  0
 45 46  1  0
 46 47  1  0
 47 48  2  0
 48 49  1  0
 49 50  1  0
 48 51  1  0
 51 52  2  0
 44 53  1  0
 53 54  2  0
 54 55  1  0
 55 56  2  0
 56 57  1  0
 57 58  1  0
 58 59  1  0
 59 60  1  0
 60 61  1  0
 59 62  2  0
 62 63  1  0
 62 64  1  0
 64 65  1  0
 56 66  1  0
 66 67  2  0
 67 68  1  0
 68 69  1  0
 69 70  1  0
 70 71  1  0
 71 72  1  0
 72 73  1  0
 71 74  2  0
 74 75  1  0
 75 76  1  0
 74 77  1  0
 68 78  2  0
 78 79  1  0
 67 80  1  0
 80 81  2  0
 81 82  1  0
 81 83  1  0
 83 84  1  0
 84 85  1  0
 85 86  2  0
 86 87  1  0
 87 88  1  0
 88 89  2  0
 89 90  1  0
 90 91  1  0
 89 92  1  0
 92 93  2  0
 85 94  1  0
 94 95  1  0
 95 96  1  0
 96 97  2  0
 97 98  1  0
 98 99  1  0
 99100  2  0
100101  1  0
101102  1  0
100103  1  0
103104  2  0
  5  1  2  0
 38 12  1  0
 46 42  2  0
 79 53  1  0
 87 83  2  0
 98 94  2  0
 11  4  1  0
 37 14  1  0
 52 45  1  0
 78 55  1  0
 93 86  1  0
104 97  1  0
 23 16  2  0
 41 25  1  0
 64 57  2  0
 82 66  1  0
 34 28  2  0
 75 69  2  0
  1105  1  0
  6106  1  0
  9107  1  0
  9108  1  0
  9109  1  0
 10110  1  0
 11111  1  0
 13112  1  0
 19113  1  0
 19114  1  0
 20115  1  0
 20116  1  0
 20117  1  0
 31118  1  0
 31119  1  0
 32120  1  0
 32121  1  0
 32122  1  0
 39123  1  0
 47124  1  0
 50125  1  0
 50126  1  0
 50127  1  0
 51128  1  0
 52129  1  0
 54130  1  0
 60131  1  0
 60132  1  0
 61133  1  0
 61134  1  0
 61135  1  0
 72136  1  0
 72137  1  0
 73138  1  0
 73139  1  0
 73140  1  0
 80141  1  0
 88142  1  0
 91143  1  0
 91144  1  0
 91145  1  0
 92146  1  0
 93147  1  0
 96148  1  0
 99149  1  0
102150  1  0
102151  1  0
102152  1  0
103153  1  0
104154  1  0
M  END

