
     RDKit          3D

137151  0  0  0  0  0  0  0  0999 V2000
    4.7019   12.4044   -9.8086 C   0  0  0  0  0  0  0  0  0  0  0  0
    4.6222   11.8940   -8.5167 C   0  0  0  0  0  0  0  0  0  0  0  0
    4.4991   10.4928   -8.4772 C   0  0  0  0  0  0  0  0  0  0  0  0
    4.4128    9.6887   -7.3189 C   0  0  0  0  0  0  0  0  0  0  0  0
    4.4091   10.2787   -5.9272 C   0  0  0  0  0  0  0  0  0  0  0  0
    3.0016   10.7087   -5.5266 C   0  0  0  0  0  0  0  0  0  0  0  0
    4.2787    8.3021   -7.5246 C   0  0  0  0  0  0  0  0  0  0  0  0
    4.2412    7.7226   -8.7988 C   0  0  0  0  0  0  0  0  0  0  0  0
    4.3315    8.5259   -9.9573 C   0  0  0  0  0  0  0  0  0  0  0  0
    4.3431    7.9326  -11.3484 C   0  0  0  0  0  0  0  0  0  0  0  0
    5.7375    7.4323  -11.7129 C   0  0  0  0  0  0  0  0  0  0  0  0
    4.4715    9.9117   -9.7509 C   0  0  0  0  0  0  0  0  0  0  0  0
    4.6146   11.1279  -10.9051 S   0  0  0  0  0  0  0  0  0  0  0  0
    4.1050    6.3237   -8.7623 C   0  0  0  0  0  0  0  0  0  0  0  0
    4.0672    5.8092   -7.4664 C   0  0  0  0  0  0  0  0  0  0  0  0
    4.1461    7.0867   -6.3679 S   0  0  0  0  0  0  0  0  0  0  0  0
    3.9076    4.3930   -7.0870 C   0  0  0  0  0  0  0  0  0  0  0  0
    3.0683    3.8784   -5.7290 S   0  0  0  0  0  0  0  0  0  0  0  0
    3.2504    2.2151   -5.9443 C   0  0  0  0  0  0  0  0  0  0  0  0
    4.0038    2.0356   -7.1226 C   0  0  0  0  0  0  0  0  0  0  0  0
    4.3858    3.2522   -7.7396 C   0  0  0  0  0  0  0  0  0  0  0  0
    5.2277    3.2471   -8.8616 C   0  0  0  0  0  0  0  0  0  0  0  0
    5.6309    2.0221   -9.4263 C   0  0  0  0  0  0  0  0  0  0  0  0
    6.4554    1.9552  -10.5605 O   0  0  0  0  0  0  0  0  0  0  0  0
    6.9766    3.0890  -11.2461 C   0  0  0  0  0  0  0  0  0  0  0  0
    5.2030    0.8208   -8.8453 C   0  0  0  0  0  0  0  0  0  0  0  0
    4.4044    0.8181   -7.6960 C   0  0  0  0  0  0  0  0  0  0  0  0
    2.7448    1.2210   -4.9616 C   0  0  0  0  0  0  0  0  0  0  0  0
    2.1068    1.5498   -3.7604 C   0  0  0  0  0  0  0  0  0  0  0  0
    1.7908    0.4341   -2.9617 C   0  0  0  0  0  0  0  0  0  0  0  0
    1.1951    0.4580   -1.6800 C   0  0  0  0  0  0  0  0  0  0  0  0
    0.7519    1.7443   -1.0207 C   0  0  0  0  0  0  0  0  0  0  0  0
   -0.6397    2.1427   -1.5011 C   0  0  0  0  0  0  0  0  0  0  0  0
    0.9980   -0.7885   -1.0542 C   0  0  0  0  0  0  0  0  0  0  0  0
    1.3610   -2.0033   -1.6485 C   0  0  0  0  0  0  0  0  0  0  0  0
    1.9428   -2.0278   -2.9353 C   0  0  0  0  0  0  0  0  0  0  0  0
    2.3872   -3.3137   -3.5947 C   0  0  0  0  0  0  0  0  0  0  0  0
    3.7746   -3.7202   -3.1083 C   0  0  0  0  0  0  0  0  0  0  0  0
    2.1590   -0.7798   -3.5499 C   0  0  0  0  0  0  0  0  0  0  0  0
    2.8890   -0.4598   -5.0281 S   0  0  0  0  0  0  0  0  0  0  0  0
    1.0914   -3.1177   -0.8341 C   0  0  0  0  0  0  0  0  0  0  0  0
    0.5481   -2.7754    0.4045 C   0  0  0  0  0  0  0  0  0  0  0  0
    0.3485   -1.1008    0.4673 S   0  0  0  0  0  0  0  0  0  0  0  0
    0.1357   -3.7049    1.4743 C   0  0  0  0  0  0  0  0  0  0  0  0
   -1.1716   -3.4348    2.4935 S   0  0  0  0  0  0  0  0  0  0  0  0
   -1.0939   -4.8724    3.3716 C   0  0  0  0  0  0  0  0  0  0  0  0
   -0.0069   -5.6074    2.8609 C   0  0  0  0  0  0  0  0  0  0  0  0
    0.6901   -4.9414    1.8241 C   0  0  0  0  0  0  0  0  0  0  0  0
    1.8546   -5.5035    1.2797 C   0  0  0  0  0  0  0  0  0  0  0  0
    2.2864   -6.7663    1.7036 C   0  0  0  0  0  0  0  0  0  0  0  0
    3.4464   -7.3009    1.1222 O   0  0  0  0  0  0  0  0  0  0  0  0
    3.9935   -8.5757    1.4448 C   0  0  0  0  0  0  0  0  0  0  0  0
    1.5520   -7.4569    2.6898 C   0  0  0  0  0  0  0  0  0  0  0  0
    0.4155   -6.8825    3.2690 C   0  0  0  0  0  0  0  0  0  0  0  0
   -2.0123   -5.1826    4.4962 C   0  0  0  0  0  0  0  0  0  0  0  0
   -3.1478   -4.4345    4.8231 C   0  0  0  0  0  0  0  0  0  0  0  0
   -3.8212   -4.9014    5.9681 C   0  0  0  0  0  0  0  0  0  0  0  0
   -4.9943   -4.3550    6.5357 C   0  0  0  0  0  0  0  0  0  0  0  0
   -5.6722   -3.1308    5.9646 C   0  0  0  0  0  0  0  0  0  0  0  0
   -5.0289   -1.8572    6.5037 C   0  0  0  0  0  0  0  0  0  0  0  0
   -5.4776   -4.9788    7.7019 C   0  0  0  0  0  0  0  0  0  0  0  0
   -4.8656   -6.0969    8.2773 C   0  0  0  0  0  0  0  0  0  0  0  0
   -3.6880   -6.6383    7.7153 C   0  0  0  0  0  0  0  0  0  0  0  0
   -3.0017   -7.8546    8.2956 C   0  0  0  0  0  0  0  0  0  0  0  0
   -3.6268   -9.1383    7.7592 C   0  0  0  0  0  0  0  0  0  0  0  0
   -3.2034   -6.0128    6.5508 C   0  0  0  0  0  0  0  0  0  0  0  0
   -1.8410   -6.4038    5.6507 S   0  0  0  0  0  0  0  0  0  0  0  0
   -5.5365   -6.5638    9.4225 C   0  0  0  0  0  0  0  0  0  0  0  0
   -6.6647   -5.8099    9.7589 C   0  0  0  0  0  0  0  0  0  0  0  0
   -6.8197   -4.5681    8.6252 S   0  0  0  0  0  0  0  0  0  0  0  0
   -7.5288   -6.0739   10.9373 C   0  0  0  0  0  0  0  0  0  0  0  0
   -7.1784   -7.2672   12.0810 S   0  0  0  0  0  0  0  0  0  0  0  0
   -8.4885   -7.0202   13.0979 C   0  0  0  0  0  0  0  0  0  0  0  0
   -9.2368   -5.9869   12.5546 C   0  0  0  0  0  0  0  0  0  0  0  0
   -8.7208   -5.4500   11.3548 C   0  0  0  0  0  0  0  0  0  0  0  0
   -9.4116   -4.4057   10.7176 C   0  0  0  0  0  0  0  0  0  0  0  0
  -10.5950   -3.8988   11.2789 C   0  0  0  0  0  0  0  0  0  0  0  0
  -11.2474   -2.8518   10.6101 O   0  0  0  0  0  0  0  0  0  0  0  0
  -12.4532   -2.2390   11.0551 C   0  0  0  0  0  0  0  0  0  0  0  0
  -11.0901   -4.4479   12.4825 C   0  0  0  0  0  0  0  0  0  0  0  0
  -10.4128   -5.4924   13.1192 C   0  0  0  0  0  0  0  0  0  0  0  0
    4.7998   13.4498  -10.0650 H   0  0  0  0  0  0  0  0  0  0  0  0
    4.6501   12.5305   -7.6437 H   0  0  0  0  0  0  0  0  0  0  0  0
    5.0975   11.1478   -5.8694 H   0  0  0  0  0  0  0  0  0  0  0  0
    4.7858    9.5396   -5.1883 H   0  0  0  0  0  0  0  0  0  0  0  0
    2.6317   11.5055   -6.2061 H   0  0  0  0  0  0  0  0  0  0  0  0
    2.3090    9.8417   -5.5688 H   0  0  0  0  0  0  0  0  0  0  0  0
    3.0143   11.1024   -4.4893 H   0  0  0  0  0  0  0  0  0  0  0  0
    4.0191    8.6822  -12.0998 H   0  0  0  0  0  0  0  0  0  0  0  0
    3.6157    7.0969  -11.4179 H   0  0  0  0  0  0  0  0  0  0  0  0
    6.0674    6.6436  -11.0047 H   0  0  0  0  0  0  0  0  0  0  0  0
    6.4645    8.2724  -11.6873 H   0  0  0  0  0  0  0  0  0  0  0  0
    5.7239    7.0048  -12.7378 H   0  0  0  0  0  0  0  0  0  0  0  0
    4.0016    5.7082   -9.6432 H   0  0  0  0  0  0  0  0  0  0  0  0
    5.5967    4.1738   -9.2710 H   0  0  0  0  0  0  0  0  0  0  0  0
    6.1478    3.7234  -11.6241 H   0  0  0  0  0  0  0  0  0  0  0  0
    7.5820    2.7442  -12.1099 H   0  0  0  0  0  0  0  0  0  0  0  0
    7.6298    3.6778  -10.5672 H   0  0  0  0  0  0  0  0  0  0  0  0
    5.5074   -0.1224   -9.2813 H   0  0  0  0  0  0  0  0  0  0  0  0
    4.1175   -0.1346   -7.2917 H   0  0  0  0  0  0  0  0  0  0  0  0
    1.8987    2.5703   -3.4711 H   0  0  0  0  0  0  0  0  0  0  0  0
    0.7354    1.6349    0.0837 H   0  0  0  0  0  0  0  0  0  0  0  0
    1.4701    2.5615   -1.2362 H   0  0  0  0  0  0  0  0  0  0  0  0
   -0.6390    2.3082   -2.5993 H   0  0  0  0  0  0  0  0  0  0  0  0
   -1.3747    1.3475   -1.2526 H   0  0  0  0  0  0  0  0  0  0  0  0
   -0.9515    3.0835   -1.0010 H   0  0  0  0  0  0  0  0  0  0  0  0
    2.4094   -3.2003   -4.6992 H   0  0  0  0  0  0  0  0  0  0  0  0
    1.6632   -4.1278   -3.3865 H   0  0  0  0  0  0  0  0  0  0  0  0
    4.0827   -4.6629   -3.6078 H   0  0  0  0  0  0  0  0  0  0  0  0
    3.7670   -3.8890   -2.0101 H   0  0  0  0  0  0  0  0  0  0  0  0
    4.5152   -2.9288   -3.3524 H   0  0  0  0  0  0  0  0  0  0  0  0
    1.2531   -4.1386   -1.1454 H   0  0  0  0  0  0  0  0  0  0  0  0
    2.4514   -4.9695    0.5556 H   0  0  0  0  0  0  0  0  0  0  0  0
    3.2570   -9.3758    1.2191 H   0  0  0  0  0  0  0  0  0  0  0  0
    4.9027   -8.7463    0.8314 H   0  0  0  0  0  0  0  0  0  0  0  0
    4.2774   -8.6085    2.5180 H   0  0  0  0  0  0  0  0  0  0  0  0
    1.8588   -8.4383    3.0250 H   0  0  0  0  0  0  0  0  0  0  0  0
   -0.1143   -7.4562    4.0082 H   0  0  0  0  0  0  0  0  0  0  0  0
   -3.4655   -3.5746    4.2497 H   0  0  0  0  0  0  0  0  0  0  0  0
   -6.7526   -3.1275    6.2185 H   0  0  0  0  0  0  0  0  0  0  0  0
   -5.6203   -3.1380    4.8562 H   0  0  0  0  0  0  0  0  0  0  0  0
   -5.5213   -0.9724    6.0495 H   0  0  0  0  0  0  0  0  0  0  0  0
   -5.1498   -1.8051    7.6066 H   0  0  0  0  0  0  0  0  0  0  0  0
   -3.9481   -1.8314    6.2517 H   0  0  0  0  0  0  0  0  0  0  0  0
   -1.9181   -7.8482    8.0496 H   0  0  0  0  0  0  0  0  0  0  0  0
   -3.0623   -7.8435    9.4042 H   0  0  0  0  0  0  0  0  0  0  0  0
   -3.1569  -10.0132    8.2535 H   0  0  0  0  0  0  0  0  0  0  0  0
   -3.4596   -9.2156    6.6641 H   0  0  0  0  0  0  0  0  0  0  0  0
   -4.7172   -9.1569    7.9660 H   0  0  0  0  0  0  0  0  0  0  0  0
   -5.2185   -7.4240    9.9943 H   0  0  0  0  0  0  0  0  0  0  0  0
   -8.7059   -7.5660   14.0062 H   0  0  0  0  0  0  0  0  0  0  0  0
   -9.0673   -3.9731    9.7954 H   0  0  0  0  0  0  0  0  0  0  0  0
  -12.3033   -1.7818   12.0561 H   0  0  0  0  0  0  0  0  0  0  0  0
  -12.7403   -1.4417   10.3399 H   0  0  0  0  0  0  0  0  0  0  0  0
  -13.2708   -2.9910   11.0961 H   0  0  0  0  0  0  0  0  0  0  0  0
  -11.9991   -4.0739   12.9324 H   0  0  0  0  0  0  0  0  0  0  0  0
  -10.8026   -5.9092   14.0399 H   0  0  0  0  0  0  0  0  0  0  0  0
  1  2  2  0
  2  3  1  0
  3  4  2  0
  4  5  1  0
  5  6  1  0
  4  7  1  0
  7  8  2  0
  8  9  1  0
  9 10  1  0
 10 11  1  0
  9 12  2  0
 12 13  1  0
  8 14  1  0
 14 15  2  0
 15 16  1  0
 15 17  1  0
 17 18  1  0
 18 19  1  0
 19 20  2  0
 20 21  1  0
 21 22  1  0
 22 23  2  0
 23 24  1  0
 24 25  1  0
 23 26  1  0
 26 27  2  0
 19 28  1  0
 28 29  2  0
 29 30  1  0
 30 31  2  0
 31 32  1  0
 32 33  1  0
 31 34  1  0
 34 35  2  0
 35 36  1  0
 36 37  1  0
 37 38  1  0
 36 39  2  0
 39 40  1  0
 35 41  1  0
 41 42  2  0
 42 43  1  0
 42 44  1  0
 44 45  1  0
 45 46  1  0
 46 47  2  0
 47 48  1  0
 48 49  1  0
 49 50  2  0
 50 51  1  0
 51 52  1  0
 50 53  1  0
 53 54  2  0
 46 55  1  0
 55 56  2  0
 56 57  1  0
 57 58  2  0
 58 59  1  0
 59 60  1  0
 58 61  1  0
 61 62  2  0
 62 63  1  0
 63 64  1  0
 64 65  1  0
 63 66  2  0
 66 67  1  0
 62 68  1  0
 68 69  2  0
 69 70  1  0
 69 71  1  0
 71 72  1  0
 72 73  1  0
 73 74  2  0
 74 75  1  0
 75 76  1  0
 76 77  2  0
 77 78  1  0
 78 79  1  0
 77 80  1  0
 80 81  2  0
 13  1  1  0
 21 17  2  0
 40 28  1  0
 48 44  2  0
 67 55  1  0
 75 71  2  0
 12  3  1  0
 27 20  1  0
 39 30  1  0
 54 47  1  0
 66 57  1  0
 81 74  1  0
 16  7  1  0
 43 34  1  0
 70 61  1  0
  1 82  1  0
  2 83  1  0
  5 84  1  0
  5 85  1  0
  6 86  1  0
  6 87  1  0
  6 88  1  0
 10 89  1  0
 10 90  1  0
 11 91  1  0
 11 92  1  0
 11 93  1  0
 14 94  1  0
 22 95  1  0
 25 96  1  0
 25 97  1  0
 25 98  1  0
 26 99  1  0
 27100  1  0
 29101  1  0
 32102  1  0
 32103  1  0
 33104  1  0
 33105  1  0
 33106  1  0
 37107  1  0
 37108  1  0
 38109  1  0
 38110  1  0
 38111  1  0
 41112  1  0
 49113  1  0
 52114  1  0
 52115  1  0
 52116  1  0
 53117  1  0
 54118  1  0
 56119  1  0
 59120  1  0
 59121  1  0
 60122  1  0
 60123  1  0
 60124  1  0
 64125  1  0
 64126  1  0
 65127  1  0
 65128  1  0
 65129  1  0
 68130  1  0
 73131  1  0
 76132  1  0
 79133  1  0
 79134  1  0
 79135  1  0
 80136  1  0
 81137  1  0
M  END

