
     RDKit          3D

170187  0  0  0  0  0  0  0  0999 V2000
  -11.0825   -3.4612   -8.1853 C   0  0  0  0  0  0  0  0  0  0  0  0
  -10.4546   -3.6145   -6.9516 C   0  0  0  0  0  0  0  0  0  0  0  0
   -9.9295   -2.4141   -6.4383 C   0  0  0  0  0  0  0  0  0  0  0  0
   -9.2307   -2.2555   -5.2215 C   0  0  0  0  0  0  0  0  0  0  0  0
   -8.9490   -3.4197   -4.2952 C   0  0  0  0  0  0  0  0  0  0  0  0
   -7.6855   -4.1633   -4.7244 C   0  0  0  0  0  0  0  0  0  0  0  0
   -8.7412   -0.9645   -4.9441 C   0  0  0  0  0  0  0  0  0  0  0  0
   -8.9419    0.1262   -5.8013 C   0  0  0  0  0  0  0  0  0  0  0  0
   -9.6826   -0.0240   -6.9949 C   0  0  0  0  0  0  0  0  0  0  0  0
   -9.9147    1.1285   -7.9474 C   0  0  0  0  0  0  0  0  0  0  0  0
   -8.7335    1.2955   -8.9003 C   0  0  0  0  0  0  0  0  0  0  0  0
  -10.1503   -1.3200   -7.2836 C   0  0  0  0  0  0  0  0  0  0  0  0
  -10.9924   -1.8405   -8.6458 S   0  0  0  0  0  0  0  0  0  0  0  0
   -8.3135    1.3019   -5.3518 C   0  0  0  0  0  0  0  0  0  0  0  0
   -7.6328    1.1322   -4.1464 C   0  0  0  0  0  0  0  0  0  0  0  0
   -7.8071   -0.4676   -3.6350 S   0  0  0  0  0  0  0  0  0  0  0  0
   -6.7960    2.1428   -3.4768 C   0  0  0  0  0  0  0  0  0  0  0  0
   -6.3080    3.3143   -4.0583 C   0  0  0  0  0  0  0  0  0  0  0  0
   -5.4052    4.0080   -3.2297 C   0  0  0  0  0  0  0  0  0  0  0  0
   -4.6627    5.1592   -3.5775 C   0  0  0  0  0  0  0  0  0  0  0  0
   -4.8279    5.8550   -4.9125 C   0  0  0  0  0  0  0  0  0  0  0  0
   -5.9897    6.8404   -4.8631 C   0  0  0  0  0  0  0  0  0  0  0  0
   -3.7486    5.6347   -2.6170 C   0  0  0  0  0  0  0  0  0  0  0  0
   -3.5766    5.0277   -1.3661 C   0  0  0  0  0  0  0  0  0  0  0  0
   -4.3371    3.8905   -1.0099 C   0  0  0  0  0  0  0  0  0  0  0  0
   -4.1513    3.1719    0.3062 C   0  0  0  0  0  0  0  0  0  0  0  0
   -3.0536    2.1202    0.2009 C   0  0  0  0  0  0  0  0  0  0  0  0
   -5.2222    3.3935   -1.9858 C   0  0  0  0  0  0  0  0  0  0  0  0
   -6.1394    1.9835   -1.9292 S   0  0  0  0  0  0  0  0  0  0  0  0
   -2.5377    5.6067   -0.6153 C   0  0  0  0  0  0  0  0  0  0  0  0
   -1.8869    6.6465   -1.2824 C   0  0  0  0  0  0  0  0  0  0  0  0
   -2.6067    6.8612   -2.7914 S   0  0  0  0  0  0  0  0  0  0  0  0
   -0.5892    7.2163   -0.8872 C   0  0  0  0  0  0  0  0  0  0  0  0
   -0.0454    7.1607    0.3946 C   0  0  0  0  0  0  0  0  0  0  0  0
    1.3410    7.3985    0.4161 C   0  0  0  0  0  0  0  0  0  0  0  0
    2.1885    7.2437    1.5344 C   0  0  0  0  0  0  0  0  0  0  0  0
    1.6515    6.9393    2.9155 C   0  0  0  0  0  0  0  0  0  0  0  0
    1.4203    5.4398    3.1009 C   0  0  0  0  0  0  0  0  0  0  0  0
    3.5714    7.2303    1.2744 C   0  0  0  0  0  0  0  0  0  0  0  0
    4.1078    7.4185   -0.0045 C   0  0  0  0  0  0  0  0  0  0  0  0
    3.2626    7.7017   -1.1012 C   0  0  0  0  0  0  0  0  0  0  0  0
    3.8108    7.9568   -2.4884 C   0  0  0  0  0  0  0  0  0  0  0  0
    4.4382    9.3456   -2.5773 C   0  0  0  0  0  0  0  0  0  0  0  0
    1.8754    7.6600   -0.8524 C   0  0  0  0  0  0  0  0  0  0  0  0
    0.6299    7.6104   -1.9831 S   0  0  0  0  0  0  0  0  0  0  0  0
    5.4813    7.1118   -0.0760 C   0  0  0  0  0  0  0  0  0  0  0  0
    6.0098    6.6508    1.1321 C   0  0  0  0  0  0  0  0  0  0  0  0
    4.7895    6.6907    2.2969 S   0  0  0  0  0  0  0  0  0  0  0  0
    7.1584    5.7312    1.2299 C   0  0  0  0  0  0  0  0  0  0  0  0
    7.5502    5.1041    2.4157 C   0  0  0  0  0  0  0  0  0  0  0  0
    8.1778    3.8599    2.2151 C   0  0  0  0  0  0  0  0  0  0  0  0
    8.4709    2.9080    3.2178 C   0  0  0  0  0  0  0  0  0  0  0  0
    8.2880    3.2067    4.6879 C   0  0  0  0  0  0  0  0  0  0  0  0
    6.8590    2.9116    5.1385 C   0  0  0  0  0  0  0  0  0  0  0  0
    8.7625    1.6021    2.7770 C   0  0  0  0  0  0  0  0  0  0  0  0
    8.8122    1.2529    1.4214 C   0  0  0  0  0  0  0  0  0  0  0  0
    8.6553    2.2370    0.4192 C   0  0  0  0  0  0  0  0  0  0  0  0
    8.6499    1.8895   -1.0526 C   0  0  0  0  0  0  0  0  0  0  0  0
    7.2602    1.4554   -1.5096 C   0  0  0  0  0  0  0  0  0  0  0  0
    8.3106    3.5298    0.8601 C   0  0  0  0  0  0  0  0  0  0  0  0
    7.6607    4.7726   -0.0659 S   0  0  0  0  0  0  0  0  0  0  0  0
    8.8274   -0.1399    1.2138 C   0  0  0  0  0  0  0  0  0  0  0  0
    8.7599   -0.8758    2.3981 C   0  0  0  0  0  0  0  0  0  0  0  0
    8.7492    0.1961    3.6991 S   0  0  0  0  0  0  0  0  0  0  0  0
    8.2207   -2.2427    2.4980 C   0  0  0  0  0  0  0  0  0  0  0  0
    7.2625   -2.7585    1.6230 C   0  0  0  0  0  0  0  0  0  0  0  0
    6.5329   -3.8326    2.1617 C   0  0  0  0  0  0  0  0  0  0  0  0
    5.3893   -4.4314    1.5852 C   0  0  0  0  0  0  0  0  0  0  0  0
    4.8798   -4.0494    0.2160 C   0  0  0  0  0  0  0  0  0  0  0  0
    3.9357   -2.8529    0.2961 C   0  0  0  0  0  0  0  0  0  0  0  0
    4.6730   -5.3271    2.3993 C   0  0  0  0  0  0  0  0  0  0  0  0
    5.0938   -5.6901    3.6854 C   0  0  0  0  0  0  0  0  0  0  0  0
    6.2706   -5.1365    4.2395 C   0  0  0  0  0  0  0  0  0  0  0  0
    6.7557   -5.5171    5.6247 C   0  0  0  0  0  0  0  0  0  0  0  0
    7.4494   -6.8776    5.5989 C   0  0  0  0  0  0  0  0  0  0  0  0
    6.9524   -4.1884    3.4502 C   0  0  0  0  0  0  0  0  0  0  0  0
    8.1920   -3.1508    3.9214 S   0  0  0  0  0  0  0  0  0  0  0  0
    4.1852   -6.5428    4.3409 C   0  0  0  0  0  0  0  0  0  0  0  0
    3.0437   -6.8091    3.5836 C   0  0  0  0  0  0  0  0  0  0  0  0
    3.1723   -6.0279    2.0933 S   0  0  0  0  0  0  0  0  0  0  0  0
    1.8572   -7.5362    4.0579 C   0  0  0  0  0  0  0  0  0  0  0  0
    0.5917   -7.4992    3.4708 C   0  0  0  0  0  0  0  0  0  0  0  0
   -0.3740   -8.2192    4.1990 C   0  0  0  0  0  0  0  0  0  0  0  0
   -1.7430   -8.3536    3.8739 C   0  0  0  0  0  0  0  0  0  0  0  0
   -2.3482   -7.7097    2.6463 C   0  0  0  0  0  0  0  0  0  0  0  0
   -2.1357   -8.5808    1.4123 C   0  0  0  0  0  0  0  0  0  0  0  0
   -2.5146   -9.1647    4.7275 C   0  0  0  0  0  0  0  0  0  0  0  0
   -1.9897   -9.7843    5.8677 C   0  0  0  0  0  0  0  0  0  0  0  0
   -0.6325   -9.6105    6.2193 C   0  0  0  0  0  0  0  0  0  0  0  0
   -0.0236  -10.2840    7.4279 C   0  0  0  0  0  0  0  0  0  0  0  0
    0.3989  -11.7119    7.0994 C   0  0  0  0  0  0  0  0  0  0  0  0
    0.1487   -8.8286    5.3482 C   0  0  0  0  0  0  0  0  0  0  0  0
    1.7875   -8.4630    5.4657 S   0  0  0  0  0  0  0  0  0  0  0  0
   -2.9410  -10.5582    6.5573 C   0  0  0  0  0  0  0  0  0  0  0  0
   -4.1996  -10.5418    5.9610 C   0  0  0  0  0  0  0  0  0  0  0  0
   -4.1393   -9.5757    4.5818 S   0  0  0  0  0  0  0  0  0  0  0  0
  -11.5447   -4.2550   -8.7568 H   0  0  0  0  0  0  0  0  0  0  0  0
  -10.3746   -4.5783   -6.4627 H   0  0  0  0  0  0  0  0  0  0  0  0
   -8.8231   -3.0661   -3.2498 H   0  0  0  0  0  0  0  0  0  0  0  0
   -9.8088   -4.1215   -4.2798 H   0  0  0  0  0  0  0  0  0  0  0  0
   -6.8043   -3.4905   -4.6602 H   0  0  0  0  0  0  0  0  0  0  0  0
   -7.5186   -5.0307   -4.0512 H   0  0  0  0  0  0  0  0  0  0  0  0
   -7.7863   -4.5337   -5.7658 H   0  0  0  0  0  0  0  0  0  0  0  0
  -10.8399    0.9689   -8.5403 H   0  0  0  0  0  0  0  0  0  0  0  0
  -10.0715    2.0719   -7.3825 H   0  0  0  0  0  0  0  0  0  0  0  0
   -8.6243    0.3932   -9.5405 H   0  0  0  0  0  0  0  0  0  0  0  0
   -7.7927    1.4537   -8.3307 H   0  0  0  0  0  0  0  0  0  0  0  0
   -8.9060    2.1762   -9.5543 H   0  0  0  0  0  0  0  0  0  0  0  0
   -8.3252    2.2371   -5.8930 H   0  0  0  0  0  0  0  0  0  0  0  0
   -6.5616    3.6149   -5.0653 H   0  0  0  0  0  0  0  0  0  0  0  0
   -4.9989    5.1148   -5.7213 H   0  0  0  0  0  0  0  0  0  0  0  0
   -3.9014    6.3989   -5.1911 H   0  0  0  0  0  0  0  0  0  0  0  0
   -5.8190    7.5993   -4.0693 H   0  0  0  0  0  0  0  0  0  0  0  0
   -6.0762    7.3622   -5.8410 H   0  0  0  0  0  0  0  0  0  0  0  0
   -6.9428    6.3063   -4.6580 H   0  0  0  0  0  0  0  0  0  0  0  0
   -3.9053    3.8939    1.1131 H   0  0  0  0  0  0  0  0  0  0  0  0
   -5.0986    2.6792    0.6130 H   0  0  0  0  0  0  0  0  0  0  0  0
   -2.0877    2.5952   -0.0801 H   0  0  0  0  0  0  0  0  0  0  0  0
   -2.9294    1.6118    1.1809 H   0  0  0  0  0  0  0  0  0  0  0  0
   -3.3223    1.3569   -0.5642 H   0  0  0  0  0  0  0  0  0  0  0  0
   -2.2013    5.2265    0.3392 H   0  0  0  0  0  0  0  0  0  0  0  0
   -0.6191    6.8512    1.2593 H   0  0  0  0  0  0  0  0  0  0  0  0
    0.7020    7.4906    3.0897 H   0  0  0  0  0  0  0  0  0  0  0  0
    2.3659    7.2958    3.6894 H   0  0  0  0  0  0  0  0  0  0  0  0
    0.6420    5.0756    2.3986 H   0  0  0  0  0  0  0  0  0  0  0  0
    2.3610    4.8787    2.9201 H   0  0  0  0  0  0  0  0  0  0  0  0
    1.0836    5.2440    4.1400 H   0  0  0  0  0  0  0  0  0  0  0  0
    4.5615    7.1830   -2.7523 H   0  0  0  0  0  0  0  0  0  0  0  0
    3.0157    7.8858   -3.2583 H   0  0  0  0  0  0  0  0  0  0  0  0
    3.6854   10.1213   -2.3175 H   0  0  0  0  0  0  0  0  0  0  0  0
    4.7935    9.5275   -3.6134 H   0  0  0  0  0  0  0  0  0  0  0  0
    5.3023    9.4288   -1.8842 H   0  0  0  0  0  0  0  0  0  0  0  0
    6.0395    7.0782   -1.0016 H   0  0  0  0  0  0  0  0  0  0  0  0
    7.2418    5.4659    3.3877 H   0  0  0  0  0  0  0  0  0  0  0  0
    8.9952    2.5954    5.2888 H   0  0  0  0  0  0  0  0  0  0  0  0
    8.5319    4.2686    4.9017 H   0  0  0  0  0  0  0  0  0  0  0  0
    6.1313    3.5185    4.5559 H   0  0  0  0  0  0  0  0  0  0  0  0
    6.6192    1.8342    4.9941 H   0  0  0  0  0  0  0  0  0  0  0  0
    6.7486    3.1584    6.2139 H   0  0  0  0  0  0  0  0  0  0  0  0
    8.9729    2.7702   -1.6502 H   0  0  0  0  0  0  0  0  0  0  0  0
    9.3864    1.0835   -1.2607 H   0  0  0  0  0  0  0  0  0  0  0  0
    7.2788    1.2399   -2.5990 H   0  0  0  0  0  0  0  0  0  0  0  0
    6.9344    0.5419   -0.9680 H   0  0  0  0  0  0  0  0  0  0  0  0
    6.5229    2.2657   -1.3268 H   0  0  0  0  0  0  0  0  0  0  0  0
    8.7485   -0.6029    0.2399 H   0  0  0  0  0  0  0  0  0  0  0  0
    7.0116   -2.2741    0.6905 H   0  0  0  0  0  0  0  0  0  0  0  0
    4.3434   -4.9058   -0.2466 H   0  0  0  0  0  0  0  0  0  0  0  0
    5.7254   -3.8128   -0.4630 H   0  0  0  0  0  0  0  0  0  0  0  0
    4.4673   -1.9648    0.6994 H   0  0  0  0  0  0  0  0  0  0  0  0
    3.5576   -2.6120   -0.7188 H   0  0  0  0  0  0  0  0  0  0  0  0
    3.0685   -3.0890    0.9499 H   0  0  0  0  0  0  0  0  0  0  0  0
    5.9003   -5.5452    6.3317 H   0  0  0  0  0  0  0  0  0  0  0  0
    7.4591   -4.7595    6.0289 H   0  0  0  0  0  0  0  0  0  0  0  0
    6.7786   -7.6541    5.1729 H   0  0  0  0  0  0  0  0  0  0  0  0
    7.7199   -7.1720    6.6370 H   0  0  0  0  0  0  0  0  0  0  0  0
    8.3767   -6.8225    4.9907 H   0  0  0  0  0  0  0  0  0  0  0  0
    4.3121   -6.9023    5.3537 H   0  0  0  0  0  0  0  0  0  0  0  0
    0.3820   -6.9537    2.5598 H   0  0  0  0  0  0  0  0  0  0  0  0
   -1.9064   -6.7036    2.4770 H   0  0  0  0  0  0  0  0  0  0  0  0
   -3.4383   -7.5457    2.7895 H   0  0  0  0  0  0  0  0  0  0  0  0
   -2.6205   -8.1048    0.5344 H   0  0  0  0  0  0  0  0  0  0  0  0
   -1.0522   -8.6938    1.2004 H   0  0  0  0  0  0  0  0  0  0  0  0
   -2.5853   -9.5838    1.5665 H   0  0  0  0  0  0  0  0  0  0  0  0
    0.8623   -9.7161    7.7869 H   0  0  0  0  0  0  0  0  0  0  0  0
   -0.7441  -10.2943    8.2725 H   0  0  0  0  0  0  0  0  0  0  0  0
    0.8964  -12.1646    7.9813 H   0  0  0  0  0  0  0  0  0  0  0  0
    1.1107  -11.7194    6.2462 H   0  0  0  0  0  0  0  0  0  0  0  0
   -0.4872  -12.3278    6.8363 H   0  0  0  0  0  0  0  0  0  0  0  0
   -2.7370  -11.1231    7.4548 H   0  0  0  0  0  0  0  0  0  0  0  0
   -5.0724  -11.0711    6.3234 H   0  0  0  0  0  0  0  0  0  0  0  0
  1  2  2  0
  2  3  1  0
  3  4  2  0
  4  5  1  0
  5  6  1  0
  4  7  1  0
  7  8  2  0
  8  9  1  0
  9 10  1  0
 10 11  1  0
  9 12  2  0
 12 13  1  0
  8 14  1  0
 14 15  2  0
 15 16  1  0
 15 17  1  0
 17 18  2  0
 18 19  1  0
 19 20  2  0
 20 21  1  0
 21 22  1  0
 20 23  1  0
 23 24  2  0
 24 25  1  0
 25 26  1  0
 26 27  1  0
 25 28  2  0
 28 29  1  0
 24 30  1  0
 30 31  2  0
 31 32  1  0
 31 33  1  0
 33 34  2  0
 34 35  1  0
 35 36  2  0
 36 37  1  0
 37 38  1  0
 36 39  1  0
 39 40  2  0
 40 41  1  0
 41 42  1  0
 42 43  1  0
 41 44  2  0
 44 45  1  0
 40 46  1  0
 46 47  2  0
 47 48  1  0
 47 49  1  0
 49 50  2  0
 50 51  1  0
 51 52  2  0
 52 53  1  0
 53 54  1  0
 52 55  1  0
 55 56  2  0
 56 57  1  0
 57 58  1  0
 58 59  1  0
 57 60  2  0
 60 61  1  0
 56 62  1  0
 62 63  2  0
 63 64  1  0
 63 65  1  0
 65 66  2  0
 66 67  1  0
 67 68  2  0
 68 69  1  0
 69 70  1  0
 68 71  1  0
 71 72  2  0
 72 73  1  0
 73 74  1  0
 74 75  1  0
 73 76  2  0
 76 77  1  0
 72 78  1  0
 78 79  2  0
 79 80  1  0
 79 81  1  0
 81 82  2  0
 82 83  1  0
 83 84  2  0
 84 85  1  0
 85 86  1  0
 84 87  1  0
 87 88  2  0
 88 89  1  0
 89 90  1  0
 90 91  1  0
 89 92  2  0
 92 93  1  0
 88 94  1  0
 94 95  2  0
 95 96  1  0
 13  1  1  0
 29 17  1  0
 45 33  1  0
 61 49  1  0
 77 65  1  0
 93 81  1  0
 12  3  1  0
 28 19  1  0
 44 35  1  0
 60 51  1  0
 76 67  1  0
 92 83  1  0
 16  7  1  0
 32 23  1  0
 48 39  1  0
 64 55  1  0
 80 71  1  0
 96 87  1  0
  1 97  1  0
  2 98  1  0
  5 99  1  0
  5100  1  0
  6101  1  0
  6102  1  0
  6103  1  0
 10104  1  0
 10105  1  0
 11106  1  0
 11107  1  0
 11108  1  0
 14109  1  0
 18110  1  0
 21111  1  0
 21112  1  0
 22113  1  0
 22114  1  0
 22115  1  0
 26116  1  0
 26117  1  0
 27118  1  0
 27119  1  0
 27120  1  0
 30121  1  0
 34122  1  0
 37123  1  0
 37124  1  0
 38125  1  0
 38126  1  0
 38127  1  0
 42128  1  0
 42129  1  0
 43130  1  0
 43131  1  0
 43132  1  0
 46133  1  0
 50134  1  0
 53135  1  0
 53136  1  0
 54137  1  0
 54138  1  0
 54139  1  0
 58140  1  0
 58141  1  0
 59142  1  0
 59143  1  0
 59144  1  0
 62145  1  0
 66146  1  0
 69147  1  0
 69148  1  0
 70149  1  0
 70150  1  0
 70151  1  0
 74152  1  0
 74153  1  0
 75154  1  0
 75155  1  0
 75156  1  0
 78157  1  0
 82158  1  0
 85159  1  0
 85160  1  0
 86161  1  0
 86162  1  0
 86163  1  0
 90164  1  0
 90165  1  0
 91166  1  0
 91167  1  0
 91168  1  0
 94169  1  0
 95170  1  0
M  END

