
     RDKit          3D

159175  0  0  0  0  0  0  0  0999 V2000
    1.6394    8.7087    6.9793 C   0  0  0  0  0  0  0  0  0  0  0  0
    2.0173    7.4346    6.5677 C   0  0  0  0  0  0  0  0  0  0  0  0
    0.9638    6.5033    6.6019 C   0  0  0  0  0  0  0  0  0  0  0  0
    1.0352    5.1379    6.2461 C   0  0  0  0  0  0  0  0  0  0  0  0
    2.3217    4.4946    5.7813 C   0  0  0  0  0  0  0  0  0  0  0  0
    3.1625    4.0458    6.9746 C   0  0  0  0  0  0  0  0  0  0  0  0
   -0.1415    4.3827    6.4127 C   0  0  0  0  0  0  0  0  0  0  0  0
   -1.3385    4.9322    6.8862 C   0  0  0  0  0  0  0  0  0  0  0  0
   -1.4233    6.3089    7.1910 C   0  0  0  0  0  0  0  0  0  0  0  0
   -2.7034    6.9523    7.6739 C   0  0  0  0  0  0  0  0  0  0  0  0
   -2.8213    6.8644    9.1916 C   0  0  0  0  0  0  0  0  0  0  0  0
   -0.2395    7.0590    7.0525 C   0  0  0  0  0  0  0  0  0  0  0  0
    0.0083    8.6877    7.3951 S   0  0  0  0  0  0  0  0  0  0  0  0
   -2.3667    3.9817    7.0230 C   0  0  0  0  0  0  0  0  0  0  0  0
   -1.9920    2.7032    6.6039 C   0  0  0  0  0  0  0  0  0  0  0  0
   -0.3713    2.7407    6.1346 S   0  0  0  0  0  0  0  0  0  0  0  0
   -2.8186    1.4779    6.6227 C   0  0  0  0  0  0  0  0  0  0  0  0
   -2.1758   -0.0715    6.7358 S   0  0  0  0  0  0  0  0  0  0  0  0
   -3.6187   -0.9345    6.6612 C   0  0  0  0  0  0  0  0  0  0  0  0
   -4.6539    0.0020    6.5558 C   0  0  0  0  0  0  0  0  0  0  0  0
   -4.2082    1.3414    6.4931 C   0  0  0  0  0  0  0  0  0  0  0  0
   -5.1241    2.3706    6.2315 C   0  0  0  0  0  0  0  0  0  0  0  0
   -6.5006    2.0764    6.1426 C   0  0  0  0  0  0  0  0  0  0  0  0
   -7.4627    3.0670    5.8859 O   0  0  0  0  0  0  0  0  0  0  0  0
   -7.1598    4.4349    5.6357 C   0  0  0  0  0  0  0  0  0  0  0  0
   -6.9382    0.7539    6.3113 C   0  0  0  0  0  0  0  0  0  0  0  0
   -6.0226   -0.2863    6.5073 C   0  0  0  0  0  0  0  0  0  0  0  0
   -3.6670   -2.3878    6.4020 C   0  0  0  0  0  0  0  0  0  0  0  0
   -4.5343   -3.0181    5.5065 C   0  0  0  0  0  0  0  0  0  0  0  0
   -4.1130   -4.3060    5.1300 C   0  0  0  0  0  0  0  0  0  0  0  0
   -4.7003   -5.1108    4.1277 C   0  0  0  0  0  0  0  0  0  0  0  0
   -5.9705   -4.7069    3.4150 C   0  0  0  0  0  0  0  0  0  0  0  0
   -5.6731   -3.7856    2.2349 C   0  0  0  0  0  0  0  0  0  0  0  0
   -3.9559   -6.2276    3.7059 C   0  0  0  0  0  0  0  0  0  0  0  0
   -2.7221   -6.5757    4.2675 C   0  0  0  0  0  0  0  0  0  0  0  0
   -2.1931   -5.8365    5.3494 C   0  0  0  0  0  0  0  0  0  0  0  0
   -0.8403   -6.1463    5.9484 C   0  0  0  0  0  0  0  0  0  0  0  0
    0.2739   -5.4216    5.1963 C   0  0  0  0  0  0  0  0  0  0  0  0
   -2.9101   -4.6869    5.7344 C   0  0  0  0  0  0  0  0  0  0  0  0
   -2.3853   -3.4354    6.7277 S   0  0  0  0  0  0  0  0  0  0  0  0
   -2.0437   -7.5675    3.5334 C   0  0  0  0  0  0  0  0  0  0  0  0
   -2.7232   -7.9683    2.3788 C   0  0  0  0  0  0  0  0  0  0  0  0
   -4.1930   -7.1412    2.3172 S   0  0  0  0  0  0  0  0  0  0  0  0
   -2.0790   -8.5456    1.1808 C   0  0  0  0  0  0  0  0  0  0  0  0
   -0.6959   -8.6246    0.9988 C   0  0  0  0  0  0  0  0  0  0  0  0
   -0.3061   -8.6073   -0.3543 C   0  0  0  0  0  0  0  0  0  0  0  0
    1.0112   -8.4122   -0.8240 C   0  0  0  0  0  0  0  0  0  0  0  0
    2.1996   -8.3890    0.1091 C   0  0  0  0  0  0  0  0  0  0  0  0
    2.4056   -7.0003    0.7122 C   0  0  0  0  0  0  0  0  0  0  0  0
    1.1469   -8.0565   -2.1782 C   0  0  0  0  0  0  0  0  0  0  0  0
    0.0596   -7.9898   -3.0575 C   0  0  0  0  0  0  0  0  0  0  0  0
   -1.2443   -8.3097   -2.6152 C   0  0  0  0  0  0  0  0  0  0  0  0
   -2.4403   -8.2579   -3.5415 C   0  0  0  0  0  0  0  0  0  0  0  0
   -2.4593   -9.4749   -4.4632 C   0  0  0  0  0  0  0  0  0  0  0  0
   -1.3902   -8.5818   -1.2403 C   0  0  0  0  0  0  0  0  0  0  0  0
   -2.8097   -8.5538   -0.3410 S   0  0  0  0  0  0  0  0  0  0  0  0
    0.3878   -7.3988   -4.2924 C   0  0  0  0  0  0  0  0  0  0  0  0
    1.7062   -6.9434   -4.3542 C   0  0  0  0  0  0  0  0  0  0  0  0
    2.4857   -7.3561   -2.9165 S   0  0  0  0  0  0  0  0  0  0  0  0
    2.1720   -5.8816   -5.2653 C   0  0  0  0  0  0  0  0  0  0  0  0
    3.2631   -5.0476   -5.0143 C   0  0  0  0  0  0  0  0  0  0  0  0
    3.2464   -3.8640   -5.7748 C   0  0  0  0  0  0  0  0  0  0  0  0
    4.1204   -2.7648   -5.6223 C   0  0  0  0  0  0  0  0  0  0  0  0
    5.2872   -2.7878   -4.6610 C   0  0  0  0  0  0  0  0  0  0  0  0
    4.8552   -2.3454   -3.2642 C   0  0  0  0  0  0  0  0  0  0  0  0
    3.7842   -1.5916   -6.3230 C   0  0  0  0  0  0  0  0  0  0  0  0
    2.6826   -1.5099   -7.1835 C   0  0  0  0  0  0  0  0  0  0  0  0
    1.8476   -2.6315   -7.3891 C   0  0  0  0  0  0  0  0  0  0  0  0
    0.5979   -2.5584   -8.2336 C   0  0  0  0  0  0  0  0  0  0  0  0
   -0.5792   -2.0308   -7.4173 C   0  0  0  0  0  0  0  0  0  0  0  0
    2.1536   -3.7867   -6.6450 C   0  0  0  0  0  0  0  0  0  0  0  0
    1.2134   -5.1669   -6.4574 S   0  0  0  0  0  0  0  0  0  0  0  0
    2.4742   -0.2123   -7.6862 C   0  0  0  0  0  0  0  0  0  0  0  0
    3.3923    0.7174   -7.1994 C   0  0  0  0  0  0  0  0  0  0  0  0
    4.4775   -0.0637   -6.1707 S   0  0  0  0  0  0  0  0  0  0  0  0
    3.3273    2.1712   -7.4118 C   0  0  0  0  0  0  0  0  0  0  0  0
    3.9407    3.1340   -6.6109 C   0  0  0  0  0  0  0  0  0  0  0  0
    3.6128    4.4501   -6.9823 C   0  0  0  0  0  0  0  0  0  0  0  0
    4.0269    5.6331   -6.3305 C   0  0  0  0  0  0  0  0  0  0  0  0
    4.9166    5.6116   -5.1077 C   0  0  0  0  0  0  0  0  0  0  0  0
    6.3871    5.5300   -5.5049 C   0  0  0  0  0  0  0  0  0  0  0  0
    3.5772    6.8465   -6.8849 C   0  0  0  0  0  0  0  0  0  0  0  0
    2.7381    6.9070   -8.0034 C   0  0  0  0  0  0  0  0  0  0  0  0
    2.3105    5.7233   -8.6455 C   0  0  0  0  0  0  0  0  0  0  0  0
    1.3695    5.7462   -9.8296 C   0  0  0  0  0  0  0  0  0  0  0  0
   -0.0819    5.8526   -9.3688 C   0  0  0  0  0  0  0  0  0  0  0  0
    2.7638    4.5091   -8.0950 C   0  0  0  0  0  0  0  0  0  0  0  0
    2.3925    2.9424   -8.5857 S   0  0  0  0  0  0  0  0  0  0  0  0
    2.3961    8.2240   -8.3612 C   0  0  0  0  0  0  0  0  0  0  0  0
    2.9683    9.1860   -7.5355 C   0  0  0  0  0  0  0  0  0  0  0  0
    3.8943    8.4134   -6.3601 S   0  0  0  0  0  0  0  0  0  0  0  0
    2.2922    9.5693    7.0306 H   0  0  0  0  0  0  0  0  0  0  0  0
    3.0292    7.2040    6.2641 H   0  0  0  0  0  0  0  0  0  0  0  0
    2.9068    5.2010    5.1556 H   0  0  0  0  0  0  0  0  0  0  0  0
    2.1099    3.6161    5.1362 H   0  0  0  0  0  0  0  0  0  0  0  0
    4.1251    3.6257    6.6134 H   0  0  0  0  0  0  0  0  0  0  0  0
    3.3806    4.9055    7.6414 H   0  0  0  0  0  0  0  0  0  0  0  0
    2.6223    3.2649    7.5507 H   0  0  0  0  0  0  0  0  0  0  0  0
   -2.7360    8.0202    7.3683 H   0  0  0  0  0  0  0  0  0  0  0  0
   -3.5863    6.4728    7.2001 H   0  0  0  0  0  0  0  0  0  0  0  0
   -1.9607    7.3747    9.6735 H   0  0  0  0  0  0  0  0  0  0  0  0
   -2.8457    5.8021    9.5158 H   0  0  0  0  0  0  0  0  0  0  0  0
   -3.7602    7.3585    9.5196 H   0  0  0  0  0  0  0  0  0  0  0  0
   -3.3252    4.2046    7.4661 H   0  0  0  0  0  0  0  0  0  0  0  0
   -4.7817    3.3753    6.0563 H   0  0  0  0  0  0  0  0  0  0  0  0
   -6.6494    4.8823    6.5149 H   0  0  0  0  0  0  0  0  0  0  0  0
   -6.5157    4.5235    4.7363 H   0  0  0  0  0  0  0  0  0  0  0  0
   -8.1023    4.9886    5.4504 H   0  0  0  0  0  0  0  0  0  0  0  0
   -7.9971    0.5288    6.2691 H   0  0  0  0  0  0  0  0  0  0  0  0
   -6.3914   -1.2924    6.6425 H   0  0  0  0  0  0  0  0  0  0  0  0
   -5.3591   -2.5101    5.0306 H   0  0  0  0  0  0  0  0  0  0  0  0
   -6.6641   -4.1992    4.1196 H   0  0  0  0  0  0  0  0  0  0  0  0
   -6.5059   -5.6091    3.0484 H   0  0  0  0  0  0  0  0  0  0  0  0
   -5.0406   -4.3074    1.4871 H   0  0  0  0  0  0  0  0  0  0  0  0
   -6.6239   -3.4858    1.7473 H   0  0  0  0  0  0  0  0  0  0  0  0
   -5.1458   -2.8703    2.5751 H   0  0  0  0  0  0  0  0  0  0  0  0
   -0.8186   -5.8414    7.0177 H   0  0  0  0  0  0  0  0  0  0  0  0
   -0.6521   -7.2416    5.9339 H   0  0  0  0  0  0  0  0  0  0  0  0
    0.2439   -5.6729    4.1142 H   0  0  0  0  0  0  0  0  0  0  0  0
    0.1660   -4.3234    5.3129 H   0  0  0  0  0  0  0  0  0  0  0  0
    1.2580   -5.7263    5.6066 H   0  0  0  0  0  0  0  0  0  0  0  0
   -1.0351   -7.8832    3.7571 H   0  0  0  0  0  0  0  0  0  0  0  0
    0.0061   -8.5309    1.8149 H   0  0  0  0  0  0  0  0  0  0  0  0
    3.1199   -8.6917   -0.4365 H   0  0  0  0  0  0  0  0  0  0  0  0
    2.0612   -9.1345    0.9215 H   0  0  0  0  0  0  0  0  0  0  0  0
    1.4709   -6.6324    1.1860 H   0  0  0  0  0  0  0  0  0  0  0  0
    2.7201   -6.2814   -0.0741 H   0  0  0  0  0  0  0  0  0  0  0  0
    3.1965   -7.0496    1.4877 H   0  0  0  0  0  0  0  0  0  0  0  0
   -3.3942   -8.2383   -2.9759 H   0  0  0  0  0  0  0  0  0  0  0  0
   -2.4228   -7.3267   -4.1447 H   0  0  0  0  0  0  0  0  0  0  0  0
   -1.5395   -9.5093   -5.0858 H   0  0  0  0  0  0  0  0  0  0  0  0
   -3.3414   -9.4194   -5.1355 H   0  0  0  0  0  0  0  0  0  0  0  0
   -2.5263  -10.4064   -3.8607 H   0  0  0  0  0  0  0  0  0  0  0  0
   -0.3387   -7.1762   -5.0619 H   0  0  0  0  0  0  0  0  0  0  0  0
    3.9746   -5.2415   -4.2235 H   0  0  0  0  0  0  0  0  0  0  0  0
    5.7314   -3.8048   -4.6114 H   0  0  0  0  0  0  0  0  0  0  0  0
    6.0947   -2.1147   -5.0230 H   0  0  0  0  0  0  0  0  0  0  0  0
    4.0607   -3.0143   -2.8722 H   0  0  0  0  0  0  0  0  0  0  0  0
    4.4731   -1.3041   -3.2926 H   0  0  0  0  0  0  0  0  0  0  0  0
    5.7270   -2.3843   -2.5778 H   0  0  0  0  0  0  0  0  0  0  0  0
    0.3434   -3.5639   -8.6314 H   0  0  0  0  0  0  0  0  0  0  0  0
    0.7608   -1.9084   -9.1189 H   0  0  0  0  0  0  0  0  0  0  0  0
   -0.7492   -2.6705   -6.5241 H   0  0  0  0  0  0  0  0  0  0  0  0
   -0.3878   -0.9882   -7.0867 H   0  0  0  0  0  0  0  0  0  0  0  0
   -1.5000   -2.0395   -8.0391 H   0  0  0  0  0  0  0  0  0  0  0  0
    1.6478    0.0644   -8.3262 H   0  0  0  0  0  0  0  0  0  0  0  0
    4.5741    2.8800   -5.7715 H   0  0  0  0  0  0  0  0  0  0  0  0
    4.6564    4.7548   -4.4526 H   0  0  0  0  0  0  0  0  0  0  0  0
    4.7583    6.5236   -4.4934 H   0  0  0  0  0  0  0  0  0  0  0  0
    6.5810    4.6013   -6.0824 H   0  0  0  0  0  0  0  0  0  0  0  0
    6.6663    6.4104   -6.1200 H   0  0  0  0  0  0  0  0  0  0  0  0
    7.0176    5.5184   -4.5908 H   0  0  0  0  0  0  0  0  0  0  0  0
    1.6127    6.5962  -10.5012 H   0  0  0  0  0  0  0  0  0  0  0  0
    1.4885    4.8278  -10.4424 H   0  0  0  0  0  0  0  0  0  0  0  0
   -0.2423    6.7979   -8.8101 H   0  0  0  0  0  0  0  0  0  0  0  0
   -0.7550    5.8421  -10.2521 H   0  0  0  0  0  0  0  0  0  0  0  0
   -0.3388    4.9940   -8.7130 H   0  0  0  0  0  0  0  0  0  0  0  0
    1.7505    8.4866   -9.1873 H   0  0  0  0  0  0  0  0  0  0  0  0
    2.8349   10.2551   -7.6316 H   0  0  0  0  0  0  0  0  0  0  0  0
  1  2  2  0
  2  3  1  0
  3  4  2  0
  4  5  1  0
  5  6  1  0
  4  7  1  0
  7  8  2  0
  8  9  1  0
  9 10  1  0
 10 11  1  0
  9 12  2  0
 12 13  1  0
  8 14  1  0
 14 15  2  0
 15 16  1  0
 15 17  1  0
 17 18  1  0
 18 19  1  0
 19 20  2  0
 20 21  1  0
 21 22  1  0
 22 23  2  0
 23 24  1  0
 24 25  1  0
 23 26  1  0
 26 27  2  0
 19 28  1  0
 28 29  2  0
 29 30  1  0
 30 31  2  0
 31 32  1  0
 32 33  1  0
 31 34  1  0
 34 35  2  0
 35 36  1  0
 36 37  1  0
 37 38  1  0
 36 39  2  0
 39 40  1  0
 35 41  1  0
 41 42  2  0
 42 43  1  0
 42 44  1  0
 44 45  2  0
 45 46  1  0
 46 47  2  0
 47 48  1  0
 48 49  1  0
 47 50  1  0
 50 51  2  0
 51 52  1  0
 52 53  1  0
 53 54  1  0
 52 55  2  0
 55 56  1  0
 51 57  1  0
 57 58  2  0
 58 59  1  0
 58 60  1  0
 60 61  2  0
 61 62  1  0
 62 63  2  0
 63 64  1  0
 64 65  1  0
 63 66  1  0
 66 67  2  0
 67 68  1  0
 68 69  1  0
 69 70  1  0
 68 71  2  0
 71 72  1  0
 67 73  1  0
 73 74  2  0
 74 75  1  0
 74 76  1  0
 76 77  2  0
 77 78  1  0
 78 79  2  0
 79 80  1  0
 80 81  1  0
 79 82  1  0
 82 83  2  0
 83 84  1  0
 84 85  1  0
 85 86  1  0
 84 87  2  0
 87 88  1  0
 83 89  1  0
 89 90  2  0
 90 91  1  0
 13  1  1  0
 21 17  2  0
 40 28  1  0
 56 44  1  0
 72 60  1  0
 88 76  1  0
 12  3  1  0
 27 20  1  0
 39 30  1  0
 55 46  1  0
 71 62  1  0
 87 78  1  0
 16  7  1  0
 43 34  1  0
 59 50  1  0
 75 66  1  0
 91 82  1  0
  1 92  1  0
  2 93  1  0
  5 94  1  0
  5 95  1  0
  6 96  1  0
  6 97  1  0
  6 98  1  0
 10 99  1  0
 10100  1  0
 11101  1  0
 11102  1  0
 11103  1  0
 14104  1  0
 22105  1  0
 25106  1  0
 25107  1  0
 25108  1  0
 26109  1  0
 27110  1  0
 29111  1  0
 32112  1  0
 32113  1  0
 33114  1  0
 33115  1  0
 33116  1  0
 37117  1  0
 37118  1  0
 38119  1  0
 38120  1  0
 38121  1  0
 41122  1  0
 45123  1  0
 48124  1  0
 48125  1  0
 49126  1  0
 49127  1  0
 49128  1  0
 53129  1  0
 53130  1  0
 54131  1  0
 54132  1  0
 54133  1  0
 57134  1  0
 61135  1  0
 64136  1  0
 64137  1  0
 65138  1  0
 65139  1  0
 65140  1  0
 69141  1  0
 69142  1  0
 70143  1  0
 70144  1  0
 70145  1  0
 73146  1  0
 77147  1  0
 80148  1  0
 80149  1  0
 81150  1  0
 81151  1  0
 81152  1  0
 85153  1  0
 85154  1  0
 86155  1  0
 86156  1  0
 86157  1  0
 89158  1  0
 90159  1  0
M  END

