
     RDKit          3D

 94105  0  0  0  0  0  0  0  0999 V2000
   10.6156   -0.1440    2.5758 C   0  0  0  0  0  0  0  0  0  0  0  0
   10.4123   -1.1266    1.6110 C   0  0  0  0  0  0  0  0  0  0  0  0
   10.8062   -2.4054    1.6139 N   0  0  0  0  0  0  0  0  0  0  0  0
   10.4523   -2.8593    0.4372 O   0  0  0  0  0  0  0  0  0  0  0  0
    9.8731   -1.9708   -0.3313 N   0  0  0  0  0  0  0  0  0  0  0  0
    9.8334   -0.8565    0.4132 C   0  0  0  0  0  0  0  0  0  0  0  0
    9.3868    0.4278    0.0675 C   0  0  0  0  0  0  0  0  0  0  0  0
    9.5983    1.4557    1.0142 C   0  0  0  0  0  0  0  0  0  0  0  0
   10.1965    1.1672    2.2640 C   0  0  0  0  0  0  0  0  0  0  0  0
    8.7904    0.7463   -1.2458 C   0  0  0  0  0  0  0  0  0  0  0  0
    7.8489    0.0131   -1.8566 C   0  0  0  0  0  0  0  0  0  0  0  0
    7.1370   -1.1230   -1.2394 C   0  0  0  0  0  0  0  0  0  0  0  0
    6.5268   -1.0338    0.0166 C   0  0  0  0  0  0  0  0  0  0  0  0
    6.4473    0.0136    0.8544 N   0  0  0  0  0  0  0  0  0  0  0  0
    5.7941   -0.4449    1.8914 O   0  0  0  0  0  0  0  0  0  0  0  0
    5.4331   -1.7020    1.7891 N   0  0  0  0  0  0  0  0  0  0  0  0
    5.8884   -2.0829    0.5874 C   0  0  0  0  0  0  0  0  0  0  0  0
    5.8012   -3.3333   -0.0344 C   0  0  0  0  0  0  0  0  0  0  0  0
    6.4124   -3.4630   -1.2998 C   0  0  0  0  0  0  0  0  0  0  0  0
    7.0474   -2.3616   -1.9107 C   0  0  0  0  0  0  0  0  0  0  0  0
    5.1734   -4.5029    0.6131 C   0  0  0  0  0  0  0  0  0  0  0  0
    3.9250   -4.5123    1.1010 C   0  0  0  0  0  0  0  0  0  0  0  0
    2.9340   -3.4365    0.8906 C   0  0  0  0  0  0  0  0  0  0  0  0
    1.9008   -2.8698    2.0881 S   0  0  0  0  0  0  0  0  0  0  0  0
    0.9548   -1.8673    1.1206 C   0  0  0  0  0  0  0  0  0  0  0  0
    1.4062   -2.0099   -0.1948 C   0  0  0  0  0  0  0  0  0  0  0  0
    2.4944   -2.8987   -0.3262 C   0  0  0  0  0  0  0  0  0  0  0  0
    2.9472   -3.2680   -1.5981 C   0  0  0  0  0  0  0  0  0  0  0  0
    2.3638   -2.6856   -2.7459 C   0  0  0  0  0  0  0  0  0  0  0  0
    2.7914   -3.0018   -4.0427 O   0  0  0  0  0  0  0  0  0  0  0  0
    3.7748   -3.9826   -4.3455 C   0  0  0  0  0  0  0  0  0  0  0  0
    1.3119   -1.7671   -2.5987 C   0  0  0  0  0  0  0  0  0  0  0  0
    0.8119   -1.4449   -1.3332 C   0  0  0  0  0  0  0  0  0  0  0  0
   -0.3082   -1.2374    1.5552 C   0  0  0  0  0  0  0  0  0  0  0  0
   -1.2909   -1.9665    2.2254 C   0  0  0  0  0  0  0  0  0  0  0  0
   -1.2465   -3.2291    2.6759 N   0  0  0  0  0  0  0  0  0  0  0  0
   -2.4345   -3.4441    3.1838 O   0  0  0  0  0  0  0  0  0  0  0  0
   -3.2505   -2.4251    3.0853 N   0  0  0  0  0  0  0  0  0  0  0  0
   -2.5327   -1.4717    2.4662 C   0  0  0  0  0  0  0  0  0  0  0  0
   -2.9185   -0.1876    2.0573 C   0  0  0  0  0  0  0  0  0  0  0  0
   -1.9246    0.6089    1.4479 C   0  0  0  0  0  0  0  0  0  0  0  0
   -0.6342    0.0876    1.1867 C   0  0  0  0  0  0  0  0  0  0  0  0
   -4.3073    0.3135    2.1454 C   0  0  0  0  0  0  0  0  0  0  0  0
   -5.3661   -0.4799    1.8871 C   0  0  0  0  0  0  0  0  0  0  0  0
   -6.7613    0.0077    1.7393 C   0  0  0  0  0  0  0  0  0  0  0  0
   -7.8085   -0.9082    1.5923 C   0  0  0  0  0  0  0  0  0  0  0  0
   -7.7720   -2.2486    1.6383 N   0  0  0  0  0  0  0  0  0  0  0  0
   -9.0082   -2.6196    1.4073 O   0  0  0  0  0  0  0  0  0  0  0  0
   -9.8407   -1.6281    1.2021 N   0  0  0  0  0  0  0  0  0  0  0  0
   -9.0848   -0.5289    1.3253 C   0  0  0  0  0  0  0  0  0  0  0  0
   -9.4422    0.8039    1.1432 C   0  0  0  0  0  0  0  0  0  0  0  0
   -8.4323    1.7697    1.3372 C   0  0  0  0  0  0  0  0  0  0  0  0
   -7.1028    1.3809    1.6148 C   0  0  0  0  0  0  0  0  0  0  0  0
  -10.8124    1.1754    0.7291 C   0  0  0  0  0  0  0  0  0  0  0  0
  -11.0880    2.0393   -0.2629 C   0  0  0  0  0  0  0  0  0  0  0  0
  -10.0594    2.6278   -1.1446 C   0  0  0  0  0  0  0  0  0  0  0  0
   -9.1562    1.8379   -1.8594 C   0  0  0  0  0  0  0  0  0  0  0  0
   -9.1159    0.5026   -1.9862 N   0  0  0  0  0  0  0  0  0  0  0  0
   -8.1028    0.2804   -2.7834 O   0  0  0  0  0  0  0  0  0  0  0  0
   -7.4887    1.3645   -3.1886 N   0  0  0  0  0  0  0  0  0  0  0  0
   -8.1514    2.3703   -2.6015 C   0  0  0  0  0  0  0  0  0  0  0  0
   -7.9588    3.7549   -2.7197 C   0  0  0  0  0  0  0  0  0  0  0  0
   -8.8907    4.5827   -2.0503 C   0  0  0  0  0  0  0  0  0  0  0  0
   -9.9331    4.0232   -1.2773 C   0  0  0  0  0  0  0  0  0  0  0  0
   -6.8578    4.3803   -3.4943 C   0  0  0  0  0  0  0  0  0  0  0  0
   -5.6884    3.7800   -3.7354 C   0  0  0  0  0  0  0  0  0  0  0  0
   11.1047   -0.3690    3.5151 H   0  0  0  0  0  0  0  0  0  0  0  0
    9.2880    2.4761    0.7973 H   0  0  0  0  0  0  0  0  0  0  0  0
   10.3438    1.9652    2.9812 H   0  0  0  0  0  0  0  0  0  0  0  0
    9.1762    1.6167   -1.7677 H   0  0  0  0  0  0  0  0  0  0  0  0
    7.5982    0.2669   -2.8772 H   0  0  0  0  0  0  0  0  0  0  0  0
    6.3806   -4.4059   -1.8311 H   0  0  0  0  0  0  0  0  0  0  0  0
    7.4981   -2.4728   -2.8921 H   0  0  0  0  0  0  0  0  0  0  0  0
    5.7744   -5.4008    0.7263 H   0  0  0  0  0  0  0  0  0  0  0  0
    3.6113   -5.3764    1.6724 H   0  0  0  0  0  0  0  0  0  0  0  0
    3.7184   -4.0160   -1.6990 H   0  0  0  0  0  0  0  0  0  0  0  0
    4.7578   -3.6900   -3.9213 H   0  0  0  0  0  0  0  0  0  0  0  0
    3.8745   -4.0568   -5.4460 H   0  0  0  0  0  0  0  0  0  0  0  0
    3.4696   -4.9702   -3.9464 H   0  0  0  0  0  0  0  0  0  0  0  0
    0.8589   -1.3265   -3.4799 H   0  0  0  0  0  0  0  0  0  0  0  0
   -0.0339   -0.7728   -1.2626 H   0  0  0  0  0  0  0  0  0  0  0  0
   -2.1621    1.6117    1.1124 H   0  0  0  0  0  0  0  0  0  0  0  0
    0.0960    0.7072    0.6788 H   0  0  0  0  0  0  0  0  0  0  0  0
   -4.4389    1.3770    2.2880 H   0  0  0  0  0  0  0  0  0  0  0  0
   -5.1912   -1.5285    1.6849 H   0  0  0  0  0  0  0  0  0  0  0  0
   -8.6608    2.8251    1.2479 H   0  0  0  0  0  0  0  0  0  0  0  0
   -6.3609    2.1637    1.6893 H   0  0  0  0  0  0  0  0  0  0  0  0
  -11.6403    0.7008    1.2382 H   0  0  0  0  0  0  0  0  0  0  0  0
  -12.1220    2.3234   -0.4270 H   0  0  0  0  0  0  0  0  0  0  0  0
   -8.7953    5.6598   -2.0956 H   0  0  0  0  0  0  0  0  0  0  0  0
  -10.6125    4.6833   -0.7538 H   0  0  0  0  0  0  0  0  0  0  0  0
   -6.9581    5.4136   -3.8039 H   0  0  0  0  0  0  0  0  0  0  0  0
   -5.4721    2.7793   -3.3965 H   0  0  0  0  0  0  0  0  0  0  0  0
   -4.9049    4.3214   -4.2582 H   0  0  0  0  0  0  0  0  0  0  0  0
  1  2  1  0
  2  3  2  0
  3  4  1  0
  4  5  1  0
  5  6  2  0
  6  7  1  0
  7  8  2  0
  8  9  1  0
  7 10  1  0
 10 11  2  3
 11 12  1  0
 12 13  1  0
 13 14  2  0
 14 15  1  0
 15 16  1  0
 16 17  2  0
 17 18  1  0
 18 19  2  0
 19 20  1  0
 18 21  1  0
 21 22  2  3
 22 23  1  0
 23 24  1  0
 24 25  1  0
 25 26  2  0
 26 27  1  0
 27 28  1  0
 28 29  2  0
 29 30  1  0
 30 31  1  0
 29 32  1  0
 32 33  2  0
 25 34  1  0
 34 35  1  0
 35 36  2  0
 36 37  1  0
 37 38  1  0
 38 39  2  0
 39 40  1  0
 40 41  2  0
 41 42  1  0
 40 43  1  0
 43 44  2  3
 44 45  1  0
 45 46  1  0
 46 47  2  0
 47 48  1  0
 48 49  1  0
 49 50  2  0
 50 51  1  0
 51 52  2  0
 52 53  1  0
 51 54  1  0
 54 55  2  3
 55 56  1  0
 56 57  1  0
 57 58  2  0
 58 59  1  0
 59 60  1  0
 60 61  2  0
 61 62  1  0
 62 63  2  0
 63 64  1  0
 62 65  1  0
 65 66  2  3
  9  1  2  0
 20 12  2  0
 27 23  2  0
 42 34  2  0
 53 45  2  0
 64 56  2  0
  6  2  1  0
 17 13  1  0
 33 26  1  0
 39 35  1  0
 50 46  1  0
 61 57  1  0
  1 67  1  0
  8 68  1  0
  9 69  1  0
 10 70  1  0
 11 71  1  0
 19 72  1  0
 20 73  1  0
 21 74  1  0
 22 75  1  0
 28 76  1  0
 31 77  1  0
 31 78  1  0
 31 79  1  0
 32 80  1  0
 33 81  1  0
 41 82  1  0
 42 83  1  0
 43 84  1  0
 44 85  1  0
 52 86  1  0
 53 87  1  0
 54 88  1  0
 55 89  1  0
 63 90  1  0
 64 91  1  0
 65 92  1  0
 66 93  1  0
 66 94  1  0
M  END

