
     RDKit          3D

154171  0  0  0  0  0  0  0  0999 V2000
    3.1858    1.7889   13.7776 C   0  0  0  0  0  0  0  0  0  0  0  0
    3.4718    0.7035   12.5250 S   0  0  0  0  0  0  0  0  0  0  0  0
    2.4341    1.3943   11.3884 C   0  0  0  0  0  0  0  0  0  0  0  0
    1.8500    2.5193   11.9843 C   0  0  0  0  0  0  0  0  0  0  0  0
    2.2741    2.7278   13.3109 C   0  0  0  0  0  0  0  0  0  0  0  0
    1.8123    3.8199   14.0487 C   0  0  0  0  0  0  0  0  0  0  0  0
    0.9262    4.7307   13.4572 C   0  0  0  0  0  0  0  0  0  0  0  0
    0.4931    5.8255   14.2198 O   0  0  0  0  0  0  0  0  0  0  0  0
   -0.4083    6.8245   13.7513 C   0  0  0  0  0  0  0  0  0  0  0  0
    0.5093    4.5286   12.1217 C   0  0  0  0  0  0  0  0  0  0  0  0
    0.9713    3.4319   11.3835 C   0  0  0  0  0  0  0  0  0  0  0  0
    2.2277    0.8573   10.0308 C   0  0  0  0  0  0  0  0  0  0  0  0
    3.1856    0.1580    9.2966 C   0  0  0  0  0  0  0  0  0  0  0  0
    2.7224   -0.2464    8.0331 C   0  0  0  0  0  0  0  0  0  0  0  0
    3.4627   -0.9292    7.0438 C   0  0  0  0  0  0  0  0  0  0  0  0
    4.8476   -1.3705    7.2773 C   0  0  0  0  0  0  0  0  0  0  0  0
    6.1674   -0.3471    7.4826 S   0  0  0  0  0  0  0  0  0  0  0  0
    7.2954   -1.5706    7.7435 C   0  0  0  0  0  0  0  0  0  0  0  0
    8.7622   -1.3442    7.9389 C   0  0  0  0  0  0  0  0  0  0  0  0
    9.5148   -1.5131    6.6215 C   0  0  0  0  0  0  0  0  0  0  0  0
    6.6466   -2.8018    7.6691 C   0  0  0  0  0  0  0  0  0  0  0  0
    7.4611   -4.3463    7.8751 Cl  0  0  0  0  0  0  0  0  0  0  0  0
    5.2724   -2.6889    7.4128 C   0  0  0  0  0  0  0  0  0  0  0  0
    4.1901   -4.0737    7.3062 Cl  0  0  0  0  0  0  0  0  0  0  0  0
    2.8060   -1.2058    5.8321 C   0  0  0  0  0  0  0  0  0  0  0  0
    1.4674   -0.8706    5.6172 C   0  0  0  0  0  0  0  0  0  0  0  0
    0.7204   -0.2084    6.6105 C   0  0  0  0  0  0  0  0  0  0  0  0
   -0.6972    0.1437    6.4070 C   0  0  0  0  0  0  0  0  0  0  0  0
   -1.2674    1.1761    5.2057 S   0  0  0  0  0  0  0  0  0  0  0  0
   -2.9022    0.8974    5.4902 C   0  0  0  0  0  0  0  0  0  0  0  0
   -4.0112    1.4368    4.6393 C   0  0  0  0  0  0  0  0  0  0  0  0
   -4.2178    0.5625    3.4076 C   0  0  0  0  0  0  0  0  0  0  0  0
   -3.0224   -0.0348    6.5193 C   0  0  0  0  0  0  0  0  0  0  0  0
   -1.7856   -0.4520    7.0368 C   0  0  0  0  0  0  0  0  0  0  0  0
   -1.6262   -1.6759    8.2909 Cl  0  0  0  0  0  0  0  0  0  0  0  0
   -4.5620   -0.6663    7.0879 Cl  0  0  0  0  0  0  0  0  0  0  0  0
    1.3867    0.0994    7.8064 C   0  0  0  0  0  0  0  0  0  0  0  0
    0.7903    0.9249    9.1433 S   0  0  0  0  0  0  0  0  0  0  0  0
    1.0008   -1.2486    4.3537 C   0  0  0  0  0  0  0  0  0  0  0  0
    1.9820   -1.8293    3.5541 C   0  0  0  0  0  0  0  0  0  0  0  0
    3.4290   -1.9076    4.4266 S   0  0  0  0  0  0  0  0  0  0  0  0
    1.7861   -2.1899    2.1406 C   0  0  0  0  0  0  0  0  0  0  0  0
    0.5434   -2.2379    1.5153 C   0  0  0  0  0  0  0  0  0  0  0  0
    0.6283   -2.3425    0.1238 C   0  0  0  0  0  0  0  0  0  0  0  0
   -0.4566   -2.2529   -0.7639 C   0  0  0  0  0  0  0  0  0  0  0  0
   -1.8458   -2.1371   -0.2846 C   0  0  0  0  0  0  0  0  0  0  0  0
   -2.6812   -3.3515    0.5264 S   0  0  0  0  0  0  0  0  0  0  0  0
   -4.1155   -2.4916    0.7045 C   0  0  0  0  0  0  0  0  0  0  0  0
   -5.3625   -3.0439    1.3246 C   0  0  0  0  0  0  0  0  0  0  0  0
   -6.3093   -3.5740    0.2538 C   0  0  0  0  0  0  0  0  0  0  0  0
   -3.9611   -1.2383    0.1177 C   0  0  0  0  0  0  0  0  0  0  0  0
   -5.2483   -0.0421    0.0207 Cl  0  0  0  0  0  0  0  0  0  0  0  0
   -2.6836   -1.0345   -0.4242 C   0  0  0  0  0  0  0  0  0  0  0  0
   -2.1862    0.4810   -1.1724 Cl  0  0  0  0  0  0  0  0  0  0  0  0
   -0.1526   -2.2192   -2.1293 C   0  0  0  0  0  0  0  0  0  0  0  0
    1.1533   -2.2888   -2.6197 C   0  0  0  0  0  0  0  0  0  0  0  0
    2.2446   -2.3787   -1.7266 C   0  0  0  0  0  0  0  0  0  0  0  0
    3.6364   -2.3096   -2.1993 C   0  0  0  0  0  0  0  0  0  0  0  0
    4.7740   -3.5371   -2.0358 S   0  0  0  0  0  0  0  0  0  0  0  0
    6.0276   -2.7185   -2.8086 C   0  0  0  0  0  0  0  0  0  0  0  0
    7.4225   -3.2455   -2.9657 C   0  0  0  0  0  0  0  0  0  0  0  0
    8.2618   -2.9239   -1.7354 C   0  0  0  0  0  0  0  0  0  0  0  0
    5.5733   -1.4529   -3.1795 C   0  0  0  0  0  0  0  0  0  0  0  0
    4.2292   -1.2262   -2.8445 C   0  0  0  0  0  0  0  0  0  0  0  0
    3.4023    0.2982   -3.1447 Cl  0  0  0  0  0  0  0  0  0  0  0  0
    6.5851   -0.2480   -3.9654 Cl  0  0  0  0  0  0  0  0  0  0  0  0
    1.9421   -2.4062   -0.3508 C   0  0  0  0  0  0  0  0  0  0  0  0
    2.9988   -2.3109    0.9658 S   0  0  0  0  0  0  0  0  0  0  0  0
    1.2210   -2.2095   -4.0253 C   0  0  0  0  0  0  0  0  0  0  0  0
   -0.0307   -2.0132   -4.6198 C   0  0  0  0  0  0  0  0  0  0  0  0
   -1.2097   -2.0364   -3.4112 S   0  0  0  0  0  0  0  0  0  0  0  0
   -0.3623   -1.7524   -6.0370 C   0  0  0  0  0  0  0  0  0  0  0  0
   -1.9368   -1.8891   -6.6097 S   0  0  0  0  0  0  0  0  0  0  0  0
   -1.7005   -1.2243   -8.1270 C   0  0  0  0  0  0  0  0  0  0  0  0
   -0.3617   -0.8465   -8.2145 C   0  0  0  0  0  0  0  0  0  0  0  0
    0.3898   -1.1222   -7.0474 C   0  0  0  0  0  0  0  0  0  0  0  0
    1.7121   -0.6626   -6.9521 C   0  0  0  0  0  0  0  0  0  0  0  0
    2.3056    0.0002   -8.0483 C   0  0  0  0  0  0  0  0  0  0  0  0
    3.6347    0.4486   -8.0199 O   0  0  0  0  0  0  0  0  0  0  0  0
    4.5175    0.2892   -6.9131 C   0  0  0  0  0  0  0  0  0  0  0  0
    1.5517    0.2365   -9.2091 C   0  0  0  0  0  0  0  0  0  0  0  0
    0.2140   -0.1636   -9.2894 C   0  0  0  0  0  0  0  0  0  0  0  0
   -2.8132   -0.7321   -8.9483 C   0  0  0  0  0  0  0  0  0  0  0  0
   -4.0501    0.2274   -8.3408 S   0  0  0  0  0  0  0  0  0  0  0  0
   -5.0197    0.2318   -9.7151 C   0  0  0  0  0  0  0  0  0  0  0  0
   -4.3682   -0.5332  -10.6908 C   0  0  0  0  0  0  0  0  0  0  0  0
   -3.1411   -1.0785  -10.2574 C   0  0  0  0  0  0  0  0  0  0  0  0
   -2.4024   -1.9278  -11.0869 C   0  0  0  0  0  0  0  0  0  0  0  0
   -2.8908   -2.2283  -12.3758 C   0  0  0  0  0  0  0  0  0  0  0  0
   -2.2138   -3.0866  -13.2510 O   0  0  0  0  0  0  0  0  0  0  0  0
   -0.9980   -3.7571  -12.9362 C   0  0  0  0  0  0  0  0  0  0  0  0
   -4.1078   -1.6705  -12.8066 C   0  0  0  0  0  0  0  0  0  0  0  0
   -4.8558   -0.8332  -11.9677 C   0  0  0  0  0  0  0  0  0  0  0  0
   -6.3052    0.9484   -9.8218 C   0  0  0  0  0  0  0  0  0  0  0  0
   -6.7734    1.9030  -11.1305 S   0  0  0  0  0  0  0  0  0  0  0  0
   -8.2008    2.5006  -10.4671 C   0  0  0  0  0  0  0  0  0  0  0  0
   -8.3207    1.9636   -9.1921 C   0  0  0  0  0  0  0  0  0  0  0  0
   -7.2754    1.0993   -8.8252 C   0  0  0  0  0  0  0  0  0  0  0  0
   -7.2941    0.4681   -7.5722 C   0  0  0  0  0  0  0  0  0  0  0  0
   -8.3378    0.7347   -6.6720 C   0  0  0  0  0  0  0  0  0  0  0  0
   -8.3131    0.0957   -5.4238 O   0  0  0  0  0  0  0  0  0  0  0  0
   -9.3016    0.2619   -4.4133 C   0  0  0  0  0  0  0  0  0  0  0  0
   -9.3713    1.6236   -7.0461 C   0  0  0  0  0  0  0  0  0  0  0  0
   -9.3677    2.2317   -8.3087 C   0  0  0  0  0  0  0  0  0  0  0  0
    3.6408    1.7644   14.7581 H   0  0  0  0  0  0  0  0  0  0  0  0
    2.1470    3.9732   15.0688 H   0  0  0  0  0  0  0  0  0  0  0  0
    0.0211    7.3455   12.8688 H   0  0  0  0  0  0  0  0  0  0  0  0
   -1.3829    6.3607   13.4849 H   0  0  0  0  0  0  0  0  0  0  0  0
   -0.5772    7.5703   14.5556 H   0  0  0  0  0  0  0  0  0  0  0  0
   -0.1670    5.2209   11.6395 H   0  0  0  0  0  0  0  0  0  0  0  0
    0.6612    3.3298   10.3552 H   0  0  0  0  0  0  0  0  0  0  0  0
    4.1861   -0.0331    9.6563 H   0  0  0  0  0  0  0  0  0  0  0  0
    9.1581   -2.0593    8.6910 H   0  0  0  0  0  0  0  0  0  0  0  0
    8.9286   -0.3169    8.3245 H   0  0  0  0  0  0  0  0  0  0  0  0
    9.1199   -0.8068    5.8580 H   0  0  0  0  0  0  0  0  0  0  0  0
    9.4117   -2.5520    6.2428 H   0  0  0  0  0  0  0  0  0  0  0  0
   10.5919   -1.3004    6.7823 H   0  0  0  0  0  0  0  0  0  0  0  0
   -4.9548    1.4827    5.2224 H   0  0  0  0  0  0  0  0  0  0  0  0
   -3.7584    2.4695    4.3234 H   0  0  0  0  0  0  0  0  0  0  0  0
   -5.0370    0.9847    2.7909 H   0  0  0  0  0  0  0  0  0  0  0  0
   -3.2911    0.5323    2.7951 H   0  0  0  0  0  0  0  0  0  0  0  0
   -4.4915   -0.4732    3.7029 H   0  0  0  0  0  0  0  0  0  0  0  0
   -0.0086   -1.0700    4.0198 H   0  0  0  0  0  0  0  0  0  0  0  0
   -0.3940   -2.1283    2.0425 H   0  0  0  0  0  0  0  0  0  0  0  0
   -5.8735   -2.2523    1.9161 H   0  0  0  0  0  0  0  0  0  0  0  0
   -5.0970   -3.8696    2.0134 H   0  0  0  0  0  0  0  0  0  0  0  0
   -7.1924   -4.0419    0.7409 H   0  0  0  0  0  0  0  0  0  0  0  0
   -6.6594   -2.7482   -0.4016 H   0  0  0  0  0  0  0  0  0  0  0  0
   -5.8013   -4.3447   -0.3665 H   0  0  0  0  0  0  0  0  0  0  0  0
    7.8982   -2.8029   -3.8664 H   0  0  0  0  0  0  0  0  0  0  0  0
    7.3855   -4.3446   -3.1107 H   0  0  0  0  0  0  0  0  0  0  0  0
    9.3069   -3.2581   -1.9032 H   0  0  0  0  0  0  0  0  0  0  0  0
    7.8618   -3.4596   -0.8485 H   0  0  0  0  0  0  0  0  0  0  0  0
    8.2627   -1.8317   -1.5379 H   0  0  0  0  0  0  0  0  0  0  0  0
    2.1441   -2.3176   -4.5741 H   0  0  0  0  0  0  0  0  0  0  0  0
    2.2667   -0.7743   -6.0409 H   0  0  0  0  0  0  0  0  0  0  0  0
    4.6184   -0.7871   -6.6532 H   0  0  0  0  0  0  0  0  0  0  0  0
    4.1406    0.8612   -6.0389 H   0  0  0  0  0  0  0  0  0  0  0  0
    5.5185    0.6845   -7.1852 H   0  0  0  0  0  0  0  0  0  0  0  0
    2.0033    0.7543  -10.0443 H   0  0  0  0  0  0  0  0  0  0  0  0
   -0.3586    0.0614  -10.1792 H   0  0  0  0  0  0  0  0  0  0  0  0
   -1.4770   -2.3556  -10.7261 H   0  0  0  0  0  0  0  0  0  0  0  0
   -1.1510   -4.4395  -12.0716 H   0  0  0  0  0  0  0  0  0  0  0  0
   -0.2038   -3.0168  -12.7009 H   0  0  0  0  0  0  0  0  0  0  0  0
   -0.6772   -4.3577  -13.8127 H   0  0  0  0  0  0  0  0  0  0  0  0
   -4.4891   -1.9075  -13.7927 H   0  0  0  0  0  0  0  0  0  0  0  0
   -5.8085   -0.4521  -12.3106 H   0  0  0  0  0  0  0  0  0  0  0  0
   -8.8913    3.1852  -10.9449 H   0  0  0  0  0  0  0  0  0  0  0  0
   -6.5296   -0.2381   -7.2874 H   0  0  0  0  0  0  0  0  0  0  0  0
   -9.0213   -0.3454   -3.5271 H   0  0  0  0  0  0  0  0  0  0  0  0
  -10.2874   -0.0864   -4.7862 H   0  0  0  0  0  0  0  0  0  0  0  0
   -9.3606    1.3277   -4.1093 H   0  0  0  0  0  0  0  0  0  0  0  0
  -10.1879    1.8410   -6.3713 H   0  0  0  0  0  0  0  0  0  0  0  0
  -10.1713    2.9022   -8.5904 H   0  0  0  0  0  0  0  0  0  0  0  0
  1  2  1  0
  2  3  1  0
  3  4  2  0
  4  5  1  0
  5  6  1  0
  6  7  2  0
  7  8  1  0
  8  9  1  0
  7 10  1  0
 10 11  2  0
  3 12  1  0
 12 13  2  0
 13 14  1  0
 14 15  2  0
 15 16  1  0
 16 17  1  0
 17 18  1  0
 18 19  1  0
 19 20  1  0
 18 21  2  0
 21 22  1  0
 21 23  1  0
 23 24  1  0
 15 25  1  0
 25 26  2  0
 26 27  1  0
 27 28  1  0
 28 29  1  0
 29 30  1  0
 30 31  1  0
 31 32  1  0
 30 33  2  0
 33 34  1  0
 34 35  1  0
 33 36  1  0
 27 37  2  0
 37 38  1  0
 26 39  1  0
 39 40  2  0
 40 41  1  0
 40 42  1  0
 42 43  2  0
 43 44  1  0
 44 45  2  0
 45 46  1  0
 46 47  1  0
 47 48  1  0
 48 49  1  0
 49 50  1  0
 48 51  2  0
 51 52  1  0
 51 53  1  0
 53 54  1  0
 45 55  1  0
 55 56  2  0
 56 57  1  0
 57 58  1  0
 58 59  1  0
 59 60  1  0
 60 61  1  0
 61 62  1  0
 60 63  2  0
 63 64  1  0
 64 65  1  0
 63 66  1  0
 57 67  2  0
 67 68  1  0
 56 69  1  0
 69 70  2  0
 70 71  1  0
 70 72  1  0
 72 73  1  0
 73 74  1  0
 74 75  2  0
 75 76  1  0
 76 77  1  0
 77 78  2  0
 78 79  1  0
 79 80  1  0
 78 81  1  0
 81 82  2  0
 74 83  1  0
 83 84  1  0
 84 85  1  0
 85 86  2  0
 86 87  1  0
 87 88  1  0
 88 89  2  0
 89 90  1  0
 90 91  1  0
 89 92  1  0
 92 93  2  0
 85 94  1  0
 94 95  1  0
 95 96  1  0
 96 97  2  0
 97 98  1  0
 98 99  1  0
 99100  2  0
100101  1  0
101102  1  0
100103  1  0
103104  2  0
  5  1  2  0
 38 12  1  0
 68 42  1  0
 76 72  2  0
 87 83  2  0
 98 94  2  0
 11  4  1  0
 37 14  1  0
 67 44  1  0
 82 75  1  0
 93 86  1  0
104 97  1  0
 23 16  2  0
 41 25  1  0
 53 46  2  0
 71 55  1  0
 34 28  2  0
 64 58  2  0
  1105  1  0
  6106  1  0
  9107  1  0
  9108  1  0
  9109  1  0
 10110  1  0
 11111  1  0
 13112  1  0
 19113  1  0
 19114  1  0
 20115  1  0
 20116  1  0
 20117  1  0
 31118  1  0
 31119  1  0
 32120  1  0
 32121  1  0
 32122  1  0
 39123  1  0
 43124  1  0
 49125  1  0
 49126  1  0
 50127  1  0
 50128  1  0
 50129  1  0
 61130  1  0
 61131  1  0
 62132  1  0
 62133  1  0
 62134  1  0
 69135  1  0
 77136  1  0
 80137  1  0
 80138  1  0
 80139  1  0
 81140  1  0
 82141  1  0
 88142  1  0
 91143  1  0
 91144  1  0
 91145  1  0
 92146  1  0
 93147  1  0
 96148  1  0
 99149  1  0
102150  1  0
102151  1  0
102152  1  0
103153  1  0
104154  1  0
M  END

