
     RDKit          3D

124135  0  0  0  0  0  0  0  0999 V2000
   -1.6256    5.3453   -5.5249 C   0  0  0  0  0  0  0  0  0  0  0  0
   -0.5202    5.5506   -4.7127 C   0  0  0  0  0  0  0  0  0  0  0  0
    0.5383    6.3379   -5.0227 N   0  0  0  0  0  0  0  0  0  0  0  0
    1.5771    6.4708   -4.1462 C   0  0  0  0  0  0  0  0  0  0  0  0
    2.7394    7.3379   -4.5273 C   0  0  0  0  0  0  0  0  0  0  0  0
    1.5303    5.7905   -2.8990 C   0  0  0  0  0  0  0  0  0  0  0  0
    2.6414    5.9024   -1.8956 C   0  0  0  0  0  0  0  0  0  0  0  0
    0.4630    4.9887   -2.6145 N   0  0  0  0  0  0  0  0  0  0  0  0
   -0.5493    4.8552   -3.5046 C   0  0  0  0  0  0  0  0  0  0  0  0
   -1.6803    4.0707   -3.3250 C   0  0  0  0  0  0  0  0  0  0  0  0
   -2.6403    4.2729   -4.7026 S   0  0  0  0  0  0  0  0  0  0  0  0
   -1.9334    3.1513   -2.2033 C   0  0  0  0  0  0  0  0  0  0  0  0
   -3.1690    2.7814   -1.8596 C   0  0  0  0  0  0  0  0  0  0  0  0
   -3.4148    1.8298   -0.7651 C   0  0  0  0  0  0  0  0  0  0  0  0
   -4.5499    1.7784    0.0350 C   0  0  0  0  0  0  0  0  0  0  0  0
   -5.6007    2.6328   -0.0298 N   0  0  0  0  0  0  0  0  0  0  0  0
   -6.6617    2.4797    0.8170 C   0  0  0  0  0  0  0  0  0  0  0  0
   -7.8040    3.4485    0.7280 C   0  0  0  0  0  0  0  0  0  0  0  0
   -6.6561    1.4190    1.7641 C   0  0  0  0  0  0  0  0  0  0  0  0
   -7.8036    1.1889    2.7029 C   0  0  0  0  0  0  0  0  0  0  0  0
   -5.5857    0.5751    1.8156 N   0  0  0  0  0  0  0  0  0  0  0  0
   -4.5399    0.7471    0.9711 C   0  0  0  0  0  0  0  0  0  0  0  0
   -3.4166   -0.0653    0.9143 C   0  0  0  0  0  0  0  0  0  0  0  0
   -2.4115    0.5427   -0.3031 S   0  0  0  0  0  0  0  0  0  0  0  0
   -3.1432   -1.2129    1.7862 C   0  0  0  0  0  0  0  0  0  0  0  0
   -2.5916   -2.3322    1.3176 C   0  0  0  0  0  0  0  0  0  0  0  0
   -2.2963   -3.4686    2.2036 C   0  0  0  0  0  0  0  0  0  0  0  0
   -2.1059   -4.7874    1.8152 C   0  0  0  0  0  0  0  0  0  0  0  0
   -2.3226   -5.2752    0.5707 N   0  0  0  0  0  0  0  0  0  0  0  0
   -2.0937   -6.5930    0.3001 C   0  0  0  0  0  0  0  0  0  0  0  0
   -2.3380   -7.0991   -1.0904 C   0  0  0  0  0  0  0  0  0  0  0  0
   -1.6084   -7.4446    1.3298 C   0  0  0  0  0  0  0  0  0  0  0  0
   -1.3278   -8.8981    1.0835 C   0  0  0  0  0  0  0  0  0  0  0  0
   -1.3922   -6.9347    2.5766 N   0  0  0  0  0  0  0  0  0  0  0  0
   -1.6484   -5.6279    2.8319 C   0  0  0  0  0  0  0  0  0  0  0  0
   -1.4450   -4.9900    4.0483 C   0  0  0  0  0  0  0  0  0  0  0  0
   -1.8995   -3.3711    3.8424 S   0  0  0  0  0  0  0  0  0  0  0  0
   -0.7856   -5.5662    5.2384 C   0  0  0  0  0  0  0  0  0  0  0  0
    0.2484   -4.9799    5.8631 C   0  0  0  0  0  0  0  0  0  0  0  0
    0.9125   -3.7708    5.3417 C   0  0  0  0  0  0  0  0  0  0  0  0
    1.4702   -3.6031    3.7656 S   0  0  0  0  0  0  0  0  0  0  0  0
    1.6049   -1.9227    3.7334 C   0  0  0  0  0  0  0  0  0  0  0  0
    1.2491   -1.4641    5.0210 C   0  0  0  0  0  0  0  0  0  0  0  0
    0.8539   -2.4978    5.9009 C   0  0  0  0  0  0  0  0  0  0  0  0
    0.3615   -2.2072    7.1799 C   0  0  0  0  0  0  0  0  0  0  0  0
    0.2912   -0.8661    7.6068 C   0  0  0  0  0  0  0  0  0  0  0  0
   -0.1958   -0.5025    8.8709 O   0  0  0  0  0  0  0  0  0  0  0  0
   -0.6935   -1.4235    9.8420 C   0  0  0  0  0  0  0  0  0  0  0  0
    0.7144    0.1555    6.7444 C   0  0  0  0  0  0  0  0  0  0  0  0
    1.1867   -0.1330    5.4596 C   0  0  0  0  0  0  0  0  0  0  0  0
    1.7280   -1.1508    2.4659 C   0  0  0  0  0  0  0  0  0  0  0  0
    1.4968   -1.6361    1.1736 C   0  0  0  0  0  0  0  0  0  0  0  0
    1.2357   -2.9286    0.8515 N   0  0  0  0  0  0  0  0  0  0  0  0
    0.9469   -3.2815   -0.4346 C   0  0  0  0  0  0  0  0  0  0  0  0
    0.7323   -4.7297   -0.7559 C   0  0  0  0  0  0  0  0  0  0  0  0
    0.8948   -2.2777   -1.4361 C   0  0  0  0  0  0  0  0  0  0  0  0
    0.5312   -2.5899   -2.8574 C   0  0  0  0  0  0  0  0  0  0  0  0
    1.1436   -0.9823   -1.0944 N   0  0  0  0  0  0  0  0  0  0  0  0
    1.4738   -0.6553    0.1787 C   0  0  0  0  0  0  0  0  0  0  0  0
    1.7435    0.6301    0.6342 C   0  0  0  0  0  0  0  0  0  0  0  0
    1.9268    0.5204    2.3009 S   0  0  0  0  0  0  0  0  0  0  0  0
    1.6722    1.8984   -0.1107 C   0  0  0  0  0  0  0  0  0  0  0  0
    2.0947    2.0898   -1.3656 C   0  0  0  0  0  0  0  0  0  0  0  0
    2.8805    1.1367   -2.1627 C   0  0  0  0  0  0  0  0  0  0  0  0
    2.8213    1.0104   -3.5418 C   0  0  0  0  0  0  0  0  0  0  0  0
    1.9410    1.6562   -4.3448 N   0  0  0  0  0  0  0  0  0  0  0  0
    1.9749    1.4709   -5.6971 C   0  0  0  0  0  0  0  0  0  0  0  0
    0.9623    2.1764   -6.5489 C   0  0  0  0  0  0  0  0  0  0  0  0
    2.9426    0.5914   -6.2540 C   0  0  0  0  0  0  0  0  0  0  0  0
    3.0361    0.3578   -7.7329 C   0  0  0  0  0  0  0  0  0  0  0  0
    3.8173   -0.0548   -5.4274 N   0  0  0  0  0  0  0  0  0  0  0  0
    3.7641    0.1333   -4.0843 C   0  0  0  0  0  0  0  0  0  0  0  0
    4.6141   -0.4466   -3.1349 C   0  0  0  0  0  0  0  0  0  0  0  0
    4.1624    0.1764   -1.6284 S   0  0  0  0  0  0  0  0  0  0  0  0
    5.7451   -1.3774   -3.3155 C   0  0  0  0  0  0  0  0  0  0  0  0
    6.0284   -2.0104   -4.4499 C   0  0  0  0  0  0  0  0  0  0  0  0
   -1.7979    5.7767   -6.4997 H   0  0  0  0  0  0  0  0  0  0  0  0
    3.6734    6.7347   -4.5335 H   0  0  0  0  0  0  0  0  0  0  0  0
    2.8424    8.1748   -3.8034 H   0  0  0  0  0  0  0  0  0  0  0  0
    2.5894    7.7678   -5.5403 H   0  0  0  0  0  0  0  0  0  0  0  0
    2.8482    6.9682   -1.6703 H   0  0  0  0  0  0  0  0  0  0  0  0
    3.5575    5.4225   -2.2933 H   0  0  0  0  0  0  0  0  0  0  0  0
    2.3613    5.4030   -0.9437 H   0  0  0  0  0  0  0  0  0  0  0  0
   -1.0834    2.7945   -1.6346 H   0  0  0  0  0  0  0  0  0  0  0  0
   -4.0230    3.2174   -2.3619 H   0  0  0  0  0  0  0  0  0  0  0  0
   -7.8787    4.0297    1.6725 H   0  0  0  0  0  0  0  0  0  0  0  0
   -7.6486    4.1563   -0.1133 H   0  0  0  0  0  0  0  0  0  0  0  0
   -8.7544    2.9021    0.5537 H   0  0  0  0  0  0  0  0  0  0  0  0
   -7.9806    2.0947    3.3210 H   0  0  0  0  0  0  0  0  0  0  0  0
   -7.5853    0.3371    3.3822 H   0  0  0  0  0  0  0  0  0  0  0  0
   -8.7181    0.9483    2.1259 H   0  0  0  0  0  0  0  0  0  0  0  0
   -3.4713   -1.1597    2.8187 H   0  0  0  0  0  0  0  0  0  0  0  0
   -2.3702   -2.4285    0.2620 H   0  0  0  0  0  0  0  0  0  0  0  0
   -1.3821   -7.4414   -1.5373 H   0  0  0  0  0  0  0  0  0  0  0  0
   -3.0628   -7.9387   -1.0673 H   0  0  0  0  0  0  0  0  0  0  0  0
   -2.7583   -6.2925   -1.7285 H   0  0  0  0  0  0  0  0  0  0  0  0
   -0.5550   -9.0040    0.2921 H   0  0  0  0  0  0  0  0  0  0  0  0
   -2.2578   -9.4136    0.7650 H   0  0  0  0  0  0  0  0  0  0  0  0
   -0.9545   -9.3846    2.0097 H   0  0  0  0  0  0  0  0  0  0  0  0
   -1.1489   -6.5166    5.6094 H   0  0  0  0  0  0  0  0  0  0  0  0
    0.6219   -5.4156    6.7801 H   0  0  0  0  0  0  0  0  0  0  0  0
    0.0342   -3.0108    7.8278 H   0  0  0  0  0  0  0  0  0  0  0  0
   -1.5617   -1.9809    9.4290 H   0  0  0  0  0  0  0  0  0  0  0  0
    0.1091   -2.1311   10.1440 H   0  0  0  0  0  0  0  0  0  0  0  0
   -1.0240   -0.8596   10.7385 H   0  0  0  0  0  0  0  0  0  0  0  0
    0.6669    1.1870    7.0731 H   0  0  0  0  0  0  0  0  0  0  0  0
    1.5051    0.6929    4.8501 H   0  0  0  0  0  0  0  0  0  0  0  0
   -0.2217   -4.8585   -1.3084 H   0  0  0  0  0  0  0  0  0  0  0  0
    0.6875   -5.3332    0.1750 H   0  0  0  0  0  0  0  0  0  0  0  0
    1.5698   -5.1043   -1.3783 H   0  0  0  0  0  0  0  0  0  0  0  0
   -0.5401   -2.8692   -2.9172 H   0  0  0  0  0  0  0  0  0  0  0  0
    0.7043   -1.7021   -3.5039 H   0  0  0  0  0  0  0  0  0  0  0  0
    1.1557   -3.4231   -3.2419 H   0  0  0  0  0  0  0  0  0  0  0  0
    1.2247    2.7415    0.4027 H   0  0  0  0  0  0  0  0  0  0  0  0
    1.8902    3.0443   -1.8245 H   0  0  0  0  0  0  0  0  0  0  0  0
    0.2872    1.4274   -7.0112 H   0  0  0  0  0  0  0  0  0  0  0  0
    1.4679    2.7635   -7.3430 H   0  0  0  0  0  0  0  0  0  0  0  0
    0.3513    2.8691   -5.9320 H   0  0  0  0  0  0  0  0  0  0  0  0
    3.8269   -0.3911   -7.9588 H   0  0  0  0  0  0  0  0  0  0  0  0
    2.0681   -0.0230   -8.1214 H   0  0  0  0  0  0  0  0  0  0  0  0
    3.2940    1.3088   -8.2474 H   0  0  0  0  0  0  0  0  0  0  0  0
    6.3715   -1.5741   -2.4537 H   0  0  0  0  0  0  0  0  0  0  0  0
    5.4364   -1.8925   -5.3419 H   0  0  0  0  0  0  0  0  0  0  0  0
    6.8786   -2.6771   -4.4917 H   0  0  0  0  0  0  0  0  0  0  0  0
  1  2  2  0
  2  3  1  0
  3  4  2  0
  4  5  1  0
  4  6  1  0
  6  7  1  0
  6  8  2  0
  8  9  1  0
  9 10  2  0
 10 11  1  0
 10 12  1  0
 12 13  2  3
 13 14  1  0
 14 15  2  0
 15 16  1  0
 16 17  2  0
 17 18  1  0
 17 19  1  0
 19 20  1  0
 19 21  2  0
 21 22  1  0
 22 23  2  0
 23 24  1  0
 23 25  1  0
 25 26  2  3
 26 27  1  0
 27 28  2  0
 28 29  1  0
 29 30  2  0
 30 31  1  0
 30 32  1  0
 32 33  1  0
 32 34  2  0
 34 35  1  0
 35 36  2  0
 36 37  1  0
 36 38  1  0
 38 39  2  3
 39 40  1  0
 40 41  1  0
 41 42  1  0
 42 43  2  0
 43 44  1  0
 44 45  1  0
 45 46  2  0
 46 47  1  0
 47 48  1  0
 46 49  1  0
 49 50  2  0
 42 51  1  0
 51 52  2  0
 52 53  1  0
 53 54  2  0
 54 55  1  0
 54 56  1  0
 56 57  1  0
 56 58  2  0
 58 59  1  0
 59 60  2  0
 60 61  1  0
 60 62  1  0
 62 63  2  3
 63 64  1  0
 64 65  2  0
 65 66  1  0
 66 67  2  0
 67 68  1  0
 67 69  1  0
 69 70  1  0
 69 71  2  0
 71 72  1  0
 72 73  2  0
 73 74  1  0
 73 75  1  0
 75 76  2  3
 11  1  1  0
 24 14  1  0
 37 27  1  0
 44 40  2  0
 61 51  1  0
 74 64  1  0
  9  2  1  0
 22 15  1  0
 35 28  1  0
 50 43  1  0
 59 52  1  0
 72 65  1  0
  1 77  1  0
  5 78  1  0
  5 79  1  0
  5 80  1  0
  7 81  1  0
  7 82  1  0
  7 83  1  0
 12 84  1  0
 13 85  1  0
 18 86  1  0
 18 87  1  0
 18 88  1  0
 20 89  1  0
 20 90  1  0
 20 91  1  0
 25 92  1  0
 26 93  1  0
 31 94  1  0
 31 95  1  0
 31 96  1  0
 33 97  1  0
 33 98  1  0
 33 99  1  0
 38100  1  0
 39101  1  0
 45102  1  0
 48103  1  0
 48104  1  0
 48105  1  0
 49106  1  0
 50107  1  0
 55108  1  0
 55109  1  0
 55110  1  0
 57111  1  0
 57112  1  0
 57113  1  0
 62114  1  0
 63115  1  0
 68116  1  0
 68117  1  0
 68118  1  0
 70119  1  0
 70120  1  0
 70121  1  0
 75122  1  0
 76123  1  0
 76124  1  0
M  END

