
     RDKit          3D

159175  0  0  0  0  0  0  0  0999 V2000
    1.6183    0.7691    9.1416 C   0  0  0  0  0  0  0  0  0  0  0  0
    1.7731   -0.0546    7.6831 S   0  0  0  0  0  0  0  0  0  0  0  0
    0.1581    0.0434    7.2203 C   0  0  0  0  0  0  0  0  0  0  0  0
   -0.5431    0.7068    8.2309 C   0  0  0  0  0  0  0  0  0  0  0  0
   -2.0009    0.9549    8.2697 C   0  0  0  0  0  0  0  0  0  0  0  0
   -2.7671    0.4065    7.4339 O   0  0  0  0  0  0  0  0  0  0  0  0
   -2.5352    1.8293    9.3411 C   0  0  0  0  0  0  0  0  0  0  0  0
   -3.8456    2.3181    9.4276 C   0  0  0  0  0  0  0  0  0  0  0  0
   -4.9628    2.1508    8.4379 C   0  0  0  0  0  0  0  0  0  0  0  0
   -4.7528    3.0477    7.2211 C   0  0  0  0  0  0  0  0  0  0  0  0
   -3.9401    3.3210   10.7731 S   0  0  0  0  0  0  0  0  0  0  0  0
   -2.3528    3.1256   11.2939 C   0  0  0  0  0  0  0  0  0  0  0  0
   -1.7661    3.8782   12.4527 C   0  0  0  0  0  0  0  0  0  0  0  0
   -1.0469    5.1364   11.9762 C   0  0  0  0  0  0  0  0  0  0  0  0
   -1.6959    2.2858   10.3841 C   0  0  0  0  0  0  0  0  0  0  0  0
   -0.2597    1.9081   10.4162 C   0  0  0  0  0  0  0  0  0  0  0  0
    0.4908    2.2470   11.3703 O   0  0  0  0  0  0  0  0  0  0  0  0
    0.2826    1.1299    9.2870 C   0  0  0  0  0  0  0  0  0  0  0  0
   -0.3607   -0.4414    5.9336 C   0  0  0  0  0  0  0  0  0  0  0  0
   -0.1324   -2.0068    5.3608 S   0  0  0  0  0  0  0  0  0  0  0  0
   -0.9373   -1.7992    3.8994 C   0  0  0  0  0  0  0  0  0  0  0  0
   -1.3919   -0.4779    3.8319 C   0  0  0  0  0  0  0  0  0  0  0  0
   -2.1918    0.1075    2.7315 C   0  0  0  0  0  0  0  0  0  0  0  0
   -2.6996   -0.6308    1.8470 O   0  0  0  0  0  0  0  0  0  0  0  0
   -2.4491    1.5660    2.7432 C   0  0  0  0  0  0  0  0  0  0  0  0
   -3.0807    2.2990    1.7283 C   0  0  0  0  0  0  0  0  0  0  0  0
   -3.5574    1.8119    0.3892 C   0  0  0  0  0  0  0  0  0  0  0  0
   -2.3870    1.6019   -0.5682 C   0  0  0  0  0  0  0  0  0  0  0  0
   -3.1104    3.9135    2.1931 S   0  0  0  0  0  0  0  0  0  0  0  0
   -2.3620    3.7158    3.6852 C   0  0  0  0  0  0  0  0  0  0  0  0
   -2.0340    4.8590    4.6004 C   0  0  0  0  0  0  0  0  0  0  0  0
   -0.6232    5.3756    4.3369 C   0  0  0  0  0  0  0  0  0  0  0  0
   -2.0345    2.3606    3.8349 C   0  0  0  0  0  0  0  0  0  0  0  0
   -1.2932    1.7574    4.9701 C   0  0  0  0  0  0  0  0  0  0  0  0
   -0.8377    2.4772    5.8965 O   0  0  0  0  0  0  0  0  0  0  0  0
   -1.0388    0.2949    4.9538 C   0  0  0  0  0  0  0  0  0  0  0  0
   -0.8883   -2.7587    2.7873 C   0  0  0  0  0  0  0  0  0  0  0  0
   -0.3023   -2.3902    1.2544 S   0  0  0  0  0  0  0  0  0  0  0  0
   -0.6133   -3.8832    0.5483 C   0  0  0  0  0  0  0  0  0  0  0  0
   -1.2032   -4.7017    1.5133 C   0  0  0  0  0  0  0  0  0  0  0  0
   -1.3355   -4.0801    2.7709 C   0  0  0  0  0  0  0  0  0  0  0  0
   -1.9289   -4.7610    3.8388 C   0  0  0  0  0  0  0  0  0  0  0  0
   -2.3906   -6.0741    3.6535 C   0  0  0  0  0  0  0  0  0  0  0  0
   -2.9651   -6.7330    4.7502 O   0  0  0  0  0  0  0  0  0  0  0  0
   -3.4552   -8.0699    4.7195 C   0  0  0  0  0  0  0  0  0  0  0  0
   -2.2718   -6.6848    2.3827 C   0  0  0  0  0  0  0  0  0  0  0  0
   -1.6902   -5.9969    1.3098 C   0  0  0  0  0  0  0  0  0  0  0  0
   -0.4562   -4.1335   -0.8896 C   0  0  0  0  0  0  0  0  0  0  0  0
   -0.9800   -3.0367   -2.0485 S   0  0  0  0  0  0  0  0  0  0  0  0
   -0.2420   -3.7586   -3.3671 C   0  0  0  0  0  0  0  0  0  0  0  0
    0.4503   -4.8855   -2.9166 C   0  0  0  0  0  0  0  0  0  0  0  0
    1.2996   -5.7562   -3.7559 C   0  0  0  0  0  0  0  0  0  0  0  0
    1.2965   -5.6305   -5.0088 O   0  0  0  0  0  0  0  0  0  0  0  0
    2.1375   -6.7799   -3.0873 C   0  0  0  0  0  0  0  0  0  0  0  0
    3.0686   -7.6203   -3.7134 C   0  0  0  0  0  0  0  0  0  0  0  0
    3.4867   -7.6273   -5.1554 C   0  0  0  0  0  0  0  0  0  0  0  0
    4.4385   -6.4716   -5.4528 C   0  0  0  0  0  0  0  0  0  0  0  0
    3.8054   -8.5591   -2.5315 S   0  0  0  0  0  0  0  0  0  0  0  0
    2.9453   -7.9556   -1.2193 C   0  0  0  0  0  0  0  0  0  0  0  0
    3.2048   -8.3759    0.1984 C   0  0  0  0  0  0  0  0  0  0  0  0
    4.1871   -7.4277    0.8792 C   0  0  0  0  0  0  0  0  0  0  0  0
    2.0737   -6.9606   -1.6866 C   0  0  0  0  0  0  0  0  0  0  0  0
    1.1851   -6.1125   -0.8526 C   0  0  0  0  0  0  0  0  0  0  0  0
    1.1699   -6.2315    0.3998 O   0  0  0  0  0  0  0  0  0  0  0  0
    0.3536   -5.0855   -1.5230 C   0  0  0  0  0  0  0  0  0  0  0  0
   -0.1012   -3.0750   -4.6582 C   0  0  0  0  0  0  0  0  0  0  0  0
   -1.4157   -2.6408   -5.6133 S   0  0  0  0  0  0  0  0  0  0  0  0
   -0.5885   -1.5834   -6.6204 C   0  0  0  0  0  0  0  0  0  0  0  0
    0.7433   -1.5228   -6.2002 C   0  0  0  0  0  0  0  0  0  0  0  0
    1.7811   -0.6255   -6.7584 C   0  0  0  0  0  0  0  0  0  0  0  0
    1.5668    0.0144   -7.8219 O   0  0  0  0  0  0  0  0  0  0  0  0
    3.0771   -0.5159   -6.0481 C   0  0  0  0  0  0  0  0  0  0  0  0
    4.1210    0.3650   -6.3619 C   0  0  0  0  0  0  0  0  0  0  0  0
    4.1929    1.3660   -7.4775 C   0  0  0  0  0  0  0  0  0  0  0  0
    4.6529    0.7060   -8.7722 C   0  0  0  0  0  0  0  0  0  0  0  0
    5.3735    0.1024   -5.2722 S   0  0  0  0  0  0  0  0  0  0  0  0
    4.6253   -1.1111   -4.3822 C   0  0  0  0  0  0  0  0  0  0  0  0
    5.2371   -1.7403   -3.1635 C   0  0  0  0  0  0  0  0  0  0  0  0
    4.7337   -1.0638   -1.8916 C   0  0  0  0  0  0  0  0  0  0  0  0
    3.3512   -1.3289   -4.9260 C   0  0  0  0  0  0  0  0  0  0  0  0
    2.3340   -2.2782   -4.4117 C   0  0  0  0  0  0  0  0  0  0  0  0
    2.5773   -2.9954   -3.4076 O   0  0  0  0  0  0  0  0  0  0  0  0
    1.0158   -2.3447   -5.0900 C   0  0  0  0  0  0  0  0  0  0  0  0
   -1.2543   -0.6610   -7.5465 C   0  0  0  0  0  0  0  0  0  0  0  0
   -1.9187   -1.1032   -9.0259 S   0  0  0  0  0  0  0  0  0  0  0  0
   -2.3883    0.4424   -9.5005 C   0  0  0  0  0  0  0  0  0  0  0  0
   -2.0278    1.3295   -8.4910 C   0  0  0  0  0  0  0  0  0  0  0  0
   -2.2508    2.7869   -8.5313 C   0  0  0  0  0  0  0  0  0  0  0  0
   -2.8083    3.3132   -9.5306 O   0  0  0  0  0  0  0  0  0  0  0  0
   -1.8002    3.6016   -7.3741 C   0  0  0  0  0  0  0  0  0  0  0  0
   -1.8886    4.9961   -7.2558 C   0  0  0  0  0  0  0  0  0  0  0  0
   -2.4849    5.9742   -8.2266 C   0  0  0  0  0  0  0  0  0  0  0  0
   -4.0020    6.0280   -8.0808 C   0  0  0  0  0  0  0  0  0  0  0  0
   -1.2730    5.4358   -5.7535 S   0  0  0  0  0  0  0  0  0  0  0  0
   -0.8749    3.8889   -5.2295 C   0  0  0  0  0  0  0  0  0  0  0  0
   -0.2116    3.6007   -3.9126 C   0  0  0  0  0  0  0  0  0  0  0  0
    1.2921    3.4117   -4.0868 C   0  0  0  0  0  0  0  0  0  0  0  0
   -1.2157    2.9835   -6.2441 C   0  0  0  0  0  0  0  0  0  0  0  0
   -1.0237    1.5133   -6.2003 C   0  0  0  0  0  0  0  0  0  0  0  0
   -0.5734    0.9490   -5.1692 O   0  0  0  0  0  0  0  0  0  0  0  0
   -1.4095    0.7180   -7.3884 C   0  0  0  0  0  0  0  0  0  0  0  0
    2.4210    0.9911    9.8332 H   0  0  0  0  0  0  0  0  0  0  0  0
   -5.0468    1.0910    8.1232 H   0  0  0  0  0  0  0  0  0  0  0  0
   -5.9252    2.4229    8.9216 H   0  0  0  0  0  0  0  0  0  0  0  0
   -5.6032    2.9245    6.5170 H   0  0  0  0  0  0  0  0  0  0  0  0
   -3.8153    2.7791    6.6911 H   0  0  0  0  0  0  0  0  0  0  0  0
   -4.7012    4.1128    7.5326 H   0  0  0  0  0  0  0  0  0  0  0  0
   -1.0703    3.2319   13.0258 H   0  0  0  0  0  0  0  0  0  0  0  0
   -2.5811    4.1732   13.1468 H   0  0  0  0  0  0  0  0  0  0  0  0
   -1.7457    5.7879   11.4093 H   0  0  0  0  0  0  0  0  0  0  0  0
   -0.6654    5.7019   12.8529 H   0  0  0  0  0  0  0  0  0  0  0  0
   -0.1884    4.8723   11.3246 H   0  0  0  0  0  0  0  0  0  0  0  0
   -4.1358    0.8725    0.5013 H   0  0  0  0  0  0  0  0  0  0  0  0
   -4.2467    2.5653   -0.0495 H   0  0  0  0  0  0  0  0  0  0  0  0
   -1.8263    2.5505   -0.7068 H   0  0  0  0  0  0  0  0  0  0  0  0
   -2.7712    1.2686   -1.5553 H   0  0  0  0  0  0  0  0  0  0  0  0
   -1.6948    0.8252   -0.1804 H   0  0  0  0  0  0  0  0  0  0  0  0
   -2.7568    5.6851    4.4255 H   0  0  0  0  0  0  0  0  0  0  0  0
   -2.1395    4.5549    5.6610 H   0  0  0  0  0  0  0  0  0  0  0  0
   -0.4037    6.2231    5.0200 H   0  0  0  0  0  0  0  0  0  0  0  0
   -0.5341    5.7304    3.2886 H   0  0  0  0  0  0  0  0  0  0  0  0
    0.1269    4.5745    4.5123 H   0  0  0  0  0  0  0  0  0  0  0  0
   -2.0432   -4.2836    4.8032 H   0  0  0  0  0  0  0  0  0  0  0  0
   -4.2815   -8.1580    3.9825 H   0  0  0  0  0  0  0  0  0  0  0  0
   -3.8454   -8.3357    5.7229 H   0  0  0  0  0  0  0  0  0  0  0  0
   -2.6347   -8.7718    4.4603 H   0  0  0  0  0  0  0  0  0  0  0  0
   -2.6323   -7.6894    2.2140 H   0  0  0  0  0  0  0  0  0  0  0  0
   -1.6219   -6.4719    0.3389 H   0  0  0  0  0  0  0  0  0  0  0  0
    4.0034   -8.5839   -5.3816 H   0  0  0  0  0  0  0  0  0  0  0  0
    2.5981   -7.5746   -5.8174 H   0  0  0  0  0  0  0  0  0  0  0  0
    4.7421   -6.5058   -6.5191 H   0  0  0  0  0  0  0  0  0  0  0  0
    5.3490   -6.5520   -4.8201 H   0  0  0  0  0  0  0  0  0  0  0  0
    3.9491   -5.4957   -5.2533 H   0  0  0  0  0  0  0  0  0  0  0  0
    2.2570   -8.4260    0.7724 H   0  0  0  0  0  0  0  0  0  0  0  0
    3.6375   -9.3992    0.1998 H   0  0  0  0  0  0  0  0  0  0  0  0
    5.1301   -7.3668    0.2957 H   0  0  0  0  0  0  0  0  0  0  0  0
    4.4236   -7.8050    1.8959 H   0  0  0  0  0  0  0  0  0  0  0  0
    3.7507   -6.4122    0.9695 H   0  0  0  0  0  0  0  0  0  0  0  0
    4.9203    2.1611   -7.2045 H   0  0  0  0  0  0  0  0  0  0  0  0
    3.2119    1.8621   -7.6229 H   0  0  0  0  0  0  0  0  0  0  0  0
    4.7771    1.4782   -9.5593 H   0  0  0  0  0  0  0  0  0  0  0  0
    3.9051   -0.0372   -9.1182 H   0  0  0  0  0  0  0  0  0  0  0  0
    5.6270    0.1962   -8.6206 H   0  0  0  0  0  0  0  0  0  0  0  0
    5.0197   -2.8278   -3.1345 H   0  0  0  0  0  0  0  0  0  0  0  0
    6.3417   -1.6331   -3.2120 H   0  0  0  0  0  0  0  0  0  0  0  0
    5.2015   -1.5423   -1.0057 H   0  0  0  0  0  0  0  0  0  0  0  0
    3.6316   -1.1608   -1.8047 H   0  0  0  0  0  0  0  0  0  0  0  0
    5.0034    0.0138   -1.8983 H   0  0  0  0  0  0  0  0  0  0  0  0
   -2.8782    0.6971  -10.4305 H   0  0  0  0  0  0  0  0  0  0  0  0
   -2.2063    5.7076   -9.2672 H   0  0  0  0  0  0  0  0  0  0  0  0
   -2.0693    6.9852   -8.0277 H   0  0  0  0  0  0  0  0  0  0  0  0
   -4.4506    5.0305   -8.2744 H   0  0  0  0  0  0  0  0  0  0  0  0
   -4.4191    6.7527   -8.8120 H   0  0  0  0  0  0  0  0  0  0  0  0
   -4.2776    6.3575   -7.0564 H   0  0  0  0  0  0  0  0  0  0  0  0
   -0.6615    2.7029   -3.4421 H   0  0  0  0  0  0  0  0  0  0  0  0
   -0.3892    4.4489   -3.2167 H   0  0  0  0  0  0  0  0  0  0  0  0
    1.5100    2.6309   -4.8455 H   0  0  0  0  0  0  0  0  0  0  0  0
    1.7386    3.0974   -3.1200 H   0  0  0  0  0  0  0  0  0  0  0  0
    1.7617    4.3668   -4.4002 H   0  0  0  0  0  0  0  0  0  0  0  0
  1  2  1  0
  2  3  1  0
  3  4  2  0
  4  5  1  0
  5  6  2  0
  5  7  1  0
  7  8  2  0
  8  9  1  0
  9 10  1  0
  8 11  1  0
 11 12  1  0
 12 13  1  0
 13 14  1  0
 12 15  2  0
 15 16  1  0
 16 17  2  0
 16 18  1  0
  3 19  1  0
 19 20  1  0
 20 21  1  0
 21 22  2  0
 22 23  1  0
 23 24  2  0
 23 25  1  0
 25 26  2  0
 26 27  1  0
 27 28  1  0
 26 29  1  0
 29 30  1  0
 30 31  1  0
 31 32  1  0
 30 33  2  0
 33 34  1  0
 34 35  2  0
 34 36  1  0
 21 37  1  0
 37 38  1  0
 38 39  1  0
 39 40  2  0
 40 41  1  0
 41 42  1  0
 42 43  2  0
 43 44  1  0
 44 45  1  0
 43 46  1  0
 46 47  2  0
 39 48  1  0
 48 49  1  0
 49 50  1  0
 50 51  2  0
 51 52  1  0
 52 53  2  0
 52 54  1  0
 54 55  2  0
 55 56  1  0
 56 57  1  0
 55 58  1  0
 58 59  1  0
 59 60  1  0
 60 61  1  0
 59 62  2  0
 62 63  1  0
 63 64  2  0
 63 65  1  0
 50 66  1  0
 66 67  1  0
 67 68  1  0
 68 69  2  0
 69 70  1  0
 70 71  2  0
 70 72  1  0
 72 73  2  0
 73 74  1  0
 74 75  1  0
 73 76  1  0
 76 77  1  0
 77 78  1  0
 78 79  1  0
 77 80  2  0
 80 81  1  0
 81 82  2  0
 81 83  1  0
 68 84  1  0
 84 85  1  0
 85 86  1  0
 86 87  2  0
 87 88  1  0
 88 89  2  0
 88 90  1  0
 90 91  2  0
 91 92  1  0
 92 93  1  0
 91 94  1  0
 94 95  1  0
 95 96  1  0
 96 97  1  0
 95 98  2  0
 98 99  1  0
 99100  2  0
 99101  1  0
 18  1  2  0
 36 19  2  0
 41 37  2  0
 65 48  2  0
 83 66  2  0
101 84  2  0
 18  4  1  0
 36 22  1  0
 47 40  1  0
 65 51  1  0
 83 69  1  0
101 87  1  0
 15  7  1  0
 33 25  1  0
 62 54  1  0
 80 72  1  0
 98 90  1  0
  1102  1  0
  9103  1  0
  9104  1  0
 10105  1  0
 10106  1  0
 10107  1  0
 13108  1  0
 13109  1  0
 14110  1  0
 14111  1  0
 14112  1  0
 27113  1  0
 27114  1  0
 28115  1  0
 28116  1  0
 28117  1  0
 31118  1  0
 31119  1  0
 32120  1  0
 32121  1  0
 32122  1  0
 42123  1  0
 45124  1  0
 45125  1  0
 45126  1  0
 46127  1  0
 47128  1  0
 56129  1  0
 56130  1  0
 57131  1  0
 57132  1  0
 57133  1  0
 60134  1  0
 60135  1  0
 61136  1  0
 61137  1  0
 61138  1  0
 74139  1  0
 74140  1  0
 75141  1  0
 75142  1  0
 75143  1  0
 78144  1  0
 78145  1  0
 79146  1  0
 79147  1  0
 79148  1  0
 86149  1  0
 92150  1  0
 92151  1  0
 93152  1  0
 93153  1  0
 93154  1  0
 96155  1  0
 96156  1  0
 97157  1  0
 97158  1  0
 97159  1  0
M  END

