
     RDKit          3D

204227  0  0  0  0  0  0  0  0999 V2000
    6.3193   -2.8990   10.9624 C   0  0  0  0  0  0  0  0  0  0  0  0
    7.2787   -2.3086   10.1442 C   0  0  0  0  0  0  0  0  0  0  0  0
    6.7975   -1.9984    8.8612 C   0  0  0  0  0  0  0  0  0  0  0  0
    7.5150   -1.3583    7.8285 C   0  0  0  0  0  0  0  0  0  0  0  0
    8.9381   -1.0015    7.9707 C   0  0  0  0  0  0  0  0  0  0  0  0
    9.5511    0.5617    7.8590 S   0  0  0  0  0  0  0  0  0  0  0  0
   11.1650    0.1402    8.0742 C   0  0  0  0  0  0  0  0  0  0  0  0
   12.3101    1.1029    8.0025 C   0  0  0  0  0  0  0  0  0  0  0  0
   12.8189    1.2299    6.5717 C   0  0  0  0  0  0  0  0  0  0  0  0
   11.2496   -1.2453    8.2099 C   0  0  0  0  0  0  0  0  0  0  0  0
   12.7701   -2.1096    8.3912 Cl  0  0  0  0  0  0  0  0  0  0  0  0
   10.0013   -1.8848    8.1561 C   0  0  0  0  0  0  0  0  0  0  0  0
    9.8091   -3.6318    8.2350 Cl  0  0  0  0  0  0  0  0  0  0  0  0
    6.8110   -1.0814    6.6425 C   0  0  0  0  0  0  0  0  0  0  0  0
    5.4758   -1.4559    6.4580 C   0  0  0  0  0  0  0  0  0  0  0  0
    4.7572   -2.0856    7.4921 C   0  0  0  0  0  0  0  0  0  0  0  0
    3.3147   -2.3638    7.3709 C   0  0  0  0  0  0  0  0  0  0  0  0
    2.1325   -1.1811    7.1818 S   0  0  0  0  0  0  0  0  0  0  0  0
    0.8218   -2.2335    7.1694 C   0  0  0  0  0  0  0  0  0  0  0  0
   -0.6027   -1.8066    6.9776 C   0  0  0  0  0  0  0  0  0  0  0  0
   -0.9464   -1.6983    5.4957 C   0  0  0  0  0  0  0  0  0  0  0  0
    1.2980   -3.5374    7.2965 C   0  0  0  0  0  0  0  0  0  0  0  0
    2.6966   -3.6110    7.4120 C   0  0  0  0  0  0  0  0  0  0  0  0
    3.5762   -5.1273    7.5380 Cl  0  0  0  0  0  0  0  0  0  0  0  0
    0.2580   -4.9526    7.3164 Cl  0  0  0  0  0  0  0  0  0  0  0  0
    5.4548   -2.3455    8.6829 C   0  0  0  0  0  0  0  0  0  0  0  0
    4.8711   -3.0233   10.1069 S   0  0  0  0  0  0  0  0  0  0  0  0
    4.9883   -1.1481    5.1797 C   0  0  0  0  0  0  0  0  0  0  0  0
    5.9275   -0.5006    4.3853 C   0  0  0  0  0  0  0  0  0  0  0  0
    7.3690   -0.3231    5.2438 S   0  0  0  0  0  0  0  0  0  0  0  0
    5.6836   -0.0345    3.0197 C   0  0  0  0  0  0  0  0  0  0  0  0
    5.9965    1.2317    2.5293 C   0  0  0  0  0  0  0  0  0  0  0  0
    5.4630    1.4646    1.2497 C   0  0  0  0  0  0  0  0  0  0  0  0
    5.4747    2.6874    0.5442 C   0  0  0  0  0  0  0  0  0  0  0  0
    6.0581    3.9113    1.1176 C   0  0  0  0  0  0  0  0  0  0  0  0
    5.5081    4.6682    2.5158 S   0  0  0  0  0  0  0  0  0  0  0  0
    6.5936    5.9526    2.4615 C   0  0  0  0  0  0  0  0  0  0  0  0
    6.5977    7.1022    3.4208 C   0  0  0  0  0  0  0  0  0  0  0  0
    5.7461    8.2506    2.8883 C   0  0  0  0  0  0  0  0  0  0  0  0
    7.3913    5.8155    1.3265 C   0  0  0  0  0  0  0  0  0  0  0  0
    8.6426    6.9649    0.8762 Cl  0  0  0  0  0  0  0  0  0  0  0  0
    7.0916    4.6699    0.5744 C   0  0  0  0  0  0  0  0  0  0  0  0
    7.9509    4.2258   -0.8949 Cl  0  0  0  0  0  0  0  0  0  0  0  0
    4.7973    2.7154   -0.6893 C   0  0  0  0  0  0  0  0  0  0  0  0
    4.1650    1.5896   -1.2246 C   0  0  0  0  0  0  0  0  0  0  0  0
    4.1495    0.3717   -0.5187 C   0  0  0  0  0  0  0  0  0  0  0  0
    3.3937   -0.7967   -1.0013 C   0  0  0  0  0  0  0  0  0  0  0  0
    1.7192   -0.8563   -1.1710 S   0  0  0  0  0  0  0  0  0  0  0  0
    1.6562   -2.4292   -1.7644 C   0  0  0  0  0  0  0  0  0  0  0  0
    0.4009   -3.1162   -2.2136 C   0  0  0  0  0  0  0  0  0  0  0  0
    0.0483   -2.7202   -3.6451 C   0  0  0  0  0  0  0  0  0  0  0  0
    2.9574   -2.9246   -1.8537 C   0  0  0  0  0  0  0  0  0  0  0  0
    3.9306   -2.0124   -1.4142 C   0  0  0  0  0  0  0  0  0  0  0  0
    5.6559   -2.3520   -1.4278 Cl  0  0  0  0  0  0  0  0  0  0  0  0
    3.3484   -4.5206   -2.4773 Cl  0  0  0  0  0  0  0  0  0  0  0  0
    4.7969    0.3502    0.7260 C   0  0  0  0  0  0  0  0  0  0  0  0
    4.7908   -0.8837    1.8687 S   0  0  0  0  0  0  0  0  0  0  0  0
    3.4751    1.8551   -2.4145 C   0  0  0  0  0  0  0  0  0  0  0  0
    3.4976    3.2011   -2.7750 C   0  0  0  0  0  0  0  0  0  0  0  0
    4.4088    4.0548   -1.6366 S   0  0  0  0  0  0  0  0  0  0  0  0
    2.5135    3.7906   -3.6922 C   0  0  0  0  0  0  0  0  0  0  0  0
    1.9285    3.0865   -4.7461 C   0  0  0  0  0  0  0  0  0  0  0  0
    0.6356    3.5334   -5.0625 C   0  0  0  0  0  0  0  0  0  0  0  0
   -0.2762    2.8660   -5.9061 C   0  0  0  0  0  0  0  0  0  0  0  0
    0.1365    1.7011   -6.7088 C   0  0  0  0  0  0  0  0  0  0  0  0
   -0.3418    0.1124   -6.4246 S   0  0  0  0  0  0  0  0  0  0  0  0
    0.5696   -0.5701   -7.6631 C   0  0  0  0  0  0  0  0  0  0  0  0
    0.5608   -2.0247   -8.0223 C   0  0  0  0  0  0  0  0  0  0  0  0
   -0.5173   -2.3191   -9.0599 C   0  0  0  0  0  0  0  0  0  0  0  0
    1.2531    0.4471   -8.3289 C   0  0  0  0  0  0  0  0  0  0  0  0
    2.2896    0.1720   -9.7209 Cl  0  0  0  0  0  0  0  0  0  0  0  0
    1.0213    1.7189   -7.7816 C   0  0  0  0  0  0  0  0  0  0  0  0
    1.7520    3.1912   -8.4098 Cl  0  0  0  0  0  0  0  0  0  0  0  0
   -1.6231    3.2565   -5.8201 C   0  0  0  0  0  0  0  0  0  0  0  0
   -2.0534    4.2852   -4.9789 C   0  0  0  0  0  0  0  0  0  0  0  0
   -1.1245    5.0221   -4.2166 C   0  0  0  0  0  0  0  0  0  0  0  0
   -1.5670    6.0685   -3.2820 C   0  0  0  0  0  0  0  0  0  0  0  0
   -2.1498    7.5747   -3.7522 S   0  0  0  0  0  0  0  0  0  0  0  0
   -2.4962    8.1222   -2.2004 C   0  0  0  0  0  0  0  0  0  0  0  0
   -3.0167    9.4905   -1.8826 C   0  0  0  0  0  0  0  0  0  0  0  0
   -1.8930   10.5204   -1.9497 C   0  0  0  0  0  0  0  0  0  0  0  0
   -2.1593    7.1217   -1.2880 C   0  0  0  0  0  0  0  0  0  0  0  0
   -1.6546    5.9636   -1.8965 C   0  0  0  0  0  0  0  0  0  0  0  0
   -1.2363    4.5058   -1.0022 Cl  0  0  0  0  0  0  0  0  0  0  0  0
   -2.3584    7.2806    0.4507 Cl  0  0  0  0  0  0  0  0  0  0  0  0
    0.2159    4.6032   -4.2675 C   0  0  0  0  0  0  0  0  0  0  0  0
    1.4504    5.0050   -3.2004 S   0  0  0  0  0  0  0  0  0  0  0  0
   -3.4473    4.3171   -4.8153 C   0  0  0  0  0  0  0  0  0  0  0  0
   -4.1109    3.3064   -5.5085 C   0  0  0  0  0  0  0  0  0  0  0  0
   -2.9669    2.4081   -6.3652 S   0  0  0  0  0  0  0  0  0  0  0  0
   -5.3287    2.6733   -4.9897 C   0  0  0  0  0  0  0  0  0  0  0  0
   -5.4597    2.2369   -3.3717 S   0  0  0  0  0  0  0  0  0  0  0  0
   -6.6684    1.0804   -3.5283 C   0  0  0  0  0  0  0  0  0  0  0  0
   -6.9906    1.0123   -4.8881 C   0  0  0  0  0  0  0  0  0  0  0  0
   -6.2386    1.8893   -5.6990 C   0  0  0  0  0  0  0  0  0  0  0  0
   -6.4039    1.8917   -7.0879 C   0  0  0  0  0  0  0  0  0  0  0  0
   -7.3528    1.0425   -7.6744 C   0  0  0  0  0  0  0  0  0  0  0  0
   -7.5168    1.0944   -9.0669 O   0  0  0  0  0  0  0  0  0  0  0  0
   -8.4700    0.3266   -9.7933 C   0  0  0  0  0  0  0  0  0  0  0  0
   -8.1119    0.1718   -6.8574 C   0  0  0  0  0  0  0  0  0  0  0  0
   -7.9281    0.1497   -5.4685 C   0  0  0  0  0  0  0  0  0  0  0  0
   -6.9115    0.0510   -2.4983 C   0  0  0  0  0  0  0  0  0  0  0  0
   -6.7616   -1.6020   -2.7919 S   0  0  0  0  0  0  0  0  0  0  0  0
   -6.5899   -2.1025   -1.1935 C   0  0  0  0  0  0  0  0  0  0  0  0
   -6.6442   -0.9637   -0.3881 C   0  0  0  0  0  0  0  0  0  0  0  0
   -6.8265    0.2306   -1.1139 C   0  0  0  0  0  0  0  0  0  0  0  0
   -6.8956    1.4597   -0.4448 C   0  0  0  0  0  0  0  0  0  0  0  0
   -6.7735    1.5015    0.9517 C   0  0  0  0  0  0  0  0  0  0  0  0
   -6.8500    2.7505    1.5844 O   0  0  0  0  0  0  0  0  0  0  0  0
   -6.7393    2.9481    2.9898 C   0  0  0  0  0  0  0  0  0  0  0  0
   -6.5857    0.3000    1.6721 C   0  0  0  0  0  0  0  0  0  0  0  0
   -6.5273   -0.9304    1.0071 C   0  0  0  0  0  0  0  0  0  0  0  0
   -6.2328   -3.4770   -0.8079 C   0  0  0  0  0  0  0  0  0  0  0  0
   -6.6794   -4.6215   -1.4621 C   0  0  0  0  0  0  0  0  0  0  0  0
   -6.0521   -5.7941   -1.0100 C   0  0  0  0  0  0  0  0  0  0  0  0
   -6.2924   -7.1012   -1.4815 C   0  0  0  0  0  0  0  0  0  0  0  0
   -7.3081   -7.3766   -2.5127 C   0  0  0  0  0  0  0  0  0  0  0  0
   -6.9643   -7.9028   -4.0720 S   0  0  0  0  0  0  0  0  0  0  0  0
   -8.5504   -7.8630   -4.6286 C   0  0  0  0  0  0  0  0  0  0  0  0
   -8.9567   -8.1258   -6.0467 C   0  0  0  0  0  0  0  0  0  0  0  0
   -8.8901   -6.8445   -6.8678 C   0  0  0  0  0  0  0  0  0  0  0  0
   -9.3747   -7.4148   -3.5981 C   0  0  0  0  0  0  0  0  0  0  0  0
  -11.1079   -7.1756   -3.7747 Cl  0  0  0  0  0  0  0  0  0  0  0  0
   -8.6789   -7.1477   -2.4089 C   0  0  0  0  0  0  0  0  0  0  0  0
   -9.4639   -6.5919   -0.9349 Cl  0  0  0  0  0  0  0  0  0  0  0  0
   -5.4938   -8.1262   -0.9490 C   0  0  0  0  0  0  0  0  0  0  0  0
   -4.5124   -7.8912    0.0176 C   0  0  0  0  0  0  0  0  0  0  0  0
   -4.2868   -6.5862    0.5072 C   0  0  0  0  0  0  0  0  0  0  0  0
   -3.2492   -6.3008    1.5175 C   0  0  0  0  0  0  0  0  0  0  0  0
   -1.8830   -5.3526    1.2548 S   0  0  0  0  0  0  0  0  0  0  0  0
   -1.2150   -5.5659    2.7855 C   0  0  0  0  0  0  0  0  0  0  0  0
    0.1040   -5.0055    3.2292 C   0  0  0  0  0  0  0  0  0  0  0  0
    1.2252   -6.0160    3.0183 C   0  0  0  0  0  0  0  0  0  0  0  0
   -2.0537   -6.4026    3.5219 C   0  0  0  0  0  0  0  0  0  0  0  0
   -3.1965   -6.8077    2.8147 C   0  0  0  0  0  0  0  0  0  0  0  0
   -4.4525   -7.8261    3.5103 Cl  0  0  0  0  0  0  0  0  0  0  0  0
   -1.7153   -6.9190    5.1668 Cl  0  0  0  0  0  0  0  0  0  0  0  0
   -5.0779   -5.5584   -0.0349 C   0  0  0  0  0  0  0  0  0  0  0  0
   -5.0252   -3.9087    0.2956 S   0  0  0  0  0  0  0  0  0  0  0  0
   -3.8107   -9.0546    0.3789 C   0  0  0  0  0  0  0  0  0  0  0  0
   -4.2568  -10.1935   -0.2841 C   0  0  0  0  0  0  0  0  0  0  0  0
   -5.5115   -9.7643   -1.3273 S   0  0  0  0  0  0  0  0  0  0  0  0
    6.4770   -3.2173   11.9819 H   0  0  0  0  0  0  0  0  0  0  0  0
    8.2845   -2.1003   10.4802 H   0  0  0  0  0  0  0  0  0  0  0  0
   11.9778    2.0966    8.3671 H   0  0  0  0  0  0  0  0  0  0  0  0
   13.1374    0.7592    8.6587 H   0  0  0  0  0  0  0  0  0  0  0  0
   13.2054    0.2497    6.2162 H   0  0  0  0  0  0  0  0  0  0  0  0
   12.0012    1.5672    5.8966 H   0  0  0  0  0  0  0  0  0  0  0  0
   13.6425    1.9724    6.5335 H   0  0  0  0  0  0  0  0  0  0  0  0
   -1.2899   -2.5296    7.4655 H   0  0  0  0  0  0  0  0  0  0  0  0
   -0.7529   -0.8196    7.4631 H   0  0  0  0  0  0  0  0  0  0  0  0
   -1.9652   -1.2737    5.3791 H   0  0  0  0  0  0  0  0  0  0  0  0
   -0.2249   -1.0333    4.9748 H   0  0  0  0  0  0  0  0  0  0  0  0
   -0.9274   -2.7028    5.0250 H   0  0  0  0  0  0  0  0  0  0  0  0
    3.9836   -1.3729    4.8439 H   0  0  0  0  0  0  0  0  0  0  0  0
    6.5282    1.9729    3.1112 H   0  0  0  0  0  0  0  0  0  0  0  0
    6.1900    6.7698    4.3984 H   0  0  0  0  0  0  0  0  0  0  0  0
    7.6390    7.4536    3.5872 H   0  0  0  0  0  0  0  0  0  0  0  0
    6.1388    8.6076    1.9123 H   0  0  0  0  0  0  0  0  0  0  0  0
    5.7696    9.0957    3.6084 H   0  0  0  0  0  0  0  0  0  0  0  0
    4.6922    7.9217    2.7609 H   0  0  0  0  0  0  0  0  0  0  0  0
    0.5241   -4.2184   -2.1520 H   0  0  0  0  0  0  0  0  0  0  0  0
   -0.4327   -2.8343   -1.5352 H   0  0  0  0  0  0  0  0  0  0  0  0
    0.8627   -3.0146   -4.3401 H   0  0  0  0  0  0  0  0  0  0  0  0
   -0.1138   -1.6230   -3.7122 H   0  0  0  0  0  0  0  0  0  0  0  0
   -0.8861   -3.2329   -3.9522 H   0  0  0  0  0  0  0  0  0  0  0  0
    2.8759    1.1196   -2.9328 H   0  0  0  0  0  0  0  0  0  0  0  0
    2.3638    2.1837   -5.1581 H   0  0  0  0  0  0  0  0  0  0  0  0
    0.3715   -2.6296   -7.1116 H   0  0  0  0  0  0  0  0  0  0  0  0
    1.5516   -2.3232   -8.4257 H   0  0  0  0  0  0  0  0  0  0  0  0
   -0.5042   -3.4005   -9.3094 H   0  0  0  0  0  0  0  0  0  0  0  0
   -1.5212   -2.0541   -8.6621 H   0  0  0  0  0  0  0  0  0  0  0  0
   -0.3271   -1.7383   -9.9885 H   0  0  0  0  0  0  0  0  0  0  0  0
   -3.8045    9.7617   -2.6177 H   0  0  0  0  0  0  0  0  0  0  0  0
   -3.4773    9.5112   -0.8710 H   0  0  0  0  0  0  0  0  0  0  0  0
   -1.4791   10.5699   -2.9813 H   0  0  0  0  0  0  0  0  0  0  0  0
   -2.2872   11.5209   -1.6773 H   0  0  0  0  0  0  0  0  0  0  0  0
   -1.0776   10.2521   -1.2423 H   0  0  0  0  0  0  0  0  0  0  0  0
   -3.9428    4.9362   -4.0767 H   0  0  0  0  0  0  0  0  0  0  0  0
   -5.8174    2.5556   -7.7106 H   0  0  0  0  0  0  0  0  0  0  0  0
   -8.2706   -0.7574   -9.6575 H   0  0  0  0  0  0  0  0  0  0  0  0
   -8.3843    0.5701  -10.8729 H   0  0  0  0  0  0  0  0  0  0  0  0
   -9.4988    0.5714   -9.4506 H   0  0  0  0  0  0  0  0  0  0  0  0
   -8.8475   -0.4926   -7.2883 H   0  0  0  0  0  0  0  0  0  0  0  0
   -8.5197   -0.5230   -4.8611 H   0  0  0  0  0  0  0  0  0  0  0  0
   -7.0613    2.3784   -0.9898 H   0  0  0  0  0  0  0  0  0  0  0  0
   -5.7465    2.6000    3.3482 H   0  0  0  0  0  0  0  0  0  0  0  0
   -6.8330    4.0322    3.2089 H   0  0  0  0  0  0  0  0  0  0  0  0
   -7.5524    2.4062    3.5176 H   0  0  0  0  0  0  0  0  0  0  0  0
   -6.4885    0.3083    2.7496 H   0  0  0  0  0  0  0  0  0  0  0  0
   -6.4114   -1.8377    1.5830 H   0  0  0  0  0  0  0  0  0  0  0  0
   -7.4163   -4.5950   -2.2536 H   0  0  0  0  0  0  0  0  0  0  0  0
   -9.9879   -8.5347   -6.0802 H   0  0  0  0  0  0  0  0  0  0  0  0
   -8.2745   -8.8779   -6.4914 H   0  0  0  0  0  0  0  0  0  0  0  0
   -9.6123   -6.0925   -6.4775 H   0  0  0  0  0  0  0  0  0  0  0  0
   -7.8654   -6.4140   -6.8387 H   0  0  0  0  0  0  0  0  0  0  0  0
   -9.1478   -7.0673   -7.9268 H   0  0  0  0  0  0  0  0  0  0  0  0
    0.3289   -4.0847    2.6509 H   0  0  0  0  0  0  0  0  0  0  0  0
    0.0578   -4.7335    4.3012 H   0  0  0  0  0  0  0  0  0  0  0  0
    1.0312   -6.9407    3.6021 H   0  0  0  0  0  0  0  0  0  0  0  0
    1.3198   -6.2742    1.9428 H   0  0  0  0  0  0  0  0  0  0  0  0
    2.1873   -5.5770    3.3652 H   0  0  0  0  0  0  0  0  0  0  0  0
   -2.9978   -9.0776    1.0912 H   0  0  0  0  0  0  0  0  0  0  0  0
   -3.8572  -11.1905   -0.1558 H   0  0  0  0  0  0  0  0  0  0  0  0
  1  2  2  0
  2  3  1  0
  3  4  2  0
  4  5  1  0
  5  6  1  0
  6  7  1  0
  7  8  1  0
  8  9  1  0
  7 10  2  0
 10 11  1  0
 10 12  1  0
 12 13  1  0
  4 14  1  0
 14 15  2  0
 15 16  1  0
 16 17  1  0
 17 18  1  0
 18 19  1  0
 19 20  1  0
 20 21  1  0
 19 22  2  0
 22 23  1  0
 23 24  1  0
 22 25  1  0
 16 26  2  0
 26 27  1  0
 15 28  1  0
 28 29  2  0
 29 30  1  0
 29 31  1  0
 31 32  2  0
 32 33  1  0
 33 34  2  0
 34 35  1  0
 35 36  1  0
 36 37  1  0
 37 38  1  0
 38 39  1  0
 37 40  2  0
 40 41  1  0
 40 42  1  0
 42 43  1  0
 34 44  1  0
 44 45  2  0
 45 46  1  0
 46 47  1  0
 47 48  1  0
 48 49  1  0
 49 50  1  0
 50 51  1  0
 49 52  2  0
 52 53  1  0
 53 54  1  0
 52 55  1  0
 46 56  2  0
 56 57  1  0
 45 58  1  0
 58 59  2  0
 59 60  1  0
 59 61  1  0
 61 62  2  0
 62 63  1  0
 63 64  2  0
 64 65  1  0
 65 66  1  0
 66 67  1  0
 67 68  1  0
 68 69  1  0
 67 70  2  0
 70 71  1  0
 70 72  1  0
 72 73  1  0
 64 74  1  0
 74 75  2  0
 75 76  1  0
 76 77  1  0
 77 78  1  0
 78 79  1  0
 79 80  1  0
 80 81  1  0
 79 82  2  0
 82 83  1  0
 83 84  1  0
 82 85  1  0
 76 86  2  0
 86 87  1  0
 75 88  1  0
 88 89  2  0
 89 90  1  0
 89 91  1  0
 91 92  1  0
 92 93  1  0
 93 94  2  0
 94 95  1  0
 95 96  1  0
 96 97  2  0
 97 98  1  0
 98 99  1  0
 97100  1  0
100101  2  0
 93102  1  0
102103  1  0
103104  1  0
104105  2  0
105106  1  0
106107  1  0
107108  2  0
108109  1  0
109110  1  0
108111  1  0
111112  2  0
104113  1  0
113114  2  0
114115  1  0
115116  2  0
116117  1  0
117118  1  0
118119  1  0
119120  1  0
120121  1  0
119122  2  0
122123  1  0
122124  1  0
124125  1  0
116126  1  0
126127  2  0
127128  1  0
128129  1  0
129130  1  0
130131  1  0
131132  1  0
132133  1  0
131134  2  0
134135  1  0
135136  1  0
134137  1  0
128138  2  0
138139  1  0
127140  1  0
140141  2  0
141142  1  0
 27  1  1  0
 57 31  1  0
 87 61  1  0
 95 91  2  0
106102  2  0
139113  1  0
 26  3  1  0
 56 33  1  0
 86 63  1  0
101 94  1  0
112105  1  0
138115  1  0
 12  5  2  0
 30 14  1  0
 42 35  2  0
 60 44  1  0
 72 65  2  0
 90 74  1  0
124117  2  0
142126  1  0
 23 17  2  0
 53 47  2  0
 83 77  2  0
135129  2  0
  1143  1  0
  2144  1  0
  8145  1  0
  8146  1  0
  9147  1  0
  9148  1  0
  9149  1  0
 20150  1  0
 20151  1  0
 21152  1  0
 21153  1  0
 21154  1  0
 28155  1  0
 32156  1  0
 38157  1  0
 38158  1  0
 39159  1  0
 39160  1  0
 39161  1  0
 50162  1  0
 50163  1  0
 51164  1  0
 51165  1  0
 51166  1  0
 58167  1  0
 62168  1  0
 68169  1  0
 68170  1  0
 69171  1  0
 69172  1  0
 69173  1  0
 80174  1  0
 80175  1  0
 81176  1  0
 81177  1  0
 81178  1  0
 88179  1  0
 96180  1  0
 99181  1  0
 99182  1  0
 99183  1  0
100184  1  0
101185  1  0
107186  1  0
110187  1  0
110188  1  0
110189  1  0
111190  1  0
112191  1  0
114192  1  0
120193  1  0
120194  1  0
121195  1  0
121196  1  0
121197  1  0
132198  1  0
132199  1  0
133200  1  0
133201  1  0
133202  1  0
140203  1  0
141204  1  0
M  END

