
     RDKit          3D

119130  0  0  0  0  0  0  0  0999 V2000
    9.2154   -0.4367   -5.2043 C   0  0  0  0  0  0  0  0  0  0  0  0
    7.5709   -0.7425   -5.3844 S   0  0  0  0  0  0  0  0  0  0  0  0
    7.1405   -0.4413   -3.7900 C   0  0  0  0  0  0  0  0  0  0  0  0
    8.2890   -0.1023   -3.0759 C   0  0  0  0  0  0  0  0  0  0  0  0
    9.4502   -0.1028   -3.8728 C   0  0  0  0  0  0  0  0  0  0  0  0
   10.8267    0.1831   -3.3173 C   0  0  2  0  0  0  0  0  0  0  0  0
   11.6570   -1.1167   -3.2057 C   0  0  0  0  0  0  0  0  0  0  0  0
   10.9826   -2.0828   -2.4756 F   0  0  0  0  0  0  0  0  0  0  0  0
   11.9086   -1.6259   -4.4707 F   0  0  0  0  0  0  0  0  0  0  0  0
   12.8741   -0.8617   -2.5943 F   0  0  0  0  0  0  0  0  0  0  0  0
   10.7252    0.9428   -1.9677 C   0  0  0  0  0  0  0  0  0  0  0  0
    9.6875    0.3293   -1.0174 C   0  0  0  0  0  0  0  0  0  0  0  0
    8.2807    0.3260   -1.6369 C   0  0  0  0  0  0  0  0  0  0  0  0
    5.7814   -0.5261   -3.2375 C   0  0  0  0  0  0  0  0  0  0  0  0
    4.9580    0.7859   -2.5761 S   0  0  0  0  0  0  0  0  0  0  0  0
    3.7813   -0.1184   -1.7848 C   0  0  0  0  0  0  0  0  0  0  0  0
    3.9824   -1.4646   -2.0646 C   0  0  0  0  0  0  0  0  0  0  0  0
    5.1073   -1.7026   -2.8727 C   0  0  0  0  0  0  0  0  0  0  0  0
    5.5750   -3.1066   -3.1623 C   0  0  2  0  0  0  0  0  0  0  0  0
    4.9980   -3.6326   -4.4985 C   0  0  0  0  0  0  0  0  0  0  0  0
    3.6252   -3.4521   -4.5532 F   0  0  0  0  0  0  0  0  0  0  0  0
    5.2821   -4.9796   -4.6441 F   0  0  0  0  0  0  0  0  0  0  0  0
    5.5701   -2.9588   -5.5588 F   0  0  0  0  0  0  0  0  0  0  0  0
    5.2153   -4.0025   -1.9537 C   0  0  0  0  0  0  0  0  0  0  0  0
    3.7099   -3.9865   -1.6361 C   0  0  0  0  0  0  0  0  0  0  0  0
    3.1025   -2.5699   -1.5205 C   0  0  0  0  0  0  0  0  0  0  0  0
    2.6861    0.4253   -0.9743 C   0  0  0  0  0  0  0  0  0  0  0  0
    1.1564    0.5314   -1.6653 S   0  0  0  0  0  0  0  0  0  0  0  0
    0.2942    0.5452   -0.2389 C   0  0  0  0  0  0  0  0  0  0  0  0
    1.1793    0.4341    0.8272 C   0  0  0  0  0  0  0  0  0  0  0  0
    2.5359    0.3518    0.4277 C   0  0  0  0  0  0  0  0  0  0  0  0
    3.6189    0.3523    1.5160 C   0  0  2  0  0  0  0  0  0  0  0  0
    5.0454   -0.0711    1.1168 C   0  0  0  0  0  0  0  0  0  0  0  0
    5.8716   -0.0754    2.2211 F   0  0  0  0  0  0  0  0  0  0  0  0
    5.0563   -1.3413    0.5759 F   0  0  0  0  0  0  0  0  0  0  0  0
    5.5770    0.8406    0.2294 F   0  0  0  0  0  0  0  0  0  0  0  0
    3.1203   -0.4805    2.7140 C   0  0  0  0  0  0  0  0  0  0  0  0
    1.8325    0.1221    3.2788 C   0  0  0  0  0  0  0  0  0  0  0  0
    0.7000    0.1943    2.2395 C   0  0  0  0  0  0  0  0  0  0  0  0
   -1.1602    0.3943   -0.1611 C   0  0  0  0  0  0  0  0  0  0  0  0
   -2.2239    1.5684    0.4065 S   0  0  0  0  0  0  0  0  0  0  0  0
   -3.6187    0.6325    0.2570 C   0  0  0  0  0  0  0  0  0  0  0  0
   -3.2646   -0.6067   -0.2678 C   0  0  0  0  0  0  0  0  0  0  0  0
   -1.8864   -0.7528   -0.4756 C   0  0  0  0  0  0  0  0  0  0  0  0
   -1.3564   -1.9790   -0.8927 C   0  0  0  0  0  0  0  0  0  0  0  0
   -2.2327   -3.0601   -1.1586 C   0  0  0  0  0  0  0  0  0  0  0  0
   -1.7730   -4.3182   -1.5745 O   0  0  0  0  0  0  0  0  0  0  0  0
   -0.4011   -4.6588   -1.7336 C   0  0  0  0  0  0  0  0  0  0  0  0
   -3.6196   -2.8809   -0.9973 C   0  0  0  0  0  0  0  0  0  0  0  0
   -4.1422   -1.6606   -0.5518 C   0  0  0  0  0  0  0  0  0  0  0  0
   -4.9672    1.0759    0.6164 C   0  0  0  0  0  0  0  0  0  0  0  0
   -6.0934    1.5279   -0.5425 S   0  0  0  0  0  0  0  0  0  0  0  0
   -7.2561    2.0540    0.5429 C   0  0  0  0  0  0  0  0  0  0  0  0
   -6.7618    1.9270    1.8396 C   0  0  0  0  0  0  0  0  0  0  0  0
   -5.4969    1.3036    1.9025 C   0  0  0  0  0  0  0  0  0  0  0  0
   -4.8797    0.9249    3.2532 C   0  0  2  0  0  0  0  0  0  0  0  0
   -4.0856   -0.4128    3.2369 C   0  0  0  0  0  0  0  0  0  0  0  0
   -2.8116   -0.2121    2.7385 F   0  0  0  0  0  0  0  0  0  0  0  0
   -3.9333   -0.9092    4.5178 F   0  0  0  0  0  0  0  0  0  0  0  0
   -4.7419   -1.3693    2.4724 F   0  0  0  0  0  0  0  0  0  0  0  0
   -6.0192    0.8177    4.2958 C   0  0  0  0  0  0  0  0  0  0  0  0
   -6.8403    2.1079    4.3948 C   0  0  0  0  0  0  0  0  0  0  0  0
   -7.3924    2.5968    3.0344 C   0  0  0  0  0  0  0  0  0  0  0  0
   -8.5842    2.5386    0.1529 C   0  0  0  0  0  0  0  0  0  0  0  0
   -8.8187    3.9598   -0.7080 S   0  0  0  0  0  0  0  0  0  0  0  0
  -10.4936    3.9573   -0.6331 C   0  0  0  0  0  0  0  0  0  0  0  0
  -10.8925    2.8422    0.0884 C   0  0  0  0  0  0  0  0  0  0  0  0
   -9.8351    1.9950    0.4877 C   0  0  0  0  0  0  0  0  0  0  0  0
  -10.0817    0.6801    1.2443 C   0  0  2  0  0  0  0  0  0  0  0  0
   -9.5341   -0.5501    0.4918 C   0  0  0  0  0  0  0  0  0  0  0  0
   -8.1556   -0.5557    0.4600 F   0  0  0  0  0  0  0  0  0  0  0  0
   -9.9374   -1.7144    1.1362 F   0  0  0  0  0  0  0  0  0  0  0  0
  -10.0062   -0.5728   -0.8100 F   0  0  0  0  0  0  0  0  0  0  0  0
  -11.5900    0.4604    1.5634 C   0  0  0  0  0  0  0  0  0  0  0  0
  -12.3715    1.7647    1.7490 C   0  0  0  0  0  0  0  0  0  0  0  0
  -12.3175    2.5839    0.4595 C   0  0  0  0  0  0  0  0  0  0  0  0
    9.9640   -0.5158   -5.9818 H   0  0  0  0  0  0  0  0  0  0  0  0
   11.3601    0.8534   -4.0327 H   0  0  0  0  0  0  0  0  0  0  0  0
   10.4314    1.9960   -2.1803 H   0  0  0  0  0  0  0  0  0  0  0  0
   11.7105    0.9882   -1.4559 H   0  0  0  0  0  0  0  0  0  0  0  0
    9.9802   -0.7066   -0.7340 H   0  0  0  0  0  0  0  0  0  0  0  0
    9.6623    0.9221   -0.0760 H   0  0  0  0  0  0  0  0  0  0  0  0
    7.6295   -0.3502   -1.0461 H   0  0  0  0  0  0  0  0  0  0  0  0
    7.8620    1.3521   -1.5753 H   0  0  0  0  0  0  0  0  0  0  0  0
    6.6824   -3.1087   -3.2485 H   0  0  0  0  0  0  0  0  0  0  0  0
    5.7675   -3.6388   -1.0621 H   0  0  0  0  0  0  0  0  0  0  0  0
    5.5492   -5.0463   -2.1273 H   0  0  0  0  0  0  0  0  0  0  0  0
    3.1679   -4.5637   -2.4104 H   0  0  0  0  0  0  0  0  0  0  0  0
    3.5454   -4.5286   -0.6800 H   0  0  0  0  0  0  0  0  0  0  0  0
    2.1374   -2.5411   -2.0635 H   0  0  0  0  0  0  0  0  0  0  0  0
    2.8728   -2.3660   -0.4533 H   0  0  0  0  0  0  0  0  0  0  0  0
    3.7118    1.4052    1.8612 H   0  0  0  0  0  0  0  0  0  0  0  0
    2.9483   -1.5400    2.4040 H   0  0  0  0  0  0  0  0  0  0  0  0
    3.8770   -0.4815    3.5374 H   0  0  0  0  0  0  0  0  0  0  0  0
    1.4981   -0.4986    4.1425 H   0  0  0  0  0  0  0  0  0  0  0  0
    2.0458    1.1411    3.6807 H   0  0  0  0  0  0  0  0  0  0  0  0
    0.1309   -0.7629    2.2596 H   0  0  0  0  0  0  0  0  0  0  0  0
    0.0087    1.0118    2.5342 H   0  0  0  0  0  0  0  0  0  0  0  0
   -0.2855   -2.0924   -0.9990 H   0  0  0  0  0  0  0  0  0  0  0  0
    0.0641   -4.0140   -2.5133 H   0  0  0  0  0  0  0  0  0  0  0  0
   -0.3225   -5.7183   -2.0603 H   0  0  0  0  0  0  0  0  0  0  0  0
    0.1340   -4.5435   -0.7634 H   0  0  0  0  0  0  0  0  0  0  0  0
   -4.2984   -3.7026   -1.2084 H   0  0  0  0  0  0  0  0  0  0  0  0
   -5.2119   -1.5495   -0.4165 H   0  0  0  0  0  0  0  0  0  0  0  0
   -4.1861    1.7397    3.5677 H   0  0  0  0  0  0  0  0  0  0  0  0
   -6.7004   -0.0196    4.0251 H   0  0  0  0  0  0  0  0  0  0  0  0
   -5.6064    0.6080    5.3055 H   0  0  0  0  0  0  0  0  0  0  0  0
   -7.7004    1.9093    5.0755 H   0  0  0  0  0  0  0  0  0  0  0  0
   -6.2122    2.9078    4.8632 H   0  0  0  0  0  0  0  0  0  0  0  0
   -7.2103    3.6969    2.9592 H   0  0  0  0  0  0  0  0  0  0  0  0
   -8.4948    2.4740    3.0217 H   0  0  0  0  0  0  0  0  0  0  0  0
  -11.1422    4.7358   -1.0203 H   0  0  0  0  0  0  0  0  0  0  0  0
   -9.5565    0.7319    2.2139 H   0  0  0  0  0  0  0  0  0  0  0  0
  -12.0795   -0.1004    0.7385 H   0  0  0  0  0  0  0  0  0  0  0  0
  -11.6934   -0.1607    2.4805 H   0  0  0  0  0  0  0  0  0  0  0  0
  -11.9474    2.3561    2.5939 H   0  0  0  0  0  0  0  0  0  0  0  0
  -13.4303    1.5375    1.9890 H   0  0  0  0  0  0  0  0  0  0  0  0
  -12.8526    3.5442    0.6111 H   0  0  0  0  0  0  0  0  0  0  0  0
  -12.8201    2.0300   -0.3606 H   0  0  0  0  0  0  0  0  0  0  0  0
  1  2  1  0
  2  3  1  0
  3  4  2  0
  4  5  1  0
  5  6  1  0
  6  7  1  0
  7  8  1  0
  7  9  1  0
  7 10  1  0
  6 11  1  0
 11 12  1  0
 12 13  1  0
  3 14  1  0
 14 15  1  0
 15 16  1  0
 16 17  2  0
 17 18  1  0
 18 19  1  0
 19 20  1  0
 20 21  1  0
 20 22  1  0
 20 23  1  0
 19 24  1  0
 24 25  1  0
 25 26  1  0
 16 27  1  0
 27 28  1  0
 28 29  1  0
 29 30  2  0
 30 31  1  0
 31 32  1  0
 32 33  1  0
 33 34  1  0
 33 35  1  0
 33 36  1  0
 32 37  1  0
 37 38  1  0
 38 39  1  0
 29 40  1  0
 40 41  1  0
 41 42  1  0
 42 43  2  0
 43 44  1  0
 44 45  1  0
 45 46  2  0
 46 47  1  0
 47 48  1  0
 46 49  1  0
 49 50  2  0
 42 51  1  0
 51 52  1  0
 52 53  1  0
 53 54  2  0
 54 55  1  0
 55 56  1  0
 56 57  1  0
 57 58  1  0
 57 59  1  0
 57 60  1  0
 56 61  1  0
 61 62  1  0
 62 63  1  0
 53 64  1  0
 64 65  1  0
 65 66  1  0
 66 67  2  0
 67 68  1  0
 68 69  1  0
 69 70  1  0
 70 71  1  0
 70 72  1  0
 70 73  1  0
 69 74  1  0
 74 75  1  0
 75 76  1  0
  5  1  2  0
 18 14  2  0
 31 27  2  0
 44 40  2  0
 55 51  2  0
 68 64  2  0
 13  4  1  0
 26 17  1  0
 39 30  1  0
 50 43  1  0
 63 54  1  0
 76 67  1  0
  1 77  1  0
  6 78  1  6
 11 79  1  0
 11 80  1  0
 12 81  1  0
 12 82  1  0
 13 83  1  0
 13 84  1  0
 19 85  1  6
 24 86  1  0
 24 87  1  0
 25 88  1  0
 25 89  1  0
 26 90  1  0
 26 91  1  0
 32 92  1  1
 37 93  1  0
 37 94  1  0
 38 95  1  0
 38 96  1  0
 39 97  1  0
 39 98  1  0
 45 99  1  0
 48100  1  0
 48101  1  0
 48102  1  0
 49103  1  0
 50104  1  0
 56105  1  1
 61106  1  0
 61107  1  0
 62108  1  0
 62109  1  0
 63110  1  0
 63111  1  0
 66112  1  0
 69113  1  1
 74114  1  0
 74115  1  0
 75116  1  0
 75117  1  0
 76118  1  0
 76119  1  0
M  END

