
     RDKit          3D

100107  0  0  0  0  0  0  0  0999 V2000
    6.2445    1.3496    5.9322 C   0  0  0  0  0  0  0  0  0  0  0  0
    5.7010    1.8698    4.7443 C   0  0  0  0  0  0  0  0  0  0  0  0
    4.7205    3.0184    4.8316 C   0  0  0  0  0  0  0  0  0  0  0  0
    3.2875    2.5138    4.9690 C   0  0  0  0  0  0  0  0  0  0  0  0
    6.0775    1.2895    3.5067 C   0  0  0  0  0  0  0  0  0  0  0  0
    7.0173    0.2472    3.4814 C   0  0  0  0  0  0  0  0  0  0  0  0
    7.5589   -0.2466    4.6697 C   0  0  0  0  0  0  0  0  0  0  0  0
    7.1685    0.3002    5.8932 C   0  0  0  0  0  0  0  0  0  0  0  0
    5.5255    1.7714    2.2243 C   0  0  0  0  0  0  0  0  0  0  0  0
    4.4086    1.1502    1.6011 C   0  0  0  0  0  0  0  0  0  0  0  0
    3.7984   -0.1125    2.1908 C   0  0  0  0  0  0  0  0  0  0  0  0
    4.3325   -1.3615    1.4918 C   0  0  0  0  0  0  0  0  0  0  0  0
    3.9364    1.6738    0.3673 C   0  0  0  0  0  0  0  0  0  0  0  0
    4.5816    2.7798   -0.2133 C   0  0  0  0  0  0  0  0  0  0  0  0
    5.6801    3.3709    0.4058 C   0  0  0  0  0  0  0  0  0  0  0  0
    6.1516    2.8694    1.6164 C   0  0  0  0  0  0  0  0  0  0  0  0
    2.7506    1.1300   -0.3280 C   0  0  0  0  0  0  0  0  0  0  0  0
    1.1741    1.2479    0.2391 S   0  0  0  0  0  0  0  0  0  0  0  0
    0.3832    0.7149   -1.1548 C   0  0  0  0  0  0  0  0  0  0  0  0
    1.3783    0.4364   -2.1075 C   0  0  0  0  0  0  0  0  0  0  0  0
    2.6885    0.6747   -1.6431 C   0  0  0  0  0  0  0  0  0  0  0  0
    3.7951    0.4505   -2.4696 C   0  0  0  0  0  0  0  0  0  0  0  0
    3.6020   -0.0109   -3.7772 C   0  0  0  0  0  0  0  0  0  0  0  0
    4.7349   -0.2328   -4.5745 O   0  0  0  0  0  0  0  0  0  0  0  0
    4.6919   -0.6806   -5.9258 C   0  0  0  0  0  0  0  0  0  0  0  0
    2.2883   -0.2336   -4.2493 C   0  0  0  0  0  0  0  0  0  0  0  0
    1.1800    0.0029   -3.4253 C   0  0  0  0  0  0  0  0  0  0  0  0
   -1.0817    0.4943   -1.2625 C   0  0  0  0  0  0  0  0  0  0  0  0
   -1.8063   -0.7487   -2.1444 S   0  0  0  0  0  0  0  0  0  0  0  0
   -3.3980   -0.4871   -1.6678 C   0  0  0  0  0  0  0  0  0  0  0  0
   -3.3899    0.6063   -0.7956 C   0  0  0  0  0  0  0  0  0  0  0  0
   -2.1100    1.1594   -0.5751 C   0  0  0  0  0  0  0  0  0  0  0  0
   -1.9704    2.2960    0.2379 C   0  0  0  0  0  0  0  0  0  0  0  0
   -3.0996    2.8359    0.8888 C   0  0  0  0  0  0  0  0  0  0  0  0
   -3.0149    3.9559    1.7319 O   0  0  0  0  0  0  0  0  0  0  0  0
   -1.8087    4.6624    2.0142 C   0  0  0  0  0  0  0  0  0  0  0  0
   -4.3585    2.2472    0.6938 C   0  0  0  0  0  0  0  0  0  0  0  0
   -4.5132    1.1411   -0.1511 C   0  0  0  0  0  0  0  0  0  0  0  0
   -4.5924   -1.1687   -2.2294 C   0  0  0  0  0  0  0  0  0  0  0  0
   -4.7811   -2.5807   -2.1683 C   0  0  0  0  0  0  0  0  0  0  0  0
   -3.7202   -3.4843   -1.5602 C   0  0  0  0  0  0  0  0  0  0  0  0
   -2.7550   -4.0168   -2.6174 C   0  0  0  0  0  0  0  0  0  0  0  0
   -5.9824   -3.1338   -2.6955 C   0  0  0  0  0  0  0  0  0  0  0  0
   -6.9421   -2.2994   -3.2815 C   0  0  0  0  0  0  0  0  0  0  0  0
   -6.7384   -0.9266   -3.3498 C   0  0  0  0  0  0  0  0  0  0  0  0
   -5.5752   -0.3655   -2.8326 C   0  0  0  0  0  0  0  0  0  0  0  0
   -6.2707   -4.5842   -2.6545 C   0  0  0  0  0  0  0  0  0  0  0  0
   -7.0305   -5.1706   -1.6089 C   0  0  0  0  0  0  0  0  0  0  0  0
   -7.6157   -4.3568   -0.4735 C   0  0  0  0  0  0  0  0  0  0  0  0
   -6.7383   -4.4198    0.7734 C   0  0  0  0  0  0  0  0  0  0  0  0
   -7.2444   -6.5617   -1.6218 C   0  0  0  0  0  0  0  0  0  0  0  0
   -6.7588   -7.3496   -2.6674 C   0  0  0  0  0  0  0  0  0  0  0  0
   -6.0520   -6.7622   -3.7161 C   0  0  0  0  0  0  0  0  0  0  0  0
   -5.8140   -5.3868   -3.7143 C   0  0  0  0  0  0  0  0  0  0  0  0
    5.9610    1.7646    6.8914 H   0  0  0  0  0  0  0  0  0  0  0  0
    4.9588    3.6538    5.7158 H   0  0  0  0  0  0  0  0  0  0  0  0
    4.7989    3.6787    3.9416 H   0  0  0  0  0  0  0  0  0  0  0  0
    3.1986    1.8422    5.8520 H   0  0  0  0  0  0  0  0  0  0  0  0
    2.6008    3.3770    5.1130 H   0  0  0  0  0  0  0  0  0  0  0  0
    2.9770    1.9700    4.0490 H   0  0  0  0  0  0  0  0  0  0  0  0
    7.3288   -0.1835    2.5374 H   0  0  0  0  0  0  0  0  0  0  0  0
    8.2793   -1.0542    4.6403 H   0  0  0  0  0  0  0  0  0  0  0  0
    7.5920   -0.0787    6.8140 H   0  0  0  0  0  0  0  0  0  0  0  0
    2.6979   -0.0895    2.0995 H   0  0  0  0  0  0  0  0  0  0  0  0
    3.9948   -0.1969    3.2816 H   0  0  0  0  0  0  0  0  0  0  0  0
    4.2517   -1.2631    0.3883 H   0  0  0  0  0  0  0  0  0  0  0  0
    3.7471   -2.2478    1.8145 H   0  0  0  0  0  0  0  0  0  0  0  0
    5.3953   -1.5243    1.7594 H   0  0  0  0  0  0  0  0  0  0  0  0
    4.2244    3.1959   -1.1486 H   0  0  0  0  0  0  0  0  0  0  0  0
    6.1649    4.2267   -0.0539 H   0  0  0  0  0  0  0  0  0  0  0  0
    7.0038    3.3473    2.0896 H   0  0  0  0  0  0  0  0  0  0  0  0
    4.8006    0.6197   -2.1059 H   0  0  0  0  0  0  0  0  0  0  0  0
    4.1413    0.0528   -6.5538 H   0  0  0  0  0  0  0  0  0  0  0  0
    4.2136   -1.6844   -5.9813 H   0  0  0  0  0  0  0  0  0  0  0  0
    5.7275   -0.7624   -6.3126 H   0  0  0  0  0  0  0  0  0  0  0  0
    2.1112   -0.5876   -5.2548 H   0  0  0  0  0  0  0  0  0  0  0  0
    0.1912   -0.1374   -3.8308 H   0  0  0  0  0  0  0  0  0  0  0  0
   -1.0120    2.7743    0.3476 H   0  0  0  0  0  0  0  0  0  0  0  0
   -1.3864    5.0865    1.0748 H   0  0  0  0  0  0  0  0  0  0  0  0
   -1.0683    3.9825    2.4936 H   0  0  0  0  0  0  0  0  0  0  0  0
   -2.0267    5.4964    2.7157 H   0  0  0  0  0  0  0  0  0  0  0  0
   -5.2220    2.6616    1.1984 H   0  0  0  0  0  0  0  0  0  0  0  0
   -5.4945    0.7011   -0.2787 H   0  0  0  0  0  0  0  0  0  0  0  0
   -4.1803   -4.3489   -1.0399 H   0  0  0  0  0  0  0  0  0  0  0  0
   -3.1472   -2.9472   -0.7771 H   0  0  0  0  0  0  0  0  0  0  0  0
   -3.2147   -4.8462   -3.1873 H   0  0  0  0  0  0  0  0  0  0  0  0
   -2.4520   -3.2199   -3.3281 H   0  0  0  0  0  0  0  0  0  0  0  0
   -1.8432   -4.4092   -2.1242 H   0  0  0  0  0  0  0  0  0  0  0  0
   -7.8578   -2.7164   -3.6818 H   0  0  0  0  0  0  0  0  0  0  0  0
   -7.4882   -0.2937   -3.8087 H   0  0  0  0  0  0  0  0  0  0  0  0
   -5.4347    0.7081   -2.9126 H   0  0  0  0  0  0  0  0  0  0  0  0
   -8.6261   -4.7458   -0.2212 H   0  0  0  0  0  0  0  0  0  0  0  0
   -7.7639   -3.2984   -0.7659 H   0  0  0  0  0  0  0  0  0  0  0  0
   -5.7762   -3.9012    0.6027 H   0  0  0  0  0  0  0  0  0  0  0  0
   -6.5451   -5.4737    1.0637 H   0  0  0  0  0  0  0  0  0  0  0  0
   -7.2563   -3.9143    1.6133 H   0  0  0  0  0  0  0  0  0  0  0  0
   -7.8032   -7.0369   -0.8273 H   0  0  0  0  0  0  0  0  0  0  0  0
   -6.9269   -8.4207   -2.6618 H   0  0  0  0  0  0  0  0  0  0  0  0
   -5.6812   -7.3759   -4.5290 H   0  0  0  0  0  0  0  0  0  0  0  0
   -5.2626   -4.9469   -4.5393 H   0  0  0  0  0  0  0  0  0  0  0  0
  1  2  2  0
  2  3  1  0
  3  4  1  0
  2  5  1  0
  5  6  2  0
  6  7  1  0
  7  8  2  0
  5  9  1  0
  9 10  2  0
 10 11  1  0
 11 12  1  0
 10 13  1  0
 13 14  2  0
 14 15  1  0
 15 16  2  0
 13 17  1  0
 17 18  1  0
 18 19  1  0
 19 20  2  0
 20 21  1  0
 21 22  1  0
 22 23  2  0
 23 24  1  0
 24 25  1  0
 23 26  1  0
 26 27  2  0
 19 28  1  0
 28 29  1  0
 29 30  1  0
 30 31  2  0
 31 32  1  0
 32 33  1  0
 33 34  2  0
 34 35  1  0
 35 36  1  0
 34 37  1  0
 37 38  2  0
 30 39  1  0
 39 40  2  0
 40 41  1  0
 41 42  1  0
 40 43  1  0
 43 44  2  0
 44 45  1  0
 45 46  2  0
 43 47  1  0
 47 48  2  0
 48 49  1  0
 49 50  1  0
 48 51  1  0
 51 52  2  0
 52 53  1  0
 53 54  2  0
  8  1  1  0
 16  9  1  0
 21 17  2  0
 32 28  2  0
 46 39  1  0
 54 47  1  0
 27 20  1  0
 38 31  1  0
  1 55  1  0
  3 56  1  0
  3 57  1  0
  4 58  1  0
  4 59  1  0
  4 60  1  0
  6 61  1  0
  7 62  1  0
  8 63  1  0
 11 64  1  0
 11 65  1  0
 12 66  1  0
 12 67  1  0
 12 68  1  0
 14 69  1  0
 15 70  1  0
 16 71  1  0
 22 72  1  0
 25 73  1  0
 25 74  1  0
 25 75  1  0
 26 76  1  0
 27 77  1  0
 33 78  1  0
 36 79  1  0
 36 80  1  0
 36 81  1  0
 37 82  1  0
 38 83  1  0
 41 84  1  0
 41 85  1  0
 42 86  1  0
 42 87  1  0
 42 88  1  0
 44 89  1  0
 45 90  1  0
 46 91  1  0
 49 92  1  0
 49 93  1  0
 50 94  1  0
 50 95  1  0
 50 96  1  0
 51 97  1  0
 52 98  1  0
 53 99  1  0
 54100  1  0
M  END

