
     RDKit          3D

179199  0  0  0  0  0  0  0  0999 V2000
   11.6380   -3.0447   10.2648 C   0  0  0  0  0  0  0  0  0  0  0  0
   11.2889   -3.6784    8.7438 S   0  0  0  0  0  0  0  0  0  0  0  0
    9.7627   -2.9854    8.5689 C   0  0  0  0  0  0  0  0  0  0  0  0
    9.5167   -2.2096    9.7018 C   0  0  0  0  0  0  0  0  0  0  0  0
   10.5625   -2.2479   10.6392 C   0  0  0  0  0  0  0  0  0  0  0  0
   10.5048   -1.4842   11.8075 C   0  0  0  0  0  0  0  0  0  0  0  0
    9.3996   -0.6485   12.0332 C   0  0  0  0  0  0  0  0  0  0  0  0
    9.3864    0.1338   13.1980 O   0  0  0  0  0  0  0  0  0  0  0  0
    8.3778    1.0878   13.5134 C   0  0  0  0  0  0  0  0  0  0  0  0
    8.3504   -0.6087   11.0856 C   0  0  0  0  0  0  0  0  0  0  0  0
    8.4068   -1.3872    9.9207 C   0  0  0  0  0  0  0  0  0  0  0  0
    8.9441   -3.0774    7.3535 C   0  0  0  0  0  0  0  0  0  0  0  0
    9.4196   -2.8547    6.0661 C   0  0  0  0  0  0  0  0  0  0  0  0
    8.4069   -2.9024    5.0957 C   0  0  0  0  0  0  0  0  0  0  0  0
    8.5657   -2.6543    3.7177 C   0  0  0  0  0  0  0  0  0  0  0  0
    9.8937   -2.4111    3.1186 C   0  0  0  0  0  0  0  0  0  0  0  0
   10.3585   -0.9928    2.3383 S   0  0  0  0  0  0  0  0  0  0  0  0
   11.9361   -1.4794    2.0067 C   0  0  0  0  0  0  0  0  0  0  0  0
   12.9380   -0.6628    1.2512 C   0  0  0  0  0  0  0  0  0  0  0  0
   12.8461   -0.9380   -0.2451 C   0  0  0  0  0  0  0  0  0  0  0  0
   12.1134   -2.7775    2.4826 C   0  0  0  0  0  0  0  0  0  0  0  0
   13.6136   -3.6783    2.3141 Cl  0  0  0  0  0  0  0  0  0  0  0  0
   10.9704   -3.2971    3.1118 C   0  0  0  0  0  0  0  0  0  0  0  0
   10.8969   -4.9245    3.7797 Cl  0  0  0  0  0  0  0  0  0  0  0  0
    7.3976   -2.6499    2.9362 C   0  0  0  0  0  0  0  0  0  0  0  0
    6.1372   -2.9468    3.4669 C   0  0  0  0  0  0  0  0  0  0  0  0
    5.9854   -3.2400    4.8368 C   0  0  0  0  0  0  0  0  0  0  0  0
    4.6752   -3.6134    5.4023 C   0  0  0  0  0  0  0  0  0  0  0  0
    3.8131   -4.9871    4.9615 S   0  0  0  0  0  0  0  0  0  0  0  0
    2.4831   -4.6913    5.9461 C   0  0  0  0  0  0  0  0  0  0  0  0
    1.3044   -5.6082    6.0773 C   0  0  0  0  0  0  0  0  0  0  0  0
    1.5427   -6.6404    7.1744 C   0  0  0  0  0  0  0  0  0  0  0  0
    2.7035   -3.5096    6.6512 C   0  0  0  0  0  0  0  0  0  0  0  0
    3.9294   -2.8968    6.3378 C   0  0  0  0  0  0  0  0  0  0  0  0
    4.4347   -1.3511    7.0105 Cl  0  0  0  0  0  0  0  0  0  0  0  0
    1.5599   -2.8394    7.8047 Cl  0  0  0  0  0  0  0  0  0  0  0  0
    7.1442   -3.1806    5.6303 C   0  0  0  0  0  0  0  0  0  0  0  0
    7.2830   -3.3751    7.2976 S   0  0  0  0  0  0  0  0  0  0  0  0
    5.1052   -2.8630    2.5196 C   0  0  0  0  0  0  0  0  0  0  0  0
    5.5621   -2.5038    1.2539 C   0  0  0  0  0  0  0  0  0  0  0  0
    7.2345   -2.2770    1.3030 S   0  0  0  0  0  0  0  0  0  0  0  0
    4.7074   -2.2173    0.0953 C   0  0  0  0  0  0  0  0  0  0  0  0
    4.7903   -0.7968   -0.8089 S   0  0  0  0  0  0  0  0  0  0  0  0
    3.4528   -1.1031   -1.7847 C   0  0  0  0  0  0  0  0  0  0  0  0
    2.8946   -2.3200   -1.3846 C   0  0  0  0  0  0  0  0  0  0  0  0
    3.5969   -2.9468   -0.3402 C   0  0  0  0  0  0  0  0  0  0  0  0
    3.1525   -4.1716    0.1795 C   0  0  0  0  0  0  0  0  0  0  0  0
    1.9741   -4.7558   -0.3344 C   0  0  0  0  0  0  0  0  0  0  0  0
    1.4618   -5.9657    0.1548 O   0  0  0  0  0  0  0  0  0  0  0  0
    2.0288   -6.7062    1.2300 C   0  0  0  0  0  0  0  0  0  0  0  0
    1.2724   -4.1096   -1.3664 C   0  0  0  0  0  0  0  0  0  0  0  0
    1.7185   -2.8917   -1.8879 C   0  0  0  0  0  0  0  0  0  0  0  0
    2.8184   -0.1216   -2.6711 C   0  0  0  0  0  0  0  0  0  0  0  0
    2.0980    0.9727   -2.2030 C   0  0  0  0  0  0  0  0  0  0  0  0
    1.1912    1.4786   -3.1494 C   0  0  0  0  0  0  0  0  0  0  0  0
    0.2094    2.4614   -2.9075 C   0  0  0  0  0  0  0  0  0  0  0  0
    0.1316    3.1789   -1.6180 C   0  0  0  0  0  0  0  0  0  0  0  0
   -1.1677    3.1081   -0.5464 S   0  0  0  0  0  0  0  0  0  0  0  0
   -0.5077    4.1356    0.6104 C   0  0  0  0  0  0  0  0  0  0  0  0
   -1.1594    4.4758    1.9149 C   0  0  0  0  0  0  0  0  0  0  0  0
   -0.7344    3.4951    3.0019 C   0  0  0  0  0  0  0  0  0  0  0  0
    0.7576    4.5326    0.1826 C   0  0  0  0  0  0  0  0  0  0  0  0
    1.8134    5.5823    1.1197 Cl  0  0  0  0  0  0  0  0  0  0  0  0
    1.1145    4.0011   -1.0689 C   0  0  0  0  0  0  0  0  0  0  0  0
    2.6331    4.3688   -1.8745 Cl  0  0  0  0  0  0  0  0  0  0  0  0
   -0.7787    2.6196   -3.8942 C   0  0  0  0  0  0  0  0  0  0  0  0
   -0.7957    1.8748   -5.0774 C   0  0  0  0  0  0  0  0  0  0  0  0
    0.2476    0.9720   -5.3669 C   0  0  0  0  0  0  0  0  0  0  0  0
    0.2879    0.2108   -6.6330 C   0  0  0  0  0  0  0  0  0  0  0  0
    0.3241   -1.4681   -6.7616 S   0  0  0  0  0  0  0  0  0  0  0  0
    0.4467   -1.5235   -8.4384 C   0  0  0  0  0  0  0  0  0  0  0  0
    0.6275   -2.7835   -9.2303 C   0  0  0  0  0  0  0  0  0  0  0  0
    2.1036   -3.1528   -9.3338 C   0  0  0  0  0  0  0  0  0  0  0  0
    0.4837   -0.2175   -8.9238 C   0  0  0  0  0  0  0  0  0  0  0  0
    0.3815    0.7543   -7.9139 C   0  0  0  0  0  0  0  0  0  0  0  0
    0.4541    2.4824   -8.2340 Cl  0  0  0  0  0  0  0  0  0  0  0  0
    0.6811    0.1770  -10.6269 Cl  0  0  0  0  0  0  0  0  0  0  0  0
    1.2108    0.7757   -4.3605 C   0  0  0  0  0  0  0  0  0  0  0  0
    2.3649   -0.4445   -4.2621 S   0  0  0  0  0  0  0  0  0  0  0  0
   -2.0031    1.9973   -5.7898 C   0  0  0  0  0  0  0  0  0  0  0  0
   -2.9213    2.8607   -5.1807 C   0  0  0  0  0  0  0  0  0  0  0  0
   -2.2162    3.4696   -3.7744 S   0  0  0  0  0  0  0  0  0  0  0  0
   -4.3847    2.8396   -5.3765 C   0  0  0  0  0  0  0  0  0  0  0  0
   -5.4438    2.9410   -4.0836 S   0  0  0  0  0  0  0  0  0  0  0  0
   -6.8504    2.4498   -4.8601 C   0  0  0  0  0  0  0  0  0  0  0  0
   -6.5048    2.1963   -6.2004 C   0  0  0  0  0  0  0  0  0  0  0  0
   -5.1339    2.4256   -6.4856 C   0  0  0  0  0  0  0  0  0  0  0  0
   -4.6396    2.2426   -7.7829 C   0  0  0  0  0  0  0  0  0  0  0  0
   -5.4895    1.7702   -8.7933 C   0  0  0  0  0  0  0  0  0  0  0  0
   -4.9531    1.5844  -10.0774 O   0  0  0  0  0  0  0  0  0  0  0  0
   -5.6841    1.0721  -11.1874 C   0  0  0  0  0  0  0  0  0  0  0  0
   -6.8426    1.5006   -8.4964 C   0  0  0  0  0  0  0  0  0  0  0  0
   -7.3518    1.7179   -7.2102 C   0  0  0  0  0  0  0  0  0  0  0  0
   -8.1174    2.2164   -4.1211 C   0  0  0  0  0  0  0  0  0  0  0  0
   -8.2084    2.2324   -2.7269 C   0  0  0  0  0  0  0  0  0  0  0  0
   -9.4866    1.9203   -2.2439 C   0  0  0  0  0  0  0  0  0  0  0  0
   -9.8596    1.8169   -0.8893 C   0  0  0  0  0  0  0  0  0  0  0  0
   -8.8929    2.0386    0.1998 C   0  0  0  0  0  0  0  0  0  0  0  0
   -7.5655    1.0588    0.5172 S   0  0  0  0  0  0  0  0  0  0  0  0
   -6.9505    1.9884    1.7755 C   0  0  0  0  0  0  0  0  0  0  0  0
   -5.6551    1.7133    2.4780 C   0  0  0  0  0  0  0  0  0  0  0  0
   -4.4935    2.3799    1.7498 C   0  0  0  0  0  0  0  0  0  0  0  0
   -7.7717    3.1018    1.9475 C   0  0  0  0  0  0  0  0  0  0  0  0
   -7.4573    4.3631    3.1324 Cl  0  0  0  0  0  0  0  0  0  0  0  0
   -8.8673    3.1245    1.0701 C   0  0  0  0  0  0  0  0  0  0  0  0
  -10.0574    4.4193    1.0409 Cl  0  0  0  0  0  0  0  0  0  0  0  0
  -11.1933    1.4674   -0.6226 C   0  0  0  0  0  0  0  0  0  0  0  0
  -12.1257    1.2287   -1.6363 C   0  0  0  0  0  0  0  0  0  0  0  0
  -11.7534    1.3435   -2.9930 C   0  0  0  0  0  0  0  0  0  0  0  0
  -12.7029    1.0712   -4.0818 C   0  0  0  0  0  0  0  0  0  0  0  0
  -13.3839   -0.4324   -4.4019 S   0  0  0  0  0  0  0  0  0  0  0  0
  -14.2947    0.0624   -5.7255 C   0  0  0  0  0  0  0  0  0  0  0  0
  -15.1338   -0.8552   -6.5644 C   0  0  0  0  0  0  0  0  0  0  0  0
  -14.3464   -1.3636   -7.7669 C   0  0  0  0  0  0  0  0  0  0  0  0
  -14.0594    1.4184   -5.9495 C   0  0  0  0  0  0  0  0  0  0  0  0
  -13.1698    1.9858   -5.0236 C   0  0  0  0  0  0  0  0  0  0  0  0
  -12.7122    3.6844   -5.0397 Cl  0  0  0  0  0  0  0  0  0  0  0  0
  -14.8010    2.3304   -7.2590 Cl  0  0  0  0  0  0  0  0  0  0  0  0
  -10.4172    1.6890   -3.2592 C   0  0  0  0  0  0  0  0  0  0  0  0
   -9.6446    1.8397   -4.7453 S   0  0  0  0  0  0  0  0  0  0  0  0
  -13.3957    0.8852   -1.1427 C   0  0  0  0  0  0  0  0  0  0  0  0
  -13.4497    0.8427    0.2476 C   0  0  0  0  0  0  0  0  0  0  0  0
  -11.9328    1.2365    0.8682 S   0  0  0  0  0  0  0  0  0  0  0  0
   12.5504   -3.1978   10.8271 H   0  0  0  0  0  0  0  0  0  0  0  0
   11.3212   -1.5088   12.5210 H   0  0  0  0  0  0  0  0  0  0  0  0
    8.3275    1.8673   12.7231 H   0  0  0  0  0  0  0  0  0  0  0  0
    7.3925    0.5844   13.6159 H   0  0  0  0  0  0  0  0  0  0  0  0
    8.6303    1.5760   14.4768 H   0  0  0  0  0  0  0  0  0  0  0  0
    7.4918    0.0338   11.2320 H   0  0  0  0  0  0  0  0  0  0  0  0
    7.6074   -1.3154    9.1969 H   0  0  0  0  0  0  0  0  0  0  0  0
   10.4539   -2.6155    5.8534 H   0  0  0  0  0  0  0  0  0  0  0  0
   13.9645   -0.8905    1.6099 H   0  0  0  0  0  0  0  0  0  0  0  0
   12.7469    0.4161    1.4355 H   0  0  0  0  0  0  0  0  0  0  0  0
   13.5899   -0.3135   -0.7837 H   0  0  0  0  0  0  0  0  0  0  0  0
   11.8321   -0.6820   -0.6198 H   0  0  0  0  0  0  0  0  0  0  0  0
   13.0597   -2.0052   -0.4566 H   0  0  0  0  0  0  0  0  0  0  0  0
    1.1388   -6.1294    5.1109 H   0  0  0  0  0  0  0  0  0  0  0  0
    0.3894   -5.0232    6.3079 H   0  0  0  0  0  0  0  0  0  0  0  0
    0.6995   -7.3618    7.1955 H   0  0  0  0  0  0  0  0  0  0  0  0
    1.6104   -6.1400    8.1639 H   0  0  0  0  0  0  0  0  0  0  0  0
    2.4854   -7.1972    6.9841 H   0  0  0  0  0  0  0  0  0  0  0  0
    4.0578   -3.0016    2.7556 H   0  0  0  0  0  0  0  0  0  0  0  0
    3.7110   -4.6593    0.9655 H   0  0  0  0  0  0  0  0  0  0  0  0
    1.4081   -7.6061    1.4174 H   0  0  0  0  0  0  0  0  0  0  0  0
    2.0446   -6.0901    2.1516 H   0  0  0  0  0  0  0  0  0  0  0  0
    3.0581   -7.0295    0.9657 H   0  0  0  0  0  0  0  0  0  0  0  0
    0.3686   -4.5545   -1.7598 H   0  0  0  0  0  0  0  0  0  0  0  0
    1.1444   -2.4075   -2.6634 H   0  0  0  0  0  0  0  0  0  0  0  0
    2.1385    1.3019   -1.1719 H   0  0  0  0  0  0  0  0  0  0  0  0
   -0.8860    5.5098    2.2180 H   0  0  0  0  0  0  0  0  0  0  0  0
   -2.2623    4.4398    1.7957 H   0  0  0  0  0  0  0  0  0  0  0  0
    0.3628    3.5544    3.1703 H   0  0  0  0  0  0  0  0  0  0  0  0
   -1.2540    3.7455    3.9504 H   0  0  0  0  0  0  0  0  0  0  0  0
   -1.0051    2.4561    2.7130 H   0  0  0  0  0  0  0  0  0  0  0  0
    0.0795   -3.6083   -8.7270 H   0  0  0  0  0  0  0  0  0  0  0  0
    0.1996   -2.6658  -10.2492 H   0  0  0  0  0  0  0  0  0  0  0  0
    2.5719   -3.1674   -8.3265 H   0  0  0  0  0  0  0  0  0  0  0  0
    2.2009   -4.1633   -9.7820 H   0  0  0  0  0  0  0  0  0  0  0  0
    2.6380   -2.4264   -9.9809 H   0  0  0  0  0  0  0  0  0  0  0  0
   -2.2471    1.3590   -6.6269 H   0  0  0  0  0  0  0  0  0  0  0  0
   -3.6128    2.4823   -8.0278 H   0  0  0  0  0  0  0  0  0  0  0  0
   -6.5557    1.7276  -11.4124 H   0  0  0  0  0  0  0  0  0  0  0  0
   -5.0222    1.0379  -12.0769 H   0  0  0  0  0  0  0  0  0  0  0  0
   -6.0349    0.0405  -10.9680 H   0  0  0  0  0  0  0  0  0  0  0  0
   -7.5121    1.1293   -9.2584 H   0  0  0  0  0  0  0  0  0  0  0  0
   -8.3883    1.5030   -7.0330 H   0  0  0  0  0  0  0  0  0  0  0  0
   -7.3676    2.4454   -2.0817 H   0  0  0  0  0  0  0  0  0  0  0  0
   -5.4821    0.6143    2.5148 H   0  0  0  0  0  0  0  0  0  0  0  0
   -5.7029    2.0857    3.5225 H   0  0  0  0  0  0  0  0  0  0  0  0
   -4.6619    3.4733    1.6564 H   0  0  0  0  0  0  0  0  0  0  0  0
   -4.3690    1.9395    0.7392 H   0  0  0  0  0  0  0  0  0  0  0  0
   -3.5571    2.2124    2.3196 H   0  0  0  0  0  0  0  0  0  0  0  0
  -15.4621   -1.7205   -5.9489 H   0  0  0  0  0  0  0  0  0  0  0  0
  -16.0450   -0.3227   -6.9105 H   0  0  0  0  0  0  0  0  0  0  0  0
  -13.3972   -1.8350   -7.4375 H   0  0  0  0  0  0  0  0  0  0  0  0
  -14.9491   -2.1178   -8.3134 H   0  0  0  0  0  0  0  0  0  0  0  0
  -14.1201   -0.5262   -8.4576 H   0  0  0  0  0  0  0  0  0  0  0  0
  -14.2535    0.6771   -1.7662 H   0  0  0  0  0  0  0  0  0  0  0  0
  -14.3290    0.6002    0.8324 H   0  0  0  0  0  0  0  0  0  0  0  0
  1  2  1  0
  2  3  1  0
  3  4  2  0
  4  5  1  0
  5  6  1  0
  6  7  2  0
  7  8  1  0
  8  9  1  0
  7 10  1  0
 10 11  2  0
  3 12  1  0
 12 13  2  0
 13 14  1  0
 14 15  2  0
 15 16  1  0
 16 17  1  0
 17 18  1  0
 18 19  1  0
 19 20  1  0
 18 21  2  0
 21 22  1  0
 21 23  1  0
 23 24  1  0
 15 25  1  0
 25 26  2  0
 26 27  1  0
 27 28  1  0
 28 29  1  0
 29 30  1  0
 30 31  1  0
 31 32  1  0
 30 33  2  0
 33 34  1  0
 34 35  1  0
 33 36  1  0
 27 37  2  0
 37 38  1  0
 26 39  1  0
 39 40  2  0
 40 41  1  0
 40 42  1  0
 42 43  1  0
 43 44  1  0
 44 45  2  0
 45 46  1  0
 46 47  1  0
 47 48  2  0
 48 49  1  0
 49 50  1  0
 48 51  1  0
 51 52  2  0
 44 53  1  0
 53 54  2  0
 54 55  1  0
 55 56  2  0
 56 57  1  0
 57 58  1  0
 58 59  1  0
 59 60  1  0
 60 61  1  0
 59 62  2  0
 62 63  1  0
 62 64  1  0
 64 65  1  0
 56 66  1  0
 66 67  2  0
 67 68  1  0
 68 69  1  0
 69 70  1  0
 70 71  1  0
 71 72  1  0
 72 73  1  0
 71 74  2  0
 74 75  1  0
 75 76  1  0
 74 77  1  0
 68 78  2  0
 78 79  1  0
 67 80  1  0
 80 81  2  0
 81 82  1  0
 81 83  1  0
 83 84  1  0
 84 85  1  0
 85 86  2  0
 86 87  1  0
 87 88  1  0
 88 89  2  0
 89 90  1  0
 90 91  1  0
 89 92  1  0
 92 93  2  0
 85 94  1  0
 94 95  2  0
 95 96  1  0
 96 97  2  0
 97 98  1  0
 98 99  1  0
 99100  1  0
100101  1  0
101102  1  0
100103  2  0
103104  1  0
103105  1  0
105106  1  0
 97107  1  0
107108  2  0
108109  1  0
109110  1  0
110111  1  0
111112  1  0
112113  1  0
113114  1  0
112115  2  0
115116  1  0
116117  1  0
115118  1  0
109119  2  0
119120  1  0
108121  1  0
121122  2  0
122123  1  0
  5  1  2  0
 38 12  1  0
 46 42  2  0
 79 53  1  0
 87 83  2  0
120 94  1  0
 11  4  1  0
 37 14  1  0
 52 45  1  0
 78 55  1  0
 93 86  1  0
119 96  1  0
 23 16  2  0
 41 25  1  0
 64 57  2  0
 82 66  1  0
105 98  2  0
123107  1  0
 34 28  2  0
 75 69  2  0
116110  2  0
  1124  1  0
  6125  1  0
  9126  1  0
  9127  1  0
  9128  1  0
 10129  1  0
 11130  1  0
 13131  1  0
 19132  1  0
 19133  1  0
 20134  1  0
 20135  1  0
 20136  1  0
 31137  1  0
 31138  1  0
 32139  1  0
 32140  1  0
 32141  1  0
 39142  1  0
 47143  1  0
 50144  1  0
 50145  1  0
 50146  1  0
 51147  1  0
 52148  1  0
 54149  1  0
 60150  1  0
 60151  1  0
 61152  1  0
 61153  1  0
 61154  1  0
 72155  1  0
 72156  1  0
 73157  1  0
 73158  1  0
 73159  1  0
 80160  1  0
 88161  1  0
 91162  1  0
 91163  1  0
 91164  1  0
 92165  1  0
 93166  1  0
 95167  1  0
101168  1  0
101169  1  0
102170  1  0
102171  1  0
102172  1  0
113173  1  0
113174  1  0
114175  1  0
114176  1  0
114177  1  0
121178  1  0
122179  1  0
M  END

