
     RDKit          3D

124135  0  0  0  0  0  0  0  0999 V2000
    9.4491    0.3013    0.4352 C   0  0  0  0  0  0  0  0  0  0  0  0
   11.0310   -0.2711    0.4272 S   0  0  0  0  0  0  0  0  0  0  0  0
   11.0274   -0.8693   -1.1448 C   0  0  0  0  0  0  0  0  0  0  0  0
    9.7695   -0.6369   -1.6829 C   0  0  0  0  0  0  0  0  0  0  0  0
    8.8982    0.0414   -0.8118 C   0  0  0  0  0  0  0  0  0  0  0  0
    7.4728    0.3601   -1.1707 C   0  0  0  0  0  0  0  0  0  0  0  0
    7.2584    0.3283   -2.6984 C   0  0  1  0  0  0  0  0  0  0  0  0
    7.8819   -0.9538   -3.3062 C   0  0  0  0  0  0  0  0  0  0  0  0
    9.4051   -0.9700   -3.1042 C   0  0  0  0  0  0  0  0  0  0  0  0
    5.7828    0.5264   -3.0227 C   0  0  0  0  0  0  0  0  0  0  0  0
    4.9640   -0.4914   -3.3234 C   0  0  0  0  0  0  0  0  0  0  0  0
    5.2305    1.8982   -2.9621 C   0  0  0  0  0  0  0  0  0  0  0  0
    5.9200    3.2366   -3.7203 S   0  0  0  0  0  0  0  0  0  0  0  0
    4.8166    4.3793   -3.1736 C   0  0  0  0  0  0  0  0  0  0  0  0
    3.8946    3.7167   -2.3741 C   0  0  0  0  0  0  0  0  0  0  0  0
    4.1086    2.3423   -2.2510 C   0  0  0  0  0  0  0  0  0  0  0  0
    3.2994    1.5575   -1.2490 C   0  0  0  0  0  0  0  0  0  0  0  0
    1.7877    1.9931   -1.1908 C   0  0  1  0  0  0  0  0  0  0  0  0
    1.5393    3.4403   -1.7473 C   0  0  0  0  0  0  0  0  0  0  0  0
    2.7580    4.3663   -1.6555 C   0  0  0  0  0  0  0  0  0  0  0  0
    0.8347    0.9666   -1.8257 C   0  0  0  0  0  0  0  0  0  0  0  0
   -0.4124    1.2989   -2.1978 C   0  0  0  0  0  0  0  0  0  0  0  0
    1.1701   -0.4696   -1.8667 C   0  0  0  0  0  0  0  0  0  0  0  0
    1.3235   -1.3785   -3.2726 S   0  0  0  0  0  0  0  0  0  0  0  0
    1.6439   -2.8483   -2.5260 C   0  0  0  0  0  0  0  0  0  0  0  0
    1.6083   -2.6526   -1.1510 C   0  0  0  0  0  0  0  0  0  0  0  0
    1.3173   -1.3268   -0.7741 C   0  0  0  0  0  0  0  0  0  0  0  0
    1.1693   -0.9157    0.6678 C   0  0  0  0  0  0  0  0  0  0  0  0
    0.7585   -2.1301    1.5238 C   0  0  1  0  0  0  0  0  0  0  0  0
    1.7301   -3.3056    1.2924 C   0  0  0  0  0  0  0  0  0  0  0  0
    1.6633   -3.7934   -0.1679 C   0  0  0  0  0  0  0  0  0  0  0  0
    0.6274   -1.7783    2.9940 C   0  0  0  0  0  0  0  0  0  0  0  0
    1.6815   -1.3983    3.7235 C   0  0  0  0  0  0  0  0  0  0  0  0
   -0.7124   -1.8442    3.6130 C   0  0  0  0  0  0  0  0  0  0  0  0
   -2.0854   -1.1358    2.9546 S   0  0  0  0  0  0  0  0  0  0  0  0
   -3.2188   -1.8059    4.0037 C   0  0  0  0  0  0  0  0  0  0  0  0
   -2.5169   -2.6215    4.9024 C   0  0  0  0  0  0  0  0  0  0  0  0
   -1.1216   -2.6432    4.6827 C   0  0  0  0  0  0  0  0  0  0  0  0
   -0.2920   -3.4714    5.4509 C   0  0  0  0  0  0  0  0  0  0  0  0
   -0.8568   -4.2664    6.4695 C   0  0  0  0  0  0  0  0  0  0  0  0
   -0.0786   -5.1053    7.2822 O   0  0  0  0  0  0  0  0  0  0  0  0
    1.3305   -5.2582    7.1687 C   0  0  0  0  0  0  0  0  0  0  0  0
   -2.2450   -4.2389    6.6825 C   0  0  0  0  0  0  0  0  0  0  0  0
   -3.0795   -3.4337    5.8956 C   0  0  0  0  0  0  0  0  0  0  0  0
   -4.6800   -1.5895    3.9138 C   0  0  0  0  0  0  0  0  0  0  0  0
   -5.7200   -1.4227    5.2280 S   0  0  0  0  0  0  0  0  0  0  0  0
   -7.1275   -1.1596    4.3528 C   0  0  0  0  0  0  0  0  0  0  0  0
   -6.7979   -1.1773    3.0024 C   0  0  0  0  0  0  0  0  0  0  0  0
   -5.4375   -1.4248    2.7473 C   0  0  0  0  0  0  0  0  0  0  0  0
   -4.8663   -1.3963    1.3493 C   0  0  0  0  0  0  0  0  0  0  0  0
   -5.9418   -1.5141    0.2390 C   0  0  1  0  0  0  0  0  0  0  0  0
   -7.1564   -0.6127    0.5918 C   0  0  0  0  0  0  0  0  0  0  0  0
   -7.8135   -1.0379    1.9090 C   0  0  0  0  0  0  0  0  0  0  0  0
   -5.4027   -1.1841   -1.1582 C   0  0  0  0  0  0  0  0  0  0  0  0
   -4.0978   -1.1869   -1.4685 C   0  0  0  0  0  0  0  0  0  0  0  0
   -6.3575   -0.9885   -2.2624 C   0  0  0  0  0  0  0  0  0  0  0  0
   -7.3139   -2.2017   -2.9282 S   0  0  0  0  0  0  0  0  0  0  0  0
   -8.2322   -1.1981   -3.9174 C   0  0  0  0  0  0  0  0  0  0  0  0
   -7.8200    0.1122   -3.7046 C   0  0  0  0  0  0  0  0  0  0  0  0
   -6.7482    0.2334   -2.8031 C   0  0  0  0  0  0  0  0  0  0  0  0
   -6.2165    1.5663   -2.3424 C   0  0  0  0  0  0  0  0  0  0  0  0
   -6.6923    2.7303   -3.2419 C   0  0  1  0  0  0  0  0  0  0  0  0
   -8.1857    2.5839   -3.5892 C   0  0  0  0  0  0  0  0  0  0  0  0
   -8.4338    1.2974   -4.3927 C   0  0  0  0  0  0  0  0  0  0  0  0
   -6.4586    4.0448   -2.5355 C   0  0  0  0  0  0  0  0  0  0  0  0
   -5.5754    4.9458   -2.9781 C   0  0  0  0  0  0  0  0  0  0  0  0
    8.9511    0.7855    1.2638 H   0  0  0  0  0  0  0  0  0  0  0  0
   11.8593   -1.3450   -1.6498 H   0  0  0  0  0  0  0  0  0  0  0  0
    7.2184    1.3700   -0.7832 H   0  0  0  0  0  0  0  0  0  0  0  0
    6.8081   -0.3835   -0.6798 H   0  0  0  0  0  0  0  0  0  0  0  0
    7.8169    1.1896   -3.1345 H   0  0  0  0  0  0  0  0  0  0  0  0
    7.4579   -1.8571   -2.8155 H   0  0  0  0  0  0  0  0  0  0  0  0
    7.6631   -1.0064   -4.3949 H   0  0  0  0  0  0  0  0  0  0  0  0
    9.8770   -0.2241   -3.7812 H   0  0  0  0  0  0  0  0  0  0  0  0
    9.7983   -1.9781   -3.3667 H   0  0  0  0  0  0  0  0  0  0  0  0
    5.2935   -1.5185   -3.3388 H   0  0  0  0  0  0  0  0  0  0  0  0
    3.9326   -0.3025   -3.5860 H   0  0  0  0  0  0  0  0  0  0  0  0
    4.8329    5.4376   -3.3905 H   0  0  0  0  0  0  0  0  0  0  0  0
    3.7547    1.7661   -0.2545 H   0  0  0  0  0  0  0  0  0  0  0  0
    3.4368    0.4725   -1.3927 H   0  0  0  0  0  0  0  0  0  0  0  0
    1.5190    2.0222   -0.1107 H   0  0  0  0  0  0  0  0  0  0  0  0
    0.6970    3.9131   -1.1947 H   0  0  0  0  0  0  0  0  0  0  0  0
    1.2468    3.3855   -2.8208 H   0  0  0  0  0  0  0  0  0  0  0  0
    3.0374    4.5249   -0.5907 H   0  0  0  0  0  0  0  0  0  0  0  0
    2.5176    5.3500   -2.1166 H   0  0  0  0  0  0  0  0  0  0  0  0
   -0.7909    2.3058   -2.1026 H   0  0  0  0  0  0  0  0  0  0  0  0
   -1.0942    0.5516   -2.5844 H   0  0  0  0  0  0  0  0  0  0  0  0
    1.7989   -3.7931   -3.0292 H   0  0  0  0  0  0  0  0  0  0  0  0
    0.3951   -0.1224    0.7613 H   0  0  0  0  0  0  0  0  0  0  0  0
    2.1410   -0.5023    1.0206 H   0  0  0  0  0  0  0  0  0  0  0  0
   -0.2420   -2.4623    1.1600 H   0  0  0  0  0  0  0  0  0  0  0  0
    2.7721   -2.9996    1.5308 H   0  0  0  0  0  0  0  0  0  0  0  0
    1.4631   -4.1530    1.9617 H   0  0  0  0  0  0  0  0  0  0  0  0
    0.7457   -4.4057   -0.2979 H   0  0  0  0  0  0  0  0  0  0  0  0
    2.5390   -4.4378   -0.3877 H   0  0  0  0  0  0  0  0  0  0  0  0
    1.5660   -1.1327    4.7666 H   0  0  0  0  0  0  0  0  0  0  0  0
    2.6708   -1.3323    3.2907 H   0  0  0  0  0  0  0  0  0  0  0  0
    0.7696   -3.5023    5.2551 H   0  0  0  0  0  0  0  0  0  0  0  0
    1.6781   -5.9847    7.9317 H   0  0  0  0  0  0  0  0  0  0  0  0
    1.5895   -5.6477    6.1631 H   0  0  0  0  0  0  0  0  0  0  0  0
    1.8349   -4.2873    7.3479 H   0  0  0  0  0  0  0  0  0  0  0  0
   -2.6825   -4.8600    7.4549 H   0  0  0  0  0  0  0  0  0  0  0  0
   -4.1450   -3.4759    6.0639 H   0  0  0  0  0  0  0  0  0  0  0  0
   -8.1146   -1.0013    4.7643 H   0  0  0  0  0  0  0  0  0  0  0  0
   -4.1491   -2.2401    1.2423 H   0  0  0  0  0  0  0  0  0  0  0  0
   -4.3252   -0.4320    1.2353 H   0  0  0  0  0  0  0  0  0  0  0  0
   -6.2936   -2.5708    0.2124 H   0  0  0  0  0  0  0  0  0  0  0  0
   -7.9343   -0.6655   -0.2000 H   0  0  0  0  0  0  0  0  0  0  0  0
   -6.8250    0.4454    0.6764 H   0  0  0  0  0  0  0  0  0  0  0  0
   -8.3240   -2.0149    1.7714 H   0  0  0  0  0  0  0  0  0  0  0  0
   -8.5752   -0.2828    2.1969 H   0  0  0  0  0  0  0  0  0  0  0  0
   -3.3238   -1.3853   -0.7429 H   0  0  0  0  0  0  0  0  0  0  0  0
   -3.7723   -0.9925   -2.4834 H   0  0  0  0  0  0  0  0  0  0  0  0
   -9.0296   -1.5165   -4.5755 H   0  0  0  0  0  0  0  0  0  0  0  0
   -5.1043    1.5405   -2.3402 H   0  0  0  0  0  0  0  0  0  0  0  0
   -6.5608    1.7346   -1.2990 H   0  0  0  0  0  0  0  0  0  0  0  0
   -6.1098    2.7002   -4.1927 H   0  0  0  0  0  0  0  0  0  0  0  0
   -8.5248    3.4526   -4.1925 H   0  0  0  0  0  0  0  0  0  0  0  0
   -8.7898    2.5538   -2.6559 H   0  0  0  0  0  0  0  0  0  0  0  0
   -9.5296    1.1423   -4.5123 H   0  0  0  0  0  0  0  0  0  0  0  0
   -7.9813    1.3960   -5.4041 H   0  0  0  0  0  0  0  0  0  0  0  0
   -7.0091    4.2555   -1.6223 H   0  0  0  0  0  0  0  0  0  0  0  0
   -4.9944    4.7727   -3.8795 H   0  0  0  0  0  0  0  0  0  0  0  0
   -5.4277    5.8681   -2.4258 H   0  0  0  0  0  0  0  0  0  0  0  0
  1  2  1  0
  2  3  1  0
  3  4  2  0
  4  5  1  0
  5  6  1  0
  6  7  1  0
  7  8  1  0
  8  9  1  0
  7 10  1  0
 10 11  2  3
 10 12  1  0
 12 13  1  0
 13 14  1  0
 14 15  2  0
 15 16  1  0
 16 17  1  0
 17 18  1  0
 18 19  1  0
 19 20  1  0
 18 21  1  0
 21 22  2  3
 21 23  1  0
 23 24  1  0
 24 25  1  0
 25 26  2  0
 26 27  1  0
 27 28  1  0
 28 29  1  0
 29 30  1  0
 30 31  1  0
 29 32  1  0
 32 33  2  3
 32 34  1  0
 34 35  1  0
 35 36  1  0
 36 37  2  0
 37 38  1  0
 38 39  1  0
 39 40  2  0
 40 41  1  0
 41 42  1  0
 40 43  1  0
 43 44  2  0
 36 45  1  0
 45 46  1  0
 46 47  1  0
 47 48  2  0
 48 49  1  0
 49 50  1  0
 50 51  1  0
 51 52  1  0
 52 53  1  0
 51 54  1  0
 54 55  2  3
 54 56  1  0
 56 57  1  0
 57 58  1  0
 58 59  2  0
 59 60  1  0
 60 61  1  0
 61 62  1  0
 62 63  1  0
 63 64  1  0
 62 65  1  0
 65 66  2  3
  5  1  2  0
 16 12  2  0
 27 23  2  0
 38 34  2  0
 49 45  2  0
 60 56  2  0
  9  4  1  0
 20 15  1  0
 31 26  1  0
 44 37  1  0
 53 48  1  0
 64 59  1  0
  1 67  1  0
  3 68  1  0
  6 69  1  0
  6 70  1  0
  7 71  1  6
  8 72  1  0
  8 73  1  0
  9 74  1  0
  9 75  1  0
 11 76  1  0
 11 77  1  0
 14 78  1  0
 17 79  1  0
 17 80  1  0
 18 81  1  1
 19 82  1  0
 19 83  1  0
 20 84  1  0
 20 85  1  0
 22 86  1  0
 22 87  1  0
 25 88  1  0
 28 89  1  0
 28 90  1  0
 29 91  1  6
 30 92  1  0
 30 93  1  0
 31 94  1  0
 31 95  1  0
 33 96  1  0
 33 97  1  0
 39 98  1  0
 42 99  1  0
 42100  1  0
 42101  1  0
 43102  1  0
 44103  1  0
 47104  1  0
 50105  1  0
 50106  1  0
 51107  1  6
 52108  1  0
 52109  1  0
 53110  1  0
 53111  1  0
 55112  1  0
 55113  1  0
 58114  1  0
 61115  1  0
 61116  1  0
 62117  1  6
 63118  1  0
 63119  1  0
 64120  1  0
 64121  1  0
 65122  1  0
 66123  1  0
 66124  1  0
M  END

