
     RDKit          3D

129135  0  0  0  0  0  0  0  0999 V2000
    6.2374    9.2610    1.6937 C   0  0  0  0  0  0  0  0  0  0  0  0
    5.6433    8.7637    2.8558 C   0  0  0  0  0  0  0  0  0  0  0  0
    4.7932    7.6465    2.8066 C   0  0  0  0  0  0  0  0  0  0  0  0
    4.1875    7.1342    4.0931 C   0  0  0  0  0  0  0  0  0  0  0  0
    5.1418    6.1786    4.8033 C   0  0  0  0  0  0  0  0  0  0  0  0
    4.5683    7.0089    1.5628 C   0  0  0  0  0  0  0  0  0  0  0  0
    5.1789    7.5093    0.4033 C   0  0  0  0  0  0  0  0  0  0  0  0
    5.9962    8.6462    0.4579 C   0  0  0  0  0  0  0  0  0  0  0  0
    6.6519    9.1640   -0.7937 C   0  0  0  0  0  0  0  0  0  0  0  0
    7.9706    8.4434   -1.0501 C   0  0  0  0  0  0  0  0  0  0  0  0
    3.7081    5.8145    1.4403 C   0  0  0  0  0  0  0  0  0  0  0  0
    4.2988    4.5509    1.5687 C   0  0  0  0  0  0  0  0  0  0  0  0
    3.5469    3.3791    1.4005 C   0  0  0  0  0  0  0  0  0  0  0  0
    4.2416    2.0436    1.5609 C   0  0  0  0  0  0  0  0  0  0  0  0
    5.1000    1.7143    0.3440 C   0  0  0  0  0  0  0  0  0  0  0  0
    2.1760    3.4837    1.0714 C   0  0  0  0  0  0  0  0  0  0  0  0
    1.5833    4.7482    0.9529 C   0  0  0  0  0  0  0  0  0  0  0  0
    2.3284    5.9194    1.1524 C   0  0  0  0  0  0  0  0  0  0  0  0
    1.6363    7.2555    0.9983 C   0  0  0  0  0  0  0  0  0  0  0  0
    1.6054    7.6915   -0.4633 C   0  0  0  0  0  0  0  0  0  0  0  0
    1.3556    2.2925    0.7667 C   0  0  0  0  0  0  0  0  0  0  0  0
    1.5084    1.6913   -0.4889 C   0  0  0  0  0  0  0  0  0  0  0  0
    0.7749    0.5510   -0.8421 C   0  0  0  0  0  0  0  0  0  0  0  0
    1.0351   -0.0853   -2.1900 C   0  0  0  0  0  0  0  0  0  0  0  0
    2.1670   -1.1044   -2.1006 C   0  0  0  0  0  0  0  0  0  0  0  0
   -0.1279   -0.0030    0.0938 C   0  0  0  0  0  0  0  0  0  0  0  0
   -0.2974    0.6097    1.3429 C   0  0  0  0  0  0  0  0  0  0  0  0
    0.4300    1.7586    1.6919 C   0  0  0  0  0  0  0  0  0  0  0  0
    0.2461    2.3431    3.0743 C   0  0  0  0  0  0  0  0  0  0  0  0
    1.2290    1.7243    4.0628 C   0  0  0  0  0  0  0  0  0  0  0  0
   -0.9234   -1.2069   -0.2223 C   0  0  0  0  0  0  0  0  0  0  0  0
   -2.0698   -1.0528   -1.0127 C   0  0  0  0  0  0  0  0  0  0  0  0
   -2.8331   -2.1608   -1.4060 C   0  0  0  0  0  0  0  0  0  0  0  0
   -4.0849   -1.9274   -2.2232 C   0  0  0  0  0  0  0  0  0  0  0  0
   -5.3088   -1.8069   -1.3201 C   0  0  0  0  0  0  0  0  0  0  0  0
   -2.4526   -3.4472   -0.9647 C   0  0  0  0  0  0  0  0  0  0  0  0
   -1.3275   -3.5987   -0.1439 C   0  0  0  0  0  0  0  0  0  0  0  0
   -0.5481   -2.4929    0.2291 C   0  0  0  0  0  0  0  0  0  0  0  0
    0.6587   -2.7200    1.1137 C   0  0  0  0  0  0  0  0  0  0  0  0
    0.2454   -2.8810    2.5730 C   0  0  0  0  0  0  0  0  0  0  0  0
   -3.2070   -4.6502   -1.3498 C   0  0  0  0  0  0  0  0  0  0  0  0
   -3.1616   -5.3682   -2.8737 S   0  0  0  0  0  0  0  0  0  0  0  0
   -4.2474   -6.6086   -2.5321 C   0  0  0  0  0  0  0  0  0  0  0  0
   -4.6767   -6.4632   -1.2143 C   0  0  0  0  0  0  0  0  0  0  0  0
   -4.0855   -5.3770   -0.5494 C   0  0  0  0  0  0  0  0  0  0  0  0
   -4.4268   -5.0824    0.7746 C   0  0  0  0  0  0  0  0  0  0  0  0
   -5.3835   -5.8696    1.4338 C   0  0  0  0  0  0  0  0  0  0  0  0
   -5.7223   -5.5326    2.7524 O   0  0  0  0  0  0  0  0  0  0  0  0
   -6.7282   -6.1885    3.5160 C   0  0  0  0  0  0  0  0  0  0  0  0
   -5.9767   -6.9621    0.7564 C   0  0  0  0  0  0  0  0  0  0  0  0
   -5.6238   -7.2609   -0.5666 C   0  0  0  0  0  0  0  0  0  0  0  0
   -4.7270   -7.5961   -3.5116 C   0  0  0  0  0  0  0  0  0  0  0  0
   -5.6558   -7.1785   -4.4755 C   0  0  0  0  0  0  0  0  0  0  0  0
   -6.1492   -8.0783   -5.4308 C   0  0  0  0  0  0  0  0  0  0  0  0
   -7.1857   -7.6309   -6.4259 C   0  0  0  0  0  0  0  0  0  0  0  0
   -8.5847   -7.7269   -5.8256 C   0  0  0  0  0  0  0  0  0  0  0  0
   -5.7100   -9.4089   -5.4140 C   0  0  0  0  0  0  0  0  0  0  0  0
   -4.7747   -9.8309   -4.4665 C   0  0  0  0  0  0  0  0  0  0  0  0
   -4.2814   -8.9392   -3.4987 C   0  0  0  0  0  0  0  0  0  0  0  0
   -3.2330   -9.4259   -2.5245 C   0  0  0  0  0  0  0  0  0  0  0  0
   -1.8299   -9.1433   -3.0514 C   0  0  0  0  0  0  0  0  0  0  0  0
    6.8878   10.1240    1.7579 H   0  0  0  0  0  0  0  0  0  0  0  0
    5.8463    9.2531    3.8001 H   0  0  0  0  0  0  0  0  0  0  0  0
    3.9638    7.9881    4.7690 H   0  0  0  0  0  0  0  0  0  0  0  0
    3.2217    6.6187    3.9045 H   0  0  0  0  0  0  0  0  0  0  0  0
    4.6761    5.8225    5.7456 H   0  0  0  0  0  0  0  0  0  0  0  0
    5.3614    5.3002    4.1632 H   0  0  0  0  0  0  0  0  0  0  0  0
    6.0930    6.6968    5.0505 H   0  0  0  0  0  0  0  0  0  0  0  0
    5.0144    7.0121   -0.5468 H   0  0  0  0  0  0  0  0  0  0  0  0
    6.8404   10.2565   -0.7066 H   0  0  0  0  0  0  0  0  0  0  0  0
    5.9770    9.0139   -1.6655 H   0  0  0  0  0  0  0  0  0  0  0  0
    7.7989    7.3505   -1.1571 H   0  0  0  0  0  0  0  0  0  0  0  0
    8.6761    8.6230   -0.2108 H   0  0  0  0  0  0  0  0  0  0  0  0
    8.4266    8.8242   -1.9882 H   0  0  0  0  0  0  0  0  0  0  0  0
    5.3577    4.4799    1.7905 H   0  0  0  0  0  0  0  0  0  0  0  0
    4.8911    2.0740    2.4634 H   0  0  0  0  0  0  0  0  0  0  0  0
    3.5155    1.2207    1.7251 H   0  0  0  0  0  0  0  0  0  0  0  0
    4.4799    1.6796   -0.5759 H   0  0  0  0  0  0  0  0  0  0  0  0
    5.5788    0.7237    0.4866 H   0  0  0  0  0  0  0  0  0  0  0  0
    5.9000    2.4759    0.2161 H   0  0  0  0  0  0  0  0  0  0  0  0
    0.5337    4.8200    0.6908 H   0  0  0  0  0  0  0  0  0  0  0  0
    0.5926    7.1815    1.3737 H   0  0  0  0  0  0  0  0  0  0  0  0
    2.1345    8.0390    1.6083 H   0  0  0  0  0  0  0  0  0  0  0  0
    1.0622    8.6561   -0.5511 H   0  0  0  0  0  0  0  0  0  0  0  0
    1.0834    6.9317   -1.0829 H   0  0  0  0  0  0  0  0  0  0  0  0
    2.6353    7.8316   -0.8504 H   0  0  0  0  0  0  0  0  0  0  0  0
    2.2080    2.1167   -1.1993 H   0  0  0  0  0  0  0  0  0  0  0  0
    1.3133    0.6968   -2.9307 H   0  0  0  0  0  0  0  0  0  0  0  0
    0.1251   -0.5802   -2.5865 H   0  0  0  0  0  0  0  0  0  0  0  0
    2.3780   -1.5143   -3.1106 H   0  0  0  0  0  0  0  0  0  0  0  0
    1.8798   -1.9433   -1.4350 H   0  0  0  0  0  0  0  0  0  0  0  0
    3.0898   -0.6245   -1.7106 H   0  0  0  0  0  0  0  0  0  0  0  0
   -1.0007    0.1868    2.0501 H   0  0  0  0  0  0  0  0  0  0  0  0
   -0.7903    2.1546    3.4310 H   0  0  0  0  0  0  0  0  0  0  0  0
    0.3768    3.4450    3.0654 H   0  0  0  0  0  0  0  0  0  0  0  0
    1.1112    0.6197    4.0849 H   0  0  0  0  0  0  0  0  0  0  0  0
    2.2711    1.9775    3.7808 H   0  0  0  0  0  0  0  0  0  0  0  0
    1.0342    2.1236    5.0800 H   0  0  0  0  0  0  0  0  0  0  0  0
   -2.3615   -0.0594   -1.3358 H   0  0  0  0  0  0  0  0  0  0  0  0
   -3.9852   -0.9942   -2.8200 H   0  0  0  0  0  0  0  0  0  0  0  0
   -4.2443   -2.7467   -2.9537 H   0  0  0  0  0  0  0  0  0  0  0  0
   -5.1820   -0.9602   -0.6113 H   0  0  0  0  0  0  0  0  0  0  0  0
   -5.4624   -2.7432   -0.7456 H   0  0  0  0  0  0  0  0  0  0  0  0
   -6.2096   -1.6201   -1.9405 H   0  0  0  0  0  0  0  0  0  0  0  0
   -1.0473   -4.5888    0.1979 H   0  0  0  0  0  0  0  0  0  0  0  0
    1.1917   -3.6378    0.7843 H   0  0  0  0  0  0  0  0  0  0  0  0
    1.3888   -1.8872    1.0338 H   0  0  0  0  0  0  0  0  0  0  0  0
   -0.2481   -1.9581    2.9407 H   0  0  0  0  0  0  0  0  0  0  0  0
   -0.4498   -3.7400    2.6867 H   0  0  0  0  0  0  0  0  0  0  0  0
    1.1459   -3.0720    3.1930 H   0  0  0  0  0  0  0  0  0  0  0  0
   -3.9762   -4.2407    1.2856 H   0  0  0  0  0  0  0  0  0  0  0  0
   -7.7106   -6.1010    3.0066 H   0  0  0  0  0  0  0  0  0  0  0  0
   -6.4647   -7.2568    3.6585 H   0  0  0  0  0  0  0  0  0  0  0  0
   -6.8005   -5.7046    4.5119 H   0  0  0  0  0  0  0  0  0  0  0  0
   -6.7155   -7.5826    1.2443 H   0  0  0  0  0  0  0  0  0  0  0  0
   -6.0899   -8.0961   -1.0745 H   0  0  0  0  0  0  0  0  0  0  0  0
   -6.0038   -6.1511   -4.4763 H   0  0  0  0  0  0  0  0  0  0  0  0
   -7.1377   -8.2578   -7.3427 H   0  0  0  0  0  0  0  0  0  0  0  0
   -6.9890   -6.5803   -6.7333 H   0  0  0  0  0  0  0  0  0  0  0  0
   -8.6648   -7.0785   -4.9267 H   0  0  0  0  0  0  0  0  0  0  0  0
   -8.8115   -8.7765   -5.5414 H   0  0  0  0  0  0  0  0  0  0  0  0
   -9.3345   -7.3898   -6.5735 H   0  0  0  0  0  0  0  0  0  0  0  0
   -6.0883  -10.1201   -6.1386 H   0  0  0  0  0  0  0  0  0  0  0  0
   -4.4334  -10.8588   -4.4878 H   0  0  0  0  0  0  0  0  0  0  0  0
   -3.3415  -10.5204   -2.3596 H   0  0  0  0  0  0  0  0  0  0  0  0
   -3.3600   -8.9438   -1.5334 H   0  0  0  0  0  0  0  0  0  0  0  0
   -1.6769   -8.0512   -3.1818 H   0  0  0  0  0  0  0  0  0  0  0  0
   -1.0785   -9.5212   -2.3273 H   0  0  0  0  0  0  0  0  0  0  0  0
   -1.6749   -9.6529   -4.0256 H   0  0  0  0  0  0  0  0  0  0  0  0
  1  2  2  0
  2  3  1  0
  3  4  1  0
  4  5  1  0
  3  6  2  0
  6  7  1  0
  7  8  2  0
  8  9  1  0
  9 10  1  0
  6 11  1  0
 11 12  2  0
 12 13  1  0
 13 14  1  0
 14 15  1  0
 13 16  2  0
 16 17  1  0
 17 18  2  0
 18 19  1  0
 19 20  1  0
 16 21  1  0
 21 22  2  0
 22 23  1  0
 23 24  1  0
 24 25  1  0
 23 26  2  0
 26 27  1  0
 27 28  2  0
 28 29  1  0
 29 30  1  0
 26 31  1  0
 31 32  2  0
 32 33  1  0
 33 34  1  0
 34 35  1  0
 33 36  2  0
 36 37  1  0
 37 38  2  0
 38 39  1  0
 39 40  1  0
 36 41  1  0
 41 42  1  0
 42 43  1  0
 43 44  2  0
 44 45  1  0
 45 46  1  0
 46 47  2  0
 47 48  1  0
 48 49  1  0
 47 50  1  0
 50 51  2  0
 43 52  1  0
 52 53  2  0
 53 54  1  0
 54 55  1  0
 55 56  1  0
 54 57  2  0
 57 58  1  0
 58 59  2  0
 59 60  1  0
 60 61  1  0
  8  1  1  0
 18 11  1  0
 28 21  1  0
 38 31  1  0
 45 41  2  0
 59 52  1  0
 51 44  1  0
  1 62  1  0
  2 63  1  0
  4 64  1  0
  4 65  1  0
  5 66  1  0
  5 67  1  0
  5 68  1  0
  7 69  1  0
  9 70  1  0
  9 71  1  0
 10 72  1  0
 10 73  1  0
 10 74  1  0
 12 75  1  0
 14 76  1  0
 14 77  1  0
 15 78  1  0
 15 79  1  0
 15 80  1  0
 17 81  1  0
 19 82  1  0
 19 83  1  0
 20 84  1  0
 20 85  1  0
 20 86  1  0
 22 87  1  0
 24 88  1  0
 24 89  1  0
 25 90  1  0
 25 91  1  0
 25 92  1  0
 27 93  1  0
 29 94  1  0
 29 95  1  0
 30 96  1  0
 30 97  1  0
 30 98  1  0
 32 99  1  0
 34100  1  0
 34101  1  0
 35102  1  0
 35103  1  0
 35104  1  0
 37105  1  0
 39106  1  0
 39107  1  0
 40108  1  0
 40109  1  0
 40110  1  0
 46111  1  0
 49112  1  0
 49113  1  0
 49114  1  0
 50115  1  0
 51116  1  0
 53117  1  0
 55118  1  0
 55119  1  0
 56120  1  0
 56121  1  0
 56122  1  0
 57123  1  0
 58124  1  0
 60125  1  0
 60126  1  0
 61127  1  0
 61128  1  0
 61129  1  0
M  END

