
     RDKit          3D

 99110  0  0  0  0  0  0  0  0999 V2000
    9.8121    4.4932    3.1527 C   0  0  0  0  0  0  0  0  0  0  0  0
    8.2217    5.0402    2.7167 S   0  0  0  0  0  0  0  0  0  0  0  0
    7.5237    3.5217    2.4029 C   0  0  0  0  0  0  0  0  0  0  0  0
    8.5747    2.5649    2.6498 C   0  0  0  0  0  0  0  0  0  0  0  0
    8.5317    1.2173    2.5435 C   0  0  0  0  0  0  0  0  0  0  0  0
    9.5731    0.3941    2.7969 C   0  0  0  0  0  0  0  0  0  0  0  0
    9.7092   -1.1014    2.7303 C   0  0  0  0  0  0  0  0  0  0  0  0
    9.3434   -1.6498    4.0757 C   0  0  0  0  0  0  0  0  0  0  0  0
   10.9483    1.5704    3.2888 Se  0  0  0  0  0  2  0  0  0  0  0  0
    9.6426    3.2093    3.0129 C   0  0  0  0  0  0  0  0  0  0  0  0
    6.1586    3.2877    1.9790 C   0  0  0  0  0  0  0  0  0  0  0  0
    5.4008    1.7622    1.6331 S   0  0  0  0  0  0  0  0  0  0  0  0
    3.8661    2.3553    1.2300 C   0  0  0  0  0  0  0  0  0  0  0  0
    3.9641    3.7761    1.3733 C   0  0  0  0  0  0  0  0  0  0  0  0
    3.0187    4.7210    1.1683 C   0  0  0  0  0  0  0  0  0  0  0  0
    3.1916    6.0456    1.3222 C   0  0  0  0  0  0  0  0  0  0  0  0
    2.3058    7.2275    1.1559 C   0  0  0  0  0  0  0  0  0  0  0  0
    2.4373    7.7015   -0.2744 C   0  0  0  0  0  0  0  0  0  0  0  0
    5.0164    6.1516    1.8678 Se  0  0  0  0  0  2  0  0  0  0  0  0
    5.1678    4.0890    1.7522 C   0  0  0  0  0  0  0  0  0  0  0  0
    2.7316    1.5357    0.8344 C   0  0  0  0  0  0  0  0  0  0  0  0
    1.1258    2.0825    0.4644 S   0  0  0  0  0  0  0  0  0  0  0  0
    0.4406    0.5531    0.0903 C   0  0  0  0  0  0  0  0  0  0  0  0
    1.5275   -0.3820    0.2715 C   0  0  0  0  0  0  0  0  0  0  0  0
    1.5173   -1.7253    0.1071 C   0  0  0  0  0  0  0  0  0  0  0  0
    2.5916   -2.5342    0.3038 C   0  0  0  0  0  0  0  0  0  0  0  0
    2.7167   -4.0350    0.1579 C   0  0  0  0  0  0  0  0  0  0  0  0
    2.3935   -4.7343    1.4338 C   0  0  0  0  0  0  0  0  0  0  0  0
    3.9181   -1.3732    0.8066 Se  0  0  0  0  0  2  0  0  0  0  0  0
    2.5749    0.2661    0.6363 C   0  0  0  0  0  0  0  0  0  0  0  0
   -0.9253    0.3078   -0.3239 C   0  0  0  0  0  0  0  0  0  0  0  0
   -1.5942   -1.2068   -0.8051 S   0  0  0  0  0  0  0  0  0  0  0  0
   -3.2325   -0.6914   -1.1162 C   0  0  0  0  0  0  0  0  0  0  0  0
   -3.1714    0.7023   -0.8086 C   0  0  0  0  0  0  0  0  0  0  0  0
   -4.1768    1.6199   -0.8269 C   0  0  0  0  0  0  0  0  0  0  0  0
   -4.0912    2.9108   -0.4976 C   0  0  0  0  0  0  0  0  0  0  0  0
   -4.9936    4.0756   -0.4460 C   0  0  0  0  0  0  0  0  0  0  0  0
   -5.6705    4.1898    0.9006 C   0  0  0  0  0  0  0  0  0  0  0  0
   -2.1819    3.0335   -0.0121 Se  0  0  0  0  0  2  0  0  0  0  0  0
   -1.9710    1.0585   -0.4322 C   0  0  0  0  0  0  0  0  0  0  0  0
   -4.2334   -1.5758   -1.6865 C   0  0  0  0  0  0  0  0  0  0  0  0
   -4.2903   -3.2489   -1.2268 S   0  0  0  0  0  0  0  0  0  0  0  0
   -5.5640   -3.7716   -2.2215 C   0  0  0  0  0  0  0  0  0  0  0  0
   -5.9141   -2.6361   -2.8905 C   0  0  0  0  0  0  0  0  0  0  0  0
   -5.2253   -1.5158   -2.6109 C   0  0  0  0  0  0  0  0  0  0  0  0
   -5.5544   -0.3504   -3.3371 C   0  0  0  0  0  0  0  0  0  0  0  0
   -6.5370   -0.3104   -4.2969 C   0  0  0  0  0  0  0  0  0  0  0  0
   -6.8302    0.8754   -4.9927 O   0  0  0  0  0  0  0  0  0  0  0  0
   -7.8251    0.9427   -5.9736 C   0  0  0  0  0  0  0  0  0  0  0  0
   -7.2332   -1.4421   -4.5724 C   0  0  0  0  0  0  0  0  0  0  0  0
   -6.9230   -2.5825   -3.8785 C   0  0  0  0  0  0  0  0  0  0  0  0
   -6.1540   -5.1238   -2.3251 C   0  0  0  0  0  0  0  0  0  0  0  0
   -7.4486   -5.7308   -3.2091 S   0  0  0  0  0  0  0  0  0  0  0  0
   -7.3775   -7.3518   -2.7275 C   0  0  0  0  0  0  0  0  0  0  0  0
   -6.2632   -7.4050   -1.8159 C   0  0  0  0  0  0  0  0  0  0  0  0
   -5.7794   -8.4958   -1.1461 C   0  0  0  0  0  0  0  0  0  0  0  0
   -4.7233   -8.4376   -0.3161 C   0  0  0  0  0  0  0  0  0  0  0  0
   -4.0257   -9.4663    0.5087 C   0  0  0  0  0  0  0  0  0  0  0  0
   -2.9137  -10.1352   -0.2583 C   0  0  0  0  0  0  0  0  0  0  0  0
   -4.2634   -6.6025   -0.4237 Se  0  0  0  0  0  2  0  0  0  0  0  0
   -5.6891   -6.2314   -1.6608 C   0  0  0  0  0  0  0  0  0  0  0  0
   10.6853    5.0854    3.4541 H   0  0  0  0  0  0  0  0  0  0  0  0
    7.5953    0.6148    2.2224 H   0  0  0  0  0  0  0  0  0  0  0  0
   10.7476   -1.3571    2.4404 H   0  0  0  0  0  0  0  0  0  0  0  0
    9.0628   -1.4973    1.9198 H   0  0  0  0  0  0  0  0  0  0  0  0
   10.1861   -2.2818    4.4693 H   0  0  0  0  0  0  0  0  0  0  0  0
    9.2113   -0.8417    4.8373 H   0  0  0  0  0  0  0  0  0  0  0  0
    8.3890   -2.2123    4.0614 H   0  0  0  0  0  0  0  0  0  0  0  0
    1.9376    4.4768    0.8310 H   0  0  0  0  0  0  0  0  0  0  0  0
    2.5827    8.0028    1.8963 H   0  0  0  0  0  0  0  0  0  0  0  0
    1.2727    6.8547    1.3006 H   0  0  0  0  0  0  0  0  0  0  0  0
    1.6199    7.3464   -0.9235 H   0  0  0  0  0  0  0  0  0  0  0  0
    3.3777    7.3160   -0.7455 H   0  0  0  0  0  0  0  0  0  0  0  0
    2.4955    8.8096   -0.3257 H   0  0  0  0  0  0  0  0  0  0  0  0
    0.5949   -2.3279   -0.2173 H   0  0  0  0  0  0  0  0  0  0  0  0
    2.0023   -4.3286   -0.6340 H   0  0  0  0  0  0  0  0  0  0  0  0
    3.7431   -4.2039   -0.2175 H   0  0  0  0  0  0  0  0  0  0  0  0
    3.2178   -5.4325    1.6784 H   0  0  0  0  0  0  0  0  0  0  0  0
    1.4745   -5.3501    1.3168 H   0  0  0  0  0  0  0  0  0  0  0  0
    2.1785   -4.0144    2.2495 H   0  0  0  0  0  0  0  0  0  0  0  0
   -5.2696    1.3402   -1.1027 H   0  0  0  0  0  0  0  0  0  0  0  0
   -5.7577    4.0551   -1.2401 H   0  0  0  0  0  0  0  0  0  0  0  0
   -4.4122    5.0284   -0.5789 H   0  0  0  0  0  0  0  0  0  0  0  0
   -5.1518    3.6156    1.6923 H   0  0  0  0  0  0  0  0  0  0  0  0
   -6.7187    3.7905    0.7822 H   0  0  0  0  0  0  0  0  0  0  0  0
   -5.7501    5.2300    1.2145 H   0  0  0  0  0  0  0  0  0  0  0  0
   -5.0194    0.5701   -3.2070 H   0  0  0  0  0  0  0  0  0  0  0  0
   -7.4660    0.5401   -6.9472 H   0  0  0  0  0  0  0  0  0  0  0  0
   -8.7807    0.4978   -5.6741 H   0  0  0  0  0  0  0  0  0  0  0  0
   -7.9926    2.0376   -6.1658 H   0  0  0  0  0  0  0  0  0  0  0  0
   -8.0329   -1.4616   -5.3334 H   0  0  0  0  0  0  0  0  0  0  0  0
   -7.5106   -3.4523   -4.1417 H   0  0  0  0  0  0  0  0  0  0  0  0
   -8.0532   -8.1146   -3.0720 H   0  0  0  0  0  0  0  0  0  0  0  0
   -6.2254   -9.5413   -1.2321 H   0  0  0  0  0  0  0  0  0  0  0  0
   -3.5783   -8.9236    1.3600 H   0  0  0  0  0  0  0  0  0  0  0  0
   -4.7816  -10.1459    0.8869 H   0  0  0  0  0  0  0  0  0  0  0  0
   -2.1261   -9.3803   -0.4417 H   0  0  0  0  0  0  0  0  0  0  0  0
   -3.2676  -10.5875   -1.2076 H   0  0  0  0  0  0  0  0  0  0  0  0
   -2.4805  -10.9061    0.4089 H   0  0  0  0  0  0  0  0  0  0  0  0
  1  2  1  0
  2  3  1  0
  3  4  2  0
  4  5  1  0
  5  6  2  0
  6  7  1  0
  7  8  1  0
  6  9  1  0
  9 10  1  0
  3 11  1  0
 11 12  1  0
 12 13  1  0
 13 14  2  0
 14 15  1  0
 15 16  2  0
 16 17  1  0
 17 18  1  0
 16 19  1  0
 19 20  1  0
 13 21  1  0
 21 22  1  0
 22 23  1  0
 23 24  2  0
 24 25  1  0
 25 26  2  0
 26 27  1  0
 27 28  1  0
 26 29  1  0
 29 30  1  0
 23 31  1  0
 31 32  1  0
 32 33  1  0
 33 34  2  0
 34 35  1  0
 35 36  2  0
 36 37  1  0
 37 38  1  0
 36 39  1  0
 39 40  1  0
 33 41  1  0
 41 42  1  0
 42 43  1  0
 43 44  2  0
 44 45  1  0
 45 46  1  0
 46 47  2  0
 47 48  1  0
 48 49  1  0
 47 50  1  0
 50 51  2  0
 43 52  1  0
 52 53  1  0
 53 54  1  0
 54 55  2  0
 55 56  1  0
 56 57  2  0
 57 58  1  0
 58 59  1  0
 57 60  1  0
 60 61  1  0
 10  1  2  0
 20 11  2  0
 30 21  2  0
 40 31  2  0
 45 41  2  0
 61 52  2  0
 10  4  1  0
 20 14  1  0
 30 24  1  0
 40 34  1  0
 51 44  1  0
 61 55  1  0
  1 62  1  0
  5 63  1  0
  7 64  1  0
  7 65  1  0
  8 66  1  0
  8 67  1  0
  8 68  1  0
 15 69  1  0
 17 70  1  0
 17 71  1  0
 18 72  1  0
 18 73  1  0
 18 74  1  0
 25 75  1  0
 27 76  1  0
 27 77  1  0
 28 78  1  0
 28 79  1  0
 28 80  1  0
 35 81  1  0
 37 82  1  0
 37 83  1  0
 38 84  1  0
 38 85  1  0
 38 86  1  0
 46 87  1  0
 49 88  1  0
 49 89  1  0
 49 90  1  0
 50 91  1  0
 51 92  1  0
 54 93  1  0
 56 94  1  0
 58 95  1  0
 58 96  1  0
 59 97  1  0
 59 98  1  0
 59 99  1  0
M  END

