
     RDKit          3D

179199  0  0  0  0  0  0  0  0999 V2000
   11.2046   -1.1949    9.7461 C   0  0  0  0  0  0  0  0  0  0  0  0
   10.0088   -1.4514    8.5899 S   0  0  0  0  0  0  0  0  0  0  0  0
   10.1885   -3.1220    8.4642 C   0  0  0  0  0  0  0  0  0  0  0  0
   11.1853   -3.5114    9.3590 C   0  0  0  0  0  0  0  0  0  0  0  0
   11.7490   -2.4331   10.0640 C   0  0  0  0  0  0  0  0  0  0  0  0
   12.7455   -2.6437   11.0178 C   0  0  0  0  0  0  0  0  0  0  0  0
   13.1868   -3.9592   11.2759 C   0  0  0  0  0  0  0  0  0  0  0  0
   14.1886   -4.2412   12.2156 O   0  0  0  0  0  0  0  0  0  0  0  0
   14.8253   -3.2572   13.0279 C   0  0  0  0  0  0  0  0  0  0  0  0
   12.6075   -5.0364   10.5775 C   0  0  0  0  0  0  0  0  0  0  0  0
   11.5983   -4.8215    9.6255 C   0  0  0  0  0  0  0  0  0  0  0  0
    9.3495   -3.9794    7.6133 C   0  0  0  0  0  0  0  0  0  0  0  0
    7.6821   -3.8739    7.5504 S   0  0  0  0  0  0  0  0  0  0  0  0
    7.4134   -5.0089    6.3267 C   0  0  0  0  0  0  0  0  0  0  0  0
    8.6786   -5.5061    5.9488 C   0  0  0  0  0  0  0  0  0  0  0  0
    9.7500   -4.8967    6.6451 C   0  0  0  0  0  0  0  0  0  0  0  0
   11.0767   -5.1691    6.2960 C   0  0  0  0  0  0  0  0  0  0  0  0
   11.3533   -6.0953    5.2826 C   0  0  0  0  0  0  0  0  0  0  0  0
   12.6954   -6.3131    4.9405 O   0  0  0  0  0  0  0  0  0  0  0  0
   13.1360   -7.1593    3.8809 C   0  0  0  0  0  0  0  0  0  0  0  0
   10.2884   -6.7709    4.6472 C   0  0  0  0  0  0  0  0  0  0  0  0
    8.9570   -6.4891    4.9865 C   0  0  0  0  0  0  0  0  0  0  0  0
    6.0733   -5.1533    5.6964 C   0  0  0  0  0  0  0  0  0  0  0  0
    5.7337   -5.7002    4.4489 C   0  0  0  0  0  0  0  0  0  0  0  0
    4.4153   -5.3975    4.0472 C   0  0  0  0  0  0  0  0  0  0  0  0
    3.8055   -5.7574    2.8244 C   0  0  0  0  0  0  0  0  0  0  0  0
    4.4131   -6.7683    1.9340 C   0  0  0  0  0  0  0  0  0  0  0  0
    4.7637   -8.3423    2.4104 S   0  0  0  0  0  0  0  0  0  0  0  0
    5.3627   -8.8676    0.9287 C   0  0  0  0  0  0  0  0  0  0  0  0
    5.9473  -10.2298    0.6682 C   0  0  0  0  0  0  0  0  0  0  0  0
    5.0411  -11.3411    1.1915 C   0  0  0  0  0  0  0  0  0  0  0  0
    5.3197   -7.7941    0.0377 C   0  0  0  0  0  0  0  0  0  0  0  0
    5.9123   -7.8753   -1.6168 Cl  0  0  0  0  0  0  0  0  0  0  0  0
    4.7885   -6.6181    0.5979 C   0  0  0  0  0  0  0  0  0  0  0  0
    4.7576   -5.0811   -0.2561 Cl  0  0  0  0  0  0  0  0  0  0  0  0
    2.5560   -5.1634    2.5379 C   0  0  0  0  0  0  0  0  0  0  0  0
    1.9319   -4.2782    3.4250 C   0  0  0  0  0  0  0  0  0  0  0  0
    2.4970   -3.9999    4.6823 C   0  0  0  0  0  0  0  0  0  0  0  0
    1.8774   -3.0443    5.6167 C   0  0  0  0  0  0  0  0  0  0  0  0
    2.5427   -1.5578    6.0371 S   0  0  0  0  0  0  0  0  0  0  0  0
    1.2539   -1.0402    6.9827 C   0  0  0  0  0  0  0  0  0  0  0  0
    1.1501    0.3234    7.5933 C   0  0  0  0  0  0  0  0  0  0  0  0
    0.5290    1.3060    6.6069 C   0  0  0  0  0  0  0  0  0  0  0  0
    0.2651   -2.0233    6.9637 C   0  0  0  0  0  0  0  0  0  0  0  0
    0.6171   -3.1507    6.2033 C   0  0  0  0  0  0  0  0  0  0  0  0
   -0.4270   -4.5535    6.0134 Cl  0  0  0  0  0  0  0  0  0  0  0  0
   -1.2868   -1.8554    7.7739 Cl  0  0  0  0  0  0  0  0  0  0  0  0
    3.7430   -4.5775    4.9528 C   0  0  0  0  0  0  0  0  0  0  0  0
    4.7322   -4.2995    6.2702 S   0  0  0  0  0  0  0  0  0  0  0  0
    0.7951   -3.6619    2.8867 C   0  0  0  0  0  0  0  0  0  0  0  0
    0.5060   -4.0787    1.5897 C   0  0  0  0  0  0  0  0  0  0  0  0
    1.6506   -5.2296    1.1136 S   0  0  0  0  0  0  0  0  0  0  0  0
   -0.4292   -3.3816    0.6944 C   0  0  0  0  0  0  0  0  0  0  0  0
   -0.7626   -2.0331    0.8119 C   0  0  0  0  0  0  0  0  0  0  0  0
   -1.5290   -1.5609   -0.2583 C   0  0  0  0  0  0  0  0  0  0  0  0
   -1.9076   -0.2227   -0.4666 C   0  0  0  0  0  0  0  0  0  0  0  0
   -1.5824    0.8340    0.5077 C   0  0  0  0  0  0  0  0  0  0  0  0
   -2.2744    0.9658    2.0378 S   0  0  0  0  0  0  0  0  0  0  0  0
   -1.3703    2.2987    2.5277 C   0  0  0  0  0  0  0  0  0  0  0  0
   -1.5315    3.0035    3.8417 C   0  0  0  0  0  0  0  0  0  0  0  0
   -2.3907    4.2521    3.6835 C   0  0  0  0  0  0  0  0  0  0  0  0
   -0.5143    2.6636    1.4871 C   0  0  0  0  0  0  0  0  0  0  0  0
    0.6136    4.0082    1.5834 Cl  0  0  0  0  0  0  0  0  0  0  0  0
   -0.6286    1.8367    0.3573 C   0  0  0  0  0  0  0  0  0  0  0  0
    0.3814    2.0113   -1.0703 Cl  0  0  0  0  0  0  0  0  0  0  0  0
   -2.5833    0.0682   -1.6611 C   0  0  0  0  0  0  0  0  0  0  0  0
   -2.9148   -0.9163   -2.6015 C   0  0  0  0  0  0  0  0  0  0  0  0
   -2.5429   -2.2627   -2.3842 C   0  0  0  0  0  0  0  0  0  0  0  0
   -2.8531   -3.3217   -3.3594 C   0  0  0  0  0  0  0  0  0  0  0  0
   -2.2321   -3.4017   -4.9209 S   0  0  0  0  0  0  0  0  0  0  0  0
   -3.0112   -4.8285   -5.3527 C   0  0  0  0  0  0  0  0  0  0  0  0
   -2.8251   -5.5420   -6.6584 C   0  0  0  0  0  0  0  0  0  0  0  0
   -1.7617   -6.6263   -6.5284 C   0  0  0  0  0  0  0  0  0  0  0  0
   -3.7591   -5.2757   -4.2618 C   0  0  0  0  0  0  0  0  0  0  0  0
   -3.6714   -4.4288   -3.1448 C   0  0  0  0  0  0  0  0  0  0  0  0
   -4.5621   -4.7036   -1.6553 Cl  0  0  0  0  0  0  0  0  0  0  0  0
   -4.7136   -6.7540   -4.2773 Cl  0  0  0  0  0  0  0  0  0  0  0  0
   -1.8261   -2.5448   -1.2038 C   0  0  0  0  0  0  0  0  0  0  0  0
   -1.0877   -3.9923   -0.7380 S   0  0  0  0  0  0  0  0  0  0  0  0
   -3.6103   -0.4017   -3.7104 C   0  0  0  0  0  0  0  0  0  0  0  0
   -3.7766    0.9788   -3.6397 C   0  0  0  0  0  0  0  0  0  0  0  0
   -3.1081    1.5664   -2.2080 S   0  0  0  0  0  0  0  0  0  0  0  0
   -4.4070    1.8257   -4.6528 C   0  0  0  0  0  0  0  0  0  0  0  0
   -6.0687    1.9570   -4.8934 S   0  0  0  0  0  0  0  0  0  0  0  0
   -6.0266    3.3248   -5.8813 C   0  0  0  0  0  0  0  0  0  0  0  0
   -4.6869    3.6932   -6.0408 C   0  0  0  0  0  0  0  0  0  0  0  0
   -3.7898    2.8673   -5.3414 C   0  0  0  0  0  0  0  0  0  0  0  0
   -2.4129    3.1214   -5.3765 C   0  0  0  0  0  0  0  0  0  0  0  0
   -1.9231    4.2040   -6.1281 C   0  0  0  0  0  0  0  0  0  0  0  0
   -0.5375    4.4228   -6.1492 O   0  0  0  0  0  0  0  0  0  0  0  0
    0.0985    5.4671   -6.8808 C   0  0  0  0  0  0  0  0  0  0  0  0
   -2.8268    5.0219   -6.8416 C   0  0  0  0  0  0  0  0  0  0  0  0
   -4.2036    4.7656   -6.8063 C   0  0  0  0  0  0  0  0  0  0  0  0
   -7.2129    4.0962   -6.2803 C   0  0  0  0  0  0  0  0  0  0  0  0
   -7.3144    5.4847   -6.2279 C   0  0  0  0  0  0  0  0  0  0  0  0
   -8.5758    5.9590   -6.6069 C   0  0  0  0  0  0  0  0  0  0  0  0
   -8.9761    7.3076   -6.6423 C   0  0  0  0  0  0  0  0  0  0  0  0
   -8.0351    8.3962   -6.3242 C   0  0  0  0  0  0  0  0  0  0  0  0
   -6.6426    8.7421   -7.1988 S   0  0  0  0  0  0  0  0  0  0  0  0
   -6.0826    9.9543   -6.1751 C   0  0  0  0  0  0  0  0  0  0  0  0
   -4.8318   10.7465   -6.4013 C   0  0  0  0  0  0  0  0  0  0  0  0
   -5.1454   12.0758   -7.0778 C   0  0  0  0  0  0  0  0  0  0  0  0
   -6.9969   10.1151   -5.1338 C   0  0  0  0  0  0  0  0  0  0  0  0
   -6.7895   11.2776   -3.8316 Cl  0  0  0  0  0  0  0  0  0  0  0  0
   -8.0882    9.2360   -5.2132 C   0  0  0  0  0  0  0  0  0  0  0  0
   -9.3561    9.1563   -3.9964 Cl  0  0  0  0  0  0  0  0  0  0  0  0
  -10.3077    7.5654   -7.0099 C   0  0  0  0  0  0  0  0  0  0  0  0
  -11.2101    6.5475   -7.3325 C   0  0  0  0  0  0  0  0  0  0  0  0
  -10.8069    5.1960   -7.2961 C   0  0  0  0  0  0  0  0  0  0  0  0
  -11.7342    4.1010   -7.6330 C   0  0  0  0  0  0  0  0  0  0  0  0
  -13.1017    3.6938   -6.7434 S   0  0  0  0  0  0  0  0  0  0  0  0
  -13.6007    2.4383   -7.7444 C   0  0  0  0  0  0  0  0  0  0  0  0
  -14.7825    1.5558   -7.4821 C   0  0  0  0  0  0  0  0  0  0  0  0
  -14.3645    0.3107   -6.7085 C   0  0  0  0  0  0  0  0  0  0  0  0
  -12.6844    2.3086   -8.7886 C   0  0  0  0  0  0  0  0  0  0  0  0
  -11.6428    3.2476   -8.7307 C   0  0  0  0  0  0  0  0  0  0  0  0
  -10.3864    3.3690   -9.9551 Cl  0  0  0  0  0  0  0  0  0  0  0  0
  -12.8224    1.0998  -10.0589 Cl  0  0  0  0  0  0  0  0  0  0  0  0
   -9.4751    4.9376   -6.9279 C   0  0  0  0  0  0  0  0  0  0  0  0
   -8.7045    3.4474   -6.7388 S   0  0  0  0  0  0  0  0  0  0  0  0
  -12.4709    7.0323   -7.7166 C   0  0  0  0  0  0  0  0  0  0  0  0
  -12.5542    8.4219   -7.6909 C   0  0  0  0  0  0  0  0  0  0  0  0
  -11.0663    9.0535   -7.2018 S   0  0  0  0  0  0  0  0  0  0  0  0
   11.4835   -0.2439   10.1752 H   0  0  0  0  0  0  0  0  0  0  0  0
   13.1569   -1.7971   11.5515 H   0  0  0  0  0  0  0  0  0  0  0  0
   15.3537   -2.5158   12.3921 H   0  0  0  0  0  0  0  0  0  0  0  0
   14.0736   -2.7485   13.6691 H   0  0  0  0  0  0  0  0  0  0  0  0
   15.5716   -3.7532   13.6839 H   0  0  0  0  0  0  0  0  0  0  0  0
   12.9379   -6.0497   10.7791 H   0  0  0  0  0  0  0  0  0  0  0  0
   11.1496   -5.6669    9.1193 H   0  0  0  0  0  0  0  0  0  0  0  0
   11.8945   -4.6489    6.7802 H   0  0  0  0  0  0  0  0  0  0  0  0
   12.8431   -8.2099    4.0867 H   0  0  0  0  0  0  0  0  0  0  0  0
   12.7000   -6.8198    2.9171 H   0  0  0  0  0  0  0  0  0  0  0  0
   14.2407   -7.1031    3.8096 H   0  0  0  0  0  0  0  0  0  0  0  0
   10.4804   -7.5163    3.8877 H   0  0  0  0  0  0  0  0  0  0  0  0
    8.1806   -7.0699    4.5229 H   0  0  0  0  0  0  0  0  0  0  0  0
    6.4167   -6.1983    3.7891 H   0  0  0  0  0  0  0  0  0  0  0  0
    6.0948  -10.3819   -0.4203 H   0  0  0  0  0  0  0  0  0  0  0  0
    6.9389  -10.2962    1.1610 H   0  0  0  0  0  0  0  0  0  0  0  0
    4.0284  -11.2551    0.7440 H   0  0  0  0  0  0  0  0  0  0  0  0
    4.9618  -11.2883    2.2961 H   0  0  0  0  0  0  0  0  0  0  0  0
    5.4711  -12.3261    0.9181 H   0  0  0  0  0  0  0  0  0  0  0  0
    2.1639    0.6773    7.8773 H   0  0  0  0  0  0  0  0  0  0  0  0
    0.5335    0.2811    8.5159 H   0  0  0  0  0  0  0  0  0  0  0  0
    0.4614    2.3097    7.0743 H   0  0  0  0  0  0  0  0  0  0  0  0
   -0.4934    0.9740    6.3239 H   0  0  0  0  0  0  0  0  0  0  0  0
    1.1547    1.3828    5.6909 H   0  0  0  0  0  0  0  0  0  0  0  0
    0.2335   -2.8930    3.3997 H   0  0  0  0  0  0  0  0  0  0  0  0
   -0.3961   -1.3966    1.6069 H   0  0  0  0  0  0  0  0  0  0  0  0
   -2.0129    2.3204    4.5707 H   0  0  0  0  0  0  0  0  0  0  0  0
   -0.5333    3.2818    4.2389 H   0  0  0  0  0  0  0  0  0  0  0  0
   -3.4272    3.9684    3.3907 H   0  0  0  0  0  0  0  0  0  0  0  0
   -2.4322    4.7996    4.6472 H   0  0  0  0  0  0  0  0  0  0  0  0
   -1.9659    4.9263    2.9078 H   0  0  0  0  0  0  0  0  0  0  0  0
   -3.7871   -5.9993   -6.9787 H   0  0  0  0  0  0  0  0  0  0  0  0
   -2.5142   -4.8150   -7.4391 H   0  0  0  0  0  0  0  0  0  0  0  0
   -2.0515   -7.3701   -5.7546 H   0  0  0  0  0  0  0  0  0  0  0  0
   -1.6510   -7.1556   -7.4991 H   0  0  0  0  0  0  0  0  0  0  0  0
   -0.7818   -6.1751   -6.2547 H   0  0  0  0  0  0  0  0  0  0  0  0
   -3.9555   -0.9973   -4.5460 H   0  0  0  0  0  0  0  0  0  0  0  0
   -1.7194    2.4800   -4.8447 H   0  0  0  0  0  0  0  0  0  0  0  0
    1.1929    5.3994   -6.7326 H   0  0  0  0  0  0  0  0  0  0  0  0
   -0.1209    5.3621   -7.9664 H   0  0  0  0  0  0  0  0  0  0  0  0
   -0.2555    6.4559   -6.5167 H   0  0  0  0  0  0  0  0  0  0  0  0
   -2.4757    5.8533   -7.4385 H   0  0  0  0  0  0  0  0  0  0  0  0
   -4.8700    5.3870   -7.3911 H   0  0  0  0  0  0  0  0  0  0  0  0
   -6.5147    6.1226   -5.8782 H   0  0  0  0  0  0  0  0  0  0  0  0
   -4.1349   10.1626   -7.0410 H   0  0  0  0  0  0  0  0  0  0  0  0
   -4.3253   10.9325   -5.4316 H   0  0  0  0  0  0  0  0  0  0  0  0
   -4.2060   12.6457   -7.2280 H   0  0  0  0  0  0  0  0  0  0  0  0
   -5.6204   11.8998   -8.0682 H   0  0  0  0  0  0  0  0  0  0  0  0
   -5.8311   12.6786   -6.4457 H   0  0  0  0  0  0  0  0  0  0  0  0
  -15.2507    1.2558   -8.4430 H   0  0  0  0  0  0  0  0  0  0  0  0
  -15.5394    2.1205   -6.8968 H   0  0  0  0  0  0  0  0  0  0  0  0
  -13.9330    0.5919   -5.7232 H   0  0  0  0  0  0  0  0  0  0  0  0
  -15.2518   -0.3360   -6.5385 H   0  0  0  0  0  0  0  0  0  0  0  0
  -13.6094   -0.2659   -7.2847 H   0  0  0  0  0  0  0  0  0  0  0  0
  -13.2946    6.4038   -8.0264 H   0  0  0  0  0  0  0  0  0  0  0  0
  -13.4278    9.0008   -7.9514 H   0  0  0  0  0  0  0  0  0  0  0  0
  1  2  1  0
  2  3  1  0
  3  4  2  0
  4  5  1  0
  5  6  1  0
  6  7  2  0
  7  8  1  0
  8  9  1  0
  7 10  1  0
 10 11  2  0
  3 12  1  0
 12 13  1  0
 13 14  1  0
 14 15  2  0
 15 16  1  0
 16 17  1  0
 17 18  2  0
 18 19  1  0
 19 20  1  0
 18 21  1  0
 21 22  2  0
 14 23  1  0
 23 24  2  0
 24 25  1  0
 25 26  2  0
 26 27  1  0
 27 28  1  0
 28 29  1  0
 29 30  1  0
 30 31  1  0
 29 32  2  0
 32 33  1  0
 32 34  1  0
 34 35  1  0
 26 36  1  0
 36 37  2  0
 37 38  1  0
 38 39  1  0
 39 40  1  0
 40 41  1  0
 41 42  1  0
 42 43  1  0
 41 44  2  0
 44 45  1  0
 45 46  1  0
 44 47  1  0
 38 48  2  0
 48 49  1  0
 37 50  1  0
 50 51  2  0
 51 52  1  0
 51 53  1  0
 53 54  2  0
 54 55  1  0
 55 56  2  0
 56 57  1  0
 57 58  1  0
 58 59  1  0
 59 60  1  0
 60 61  1  0
 59 62  2  0
 62 63  1  0
 62 64  1  0
 64 65  1  0
 56 66  1  0
 66 67  2  0
 67 68  1  0
 68 69  1  0
 69 70  1  0
 70 71  1  0
 71 72  1  0
 72 73  1  0
 71 74  2  0
 74 75  1  0
 75 76  1  0
 74 77  1  0
 68 78  2  0
 78 79  1  0
 67 80  1  0
 80 81  2  0
 81 82  1  0
 81 83  1  0
 83 84  1  0
 84 85  1  0
 85 86  2  0
 86 87  1  0
 87 88  1  0
 88 89  2  0
 89 90  1  0
 90 91  1  0
 89 92  1  0
 92 93  2  0
 85 94  1  0
 94 95  2  0
 95 96  1  0
 96 97  2  0
 97 98  1  0
 98 99  1  0
 99100  1  0
100101  1  0
101102  1  0
100103  2  0
103104  1  0
103105  1  0
105106  1  0
 97107  1  0
107108  2  0
108109  1  0
109110  1  0
110111  1  0
111112  1  0
112113  1  0
113114  1  0
112115  2  0
115116  1  0
116117  1  0
115118  1  0
109119  2  0
119120  1  0
108121  1  0
121122  2  0
122123  1  0
  5  1  2  0
 16 12  2  0
 49 23  1  0
 79 53  1  0
 87 83  2  0
120 94  1  0
 11  4  1  0
 22 15  1  0
 48 25  1  0
 78 55  1  0
 93 86  1  0
119 96  1  0
 34 27  2  0
 52 36  1  0
 64 57  2  0
 82 66  1  0
105 98  2  0
123107  1  0
 45 39  2  0
 75 69  2  0
116110  2  0
  1124  1  0
  6125  1  0
  9126  1  0
  9127  1  0
  9128  1  0
 10129  1  0
 11130  1  0
 17131  1  0
 20132  1  0
 20133  1  0
 20134  1  0
 21135  1  0
 22136  1  0
 24137  1  0
 30138  1  0
 30139  1  0
 31140  1  0
 31141  1  0
 31142  1  0
 42143  1  0
 42144  1  0
 43145  1  0
 43146  1  0
 43147  1  0
 50148  1  0
 54149  1  0
 60150  1  0
 60151  1  0
 61152  1  0
 61153  1  0
 61154  1  0
 72155  1  0
 72156  1  0
 73157  1  0
 73158  1  0
 73159  1  0
 80160  1  0
 88161  1  0
 91162  1  0
 91163  1  0
 91164  1  0
 92165  1  0
 93166  1  0
 95167  1  0
101168  1  0
101169  1  0
102170  1  0
102171  1  0
102172  1  0
113173  1  0
113174  1  0
114175  1  0
114176  1  0
114177  1  0
121178  1  0
122179  1  0
M  END

