
     RDKit          3D

 94100  0  0  0  0  0  0  0  0999 V2000
    5.2645    1.6456    1.0513 C   0  0  0  0  0  0  0  0  0  0  0  0
    4.0807    1.9688    0.5793 O   0  0  0  0  0  0  0  0  0  0  0  0
    4.0204    1.6345   -0.6938 C   0  0  0  0  0  0  0  0  0  0  0  0
    5.2220    1.0596   -1.0919 C   0  0  0  0  0  0  0  0  0  0  0  0
    6.0158    1.0823    0.0398 C   0  0  0  0  0  0  0  0  0  0  0  0
    7.3876    0.6604    0.1469 C   0  0  0  0  0  0  0  0  0  0  0  0
    8.4912    0.3253    0.2331 N   0  0  0  0  0  0  0  0  0  0  0  0
    5.6103    0.6130   -2.4808 C   0  0  0  0  0  0  0  0  0  0  0  0
    6.0516    1.7054   -3.2068 F   0  0  0  0  0  0  0  0  0  0  0  0
    6.6200   -0.3377   -2.4174 F   0  0  0  0  0  0  0  0  0  0  0  0
    4.5269    0.0437   -3.1224 F   0  0  0  0  0  0  0  0  0  0  0  0
    2.8753    1.9104   -1.5728 C   0  0  0  0  0  0  0  0  0  0  0  0
    1.5829    1.8431   -1.2279 C   0  0  0  0  0  0  0  0  0  0  0  0
    1.0186    1.2868    0.0288 C   0  0  0  0  0  0  0  0  0  0  0  0
    1.7768    0.2176    1.0973 S   0  0  0  0  0  0  0  0  0  0  0  0
    0.4955    0.0315    2.1654 C   0  0  0  0  0  0  0  0  0  0  0  0
   -0.5855    0.7523    1.6680 C   0  0  0  0  0  0  0  0  0  0  0  0
   -0.2992    1.4492    0.4782 C   0  0  0  0  0  0  0  0  0  0  0  0
   -1.2994    2.2085   -0.1488 C   0  0  0  0  0  0  0  0  0  0  0  0
   -2.5998    2.2347    0.3986 C   0  0  0  0  0  0  0  0  0  0  0  0
   -3.6473    2.9571   -0.1948 O   0  0  0  0  0  0  0  0  0  0  0  0
   -3.5175    3.7473   -1.3755 C   0  0  0  0  0  0  0  0  0  0  0  0
   -2.8728    1.5168    1.5785 C   0  0  0  0  0  0  0  0  0  0  0  0
   -1.8724    0.7755    2.2148 C   0  0  0  0  0  0  0  0  0  0  0  0
    0.6044   -0.6550    3.4579 C   0  0  0  0  0  0  0  0  0  0  0  0
    1.1617   -1.8332    3.5999 O   0  0  0  0  0  0  0  0  0  0  0  0
    1.1865   -2.1361    4.8783 C   0  0  0  0  0  0  0  0  0  0  0  0
    0.6188   -1.1072    5.6232 C   0  0  0  0  0  0  0  0  0  0  0  0
    0.2489   -0.1463    4.6990 C   0  0  0  0  0  0  0  0  0  0  0  0
   -0.2354    1.1812    4.9854 C   0  0  0  0  0  0  0  0  0  0  0  0
   -0.6204    2.2470    5.2136 N   0  0  0  0  0  0  0  0  0  0  0  0
    0.5602   -0.9841    7.1228 C   0  0  0  0  0  0  0  0  0  0  0  0
    1.6926   -0.3266    7.5626 F   0  0  0  0  0  0  0  0  0  0  0  0
   -0.5636   -0.2626    7.4995 F   0  0  0  0  0  0  0  0  0  0  0  0
    0.5000   -2.2324    7.7059 F   0  0  0  0  0  0  0  0  0  0  0  0
    1.7994   -3.3616    5.4165 C   0  0  0  0  0  0  0  0  0  0  0  0
    1.4191   -4.6037    5.0933 C   0  0  0  0  0  0  0  0  0  0  0  0
    0.3019   -4.9306    4.1833 C   0  0  0  0  0  0  0  0  0  0  0  0
   -0.1010   -4.1929    3.1703 O   0  0  0  0  0  0  0  0  0  0  0  0
   -1.1236   -4.7904    2.5938 C   0  0  0  0  0  0  0  0  0  0  0  0
   -1.4116   -5.9792    3.2560 C   0  0  0  0  0  0  0  0  0  0  0  0
   -0.4809   -6.0666    4.2739 C   0  0  0  0  0  0  0  0  0  0  0  0
   -0.3563   -7.1079    5.2638 C   0  0  0  0  0  0  0  0  0  0  0  0
   -0.2504   -7.9439    6.0559 N   0  0  0  0  0  0  0  0  0  0  0  0
   -2.4950   -6.9638    2.9007 C   0  0  0  0  0  0  0  0  0  0  0  0
   -3.7252   -6.3436    2.9872 F   0  0  0  0  0  0  0  0  0  0  0  0
   -2.4898   -8.0569    3.7482 F   0  0  0  0  0  0  0  0  0  0  0  0
   -2.3110   -7.4088    1.6069 F   0  0  0  0  0  0  0  0  0  0  0  0
   -1.8390   -4.2789    1.4090 C   0  0  0  0  0  0  0  0  0  0  0  0
   -1.3141   -3.3576    0.5910 C   0  0  0  0  0  0  0  0  0  0  0  0
   -1.9502   -2.9478   -0.6838 C   0  0  0  0  0  0  0  0  0  0  0  0
   -1.6496   -1.8247   -1.2991 O   0  0  0  0  0  0  0  0  0  0  0  0
   -2.3373   -1.7469   -2.4198 C   0  0  0  0  0  0  0  0  0  0  0  0
   -3.1435   -2.8648   -2.5591 C   0  0  0  0  0  0  0  0  0  0  0  0
   -2.8773   -3.6507   -1.4490 C   0  0  0  0  0  0  0  0  0  0  0  0
   -3.3474   -4.9966   -1.2380 C   0  0  0  0  0  0  0  0  0  0  0  0
   -3.7300   -6.0764   -1.0728 N   0  0  0  0  0  0  0  0  0  0  0  0
   -4.0459   -3.1790   -3.7307 C   0  0  0  0  0  0  0  0  0  0  0  0
   -3.2822   -3.3030   -4.8800 F   0  0  0  0  0  0  0  0  0  0  0  0
   -4.9588   -2.1544   -3.9033 F   0  0  0  0  0  0  0  0  0  0  0  0
   -4.7430   -4.3559   -3.5319 F   0  0  0  0  0  0  0  0  0  0  0  0
   -2.2159   -0.6557   -3.4035 C   0  0  0  0  0  0  0  0  0  0  0  0
   -1.3229    0.3261   -3.2557 C   0  0  0  0  0  0  0  0  0  0  0  0
   -1.1252    1.3923   -4.2592 C   0  0  0  0  0  0  0  0  0  0  0  0
   -0.6882    2.5865   -3.9381 O   0  0  0  0  0  0  0  0  0  0  0  0
   -0.5490    3.3128   -5.0222 C   0  0  0  0  0  0  0  0  0  0  0  0
   -0.8832    2.5482   -6.1426 C   0  0  0  0  0  0  0  0  0  0  0  0
   -1.2822    1.3201   -5.6377 C   0  0  0  0  0  0  0  0  0  0  0  0
   -1.6399    0.1536   -6.4114 C   0  0  0  0  0  0  0  0  0  0  0  0
   -1.9262   -0.7847   -7.0273 N   0  0  0  0  0  0  0  0  0  0  0  0
   -0.8110    2.9437   -7.5982 C   0  0  0  0  0  0  0  0  0  0  0  0
   -0.6557    1.8275   -8.4008 F   0  0  0  0  0  0  0  0  0  0  0  0
    0.2650    3.7833   -7.8174 F   0  0  0  0  0  0  0  0  0  0  0  0
   -1.9811    3.5777   -7.9606 F   0  0  0  0  0  0  0  0  0  0  0  0
   -0.0715    4.7085   -4.9588 C   0  0  0  0  0  0  0  0  0  0  0  0
   -0.5272    5.6714   -5.7544 C   0  0  0  0  0  0  0  0  0  0  0  0
    5.5883    1.8109    2.0713 H   0  0  0  0  0  0  0  0  0  0  0  0
    3.1103    2.2319   -2.5819 H   0  0  0  0  0  0  0  0  0  0  0  0
    0.8880    2.1952   -1.9685 H   0  0  0  0  0  0  0  0  0  0  0  0
   -1.0761    2.7673   -1.0424 H   0  0  0  0  0  0  0  0  0  0  0  0
   -4.5006    4.2053   -1.6204 H   0  0  0  0  0  0  0  0  0  0  0  0
   -3.2062    3.1083   -2.2313 H   0  0  0  0  0  0  0  0  0  0  0  0
   -2.7724    4.5584   -1.2148 H   0  0  0  0  0  0  0  0  0  0  0  0
   -3.8685    1.5323    2.0089 H   0  0  0  0  0  0  0  0  0  0  0  0
   -2.1116    0.2103    3.1068 H   0  0  0  0  0  0  0  0  0  0  0  0
    2.5396   -3.2500    6.2047 H   0  0  0  0  0  0  0  0  0  0  0  0
    1.8844   -5.4325    5.6164 H   0  0  0  0  0  0  0  0  0  0  0  0
   -2.8056   -4.7084    1.1980 H   0  0  0  0  0  0  0  0  0  0  0  0
   -0.3835   -2.8801    0.8552 H   0  0  0  0  0  0  0  0  0  0  0  0
   -2.8600   -0.6704   -4.2705 H   0  0  0  0  0  0  0  0  0  0  0  0
   -0.7194    0.3671   -2.3555 H   0  0  0  0  0  0  0  0  0  0  0  0
    0.6239    4.9760   -4.1703 H   0  0  0  0  0  0  0  0  0  0  0  0
   -1.2887    5.4847   -6.4963 H   0  0  0  0  0  0  0  0  0  0  0  0
   -0.1670    6.6835   -5.6381 H   0  0  0  0  0  0  0  0  0  0  0  0
  1  2  1  0
  2  3  1  0
  3  4  2  0
  4  5  1  0
  5  6  1  0
  6  7  3  0
  4  8  1  0
  8  9  1  0
  8 10  1  0
  8 11  1  0
  3 12  1  0
 12 13  2  3
 13 14  1  0
 14 15  1  0
 15 16  1  0
 16 17  2  0
 17 18  1  0
 18 19  1  0
 19 20  2  0
 20 21  1  0
 21 22  1  0
 20 23  1  0
 23 24  2  0
 16 25  1  0
 25 26  1  0
 26 27  1  0
 27 28  2  0
 28 29  1  0
 29 30  1  0
 30 31  3  0
 28 32  1  0
 32 33  1  0
 32 34  1  0
 32 35  1  0
 27 36  1  0
 36 37  2  3
 37 38  1  0
 38 39  1  0
 39 40  1  0
 40 41  2  0
 41 42  1  0
 42 43  1  0
 43 44  3  0
 41 45  1  0
 45 46  1  0
 45 47  1  0
 45 48  1  0
 40 49  1  0
 49 50  2  3
 50 51  1  0
 51 52  1  0
 52 53  1  0
 53 54  2  0
 54 55  1  0
 55 56  1  0
 56 57  3  0
 54 58  1  0
 58 59  1  0
 58 60  1  0
 58 61  1  0
 53 62  1  0
 62 63  2  3
 63 64  1  0
 64 65  1  0
 65 66  1  0
 66 67  2  0
 67 68  1  0
 68 69  1  0
 69 70  3  0
 67 71  1  0
 71 72  1  0
 71 73  1  0
 71 74  1  0
 66 75  1  0
 75 76  2  3
  5  1  2  0
 18 14  2  0
 29 25  2  0
 42 38  2  0
 55 51  2  0
 68 64  2  0
 24 17  1  0
  1 77  1  0
 12 78  1  0
 13 79  1  0
 19 80  1  0
 22 81  1  0
 22 82  1  0
 22 83  1  0
 23 84  1  0
 24 85  1  0
 36 86  1  0
 37 87  1  0
 49 88  1  0
 50 89  1  0
 62 90  1  0
 63 91  1  0
 75 92  1  0
 76 93  1  0
 76 94  1  0
M  END

