
     RDKit          3D

 99110  0  0  0  0  0  0  0  0999 V2000
    8.6502    2.0961    4.4494 C   0  0  0  0  0  0  0  0  0  0  0  0
    7.3838    1.7906    4.0645 C   0  0  0  0  0  0  0  0  0  0  0  0
    7.0594    0.2763    4.1339 C   0  0  0  0  0  0  0  0  0  0  0  0
    8.3702   -0.1759    4.6193 C   0  0  0  0  0  0  0  0  0  0  0  0
    9.2317    0.8338    4.7900 C   0  0  0  0  0  0  0  0  0  0  0  0
   10.2968   -0.0930    5.2653 C   0  0  0  0  0  0  0  0  0  0  0  0
    9.3719   -1.1802    5.0889 C   0  0  0  0  0  3  0  0  0  0  0  0
    6.4258    2.8320    3.6473 C   0  0  0  0  0  0  0  0  0  0  0  0
    5.2100    2.5345    3.1730 C   0  0  0  0  0  0  0  0  0  0  0  0
    4.2516    3.5865    2.7751 C   0  0  0  0  0  0  0  0  0  0  0  0
    3.0721    3.4484    2.0975 C   0  0  0  0  0  0  0  0  0  0  0  0
    2.3315    4.7952    1.8942 C   0  0  0  0  0  0  0  0  0  0  0  0
    3.3059    5.6680    2.5610 C   0  0  0  0  0  0  0  0  0  0  0  0
    4.3527    4.9918    3.0433 C   0  0  0  0  0  0  0  0  0  0  0  0
    4.9644    6.2334    3.5914 C   0  0  0  0  0  0  0  0  0  0  0  0
    3.8388    6.9635    3.0756 C   0  0  0  0  0  3  0  0  0  0  0  0
    2.5699    2.1607    1.5654 C   0  0  0  0  0  0  0  0  0  0  0  0
    1.4074    2.0642    0.9107 C   0  0  0  0  0  0  0  0  0  0  0  0
    0.9290    0.7837    0.3529 C   0  0  0  0  0  0  0  0  0  0  0  0
   -0.1952    0.5660   -0.3922 C   0  0  0  0  0  0  0  0  0  0  0  0
   -0.3337   -0.9126   -0.8511 C   0  0  0  0  0  0  0  0  0  0  0  0
    0.8976   -1.4321   -0.2393 C   0  0  0  0  0  0  0  0  0  0  0  0
    1.5767   -0.4932    0.4266 C   0  0  0  0  0  0  0  0  0  0  0  0
    2.6314   -1.4678    0.8214 C   0  0  0  0  0  0  0  0  0  0  0  0
    1.8920   -2.4850    0.1254 C   0  0  0  0  0  3  0  0  0  0  0  0
   -1.0541    1.6733   -0.8858 C   0  0  0  0  0  0  0  0  0  0  0  0
   -2.3462    1.5674   -1.2262 C   0  0  0  0  0  0  0  0  0  0  0  0
   -3.1716    0.3719   -1.0087 C   0  0  0  0  0  0  0  0  0  0  0  0
   -3.9731   -0.4548   -2.2299 S   0  0  0  0  0  0  0  0  0  0  0  0
   -4.7002   -1.6230   -1.2526 C   0  0  0  0  0  0  0  0  0  0  0  0
   -4.3484   -1.3463    0.0711 C   0  0  0  0  0  0  0  0  0  0  0  0
   -3.5041   -0.2278    0.2073 C   0  0  0  0  0  0  0  0  0  0  0  0
   -3.0827    0.1935    1.4731 C   0  0  0  0  0  0  0  0  0  0  0  0
   -3.4961   -0.5119    2.6131 C   0  0  0  0  0  0  0  0  0  0  0  0
   -3.0689   -0.0539    3.8675 O   0  0  0  0  0  0  0  0  0  0  0  0
   -3.4483   -0.6416    5.1080 C   0  0  0  0  0  0  0  0  0  0  0  0
   -4.3198   -1.6509    2.4682 C   0  0  0  0  0  0  0  0  0  0  0  0
   -4.7392   -2.0740    1.2002 C   0  0  0  0  0  0  0  0  0  0  0  0
   -5.6314   -2.6623   -1.7370 C   0  0  0  0  0  0  0  0  0  0  0  0
   -5.5629   -3.3810   -2.8957 C   0  0  0  0  0  0  0  0  0  0  0  0
   -6.8150   -4.2584   -3.1423 C   0  0  0  0  0  0  0  0  0  0  0  0
   -7.5615   -3.8847   -1.9312 C   0  0  0  0  0  0  0  0  0  0  0  0
   -6.9009   -3.0076   -1.1681 C   0  0  0  0  0  0  0  0  0  0  0  0
   -8.0244   -2.9458   -0.1886 C   0  0  0  0  0  0  0  0  0  0  0  0
   -8.7342   -3.8928   -1.0037 C   0  0  0  0  0  3  0  0  0  0  0  0
   -4.3869   -3.3705   -3.7898 C   0  0  0  0  0  0  0  0  0  0  0  0
   -4.4350   -3.8219   -5.0483 C   0  0  0  0  0  0  0  0  0  0  0  0
   -3.2517   -3.7600   -5.9301 C   0  0  0  0  0  0  0  0  0  0  0  0
   -3.1673   -4.0591   -7.2612 C   0  0  0  0  0  0  0  0  0  0  0  0
   -1.7448   -3.8414   -7.8405 C   0  0  0  0  0  0  0  0  0  0  0  0
   -1.0910   -3.3816   -6.6086 C   0  0  0  0  0  0  0  0  0  0  0  0
   -1.9286   -3.3352   -5.5694 C   0  0  0  0  0  0  0  0  0  0  0  0
   -0.8582   -2.8247   -4.6666 C   0  0  0  0  0  0  0  0  0  0  0  0
    0.0452   -2.8756   -5.7831 C   0  0  0  0  0  3  0  0  0  0  0  0
   -4.3126   -4.5128   -8.0831 C   0  0  0  0  0  0  0  0  0  0  0  0
   -4.1978   -4.7745   -9.3836 C   0  0  0  0  0  0  0  0  0  0  0  0
    9.1079    3.0750    4.4925 H   0  0  0  0  0  0  0  0  0  0  0  0
    6.8406   -0.1427    3.1284 H   0  0  0  0  0  0  0  0  0  0  0  0
    6.2615    0.0597    4.8767 H   0  0  0  0  0  0  0  0  0  0  0  0
   11.1506   -0.1454    4.5573 H   0  0  0  0  0  0  0  0  0  0  0  0
   10.5759    0.0929    6.3265 H   0  0  0  0  0  0  0  0  0  0  0  0
    9.0538   -1.6000    6.0702 H   0  0  0  0  0  0  0  0  0  0  0  0
    6.7442    3.8672    3.7174 H   0  0  0  0  0  0  0  0  0  0  0  0
    4.9130    1.4987    3.0789 H   0  0  0  0  0  0  0  0  0  0  0  0
    1.3576    4.8077    2.4259 H   0  0  0  0  0  0  0  0  0  0  0  0
    2.2347    5.0507    0.8199 H   0  0  0  0  0  0  0  0  0  0  0  0
    5.9144    6.4948    3.0766 H   0  0  0  0  0  0  0  0  0  0  0  0
    5.0231    6.2214    4.7014 H   0  0  0  0  0  0  0  0  0  0  0  0
    3.1860    7.3350    3.8960 H   0  0  0  0  0  0  0  0  0  0  0  0
    3.1751    1.2754    1.6929 H   0  0  0  0  0  0  0  0  0  0  0  0
    0.7904    2.9421    0.7776 H   0  0  0  0  0  0  0  0  0  0  0  0
   -0.3018   -1.0065   -1.9561 H   0  0  0  0  0  0  0  0  0  0  0  0
   -1.2087   -1.4228   -0.4069 H   0  0  0  0  0  0  0  0  0  0  0  0
    3.6084   -1.2432    0.3411 H   0  0  0  0  0  0  0  0  0  0  0  0
    2.6745   -1.6197    1.9211 H   0  0  0  0  0  0  0  0  0  0  0  0
    1.4261   -3.2039    0.8380 H   0  0  0  0  0  0  0  0  0  0  0  0
   -0.5884    2.6392   -1.0412 H   0  0  0  0  0  0  0  0  0  0  0  0
   -2.8235    2.4214   -1.6917 H   0  0  0  0  0  0  0  0  0  0  0  0
   -2.4484    1.0628    1.5823 H   0  0  0  0  0  0  0  0  0  0  0  0
   -2.9825   -0.0745    5.9379 H   0  0  0  0  0  0  0  0  0  0  0  0
   -3.0943   -1.6926    5.1591 H   0  0  0  0  0  0  0  0  0  0  0  0
   -4.5521   -0.6018    5.2287 H   0  0  0  0  0  0  0  0  0  0  0  0
   -4.6357   -2.2217    3.3307 H   0  0  0  0  0  0  0  0  0  0  0  0
   -5.3492   -2.9615    1.1124 H   0  0  0  0  0  0  0  0  0  0  0  0
   -7.3597   -3.9463   -4.0580 H   0  0  0  0  0  0  0  0  0  0  0  0
   -6.5634   -5.3402   -3.1404 H   0  0  0  0  0  0  0  0  0  0  0  0
   -7.7433   -3.3660    0.8005 H   0  0  0  0  0  0  0  0  0  0  0  0
   -8.4967   -1.9393   -0.1493 H   0  0  0  0  0  0  0  0  0  0  0  0
   -9.6113   -3.4211   -1.5032 H   0  0  0  0  0  0  0  0  0  0  0  0
   -3.4571   -2.9765   -3.4024 H   0  0  0  0  0  0  0  0  0  0  0  0
   -5.3612   -4.2110   -5.4433 H   0  0  0  0  0  0  0  0  0  0  0  0
   -1.2956   -4.7920   -8.1968 H   0  0  0  0  0  0  0  0  0  0  0  0
   -1.7327   -3.0419   -8.6120 H   0  0  0  0  0  0  0  0  0  0  0  0
   -1.0665   -1.7942   -4.3039 H   0  0  0  0  0  0  0  0  0  0  0  0
   -0.5973   -3.5565   -3.8719 H   0  0  0  0  0  0  0  0  0  0  0  0
    0.3288   -1.8549   -6.1231 H   0  0  0  0  0  0  0  0  0  0  0  0
   -5.2870   -4.6352   -7.6313 H   0  0  0  0  0  0  0  0  0  0  0  0
   -5.0642   -5.0991   -9.9450 H   0  0  0  0  0  0  0  0  0  0  0  0
   -3.2573   -4.6647   -9.9083 H   0  0  0  0  0  0  0  0  0  0  0  0
  1  2  2  0
  2  3  1  0
  3  4  1  0
  4  5  2  0
  5  6  1  0
  6  7  1  0
  2  8  1  0
  8  9  2  3
  9 10  1  0
 10 11  2  0
 11 12  1  0
 12 13  1  0
 13 14  2  0
 14 15  1  0
 15 16  1  0
 11 17  1  0
 17 18  2  3
 18 19  1  0
 19 20  2  0
 20 21  1  0
 21 22  1  0
 22 23  2  0
 23 24  1  0
 24 25  1  0
 20 26  1  0
 26 27  2  3
 27 28  1  0
 28 29  1  0
 29 30  1  0
 30 31  2  0
 31 32  1  0
 32 33  1  0
 33 34  2  0
 34 35  1  0
 35 36  1  0
 34 37  1  0
 37 38  2  0
 30 39  1  0
 39 40  2  0
 40 41  1  0
 41 42  1  0
 42 43  2  0
 43 44  1  0
 44 45  1  0
 40 46  1  0
 46 47  2  3
 47 48  1  0
 48 49  2  0
 49 50  1  0
 50 51  1  0
 51 52  2  0
 52 53  1  0
 53 54  1  0
 49 55  1  0
 55 56  2  3
  5  1  1  0
 14 10  1  0
 23 19  1  0
 32 28  2  0
 43 39  1  0
 52 48  1  0
  7  4  1  0
 16 13  1  0
 25 22  1  0
 38 31  1  0
 45 42  1  0
 54 51  1  0
  1 57  1  0
  3 58  1  0
  3 59  1  0
  6 60  1  0
  6 61  1  0
  7 62  1  0
  8 63  1  0
  9 64  1  0
 12 65  1  0
 12 66  1  0
 15 67  1  0
 15 68  1  0
 16 69  1  0
 17 70  1  0
 18 71  1  0
 21 72  1  0
 21 73  1  0
 24 74  1  0
 24 75  1  0
 25 76  1  0
 26 77  1  0
 27 78  1  0
 33 79  1  0
 36 80  1  0
 36 81  1  0
 36 82  1  0
 37 83  1  0
 38 84  1  0
 41 85  1  0
 41 86  1  0
 44 87  1  0
 44 88  1  0
 45 89  1  0
 46 90  1  0
 47 91  1  0
 50 92  1  0
 50 93  1  0
 53 94  1  0
 53 95  1  0
 54 96  1  0
 55 97  1  0
 56 98  1  0
 56 99  1  0
M  RAD  5   7   2  16   2  25   2  45   2  54   2
M  END

