
     RDKit          3D

204227  0  0  0  0  0  0  0  0999 V2000
    4.5128   -9.9267    9.1440 C   0  0  0  0  0  0  0  0  0  0  0  0
    5.0379   -9.4113    7.9603 C   0  0  0  0  0  0  0  0  0  0  0  0
    4.7385   -8.0532    7.7690 C   0  0  0  0  0  0  0  0  0  0  0  0
    5.0319   -7.2873    6.6221 C   0  0  0  0  0  0  0  0  0  0  0  0
    5.5859   -7.9135    5.4189 C   0  0  0  0  0  0  0  0  0  0  0  0
    7.2031   -8.2969    5.1595 S   0  0  0  0  0  0  0  0  0  0  0  0
    6.9593   -9.0951    3.6936 C   0  0  0  0  0  0  0  0  0  0  0  0
    8.0301   -9.7824    2.9031 C   0  0  0  0  0  0  0  0  0  0  0  0
    8.9746   -8.7754    2.2661 C   0  0  0  0  0  0  0  0  0  0  0  0
    5.5947   -9.0881    3.4045 C   0  0  0  0  0  0  0  0  0  0  0  0
    4.8843   -9.8702    1.9984 Cl  0  0  0  0  0  0  0  0  0  0  0  0
    4.8256   -8.4235    4.3785 C   0  0  0  0  0  0  0  0  0  0  0  0
    3.0754   -8.3499    4.3411 Cl  0  0  0  0  0  0  0  0  0  0  0  0
    4.5612   -5.9645    6.6036 C   0  0  0  0  0  0  0  0  0  0  0  0
    3.8388   -5.4018    7.6617 C   0  0  0  0  0  0  0  0  0  0  0  0
    3.5082   -6.1808    8.7837 C   0  0  0  0  0  0  0  0  0  0  0  0
    2.5028   -5.7266    9.7535 C   0  0  0  0  0  0  0  0  0  0  0  0
    2.7488   -4.6359   11.0025 S   0  0  0  0  0  0  0  0  0  0  0  0
    1.1712   -4.6871   11.5863 C   0  0  0  0  0  0  0  0  0  0  0  0
    0.6641   -3.8943   12.7566 C   0  0  0  0  0  0  0  0  0  0  0  0
   -0.1257   -2.6722   12.2899 C   0  0  0  0  0  0  0  0  0  0  0  0
    0.4260   -5.5591   10.7917 C   0  0  0  0  0  0  0  0  0  0  0  0
    1.1794   -6.1493    9.7639 C   0  0  0  0  0  0  0  0  0  0  0  0
    0.5141   -7.2419    8.5643 Cl  0  0  0  0  0  0  0  0  0  0  0  0
   -1.2784   -5.9014   11.0537 Cl  0  0  0  0  0  0  0  0  0  0  0  0
    3.9815   -7.5039    8.8093 C   0  0  0  0  0  0  0  0  0  0  0  0
    3.6704   -8.7049    9.9441 S   0  0  0  0  0  0  0  0  0  0  0  0
    3.4070   -4.0939    7.4048 C   0  0  0  0  0  0  0  0  0  0  0  0
    3.7730   -3.6565    6.1355 C   0  0  0  0  0  0  0  0  0  0  0  0
    4.6286   -4.8595    5.3367 S   0  0  0  0  0  0  0  0  0  0  0  0
    3.4294   -2.3573    5.5591 C   0  0  0  0  0  0  0  0  0  0  0  0
    4.1048   -1.1657    5.8070 C   0  0  0  0  0  0  0  0  0  0  0  0
    3.6686   -0.1196    4.9814 C   0  0  0  0  0  0  0  0  0  0  0  0
    4.1890    1.1889    4.9338 C   0  0  0  0  0  0  0  0  0  0  0  0
    5.0636    1.7066    5.9900 C   0  0  0  0  0  0  0  0  0  0  0  0
    6.6297    1.1955    6.3416 S   0  0  0  0  0  0  0  0  0  0  0  0
    6.7839    2.0993    7.7569 C   0  0  0  0  0  0  0  0  0  0  0  0
    7.9912    2.1044    8.6463 C   0  0  0  0  0  0  0  0  0  0  0  0
    8.7947    3.3874    8.4610 C   0  0  0  0  0  0  0  0  0  0  0  0
    5.6102    2.8111    7.9731 C   0  0  0  0  0  0  0  0  0  0  0  0
    5.3246    3.8142    9.3904 Cl  0  0  0  0  0  0  0  0  0  0  0  0
    4.6485    2.5956    6.9746 C   0  0  0  0  0  0  0  0  0  0  0  0
    3.0518    3.3363    6.9999 Cl  0  0  0  0  0  0  0  0  0  0  0  0
    3.7089    2.0298    3.9182 C   0  0  0  0  0  0  0  0  0  0  0  0
    2.6713    1.6432    3.0719 C   0  0  0  0  0  0  0  0  0  0  0  0
    2.0532    0.3834    3.2049 C   0  0  0  0  0  0  0  0  0  0  0  0
    0.8324    0.0466    2.4485 C   0  0  0  0  0  0  0  0  0  0  0  0
    0.6646   -1.2453    1.3905 S   0  0  0  0  0  0  0  0  0  0  0  0
   -0.9357   -0.9179    0.9618 C   0  0  0  0  0  0  0  0  0  0  0  0
   -1.7514   -1.7153   -0.0113 C   0  0  0  0  0  0  0  0  0  0  0  0
   -2.6701   -2.6927    0.7110 C   0  0  0  0  0  0  0  0  0  0  0  0
   -1.3665    0.1936    1.6809 C   0  0  0  0  0  0  0  0  0  0  0  0
   -0.3713    0.7417    2.5013 C   0  0  0  0  0  0  0  0  0  0  0  0
   -0.6440    2.1410    3.5318 Cl  0  0  0  0  0  0  0  0  0  0  0  0
   -2.9916    0.8561    1.5709 Cl  0  0  0  0  0  0  0  0  0  0  0  0
    2.6269   -0.4998    4.1216 C   0  0  0  0  0  0  0  0  0  0  0  0
    2.2606   -2.1220    4.3742 S   0  0  0  0  0  0  0  0  0  0  0  0
    2.4473    2.5494    2.0331 C   0  0  0  0  0  0  0  0  0  0  0  0
    3.3471    3.6107    2.0097 C   0  0  0  0  0  0  0  0  0  0  0  0
    4.3849    3.4706    3.3402 S   0  0  0  0  0  0  0  0  0  0  0  0
    3.6522    4.3140    0.7564 C   0  0  0  0  0  0  0  0  0  0  0  0
    3.6088    3.5186   -0.7221 S   0  0  0  0  0  0  0  0  0  0  0  0
    3.6557    4.8563   -1.7161 C   0  0  0  0  0  0  0  0  0  0  0  0
    3.7147    5.9851   -0.8868 C   0  0  0  0  0  0  0  0  0  0  0  0
    3.7251    5.6840    0.4960 C   0  0  0  0  0  0  0  0  0  0  0  0
    3.7257    6.7073    1.4464 C   0  0  0  0  0  0  0  0  0  0  0  0
    3.7287    8.0502    1.0090 C   0  0  0  0  0  0  0  0  0  0  0  0
    3.7401    9.1291    1.8963 O   0  0  0  0  0  0  0  0  0  0  0  0
    4.0460    9.0122    3.2933 C   0  0  0  0  0  0  0  0  0  0  0  0
    3.7081    8.3376   -0.3626 C   0  0  0  0  0  0  0  0  0  0  0  0
    3.7111    7.3167   -1.3150 C   0  0  0  0  0  0  0  0  0  0  0  0
    3.2137    4.7848   -3.1184 C   0  0  0  0  0  0  0  0  0  0  0  0
    2.1318    5.5077   -3.6155 C   0  0  0  0  0  0  0  0  0  0  0  0
    1.5222    4.9011   -4.7237 C   0  0  0  0  0  0  0  0  0  0  0  0
    0.2803    5.2698   -5.2711 C   0  0  0  0  0  0  0  0  0  0  0  0
   -0.4868    6.4150   -4.7630 C   0  0  0  0  0  0  0  0  0  0  0  0
   -1.1259    7.5781   -5.7944 S   0  0  0  0  0  0  0  0  0  0  0  0
   -2.4446    8.0352   -4.8530 C   0  0  0  0  0  0  0  0  0  0  0  0
   -3.5343    8.9287   -5.4077 C   0  0  0  0  0  0  0  0  0  0  0  0
   -4.2920    9.7437   -4.3614 C   0  0  0  0  0  0  0  0  0  0  0  0
   -2.4367    7.2294   -3.7095 C   0  0  0  0  0  0  0  0  0  0  0  0
   -3.7155    7.1772   -2.4963 Cl  0  0  0  0  0  0  0  0  0  0  0  0
   -1.3644    6.3153   -3.6752 C   0  0  0  0  0  0  0  0  0  0  0  0
   -1.1712    5.1080   -2.4097 Cl  0  0  0  0  0  0  0  0  0  0  0  0
   -0.3193    4.3678   -6.1580 C   0  0  0  0  0  0  0  0  0  0  0  0
    0.2686    3.1644   -6.5424 C   0  0  0  0  0  0  0  0  0  0  0  0
    1.5569    2.8274   -6.0582 C   0  0  0  0  0  0  0  0  0  0  0  0
    2.2209    1.5561   -6.4153 C   0  0  0  0  0  0  0  0  0  0  0  0
    1.5734    0.0131   -6.2322 S   0  0  0  0  0  0  0  0  0  0  0  0
    2.8759   -0.8253   -6.8732 C   0  0  0  0  0  0  0  0  0  0  0  0
    2.9128   -2.3038   -7.1249 C   0  0  0  0  0  0  0  0  0  0  0  0
    2.5447   -2.6090   -8.5750 C   0  0  0  0  0  0  0  0  0  0  0  0
    3.8573    0.0973   -7.2383 C   0  0  0  0  0  0  0  0  0  0  0  0
    3.4954    1.4280   -6.9677 C   0  0  0  0  0  0  0  0  0  0  0  0
    4.5217    2.7970   -7.3840 Cl  0  0  0  0  0  0  0  0  0  0  0  0
    5.3779   -0.3465   -8.0031 Cl  0  0  0  0  0  0  0  0  0  0  0  0
    2.1424    3.7132   -5.1303 C   0  0  0  0  0  0  0  0  0  0  0  0
    3.4193    3.4083   -4.0759 S   0  0  0  0  0  0  0  0  0  0  0  0
   -0.6189    2.3139   -7.2403 C   0  0  0  0  0  0  0  0  0  0  0  0
   -1.9137    2.8273   -7.3302 C   0  0  0  0  0  0  0  0  0  0  0  0
   -1.9208    4.3575   -6.6408 S   0  0  0  0  0  0  0  0  0  0  0  0
   -3.1138    1.9908   -7.3001 C   0  0  0  0  0  0  0  0  0  0  0  0
   -3.9730    1.9590   -6.2102 C   0  0  0  0  0  0  0  0  0  0  0  0
   -4.9179    0.9418   -6.2693 C   0  0  0  0  0  0  0  0  0  0  0  0
   -5.8462    0.6127   -5.2500 C   0  0  0  0  0  0  0  0  0  0  0  0
   -6.0247    1.4537   -4.0433 C   0  0  0  0  0  0  0  0  0  0  0  0
   -5.9739    0.8943   -2.4585 S   0  0  0  0  0  0  0  0  0  0  0  0
   -6.3232    2.3656   -1.7218 C   0  0  0  0  0  0  0  0  0  0  0  0
   -6.5850    2.5473   -0.2536 C   0  0  0  0  0  0  0  0  0  0  0  0
   -8.0822    2.5026    0.0413 C   0  0  0  0  0  0  0  0  0  0  0  0
   -6.5015    3.3272   -2.7190 C   0  0  0  0  0  0  0  0  0  0  0  0
   -6.9365    5.0004   -2.3838 Cl  0  0  0  0  0  0  0  0  0  0  0  0
   -6.3356    2.8148   -4.0162 C   0  0  0  0  0  0  0  0  0  0  0  0
   -6.6360    3.7828   -5.4524 Cl  0  0  0  0  0  0  0  0  0  0  0  0
   -6.5806   -0.5628   -5.4379 C   0  0  0  0  0  0  0  0  0  0  0  0
   -6.4618   -1.3624   -6.5826 C   0  0  0  0  0  0  0  0  0  0  0  0
   -5.5704   -1.0016   -7.6134 C   0  0  0  0  0  0  0  0  0  0  0  0
   -5.4110   -1.8194   -8.8245 C   0  0  0  0  0  0  0  0  0  0  0  0
   -4.7509   -3.3656   -8.8579 S   0  0  0  0  0  0  0  0  0  0  0  0
   -4.7332   -3.5072  -10.5359 C   0  0  0  0  0  0  0  0  0  0  0  0
   -4.1288   -4.6467  -11.2907 C   0  0  0  0  0  0  0  0  0  0  0  0
   -5.2054   -5.5068  -11.9455 C   0  0  0  0  0  0  0  0  0  0  0  0
   -5.2430   -2.3317  -11.0921 C   0  0  0  0  0  0  0  0  0  0  0  0
   -5.6180   -1.3845  -10.1295 C   0  0  0  0  0  0  0  0  0  0  0  0
   -6.2668    0.2069  -10.5186 Cl  0  0  0  0  0  0  0  0  0  0  0  0
   -5.3332   -2.0429  -12.8196 Cl  0  0  0  0  0  0  0  0  0  0  0  0
   -4.7952    0.1530   -7.4176 C   0  0  0  0  0  0  0  0  0  0  0  0
   -3.5037    0.7236   -8.3444 S   0  0  0  0  0  0  0  0  0  0  0  0
   -7.3033   -2.4844   -6.5702 C   0  0  0  0  0  0  0  0  0  0  0  0
   -8.0529   -2.5786   -5.4042 C   0  0  0  0  0  0  0  0  0  0  0  0
   -7.7208   -1.2509   -4.4190 S   0  0  0  0  0  0  0  0  0  0  0  0
   -9.0034   -3.6502   -5.0772 C   0  0  0  0  0  0  0  0  0  0  0  0
  -10.1005   -4.3470   -6.1569 S   0  0  0  0  0  0  0  0  0  0  0  0
  -10.8660   -5.3636   -5.0528 C   0  0  0  0  0  0  0  0  0  0  0  0
  -10.2499   -5.1778   -3.8154 C   0  0  0  0  0  0  0  0  0  0  0  0
   -9.2031   -4.2435   -3.8298 C   0  0  0  0  0  0  0  0  0  0  0  0
   -8.4171   -4.0489   -2.6864 C   0  0  0  0  0  0  0  0  0  0  0  0
   -8.7126   -4.7520   -1.5104 C   0  0  0  0  0  0  0  0  0  0  0  0
   -7.8823   -4.5629   -0.4016 O   0  0  0  0  0  0  0  0  0  0  0  0
   -8.0706   -5.1975    0.8627 C   0  0  0  0  0  0  0  0  0  0  0  0
   -9.8140   -5.6438   -1.4882 C   0  0  0  0  0  0  0  0  0  0  0  0
  -10.5777   -5.8568   -2.6437 C   0  0  0  0  0  0  0  0  0  0  0  0
    4.6077  -10.9542    9.4665 H   0  0  0  0  0  0  0  0  0  0  0  0
    5.5944  -10.0084    7.2566 H   0  0  0  0  0  0  0  0  0  0  0  0
    7.5809  -10.4083    2.0964 H   0  0  0  0  0  0  0  0  0  0  0  0
    8.6092  -10.4603    3.5722 H   0  0  0  0  0  0  0  0  0  0  0  0
    9.5427   -8.2394    3.0550 H   0  0  0  0  0  0  0  0  0  0  0  0
    8.4035   -8.0401    1.6576 H   0  0  0  0  0  0  0  0  0  0  0  0
    9.6857   -9.3002    1.5999 H   0  0  0  0  0  0  0  0  0  0  0  0
    0.0103   -4.5322   13.3906 H   0  0  0  0  0  0  0  0  0  0  0  0
    1.5218   -3.5498   13.3742 H   0  0  0  0  0  0  0  0  0  0  0  0
   -0.4816   -2.0982   13.1693 H   0  0  0  0  0  0  0  0  0  0  0  0
    0.5255   -2.0147   11.6729 H   0  0  0  0  0  0  0  0  0  0  0  0
   -1.0128   -2.9876   11.7021 H   0  0  0  0  0  0  0  0  0  0  0  0
    2.8180   -3.5077    8.0962 H   0  0  0  0  0  0  0  0  0  0  0  0
    4.9154   -1.0862    6.5084 H   0  0  0  0  0  0  0  0  0  0  0  0
    7.6708    2.0123    9.7074 H   0  0  0  0  0  0  0  0  0  0  0  0
    8.6394    1.2348    8.4108 H   0  0  0  0  0  0  0  0  0  0  0  0
    8.1517    4.2729    8.6609 H   0  0  0  0  0  0  0  0  0  0  0  0
    9.1859    3.4416    7.4208 H   0  0  0  0  0  0  0  0  0  0  0  0
    9.6464    3.4049    9.1767 H   0  0  0  0  0  0  0  0  0  0  0  0
   -2.3658   -1.0260   -0.6317 H   0  0  0  0  0  0  0  0  0  0  0  0
   -1.0754   -2.2814   -0.6926 H   0  0  0  0  0  0  0  0  0  0  0  0
   -3.3333   -2.1582    1.4224 H   0  0  0  0  0  0  0  0  0  0  0  0
   -2.0653   -3.4347    1.2807 H   0  0  0  0  0  0  0  0  0  0  0  0
   -3.3051   -3.2239   -0.0271 H   0  0  0  0  0  0  0  0  0  0  0  0
    1.7429    2.3677    1.2346 H   0  0  0  0  0  0  0  0  0  0  0  0
    3.7301    6.4685    2.5001 H   0  0  0  0  0  0  0  0  0  0  0  0
    3.2809    8.3841    3.7996 H   0  0  0  0  0  0  0  0  0  0  0  0
    5.0543    8.5617    3.4146 H   0  0  0  0  0  0  0  0  0  0  0  0
    4.0474   10.0211    3.7513 H   0  0  0  0  0  0  0  0  0  0  0  0
    3.7100    9.3667   -0.7019 H   0  0  0  0  0  0  0  0  0  0  0  0
    3.7374    7.5541   -2.3669 H   0  0  0  0  0  0  0  0  0  0  0  0
    1.7097    6.3643   -3.1069 H   0  0  0  0  0  0  0  0  0  0  0  0
   -3.0614    9.6462   -6.1166 H   0  0  0  0  0  0  0  0  0  0  0  0
   -4.2529    8.3186   -5.9999 H   0  0  0  0  0  0  0  0  0  0  0  0
   -4.9836    9.1051   -3.7839 H   0  0  0  0  0  0  0  0  0  0  0  0
   -3.5882   10.2711   -3.6846 H   0  0  0  0  0  0  0  0  0  0  0  0
   -4.9217   10.4950   -4.8789 H   0  0  0  0  0  0  0  0  0  0  0  0
    3.9332   -2.6917   -6.9083 H   0  0  0  0  0  0  0  0  0  0  0  0
    2.1960   -2.8233   -6.4542 H   0  0  0  0  0  0  0  0  0  0  0  0
    2.6273   -3.6990   -8.7689 H   0  0  0  0  0  0  0  0  0  0  0  0
    1.5039   -2.2893   -8.7694 H   0  0  0  0  0  0  0  0  0  0  0  0
    3.2163   -2.0631   -9.2751 H   0  0  0  0  0  0  0  0  0  0  0  0
   -0.3753    1.3289   -7.5781 H   0  0  0  0  0  0  0  0  0  0  0  0
   -3.8486    2.6135   -5.3571 H   0  0  0  0  0  0  0  0  0  0  0  0
   -6.0756    1.7378    0.3162 H   0  0  0  0  0  0  0  0  0  0  0  0
   -6.1661    3.5222    0.0906 H   0  0  0  0  0  0  0  0  0  0  0  0
   -8.2622    2.5702    1.1307 H   0  0  0  0  0  0  0  0  0  0  0  0
   -8.5956    3.3544   -0.4516 H   0  0  0  0  0  0  0  0  0  0  0  0
   -8.5170    1.5537   -0.3367 H   0  0  0  0  0  0  0  0  0  0  0  0
   -3.5273   -5.2924  -10.6028 H   0  0  0  0  0  0  0  0  0  0  0  0
   -3.4439   -4.2583  -12.0830 H   0  0  0  0  0  0  0  0  0  0  0  0
   -5.8606   -4.8731  -12.5813 H   0  0  0  0  0  0  0  0  0  0  0  0
   -4.7331   -6.2841  -12.5828 H   0  0  0  0  0  0  0  0  0  0  0  0
   -5.8247   -6.0074  -11.1673 H   0  0  0  0  0  0  0  0  0  0  0  0
   -7.3553   -3.2012   -7.3758 H   0  0  0  0  0  0  0  0  0  0  0  0
  -11.6861   -6.0315   -5.2605 H   0  0  0  0  0  0  0  0  0  0  0  0
   -7.5562   -3.4001   -2.7018 H   0  0  0  0  0  0  0  0  0  0  0  0
   -7.2386   -4.9014    1.5414 H   0  0  0  0  0  0  0  0  0  0  0  0
   -9.0352   -4.8853    1.3081 H   0  0  0  0  0  0  0  0  0  0  0  0
   -8.0700   -6.2957    0.7328 H   0  0  0  0  0  0  0  0  0  0  0  0
  -10.0717   -6.1843   -0.5855 H   0  0  0  0  0  0  0  0  0  0  0  0
  -11.4007   -6.5540   -2.6269 H   0  0  0  0  0  0  0  0  0  0  0  0
  1  2  2  0
  2  3  1  0
  3  4  2  0
  4  5  1  0
  5  6  1  0
  6  7  1  0
  7  8  1  0
  8  9  1  0
  7 10  2  0
 10 11  1  0
 10 12  1  0
 12 13  1  0
  4 14  1  0
 14 15  2  0
 15 16  1  0
 16 17  1  0
 17 18  1  0
 18 19  1  0
 19 20  1  0
 20 21  1  0
 19 22  2  0
 22 23  1  0
 23 24  1  0
 22 25  1  0
 16 26  2  0
 26 27  1  0
 15 28  1  0
 28 29  2  0
 29 30  1  0
 29 31  1  0
 31 32  2  0
 32 33  1  0
 33 34  2  0
 34 35  1  0
 35 36  1  0
 36 37  1  0
 37 38  1  0
 38 39  1  0
 37 40  2  0
 40 41  1  0
 40 42  1  0
 42 43  1  0
 34 44  1  0
 44 45  2  0
 45 46  1  0
 46 47  1  0
 47 48  1  0
 48 49  1  0
 49 50  1  0
 50 51  1  0
 49 52  2  0
 52 53  1  0
 53 54  1  0
 52 55  1  0
 46 56  2  0
 56 57  1  0
 45 58  1  0
 58 59  2  0
 59 60  1  0
 59 61  1  0
 61 62  1  0
 62 63  1  0
 63 64  2  0
 64 65  1  0
 65 66  1  0
 66 67  2  0
 67 68  1  0
 68 69  1  0
 67 70  1  0
 70 71  2  0
 63 72  1  0
 72 73  2  0
 73 74  1  0
 74 75  2  0
 75 76  1  0
 76 77  1  0
 77 78  1  0
 78 79  1  0
 79 80  1  0
 78 81  2  0
 81 82  1  0
 81 83  1  0
 83 84  1  0
 75 85  1  0
 85 86  2  0
 86 87  1  0
 87 88  1  0
 88 89  1  0
 89 90  1  0
 90 91  1  0
 91 92  1  0
 90 93  2  0
 93 94  1  0
 94 95  1  0
 93 96  1  0
 87 97  2  0
 97 98  1  0
 86 99  1  0
 99100  2  0
100101  1  0
100102  1  0
102103  2  0
103104  1  0
104105  2  0
105106  1  0
106107  1  0
107108  1  0
108109  1  0
109110  1  0
108111  2  0
111112  1  0
111113  1  0
113114  1  0
105115  1  0
115116  2  0
116117  1  0
117118  1  0
118119  1  0
119120  1  0
120121  1  0
121122  1  0
120123  2  0
123124  1  0
124125  1  0
123126  1  0
117127  2  0
127128  1  0
116129  1  0
129130  2  0
130131  1  0
130132  1  0
132133  1  0
133134  1  0
134135  2  0
135136  1  0
136137  1  0
137138  2  0
138139  1  0
139140  1  0
138141  1  0
141142  2  0
 27  1  1  0
 57 31  1  0
 65 61  2  0
 98 72  1  0
128102  1  0
136132  2  0
 26  3  1  0
 56 33  1  0
 71 64  1  0
 97 74  1  0
127104  1  0
142135  1  0
 12  5  2  0
 30 14  1  0
 42 35  2  0
 60 44  1  0
 83 76  2  0
101 85  1  0
113106  2  0
131115  1  0
 23 17  2  0
 53 47  2  0
 94 88  2  0
124118  2  0
  1143  1  0
  2144  1  0
  8145  1  0
  8146  1  0
  9147  1  0
  9148  1  0
  9149  1  0
 20150  1  0
 20151  1  0
 21152  1  0
 21153  1  0
 21154  1  0
 28155  1  0
 32156  1  0
 38157  1  0
 38158  1  0
 39159  1  0
 39160  1  0
 39161  1  0
 50162  1  0
 50163  1  0
 51164  1  0
 51165  1  0
 51166  1  0
 58167  1  0
 66168  1  0
 69169  1  0
 69170  1  0
 69171  1  0
 70172  1  0
 71173  1  0
 73174  1  0
 79175  1  0
 79176  1  0
 80177  1  0
 80178  1  0
 80179  1  0
 91180  1  0
 91181  1  0
 92182  1  0
 92183  1  0
 92184  1  0
 99185  1  0
103186  1  0
109187  1  0
109188  1  0
110189  1  0
110190  1  0
110191  1  0
121192  1  0
121193  1  0
122194  1  0
122195  1  0
122196  1  0
129197  1  0
134198  1  0
137199  1  0
140200  1  0
140201  1  0
140202  1  0
141203  1  0
142204  1  0
M  END

