
     RDKit          3D

204227  0  0  0  0  0  0  0  0999 V2000
    4.2706    1.9560   15.2556 C   0  0  0  0  0  0  0  0  0  0  0  0
    3.5303    0.7659   14.3249 S   0  0  0  0  0  0  0  0  0  0  0  0
    3.5719    1.5848   12.8528 C   0  0  0  0  0  0  0  0  0  0  0  0
    4.1926    2.8157   13.0744 C   0  0  0  0  0  0  0  0  0  0  0  0
    4.5768    3.0147   14.4100 C   0  0  0  0  0  0  0  0  0  0  0  0
    5.2165    4.1945   14.8051 C   0  0  0  0  0  0  0  0  0  0  0  0
    5.4761    5.1934   13.8537 C   0  0  0  0  0  0  0  0  0  0  0  0
    6.1186    6.3659   14.2798 O   0  0  0  0  0  0  0  0  0  0  0  0
    6.5003    7.4337   13.4173 C   0  0  0  0  0  0  0  0  0  0  0  0
    5.0750    4.9976   12.5119 C   0  0  0  0  0  0  0  0  0  0  0  0
    4.4252    3.8181   12.1234 C   0  0  0  0  0  0  0  0  0  0  0  0
    3.1767    1.0094   11.5543 C   0  0  0  0  0  0  0  0  0  0  0  0
    4.1171    1.0659   10.1638 S   0  0  0  0  0  0  0  0  0  0  0  0
    3.0882    0.1993    9.1495 C   0  0  0  0  0  0  0  0  0  0  0  0
    1.9687   -0.1720    9.9144 C   0  0  0  0  0  0  0  0  0  0  0  0
    2.0243    0.2838   11.2515 C   0  0  0  0  0  0  0  0  0  0  0  0
    0.9699    0.0292   12.1325 C   0  0  0  0  0  0  0  0  0  0  0  0
   -0.1382   -0.7166   11.7027 C   0  0  0  0  0  0  0  0  0  0  0  0
   -1.1720   -0.9577   12.6204 O   0  0  0  0  0  0  0  0  0  0  0  0
   -2.3657   -1.6646   12.3174 C   0  0  0  0  0  0  0  0  0  0  0  0
   -0.1808   -1.1977   10.3781 C   0  0  0  0  0  0  0  0  0  0  0  0
    0.8706   -0.9359    9.4885 C   0  0  0  0  0  0  0  0  0  0  0  0
    3.3596    0.0123    7.7072 C   0  0  0  0  0  0  0  0  0  0  0  0
    4.5892    0.2812    7.1020 C   0  0  0  0  0  0  0  0  0  0  0  0
    4.5598    0.1913    5.7000 C   0  0  0  0  0  0  0  0  0  0  0  0
    5.6212    0.4923    4.8189 C   0  0  0  0  0  0  0  0  0  0  0  0
    6.9825    0.7870    5.3176 C   0  0  0  0  0  0  0  0  0  0  0  0
    7.8546    2.1893    4.9918 S   0  0  0  0  0  0  0  0  0  0  0  0
    9.2107    1.7755    5.8960 C   0  0  0  0  0  0  0  0  0  0  0  0
   10.4819    2.5747    5.9370 C   0  0  0  0  0  0  0  0  0  0  0  0
   11.4206    2.1318    4.8198 C   0  0  0  0  0  0  0  0  0  0  0  0
    9.0080    0.5159    6.4519 C   0  0  0  0  0  0  0  0  0  0  0  0
   10.2065   -0.3179    7.4340 Cl  0  0  0  0  0  0  0  0  0  0  0  0
    7.7600   -0.0376    6.1332 C   0  0  0  0  0  0  0  0  0  0  0  0
    7.2689   -1.6459    6.6499 Cl  0  0  0  0  0  0  0  0  0  0  0  0
    5.3173    0.5055    3.4426 C   0  0  0  0  0  0  0  0  0  0  0  0
    4.0513    0.1660    2.9542 C   0  0  0  0  0  0  0  0  0  0  0  0
    3.0063   -0.1762    3.8352 C   0  0  0  0  0  0  0  0  0  0  0  0
    1.6565   -0.5083    3.3584 C   0  0  0  0  0  0  0  0  0  0  0  0
    0.5810    0.5873    2.6744 S   0  0  0  0  0  0  0  0  0  0  0  0
   -0.6438   -0.5314    2.3880 C   0  0  0  0  0  0  0  0  0  0  0  0
   -1.9544   -0.2015    1.7343 C   0  0  0  0  0  0  0  0  0  0  0  0
   -2.8704    0.5533    2.6931 C   0  0  0  0  0  0  0  0  0  0  0  0
   -0.2160   -1.7864    2.8231 C   0  0  0  0  0  0  0  0  0  0  0  0
    1.0729   -1.7687    3.3722 C   0  0  0  0  0  0  0  0  0  0  0  0
    1.8843   -3.1977    3.9957 Cl  0  0  0  0  0  0  0  0  0  0  0  0
   -1.1797   -3.2496    2.6724 Cl  0  0  0  0  0  0  0  0  0  0  0  0
    3.2972   -0.1403    5.2050 C   0  0  0  0  0  0  0  0  0  0  0  0
    2.2321   -0.3142    6.4948 S   0  0  0  0  0  0  0  0  0  0  0  0
    3.9407    0.2988    1.5662 C   0  0  0  0  0  0  0  0  0  0  0  0
    5.1022    0.7689    0.9587 C   0  0  0  0  0  0  0  0  0  0  0  0
    6.2718    1.0191    2.1482 S   0  0  0  0  0  0  0  0  0  0  0  0
    5.0602    1.4498   -0.3347 C   0  0  0  0  0  0  0  0  0  0  0  0
    4.3826    2.6614   -0.4530 C   0  0  0  0  0  0  0  0  0  0  0  0
    3.7614    2.8369   -1.6951 C   0  0  0  0  0  0  0  0  0  0  0  0
    2.7832    3.8062   -1.9923 C   0  0  0  0  0  0  0  0  0  0  0  0
    2.3724    4.8164   -1.0013 C   0  0  0  0  0  0  0  0  0  0  0  0
    1.6150    4.4855    0.4625 S   0  0  0  0  0  0  0  0  0  0  0  0
    1.5777    6.0792    1.0026 C   0  0  0  0  0  0  0  0  0  0  0  0
    1.0343    6.5202    2.3323 C   0  0  0  0  0  0  0  0  0  0  0  0
   -0.3941    7.0283    2.1905 C   0  0  0  0  0  0  0  0  0  0  0  0
    2.1322    6.8983    0.0206 C   0  0  0  0  0  0  0  0  0  0  0  0
    2.2974    8.6400    0.1902 Cl  0  0  0  0  0  0  0  0  0  0  0  0
    2.5759    6.1898   -1.1042 C   0  0  0  0  0  0  0  0  0  0  0  0
    3.3697    6.9459   -2.4818 Cl  0  0  0  0  0  0  0  0  0  0  0  0
    2.0847    3.6590   -3.2007 C   0  0  0  0  0  0  0  0  0  0  0  0
    2.3664    2.6348   -4.1118 C   0  0  0  0  0  0  0  0  0  0  0  0
    3.3891    1.7010   -3.8406 C   0  0  0  0  0  0  0  0  0  0  0  0
    3.6924    0.5975   -4.7633 C   0  0  0  0  0  0  0  0  0  0  0  0
    2.6932   -0.7170   -5.0808 S   0  0  0  0  0  0  0  0  0  0  0  0
    3.6711   -1.3951   -6.2701 C   0  0  0  0  0  0  0  0  0  0  0  0
    3.3602   -2.6555   -7.0204 C   0  0  0  0  0  0  0  0  0  0  0  0
    4.0453   -3.8547   -6.3766 C   0  0  0  0  0  0  0  0  0  0  0  0
    4.8173   -0.6099   -6.4146 C   0  0  0  0  0  0  0  0  0  0  0  0
    4.8292    0.5071   -5.5685 C   0  0  0  0  0  0  0  0  0  0  0  0
    6.1144    1.7054   -5.5617 Cl  0  0  0  0  0  0  0  0  0  0  0  0
    6.0973   -0.9570   -7.5733 Cl  0  0  0  0  0  0  0  0  0  0  0  0
    4.0384    1.8073   -2.5985 C   0  0  0  0  0  0  0  0  0  0  0  0
    4.9488    0.6325   -1.8080 S   0  0  0  0  0  0  0  0  0  0  0  0
    1.4192    2.5389   -5.1421 C   0  0  0  0  0  0  0  0  0  0  0  0
    0.3457    3.4187   -4.9881 C   0  0  0  0  0  0  0  0  0  0  0  0
    0.6272    4.3776   -3.6231 S   0  0  0  0  0  0  0  0  0  0  0  0
   -1.0059    3.0834   -5.4538 C   0  0  0  0  0  0  0  0  0  0  0  0
   -1.2867    2.3976   -6.6368 C   0  0  0  0  0  0  0  0  0  0  0  0
   -2.4814    1.6529   -6.5797 C   0  0  0  0  0  0  0  0  0  0  0  0
   -2.9476    0.7256   -7.5410 C   0  0  0  0  0  0  0  0  0  0  0  0
   -2.3240    0.5848   -8.8695 C   0  0  0  0  0  0  0  0  0  0  0  0
   -0.7100    0.2077   -9.1626 S   0  0  0  0  0  0  0  0  0  0  0  0
   -0.7903    0.3571  -10.8358 C   0  0  0  0  0  0  0  0  0  0  0  0
    0.3997    0.3149  -11.7482 C   0  0  0  0  0  0  0  0  0  0  0  0
    1.0068    1.7061  -11.8924 C   0  0  0  0  0  0  0  0  0  0  0  0
   -2.0882    0.7238  -11.1867 C   0  0  0  0  0  0  0  0  0  0  0  0
   -2.5840    1.0739  -12.8385 Cl  0  0  0  0  0  0  0  0  0  0  0  0
   -2.9498    0.8380  -10.0861 C   0  0  0  0  0  0  0  0  0  0  0  0
   -4.6243    1.3599  -10.2225 Cl  0  0  0  0  0  0  0  0  0  0  0  0
   -4.0293   -0.0927   -7.1640 C   0  0  0  0  0  0  0  0  0  0  0  0
   -4.6443    0.0145   -5.9131 C   0  0  0  0  0  0  0  0  0  0  0  0
   -4.2324    0.9925   -4.9890 C   0  0  0  0  0  0  0  0  0  0  0  0
   -4.7835    1.0421   -3.6242 C   0  0  0  0  0  0  0  0  0  0  0  0
   -4.5418   -0.1372   -2.4527 S   0  0  0  0  0  0  0  0  0  0  0  0
   -5.5374    0.5608   -1.2927 C   0  0  0  0  0  0  0  0  0  0  0  0
   -5.8993   -0.0843    0.0124 C   0  0  0  0  0  0  0  0  0  0  0  0
   -7.1246   -0.9795   -0.1514 C   0  0  0  0  0  0  0  0  0  0  0  0
   -6.0936    1.7247   -1.8198 C   0  0  0  0  0  0  0  0  0  0  0  0
   -5.6598    2.0012   -3.1275 C   0  0  0  0  0  0  0  0  0  0  0  0
   -6.2271    3.3664   -4.0738 Cl  0  0  0  0  0  0  0  0  0  0  0  0
   -7.2662    2.7170   -0.9658 Cl  0  0  0  0  0  0  0  0  0  0  0  0
   -3.1463    1.7951   -5.3589 C   0  0  0  0  0  0  0  0  0  0  0  0
   -2.2642    2.8097   -4.3610 S   0  0  0  0  0  0  0  0  0  0  0  0
   -5.5526   -1.0183   -5.6522 C   0  0  0  0  0  0  0  0  0  0  0  0
   -5.6276   -1.9575   -6.6739 C   0  0  0  0  0  0  0  0  0  0  0  0
   -4.5984   -1.4879   -7.9306 S   0  0  0  0  0  0  0  0  0  0  0  0
   -6.1132   -3.3266   -6.4646 C   0  0  0  0  0  0  0  0  0  0  0  0
   -6.5428   -4.2291   -7.4385 C   0  0  0  0  0  0  0  0  0  0  0  0
   -6.7482   -5.5209   -6.9180 C   0  0  0  0  0  0  0  0  0  0  0  0
   -7.2118   -6.6523   -7.6216 C   0  0  0  0  0  0  0  0  0  0  0  0
   -7.5767   -6.5985   -9.0459 C   0  0  0  0  0  0  0  0  0  0  0  0
   -9.1313   -6.8319   -9.6444 S   0  0  0  0  0  0  0  0  0  0  0  0
   -8.7151   -6.7432  -11.2715 C   0  0  0  0  0  0  0  0  0  0  0  0
   -9.6763   -6.9389  -12.4045 C   0  0  0  0  0  0  0  0  0  0  0  0
   -9.9802   -8.4178  -12.6069 C   0  0  0  0  0  0  0  0  0  0  0  0
   -7.3367   -6.5531  -11.3646 C   0  0  0  0  0  0  0  0  0  0  0  0
   -6.4665   -6.5024  -12.8934 Cl  0  0  0  0  0  0  0  0  0  0  0  0
   -6.6995   -6.4668  -10.1177 C   0  0  0  0  0  0  0  0  0  0  0  0
   -4.9605   -6.2924   -9.9281 Cl  0  0  0  0  0  0  0  0  0  0  0  0
   -7.3164   -7.8565   -6.8997 C   0  0  0  0  0  0  0  0  0  0  0  0
   -6.9717   -7.9575   -5.5474 C   0  0  0  0  0  0  0  0  0  0  0  0
   -6.5285   -6.8267   -4.8384 C   0  0  0  0  0  0  0  0  0  0  0  0
   -6.1248   -6.8928   -3.4219 C   0  0  0  0  0  0  0  0  0  0  0  0
   -4.5541   -6.6577   -2.8679 S   0  0  0  0  0  0  0  0  0  0  0  0
   -4.9204   -6.7965   -1.2303 C   0  0  0  0  0  0  0  0  0  0  0  0
   -3.9122   -6.7232   -0.1195 C   0  0  0  0  0  0  0  0  0  0  0  0
   -3.5184   -8.1197    0.3437 C   0  0  0  0  0  0  0  0  0  0  0  0
   -6.2885   -7.0397   -1.0979 C   0  0  0  0  0  0  0  0  0  0  0  0
   -6.9629   -7.0924   -2.3288 C   0  0  0  0  0  0  0  0  0  0  0  0
   -8.6975   -7.3256   -2.4715 Cl  0  0  0  0  0  0  0  0  0  0  0  0
   -7.0920   -7.2385    0.4495 Cl  0  0  0  0  0  0  0  0  0  0  0  0
   -6.4454   -5.6241   -5.5550 C   0  0  0  0  0  0  0  0  0  0  0  0
   -5.9712   -4.1221   -4.9851 S   0  0  0  0  0  0  0  0  0  0  0  0
   -7.0752   -9.2639   -5.0453 C   0  0  0  0  0  0  0  0  0  0  0  0
   -7.5100  -10.1830   -5.9987 C   0  0  0  0  0  0  0  0  0  0  0  0
   -7.7553   -9.3806   -7.4630 S   0  0  0  0  0  0  0  0  0  0  0  0
    4.4854    1.8961   16.3148 H   0  0  0  0  0  0  0  0  0  0  0  0
    5.5130    4.3387   15.8379 H   0  0  0  0  0  0  0  0  0  0  0  0
    5.6093    7.8596   12.9097 H   0  0  0  0  0  0  0  0  0  0  0  0
    7.2330    7.0719   12.6613 H   0  0  0  0  0  0  0  0  0  0  0  0
    6.9814    8.2359   14.0166 H   0  0  0  0  0  0  0  0  0  0  0  0
    5.2604    5.7553   11.7622 H   0  0  0  0  0  0  0  0  0  0  0  0
    4.1063    3.7063   11.0961 H   0  0  0  0  0  0  0  0  0  0  0  0
    0.9820    0.4115   13.1446 H   0  0  0  0  0  0  0  0  0  0  0  0
   -2.9328   -1.1293   11.5239 H   0  0  0  0  0  0  0  0  0  0  0  0
   -2.1253   -2.6988   11.9879 H   0  0  0  0  0  0  0  0  0  0  0  0
   -2.9959   -1.7208   13.2275 H   0  0  0  0  0  0  0  0  0  0  0  0
   -1.0194   -1.7856   10.0240 H   0  0  0  0  0  0  0  0  0  0  0  0
    0.8152   -1.3505    8.4963 H   0  0  0  0  0  0  0  0  0  0  0  0
    5.4667    0.5885    7.6618 H   0  0  0  0  0  0  0  0  0  0  0  0
   10.9843    2.4384    6.9218 H   0  0  0  0  0  0  0  0  0  0  0  0
   10.2471    3.6544    5.8157 H   0  0  0  0  0  0  0  0  0  0  0  0
   12.3298    2.7750    4.8209 H   0  0  0  0  0  0  0  0  0  0  0  0
   11.7258    1.0724    4.9647 H   0  0  0  0  0  0  0  0  0  0  0  0
   10.9151    2.2353    3.8329 H   0  0  0  0  0  0  0  0  0  0  0  0
   -1.7635    0.4289    0.8379 H   0  0  0  0  0  0  0  0  0  0  0  0
   -2.4711   -1.1249    1.3922 H   0  0  0  0  0  0  0  0  0  0  0  0
   -3.1384   -0.0826    3.5689 H   0  0  0  0  0  0  0  0  0  0  0  0
   -3.8034    0.8301    2.1597 H   0  0  0  0  0  0  0  0  0  0  0  0
   -2.3775    1.4854    3.0462 H   0  0  0  0  0  0  0  0  0  0  0  0
    3.0148    0.1625    1.0237 H   0  0  0  0  0  0  0  0  0  0  0  0
    4.2049    3.3003    0.3988 H   0  0  0  0  0  0  0  0  0  0  0  0
    1.6834    7.3140    2.7536 H   0  0  0  0  0  0  0  0  0  0  0  0
    1.0475    5.6625    3.0402 H   0  0  0  0  0  0  0  0  0  0  0  0
   -0.7327    7.4512    3.1624 H   0  0  0  0  0  0  0  0  0  0  0  0
   -1.0714    6.1906    1.9090 H   0  0  0  0  0  0  0  0  0  0  0  0
   -0.4522    7.8291    1.4187 H   0  0  0  0  0  0  0  0  0  0  0  0
    3.6906   -2.5594   -8.0757 H   0  0  0  0  0  0  0  0  0  0  0  0
    2.2590   -2.8181   -7.0274 H   0  0  0  0  0  0  0  0  0  0  0  0
    3.6449   -4.0240   -5.3534 H   0  0  0  0  0  0  0  0  0  0  0  0
    5.1450   -3.6945   -6.3198 H   0  0  0  0  0  0  0  0  0  0  0  0
    3.8499   -4.7622   -6.9868 H   0  0  0  0  0  0  0  0  0  0  0  0
    1.4131    1.7382   -5.8707 H   0  0  0  0  0  0  0  0  0  0  0  0
   -0.5810    2.3526   -7.4524 H   0  0  0  0  0  0  0  0  0  0  0  0
    0.1007   -0.0673  -12.7469 H   0  0  0  0  0  0  0  0  0  0  0  0
    1.1604   -0.3792  -11.3317 H   0  0  0  0  0  0  0  0  0  0  0  0
    1.9101    1.6514  -12.5349 H   0  0  0  0  0  0  0  0  0  0  0  0
    1.3026    2.1088  -10.9008 H   0  0  0  0  0  0  0  0  0  0  0  0
    0.2744    2.3959  -12.3682 H   0  0  0  0  0  0  0  0  0  0  0  0
   -6.1054    0.6988    0.7750 H   0  0  0  0  0  0  0  0  0  0  0  0
   -5.0439   -0.6955    0.3730 H   0  0  0  0  0  0  0  0  0  0  0  0
   -7.3820   -1.4368    0.8251 H   0  0  0  0  0  0  0  0  0  0  0  0
   -7.9942   -0.3829   -0.5058 H   0  0  0  0  0  0  0  0  0  0  0  0
   -6.9130   -1.7927   -0.8813 H   0  0  0  0  0  0  0  0  0  0  0  0
   -6.0678   -1.1446   -4.7078 H   0  0  0  0  0  0  0  0  0  0  0  0
   -6.6877   -3.9609   -8.4753 H   0  0  0  0  0  0  0  0  0  0  0  0
   -9.2567   -6.5169  -13.3426 H   0  0  0  0  0  0  0  0  0  0  0  0
  -10.6220   -6.3989  -12.1816 H   0  0  0  0  0  0  0  0  0  0  0  0
  -10.5281   -8.8185  -11.7276 H   0  0  0  0  0  0  0  0  0  0  0  0
   -9.0413   -8.9915  -12.7478 H   0  0  0  0  0  0  0  0  0  0  0  0
  -10.6139   -8.5419  -13.5091 H   0  0  0  0  0  0  0  0  0  0  0  0
   -4.3322   -6.1462    0.7292 H   0  0  0  0  0  0  0  0  0  0  0  0
   -3.0073   -6.1872   -0.4809 H   0  0  0  0  0  0  0  0  0  0  0  0
   -4.4013   -8.6502    0.7600 H   0  0  0  0  0  0  0  0  0  0  0  0
   -3.1034   -8.7036   -0.5040 H   0  0  0  0  0  0  0  0  0  0  0  0
   -2.7459   -8.0435    1.1366 H   0  0  0  0  0  0  0  0  0  0  0  0
   -6.8298   -9.5440   -4.0312 H   0  0  0  0  0  0  0  0  0  0  0  0
   -7.6403  -11.2448   -5.8303 H   0  0  0  0  0  0  0  0  0  0  0  0
  1  2  1  0
  2  3  1  0
  3  4  2  0
  4  5  1  0
  5  6  1  0
  6  7  2  0
  7  8  1  0
  8  9  1  0
  7 10  1  0
 10 11  2  0
  3 12  1  0
 12 13  1  0
 13 14  1  0
 14 15  2  0
 15 16  1  0
 16 17  1  0
 17 18  2  0
 18 19  1  0
 19 20  1  0
 18 21  1  0
 21 22  2  0
 14 23  1  0
 23 24  2  0
 24 25  1  0
 25 26  2  0
 26 27  1  0
 27 28  1  0
 28 29  1  0
 29 30  1  0
 30 31  1  0
 29 32  2  0
 32 33  1  0
 32 34  1  0
 34 35  1  0
 26 36  1  0
 36 37  2  0
 37 38  1  0
 38 39  1  0
 39 40  1  0
 40 41  1  0
 41 42  1  0
 42 43  1  0
 41 44  2  0
 44 45  1  0
 45 46  1  0
 44 47  1  0
 38 48  2  0
 48 49  1  0
 37 50  1  0
 50 51  2  0
 51 52  1  0
 51 53  1  0
 53 54  2  0
 54 55  1  0
 55 56  2  0
 56 57  1  0
 57 58  1  0
 58 59  1  0
 59 60  1  0
 60 61  1  0
 59 62  2  0
 62 63  1  0
 62 64  1  0
 64 65  1  0
 56 66  1  0
 66 67  2  0
 67 68  1  0
 68 69  1  0
 69 70  1  0
 70 71  1  0
 71 72  1  0
 72 73  1  0
 71 74  2  0
 74 75  1  0
 75 76  1  0
 74 77  1  0
 68 78  2  0
 78 79  1  0
 67 80  1  0
 80 81  2  0
 81 82  1  0
 81 83  1  0
 83 84  2  0
 84 85  1  0
 85 86  2  0
 86 87  1  0
 87 88  1  0
 88 89  1  0
 89 90  1  0
 90 91  1  0
 89 92  2  0
 92 93  1  0
 92 94  1  0
 94 95  1  0
 86 96  1  0
 96 97  2  0
 97 98  1  0
 98 99  1  0
 99100  1  0
100101  1  0
101102  1  0
102103  1  0
101104  2  0
104105  1  0
105106  1  0
104107  1  0
 98108  2  0
108109  1  0
 97110  1  0
110111  2  0
111112  1  0
111113  1  0
113114  2  0
114115  1  0
115116  2  0
116117  1  0
117118  1  0
118119  1  0
119120  1  0
120121  1  0
119122  2  0
122123  1  0
122124  1  0
124125  1  0
116126  1  0
126127  2  0
127128  1  0
128129  1  0
129130  1  0
130131  1  0
131132  1  0
132133  1  0
131134  2  0
134135  1  0
135136  1  0
134137  1  0
128138  2  0
138139  1  0
127140  1  0
140141  2  0
141142  1  0
  5  1  2  0
 16 12  2  0
 49 23  1  0
 79 53  1  0
109 83  1  0
139113  1  0
 11  4  1  0
 22 15  1  0
 48 25  1  0
 78 55  1  0
108 85  1  0
138115  1  0
 34 27  2  0
 52 36  1  0
 64 57  2  0
 82 66  1  0
 94 87  2  0
112 96  1  0
124117  2  0
142126  1  0
 45 39  2  0
 75 69  2  0
105 99  2  0
135129  2  0
  1143  1  0
  6144  1  0
  9145  1  0
  9146  1  0
  9147  1  0
 10148  1  0
 11149  1  0
 17150  1  0
 20151  1  0
 20152  1  0
 20153  1  0
 21154  1  0
 22155  1  0
 24156  1  0
 30157  1  0
 30158  1  0
 31159  1  0
 31160  1  0
 31161  1  0
 42162  1  0
 42163  1  0
 43164  1  0
 43165  1  0
 43166  1  0
 50167  1  0
 54168  1  0
 60169  1  0
 60170  1  0
 61171  1  0
 61172  1  0
 61173  1  0
 72174  1  0
 72175  1  0
 73176  1  0
 73177  1  0
 73178  1  0
 80179  1  0
 84180  1  0
 90181  1  0
 90182  1  0
 91183  1  0
 91184  1  0
 91185  1  0
102186  1  0
102187  1  0
103188  1  0
103189  1  0
103190  1  0
110191  1  0
114192  1  0
120193  1  0
120194  1  0
121195  1  0
121196  1  0
121197  1  0
132198  1  0
132199  1  0
133200  1  0
133201  1  0
133202  1  0
140203  1  0
141204  1  0
M  END

