
     RDKit          3D

 92 99  0  0  0  0  0  0  0  0999 V2000
   10.2278   -4.7277    0.7519 C   0  0  0  0  0  0  0  0  0  0  0  0
    9.2904   -4.8870    1.7616 C   0  0  0  0  0  0  0  0  0  0  0  0
    8.0246   -4.3580    1.4423 C   0  0  0  0  0  0  0  0  0  0  0  0
    6.9099   -4.4036    2.2928 O   0  0  0  0  0  0  0  0  0  0  0  0
    6.9202   -4.8983    3.6310 C   0  0  0  0  0  0  0  0  0  0  0  0
    7.5698   -3.8905    4.5737 C   0  0  0  0  0  0  0  0  0  0  0  0
    7.9647   -3.7904    0.1677 C   0  0  0  0  0  0  0  0  0  0  0  0
    9.4881   -3.9408   -0.5371 S   0  0  0  0  0  0  0  0  0  0  0  0
    6.7832   -3.1867   -0.4844 C   0  0  0  0  0  0  0  0  0  0  0  0
    6.7416   -2.6905   -1.7862 C   0  0  0  0  0  0  0  0  0  0  0  0
    5.4707   -2.2112   -2.1610 C   0  0  0  0  0  0  0  0  0  0  0  0
    5.1619   -1.6474   -3.4089 O   0  0  0  0  0  0  0  0  0  0  0  0
    6.1065   -1.4134   -4.4526 C   0  0  0  0  0  0  0  0  0  0  0  0
    6.9407   -0.1774   -4.1492 C   0  0  0  0  0  0  0  0  0  0  0  0
    4.5160   -2.3406   -1.1555 C   0  0  0  0  0  0  0  0  0  0  0  0
    5.2479   -3.0186    0.1962 S   0  0  0  0  0  0  0  0  0  0  0  0
    3.0925   -1.9775   -1.2358 C   0  0  0  0  0  0  0  0  0  0  0  0
    2.2683   -1.1101   -0.0533 S   0  0  0  0  0  0  0  0  0  0  0  0
    0.7266   -1.2270   -0.7282 C   0  0  0  0  0  0  0  0  0  0  0  0
    0.8419   -1.9699   -1.9098 C   0  0  0  0  0  0  0  0  0  0  0  0
    2.1595   -2.3891   -2.1903 C   0  0  0  0  0  0  0  0  0  0  0  0
    2.4209   -3.2124   -3.2943 C   0  0  0  0  0  0  0  0  0  0  0  0
    1.3726   -3.5987   -4.1432 C   0  0  0  0  0  0  0  0  0  0  0  0
    1.6733   -4.4169   -5.2439 O   0  0  0  0  0  0  0  0  0  0  0  0
    0.7089   -4.9170   -6.1607 C   0  0  0  0  0  0  0  0  0  0  0  0
    0.0570   -3.1674   -3.8613 C   0  0  0  0  0  0  0  0  0  0  0  0
   -0.2128   -2.3707   -2.7415 C   0  0  0  0  0  0  0  0  0  0  0  0
   -0.4897   -0.6017   -0.1634 C   0  0  0  0  0  0  0  0  0  0  0  0
   -1.6718    0.1913   -1.0671 S   0  0  0  0  0  0  0  0  0  0  0  0
   -2.6286    0.7061    0.2188 C   0  0  0  0  0  0  0  0  0  0  0  0
   -2.0332    0.2509    1.3995 C   0  0  0  0  0  0  0  0  0  0  0  0
   -0.8400   -0.4743    1.1864 C   0  0  0  0  0  0  0  0  0  0  0  0
   -0.1617   -1.0491    2.2725 C   0  0  0  0  0  0  0  0  0  0  0  0
   -0.6546   -0.8658    3.5810 C   0  0  0  0  0  0  0  0  0  0  0  0
   -0.0030   -1.3967    4.7047 O   0  0  0  0  0  0  0  0  0  0  0  0
    1.1561   -2.2228    4.6496 C   0  0  0  0  0  0  0  0  0  0  0  0
   -1.8413   -0.1423    3.7804 C   0  0  0  0  0  0  0  0  0  0  0  0
   -2.5458    0.3964    2.6965 C   0  0  0  0  0  0  0  0  0  0  0  0
   -3.8995    1.4326    0.0579 C   0  0  0  0  0  0  0  0  0  0  0  0
   -4.3958    2.4435    0.8741 C   0  0  0  0  0  0  0  0  0  0  0  0
   -5.6494    2.9309    0.4564 C   0  0  0  0  0  0  0  0  0  0  0  0
   -6.3491    3.9527    1.1119 O   0  0  0  0  0  0  0  0  0  0  0  0
   -5.9080    4.5771    2.3122 C   0  0  0  0  0  0  0  0  0  0  0  0
   -6.9416    5.5983    2.7609 C   0  0  0  0  0  0  0  0  0  0  0  0
   -6.1359    2.3036   -0.6948 C   0  0  0  0  0  0  0  0  0  0  0  0
   -4.9939    1.1705   -1.1904 S   0  0  0  0  0  0  0  0  0  0  0  0
   -7.4246    2.5338   -1.3800 C   0  0  0  0  0  0  0  0  0  0  0  0
   -8.4850    3.3248   -0.9413 C   0  0  0  0  0  0  0  0  0  0  0  0
   -9.5877    3.3073   -1.8154 C   0  0  0  0  0  0  0  0  0  0  0  0
  -10.7803    4.0093   -1.6043 O   0  0  0  0  0  0  0  0  0  0  0  0
  -11.0112    4.8435   -0.4719 C   0  0  0  0  0  0  0  0  0  0  0  0
  -12.3908    5.4725   -0.5779 C   0  0  0  0  0  0  0  0  0  0  0  0
   -9.4037    2.5143   -2.9409 C   0  0  0  0  0  0  0  0  0  0  0  0
   -7.8719    1.8289   -2.8458 S   0  0  0  0  0  0  0  0  0  0  0  0
   11.2560   -5.0622    0.7927 H   0  0  0  0  0  0  0  0  0  0  0  0
    9.5286   -5.3825    2.6950 H   0  0  0  0  0  0  0  0  0  0  0  0
    5.8674   -5.0520    3.9513 H   0  0  0  0  0  0  0  0  0  0  0  0
    7.4335   -5.8829    3.6885 H   0  0  0  0  0  0  0  0  0  0  0  0
    7.0616   -2.9044    4.4908 H   0  0  0  0  0  0  0  0  0  0  0  0
    8.6451   -3.7637    4.3308 H   0  0  0  0  0  0  0  0  0  0  0  0
    7.4853   -4.2564    5.6191 H   0  0  0  0  0  0  0  0  0  0  0  0
    7.6021   -2.6851   -2.4426 H   0  0  0  0  0  0  0  0  0  0  0  0
    5.5506   -1.2353   -5.3974 H   0  0  0  0  0  0  0  0  0  0  0  0
    6.7551   -2.3008   -4.6002 H   0  0  0  0  0  0  0  0  0  0  0  0
    7.4790   -0.2929   -3.1861 H   0  0  0  0  0  0  0  0  0  0  0  0
    7.6878   -0.0222   -4.9557 H   0  0  0  0  0  0  0  0  0  0  0  0
    6.2834    0.7130   -4.0895 H   0  0  0  0  0  0  0  0  0  0  0  0
    3.4195   -3.5753   -3.4894 H   0  0  0  0  0  0  0  0  0  0  0  0
    0.1998   -4.0772   -6.6773 H   0  0  0  0  0  0  0  0  0  0  0  0
   -0.0337   -5.5444   -5.6267 H   0  0  0  0  0  0  0  0  0  0  0  0
    1.2241   -5.5418   -6.9186 H   0  0  0  0  0  0  0  0  0  0  0  0
   -0.7695   -3.4591   -4.4937 H   0  0  0  0  0  0  0  0  0  0  0  0
   -1.2376   -2.1030   -2.5232 H   0  0  0  0  0  0  0  0  0  0  0  0
    0.7225   -1.6409    2.1094 H   0  0  0  0  0  0  0  0  0  0  0  0
    1.4428   -2.5130    5.6810 H   0  0  0  0  0  0  0  0  0  0  0  0
    1.9955   -1.6680    4.1869 H   0  0  0  0  0  0  0  0  0  0  0  0
    0.9391   -3.1441    4.0685 H   0  0  0  0  0  0  0  0  0  0  0  0
   -2.2347   -0.0228    4.7843 H   0  0  0  0  0  0  0  0  0  0  0  0
   -3.4838    0.8961    2.8796 H   0  0  0  0  0  0  0  0  0  0  0  0
   -3.8564    2.8395    1.7234 H   0  0  0  0  0  0  0  0  0  0  0  0
   -4.9361    5.0866    2.1382 H   0  0  0  0  0  0  0  0  0  0  0  0
   -5.7847    3.8115    3.1092 H   0  0  0  0  0  0  0  0  0  0  0  0
   -6.6079    6.0828    3.7008 H   0  0  0  0  0  0  0  0  0  0  0  0
   -7.9118    5.0927    2.9429 H   0  0  0  0  0  0  0  0  0  0  0  0
   -7.0761    6.3776    1.9832 H   0  0  0  0  0  0  0  0  0  0  0  0
   -8.4813    3.8850   -0.0194 H   0  0  0  0  0  0  0  0  0  0  0  0
  -10.9490    4.2379    0.4603 H   0  0  0  0  0  0  0  0  0  0  0  0
  -10.2452    5.6482   -0.4400 H   0  0  0  0  0  0  0  0  0  0  0  0
  -12.5694    6.1318    0.2971 H   0  0  0  0  0  0  0  0  0  0  0  0
  -13.1700    4.6818   -0.5966 H   0  0  0  0  0  0  0  0  0  0  0  0
  -12.4595    6.0786   -1.5060 H   0  0  0  0  0  0  0  0  0  0  0  0
  -10.1226    2.3656   -3.7370 H   0  0  0  0  0  0  0  0  0  0  0  0
  1  2  2  0
  2  3  1  0
  3  4  1  0
  4  5  1  0
  5  6  1  0
  3  7  2  0
  7  8  1  0
  7  9  1  0
  9 10  2  0
 10 11  1  0
 11 12  1  0
 12 13  1  0
 13 14  1  0
 11 15  2  0
 15 16  1  0
 15 17  1  0
 17 18  1  0
 18 19  1  0
 19 20  2  0
 20 21  1  0
 21 22  1  0
 22 23  2  0
 23 24  1  0
 24 25  1  0
 23 26  1  0
 26 27  2  0
 19 28  1  0
 28 29  1  0
 29 30  1  0
 30 31  2  0
 31 32  1  0
 32 33  1  0
 33 34  2  0
 34 35  1  0
 35 36  1  0
 34 37  1  0
 37 38  2  0
 30 39  1  0
 39 40  2  0
 40 41  1  0
 41 42  1  0
 42 43  1  0
 43 44  1  0
 41 45  2  0
 45 46  1  0
 45 47  1  0
 47 48  2  0
 48 49  1  0
 49 50  1  0
 50 51  1  0
 51 52  1  0
 49 53  2  0
 53 54  1  0
  8  1  1  0
 16  9  1  0
 21 17  2  0
 32 28  2  0
 46 39  1  0
 54 47  1  0
 27 20  1  0
 38 31  1  0
  1 55  1  0
  2 56  1  0
  5 57  1  0
  5 58  1  0
  6 59  1  0
  6 60  1  0
  6 61  1  0
 10 62  1  0
 13 63  1  0
 13 64  1  0
 14 65  1  0
 14 66  1  0
 14 67  1  0
 22 68  1  0
 25 69  1  0
 25 70  1  0
 25 71  1  0
 26 72  1  0
 27 73  1  0
 33 74  1  0
 36 75  1  0
 36 76  1  0
 36 77  1  0
 37 78  1  0
 38 79  1  0
 40 80  1  0
 43 81  1  0
 43 82  1  0
 44 83  1  0
 44 84  1  0
 44 85  1  0
 48 86  1  0
 51 87  1  0
 51 88  1  0
 52 89  1  0
 52 90  1  0
 52 91  1  0
 53 92  1  0
M  END

