
     RDKit          3D

 94105  0  0  0  0  0  0  0  0999 V2000
   13.2552   -3.8125    0.2229 C   0  0  0  0  0  0  0  0  0  0  0  0
   13.4416   -2.3210   -0.5801 S   0  0  0  0  0  0  0  0  0  0  0  0
   12.1299   -1.4840    0.1040 C   0  0  0  0  0  0  0  0  0  0  0  0
   11.5722   -2.3920    0.9890 C   0  0  0  0  0  0  0  0  0  0  0  0
   12.1626   -3.6084    1.0451 C   0  0  0  0  0  0  0  0  0  0  0  0
   11.6437   -4.3314    2.0477 N   0  0  0  0  0  0  0  0  0  0  0  0
   10.7299   -3.4816    2.5866 C   0  0  0  0  0  0  0  0  0  0  0  0
   10.0376   -3.7736    3.5958 O   0  0  0  0  0  0  0  0  0  0  0  0
   10.6601   -2.2748    1.9651 N   0  0  0  0  0  0  0  0  0  0  0  0
   11.8098   -0.0607   -0.0945 C   0  0  0  0  0  0  0  0  0  0  0  0
   10.5679    0.4388   -0.1524 C   0  0  0  0  0  0  0  0  0  0  0  0
    9.3423   -0.3742   -0.2207 C   0  0  0  0  0  0  0  0  0  0  0  0
    7.8344    0.0427    0.4436 S   0  0  0  0  0  0  0  0  0  0  0  0
    6.9124   -1.2261   -0.2148 C   0  0  0  0  0  0  0  0  0  0  0  0
    7.8094   -1.9492   -0.9897 C   0  0  0  0  0  0  0  0  0  0  0  0
    9.0888   -1.4981   -0.9919 C   0  0  0  0  0  0  0  0  0  0  0  0
    9.7936   -2.1073   -1.9580 N   0  0  0  0  0  0  0  0  0  0  0  0
    8.8784   -2.9391   -2.5213 C   0  0  0  0  0  0  0  0  0  0  0  0
    9.1390   -3.6765   -3.5089 O   0  0  0  0  0  0  0  0  0  0  0  0
    7.6430   -2.8648   -1.9599 N   0  0  0  0  0  0  0  0  0  0  0  0
    5.4547   -1.3732   -0.0943 C   0  0  0  0  0  0  0  0  0  0  0  0
    4.8379   -2.5458   -0.2634 C   0  0  0  0  0  0  0  0  0  0  0  0
    3.3777   -2.6833   -0.1542 C   0  0  0  0  0  0  0  0  0  0  0  0
    2.2118   -1.4724    0.1517 S   0  0  0  0  0  0  0  0  0  0  0  0
    0.8127   -2.4486    0.0668 C   0  0  0  0  0  0  0  0  0  0  0  0
    1.2961   -3.7152   -0.2034 C   0  0  0  0  0  0  0  0  0  0  0  0
    2.6374   -3.8388   -0.3188 C   0  0  0  0  0  0  0  0  0  0  0  0
    2.9664   -5.1027   -0.6195 N   0  0  0  0  0  0  0  0  0  0  0  0
    1.7533   -5.7167   -0.6739 C   0  0  0  0  0  0  0  0  0  0  0  0
    1.6171   -6.9376   -0.9424 O   0  0  0  0  0  0  0  0  0  0  0  0
    0.6992   -4.8934   -0.4211 N   0  0  0  0  0  0  0  0  0  0  0  0
   -0.5976   -2.0551    0.2180 C   0  0  0  0  0  0  0  0  0  0  0  0
   -0.9626   -0.7982    0.4899 C   0  0  0  0  0  0  0  0  0  0  0  0
   -2.3824   -0.4004    0.6238 C   0  0  0  0  0  0  0  0  0  0  0  0
   -3.7108   -1.4088    0.4007 S   0  0  0  0  0  0  0  0  0  0  0  0
   -4.9312   -0.2884    0.6995 C   0  0  0  0  0  0  0  0  0  0  0  0
   -4.2935    0.9347    0.9877 C   0  0  0  0  0  0  0  0  0  0  0  0
   -2.8791    0.8664    0.9415 C   0  0  0  0  0  0  0  0  0  0  0  0
   -2.1006    2.0062    1.1954 C   0  0  0  0  0  0  0  0  0  0  0  0
   -2.7316    3.2271    1.5030 C   0  0  0  0  0  0  0  0  0  0  0  0
   -2.0090    4.4030    1.7579 O   0  0  0  0  0  0  0  0  0  0  0  0
   -0.5912    4.4938    1.7770 C   0  0  0  0  0  0  0  0  0  0  0  0
   -4.1318    3.2853    1.5608 C   0  0  0  0  0  0  0  0  0  0  0  0
   -4.9141    2.1515    1.3113 C   0  0  0  0  0  0  0  0  0  0  0  0
   -6.3795   -0.6046    0.5880 C   0  0  0  0  0  0  0  0  0  0  0  0
   -7.7027    0.4730    0.5540 S   0  0  0  0  0  0  0  0  0  0  0  0
   -8.9616   -0.6398    0.2832 C   0  0  0  0  0  0  0  0  0  0  0  0
   -8.3252   -1.8631    0.2599 C   0  0  0  0  0  0  0  0  0  0  0  0
   -6.9769   -1.8517    0.4038 C   0  0  0  0  0  0  0  0  0  0  0  0
   -6.5067   -3.1062    0.3392 N   0  0  0  0  0  0  0  0  0  0  0  0
   -7.6317   -3.8466    0.1464 C   0  0  0  0  0  0  0  0  0  0  0  0
   -7.6132   -5.0974    0.0177 O   0  0  0  0  0  0  0  0  0  0  0  0
   -8.7742   -3.1144    0.0938 N   0  0  0  0  0  0  0  0  0  0  0  0
  -10.4155   -0.4000    0.2920 C   0  0  0  0  0  0  0  0  0  0  0  0
  -11.0195    0.6952   -0.1861 C   0  0  0  0  0  0  0  0  0  0  0  0
  -10.3702    1.7253   -1.0149 C   0  0  0  0  0  0  0  0  0  0  0  0
   -9.2130    1.5054   -2.2498 S   0  0  0  0  0  0  0  0  0  0  0  0
   -9.2406    3.0741   -2.9083 C   0  0  0  0  0  0  0  0  0  0  0  0
  -10.2061    3.7444   -2.1672 C   0  0  0  0  0  0  0  0  0  0  0  0
  -10.8013    3.0274   -1.1831 C   0  0  0  0  0  0  0  0  0  0  0  0
  -11.8419    3.7036   -0.6762 N   0  0  0  0  0  0  0  0  0  0  0  0
  -11.8402    4.8493   -1.4063 C   0  0  0  0  0  0  0  0  0  0  0  0
  -12.7040    5.7561   -1.2589 O   0  0  0  0  0  0  0  0  0  0  0  0
  -10.8549    4.9094   -2.3412 N   0  0  0  0  0  0  0  0  0  0  0  0
   -8.4792    3.5069   -4.0912 C   0  0  0  0  0  0  0  0  0  0  0  0
   -8.2265    4.7839   -4.3716 C   0  0  0  0  0  0  0  0  0  0  0  0
   13.8879   -4.6880    0.1622 H   0  0  0  0  0  0  0  0  0  0  0  0
   11.9244   -5.2780    2.3843 H   0  0  0  0  0  0  0  0  0  0  0  0
   10.0925   -1.4411    2.2333 H   0  0  0  0  0  0  0  0  0  0  0  0
   12.6431    0.6267   -0.1786 H   0  0  0  0  0  0  0  0  0  0  0  0
   10.4513    1.5158   -0.1744 H   0  0  0  0  0  0  0  0  0  0  0  0
   10.7694   -1.9184   -2.2750 H   0  0  0  0  0  0  0  0  0  0  0  0
    6.7676   -3.3279   -2.2930 H   0  0  0  0  0  0  0  0  0  0  0  0
    4.8886   -0.4955    0.1916 H   0  0  0  0  0  0  0  0  0  0  0  0
    5.4175   -3.4368   -0.4632 H   0  0  0  0  0  0  0  0  0  0  0  0
    3.9131   -5.5102   -0.7880 H   0  0  0  0  0  0  0  0  0  0  0  0
   -0.3202   -5.1145   -0.4165 H   0  0  0  0  0  0  0  0  0  0  0  0
   -1.3506   -2.8204    0.0937 H   0  0  0  0  0  0  0  0  0  0  0  0
   -0.1979   -0.0467    0.6161 H   0  0  0  0  0  0  0  0  0  0  0  0
   -1.0243    1.9520    1.1527 H   0  0  0  0  0  0  0  0  0  0  0  0
   -0.1810    3.8244    2.5581 H   0  0  0  0  0  0  0  0  0  0  0  0
   -0.1733    4.2296    0.7850 H   0  0  0  0  0  0  0  0  0  0  0  0
   -0.2945    5.5375    2.0150 H   0  0  0  0  0  0  0  0  0  0  0  0
   -4.6204    4.2203    1.8068 H   0  0  0  0  0  0  0  0  0  0  0  0
   -5.9815    2.2512    1.3979 H   0  0  0  0  0  0  0  0  0  0  0  0
   -5.5296   -3.4514    0.4257 H   0  0  0  0  0  0  0  0  0  0  0  0
   -9.7556   -3.4400   -0.0529 H   0  0  0  0  0  0  0  0  0  0  0  0
  -11.0347   -1.1445    0.7764 H   0  0  0  0  0  0  0  0  0  0  0  0
  -12.0797    0.8154    0.0057 H   0  0  0  0  0  0  0  0  0  0  0  0
  -12.5256    3.3990    0.0515 H   0  0  0  0  0  0  0  0  0  0  0  0
  -10.7129    5.6428   -3.0681 H   0  0  0  0  0  0  0  0  0  0  0  0
   -8.0501    2.7442   -4.7300 H   0  0  0  0  0  0  0  0  0  0  0  0
   -8.5555    5.5901   -3.7292 H   0  0  0  0  0  0  0  0  0  0  0  0
   -7.6456    5.0299   -5.2505 H   0  0  0  0  0  0  0  0  0  0  0  0
  1  2  1  0
  2  3  1  0
  3  4  2  0
  4  5  1  0
  5  6  1  0
  6  7  1  0
  7  8  2  0
  7  9  1  0
  3 10  1  0
 10 11  2  3
 11 12  1  0
 12 13  1  0
 13 14  1  0
 14 15  2  0
 15 16  1  0
 16 17  1  0
 17 18  1  0
 18 19  2  0
 18 20  1  0
 14 21  1  0
 21 22  2  3
 22 23  1  0
 23 24  1  0
 24 25  1  0
 25 26  2  0
 26 27  1  0
 27 28  1  0
 28 29  1  0
 29 30  2  0
 29 31  1  0
 25 32  1  0
 32 33  2  3
 33 34  1  0
 34 35  1  0
 35 36  1  0
 36 37  2  0
 37 38  1  0
 38 39  1  0
 39 40  2  0
 40 41  1  0
 41 42  1  0
 40 43  1  0
 43 44  2  0
 36 45  1  0
 45 46  1  0
 46 47  1  0
 47 48  2  0
 48 49  1  0
 49 50  1  0
 50 51  1  0
 51 52  2  0
 51 53  1  0
 47 54  1  0
 54 55  2  3
 55 56  1  0
 56 57  1  0
 57 58  1  0
 58 59  2  0
 59 60  1  0
 60 61  1  0
 61 62  1  0
 62 63  2  0
 62 64  1  0
 58 65  1  0
 65 66  2  3
  5  1  2  0
 16 12  2  0
 27 23  2  0
 38 34  2  0
 49 45  2  0
 60 56  2  0
  9  4  1  0
 20 15  1  0
 31 26  1  0
 44 37  1  0
 53 48  1  0
 64 59  1  0
  1 67  1  0
  6 68  1  0
  9 69  1  0
 10 70  1  0
 11 71  1  0
 17 72  1  0
 20 73  1  0
 21 74  1  0
 22 75  1  0
 28 76  1  0
 31 77  1  0
 32 78  1  0
 33 79  1  0
 39 80  1  0
 42 81  1  0
 42 82  1  0
 42 83  1  0
 43 84  1  0
 44 85  1  0
 50 86  1  0
 53 87  1  0
 54 88  1  0
 55 89  1  0
 61 90  1  0
 64 91  1  0
 65 92  1  0
 66 93  1  0
 66 94  1  0
M  END

