
     RDKit          3D

154171  0  0  0  0  0  0  0  0999 V2000
   -1.6842    3.5191   11.3745 C   0  0  0  0  0  0  0  0  0  0  0  0
   -2.3703    2.4890   10.2307 S   0  0  0  0  0  0  0  0  0  0  0  0
   -0.9317    1.8899    9.5943 C   0  0  0  0  0  0  0  0  0  0  0  0
    0.1217    2.4742   10.2990 C   0  0  0  0  0  0  0  0  0  0  0  0
   -0.3032    3.3889   11.2772 C   0  0  0  0  0  0  0  0  0  0  0  0
    0.6251    4.0758   12.0629 C   0  0  0  0  0  0  0  0  0  0  0  0
    1.9972    3.8399   11.8780 C   0  0  0  0  0  0  0  0  0  0  0  0
    2.9064    4.5625   12.6657 O   0  0  0  0  0  0  0  0  0  0  0  0
    4.3227    4.4432   12.5721 C   0  0  0  0  0  0  0  0  0  0  0  0
    2.4192    2.8908   10.9170 C   0  0  0  0  0  0  0  0  0  0  0  0
    1.4839    2.2005   10.1339 C   0  0  0  0  0  0  0  0  0  0  0  0
   -0.8482    0.9409    8.4735 C   0  0  0  0  0  0  0  0  0  0  0  0
   -1.7417   -0.4831    8.3596 S   0  0  0  0  0  0  0  0  0  0  0  0
   -1.1550   -0.9686    6.8559 C   0  0  0  0  0  0  0  0  0  0  0  0
   -0.2621    0.0074    6.4039 C   0  0  0  0  0  0  0  0  0  0  0  0
   -0.1025    1.0805    7.3003 C   0  0  0  0  0  0  0  0  0  0  0  0
    0.6694    2.1932    6.9404 C   0  0  0  0  0  0  0  0  0  0  0  0
    1.3350    2.2064    5.6961 C   0  0  0  0  0  0  0  0  0  0  0  0
    2.1278    3.2871    5.2823 O   0  0  0  0  0  0  0  0  0  0  0  0
    2.3034    4.4868    6.0281 C   0  0  0  0  0  0  0  0  0  0  0  0
    1.1975    1.1128    4.8263 C   0  0  0  0  0  0  0  0  0  0  0  0
    0.3863    0.0223    5.1618 C   0  0  0  0  0  0  0  0  0  0  0  0
   -1.6340   -2.1353    6.0973 C   0  0  0  0  0  0  0  0  0  0  0  0
   -0.6278   -3.2607    5.3560 S   0  0  0  0  0  0  0  0  0  0  0  0
   -1.7917   -4.0060    4.3955 C   0  0  0  0  0  0  0  0  0  0  0  0
   -3.0046   -3.3381    4.6165 C   0  0  0  0  0  0  0  0  0  0  0  0
   -2.9155   -2.3062    5.5743 C   0  0  0  0  0  0  0  0  0  0  0  0
   -4.0134   -1.4752    5.8290 C   0  0  0  0  0  0  0  0  0  0  0  0
   -5.2136   -1.6760    5.1335 C   0  0  0  0  0  0  0  0  0  0  0  0
   -6.2893   -0.8173    5.4118 O   0  0  0  0  0  0  0  0  0  0  0  0
   -7.5537   -0.8754    4.7611 C   0  0  0  0  0  0  0  0  0  0  0  0
   -5.2999   -2.7108    4.1732 C   0  0  0  0  0  0  0  0  0  0  0  0
   -4.1941   -3.5259    3.9002 C   0  0  0  0  0  0  0  0  0  0  0  0
   -1.4406   -4.8084    3.2156 C   0  0  0  0  0  0  0  0  0  0  0  0
   -0.2997   -4.3083    2.0926 S   0  0  0  0  0  0  0  0  0  0  0  0
   -0.5960   -5.4918    0.9324 C   0  0  0  0  0  0  0  0  0  0  0  0
   -1.6156   -6.3107    1.4196 C   0  0  0  0  0  0  0  0  0  0  0  0
   -2.0781   -5.9404    2.6998 C   0  0  0  0  0  0  0  0  0  0  0  0
   -3.0765   -6.6818    3.3396 C   0  0  0  0  0  0  0  0  0  0  0  0
   -3.6363   -7.7985    2.6805 C   0  0  0  0  0  0  0  0  0  0  0  0
   -4.6469   -8.5773    3.2648 O   0  0  0  0  0  0  0  0  0  0  0  0
   -5.2164   -8.3253    4.5455 C   0  0  0  0  0  0  0  0  0  0  0  0
   -3.1768   -8.1518    1.3965 C   0  0  0  0  0  0  0  0  0  0  0  0
   -2.1694   -7.4127    0.7607 C   0  0  0  0  0  0  0  0  0  0  0  0
   -0.0934   -5.3775   -0.4437 C   0  0  0  0  0  0  0  0  0  0  0  0
   -0.9241   -5.2105   -1.5526 C   0  0  0  0  0  0  0  0  0  0  0  0
   -0.3018   -4.5253   -2.6127 C   0  0  0  0  0  0  0  0  0  0  0  0
   -0.9558   -3.9908   -3.7435 C   0  0  0  0  0  0  0  0  0  0  0  0
   -2.3651   -4.3099   -4.0442 C   0  0  0  0  0  0  0  0  0  0  0  0
   -3.6151   -3.1865   -4.1604 S   0  0  0  0  0  0  0  0  0  0  0  0
   -4.8267   -4.2962   -4.5271 C   0  0  0  0  0  0  0  0  0  0  0  0
   -6.2361   -3.9272   -4.8744 C   0  0  0  0  0  0  0  0  0  0  0  0
   -6.3811   -3.7130   -6.3760 C   0  0  0  0  0  0  0  0  0  0  0  0
   -4.2635   -5.5701   -4.5767 C   0  0  0  0  0  0  0  0  0  0  0  0
   -5.1760   -7.0165   -4.9851 Cl  0  0  0  0  0  0  0  0  0  0  0  0
   -2.8861   -5.5789   -4.2957 C   0  0  0  0  0  0  0  0  0  0  0  0
   -1.9074   -7.0393   -4.3444 Cl  0  0  0  0  0  0  0  0  0  0  0  0
   -0.2338   -3.0515   -4.5066 C   0  0  0  0  0  0  0  0  0  0  0  0
    1.0920   -2.7045   -4.2205 C   0  0  0  0  0  0  0  0  0  0  0  0
    1.7617   -3.2901   -3.1299 C   0  0  0  0  0  0  0  0  0  0  0  0
    3.0871   -2.8231   -2.6911 C   0  0  0  0  0  0  0  0  0  0  0  0
    4.4837   -3.7565   -2.7075 S   0  0  0  0  0  0  0  0  0  0  0  0
    5.4675   -2.6121   -1.9618 C   0  0  0  0  0  0  0  0  0  0  0  0
    6.8976   -2.8458   -1.5784 C   0  0  0  0  0  0  0  0  0  0  0  0
    6.9869   -3.5986   -0.2574 C   0  0  0  0  0  0  0  0  0  0  0  0
    4.6969   -1.4907   -1.6550 C   0  0  0  0  0  0  0  0  0  0  0  0
    3.3612   -1.6080   -2.0677 C   0  0  0  0  0  0  0  0  0  0  0  0
    2.1410   -0.3814   -1.7578 Cl  0  0  0  0  0  0  0  0  0  0  0  0
    5.3164   -0.0903   -0.7879 Cl  0  0  0  0  0  0  0  0  0  0  0  0
    1.0270   -4.1862   -2.3380 C   0  0  0  0  0  0  0  0  0  0  0  0
    1.4174   -4.7130   -0.7943 S   0  0  0  0  0  0  0  0  0  0  0  0
    1.5760   -1.6481   -5.0082 C   0  0  0  0  0  0  0  0  0  0  0  0
    0.6148   -1.1315   -5.8738 C   0  0  0  0  0  0  0  0  0  0  0  0
   -0.8127   -2.0151   -5.7004 S   0  0  0  0  0  0  0  0  0  0  0  0
    0.6948    0.2067   -6.4704 C   0  0  0  0  0  0  0  0  0  0  0  0
    1.8588    0.8167   -6.9390 C   0  0  0  0  0  0  0  0  0  0  0  0
    1.7024    2.1954   -7.1491 C   0  0  0  0  0  0  0  0  0  0  0  0
    2.7041    3.0943   -7.5621 C   0  0  0  0  0  0  0  0  0  0  0  0
    4.0625    2.6397   -7.8951 C   0  0  0  0  0  0  0  0  0  0  0  0
    4.4866    1.8462   -9.3142 S   0  0  0  0  0  0  0  0  0  0  0  0
    6.1149    1.6614   -8.9288 C   0  0  0  0  0  0  0  0  0  0  0  0
    7.1173    0.9536   -9.7904 C   0  0  0  0  0  0  0  0  0  0  0  0
    7.1017   -0.5453   -9.5178 C   0  0  0  0  0  0  0  0  0  0  0  0
    6.3389    2.2000   -7.6613 C   0  0  0  0  0  0  0  0  0  0  0  0
    7.8944    2.1521   -6.8464 Cl  0  0  0  0  0  0  0  0  0  0  0  0
    5.1884    2.7578   -7.0870 C   0  0  0  0  0  0  0  0  0  0  0  0
    5.1575    3.4919   -5.4898 Cl  0  0  0  0  0  0  0  0  0  0  0  0
    2.3637    4.4563   -7.5999 C   0  0  0  0  0  0  0  0  0  0  0  0
    1.0955    4.9262   -7.2418 C   0  0  0  0  0  0  0  0  0  0  0  0
    0.0946    4.0265   -6.8277 C   0  0  0  0  0  0  0  0  0  0  0  0
   -1.2042    4.4920   -6.3224 C   0  0  0  0  0  0  0  0  0  0  0  0
   -2.4794    5.0166   -7.2807 S   0  0  0  0  0  0  0  0  0  0  0  0
   -3.5406    5.3238   -6.0078 C   0  0  0  0  0  0  0  0  0  0  0  0
   -4.9642    5.7607   -6.1746 C   0  0  0  0  0  0  0  0  0  0  0  0
   -5.9141    4.5712   -6.0562 C   0  0  0  0  0  0  0  0  0  0  0  0
   -2.9053    5.0000   -4.8096 C   0  0  0  0  0  0  0  0  0  0  0  0
   -1.5939    4.5338   -4.9867 C   0  0  0  0  0  0  0  0  0  0  0  0
   -0.5446    4.0520   -3.6575 Cl  0  0  0  0  0  0  0  0  0  0  0  0
   -3.6661    5.1456   -3.2292 Cl  0  0  0  0  0  0  0  0  0  0  0  0
    0.4277    2.6627   -6.8161 C   0  0  0  0  0  0  0  0  0  0  0  0
   -0.5145    1.3712   -6.3012 S   0  0  0  0  0  0  0  0  0  0  0  0
    0.9857    6.3244   -7.3063 C   0  0  0  0  0  0  0  0  0  0  0  0
    2.1617    6.9448   -7.7261 C   0  0  0  0  0  0  0  0  0  0  0  0
    3.3385    5.7650   -8.0053 S   0  0  0  0  0  0  0  0  0  0  0  0
   -2.2208    4.1543   12.0650 H   0  0  0  0  0  0  0  0  0  0  0  0
    0.2918    4.7886   12.8076 H   0  0  0  0  0  0  0  0  0  0  0  0
    4.7933    5.1397   13.2947 H   0  0  0  0  0  0  0  0  0  0  0  0
    4.6341    3.4058   12.8227 H   0  0  0  0  0  0  0  0  0  0  0  0
    4.6626    4.7087   11.5475 H   0  0  0  0  0  0  0  0  0  0  0  0
    3.4676    2.6823   10.7643 H   0  0  0  0  0  0  0  0  0  0  0  0
    1.8242    1.4647    9.4181 H   0  0  0  0  0  0  0  0  0  0  0  0
    0.7343    3.0413    7.6049 H   0  0  0  0  0  0  0  0  0  0  0  0
    2.7741    4.2628    7.0077 H   0  0  0  0  0  0  0  0  0  0  0  0
    1.3256    4.9893    6.1796 H   0  0  0  0  0  0  0  0  0  0  0  0
    2.9693    5.1711    5.4626 H   0  0  0  0  0  0  0  0  0  0  0  0
    1.7073    1.1203    3.8695 H   0  0  0  0  0  0  0  0  0  0  0  0
    0.2631   -0.7788    4.4483 H   0  0  0  0  0  0  0  0  0  0  0  0
   -3.9420   -0.6587    6.5353 H   0  0  0  0  0  0  0  0  0  0  0  0
   -8.1972   -0.0638    5.1547 H   0  0  0  0  0  0  0  0  0  0  0  0
   -7.4307   -0.7300    3.6662 H   0  0  0  0  0  0  0  0  0  0  0  0
   -8.0420   -1.8523    4.9649 H   0  0  0  0  0  0  0  0  0  0  0  0
   -6.2119   -2.8763    3.6157 H   0  0  0  0  0  0  0  0  0  0  0  0
   -4.2711   -4.2720    3.1228 H   0  0  0  0  0  0  0  0  0  0  0  0
   -3.4041   -6.3939    4.3310 H   0  0  0  0  0  0  0  0  0  0  0  0
   -4.4330   -8.3915    5.3311 H   0  0  0  0  0  0  0  0  0  0  0  0
   -5.9931   -9.0880    4.7543 H   0  0  0  0  0  0  0  0  0  0  0  0
   -5.6879   -7.3197    4.5605 H   0  0  0  0  0  0  0  0  0  0  0  0
   -3.5970   -9.0166    0.8964 H   0  0  0  0  0  0  0  0  0  0  0  0
   -1.8175   -7.7121   -0.2188 H   0  0  0  0  0  0  0  0  0  0  0  0
   -1.9864   -5.4203   -1.5222 H   0  0  0  0  0  0  0  0  0  0  0  0
   -6.9346   -4.7263   -4.5411 H   0  0  0  0  0  0  0  0  0  0  0  0
   -6.5108   -2.9899   -4.3434 H   0  0  0  0  0  0  0  0  0  0  0  0
   -7.4189   -3.3921   -6.6078 H   0  0  0  0  0  0  0  0  0  0  0  0
   -6.1681   -4.6577   -6.9253 H   0  0  0  0  0  0  0  0  0  0  0  0
   -5.6784   -2.9215   -6.7216 H   0  0  0  0  0  0  0  0  0  0  0  0
    7.3947   -3.4352   -2.3784 H   0  0  0  0  0  0  0  0  0  0  0  0
    7.4323   -1.8762   -1.4919 H   0  0  0  0  0  0  0  0  0  0  0  0
    6.4614   -4.5789   -0.3337 H   0  0  0  0  0  0  0  0  0  0  0  0
    6.5229   -2.9992    0.5601 H   0  0  0  0  0  0  0  0  0  0  0  0
    8.0523   -3.7837   -0.0061 H   0  0  0  0  0  0  0  0  0  0  0  0
    2.5464   -1.1894   -4.8650 H   0  0  0  0  0  0  0  0  0  0  0  0
    2.7972    0.2908   -7.0579 H   0  0  0  0  0  0  0  0  0  0  0  0
    8.1360    1.3541   -9.6013 H   0  0  0  0  0  0  0  0  0  0  0  0
    6.8781    1.1369  -10.8587 H   0  0  0  0  0  0  0  0  0  0  0  0
    7.8260   -1.0541  -10.1900 H   0  0  0  0  0  0  0  0  0  0  0  0
    6.0896   -0.9619   -9.7038 H   0  0  0  0  0  0  0  0  0  0  0  0
    7.3952   -0.7459   -8.4659 H   0  0  0  0  0  0  0  0  0  0  0  0
   -5.2180    6.5223   -5.4069 H   0  0  0  0  0  0  0  0  0  0  0  0
   -5.0919    6.2278   -7.1739 H   0  0  0  0  0  0  0  0  0  0  0  0
   -6.9429    4.8869   -6.3280 H   0  0  0  0  0  0  0  0  0  0  0  0
   -5.9237    4.1958   -5.0120 H   0  0  0  0  0  0  0  0  0  0  0  0
   -5.5985    3.7513   -6.7338 H   0  0  0  0  0  0  0  0  0  0  0  0
    0.0896    6.8747   -7.0488 H   0  0  0  0  0  0  0  0  0  0  0  0
    2.3003    8.0107   -7.8360 H   0  0  0  0  0  0  0  0  0  0  0  0
  1  2  1  0
  2  3  1  0
  3  4  2  0
  4  5  1  0
  5  6  1  0
  6  7  2  0
  7  8  1  0
  8  9  1  0
  7 10  1  0
 10 11  2  0
  3 12  1  0
 12 13  1  0
 13 14  1  0
 14 15  2  0
 15 16  1  0
 16 17  1  0
 17 18  2  0
 18 19  1  0
 19 20  1  0
 18 21  1  0
 21 22  2  0
 14 23  1  0
 23 24  1  0
 24 25  1  0
 25 26  2  0
 26 27  1  0
 27 28  1  0
 28 29  2  0
 29 30  1  0
 30 31  1  0
 29 32  1  0
 32 33  2  0
 25 34  1  0
 34 35  1  0
 35 36  1  0
 36 37  2  0
 37 38  1  0
 38 39  1  0
 39 40  2  0
 40 41  1  0
 41 42  1  0
 40 43  1  0
 43 44  2  0
 36 45  1  0
 45 46  2  0
 46 47  1  0
 47 48  2  0
 48 49  1  0
 49 50  1  0
 50 51  1  0
 51 52  1  0
 52 53  1  0
 51 54  2  0
 54 55  1  0
 54 56  1  0
 56 57  1  0
 48 58  1  0
 58 59  2  0
 59 60  1  0
 60 61  1  0
 61 62  1  0
 62 63  1  0
 63 64  1  0
 64 65  1  0
 63 66  2  0
 66 67  1  0
 67 68  1  0
 66 69  1  0
 60 70  2  0
 70 71  1  0
 59 72  1  0
 72 73  2  0
 73 74  1  0
 73 75  1  0
 75 76  2  0
 76 77  1  0
 77 78  2  0
 78 79  1  0
 79 80  1  0
 80 81  1  0
 81 82  1  0
 82 83  1  0
 81 84  2  0
 84 85  1  0
 84 86  1  0
 86 87  1  0
 78 88  1  0
 88 89  2  0
 89 90  1  0
 90 91  1  0
 91 92  1  0
 92 93  1  0
 93 94  1  0
 94 95  1  0
 93 96  2  0
 96 97  1  0
 97 98  1  0
 96 99  1  0
 90100  2  0
100101  1  0
 89102  1  0
102103  2  0
103104  1  0
  5  1  2  0
 16 12  2  0
 27 23  2  0
 38 34  2  0
 71 45  1  0
101 75  1  0
 11  4  1  0
 22 15  1  0
 33 26  1  0
 44 37  1  0
 70 47  1  0
100 77  1  0
 56 49  2  0
 74 58  1  0
 86 79  2  0
104 88  1  0
 67 61  2  0
 97 91  2  0
  1105  1  0
  6106  1  0
  9107  1  0
  9108  1  0
  9109  1  0
 10110  1  0
 11111  1  0
 17112  1  0
 20113  1  0
 20114  1  0
 20115  1  0
 21116  1  0
 22117  1  0
 28118  1  0
 31119  1  0
 31120  1  0
 31121  1  0
 32122  1  0
 33123  1  0
 39124  1  0
 42125  1  0
 42126  1  0
 42127  1  0
 43128  1  0
 44129  1  0
 46130  1  0
 52131  1  0
 52132  1  0
 53133  1  0
 53134  1  0
 53135  1  0
 64136  1  0
 64137  1  0
 65138  1  0
 65139  1  0
 65140  1  0
 72141  1  0
 76142  1  0
 82143  1  0
 82144  1  0
 83145  1  0
 83146  1  0
 83147  1  0
 94148  1  0
 94149  1  0
 95150  1  0
 95151  1  0
 95152  1  0
102153  1  0
103154  1  0
M  END

