
     RDKit          3D

179199  0  0  0  0  0  0  0  0999 V2000
    7.7880   -6.5354    7.5215 C   0  0  0  0  0  0  0  0  0  0  0  0
    7.3269   -5.3107    7.9941 C   0  0  0  0  0  0  0  0  0  0  0  0
    6.0307   -4.9982    7.5502 C   0  0  0  0  0  0  0  0  0  0  0  0
    5.2928   -3.8383    7.8682 C   0  0  0  0  0  0  0  0  0  0  0  0
    5.8509   -2.7516    8.6943 C   0  0  0  0  0  0  0  0  0  0  0  0
    5.1931   -2.2200   10.1498 S   0  0  0  0  0  0  0  0  0  0  0  0
    6.2842   -0.9637   10.3954 C   0  0  0  0  0  0  0  0  0  0  0  0
    6.2799   -0.0522   11.5841 C   0  0  0  0  0  0  0  0  0  0  0  0
    7.3268   -0.4844   12.6045 C   0  0  0  0  0  0  0  0  0  0  0  0
    7.1889   -0.9450    9.3341 C   0  0  0  0  0  0  0  0  0  0  0  0
    8.4913    0.2301    9.1904 Cl  0  0  0  0  0  0  0  0  0  0  0  0
    6.9406   -1.9400    8.3749 C   0  0  0  0  0  0  0  0  0  0  0  0
    7.8700   -2.0978    6.8899 Cl  0  0  0  0  0  0  0  0  0  0  0  0
    3.9949   -3.7471    7.3359 C   0  0  0  0  0  0  0  0  0  0  0  0
    3.4484   -4.7382    6.5136 C   0  0  0  0  0  0  0  0  0  0  0  0
    4.1839   -5.8982    6.1982 C   0  0  0  0  0  0  0  0  0  0  0  0
    3.6389   -6.9508    5.3211 C   0  0  0  0  0  0  0  0  0  0  0  0
    4.2660   -7.3550    3.8116 S   0  0  0  0  0  0  0  0  0  0  0  0
    3.0977   -8.5061    3.4340 C   0  0  0  0  0  0  0  0  0  0  0  0
    3.0111   -9.2299    2.1242 C   0  0  0  0  0  0  0  0  0  0  0  0
    2.0771   -8.4994    1.1645 C   0  0  0  0  0  0  0  0  0  0  0  0
    2.1832   -8.5751    4.4843 C   0  0  0  0  0  0  0  0  0  0  0  0
    2.4901   -7.7088    5.5459 C   0  0  0  0  0  0  0  0  0  0  0  0
    1.5342   -7.6142    7.0194 Cl  0  0  0  0  0  0  0  0  0  0  0  0
    0.7740   -9.6278    4.4756 Cl  0  0  0  0  0  0  0  0  0  0  0  0
    5.4796   -5.9910    6.7325 C   0  0  0  0  0  0  0  0  0  0  0  0
    6.5937   -7.2387    6.5608 S   0  0  0  0  0  0  0  0  0  0  0  0
    2.1772   -4.4070    6.0194 C   0  0  0  0  0  0  0  0  0  0  0  0
    1.7237   -3.1656    6.4630 C   0  0  0  0  0  0  0  0  0  0  0  0
    2.9029   -2.4710    7.4542 S   0  0  0  0  0  0  0  0  0  0  0  0
    0.4835   -2.5032    6.0267 C   0  0  0  0  0  0  0  0  0  0  0  0
   -0.4201   -3.0166    5.0965 C   0  0  0  0  0  0  0  0  0  0  0  0
   -1.4000   -2.0893    4.7167 C   0  0  0  0  0  0  0  0  0  0  0  0
   -2.3728   -2.2732    3.7133 C   0  0  0  0  0  0  0  0  0  0  0  0
   -2.4101   -3.4836    2.8703 C   0  0  0  0  0  0  0  0  0  0  0  0
   -3.7632   -4.4588    2.6493 S   0  0  0  0  0  0  0  0  0  0  0  0
   -3.0685   -5.4782    1.5047 C   0  0  0  0  0  0  0  0  0  0  0  0
   -3.8049   -6.5590    0.7732 C   0  0  0  0  0  0  0  0  0  0  0  0
   -4.4683   -6.0039   -0.4831 C   0  0  0  0  0  0  0  0  0  0  0  0
   -1.7676   -5.0448    1.2520 C   0  0  0  0  0  0  0  0  0  0  0  0
   -0.7105   -5.7898    0.0605 Cl  0  0  0  0  0  0  0  0  0  0  0  0
   -1.3997   -3.9246    2.0137 C   0  0  0  0  0  0  0  0  0  0  0  0
    0.1400   -3.0958    1.8103 Cl  0  0  0  0  0  0  0  0  0  0  0  0
   -3.2111   -1.1802    3.4348 C   0  0  0  0  0  0  0  0  0  0  0  0
   -3.0840    0.0524    4.0839 C   0  0  0  0  0  0  0  0  0  0  0  0
   -2.1244    0.2269    5.1005 C   0  0  0  0  0  0  0  0  0  0  0  0
   -1.9421    1.5227    5.7732 C   0  0  0  0  0  0  0  0  0  0  0  0
   -2.9774    2.1490    6.9390 S   0  0  0  0  0  0  0  0  0  0  0  0
   -2.1110    3.5688    7.1997 C   0  0  0  0  0  0  0  0  0  0  0  0
   -2.5123    4.6486    8.1576 C   0  0  0  0  0  0  0  0  0  0  0  0
   -3.4320    5.6607    7.4845 C   0  0  0  0  0  0  0  0  0  0  0  0
   -1.0048    3.5802    6.3500 C   0  0  0  0  0  0  0  0  0  0  0  0
   -0.9065    2.4284    5.5536 C   0  0  0  0  0  0  0  0  0  0  0  0
    0.3757    2.1676    4.3783 Cl  0  0  0  0  0  0  0  0  0  0  0  0
    0.1497    4.9034    6.2737 Cl  0  0  0  0  0  0  0  0  0  0  0  0
   -1.2913   -0.8667    5.3868 C   0  0  0  0  0  0  0  0  0  0  0  0
    0.0363   -0.9201    6.4197 S   0  0  0  0  0  0  0  0  0  0  0  0
   -3.8461    1.0722    3.4899 C   0  0  0  0  0  0  0  0  0  0  0  0
   -4.5547    0.6448    2.3657 C   0  0  0  0  0  0  0  0  0  0  0  0
   -4.2588   -1.0013    2.1340 S   0  0  0  0  0  0  0  0  0  0  0  0
   -4.9740    1.5289    1.2702 C   0  0  0  0  0  0  0  0  0  0  0  0
   -5.5955    1.0836    0.1005 C   0  0  0  0  0  0  0  0  0  0  0  0
   -5.3535    1.9172   -1.0057 C   0  0  0  0  0  0  0  0  0  0  0  0
   -5.6343    1.5975   -2.3486 C   0  0  0  0  0  0  0  0  0  0  0  0
   -6.4002    0.3935   -2.7019 C   0  0  0  0  0  0  0  0  0  0  0  0
   -8.0752    0.2744   -2.6303 S   0  0  0  0  0  0  0  0  0  0  0  0
   -8.1521   -1.3612   -3.0187 C   0  0  0  0  0  0  0  0  0  0  0  0
   -9.4213   -2.1567   -3.0806 C   0  0  0  0  0  0  0  0  0  0  0  0
   -9.8399   -2.6135   -1.6876 C   0  0  0  0  0  0  0  0  0  0  0  0
   -6.8514   -1.8451   -3.1721 C   0  0  0  0  0  0  0  0  0  0  0  0
   -6.4712   -3.5291   -3.5137 Cl  0  0  0  0  0  0  0  0  0  0  0  0
   -5.8689   -0.8575   -2.9971 C   0  0  0  0  0  0  0  0  0  0  0  0
   -4.1413   -1.1763   -3.0866 Cl  0  0  0  0  0  0  0  0  0  0  0  0
   -5.0172    2.3839   -3.3343 C   0  0  0  0  0  0  0  0  0  0  0  0
   -4.1831    3.4608   -3.0172 C   0  0  0  0  0  0  0  0  0  0  0  0
   -3.9725    3.8370   -1.6748 C   0  0  0  0  0  0  0  0  0  0  0  0
   -3.0002    4.8794   -1.2936 C   0  0  0  0  0  0  0  0  0  0  0  0
   -1.3398    4.7732   -1.5389 S   0  0  0  0  0  0  0  0  0  0  0  0
   -0.9446    6.1866   -0.7178 C   0  0  0  0  0  0  0  0  0  0  0  0
    0.4550    6.6630   -0.4775 C   0  0  0  0  0  0  0  0  0  0  0  0
    0.9988    6.1105    0.8359 C   0  0  0  0  0  0  0  0  0  0  0  0
   -2.1149    6.7459   -0.2066 C   0  0  0  0  0  0  0  0  0  0  0  0
   -3.2680    6.0128   -0.5297 C   0  0  0  0  0  0  0  0  0  0  0  0
   -4.8847    6.4717   -0.0113 Cl  0  0  0  0  0  0  0  0  0  0  0  0
   -2.1463    8.2044    0.7717 Cl  0  0  0  0  0  0  0  0  0  0  0  0
   -4.5719    3.0329   -0.6925 C   0  0  0  0  0  0  0  0  0  0  0  0
   -4.1811    2.9804    0.9388 S   0  0  0  0  0  0  0  0  0  0  0  0
   -3.5010    3.9720   -4.1303 C   0  0  0  0  0  0  0  0  0  0  0  0
   -3.7850    3.2900   -5.3109 C   0  0  0  0  0  0  0  0  0  0  0  0
   -4.8967    2.0614   -4.9833 S   0  0  0  0  0  0  0  0  0  0  0  0
   -2.8529    3.2480   -6.4378 C   0  0  0  0  0  0  0  0  0  0  0  0
   -1.2170    2.9306   -6.2492 S   0  0  0  0  0  0  0  0  0  0  0  0
   -0.8168    2.8062   -7.8787 C   0  0  0  0  0  0  0  0  0  0  0  0
   -1.9983    3.0005   -8.6089 C   0  0  0  0  0  0  0  0  0  0  0  0
   -3.1337    3.2344   -7.8017 C   0  0  0  0  0  0  0  0  0  0  0  0
   -4.3925    3.4356   -8.3791 C   0  0  0  0  0  0  0  0  0  0  0  0
   -4.5177    3.4192   -9.7862 C   0  0  0  0  0  0  0  0  0  0  0  0
   -5.7450    3.6331  -10.4317 O   0  0  0  0  0  0  0  0  0  0  0  0
   -6.9550    3.9653   -9.7646 C   0  0  0  0  0  0  0  0  0  0  0  0
   -3.3820    3.1891  -10.5815 C   0  0  0  0  0  0  0  0  0  0  0  0
   -2.1232    2.9870  -10.0027 C   0  0  0  0  0  0  0  0  0  0  0  0
    0.4899    2.3074   -8.3635 C   0  0  0  0  0  0  0  0  0  0  0  0
    0.6722    1.1677   -9.5961 S   0  0  0  0  0  0  0  0  0  0  0  0
    2.2997    0.8359   -9.3480 C   0  0  0  0  0  0  0  0  0  0  0  0
    2.7391    1.6132   -8.2776 C   0  0  0  0  0  0  0  0  0  0  0  0
    1.7358    2.4370   -7.7298 C   0  0  0  0  0  0  0  0  0  0  0  0
    2.0389    3.2885   -6.6572 C   0  0  0  0  0  0  0  0  0  0  0  0
    3.3272    3.2835   -6.1018 C   0  0  0  0  0  0  0  0  0  0  0  0
    3.5774    4.1189   -5.0020 O   0  0  0  0  0  0  0  0  0  0  0  0
    4.8294    4.2187   -4.3347 C   0  0  0  0  0  0  0  0  0  0  0  0
    4.3230    2.4474   -6.6559 C   0  0  0  0  0  0  0  0  0  0  0  0
    4.0360    1.6258   -7.7524 C   0  0  0  0  0  0  0  0  0  0  0  0
    3.0656   -0.1660  -10.1018 C   0  0  0  0  0  0  0  0  0  0  0  0
    3.2466   -0.1713  -11.7757 S   0  0  0  0  0  0  0  0  0  0  0  0
    4.1575   -1.5843  -11.8814 C   0  0  0  0  0  0  0  0  0  0  0  0
    4.3068   -2.0827  -10.5928 C   0  0  0  0  0  0  0  0  0  0  0  0
    3.6949   -1.3035   -9.5981 C   0  0  0  0  0  0  0  0  0  0  0  0
    3.7064   -1.7217   -8.2621 C   0  0  0  0  0  0  0  0  0  0  0  0
    4.3599   -2.9252   -7.9202 C   0  0  0  0  0  0  0  0  0  0  0  0
    4.3934   -3.4105   -6.6044 O   0  0  0  0  0  0  0  0  0  0  0  0
    3.7350   -2.7907   -5.5041 C   0  0  0  0  0  0  0  0  0  0  0  0
    4.9957   -3.6797   -8.9239 C   0  0  0  0  0  0  0  0  0  0  0  0
    4.9688   -3.2657  -10.2628 C   0  0  0  0  0  0  0  0  0  0  0  0
    8.7554   -6.9665    7.7419 H   0  0  0  0  0  0  0  0  0  0  0  0
    7.9159   -4.6769    8.6454 H   0  0  0  0  0  0  0  0  0  0  0  0
    6.4825    0.9916   11.2579 H   0  0  0  0  0  0  0  0  0  0  0  0
    5.2769   -0.0719   12.0614 H   0  0  0  0  0  0  0  0  0  0  0  0
    7.2793    0.1822   13.4915 H   0  0  0  0  0  0  0  0  0  0  0  0
    7.1360   -1.5299   12.9303 H   0  0  0  0  0  0  0  0  0  0  0  0
    8.3455   -0.4137   12.1669 H   0  0  0  0  0  0  0  0  0  0  0  0
    2.6458  -10.2655    2.2858 H   0  0  0  0  0  0  0  0  0  0  0  0
    4.0221   -9.2916    1.6714 H   0  0  0  0  0  0  0  0  0  0  0  0
    2.4169   -7.4513    1.0188 H   0  0  0  0  0  0  0  0  0  0  0  0
    2.0798   -9.0124    0.1791 H   0  0  0  0  0  0  0  0  0  0  0  0
    1.0386   -8.4973    1.5628 H   0  0  0  0  0  0  0  0  0  0  0  0
    1.6261   -5.0301    5.3280 H   0  0  0  0  0  0  0  0  0  0  0  0
   -0.3436   -4.0071    4.6701 H   0  0  0  0  0  0  0  0  0  0  0  0
   -3.1064   -7.3761    0.4955 H   0  0  0  0  0  0  0  0  0  0  0  0
   -4.5854   -6.9873    1.4386 H   0  0  0  0  0  0  0  0  0  0  0  0
   -5.2008   -5.2126   -0.2156 H   0  0  0  0  0  0  0  0  0  0  0  0
   -5.0052   -6.8208   -1.0117 H   0  0  0  0  0  0  0  0  0  0  0  0
   -3.7054   -5.5773   -1.1697 H   0  0  0  0  0  0  0  0  0  0  0  0
   -3.0382    4.1947    9.0260 H   0  0  0  0  0  0  0  0  0  0  0  0
   -1.6096    5.1681    8.5487 H   0  0  0  0  0  0  0  0  0  0  0  0
   -3.6697    6.4766    8.1991 H   0  0  0  0  0  0  0  0  0  0  0  0
   -4.3819    5.1713    7.1794 H   0  0  0  0  0  0  0  0  0  0  0  0
   -2.9389    6.1030    6.5912 H   0  0  0  0  0  0  0  0  0  0  0  0
   -3.7772    2.1123    3.7818 H   0  0  0  0  0  0  0  0  0  0  0  0
   -6.0691    0.1127    0.0189 H   0  0  0  0  0  0  0  0  0  0  0  0
   -9.2858   -3.0440   -3.7338 H   0  0  0  0  0  0  0  0  0  0  0  0
  -10.2247   -1.5311   -3.5210 H   0  0  0  0  0  0  0  0  0  0  0  0
   -9.0530   -3.2569   -1.2377 H   0  0  0  0  0  0  0  0  0  0  0  0
  -10.0165   -1.7339   -1.0303 H   0  0  0  0  0  0  0  0  0  0  0  0
  -10.7817   -3.1998   -1.7570 H   0  0  0  0  0  0  0  0  0  0  0  0
    1.1050    6.3246   -1.3137 H   0  0  0  0  0  0  0  0  0  0  0  0
    0.4776    7.7737   -0.4545 H   0  0  0  0  0  0  0  0  0  0  0  0
    0.3916    6.4798    1.6899 H   0  0  0  0  0  0  0  0  0  0  0  0
    0.9781    4.9997    0.8246 H   0  0  0  0  0  0  0  0  0  0  0  0
    2.0473    6.4471    0.9737 H   0  0  0  0  0  0  0  0  0  0  0  0
   -2.7411    4.7400   -4.0699 H   0  0  0  0  0  0  0  0  0  0  0  0
   -5.2501    3.6155   -7.7449 H   0  0  0  0  0  0  0  0  0  0  0  0
   -7.7583    4.0955  -10.5193 H   0  0  0  0  0  0  0  0  0  0  0  0
   -6.8331    4.9188   -9.2070 H   0  0  0  0  0  0  0  0  0  0  0  0
   -7.2484    3.1497   -9.0697 H   0  0  0  0  0  0  0  0  0  0  0  0
   -3.4777    3.1801  -11.6595 H   0  0  0  0  0  0  0  0  0  0  0  0
   -1.2651    2.8496  -10.6446 H   0  0  0  0  0  0  0  0  0  0  0  0
    1.3024    3.9668   -6.2556 H   0  0  0  0  0  0  0  0  0  0  0  0
    4.7394    4.9500   -3.5051 H   0  0  0  0  0  0  0  0  0  0  0  0
    5.1160    3.2338   -3.9082 H   0  0  0  0  0  0  0  0  0  0  0  0
    5.6104    4.5734   -5.0394 H   0  0  0  0  0  0  0  0  0  0  0  0
    5.3248    2.4278   -6.2457 H   0  0  0  0  0  0  0  0  0  0  0  0
    4.8154    1.0065   -8.1751 H   0  0  0  0  0  0  0  0  0  0  0  0
    4.5361   -2.0333  -12.7898 H   0  0  0  0  0  0  0  0  0  0  0  0
    3.2047   -1.1319   -7.5085 H   0  0  0  0  0  0  0  0  0  0  0  0
    4.1502   -1.7737   -5.3339 H   0  0  0  0  0  0  0  0  0  0  0  0
    2.6428   -2.7335   -5.6964 H   0  0  0  0  0  0  0  0  0  0  0  0
    3.8992   -3.4002   -4.5917 H   0  0  0  0  0  0  0  0  0  0  0  0
    5.5004   -4.6027   -8.6651 H   0  0  0  0  0  0  0  0  0  0  0  0
    5.4464   -3.8645  -11.0284 H   0  0  0  0  0  0  0  0  0  0  0  0
  1  2  2  0
  2  3  1  0
  3  4  2  0
  4  5  1  0
  5  6  1  0
  6  7  1  0
  7  8  1  0
  8  9  1  0
  7 10  2  0
 10 11  1  0
 10 12  1  0
 12 13  1  0
  4 14  1  0
 14 15  2  0
 15 16  1  0
 16 17  1  0
 17 18  1  0
 18 19  1  0
 19 20  1  0
 20 21  1  0
 19 22  2  0
 22 23  1  0
 23 24  1  0
 22 25  1  0
 16 26  2  0
 26 27  1  0
 15 28  1  0
 28 29  2  0
 29 30  1  0
 29 31  1  0
 31 32  2  0
 32 33  1  0
 33 34  2  0
 34 35  1  0
 35 36  1  0
 36 37  1  0
 37 38  1  0
 38 39  1  0
 37 40  2  0
 40 41  1  0
 40 42  1  0
 42 43  1  0
 34 44  1  0
 44 45  2  0
 45 46  1  0
 46 47  1  0
 47 48  1  0
 48 49  1  0
 49 50  1  0
 50 51  1  0
 49 52  2  0
 52 53  1  0
 53 54  1  0
 52 55  1  0
 46 56  2  0
 56 57  1  0
 45 58  1  0
 58 59  2  0
 59 60  1  0
 59 61  1  0
 61 62  2  0
 62 63  1  0
 63 64  2  0
 64 65  1  0
 65 66  1  0
 66 67  1  0
 67 68  1  0
 68 69  1  0
 67 70  2  0
 70 71  1  0
 70 72  1  0
 72 73  1  0
 64 74  1  0
 74 75  2  0
 75 76  1  0
 76 77  1  0
 77 78  1  0
 78 79  1  0
 79 80  1  0
 80 81  1  0
 79 82  2  0
 82 83  1  0
 83 84  1  0
 82 85  1  0
 76 86  2  0
 86 87  1  0
 75 88  1  0
 88 89  2  0
 89 90  1  0
 89 91  1  0
 91 92  1  0
 92 93  1  0
 93 94  2  0
 94 95  1  0
 95 96  1  0
 96 97  2  0
 97 98  1  0
 98 99  1  0
 97100  1  0
100101  2  0
 93102  1  0
102103  1  0
103104  1  0
104105  2  0
105106  1  0
106107  1  0
107108  2  0
108109  1  0
109110  1  0
108111  1  0
111112  2  0
104113  1  0
113114  1  0
114115  1  0
115116  2  0
116117  1  0
117118  1  0
118119  2  0
119120  1  0
120121  1  0
119122  1  0
122123  2  0
 27  1  1  0
 57 31  1  0
 87 61  1  0
 95 91  2  0
106102  2  0
117113  2  0
 26  3  1  0
 56 33  1  0
 86 63  1  0
101 94  1  0
112105  1  0
123116  1  0
 12  5  2  0
 30 14  1  0
 42 35  2  0
 60 44  1  0
 72 65  2  0
 90 74  1  0
 23 17  2  0
 53 47  2  0
 83 77  2  0
  1124  1  0
  2125  1  0
  8126  1  0
  8127  1  0
  9128  1  0
  9129  1  0
  9130  1  0
 20131  1  0
 20132  1  0
 21133  1  0
 21134  1  0
 21135  1  0
 28136  1  0
 32137  1  0
 38138  1  0
 38139  1  0
 39140  1  0
 39141  1  0
 39142  1  0
 50143  1  0
 50144  1  0
 51145  1  0
 51146  1  0
 51147  1  0
 58148  1  0
 62149  1  0
 68150  1  0
 68151  1  0
 69152  1  0
 69153  1  0
 69154  1  0
 80155  1  0
 80156  1  0
 81157  1  0
 81158  1  0
 81159  1  0
 88160  1  0
 96161  1  0
 99162  1  0
 99163  1  0
 99164  1  0
100165  1  0
101166  1  0
107167  1  0
110168  1  0
110169  1  0
110170  1  0
111171  1  0
112172  1  0
115173  1  0
118174  1  0
121175  1  0
121176  1  0
121177  1  0
122178  1  0
123179  1  0
M  END

