
     RDKit          3D

109125  0  0  0  0  0  0  0  0999 V2000
    4.9618   -2.5250    3.9089 C   0  0  0  0  0  0  0  0  0  0  0  0
    4.3182   -2.5980    2.6627 C   0  0  0  0  0  0  0  0  0  0  0  0
    4.0533   -1.3180    2.1878 C   0  0  0  0  0  0  0  0  0  0  0  0
    4.4515   -0.3109    2.9995 C   0  0  0  0  0  0  0  0  0  0  0  0
    5.1658   -0.8908    4.3955 S   0  0  0  0  0  0  0  0  0  0  0  0
    4.0776    0.8443    2.3832 C   0  0  0  0  0  0  0  0  0  0  0  0
    3.4756    0.4730    1.2285 C   0  0  0  0  0  0  0  0  0  0  0  0
    3.4350   -0.8742    1.0643 N   0  0  0  0  0  0  0  0  0  0  0  0
    2.9698    1.5154    0.4693 C   0  0  0  0  0  0  0  0  0  0  0  0
    3.1854    2.7435    1.1295 C   0  0  0  0  0  0  0  0  0  0  0  0
    4.0422    2.5004    2.5980 S   0  0  0  0  0  0  0  0  0  0  0  0
    2.7388    4.0733    0.6646 C   0  0  0  0  0  0  0  0  0  0  0  0
    1.5716    4.3274    0.0493 C   0  0  0  0  0  0  0  0  0  0  0  0
    0.4833    3.3492   -0.1173 C   0  0  0  0  0  0  0  0  0  0  0  0
    0.1308    2.3537    0.8103 C   0  0  0  0  0  0  0  0  0  0  0  0
   -0.8613    1.5450    0.2810 C   0  0  0  0  0  0  0  0  0  0  0  0
   -1.3166    1.9026   -0.9440 C   0  0  0  0  0  0  0  0  0  0  0  0
   -0.5436    3.2812   -1.4895 S   0  0  0  0  0  0  0  0  0  0  0  0
   -2.3714    1.0743   -1.2060 C   0  0  0  0  0  0  0  0  0  0  0  0
   -2.4817    0.2649   -0.1223 C   0  0  0  0  0  0  0  0  0  0  0  0
   -1.5716    0.5404    0.8314 N   0  0  0  0  0  0  0  0  0  0  0  0
   -3.6217   -0.5086   -0.0720 C   0  0  0  0  0  0  0  0  0  0  0  0
   -4.4354   -0.2345   -1.1841 C   0  0  0  0  0  0  0  0  0  0  0  0
   -3.7059    0.9416   -2.1995 S   0  0  0  0  0  0  0  0  0  0  0  0
   -5.8325   -0.6850   -1.3256 C   0  0  0  0  0  0  0  0  0  0  0  0
   -6.7311   -0.6241   -0.3278 C   0  0  0  0  0  0  0  0  0  0  0  0
   -6.4696    0.0345    0.9650 C   0  0  0  0  0  0  0  0  0  0  0  0
   -5.8512    1.2879    1.1195 C   0  0  0  0  0  0  0  0  0  0  0  0
   -5.5008    1.5056    2.4452 C   0  0  0  0  0  0  0  0  0  0  0  0
   -5.8610    0.5074    3.2993 C   0  0  0  0  0  0  0  0  0  0  0  0
   -6.5476   -0.7750    2.4649 S   0  0  0  0  0  0  0  0  0  0  0  0
   -5.0413    0.6365    4.3890 C   0  0  0  0  0  0  0  0  0  0  0  0
   -4.2319    1.7003    4.1345 C   0  0  0  0  0  0  0  0  0  0  0  0
   -4.4938    2.2730    2.9360 N   0  0  0  0  0  0  0  0  0  0  0  0
   -3.0817    1.7631    4.9144 C   0  0  0  0  0  0  0  0  0  0  0  0
   -3.0366    0.6750    5.7982 C   0  0  0  0  0  0  0  0  0  0  0  0
   -4.3865   -0.3577    5.5680 S   0  0  0  0  0  0  0  0  0  0  0  0
   -1.9698    0.4444    6.7822 C   0  0  0  0  0  0  0  0  0  0  0  0
   -0.9327   -0.3964    6.6309 C   0  0  0  0  0  0  0  0  0  0  0  0
   -0.6265   -1.2288    5.4465 C   0  0  0  0  0  0  0  0  0  0  0  0
    0.5092   -2.0625    5.3708 C   0  0  0  0  0  0  0  0  0  0  0  0
    0.5547   -2.7084    4.1429 C   0  0  0  0  0  0  0  0  0  0  0  0
   -0.4670   -2.4199    3.3052 C   0  0  0  0  0  0  0  0  0  0  0  0
   -1.5581   -1.3785    4.0147 S   0  0  0  0  0  0  0  0  0  0  0  0
   -0.3185   -3.2341    2.2225 C   0  0  0  0  0  0  0  0  0  0  0  0
    0.7806   -3.9850    2.4750 C   0  0  0  0  0  0  0  0  0  0  0  0
    1.3581   -3.6908    3.6673 N   0  0  0  0  0  0  0  0  0  0  0  0
    1.0115   -5.0057    1.5643 C   0  0  0  0  0  0  0  0  0  0  0  0
    0.0371   -4.9795    0.5510 C   0  0  0  0  0  0  0  0  0  0  0  0
   -1.1338   -3.7565    0.8570 S   0  0  0  0  0  0  0  0  0  0  0  0
   -0.0778   -6.0148   -0.4847 C   0  0  0  0  0  0  0  0  0  0  0  0
   -0.3231   -5.7852   -1.7811 C   0  0  0  0  0  0  0  0  0  0  0  0
   -0.2917   -4.4605   -2.4449 C   0  0  0  0  0  0  0  0  0  0  0  0
    0.6390   -3.1331   -1.9666 S   0  0  0  0  0  0  0  0  0  0  0  0
    0.3452   -2.1588   -3.3031 C   0  0  0  0  0  0  0  0  0  0  0  0
   -0.4461   -2.8884   -4.1929 C   0  0  0  0  0  0  0  0  0  0  0  0
   -0.7965   -4.1685   -3.7155 C   0  0  0  0  0  0  0  0  0  0  0  0
   -1.5242   -5.0484   -4.5270 C   0  0  0  0  0  0  0  0  0  0  0  0
   -1.8624   -4.6728   -5.8373 C   0  0  0  0  0  0  0  0  0  0  0  0
   -2.5433   -5.6020   -6.6418 O   0  0  0  0  0  0  0  0  0  0  0  0
   -2.7981   -5.4288   -8.0343 C   0  0  0  0  0  0  0  0  0  0  0  0
   -1.4970   -3.3920   -6.3117 C   0  0  0  0  0  0  0  0  0  0  0  0
   -0.7928   -2.5013   -5.4916 C   0  0  0  0  0  0  0  0  0  0  0  0
    0.9589   -0.8400   -3.5095 C   0  0  0  0  0  0  0  0  0  0  0  0
    0.3212    0.2745   -4.0828 C   0  0  0  0  0  0  0  0  0  0  0  0
    1.1827    1.3661   -4.0807 C   0  0  0  0  0  0  0  0  0  0  0  0
    2.4006    1.1331   -3.5349 C   0  0  0  0  0  0  0  0  0  0  0  0
    2.5223   -0.4234   -2.9412 S   0  0  0  0  0  0  0  0  0  0  0  0
    2.9865    2.3539   -3.3788 C   0  0  0  0  0  0  0  0  0  0  0  0
    2.0899    3.2616   -3.8375 C   0  0  0  0  0  0  0  0  0  0  0  0
    0.9510    2.6833   -4.2930 N   0  0  0  0  0  0  0  0  0  0  0  0
    2.3845    4.5829   -3.5236 C   0  0  0  0  0  0  0  0  0  0  0  0
    3.5852    4.6555   -2.7985 C   0  0  0  0  0  0  0  0  0  0  0  0
    4.2193    3.0810   -2.5121 S   0  0  0  0  0  0  0  0  0  0  0  0
    4.1436    5.9144   -2.2766 C   0  0  0  0  0  0  0  0  0  0  0  0
    5.2983    5.9619   -1.6203 C   0  0  0  0  0  0  0  0  0  0  0  0
    5.2833   -3.3834    4.4829 H   0  0  0  0  0  0  0  0  0  0  0  0
    4.0725   -3.5145    2.1459 H   0  0  0  0  0  0  0  0  0  0  0  0
    3.0137   -1.4305    0.2883 H   0  0  0  0  0  0  0  0  0  0  0  0
    2.4585    1.3880   -0.4742 H   0  0  0  0  0  0  0  0  0  0  0  0
    3.4192    4.9009    0.8230 H   0  0  0  0  0  0  0  0  0  0  0  0
    1.4108    5.3209   -0.3495 H   0  0  0  0  0  0  0  0  0  0  0  0
    0.5578    2.2315    1.8009 H   0  0  0  0  0  0  0  0  0  0  0  0
   -1.5023    0.1568    1.7935 H   0  0  0  0  0  0  0  0  0  0  0  0
   -3.8875   -1.1415    0.7650 H   0  0  0  0  0  0  0  0  0  0  0  0
   -6.1417   -1.0920   -2.2777 H   0  0  0  0  0  0  0  0  0  0  0  0
   -7.7035   -1.0745   -0.4769 H   0  0  0  0  0  0  0  0  0  0  0  0
   -5.5371    1.9249    0.3035 H   0  0  0  0  0  0  0  0  0  0  0  0
   -3.8959    2.9471    2.4085 H   0  0  0  0  0  0  0  0  0  0  0  0
   -2.2903    2.4861    4.7930 H   0  0  0  0  0  0  0  0  0  0  0  0
   -2.0143    1.0388    7.6846 H   0  0  0  0  0  0  0  0  0  0  0  0
   -0.2235   -0.4464    7.4473 H   0  0  0  0  0  0  0  0  0  0  0  0
    1.2419   -2.1960    6.1614 H   0  0  0  0  0  0  0  0  0  0  0  0
    2.1541   -4.1708    4.1462 H   0  0  0  0  0  0  0  0  0  0  0  0
    1.8086   -5.7354    1.6422 H   0  0  0  0  0  0  0  0  0  0  0  0
    0.0281   -7.0438   -0.1631 H   0  0  0  0  0  0  0  0  0  0  0  0
   -0.4735   -6.6538   -2.4102 H   0  0  0  0  0  0  0  0  0  0  0  0
   -1.8058   -6.0287   -4.1697 H   0  0  0  0  0  0  0  0  0  0  0  0
   -1.8415   -5.2924   -8.5818 H   0  0  0  0  0  0  0  0  0  0  0  0
   -3.3024   -6.3378   -8.4195 H   0  0  0  0  0  0  0  0  0  0  0  0
   -3.4642   -4.5560   -8.2000 H   0  0  0  0  0  0  0  0  0  0  0  0
   -1.7405   -3.0781   -7.3203 H   0  0  0  0  0  0  0  0  0  0  0  0
   -0.4881   -1.5469   -5.8900 H   0  0  0  0  0  0  0  0  0  0  0  0
   -0.7180    0.3075   -4.3941 H   0  0  0  0  0  0  0  0  0  0  0  0
    0.0539    3.1438   -4.5640 H   0  0  0  0  0  0  0  0  0  0  0  0
    1.7499    5.4298   -3.7425 H   0  0  0  0  0  0  0  0  0  0  0  0
    3.5949    6.8340   -2.4323 H   0  0  0  0  0  0  0  0  0  0  0  0
    5.8896    5.0721   -1.4429 H   0  0  0  0  0  0  0  0  0  0  0  0
    5.6738    6.9097   -1.2541 H   0  0  0  0  0  0  0  0  0  0  0  0
  1  2  2  0
  2  3  1  0
  3  4  2  0
  4  5  1  0
  4  6  1  0
  6  7  2  0
  7  8  1  0
  7  9  1  0
  9 10  2  0
 10 11  1  0
 10 12  1  0
 12 13  2  3
 13 14  1  0
 14 15  2  0
 15 16  1  0
 16 17  2  0
 17 18  1  0
 17 19  1  0
 19 20  2  0
 20 21  1  0
 20 22  1  0
 22 23  2  0
 23 24  1  0
 23 25  1  0
 25 26  2  3
 26 27  1  0
 27 28  2  0
 28 29  1  0
 29 30  2  0
 30 31  1  0
 30 32  1  0
 32 33  2  0
 33 34  1  0
 33 35  1  0
 35 36  2  0
 36 37  1  0
 36 38  1  0
 38 39  2  3
 39 40  1  0
 40 41  2  0
 41 42  1  0
 42 43  2  0
 43 44  1  0
 43 45  1  0
 45 46  2  0
 46 47  1  0
 46 48  1  0
 48 49  2  0
 49 50  1  0
 49 51  1  0
 51 52  2  3
 52 53  1  0
 53 54  1  0
 54 55  1  0
 55 56  2  0
 56 57  1  0
 57 58  1  0
 58 59  2  0
 59 60  1  0
 60 61  1  0
 59 62  1  0
 62 63  2  0
 55 64  1  0
 64 65  2  0
 65 66  1  0
 66 67  2  0
 67 68  1  0
 67 69  1  0
 69 70  2  0
 70 71  1  0
 70 72  1  0
 72 73  2  0
 73 74  1  0
 73 75  1  0
 75 76  2  3
  5  1  1  0
 11  6  1  0
 18 14  1  0
 24 19  1  0
 31 27  1  0
 37 32  1  0
 44 40  1  0
 50 45  1  0
 57 53  2  0
 68 64  1  0
 74 69  1  0
  8  3  1  0
 21 16  1  0
 34 29  1  0
 47 42  1  0
 63 56  1  0
 71 66  1  0
  1 77  1  0
  2 78  1  0
  8 79  1  0
  9 80  1  0
 12 81  1  0
 13 82  1  0
 15 83  1  0
 21 84  1  0
 22 85  1  0
 25 86  1  0
 26 87  1  0
 28 88  1  0
 34 89  1  0
 35 90  1  0
 38 91  1  0
 39 92  1  0
 41 93  1  0
 47 94  1  0
 48 95  1  0
 51 96  1  0
 52 97  1  0
 58 98  1  0
 61 99  1  0
 61100  1  0
 61101  1  0
 62102  1  0
 63103  1  0
 65104  1  0
 71105  1  0
 72106  1  0
 75107  1  0
 76108  1  0
 76109  1  0
M  END

