
     RDKit          3D

164170  0  0  0  0  0  0  0  0999 V2000
    4.8047   -0.1296    2.3368 C   0  0  0  0  0  0  0  0  0  0  0  0
    3.9229    0.3440    3.6843 S   0  0  0  0  0  0  0  0  0  0  0  0
    5.0375    1.4681    4.2657 C   0  0  0  0  0  0  0  0  0  0  0  0
    6.1338    1.4854    3.4073 C   0  0  0  0  0  0  0  0  0  0  0  0
    5.9995    0.5969    2.3183 C   0  0  0  0  0  0  0  0  0  0  0  0
    6.9482    0.4933    1.2962 O   0  0  0  0  0  0  0  0  0  0  0  0
    6.8049   -0.3670    0.1710 C   0  0  0  0  0  0  0  0  0  0  0  0
    8.0009   -0.1969   -0.7538 C   0  0  0  0  0  0  0  0  0  0  0  0
    7.2169    2.3514    3.6284 O   0  0  0  0  0  0  0  0  0  0  0  0
    8.5794    2.0515    3.3296 C   0  0  0  0  0  0  0  0  0  0  0  0
    9.0952    0.9498    4.2485 C   0  0  0  0  0  0  0  0  0  0  0  0
    4.8781    2.3178    5.4634 C   0  0  0  0  0  0  0  0  0  0  0  0
    3.7247    2.3712    6.1293 C   0  0  0  0  0  0  0  0  0  0  0  0
    3.4960    3.3348    7.2272 C   0  0  0  0  0  0  0  0  0  0  0  0
    2.2696    3.7828    7.5453 C   0  0  0  0  0  0  0  0  0  0  0  0
    1.0785    3.5079    6.7164 C   0  0  0  0  0  0  0  0  0  0  0  0
    1.0258    3.6367    5.0405 S   0  0  0  0  0  0  0  0  0  0  0  0
   -0.4622    2.8916    4.7992 C   0  0  0  0  0  0  0  0  0  0  0  0
   -0.9722    2.5631    6.0649 C   0  0  0  0  0  0  0  0  0  0  0  0
   -0.1096    2.9125    7.1301 C   0  0  0  0  0  0  0  0  0  0  0  0
   -0.4444    2.6008    8.4515 C   0  0  0  0  0  0  0  0  0  0  0  0
   -1.6609    1.9592    8.7267 C   0  0  0  0  0  0  0  0  0  0  0  0
   -1.9597    1.6514   10.0622 O   0  0  0  0  0  0  0  0  0  0  0  0
   -3.1365    0.9705   10.4863 C   0  0  0  0  0  0  0  0  0  0  0  0
   -2.5368    1.6461    7.6631 C   0  0  0  0  0  0  0  0  0  0  0  0
   -2.1979    1.9444    6.3362 C   0  0  0  0  0  0  0  0  0  0  0  0
   -0.9019    2.4156    3.4721 C   0  0  0  0  0  0  0  0  0  0  0  0
   -1.7342    0.9781    3.1646 S   0  0  0  0  0  0  0  0  0  0  0  0
   -1.5278    0.9819    1.4927 C   0  0  0  0  0  0  0  0  0  0  0  0
   -0.7447    2.0790    1.1564 C   0  0  0  0  0  0  0  0  0  0  0  0
   -0.4409    2.9090    2.2503 C   0  0  0  0  0  0  0  0  0  0  0  0
    0.2524    4.1184    2.1498 O   0  0  0  0  0  0  0  0  0  0  0  0
   -0.0752    5.1391    1.2065 C   0  0  0  0  0  0  0  0  0  0  0  0
   -1.4086    5.7860    1.5622 C   0  0  0  0  0  0  0  0  0  0  0  0
   -0.2387    2.2549   -0.1369 O   0  0  0  0  0  0  0  0  0  0  0  0
    1.1588    2.2742   -0.4148 C   0  0  0  0  0  0  0  0  0  0  0  0
    1.7672    0.8948   -0.1925 C   0  0  0  0  0  0  0  0  0  0  0  0
   -1.9572   -0.0554    0.5412 C   0  0  0  0  0  0  0  0  0  0  0  0
   -2.5352   -1.2005    0.9173 C   0  0  0  0  0  0  0  0  0  0  0  0
   -2.9092   -2.1949   -0.0990 C   0  0  0  0  0  0  0  0  0  0  0  0
   -3.4546   -3.3732    0.2222 C   0  0  0  0  0  0  0  0  0  0  0  0
   -3.7883   -4.3687   -0.8142 C   0  0  0  0  0  0  0  0  0  0  0  0
   -3.1658   -4.3527   -2.3746 S   0  0  0  0  0  0  0  0  0  0  0  0
   -3.8002   -5.8202   -2.8727 C   0  0  0  0  0  0  0  0  0  0  0  0
   -4.5861   -6.3284   -1.8387 C   0  0  0  0  0  0  0  0  0  0  0  0
   -4.5943   -5.5046   -0.6821 C   0  0  0  0  0  0  0  0  0  0  0  0
   -5.4032   -5.7628    0.4340 O   0  0  0  0  0  0  0  0  0  0  0  0
   -6.3641   -4.8310    0.9396 C   0  0  0  0  0  0  0  0  0  0  0  0
   -7.4205   -4.5035   -0.1123 C   0  0  0  0  0  0  0  0  0  0  0  0
   -5.3304   -7.5088   -2.0288 O   0  0  0  0  0  0  0  0  0  0  0  0
   -6.0333   -8.2366   -1.0264 C   0  0  0  0  0  0  0  0  0  0  0  0
   -5.0600   -8.9355   -0.0816 C   0  0  0  0  0  0  0  0  0  0  0  0
   -3.8740   -6.2148   -4.2785 C   0  0  0  0  0  0  0  0  0  0  0  0
   -3.1757   -7.2225   -4.8286 C   0  0  0  0  0  0  0  0  0  0  0  0
   -2.2949   -8.1383   -4.0738 C   0  0  0  0  0  0  0  0  0  0  0  0
   -1.1632   -7.7994   -3.4388 C   0  0  0  0  0  0  0  0  0  0  0  0
   -0.6017   -6.4396   -3.3316 C   0  0  0  0  0  0  0  0  0  0  0  0
   -0.6793   -5.2230   -4.5026 S   0  0  0  0  0  0  0  0  0  0  0  0
    0.2141   -4.0704   -3.6606 C   0  0  0  0  0  0  0  0  0  0  0  0
    0.6228   -4.6420   -2.4615 C   0  0  0  0  0  0  0  0  0  0  0  0
    0.1838   -5.9581   -2.2739 C   0  0  0  0  0  0  0  0  0  0  0  0
    0.5303   -6.6812   -1.1233 O   0  0  0  0  0  0  0  0  0  0  0  0
   -0.4119   -7.3887   -0.3232 C   0  0  0  0  0  0  0  0  0  0  0  0
    0.1981   -7.6309    1.0468 C   0  0  0  0  0  0  0  0  0  0  0  0
    1.3621   -3.9384   -1.5086 O   0  0  0  0  0  0  0  0  0  0  0  0
    0.7645   -3.4786   -0.3009 C   0  0  0  0  0  0  0  0  0  0  0  0
    1.8198   -2.8431    0.5893 C   0  0  0  0  0  0  0  0  0  0  0  0
    0.3489   -2.6432   -3.9868 C   0  0  0  0  0  0  0  0  0  0  0  0
   -0.3597   -2.0654   -4.9599 C   0  0  0  0  0  0  0  0  0  0  0  0
   -0.3295   -0.6060   -5.1335 C   0  0  0  0  0  0  0  0  0  0  0  0
   -1.0028   -0.0153   -6.1220 C   0  0  0  0  0  0  0  0  0  0  0  0
   -1.0075    1.4431   -6.2979 C   0  0  0  0  0  0  0  0  0  0  0  0
   -1.1782    2.2086   -7.7830 S   0  0  0  0  0  0  0  0  0  0  0  0
   -1.1312    3.7876   -7.1926 C   0  0  0  0  0  0  0  0  0  0  0  0
   -1.0301    3.7333   -5.8056 C   0  0  0  0  0  0  0  0  0  0  0  0
   -0.9906    2.4173   -5.3001 C   0  0  0  0  0  0  0  0  0  0  0  0
   -1.0296    2.1035   -3.9380 O   0  0  0  0  0  0  0  0  0  0  0  0
   -2.1457    2.4497   -3.1171 C   0  0  0  0  0  0  0  0  0  0  0  0
   -3.2557    1.4192   -3.2774 C   0  0  0  0  0  0  0  0  0  0  0  0
   -0.9557    4.8880   -5.0205 O   0  0  0  0  0  0  0  0  0  0  0  0
    0.0488    5.0743   -4.0250 C   0  0  0  0  0  0  0  0  0  0  0  0
   -0.1519    6.4116   -3.3354 C   0  0  0  0  0  0  0  0  0  0  0  0
   -1.2934    5.0227   -7.9817 C   0  0  0  0  0  0  0  0  0  0  0  0
   -0.8525    5.2062   -9.2352 C   0  0  0  0  0  0  0  0  0  0  0  0
    0.0339    4.2665   -9.9483 C   0  0  0  0  0  0  0  0  0  0  0  0
    0.1916    4.3367  -11.2662 C   0  0  0  0  0  0  0  0  0  0  0  0
    4.4842   -0.8593    1.6075 H   0  0  0  0  0  0  0  0  0  0  0  0
    5.8745   -0.1099   -0.3837 H   0  0  0  0  0  0  0  0  0  0  0  0
    6.7511   -1.4234    0.5129 H   0  0  0  0  0  0  0  0  0  0  0  0
    8.9393   -0.4029   -0.1958 H   0  0  0  0  0  0  0  0  0  0  0  0
    7.9227   -0.9029   -1.6071 H   0  0  0  0  0  0  0  0  0  0  0  0
    8.0282    0.8426   -1.1444 H   0  0  0  0  0  0  0  0  0  0  0  0
    9.1798    2.9706    3.5032 H   0  0  0  0  0  0  0  0  0  0  0  0
    8.7139    1.7738    2.2666 H   0  0  0  0  0  0  0  0  0  0  0  0
   10.1671    0.7527    4.0349 H   0  0  0  0  0  0  0  0  0  0  0  0
    8.9880    1.2660    5.3085 H   0  0  0  0  0  0  0  0  0  0  0  0
    8.5184    0.0119    4.0884 H   0  0  0  0  0  0  0  0  0  0  0  0
    5.6960    2.9634    5.7548 H   0  0  0  0  0  0  0  0  0  0  0  0
    2.9071    1.7397    5.8238 H   0  0  0  0  0  0  0  0  0  0  0  0
    4.3395    3.6621    7.8215 H   0  0  0  0  0  0  0  0  0  0  0  0
    2.1474    4.3860    8.4381 H   0  0  0  0  0  0  0  0  0  0  0  0
    0.2324    2.8492    9.2617 H   0  0  0  0  0  0  0  0  0  0  0  0
   -3.2228   -0.0082    9.9714 H   0  0  0  0  0  0  0  0  0  0  0  0
   -3.0767    0.7871   11.5755 H   0  0  0  0  0  0  0  0  0  0  0  0
   -4.0289    1.5950   10.2751 H   0  0  0  0  0  0  0  0  0  0  0  0
   -3.4889    1.1659    7.8519 H   0  0  0  0  0  0  0  0  0  0  0  0
   -2.8969    1.7088    5.5474 H   0  0  0  0  0  0  0  0  0  0  0  0
   -0.1238    4.7388    0.1717 H   0  0  0  0  0  0  0  0  0  0  0  0
    0.7202    5.9120    1.2330 H   0  0  0  0  0  0  0  0  0  0  0  0
   -1.3612    6.1847    2.5988 H   0  0  0  0  0  0  0  0  0  0  0  0
   -1.6182    6.6218    0.8624 H   0  0  0  0  0  0  0  0  0  0  0  0
   -2.2293    5.0423    1.4960 H   0  0  0  0  0  0  0  0  0  0  0  0
    1.6808    3.0202    0.2260 H   0  0  0  0  0  0  0  0  0  0  0  0
    1.3070    2.5638   -1.4743 H   0  0  0  0  0  0  0  0  0  0  0  0
    1.2421    0.1494   -0.8241 H   0  0  0  0  0  0  0  0  0  0  0  0
    1.6755    0.5969    0.8752 H   0  0  0  0  0  0  0  0  0  0  0  0
    2.8407    0.9077   -0.4630 H   0  0  0  0  0  0  0  0  0  0  0  0
   -1.7710    0.1203   -0.5113 H   0  0  0  0  0  0  0  0  0  0  0  0
   -2.7195   -1.4111    1.9630 H   0  0  0  0  0  0  0  0  0  0  0  0
   -2.7363   -1.9505   -1.1381 H   0  0  0  0  0  0  0  0  0  0  0  0
   -3.6336   -3.6161    1.2618 H   0  0  0  0  0  0  0  0  0  0  0  0
   -5.8769   -3.8945    1.2758 H   0  0  0  0  0  0  0  0  0  0  0  0
   -6.8623   -5.2822    1.8216 H   0  0  0  0  0  0  0  0  0  0  0  0
   -8.1781   -3.8159    0.3165 H   0  0  0  0  0  0  0  0  0  0  0  0
   -7.9297   -5.4297   -0.4485 H   0  0  0  0  0  0  0  0  0  0  0  0
   -6.9497   -4.0126   -0.9894 H   0  0  0  0  0  0  0  0  0  0  0  0
   -6.6483   -9.0133   -1.5291 H   0  0  0  0  0  0  0  0  0  0  0  0
   -6.7303   -7.5769   -0.4717 H   0  0  0  0  0  0  0  0  0  0  0  0
   -5.6305   -9.5408    0.6515 H   0  0  0  0  0  0  0  0  0  0  0  0
   -4.4426   -8.1935    0.4655 H   0  0  0  0  0  0  0  0  0  0  0  0
   -4.3852   -9.6009   -0.6550 H   0  0  0  0  0  0  0  0  0  0  0  0
   -4.5375   -5.6414   -4.9136 H   0  0  0  0  0  0  0  0  0  0  0  0
   -3.4025   -7.4931   -5.8536 H   0  0  0  0  0  0  0  0  0  0  0  0
   -2.4978   -9.1993   -4.1706 H   0  0  0  0  0  0  0  0  0  0  0  0
   -0.5918   -8.6009   -2.9914 H   0  0  0  0  0  0  0  0  0  0  0  0
   -1.3437   -6.7922   -0.2114 H   0  0  0  0  0  0  0  0  0  0  0  0
   -0.6582   -8.3667   -0.7779 H   0  0  0  0  0  0  0  0  0  0  0  0
   -0.5244   -8.1663    1.6959 H   0  0  0  0  0  0  0  0  0  0  0  0
    0.4637   -6.6605    1.5160 H   0  0  0  0  0  0  0  0  0  0  0  0
    1.1182   -8.2495    0.9412 H   0  0  0  0  0  0  0  0  0  0  0  0
    0.2916   -4.3272    0.2415 H   0  0  0  0  0  0  0  0  0  0  0  0
   -0.0190   -2.7264   -0.5373 H   0  0  0  0  0  0  0  0  0  0  0  0
    2.5585   -3.6117    0.9042 H   0  0  0  0  0  0  0  0  0  0  0  0
    2.3520   -2.0389    0.0371 H   0  0  0  0  0  0  0  0  0  0  0  0
    1.3399   -2.4076    1.4916 H   0  0  0  0  0  0  0  0  0  0  0  0
    0.9777   -2.0281   -3.3553 H   0  0  0  0  0  0  0  0  0  0  0  0
   -1.0143   -2.6539   -5.5896 H   0  0  0  0  0  0  0  0  0  0  0  0
    0.2600   -0.0105   -4.4455 H   0  0  0  0  0  0  0  0  0  0  0  0
   -1.5225   -0.6207   -6.8517 H   0  0  0  0  0  0  0  0  0  0  0  0
   -2.5250    3.4617   -3.3706 H   0  0  0  0  0  0  0  0  0  0  0  0
   -1.8227    2.4607   -2.0587 H   0  0  0  0  0  0  0  0  0  0  0  0
   -2.8713    0.4067   -3.0161 H   0  0  0  0  0  0  0  0  0  0  0  0
   -4.0981    1.6737   -2.6003 H   0  0  0  0  0  0  0  0  0  0  0  0
   -3.6220    1.4129   -4.3265 H   0  0  0  0  0  0  0  0  0  0  0  0
    0.0105    4.2706   -3.2605 H   0  0  0  0  0  0  0  0  0  0  0  0
    1.0515    5.0591   -4.5084 H   0  0  0  0  0  0  0  0  0  0  0  0
   -1.1176    6.4116   -2.7839 H   0  0  0  0  0  0  0  0  0  0  0  0
    0.6753    6.5880   -2.6153 H   0  0  0  0  0  0  0  0  0  0  0  0
   -0.1602    7.2309   -4.0859 H   0  0  0  0  0  0  0  0  0  0  0  0
   -1.8250    5.8403   -7.5119 H   0  0  0  0  0  0  0  0  0  0  0  0
   -1.1171    6.1314   -9.7308 H   0  0  0  0  0  0  0  0  0  0  0  0
    0.6041    3.5292   -9.4003 H   0  0  0  0  0  0  0  0  0  0  0  0
   -0.3599    5.0571  -11.8573 H   0  0  0  0  0  0  0  0  0  0  0  0
    0.8536    3.6413  -11.7725 H   0  0  0  0  0  0  0  0  0  0  0  0
  1  2  1  0
  2  3  1  0
  3  4  2  0
  4  5  1  0
  5  6  1  0
  6  7  1  0
  7  8  1  0
  4  9  1  0
  9 10  1  0
 10 11  1  0
  3 12  1  0
 12 13  2  3
 13 14  1  0
 14 15  2  3
 15 16  1  0
 16 17  1  0
 17 18  1  0
 18 19  2  0
 19 20  1  0
 20 21  1  0
 21 22  2  0
 22 23  1  0
 23 24  1  0
 22 25  1  0
 25 26  2  0
 18 27  1  0
 27 28  1  0
 28 29  1  0
 29 30  2  0
 30 31  1  0
 31 32  1  0
 32 33  1  0
 33 34  1  0
 30 35  1  0
 35 36  1  0
 36 37  1  0
 29 38  1  0
 38 39  2  3
 39 40  1  0
 40 41  2  3
 41 42  1  0
 42 43  1  0
 43 44  1  0
 44 45  2  0
 45 46  1  0
 46 47  1  0
 47 48  1  0
 48 49  1  0
 45 50  1  0
 50 51  1  0
 51 52  1  0
 44 53  1  0
 53 54  2  3
 54 55  1  0
 55 56  2  3
 56 57  1  0
 57 58  1  0
 58 59  1  0
 59 60  2  0
 60 61  1  0
 61 62  1  0
 62 63  1  0
 63 64  1  0
 60 65  1  0
 65 66  1  0
 66 67  1  0
 59 68  1  0
 68 69  2  3
 69 70  1  0
 70 71  2  3
 71 72  1  0
 72 73  1  0
 73 74  1  0
 74 75  2  0
 75 76  1  0
 76 77  1  0
 77 78  1  0
 78 79  1  0
 75 80  1  0
 80 81  1  0
 81 82  1  0
 74 83  1  0
 83 84  2  3
 84 85  1  0
 85 86  2  3
  5  1  2  0
 20 16  2  0
 31 27  2  0
 46 42  2  0
 61 57  2  0
 76 72  2  0
 26 19  1  0
  1 87  1  0
  7 88  1  0
  7 89  1  0
  8 90  1  0
  8 91  1  0
  8 92  1  0
 10 93  1  0
 10 94  1  0
 11 95  1  0
 11 96  1  0
 11 97  1  0
 12 98  1  0
 13 99  1  0
 14100  1  0
 15101  1  0
 21102  1  0
 24103  1  0
 24104  1  0
 24105  1  0
 25106  1  0
 26107  1  0
 33108  1  0
 33109  1  0
 34110  1  0
 34111  1  0
 34112  1  0
 36113  1  0
 36114  1  0
 37115  1  0
 37116  1  0
 37117  1  0
 38118  1  0
 39119  1  0
 40120  1  0
 41121  1  0
 48122  1  0
 48123  1  0
 49124  1  0
 49125  1  0
 49126  1  0
 51127  1  0
 51128  1  0
 52129  1  0
 52130  1  0
 52131  1  0
 53132  1  0
 54133  1  0
 55134  1  0
 56135  1  0
 63136  1  0
 63137  1  0
 64138  1  0
 64139  1  0
 64140  1  0
 66141  1  0
 66142  1  0
 67143  1  0
 67144  1  0
 67145  1  0
 68146  1  0
 69147  1  0
 70148  1  0
 71149  1  0
 78150  1  0
 78151  1  0
 79152  1  0
 79153  1  0
 79154  1  0
 81155  1  0
 81156  1  0
 82157  1  0
 82158  1  0
 82159  1  0
 83160  1  0
 84161  1  0
 85162  1  0
 86163  1  0
 86164  1  0
M  END

