
     RDKit          3D

229255  0  0  0  0  0  0  0  0999 V2000
    0.7939   -9.7958    9.1015 C   0  0  0  0  0  0  0  0  0  0  0  0
    1.8518   -8.9003    9.2187 C   0  0  0  0  0  0  0  0  0  0  0  0
    1.7500   -7.8024    8.3499 C   0  0  0  0  0  0  0  0  0  0  0  0
    2.6786   -6.7464    8.2143 C   0  0  0  0  0  0  0  0  0  0  0  0
    3.8982   -6.6728    9.0381 C   0  0  0  0  0  0  0  0  0  0  0  0
    3.9131   -6.5250   10.7128 S   0  0  0  0  0  0  0  0  0  0  0  0
    5.5860   -6.5782   10.8838 C   0  0  0  0  0  0  0  0  0  0  0  0
    6.3074   -6.4814   12.1929 C   0  0  0  0  0  0  0  0  0  0  0  0
    6.5766   -5.0241   12.5569 C   0  0  0  0  0  0  0  0  0  0  0  0
    6.1607   -6.6978    9.6183 C   0  0  0  0  0  0  0  0  0  0  0  0
    7.8952   -6.7748    9.3406 Cl  0  0  0  0  0  0  0  0  0  0  0  0
    5.2140   -6.7599    8.5843 C   0  0  0  0  0  0  0  0  0  0  0  0
    5.6450   -7.0092    6.8966 Cl  0  0  0  0  0  0  0  0  0  0  0  0
    2.3920   -5.7704    7.2409 C   0  0  0  0  0  0  0  0  0  0  0  0
    1.2580   -5.8414    6.4241 C   0  0  0  0  0  0  0  0  0  0  0  0
    0.3289   -6.8895    6.5619 C   0  0  0  0  0  0  0  0  0  0  0  0
   -0.8784   -6.9703    5.7186 C   0  0  0  0  0  0  0  0  0  0  0  0
   -0.8733   -7.1524    4.0448 S   0  0  0  0  0  0  0  0  0  0  0  0
   -2.5358   -6.9943    3.8396 C   0  0  0  0  0  0  0  0  0  0  0  0
   -3.2433   -7.0674    2.5195 C   0  0  0  0  0  0  0  0  0  0  0  0
   -3.7831   -8.4718    2.2715 C   0  0  0  0  0  0  0  0  0  0  0  0
   -3.1220   -6.8128    5.0900 C   0  0  0  0  0  0  0  0  0  0  0  0
   -2.1930   -6.7872    6.1422 C   0  0  0  0  0  0  0  0  0  0  0  0
   -2.6423   -6.4827    7.8164 Cl  0  0  0  0  0  0  0  0  0  0  0  0
   -4.8536   -6.6096    5.3309 Cl  0  0  0  0  0  0  0  0  0  0  0  0
    0.6085   -7.8548    7.5429 C   0  0  0  0  0  0  0  0  0  0  0  0
   -0.2647   -9.2443    7.9083 S   0  0  0  0  0  0  0  0  0  0  0  0
    1.1645   -4.7780    5.5199 C   0  0  0  0  0  0  0  0  0  0  0  0
    2.2144   -3.8701    5.6272 C   0  0  0  0  0  0  0  0  0  0  0  0
    3.2611   -4.3696    6.8534 S   0  0  0  0  0  0  0  0  0  0  0  0
    2.3703   -2.7001    4.7561 C   0  0  0  0  0  0  0  0  0  0  0  0
    3.0876   -1.5308    5.0184 C   0  0  0  0  0  0  0  0  0  0  0  0
    2.9174   -0.5537    4.0130 C   0  0  0  0  0  0  0  0  0  0  0  0
    3.4156    0.7709    4.0176 C   0  0  0  0  0  0  0  0  0  0  0  0
    4.2861    1.2674    5.0991 C   0  0  0  0  0  0  0  0  0  0  0  0
    3.8988    2.5209    6.1523 S   0  0  0  0  0  0  0  0  0  0  0  0
    5.3150    2.4460    7.0570 C   0  0  0  0  0  0  0  0  0  0  0  0
    5.6416    3.3429    8.2150 C   0  0  0  0  0  0  0  0  0  0  0  0
    5.4706    2.6186    9.5474 C   0  0  0  0  0  0  0  0  0  0  0  0
    6.1158    1.4260    6.5417 C   0  0  0  0  0  0  0  0  0  0  0  0
    7.7001    1.0144    7.1861 Cl  0  0  0  0  0  0  0  0  0  0  0  0
    5.5400    0.7694    5.4446 C   0  0  0  0  0  0  0  0  0  0  0  0
    6.3446   -0.5235    4.5645 Cl  0  0  0  0  0  0  0  0  0  0  0  0
    3.0055    1.6087    2.9561 C   0  0  0  0  0  0  0  0  0  0  0  0
    2.1779    1.1514    1.9235 C   0  0  0  0  0  0  0  0  0  0  0  0
    1.6757   -0.1579    1.9294 C   0  0  0  0  0  0  0  0  0  0  0  0
    0.6260   -0.5970    0.9908 C   0  0  0  0  0  0  0  0  0  0  0  0
    0.8662   -1.0182   -0.6204 S   0  0  0  0  0  0  0  0  0  0  0  0
   -0.7347   -1.4452   -0.9232 C   0  0  0  0  0  0  0  0  0  0  0  0
   -1.2467   -1.9731   -2.2244 C   0  0  0  0  0  0  0  0  0  0  0  0
   -1.1386   -3.4921   -2.2771 C   0  0  0  0  0  0  0  0  0  0  0  0
   -1.4739   -1.2810    0.2439 C   0  0  0  0  0  0  0  0  0  0  0  0
   -0.7143   -0.7948    1.3133 C   0  0  0  0  0  0  0  0  0  0  0  0
   -1.3917   -0.4464    2.8993 Cl  0  0  0  0  0  0  0  0  0  0  0  0
   -3.1772   -1.6820    0.3804 Cl  0  0  0  0  0  0  0  0  0  0  0  0
    2.0750   -0.9822    2.9843 C   0  0  0  0  0  0  0  0  0  0  0  0
    1.5517   -2.5407    3.2952 S   0  0  0  0  0  0  0  0  0  0  0  0
    1.8386    2.1410    1.0000 C   0  0  0  0  0  0  0  0  0  0  0  0
    2.3779    3.3839    1.3066 C   0  0  0  0  0  0  0  0  0  0  0  0
    3.2733    3.2659    2.7349 S   0  0  0  0  0  0  0  0  0  0  0  0
    1.9101    4.6102    0.6613 C   0  0  0  0  0  0  0  0  0  0  0  0
    0.8974    5.3840    1.2306 C   0  0  0  0  0  0  0  0  0  0  0  0
    0.0228    5.9490    0.2802 C   0  0  0  0  0  0  0  0  0  0  0  0
   -1.2361    6.5276    0.5509 C   0  0  0  0  0  0  0  0  0  0  0  0
   -1.6779    6.8666    1.9152 C   0  0  0  0  0  0  0  0  0  0  0  0
   -2.0276    5.7668    3.1390 S   0  0  0  0  0  0  0  0  0  0  0  0
   -2.5312    6.9135    4.2650 C   0  0  0  0  0  0  0  0  0  0  0  0
   -3.0956    6.5906    5.6165 C   0  0  0  0  0  0  0  0  0  0  0  0
   -4.5952    6.3378    5.5180 C   0  0  0  0  0  0  0  0  0  0  0  0
   -2.4490    8.1777    3.6838 C   0  0  0  0  0  0  0  0  0  0  0  0
   -2.9304    9.6580    4.5012 Cl  0  0  0  0  0  0  0  0  0  0  0  0
   -1.9715    8.1505    2.3665 C   0  0  0  0  0  0  0  0  0  0  0  0
   -1.7628    9.5911    1.3809 Cl  0  0  0  0  0  0  0  0  0  0  0  0
   -2.1016    6.7078   -0.5393 C   0  0  0  0  0  0  0  0  0  0  0  0
   -1.7150    6.4399   -1.8538 C   0  0  0  0  0  0  0  0  0  0  0  0
   -0.4303    5.9360   -2.1370 C   0  0  0  0  0  0  0  0  0  0  0  0
   -0.0686    5.4520   -3.4819 C   0  0  0  0  0  0  0  0  0  0  0  0
    1.0036    6.2241   -4.5181 S   0  0  0  0  0  0  0  0  0  0  0  0
    0.8268    5.1485   -5.8017 C   0  0  0  0  0  0  0  0  0  0  0  0
    1.4913    5.3121   -7.1397 C   0  0  0  0  0  0  0  0  0  0  0  0
    2.3290    4.0921   -7.5219 C   0  0  0  0  0  0  0  0  0  0  0  0
   -0.0851    4.1612   -5.4294 C   0  0  0  0  0  0  0  0  0  0  0  0
   -0.5831    4.3276   -4.1275 C   0  0  0  0  0  0  0  0  0  0  0  0
   -1.7532    3.2356   -3.3951 Cl  0  0  0  0  0  0  0  0  0  0  0  0
   -0.5846    2.8467   -6.4815 Cl  0  0  0  0  0  0  0  0  0  0  0  0
    0.4046    5.6820   -1.0395 C   0  0  0  0  0  0  0  0  0  0  0  0
    1.7643    4.7018   -1.0176 S   0  0  0  0  0  0  0  0  0  0  0  0
   -2.7782    6.4864   -2.7594 C   0  0  0  0  0  0  0  0  0  0  0  0
   -4.0328    6.6399   -2.1557 C   0  0  0  0  0  0  0  0  0  0  0  0
   -3.7822    6.8606   -0.4975 S   0  0  0  0  0  0  0  0  0  0  0  0
   -5.2230    5.9810   -2.7314 C   0  0  0  0  0  0  0  0  0  0  0  0
   -5.3099    5.7868   -4.1115 C   0  0  0  0  0  0  0  0  0  0  0  0
   -5.6690    4.4792   -4.4766 C   0  0  0  0  0  0  0  0  0  0  0  0
   -5.3469    3.8940   -5.7125 C   0  0  0  0  0  0  0  0  0  0  0  0
   -4.8893    4.7204   -6.8407 C   0  0  0  0  0  0  0  0  0  0  0  0
   -3.2845    4.9076   -7.3073 S   0  0  0  0  0  0  0  0  0  0  0  0
   -3.5765    6.0878   -8.4678 C   0  0  0  0  0  0  0  0  0  0  0  0
   -2.5256    6.6987   -9.3422 C   0  0  0  0  0  0  0  0  0  0  0  0
   -2.4632    5.9848  -10.6874 C   0  0  0  0  0  0  0  0  0  0  0  0
   -4.9438    6.3490   -8.5081 C   0  0  0  0  0  0  0  0  0  0  0  0
   -5.6781    7.5252   -9.5873 Cl  0  0  0  0  0  0  0  0  0  0  0  0
   -5.6768    5.5931   -7.5803 C   0  0  0  0  0  0  0  0  0  0  0  0
   -7.4162    5.7416   -7.3656 Cl  0  0  0  0  0  0  0  0  0  0  0  0
   -5.2464    2.4952   -5.7433 C   0  0  0  0  0  0  0  0  0  0  0  0
   -5.5829    1.6905   -4.6470 C   0  0  0  0  0  0  0  0  0  0  0  0
   -6.0883    2.2788   -3.4632 C   0  0  0  0  0  0  0  0  0  0  0  0
   -6.5783    1.4875   -2.3152 C   0  0  0  0  0  0  0  0  0  0  0  0
   -5.6885    0.3730   -1.4182 S   0  0  0  0  0  0  0  0  0  0  0  0
   -6.9378   -0.0589   -0.3751 C   0  0  0  0  0  0  0  0  0  0  0  0
   -6.8222   -1.0618    0.7332 C   0  0  0  0  0  0  0  0  0  0  0  0
   -6.3573   -0.3941    2.0229 C   0  0  0  0  0  0  0  0  0  0  0  0
   -8.0650    0.6922   -0.6956 C   0  0  0  0  0  0  0  0  0  0  0  0
   -7.8637    1.5572   -1.7817 C   0  0  0  0  0  0  0  0  0  0  0  0
   -9.1243    2.6048   -2.4241 Cl  0  0  0  0  0  0  0  0  0  0  0  0
   -9.5910    0.5755    0.1708 Cl  0  0  0  0  0  0  0  0  0  0  0  0
   -6.0403    3.6835   -3.3908 C   0  0  0  0  0  0  0  0  0  0  0  0
   -5.8347    4.5882   -1.9904 S   0  0  0  0  0  0  0  0  0  0  0  0
   -5.1514    0.3583   -4.7998 C   0  0  0  0  0  0  0  0  0  0  0  0
   -4.4276    0.1375   -5.9753 C   0  0  0  0  0  0  0  0  0  0  0  0
   -4.3971    1.5742   -6.8561 S   0  0  0  0  0  0  0  0  0  0  0  0
   -3.2776   -0.7716   -6.0099 C   0  0  0  0  0  0  0  0  0  0  0  0
   -1.7295   -0.2884   -5.5834 S   0  0  0  0  0  0  0  0  0  0  0  0
   -0.9512   -1.7554   -5.8377 C   0  0  0  0  0  0  0  0  0  0  0  0
   -1.9229   -2.6642   -6.2891 C   0  0  0  0  0  0  0  0  0  0  0  0
   -3.2238   -2.1153   -6.3604 C   0  0  0  0  0  0  0  0  0  0  0  0
   -4.3114   -2.8928   -6.7690 C   0  0  0  0  0  0  0  0  0  0  0  0
   -4.0960   -4.2370   -7.1371 C   0  0  0  0  0  0  0  0  0  0  0  0
   -5.1394   -5.0749   -7.5527 O   0  0  0  0  0  0  0  0  0  0  0  0
   -6.5049   -4.6769   -7.6372 C   0  0  0  0  0  0  0  0  0  0  0  0
   -2.7918   -4.7648   -7.1105 C   0  0  0  0  0  0  0  0  0  0  0  0
   -1.7045   -3.9854   -6.6961 C   0  0  0  0  0  0  0  0  0  0  0  0
    0.4559   -1.9789   -5.4419 C   0  0  0  0  0  0  0  0  0  0  0  0
    1.0022   -3.1685   -4.9532 C   0  0  0  0  0  0  0  0  0  0  0  0
    2.2691   -2.9977   -4.3657 C   0  0  0  0  0  0  0  0  0  0  0  0
    3.0286   -3.9980   -3.7297 C   0  0  0  0  0  0  0  0  0  0  0  0
    2.5815   -5.4011   -3.6880 C   0  0  0  0  0  0  0  0  0  0  0  0
    2.3516   -6.3686   -5.0429 S   0  0  0  0  0  0  0  0  0  0  0  0
    1.7988   -7.7183   -4.2042 C   0  0  0  0  0  0  0  0  0  0  0  0
    1.2692   -8.9567   -4.8587 C   0  0  0  0  0  0  0  0  0  0  0  0
   -0.2253   -8.8223   -5.1268 C   0  0  0  0  0  0  0  0  0  0  0  0
    1.7657   -7.4162   -2.8440 C   0  0  0  0  0  0  0  0  0  0  0  0
    1.1911   -8.5337   -1.6132 Cl  0  0  0  0  0  0  0  0  0  0  0  0
    2.2074   -6.1170   -2.5535 C   0  0  0  0  0  0  0  0  0  0  0  0
    2.2076   -5.4362   -0.9305 Cl  0  0  0  0  0  0  0  0  0  0  0  0
    4.2339   -3.5984   -3.1311 C   0  0  0  0  0  0  0  0  0  0  0  0
    4.6688   -2.2701   -3.1248 C   0  0  0  0  0  0  0  0  0  0  0  0
    3.8880   -1.2567   -3.7200 C   0  0  0  0  0  0  0  0  0  0  0  0
    4.2424    0.1722   -3.6120 C   0  0  0  0  0  0  0  0  0  0  0  0
    4.4749    1.2107   -4.9155 S   0  0  0  0  0  0  0  0  0  0  0  0
    4.8144    2.5826   -4.0020 C   0  0  0  0  0  0  0  0  0  0  0  0
    5.2055    3.9126   -4.5722 C   0  0  0  0  0  0  0  0  0  0  0  0
    6.7202    4.0817   -4.5717 C   0  0  0  0  0  0  0  0  0  0  0  0
    4.7607    2.2413   -2.6520 C   0  0  0  0  0  0  0  0  0  0  0  0
    4.4298    0.8948   -2.4328 C   0  0  0  0  0  0  0  0  0  0  0  0
    4.2405    0.2136   -0.8226 Cl  0  0  0  0  0  0  0  0  0  0  0  0
    5.0965    3.3707   -1.3456 Cl  0  0  0  0  0  0  0  0  0  0  0  0
    2.7080   -1.6695   -4.3656 C   0  0  0  0  0  0  0  0  0  0  0  0
    1.5316   -0.7190   -5.0955 S   0  0  0  0  0  0  0  0  0  0  0  0
    5.9178   -2.1064   -2.5011 C   0  0  0  0  0  0  0  0  0  0  0  0
    6.4472   -3.2969   -2.0070 C   0  0  0  0  0  0  0  0  0  0  0  0
    5.3815   -4.5539   -2.3571 S   0  0  0  0  0  0  0  0  0  0  0  0
    0.6736  -10.7023    9.6780 H   0  0  0  0  0  0  0  0  0  0  0  0
    2.6753   -9.0609    9.9023 H   0  0  0  0  0  0  0  0  0  0  0  0
    5.6849   -6.9505   12.9865 H   0  0  0  0  0  0  0  0  0  0  0  0
    7.2684   -7.0373   12.1430 H   0  0  0  0  0  0  0  0  0  0  0  0
    7.1374   -4.9793   13.5133 H   0  0  0  0  0  0  0  0  0  0  0  0
    5.6194   -4.4762   12.6870 H   0  0  0  0  0  0  0  0  0  0  0  0
    7.1795   -4.5290   11.7667 H   0  0  0  0  0  0  0  0  0  0  0  0
   -2.5401   -6.7952    1.7045 H   0  0  0  0  0  0  0  0  0  0  0  0
   -4.0794   -6.3378    2.5049 H   0  0  0  0  0  0  0  0  0  0  0  0
   -4.3162   -8.4914    1.2981 H   0  0  0  0  0  0  0  0  0  0  0  0
   -4.4951   -8.7604    3.0729 H   0  0  0  0  0  0  0  0  0  0  0  0
   -2.9492   -9.2059    2.2381 H   0  0  0  0  0  0  0  0  0  0  0  0
    0.3496   -4.6574    4.8193 H   0  0  0  0  0  0  0  0  0  0  0  0
    3.6544   -1.3765    5.9281 H   0  0  0  0  0  0  0  0  0  0  0  0
    6.6867    3.7045    8.1186 H   0  0  0  0  0  0  0  0  0  0  0  0
    4.9743    4.2305    8.1977 H   0  0  0  0  0  0  0  0  0  0  0  0
    5.7672    3.3034   10.3724 H   0  0  0  0  0  0  0  0  0  0  0  0
    4.4104    2.3188    9.6951 H   0  0  0  0  0  0  0  0  0  0  0  0
    6.1185    1.7167    9.5937 H   0  0  0  0  0  0  0  0  0  0  0  0
   -2.3030   -1.6668   -2.3792 H   0  0  0  0  0  0  0  0  0  0  0  0
   -0.6460   -1.5292   -3.0375 H   0  0  0  0  0  0  0  0  0  0  0  0
   -1.5320   -3.8576   -3.2499 H   0  0  0  0  0  0  0  0  0  0  0  0
   -1.7306   -3.9536   -1.4585 H   0  0  0  0  0  0  0  0  0  0  0  0
   -0.0777   -3.8071   -2.1837 H   0  0  0  0  0  0  0  0  0  0  0  0
    1.1588    1.9821    0.1718 H   0  0  0  0  0  0  0  0  0  0  0  0
    0.6871    5.3636    2.2914 H   0  0  0  0  0  0  0  0  0  0  0  0
   -2.9032    7.4288    6.3190 H   0  0  0  0  0  0  0  0  0  0  0  0
   -2.5894    5.6873    6.0193 H   0  0  0  0  0  0  0  0  0  0  0  0
   -5.1085    7.2262    5.0878 H   0  0  0  0  0  0  0  0  0  0  0  0
   -5.0085    6.1452    6.5307 H   0  0  0  0  0  0  0  0  0  0  0  0
   -4.7956    5.4549    4.8727 H   0  0  0  0  0  0  0  0  0  0  0  0
    2.1508    6.2049   -7.1117 H   0  0  0  0  0  0  0  0  0  0  0  0
    0.7170    5.4892   -7.9162 H   0  0  0  0  0  0  0  0  0  0  0  0
    3.1459    4.3927   -8.2135 H   0  0  0  0  0  0  0  0  0  0  0  0
    1.7002    3.3425   -8.0462 H   0  0  0  0  0  0  0  0  0  0  0  0
    2.7778    3.6175   -6.6232 H   0  0  0  0  0  0  0  0  0  0  0  0
   -2.6640    6.2064   -3.7991 H   0  0  0  0  0  0  0  0  0  0  0  0
   -4.8461    6.4738   -4.8086 H   0  0  0  0  0  0  0  0  0  0  0  0
   -2.7493    7.7754   -9.5049 H   0  0  0  0  0  0  0  0  0  0  0  0
   -1.5368    6.6213   -8.8406 H   0  0  0  0  0  0  0  0  0  0  0  0
   -3.4479    6.0317  -11.1999 H   0  0  0  0  0  0  0  0  0  0  0  0
   -1.7012    6.4707  -11.3330 H   0  0  0  0  0  0  0  0  0  0  0  0
   -2.1796    4.9189  -10.5464 H   0  0  0  0  0  0  0  0  0  0  0  0
   -7.8019   -1.5574    0.9047 H   0  0  0  0  0  0  0  0  0  0  0  0
   -6.1009   -1.8519    0.4408 H   0  0  0  0  0  0  0  0  0  0  0  0
   -6.2622   -1.1600    2.8205 H   0  0  0  0  0  0  0  0  0  0  0  0
   -5.3673    0.0874    1.8737 H   0  0  0  0  0  0  0  0  0  0  0  0
   -7.0966    0.3684    2.3509 H   0  0  0  0  0  0  0  0  0  0  0  0
   -5.1964   -0.3853   -4.0141 H   0  0  0  0  0  0  0  0  0  0  0  0
   -5.2985   -2.4526   -6.7972 H   0  0  0  0  0  0  0  0  0  0  0  0
   -6.8757   -4.3798   -6.6354 H   0  0  0  0  0  0  0  0  0  0  0  0
   -7.1084   -5.5320   -8.0036 H   0  0  0  0  0  0  0  0  0  0  0  0
   -6.6139   -3.8359   -8.3526 H   0  0  0  0  0  0  0  0  0  0  0  0
   -2.6225   -5.7877   -7.4239 H   0  0  0  0  0  0  0  0  0  0  0  0
   -0.7143   -4.4117   -6.7399 H   0  0  0  0  0  0  0  0  0  0  0  0
    0.4664   -4.1029   -4.9165 H   0  0  0  0  0  0  0  0  0  0  0  0
    1.8013   -9.1261   -5.8218 H   0  0  0  0  0  0  0  0  0  0  0  0
    1.4544   -9.8360   -4.2069 H   0  0  0  0  0  0  0  0  0  0  0  0
   -0.4174   -7.9554   -5.7965 H   0  0  0  0  0  0  0  0  0  0  0  0
   -0.7793   -8.6722   -4.1758 H   0  0  0  0  0  0  0  0  0  0  0  0
   -0.6035   -9.7434   -5.6205 H   0  0  0  0  0  0  0  0  0  0  0  0
    4.8412    3.9914   -5.6155 H   0  0  0  0  0  0  0  0  0  0  0  0
    4.7349    4.7301   -3.9854 H   0  0  0  0  0  0  0  0  0  0  0  0
    6.9840    5.0554   -5.0390 H   0  0  0  0  0  0  0  0  0  0  0  0
    7.1142    4.0718   -3.5318 H   0  0  0  0  0  0  0  0  0  0  0  0
    7.2056    3.2686   -5.1565 H   0  0  0  0  0  0  0  0  0  0  0  0
    6.4366   -1.1609   -2.4160 H   0  0  0  0  0  0  0  0  0  0  0  0
    7.3917   -3.3963   -1.4893 H   0  0  0  0  0  0  0  0  0  0  0  0
  1  2  2  0
  2  3  1  0
  3  4  2  0
  4  5  1  0
  5  6  1  0
  6  7  1  0
  7  8  1  0
  8  9  1  0
  7 10  2  0
 10 11  1  0
 10 12  1  0
 12 13  1  0
  4 14  1  0
 14 15  2  0
 15 16  1  0
 16 17  1  0
 17 18  1  0
 18 19  1  0
 19 20  1  0
 20 21  1  0
 19 22  2  0
 22 23  1  0
 23 24  1  0
 22 25  1  0
 16 26  2  0
 26 27  1  0
 15 28  1  0
 28 29  2  0
 29 30  1  0
 29 31  1  0
 31 32  2  0
 32 33  1  0
 33 34  2  0
 34 35  1  0
 35 36  1  0
 36 37  1  0
 37 38  1  0
 38 39  1  0
 37 40  2  0
 40 41  1  0
 40 42  1  0
 42 43  1  0
 34 44  1  0
 44 45  2  0
 45 46  1  0
 46 47  1  0
 47 48  1  0
 48 49  1  0
 49 50  1  0
 50 51  1  0
 49 52  2  0
 52 53  1  0
 53 54  1  0
 52 55  1  0
 46 56  2  0
 56 57  1  0
 45 58  1  0
 58 59  2  0
 59 60  1  0
 59 61  1  0
 61 62  2  0
 62 63  1  0
 63 64  2  0
 64 65  1  0
 65 66  1  0
 66 67  1  0
 67 68  1  0
 68 69  1  0
 67 70  2  0
 70 71  1  0
 70 72  1  0
 72 73  1  0
 64 74  1  0
 74 75  2  0
 75 76  1  0
 76 77  1  0
 77 78  1  0
 78 79  1  0
 79 80  1  0
 80 81  1  0
 79 82  2  0
 82 83  1  0
 83 84  1  0
 82 85  1  0
 76 86  2  0
 86 87  1  0
 75 88  1  0
 88 89  2  0
 89 90  1  0
 89 91  1  0
 91 92  2  0
 92 93  1  0
 93 94  2  0
 94 95  1  0
 95 96  1  0
 96 97  1  0
 97 98  1  0
 98 99  1  0
 97100  2  0
100101  1  0
100102  1  0
102103  1  0
 94104  1  0
104105  2  0
105106  1  0
106107  1  0
107108  1  0
108109  1  0
109110  1  0
110111  1  0
109112  2  0
112113  1  0
113114  1  0
112115  1  0
106116  2  0
116117  1  0
105118  1  0
118119  2  0
119120  1  0
119121  1  0
121122  1  0
122123  1  0
123124  2  0
124125  1  0
125126  1  0
126127  2  0
127128  1  0
128129  1  0
127130  1  0
130131  2  0
123132  1  0
132133  2  0
133134  1  0
134135  2  0
135136  1  0
136137  1  0
137138  1  0
138139  1  0
139140  1  0
138141  2  0
141142  1  0
141143  1  0
143144  1  0
135145  1  0
145146  2  0
146147  1  0
147148  1  0
148149  1  0
149150  1  0
150151  1  0
151152  1  0
150153  2  0
153154  1  0
154155  1  0
153156  1  0
147157  2  0
157158  1  0
146159  1  0
159160  2  0
160161  1  0
 27  1  1  0
 57 31  1  0
 87 61  1  0
117 91  1  0
125121  2  0
158132  1  0
 26  3  1  0
 56 33  1  0
 86 63  1  0
116 93  1  0
131124  1  0
157134  1  0
 12  5  2  0
 30 14  1  0
 42 35  2  0
 60 44  1  0
 72 65  2  0
 90 74  1  0
102 95  2  0
120104  1  0
143136  2  0
161145  1  0
 23 17  2  0
 53 47  2  0
 83 77  2  0
113107  2  0
154148  2  0
  1162  1  0
  2163  1  0
  8164  1  0
  8165  1  0
  9166  1  0
  9167  1  0
  9168  1  0
 20169  1  0
 20170  1  0
 21171  1  0
 21172  1  0
 21173  1  0
 28174  1  0
 32175  1  0
 38176  1  0
 38177  1  0
 39178  1  0
 39179  1  0
 39180  1  0
 50181  1  0
 50182  1  0
 51183  1  0
 51184  1  0
 51185  1  0
 58186  1  0
 62187  1  0
 68188  1  0
 68189  1  0
 69190  1  0
 69191  1  0
 69192  1  0
 80193  1  0
 80194  1  0
 81195  1  0
 81196  1  0
 81197  1  0
 88198  1  0
 92199  1  0
 98200  1  0
 98201  1  0
 99202  1  0
 99203  1  0
 99204  1  0
110205  1  0
110206  1  0
111207  1  0
111208  1  0
111209  1  0
118210  1  0
126211  1  0
129212  1  0
129213  1  0
129214  1  0
130215  1  0
131216  1  0
133217  1  0
139218  1  0
139219  1  0
140220  1  0
140221  1  0
140222  1  0
151223  1  0
151224  1  0
152225  1  0
152226  1  0
152227  1  0
159228  1  0
160229  1  0
M  END

