
     RDKit          3D

 94105  0  0  0  0  0  0  0  0999 V2000
    8.4181   -3.2119    0.2066 C   0  0  0  0  0  0  0  0  0  0  0  0
    9.9620   -3.7471    0.6627 S   0  0  0  0  0  0  0  0  0  0  0  0
   10.1608   -2.7849    2.0421 C   0  0  0  0  0  0  0  0  0  0  0  0
    8.9976   -2.0391    2.1302 C   0  0  0  0  0  0  0  0  0  0  0  0
    8.0582   -2.2676    1.1564 C   0  0  0  0  0  0  0  0  0  0  0  0
    6.8458   -1.4608    1.3292 C   0  0  0  0  0  0  0  0  0  0  0  0
    6.9355   -0.6930    2.4270 C   0  0  0  0  0  0  0  0  0  0  0  0
    8.4561   -0.8813    3.3001 S   0  0  0  0  0  3  0  0  0  0  0  0
    8.1345   -1.6849    4.7400 O   0  0  0  0  0  1  0  0  0  0  0  0
    5.6375   -1.6353    0.4902 C   0  0  0  0  0  0  0  0  0  0  0  0
    4.6234   -0.7637    0.3619 C   0  0  0  0  0  0  0  0  0  0  0  0
    4.6710    0.6528    0.7511 C   0  0  0  0  0  0  0  0  0  0  0  0
    5.9806    1.6356    0.3074 S   0  0  0  0  0  0  0  0  0  0  0  0
    5.1483    3.0802    0.1359 C   0  0  0  0  0  0  0  0  0  0  0  0
    3.8261    2.7834    0.4075 C   0  0  0  0  0  0  0  0  0  0  0  0
    3.5544    1.4928    0.8361 C   0  0  0  0  0  0  0  0  0  0  0  0
    2.0983    1.1906    0.8295 C   0  0  0  0  0  0  0  0  0  0  0  0
    1.4494    2.1368    0.1306 C   0  0  0  0  0  0  0  0  0  0  0  0
    2.4397    3.5122   -0.3229 S   0  0  0  0  0  3  0  0  0  0  0  0
    2.6271    3.5060   -1.9931 O   0  0  0  0  0  1  0  0  0  0  0  0
    1.3362    0.6588    1.9988 C   0  0  0  0  0  0  0  0  0  0  0  0
    1.3338   -0.5638    2.5399 C   0  0  0  0  0  0  0  0  0  0  0  0
    2.3077   -1.6087    2.2911 C   0  0  0  0  0  0  0  0  0  0  0  0
    3.6397   -1.8531    3.3064 S   0  0  0  0  0  0  0  0  0  0  0  0
    4.1418   -3.3294    2.6699 C   0  0  0  0  0  0  0  0  0  0  0  0
    3.2284   -3.6387    1.6797 C   0  0  0  0  0  0  0  0  0  0  0  0
    2.1823   -2.7530    1.5032 C   0  0  0  0  0  0  0  0  0  0  0  0
    1.1617   -3.2921    0.5738 C   0  0  0  0  0  0  0  0  0  0  0  0
    1.5608   -4.4747    0.0762 C   0  0  0  0  0  0  0  0  0  0  0  0
    3.0987   -5.0522    0.6997 S   0  0  0  0  0  3  0  0  0  0  0  0
    2.7981   -6.3665    1.6978 O   0  0  0  0  0  1  0  0  0  0  0  0
   -0.2632   -2.9137    0.4427 C   0  0  0  0  0  0  0  0  0  0  0  0
   -0.7477   -1.6712    0.3142 C   0  0  0  0  0  0  0  0  0  0  0  0
   -2.2037   -1.4622    0.1206 C   0  0  0  0  0  0  0  0  0  0  0  0
   -3.2561   -2.6008   -0.5565 S   0  0  0  0  0  0  0  0  0  0  0  0
   -4.6706   -1.7187   -0.3757 C   0  0  0  0  0  0  0  0  0  0  0  0
   -4.3454   -0.5012    0.2131 C   0  0  0  0  0  0  0  0  0  0  0  0
   -2.9709   -0.3470    0.4808 C   0  0  0  0  0  0  0  0  0  0  0  0
   -2.5005    0.8272    1.0824 C   0  0  0  0  0  0  0  0  0  0  0  0
   -3.4159    1.8564    1.4078 C   0  0  0  0  0  0  0  0  0  0  0  0
   -3.0250    3.0516    2.0274 O   0  0  0  0  0  0  0  0  0  0  0  0
   -1.7002    3.3514    2.4524 C   0  0  0  0  0  0  0  0  0  0  0  0
   -4.7779    1.6926    1.1115 C   0  0  0  0  0  0  0  0  0  0  0  0
   -5.2480    0.5200    0.5153 C   0  0  0  0  0  0  0  0  0  0  0  0
   -6.0012   -2.1917   -0.7688 C   0  0  0  0  0  0  0  0  0  0  0  0
   -7.2685   -2.5526    0.2925 S   0  0  0  0  0  0  0  0  0  0  0  0
   -8.2859   -3.3236   -0.8190 C   0  0  0  0  0  0  0  0  0  0  0  0
   -7.6088   -3.2922   -2.0270 C   0  0  0  0  0  0  0  0  0  0  0  0
   -6.3888   -2.6643   -2.0180 C   0  0  0  0  0  0  0  0  0  0  0  0
   -5.7528   -2.6556   -3.3439 C   0  0  0  0  0  0  0  0  0  0  0  0
   -6.4823   -3.3331   -4.2412 C   0  0  0  0  0  0  0  0  0  0  0  0
   -7.9694   -4.0013   -3.5671 S   0  0  0  0  0  3  0  0  0  0  0  0
   -7.7946   -5.6650   -3.4383 O   0  0  0  0  0  1  0  0  0  0  0  0
   -4.5915   -1.8368   -3.7330 C   0  0  0  0  0  0  0  0  0  0  0  0
   -4.4393   -0.5926   -3.2725 C   0  0  0  0  0  0  0  0  0  0  0  0
   -3.2952    0.2612   -3.6306 C   0  0  0  0  0  0  0  0  0  0  0  0
   -1.8468   -0.2536   -4.3490 S   0  0  0  0  0  0  0  0  0  0  0  0
   -1.0022    1.2049   -4.2446 C   0  0  0  0  0  0  0  0  0  0  0  0
   -1.8722    2.0927   -3.6381 C   0  0  0  0  0  0  0  0  0  0  0  0
   -3.1201    1.6068   -3.3185 C   0  0  0  0  0  0  0  0  0  0  0  0
   -3.9527    2.6238   -2.6499 C   0  0  0  0  0  0  0  0  0  0  0  0
   -3.2769    3.7644   -2.4595 C   0  0  0  0  0  0  0  0  0  0  0  0
   -1.6335    3.7204   -3.0976 S   0  0  0  0  0  3  0  0  0  0  0  0
   -0.5566    3.7223   -1.8121 O   0  0  0  0  0  1  0  0  0  0  0  0
   -5.3926    2.5269   -2.3586 C   0  0  0  0  0  0  0  0  0  0  0  0
   -6.2624    2.0951   -3.2657 C   0  0  0  0  0  0  0  0  0  0  0  0
    7.8349   -3.5429   -0.6411 H   0  0  0  0  0  0  0  0  0  0  0  0
   11.0020   -2.7582    2.7210 H   0  0  0  0  0  0  0  0  0  0  0  0
    6.1423   -0.0621    2.7952 H   0  0  0  0  0  0  0  0  0  0  0  0
    5.5261   -2.5948    0.0031 H   0  0  0  0  0  0  0  0  0  0  0  0
    3.7489   -1.0891   -0.1884 H   0  0  0  0  0  0  0  0  0  0  0  0
    5.5266    3.9911   -0.3058 H   0  0  0  0  0  0  0  0  0  0  0  0
    0.3711    2.2240    0.1487 H   0  0  0  0  0  0  0  0  0  0  0  0
    0.5849    1.3248    2.4069 H   0  0  0  0  0  0  0  0  0  0  0  0
    0.6321   -0.7582    3.3399 H   0  0  0  0  0  0  0  0  0  0  0  0
    4.9878   -3.9243    2.9800 H   0  0  0  0  0  0  0  0  0  0  0  0
    0.9316   -5.0963   -0.5496 H   0  0  0  0  0  0  0  0  0  0  0  0
   -0.9545   -3.7444    0.3808 H   0  0  0  0  0  0  0  0  0  0  0  0
   -0.0818   -0.8209    0.3050 H   0  0  0  0  0  0  0  0  0  0  0  0
   -1.4500    0.9315    1.2914 H   0  0  0  0  0  0  0  0  0  0  0  0
   -1.6912    4.3471    2.9440 H   0  0  0  0  0  0  0  0  0  0  0  0
   -1.3571    2.5885    3.1820 H   0  0  0  0  0  0  0  0  0  0  0  0
   -1.0208    3.3962    1.5779 H   0  0  0  0  0  0  0  0  0  0  0  0
   -5.4778    2.4837    1.3504 H   0  0  0  0  0  0  0  0  0  0  0  0
   -6.3018    0.4175    0.2981 H   0  0  0  0  0  0  0  0  0  0  0  0
   -9.2507   -3.7748   -0.6195 H   0  0  0  0  0  0  0  0  0  0  0  0
   -6.2515   -3.3617   -5.2999 H   0  0  0  0  0  0  0  0  0  0  0  0
   -3.9106   -2.2328   -4.4767 H   0  0  0  0  0  0  0  0  0  0  0  0
   -5.1796   -0.1914   -2.5993 H   0  0  0  0  0  0  0  0  0  0  0  0
    0.0168    1.4008   -4.5509 H   0  0  0  0  0  0  0  0  0  0  0  0
   -3.7306    4.6623   -2.0591 H   0  0  0  0  0  0  0  0  0  0  0  0
   -5.7724    2.9453   -1.4318 H   0  0  0  0  0  0  0  0  0  0  0  0
   -7.3244    2.0952   -3.0426 H   0  0  0  0  0  0  0  0  0  0  0  0
   -5.9262    1.7474   -4.2390 H   0  0  0  0  0  0  0  0  0  0  0  0
  1  2  1  0
  2  3  1  0
  3  4  2  0
  4  5  1  0
  5  6  1  0
  6  7  2  0
  7  8  1  0
  8  9  1  0
  6 10  1  0
 10 11  2  3
 11 12  1  0
 12 13  1  0
 13 14  1  0
 14 15  2  0
 15 16  1  0
 16 17  1  0
 17 18  2  0
 18 19  1  0
 19 20  1  0
 17 21  1  0
 21 22  2  3
 22 23  1  0
 23 24  1  0
 24 25  1  0
 25 26  2  0
 26 27  1  0
 27 28  1  0
 28 29  2  0
 29 30  1  0
 30 31  1  0
 28 32  1  0
 32 33  2  3
 33 34  1  0
 34 35  1  0
 35 36  1  0
 36 37  2  0
 37 38  1  0
 38 39  1  0
 39 40  2  0
 40 41  1  0
 41 42  1  0
 40 43  1  0
 43 44  2  0
 36 45  1  0
 45 46  1  0
 46 47  1  0
 47 48  2  0
 48 49  1  0
 49 50  1  0
 50 51  2  0
 51 52  1  0
 52 53  1  0
 50 54  1  0
 54 55  2  3
 55 56  1  0
 56 57  1  0
 57 58  1  0
 58 59  2  0
 59 60  1  0
 60 61  1  0
 61 62  2  0
 62 63  1  0
 63 64  1  0
 61 65  1  0
 65 66  2  3
  5  1  2  0
 16 12  2  0
 27 23  2  0
 38 34  2  0
 49 45  2  0
 60 56  2  0
  8  4  1  0
 19 15  1  0
 30 26  1  0
 44 37  1  0
 52 48  1  0
 63 59  1  0
  1 67  1  0
  3 68  1  0
  7 69  1  0
 10 70  1  0
 11 71  1  0
 14 72  1  0
 18 73  1  0
 21 74  1  0
 22 75  1  0
 25 76  1  0
 29 77  1  0
 32 78  1  0
 33 79  1  0
 39 80  1  0
 42 81  1  0
 42 82  1  0
 42 83  1  0
 43 84  1  0
 44 85  1  0
 47 86  1  0
 51 87  1  0
 54 88  1  0
 55 89  1  0
 58 90  1  0
 62 91  1  0
 65 92  1  0
 66 93  1  0
 66 94  1  0
M  RAD  8   8   2   9   2  19   2  20   2  30   2  31   2  52   2  53   2
M  RAD  2  63   2  64   2
M  END

