
     RDKit          3D

 84 95  0  0  0  0  0  0  0  0999 V2000
    6.9918    0.3825    7.8806 C   0  0  0  0  0  0  0  0  0  0  0  0
    5.4478    1.0497    7.9133 S   0  0  0  0  0  0  0  0  0  0  0  0
    5.0744    0.8019    6.2868 C   0  0  0  0  0  0  0  0  0  0  0  0
    6.1819    0.1919    5.6966 C   0  0  0  0  0  0  0  0  0  0  0  0
    7.2342   -0.0316    6.5806 C   0  0  0  0  0  0  0  0  0  0  0  0
    8.7062   -0.8959    6.0498 S   0  0  0  0  0  0  0  0  0  0  0  0
    7.8173   -2.3972    5.4594 C   0  0  0  0  0  0  0  0  0  0  0  0
    6.5033   -2.1646    4.6645 C   0  0  0  0  0  0  0  0  0  0  0  0
    6.2816   -0.4582    4.0310 S   0  0  0  0  0  0  0  0  0  0  0  0
    3.7836    1.1259    5.6493 C   0  0  0  0  0  0  0  0  0  0  0  0
    3.0179    0.1986    4.4665 S   0  0  0  0  0  0  0  0  0  0  0  0
    1.6463    1.1610    4.3111 C   0  0  0  0  0  0  0  0  0  0  0  0
    1.7916    2.2511    5.1613 C   0  0  0  0  0  0  0  0  0  0  0  0
    2.9706    2.2315    5.9053 C   0  0  0  0  0  0  0  0  0  0  0  0
    3.2642    3.5076    7.1298 S   0  0  0  0  0  0  0  0  0  0  0  0
    1.6775    3.1274    7.9625 C   0  0  0  0  0  0  0  0  0  0  0  0
    0.4226    3.5013    7.1306 C   0  0  0  0  0  0  0  0  0  0  0  0
    0.6509    3.6263    5.3041 S   0  0  0  0  0  0  0  0  0  0  0  0
    0.5787    0.9381    3.3303 C   0  0  0  0  0  0  0  0  0  0  0  0
    0.8412    0.6519    1.6936 S   0  0  0  0  0  0  0  0  0  0  0  0
   -0.7769    0.4661    1.2657 C   0  0  0  0  0  0  0  0  0  0  0  0
   -1.5405    0.5597    2.4300 C   0  0  0  0  0  0  0  0  0  0  0  0
   -0.7883    0.8227    3.5740 C   0  0  0  0  0  0  0  0  0  0  0  0
   -1.5745    0.8835    5.1845 S   0  0  0  0  0  0  0  0  0  0  0  0
   -2.8145    2.1772    4.7540 C   0  0  0  0  0  0  0  0  0  0  0  0
   -3.4226    2.1062    3.3304 C   0  0  0  0  0  0  0  0  0  0  0  0
   -3.3244    0.4510    2.5410 S   0  0  0  0  0  0  0  0  0  0  0  0
   -1.2340    0.0967   -0.0819 C   0  0  0  0  0  0  0  0  0  0  0  0
   -0.5696   -1.1590   -0.9859 S   0  0  0  0  0  0  0  0  0  0  0  0
   -1.5076   -0.9417   -2.3663 C   0  0  0  0  0  0  0  0  0  0  0  0
   -2.3270    0.1685   -2.1562 C   0  0  0  0  0  0  0  0  0  0  0  0
   -2.1787    0.7454   -0.8797 C   0  0  0  0  0  0  0  0  0  0  0  0
   -2.8774    1.9087   -0.5437 C   0  0  0  0  0  0  0  0  0  0  0  0
   -3.7644    2.4827   -1.4792 C   0  0  0  0  0  0  0  0  0  0  0  0
   -4.5218    3.6271   -1.1879 O   0  0  0  0  0  0  0  0  0  0  0  0
   -4.5252    4.2879    0.0745 C   0  0  0  0  0  0  0  0  0  0  0  0
   -3.8956    1.9057   -2.7538 C   0  0  0  0  0  0  0  0  0  0  0  0
   -3.1652    0.7625   -3.1046 C   0  0  0  0  0  0  0  0  0  0  0  0
   -1.3844   -1.7622   -3.5804 C   0  0  0  0  0  0  0  0  0  0  0  0
    0.0804   -2.1568   -4.3094 S   0  0  0  0  0  0  0  0  0  0  0  0
   -0.5606   -3.1628   -5.4976 C   0  0  0  0  0  0  0  0  0  0  0  0
   -1.9415   -3.2180   -5.3212 C   0  0  0  0  0  0  0  0  0  0  0  0
   -2.3992   -2.4460   -4.2507 C   0  0  0  0  0  0  0  0  0  0  0  0
   -4.1483   -2.3898   -3.8507 S   0  0  0  0  0  0  0  0  0  0  0  0
   -4.7421   -1.8346   -5.5098 C   0  0  0  0  0  0  0  0  0  0  0  0
   -3.9006   -2.2749   -6.7300 C   0  0  0  0  0  0  0  0  0  0  0  0
   -3.1096   -3.9079   -6.4941 S   0  0  0  0  0  0  0  0  0  0  0  0
    0.2379   -3.8215   -6.5394 C   0  0  0  0  0  0  0  0  0  0  0  0
    1.4452   -3.0654   -7.4385 S   0  0  0  0  0  0  0  0  0  0  0  0
    1.9505   -4.4258   -8.2891 C   0  0  0  0  0  0  0  0  0  0  0  0
    1.2014   -5.5004   -7.8332 C   0  0  0  0  0  0  0  0  0  0  0  0
    0.2488   -5.1736   -6.8699 C   0  0  0  0  0  0  0  0  0  0  0  0
   -0.7999   -6.4487   -6.1673 S   0  0  0  0  0  0  0  0  0  0  0  0
   -1.4787   -7.0669   -7.7693 C   0  0  0  0  0  0  0  0  0  0  0  0
   -0.5251   -7.0319   -8.9909 C   0  0  0  0  0  0  0  0  0  0  0  0
    1.2492   -7.1408   -8.5408 S   0  0  0  0  0  0  0  0  0  0  0  0
    7.6662    0.2827    8.7205 H   0  0  0  0  0  0  0  0  0  0  0  0
    7.5998   -3.0393    6.3383 H   0  0  0  0  0  0  0  0  0  0  0  0
    8.5286   -2.9588    4.8171 H   0  0  0  0  0  0  0  0  0  0  0  0
    5.6334   -2.4210    5.3068 H   0  0  0  0  0  0  0  0  0  0  0  0
    6.4752   -2.8582    3.8000 H   0  0  0  0  0  0  0  0  0  0  0  0
    1.6506    2.0441    8.2073 H   0  0  0  0  0  0  0  0  0  0  0  0
    1.6529    3.6738    8.9273 H   0  0  0  0  0  0  0  0  0  0  0  0
   -0.3800    2.7632    7.3399 H   0  0  0  0  0  0  0  0  0  0  0  0
    0.0531    4.4900    7.4755 H   0  0  0  0  0  0  0  0  0  0  0  0
   -2.3451    3.1738    4.8952 H   0  0  0  0  0  0  0  0  0  0  0  0
   -3.6360    2.0979    5.4981 H   0  0  0  0  0  0  0  0  0  0  0  0
   -4.4911    2.4039    3.3745 H   0  0  0  0  0  0  0  0  0  0  0  0
   -2.9135    2.8518    2.6864 H   0  0  0  0  0  0  0  0  0  0  0  0
   -2.7142    2.3724    0.4154 H   0  0  0  0  0  0  0  0  0  0  0  0
   -5.2290    5.1452    0.0348 H   0  0  0  0  0  0  0  0  0  0  0  0
   -3.5087    4.6748    0.3078 H   0  0  0  0  0  0  0  0  0  0  0  0
   -4.8637    3.5895    0.8727 H   0  0  0  0  0  0  0  0  0  0  0  0
   -4.5544    2.3598   -3.4835 H   0  0  0  0  0  0  0  0  0  0  0  0
   -3.2379    0.3675   -4.1077 H   0  0  0  0  0  0  0  0  0  0  0  0
   -4.8244   -0.7287   -5.5112 H   0  0  0  0  0  0  0  0  0  0  0  0
   -5.7709   -2.2336   -5.6307 H   0  0  0  0  0  0  0  0  0  0  0  0
   -4.5586   -2.3310   -7.6225 H   0  0  0  0  0  0  0  0  0  0  0  0
   -3.1223   -1.5105   -6.9490 H   0  0  0  0  0  0  0  0  0  0  0  0
    2.7158   -4.4577   -9.0542 H   0  0  0  0  0  0  0  0  0  0  0  0
   -2.3984   -6.4933   -8.0124 H   0  0  0  0  0  0  0  0  0  0  0  0
   -1.7921   -8.1182   -7.5971 H   0  0  0  0  0  0  0  0  0  0  0  0
   -0.7708   -7.8768   -9.6677 H   0  0  0  0  0  0  0  0  0  0  0  0
   -0.6967   -6.0985   -9.5709 H   0  0  0  0  0  0  0  0  0  0  0  0
  1  2  1  0
  2  3  1  0
  3  4  2  0
  4  5  1  0
  5  6  1  0
  6  7  1  0
  7  8  1  0
  8  9  1  0
  3 10  1  0
 10 11  1  0
 11 12  1  0
 12 13  2  0
 13 14  1  0
 14 15  1  0
 15 16  1  0
 16 17  1  0
 17 18  1  0
 12 19  1  0
 19 20  1  0
 20 21  1  0
 21 22  2  0
 22 23  1  0
 23 24  1  0
 24 25  1  0
 25 26  1  0
 26 27  1  0
 21 28  1  0
 28 29  1  0
 29 30  1  0
 30 31  2  0
 31 32  1  0
 32 33  1  0
 33 34  2  0
 34 35  1  0
 35 36  1  0
 34 37  1  0
 37 38  2  0
 30 39  1  0
 39 40  1  0
 40 41  1  0
 41 42  2  0
 42 43  1  0
 43 44  1  0
 44 45  1  0
 45 46  1  0
 46 47  1  0
 41 48  1  0
 48 49  1  0
 49 50  1  0
 50 51  2  0
 51 52  1  0
 52 53  1  0
 53 54  1  0
 54 55  1  0
 55 56  1  0
  5  1  2  0
 14 10  2  0
 23 19  2  0
 32 28  2  0
 43 39  2  0
 52 48  2  0
  9  4  1  0
 18 13  1  0
 27 22  1  0
 38 31  1  0
 47 42  1  0
 56 51  1  0
  1 57  1  0
  7 58  1  0
  7 59  1  0
  8 60  1  0
  8 61  1  0
 16 62  1  0
 16 63  1  0
 17 64  1  0
 17 65  1  0
 25 66  1  0
 25 67  1  0
 26 68  1  0
 26 69  1  0
 33 70  1  0
 36 71  1  0
 36 72  1  0
 36 73  1  0
 37 74  1  0
 38 75  1  0
 45 76  1  0
 45 77  1  0
 46 78  1  0
 46 79  1  0
 50 80  1  0
 54 81  1  0
 54 82  1  0
 55 83  1  0
 55 84  1  0
M  END

