
     RDKit          3D

169185  0  0  0  0  0  0  0  0999 V2000
    3.9337    4.8389    7.1226 C   0  0  0  0  0  0  0  0  0  0  0  0
    2.6342    4.6060    6.6522 C   0  0  0  0  0  0  0  0  0  0  0  0
    1.6343    3.9159    7.2640 N   0  0  0  0  0  0  0  0  0  0  0  0
    1.7047    3.3725    8.6304 C   0  0  0  0  0  0  0  0  0  0  0  0
    2.5002    2.0674    8.6727 C   0  0  0  0  0  0  0  0  0  0  0  0
    0.5561    4.0332    6.4231 C   0  0  0  0  0  0  0  0  0  0  0  0
    0.8892    4.8123    5.3253 C   0  0  0  0  0  0  0  0  0  0  0  0
    2.2085    5.1629    5.4641 C   0  0  0  0  0  0  0  0  0  0  0  0
    3.0373    5.9547    4.6702 C   0  0  0  0  0  0  0  0  0  0  0  0
    4.3488    6.1803    5.1161 C   0  0  0  0  0  0  0  0  0  0  0  0
    4.7956    5.6235    6.3352 C   0  0  0  0  0  0  0  0  0  0  0  0
   -0.0390    5.1847    4.3537 C   0  0  0  0  0  0  0  0  0  0  0  0
   -1.3591    4.7403    4.5015 C   0  0  0  0  0  0  0  0  0  0  0  0
   -1.7174    3.9206    5.5866 C   0  0  0  0  0  0  0  0  0  0  0  0
   -0.7639    3.5301    6.5516 C   0  0  0  0  0  0  0  0  0  0  0  0
   -1.1785    2.5337    7.5490 C   0  0  0  0  0  0  0  0  0  0  0  0
   -0.6477    1.3080    7.5515 C   0  0  0  0  0  0  0  0  0  0  0  0
   -1.0807    0.2783    8.5162 C   0  0  0  0  0  0  0  0  0  0  0  0
   -1.4680   -1.0485    8.1671 C   0  0  0  0  0  0  0  0  0  0  0  0
   -1.5161   -1.6777    6.9441 N   0  0  0  0  0  0  0  0  0  0  0  0
   -0.9585   -1.2114    5.6665 C   0  0  0  0  0  0  0  0  0  0  0  0
   -1.9574   -0.3412    4.9093 C   0  0  0  0  0  0  0  0  0  0  0  0
   -2.0931   -2.8967    7.1837 C   0  0  0  0  0  0  0  0  0  0  0  0
   -2.3485   -3.0509    8.5353 C   0  0  0  0  0  0  0  0  0  0  0  0
   -1.9579   -1.8930    9.1513 C   0  0  0  0  0  0  0  0  0  0  0  0
   -2.0464   -1.5302   10.4929 C   0  0  0  0  0  0  0  0  0  0  0  0
   -1.6279   -0.2505   10.8563 C   0  0  0  0  0  0  0  0  0  0  0  0
   -1.1598    0.6461    9.8820 C   0  0  0  0  0  0  0  0  0  0  0  0
   -2.9502   -4.1880    9.0707 C   0  0  0  0  0  0  0  0  0  0  0  0
   -3.3200   -5.2110    8.1906 C   0  0  0  0  0  0  0  0  0  0  0  0
   -3.1014   -5.0713    6.8093 C   0  0  0  0  0  0  0  0  0  0  0  0
   -2.4754   -3.9219    6.2767 C   0  0  0  0  0  0  0  0  0  0  0  0
   -2.4775   -3.7884    4.8133 C   0  0  0  0  0  0  0  0  0  0  0  0
   -1.5563   -4.2760    3.9606 C   0  0  0  0  0  0  0  0  0  0  0  0
   -0.1899   -4.8096    4.2557 C   0  0  0  0  0  0  0  0  0  0  0  0
    0.7810   -4.9064    3.2177 C   0  0  0  0  0  0  0  0  0  0  0  0
    0.7495   -4.3779    1.9552 N   0  0  0  0  0  0  0  0  0  0  0  0
    0.1355   -3.0765    1.6127 C   0  0  0  0  0  0  0  0  0  0  0  0
    1.1619   -2.0533    1.1218 C   0  0  0  0  0  0  0  0  0  0  0  0
    1.7671   -5.0089    1.2812 C   0  0  0  0  0  0  0  0  0  0  0  0
    2.5174   -5.7713    2.1589 C   0  0  0  0  0  0  0  0  0  0  0  0
    1.8953   -5.7074    3.3759 C   0  0  0  0  0  0  0  0  0  0  0  0
    2.2051   -6.3406    4.5743 C   0  0  0  0  0  0  0  0  0  0  0  0
    1.3246   -6.1735    5.6458 C   0  0  0  0  0  0  0  0  0  0  0  0
    0.1340   -5.4392    5.4870 C   0  0  0  0  0  0  0  0  0  0  0  0
    3.6459   -6.4848    1.7685 C   0  0  0  0  0  0  0  0  0  0  0  0
    4.0095   -6.4454    0.4210 C   0  0  0  0  0  0  0  0  0  0  0  0
    3.2182   -5.7543   -0.5123 C   0  0  0  0  0  0  0  0  0  0  0  0
    2.0504   -5.0482   -0.1146 C   0  0  0  0  0  0  0  0  0  0  0  0
    1.0587   -4.5758   -1.1256 C   0  0  0  0  0  0  0  0  0  0  0  0
    1.2435   -4.5743   -2.4559 C   0  0  0  0  0  0  0  0  0  0  0  0
    0.2007   -4.1224   -3.4005 C   0  0  0  0  0  0  0  0  0  0  0  0
    0.5577   -3.2856   -4.8199 S   0  0  0  0  0  0  0  0  0  0  0  0
   -1.0352   -2.9713   -5.2723 C   0  0  0  0  0  0  0  0  0  0  0  0
   -1.8764   -3.5932   -4.3565 C   0  0  0  0  0  0  0  0  0  0  0  0
   -1.1955   -4.2447   -3.3117 C   0  0  0  0  0  0  0  0  0  0  0  0
   -1.9190   -4.9804   -2.3611 C   0  0  0  0  0  0  0  0  0  0  0  0
   -3.3297   -5.0002   -2.4200 C   0  0  0  0  0  0  0  0  0  0  0  0
   -4.1079   -5.6775   -1.4696 O   0  0  0  0  0  0  0  0  0  0  0  0
   -3.5865   -6.3047   -0.3033 C   0  0  0  0  0  0  0  0  0  0  0  0
   -3.9911   -4.3259   -3.4585 C   0  0  0  0  0  0  0  0  0  0  0  0
   -3.2720   -3.6299   -4.4341 C   0  0  0  0  0  0  0  0  0  0  0  0
   -1.4514   -2.2915   -6.5069 C   0  0  0  0  0  0  0  0  0  0  0  0
   -1.6507   -0.8887   -6.6305 C   0  0  0  0  0  0  0  0  0  0  0  0
   -1.4205    0.1271   -5.7357 N   0  0  0  0  0  0  0  0  0  0  0  0
   -1.0236    0.0010   -4.3242 C   0  0  0  0  0  0  0  0  0  0  0  0
   -2.2524   -0.0803   -3.4264 C   0  0  0  0  0  0  0  0  0  0  0  0
   -1.7994    1.2735   -6.3865 C   0  0  0  0  0  0  0  0  0  0  0  0
   -2.2575    0.9754   -7.6581 C   0  0  0  0  0  0  0  0  0  0  0  0
   -2.1446   -0.3787   -7.8195 C   0  0  0  0  0  0  0  0  0  0  0  0
   -2.4415   -1.1756   -8.9241 C   0  0  0  0  0  0  0  0  0  0  0  0
   -2.2249   -2.5513   -8.8202 C   0  0  0  0  0  0  0  0  0  0  0  0
   -1.7431   -3.1049   -7.6226 C   0  0  0  0  0  0  0  0  0  0  0  0
   -2.7304    1.9427   -8.5421 C   0  0  0  0  0  0  0  0  0  0  0  0
   -2.7466    3.2725   -8.1121 C   0  0  0  0  0  0  0  0  0  0  0  0
   -2.2608    3.6125   -6.8391 C   0  0  0  0  0  0  0  0  0  0  0  0
   -1.7409    2.6283   -5.9665 C   0  0  0  0  0  0  0  0  0  0  0  0
   -1.0552    3.0799   -4.7370 C   0  0  0  0  0  0  0  0  0  0  0  0
    0.0266    3.8792   -4.7460 C   0  0  0  0  0  0  0  0  0  0  0  0
    0.6043    4.4515   -5.9829 C   0  0  0  0  0  0  0  0  0  0  0  0
    0.9653    3.6830   -7.1188 C   0  0  0  0  0  0  0  0  0  0  0  0
    1.2208    2.3421   -7.2147 N   0  0  0  0  0  0  0  0  0  0  0  0
    1.7779    1.5148   -6.1270 C   0  0  0  0  0  0  0  0  0  0  0  0
    3.3026    1.4717   -6.2071 C   0  0  0  0  0  0  0  0  0  0  0  0
    1.3592    2.1059   -8.5578 C   0  0  0  0  0  0  0  0  0  0  0  0
    1.2738    3.2923   -9.2671 C   0  0  0  0  0  0  0  0  0  0  0  0
    1.0473    4.2882   -8.3564 C   0  0  0  0  0  0  0  0  0  0  0  0
    0.9388    5.6654   -8.5309 C   0  0  0  0  0  0  0  0  0  0  0  0
    0.7120    6.4539   -7.3961 C   0  0  0  0  0  0  0  0  0  0  0  0
    0.5333    5.8520   -6.1362 C   0  0  0  0  0  0  0  0  0  0  0  0
    1.4493    3.3647  -10.6443 C   0  0  0  0  0  0  0  0  0  0  0  0
    1.7161    2.1777  -11.3346 C   0  0  0  0  0  0  0  0  0  0  0  0
    1.7913    0.9531  -10.6456 C   0  0  0  0  0  0  0  0  0  0  0  0
    1.6104    0.8898   -9.2427 C   0  0  0  0  0  0  0  0  0  0  0  0
    1.5406   -0.4327   -8.5892 C   0  0  0  0  0  0  0  0  0  0  0  0
    2.3833   -1.4226   -8.8823 C   0  0  0  0  0  0  0  0  0  0  0  0
    4.2808    4.4391    8.0645 H   0  0  0  0  0  0  0  0  0  0  0  0
    2.2012    4.1130    9.2942 H   0  0  0  0  0  0  0  0  0  0  0  0
    0.6999    3.2259    9.0635 H   0  0  0  0  0  0  0  0  0  0  0  0
    3.5653    2.2499    8.4285 H   0  0  0  0  0  0  0  0  0  0  0  0
    2.1035    1.3318    7.9501 H   0  0  0  0  0  0  0  0  0  0  0  0
    2.4443    1.6344    9.6932 H   0  0  0  0  0  0  0  0  0  0  0  0
    2.6819    6.3911    3.7450 H   0  0  0  0  0  0  0  0  0  0  0  0
    5.0206    6.7879    4.5239 H   0  0  0  0  0  0  0  0  0  0  0  0
    5.8081    5.8108    6.6705 H   0  0  0  0  0  0  0  0  0  0  0  0
    0.2424    5.8109    3.5180 H   0  0  0  0  0  0  0  0  0  0  0  0
   -2.1046    5.0187    3.7691 H   0  0  0  0  0  0  0  0  0  0  0  0
   -2.7368    3.5583    5.6543 H   0  0  0  0  0  0  0  0  0  0  0  0
   -2.0263    2.7622    8.1842 H   0  0  0  0  0  0  0  0  0  0  0  0
    0.1427    1.0963    6.8553 H   0  0  0  0  0  0  0  0  0  0  0  0
   -0.6555   -2.0605    5.0347 H   0  0  0  0  0  0  0  0  0  0  0  0
    0.0006   -0.6943    5.8218 H   0  0  0  0  0  0  0  0  0  0  0  0
   -2.2614    0.5347    5.5184 H   0  0  0  0  0  0  0  0  0  0  0  0
   -1.4953    0.0224    3.9682 H   0  0  0  0  0  0  0  0  0  0  0  0
   -2.8665   -0.9249    4.6591 H   0  0  0  0  0  0  0  0  0  0  0  0
   -2.4359   -2.2114   11.2365 H   0  0  0  0  0  0  0  0  0  0  0  0
   -1.6838    0.0615   11.8911 H   0  0  0  0  0  0  0  0  0  0  0  0
   -0.8669    1.6399   10.1988 H   0  0  0  0  0  0  0  0  0  0  0  0
   -3.1454   -4.2781   10.1298 H   0  0  0  0  0  0  0  0  0  0  0  0
   -3.8028   -6.1010    8.5714 H   0  0  0  0  0  0  0  0  0  0  0  0
   -3.4322   -5.8639    6.1485 H   0  0  0  0  0  0  0  0  0  0  0  0
   -3.3916   -3.3976    4.3864 H   0  0  0  0  0  0  0  0  0  0  0  0
   -1.8371   -4.2265    2.9172 H   0  0  0  0  0  0  0  0  0  0  0  0
   -0.3010   -2.6047    2.5161 H   0  0  0  0  0  0  0  0  0  0  0  0
   -0.6971   -3.2007    0.8946 H   0  0  0  0  0  0  0  0  0  0  0  0
    1.9600   -1.9137    1.8806 H   0  0  0  0  0  0  0  0  0  0  0  0
    0.6524   -1.0830    0.9538 H   0  0  0  0  0  0  0  0  0  0  0  0
    1.6195   -2.3514    0.1582 H   0  0  0  0  0  0  0  0  0  0  0  0
    3.0928   -6.9528    4.6782 H   0  0  0  0  0  0  0  0  0  0  0  0
    1.5364   -6.6556    6.5926 H   0  0  0  0  0  0  0  0  0  0  0  0
   -0.5328   -5.4387    6.3264 H   0  0  0  0  0  0  0  0  0  0  0  0
    4.2227   -7.0603    2.4800 H   0  0  0  0  0  0  0  0  0  0  0  0
    4.8793   -6.9952    0.0832 H   0  0  0  0  0  0  0  0  0  0  0  0
    3.5107   -5.8354   -1.5467 H   0  0  0  0  0  0  0  0  0  0  0  0
    0.1132   -4.2351   -0.7645 H   0  0  0  0  0  0  0  0  0  0  0  0
    2.2065   -4.8024   -2.8843 H   0  0  0  0  0  0  0  0  0  0  0  0
   -1.4066   -5.5629   -1.6121 H   0  0  0  0  0  0  0  0  0  0  0  0
   -2.9075   -7.1349   -0.5893 H   0  0  0  0  0  0  0  0  0  0  0  0
   -3.0423   -5.5626    0.3178 H   0  0  0  0  0  0  0  0  0  0  0  0
   -4.4267   -6.7209    0.2892 H   0  0  0  0  0  0  0  0  0  0  0  0
   -5.0732   -4.3489   -3.5097 H   0  0  0  0  0  0  0  0  0  0  0  0
   -3.8016   -3.1221   -5.2305 H   0  0  0  0  0  0  0  0  0  0  0  0
   -0.3664    0.8272   -4.0116 H   0  0  0  0  0  0  0  0  0  0  0  0
   -0.3809   -0.8690   -4.1591 H   0  0  0  0  0  0  0  0  0  0  0  0
   -2.8464    0.8542   -3.4909 H   0  0  0  0  0  0  0  0  0  0  0  0
   -2.8979   -0.9283   -3.7364 H   0  0  0  0  0  0  0  0  0  0  0  0
   -1.9362   -0.2354   -2.3752 H   0  0  0  0  0  0  0  0  0  0  0  0
   -2.8183   -0.7457   -9.8432 H   0  0  0  0  0  0  0  0  0  0  0  0
   -2.4358   -3.1940   -9.6633 H   0  0  0  0  0  0  0  0  0  0  0  0
   -1.6099   -4.1795   -7.5609 H   0  0  0  0  0  0  0  0  0  0  0  0
   -3.0857    1.6781   -9.5301 H   0  0  0  0  0  0  0  0  0  0  0  0
   -3.1132    4.0484   -8.7703 H   0  0  0  0  0  0  0  0  0  0  0  0
   -2.2528    4.6558   -6.5476 H   0  0  0  0  0  0  0  0  0  0  0  0
   -1.4582    2.7818   -3.7810 H   0  0  0  0  0  0  0  0  0  0  0  0
    0.4127    4.2289   -3.7971 H   0  0  0  0  0  0  0  0  0  0  0  0
    1.3648    0.4928   -6.1418 H   0  0  0  0  0  0  0  0  0  0  0  0
    1.5139    1.9185   -5.1355 H   0  0  0  0  0  0  0  0  0  0  0  0
    3.6327    0.9572   -7.1335 H   0  0  0  0  0  0  0  0  0  0  0  0
    3.7111    2.5051   -6.1991 H   0  0  0  0  0  0  0  0  0  0  0  0
    3.7065    0.9205   -5.3331 H   0  0  0  0  0  0  0  0  0  0  0  0
    1.0341    6.1197   -9.5095 H   0  0  0  0  0  0  0  0  0  0  0  0
    0.6261    7.5272   -7.4940 H   0  0  0  0  0  0  0  0  0  0  0  0
    0.2675    6.4773   -5.2917 H   0  0  0  0  0  0  0  0  0  0  0  0
    1.3872    4.3078  -11.1700 H   0  0  0  0  0  0  0  0  0  0  0  0
    1.8492    2.1989  -12.4089 H   0  0  0  0  0  0  0  0  0  0  0  0
    1.9491    0.0513  -11.2213 H   0  0  0  0  0  0  0  0  0  0  0  0
    0.7533   -0.6283   -7.8795 H   0  0  0  0  0  0  0  0  0  0  0  0
    3.1906   -1.2866   -9.5927 H   0  0  0  0  0  0  0  0  0  0  0  0
    2.2759   -2.3836   -8.3980 H   0  0  0  0  0  0  0  0  0  0  0  0
  1  2  2  0
  2  3  1  0
  3  4  1  0
  4  5  1  0
  3  6  1  0
  6  7  2  0
  7  8  1  0
  8  9  2  0
  9 10  1  0
 10 11  2  0
  7 12  1  0
 12 13  2  0
 13 14  1  0
 14 15  2  0
 15 16  1  0
 16 17  2  3
 17 18  1  0
 18 19  2  0
 19 20  1  0
 20 21  1  0
 21 22  1  0
 20 23  1  0
 23 24  2  0
 24 25  1  0
 25 26  2  0
 26 27  1  0
 27 28  2  0
 24 29  1  0
 29 30  2  0
 30 31  1  0
 31 32  2  0
 32 33  1  0
 33 34  2  3
 34 35  1  0
 35 36  2  0
 36 37  1  0
 37 38  1  0
 38 39  1  0
 37 40  1  0
 40 41  2  0
 41 42  1  0
 42 43  2  0
 43 44  1  0
 44 45  2  0
 41 46  1  0
 46 47  2  0
 47 48  1  0
 48 49  2  0
 49 50  1  0
 50 51  2  3
 51 52  1  0
 52 53  1  0
 53 54  1  0
 54 55  2  0
 55 56  1  0
 56 57  1  0
 57 58  2  0
 58 59  1  0
 59 60  1  0
 58 61  1  0
 61 62  2  0
 54 63  1  0
 63 64  2  0
 64 65  1  0
 65 66  1  0
 66 67  1  0
 65 68  1  0
 68 69  2  0
 69 70  1  0
 70 71  2  0
 71 72  1  0
 72 73  2  0
 69 74  1  0
 74 75  2  0
 75 76  1  0
 76 77  2  0
 77 78  1  0
 78 79  2  3
 79 80  1  0
 80 81  2  0
 81 82  1  0
 82 83  1  0
 83 84  1  0
 82 85  1  0
 85 86  2  0
 86 87  1  0
 87 88  2  0
 88 89  1  0
 89 90  2  0
 86 91  1  0
 91 92  2  0
 92 93  1  0
 93 94  2  0
 94 95  1  0
 95 96  2  3
 11  1  1  0
 28 18  1  0
 45 35  1  0
 56 52  2  0
 73 63  1  0
 90 80  1  0
  8  2  1  0
 25 19  1  0
 42 36  1  0
 62 55  1  0
 70 64  1  0
 87 81  1  0
 15  6  1  0
 32 23  1  0
 49 40  1  0
 77 68  1  0
 94 85  1  0
  1 97  1  0
  4 98  1  0
  4 99  1  0
  5100  1  0
  5101  1  0
  5102  1  0
  9103  1  0
 10104  1  0
 11105  1  0
 12106  1  0
 13107  1  0
 14108  1  0
 16109  1  0
 17110  1  0
 21111  1  0
 21112  1  0
 22113  1  0
 22114  1  0
 22115  1  0
 26116  1  0
 27117  1  0
 28118  1  0
 29119  1  0
 30120  1  0
 31121  1  0
 33122  1  0
 34123  1  0
 38124  1  0
 38125  1  0
 39126  1  0
 39127  1  0
 39128  1  0
 43129  1  0
 44130  1  0
 45131  1  0
 46132  1  0
 47133  1  0
 48134  1  0
 50135  1  0
 51136  1  0
 57137  1  0
 60138  1  0
 60139  1  0
 60140  1  0
 61141  1  0
 62142  1  0
 66143  1  0
 66144  1  0
 67145  1  0
 67146  1  0
 67147  1  0
 71148  1  0
 72149  1  0
 73150  1  0
 74151  1  0
 75152  1  0
 76153  1  0
 78154  1  0
 79155  1  0
 83156  1  0
 83157  1  0
 84158  1  0
 84159  1  0
 84160  1  0
 88161  1  0
 89162  1  0
 90163  1  0
 91164  1  0
 92165  1  0
 93166  1  0
 95167  1  0
 96168  1  0
 96169  1  0
M  END

