
     RDKit          3D

 74 80  0  0  0  0  0  0  0  0999 V2000
    3.7527   -0.2960    0.1979 C   0  0  0  0  0  0  0  0  0  0  0  0
    5.0752   -0.3645    1.2318 S   0  0  0  0  0  0  0  0  0  0  0  0
    4.7310    1.0518    2.0727 C   0  0  0  0  0  0  0  0  0  0  0  0
    5.5210    1.5972    3.1809 C   0  0  0  0  0  0  0  0  0  0  0  0
    6.5356    0.9774    3.5973 O   0  0  0  0  0  0  0  0  0  0  0  0
    5.1543    2.8008    3.7722 O   0  0  0  0  0  0  0  0  0  0  0  0
    3.5663    1.6030    1.5551 C   0  0  0  0  0  0  0  0  0  0  0  0
    3.0221    0.8434    0.5044 C   0  0  0  0  0  0  0  0  0  0  0  0
    1.8235    1.1454   -0.1484 O   0  0  0  0  0  0  0  0  0  0  0  0
    1.3069    2.4367   -0.2775 C   0  0  0  0  0  0  0  0  0  0  0  0
    2.1948    3.8447   -0.5328 S   0  0  0  0  0  0  0  0  0  0  0  0
    0.8516    4.8627   -0.5892 C   0  0  0  0  0  0  0  0  0  0  0  0
    0.9005    6.3134   -0.8010 C   0  0  0  0  0  0  0  0  0  0  0  0
    2.0114    6.8999   -0.8958 O   0  0  0  0  0  0  0  0  0  0  0  0
   -0.2813    7.0430   -0.9127 O   0  0  0  0  0  0  0  0  0  0  0  0
   -0.3054    4.1109   -0.4012 C   0  0  0  0  0  0  0  0  0  0  0  0
   -0.0433    2.7384   -0.2357 C   0  0  0  0  0  0  0  0  0  0  0  0
   -0.9833    1.7375    0.0347 O   0  0  0  0  0  0  0  0  0  0  0  0
   -2.3702    1.8887    0.1428 C   0  0  0  0  0  0  0  0  0  0  0  0
   -3.3713    2.8987   -0.7607 S   0  0  0  0  0  0  0  0  0  0  0  0
   -4.7999    2.4513    0.0213 C   0  0  0  0  0  0  0  0  0  0  0  0
   -6.1346    2.9784   -0.2853 C   0  0  0  0  0  0  0  0  0  0  0  0
   -6.2732    3.8685   -1.1652 O   0  0  0  0  0  0  0  0  0  0  0  0
   -7.2502    2.4945    0.3936 O   0  0  0  0  0  0  0  0  0  0  0  0
   -4.5087    1.4983    0.9943 C   0  0  0  0  0  0  0  0  0  0  0  0
   -3.1497    1.1715    1.0441 C   0  0  0  0  0  0  0  0  0  0  0  0
   -2.6264    0.2426    1.9472 O   0  0  0  0  0  0  0  0  0  0  0  0
   -1.6252   -0.6571    1.5762 C   0  0  0  0  0  0  0  0  0  0  0  0
   -1.6682   -1.6508    0.2208 S   0  0  0  0  0  0  0  0  0  0  0  0
   -0.1689   -2.3871    0.4719 C   0  0  0  0  0  0  0  0  0  0  0  0
    0.3894   -1.8379    1.6353 C   0  0  0  0  0  0  0  0  0  0  0  0
   -0.4335   -0.8754    2.2504 C   0  0  0  0  0  0  0  0  0  0  0  0
   -0.0213   -0.2094    3.4065 C   0  0  0  0  0  0  0  0  0  0  0  0
    1.2285   -0.5126    3.9682 C   0  0  0  0  0  0  0  0  0  0  0  0
    1.6248    0.1843    5.1192 O   0  0  0  0  0  0  0  0  0  0  0  0
    2.8778    0.0117    5.7723 C   0  0  0  0  0  0  0  0  0  0  0  0
    2.0428   -1.5010    3.3680 C   0  0  0  0  0  0  0  0  0  0  0  0
    1.6215   -2.1708    2.2120 C   0  0  0  0  0  0  0  0  0  0  0  0
    0.4070   -3.4057   -0.4280 C   0  0  0  0  0  0  0  0  0  0  0  0
    2.0262   -3.5350   -0.8681 S   0  0  0  0  0  0  0  0  0  0  0  0
    1.8297   -4.8156   -1.9377 C   0  0  0  0  0  0  0  0  0  0  0  0
    2.9091   -5.4461   -2.7068 C   0  0  0  0  0  0  0  0  0  0  0  0
    2.6672   -6.4379   -3.4443 O   0  0  0  0  0  0  0  0  0  0  0  0
    4.2008   -4.9368   -2.6326 O   0  0  0  0  0  0  0  0  0  0  0  0
    0.4839   -5.1615   -1.9782 C   0  0  0  0  0  0  0  0  0  0  0  0
   -0.3155   -4.3544   -1.1494 C   0  0  0  0  0  0  0  0  0  0  0  0
   -1.6991   -4.5103   -0.9980 O   0  0  0  0  0  0  0  0  0  0  0  0
   -2.5660   -4.9707   -1.9951 C   0  0  0  0  0  0  0  0  0  0  0  0
   -4.0077   -5.7726   -1.6793 S   0  0  0  0  0  0  0  0  0  0  0  0
   -4.4744   -5.9347   -3.2898 C   0  0  0  0  0  0  0  0  0  0  0  0
   -5.7165   -6.5713   -3.7473 C   0  0  0  0  0  0  0  0  0  0  0  0
   -5.9766   -6.6483   -4.9786 O   0  0  0  0  0  0  0  0  0  0  0  0
   -6.6141   -7.0883   -2.8185 O   0  0  0  0  0  0  0  0  0  0  0  0
   -3.5065   -5.3485   -4.1010 C   0  0  0  0  0  0  0  0  0  0  0  0
   -2.4425   -4.7974   -3.3728 C   0  0  0  0  0  0  0  0  0  0  0  0
   -1.3907   -4.1105   -3.9724 O   0  0  0  0  0  0  0  0  0  0  0  0
    3.5097   -1.0158   -0.5708 H   0  0  0  0  0  0  0  0  0  0  0  0
    5.6895    3.1893    4.5384 H   0  0  0  0  0  0  0  0  0  0  0  0
    3.1080    2.5012    1.9482 H   0  0  0  0  0  0  0  0  0  0  0  0
   -0.2607    8.0443   -1.0603 H   0  0  0  0  0  0  0  0  0  0  0  0
   -1.2855    4.5598   -0.3520 H   0  0  0  0  0  0  0  0  0  0  0  0
   -8.1754    2.8540    0.1935 H   0  0  0  0  0  0  0  0  0  0  0  0
   -5.2521    1.0434    1.6366 H   0  0  0  0  0  0  0  0  0  0  0  0
   -0.6531    0.5426    3.8628 H   0  0  0  0  0  0  0  0  0  0  0  0
    2.9774   -1.0304    6.1398 H   0  0  0  0  0  0  0  0  0  0  0  0
    2.9326    0.7015    6.6384 H   0  0  0  0  0  0  0  0  0  0  0  0
    3.7056    0.2556    5.0748 H   0  0  0  0  0  0  0  0  0  0  0  0
    3.0047   -1.7594    3.7899 H   0  0  0  0  0  0  0  0  0  0  0  0
    2.2544   -2.9378    1.7913 H   0  0  0  0  0  0  0  0  0  0  0  0
    4.9531   -5.3446   -3.1727 H   0  0  0  0  0  0  0  0  0  0  0  0
    0.0960   -5.9730   -2.5803 H   0  0  0  0  0  0  0  0  0  0  0  0
   -7.4781   -7.5287   -3.1165 H   0  0  0  0  0  0  0  0  0  0  0  0
   -3.5755   -5.3035   -5.1799 H   0  0  0  0  0  0  0  0  0  0  0  0
   -1.3458   -4.0003   -4.9776 H   0  0  0  0  0  0  0  0  0  0  0  0
  1  2  1  0
  2  3  1  0
  3  4  1  0
  4  5  2  0
  4  6  1  0
  3  7  2  0
  7  8  1  0
  8  9  1  0
  9 10  1  0
 10 11  1  0
 11 12  1  0
 12 13  1  0
 13 14  2  0
 13 15  1  0
 12 16  2  0
 16 17  1  0
 17 18  1  0
 18 19  1  0
 19 20  1  0
 20 21  1  0
 21 22  1  0
 22 23  2  0
 22 24  1  0
 21 25  2  0
 25 26  1  0
 26 27  1  0
 27 28  1  0
 28 29  1  0
 29 30  1  0
 30 31  2  0
 31 32  1  0
 32 33  1  0
 33 34  2  0
 34 35  1  0
 35 36  1  0
 34 37  1  0
 37 38  2  0
 30 39  1  0
 39 40  1  0
 40 41  1  0
 41 42  1  0
 42 43  2  0
 42 44  1  0
 41 45  2  0
 45 46  1  0
 46 47  1  0
 47 48  1  0
 48 49  1  0
 49 50  1  0
 50 51  1  0
 51 52  2  0
 51 53  1  0
 50 54  2  0
 54 55  1  0
 55 56  1  0
  8  1  2  0
 17 10  2  0
 26 19  2  0
 32 28  2  0
 46 39  2  0
 55 48  2  0
 38 31  1  0
  1 57  1  0
  6 58  1  0
  7 59  1  0
 15 60  1  0
 16 61  1  0
 24 62  1  0
 25 63  1  0
 33 64  1  0
 36 65  1  0
 36 66  1  0
 36 67  1  0
 37 68  1  0
 38 69  1  0
 44 70  1  0
 45 71  1  0
 53 72  1  0
 54 73  1  0
 56 74  1  0
M  END

