
     RDKit          3D

134145  0  0  0  0  0  0  0  0999 V2000
    7.7202   -4.5272    5.5186 C   0  0  0  0  0  0  0  0  0  0  0  0
    6.3835   -3.5854    5.8972 S   0  0  0  0  0  0  0  0  0  0  0  0
    5.5940   -3.7320    4.4146 C   0  0  0  0  0  0  0  0  0  0  0  0
    6.3803   -4.5425    3.5888 C   0  0  0  0  0  0  0  0  0  0  0  0
    7.5760   -4.9641    4.2067 C   0  0  0  0  0  0  0  0  0  0  0  0
    8.5668   -5.8799    3.5428 C   0  0  0  0  0  0  0  0  0  0  0  0
    8.3919   -5.9076    2.0106 C   0  0  2  0  0  0  0  0  0  0  0  0
    9.0247   -4.7099    1.3446 C   0  0  0  0  0  0  0  0  0  0  0  0
    8.8318   -3.5467    1.7986 O   0  0  0  0  0  0  0  0  0  0  0  0
    9.8187   -4.9020    0.2082 O   0  0  0  0  0  0  0  0  0  0  0  0
   10.4143   -3.8182   -0.4917 C   0  0  0  0  0  0  0  0  0  0  0  0
    6.9047   -6.0509    1.6276 C   0  0  0  0  0  0  0  0  0  0  0  0
    6.0400   -4.8980    2.1641 C   0  0  0  0  0  0  0  0  0  0  0  0
    4.3285   -3.0539    4.0619 C   0  0  0  0  0  0  0  0  0  0  0  0
    4.0021   -2.3483    2.5721 S   0  0  0  0  0  0  0  0  0  0  0  0
    2.4889   -1.7204    2.9580 C   0  0  0  0  0  0  0  0  0  0  0  0
    2.2003   -2.0798    4.2789 C   0  0  0  0  0  0  0  0  0  0  0  0
    3.2294   -2.8263    4.8952 C   0  0  0  0  0  0  0  0  0  0  0  0
    3.1394   -3.2944    6.3238 C   0  0  0  0  0  0  0  0  0  0  0  0
    1.6851   -3.3629    6.8253 C   0  0  2  0  0  0  0  0  0  0  0  0
    0.9786   -4.5878    6.2976 C   0  0  0  0  0  0  0  0  0  0  0  0
    0.2843   -5.2936    7.0811 O   0  0  0  0  0  0  0  0  0  0  0  0
    1.0888   -4.9314    4.9447 O   0  0  0  0  0  0  0  0  0  0  0  0
    0.5378   -6.1262    4.4057 C   0  0  0  0  0  0  0  0  0  0  0  0
    0.9279   -2.0659    6.4747 C   0  0  0  0  0  0  0  0  0  0  0  0
    0.8847   -1.7922    4.9633 C   0  0  0  0  0  0  0  0  0  0  0  0
    1.6148   -0.9867    2.0163 C   0  0  0  0  0  0  0  0  0  0  0  0
   -0.0627   -1.1690    1.9123 S   0  0  0  0  0  0  0  0  0  0  0  0
   -0.3129   -0.1031    0.6411 C   0  0  0  0  0  0  0  0  0  0  0  0
    0.9214    0.4283    0.2739 C   0  0  0  0  0  0  0  0  0  0  0  0
    1.9987   -0.0582    1.0374 C   0  0  0  0  0  0  0  0  0  0  0  0
    3.2896    0.4500    0.8293 C   0  0  0  0  0  0  0  0  0  0  0  0
    3.5087    1.4154   -0.1668 C   0  0  0  0  0  0  0  0  0  0  0  0
    4.8133    1.8989   -0.3418 O   0  0  0  0  0  0  0  0  0  0  0  0
    5.1788    2.9018   -1.2845 C   0  0  0  0  0  0  0  0  0  0  0  0
    2.4208    1.8792   -0.9415 C   0  0  0  0  0  0  0  0  0  0  0  0
    1.1289    1.3914   -0.7196 C   0  0  0  0  0  0  0  0  0  0  0  0
   -1.6224    0.2694    0.0928 C   0  0  0  0  0  0  0  0  0  0  0  0
   -2.0754    0.0073   -1.4997 S   0  0  0  0  0  0  0  0  0  0  0  0
   -3.4493    0.9736   -1.4733 C   0  0  0  0  0  0  0  0  0  0  0  0
   -3.5408    1.5731   -0.2107 C   0  0  0  0  0  0  0  0  0  0  0  0
   -2.5249    1.1621    0.6735 C   0  0  0  0  0  0  0  0  0  0  0  0
   -2.3203    1.7649    2.0443 C   0  0  0  0  0  0  0  0  0  0  0  0
   -3.2737    2.9416    2.3850 C   0  0  2  0  0  0  0  0  0  0  0  0
   -4.3245    2.5432    3.3909 C   0  0  0  0  0  0  0  0  0  0  0  0
   -5.2583    1.7500    3.0765 O   0  0  0  0  0  0  0  0  0  0  0  0
   -4.2536    3.0734    4.6840 O   0  0  0  0  0  0  0  0  0  0  0  0
   -5.2350    2.8075    5.6803 C   0  0  0  0  0  0  0  0  0  0  0  0
   -3.8856    3.6350    1.1475 C   0  0  0  0  0  0  0  0  0  0  0  0
   -4.5217    2.6469    0.1620 C   0  0  0  0  0  0  0  0  0  0  0  0
   -4.1621    1.3599   -2.6976 C   0  0  0  0  0  0  0  0  0  0  0  0
   -3.3821    1.9316   -4.0587 S   0  0  0  0  0  0  0  0  0  0  0  0
   -4.7070    1.9570   -5.0910 C   0  0  0  0  0  0  0  0  0  0  0  0
   -5.8128    1.4897   -4.3595 C   0  0  0  0  0  0  0  0  0  0  0  0
   -5.5073    1.1682   -3.0145 C   0  0  0  0  0  0  0  0  0  0  0  0
   -6.5091    0.5166   -2.0950 C   0  0  0  0  0  0  0  0  0  0  0  0
   -7.9491    0.8158   -2.5466 C   0  0  2  0  0  0  0  0  0  0  0  0
   -8.9375    0.0630   -1.6984 C   0  0  0  0  0  0  0  0  0  0  0  0
   -9.3261   -1.0904   -2.0389 O   0  0  0  0  0  0  0  0  0  0  0  0
   -9.3905    0.6381   -0.5075 O   0  0  0  0  0  0  0  0  0  0  0  0
  -10.4180    0.0577    0.2842 C   0  0  0  0  0  0  0  0  0  0  0  0
   -8.1163    0.4851   -4.0420 C   0  0  0  0  0  0  0  0  0  0  0  0
   -7.2101    1.3669   -4.9154 C   0  0  0  0  0  0  0  0  0  0  0  0
   -4.6641    2.4117   -6.5072 C   0  0  0  0  0  0  0  0  0  0  0  0
   -5.9637    3.0752   -7.3503 S   0  0  0  0  0  0  0  0  0  0  0  0
   -5.1559    3.4047   -8.7823 C   0  0  0  0  0  0  0  0  0  0  0  0
   -3.8331    3.0188   -8.6197 C   0  0  0  0  0  0  0  0  0  0  0  0
   -3.5485    2.4503   -7.3638 C   0  0  0  0  0  0  0  0  0  0  0  0
   -2.1523    2.0264   -6.9777 C   0  0  0  0  0  0  0  0  0  0  0  0
   -1.1762    1.9426   -8.1710 C   0  0  2  0  0  0  0  0  0  0  0  0
    0.2453    1.8869   -7.6528 C   0  0  0  0  0  0  0  0  0  0  0  0
    1.1428    2.6206   -8.1461 O   0  0  0  0  0  0  0  0  0  0  0  0
    0.5490    1.0176   -6.5959 O   0  0  0  0  0  0  0  0  0  0  0  0
    1.8177    1.0097   -5.9528 C   0  0  0  0  0  0  0  0  0  0  0  0
   -1.3899    3.1219   -9.1438 C   0  0  0  0  0  0  0  0  0  0  0  0
   -2.8120    3.1152   -9.7146 C   0  0  0  0  0  0  0  0  0  0  0  0
    8.5447   -4.7549    6.1808 H   0  0  0  0  0  0  0  0  0  0  0  0
    9.6037   -5.5757    3.8027 H   0  0  0  0  0  0  0  0  0  0  0  0
    8.4038   -6.9059    3.9395 H   0  0  0  0  0  0  0  0  0  0  0  0
    8.9221   -6.8116    1.6340 H   0  0  0  0  0  0  0  0  0  0  0  0
   10.9936   -4.2128   -1.3509 H   0  0  0  0  0  0  0  0  0  0  0  0
    9.6272   -3.1335   -0.8711 H   0  0  0  0  0  0  0  0  0  0  0  0
   11.0989   -3.2616    0.1824 H   0  0  0  0  0  0  0  0  0  0  0  0
    6.5225   -7.0095    2.0427 H   0  0  0  0  0  0  0  0  0  0  0  0
    6.8019   -6.1068    0.5216 H   0  0  0  0  0  0  0  0  0  0  0  0
    6.1870   -4.0038    1.5215 H   0  0  0  0  0  0  0  0  0  0  0  0
    4.9700   -5.1947    2.0997 H   0  0  0  0  0  0  0  0  0  0  0  0
    3.7040   -2.5781    6.9599 H   0  0  0  0  0  0  0  0  0  0  0  0
    3.6100   -4.2927    6.4344 H   0  0  0  0  0  0  0  0  0  0  0  0
    1.7195   -3.4415    7.9339 H   0  0  0  0  0  0  0  0  0  0  0  0
   -0.5620   -6.1506    4.5693 H   0  0  0  0  0  0  0  0  0  0  0  0
    0.7401   -6.1592    3.3151 H   0  0  0  0  0  0  0  0  0  0  0  0
    1.0103   -7.0113    4.8857 H   0  0  0  0  0  0  0  0  0  0  0  0
    1.4334   -1.2098    6.9787 H   0  0  0  0  0  0  0  0  0  0  0  0
   -0.1079   -2.1140    6.8717 H   0  0  0  0  0  0  0  0  0  0  0  0
    0.6008   -0.7307    4.8000 H   0  0  0  0  0  0  0  0  0  0  0  0
    0.1022   -2.4376    4.5084 H   0  0  0  0  0  0  0  0  0  0  0  0
    4.1221    0.1349    1.4393 H   0  0  0  0  0  0  0  0  0  0  0  0
    6.2699    3.0930   -1.2062 H   0  0  0  0  0  0  0  0  0  0  0  0
    4.6359    3.8456   -1.0668 H   0  0  0  0  0  0  0  0  0  0  0  0
    4.9508    2.5612   -2.3161 H   0  0  0  0  0  0  0  0  0  0  0  0
    2.5647    2.6239   -1.7146 H   0  0  0  0  0  0  0  0  0  0  0  0
    0.3037    1.7787   -1.3038 H   0  0  0  0  0  0  0  0  0  0  0  0
   -1.2710    2.1416    2.0962 H   0  0  0  0  0  0  0  0  0  0  0  0
   -2.4032    0.9537    2.8038 H   0  0  0  0  0  0  0  0  0  0  0  0
   -2.6533    3.7160    2.8910 H   0  0  0  0  0  0  0  0  0  0  0  0
   -4.9379    3.3041    6.6268 H   0  0  0  0  0  0  0  0  0  0  0  0
   -6.2193    3.2119    5.3607 H   0  0  0  0  0  0  0  0  0  0  0  0
   -5.3175    1.7141    5.8575 H   0  0  0  0  0  0  0  0  0  0  0  0
   -3.0831    4.1916    0.6173 H   0  0  0  0  0  0  0  0  0  0  0  0
   -4.6493    4.3803    1.4672 H   0  0  0  0  0  0  0  0  0  0  0  0
   -4.8475    3.2066   -0.7433 H   0  0  0  0  0  0  0  0  0  0  0  0
   -5.4210    2.1801    0.6152 H   0  0  0  0  0  0  0  0  0  0  0  0
   -6.3710    0.8851   -1.0607 H   0  0  0  0  0  0  0  0  0  0  0  0
   -6.3293   -0.5818   -2.0977 H   0  0  0  0  0  0  0  0  0  0  0  0
   -8.1475    1.9013   -2.4072 H   0  0  0  0  0  0  0  0  0  0  0  0
  -10.5303    0.6430    1.2227 H   0  0  0  0  0  0  0  0  0  0  0  0
  -11.3814    0.0884   -0.2713 H   0  0  0  0  0  0  0  0  0  0  0  0
  -10.1660   -0.9951    0.5399 H   0  0  0  0  0  0  0  0  0  0  0  0
   -7.8703   -0.5848   -4.2264 H   0  0  0  0  0  0  0  0  0  0  0  0
   -9.1734    0.6561   -4.3503 H   0  0  0  0  0  0  0  0  0  0  0  0
   -7.1739    0.9252   -5.9340 H   0  0  0  0  0  0  0  0  0  0  0  0
   -7.6521    2.3859   -4.9822 H   0  0  0  0  0  0  0  0  0  0  0  0
   -5.5902    3.8402   -9.6732 H   0  0  0  0  0  0  0  0  0  0  0  0
   -1.7659    2.7583   -6.2381 H   0  0  0  0  0  0  0  0  0  0  0  0
   -2.1988    1.0270   -6.4945 H   0  0  0  0  0  0  0  0  0  0  0  0
   -1.3696    0.9947   -8.7231 H   0  0  0  0  0  0  0  0  0  0  0  0
    1.8135    0.2512   -5.1424 H   0  0  0  0  0  0  0  0  0  0  0  0
    2.6136    0.7519   -6.6825 H   0  0  0  0  0  0  0  0  0  0  0  0
    2.0230    2.0063   -5.5077 H   0  0  0  0  0  0  0  0  0  0  0  0
   -1.2068    4.0855   -8.6164 H   0  0  0  0  0  0  0  0  0  0  0  0
   -0.6723    3.0492   -9.9922 H   0  0  0  0  0  0  0  0  0  0  0  0
   -2.9369    2.2497  -10.4006 H   0  0  0  0  0  0  0  0  0  0  0  0
   -2.9737    4.0458  -10.3024 H   0  0  0  0  0  0  0  0  0  0  0  0
  1  2  1  0
  2  3  1  0
  3  4  2  0
  4  5  1  0
  5  6  1  0
  6  7  1  0
  7  8  1  0
  8  9  2  0
  8 10  1  0
 10 11  1  0
  7 12  1  0
 12 13  1  0
  3 14  1  0
 14 15  1  0
 15 16  1  0
 16 17  2  0
 17 18  1  0
 18 19  1  0
 19 20  1  0
 20 21  1  0
 21 22  2  0
 21 23  1  0
 23 24  1  0
 20 25  1  0
 25 26  1  0
 16 27  1  0
 27 28  1  0
 28 29  1  0
 29 30  2  0
 30 31  1  0
 31 32  1  0
 32 33  2  0
 33 34  1  0
 34 35  1  0
 33 36  1  0
 36 37  2  0
 29 38  1  0
 38 39  1  0
 39 40  1  0
 40 41  2  0
 41 42  1  0
 42 43  1  0
 43 44  1  0
 44 45  1  0
 45 46  2  0
 45 47  1  0
 47 48  1  0
 44 49  1  0
 49 50  1  0
 40 51  1  0
 51 52  1  0
 52 53  1  0
 53 54  2  0
 54 55  1  0
 55 56  1  0
 56 57  1  0
 57 58  1  0
 58 59  2  0
 58 60  1  0
 60 61  1  0
 57 62  1  0
 62 63  1  0
 53 64  1  0
 64 65  1  0
 65 66  1  0
 66 67  2  0
 67 68  1  0
 68 69  1  0
 69 70  1  0
 70 71  1  0
 71 72  2  0
 71 73  1  0
 73 74  1  0
 70 75  1  0
 75 76  1  0
  5  1  2  0
 18 14  2  0
 31 27  2  0
 42 38  2  0
 55 51  2  0
 68 64  2  0
 13  4  1  0
 26 17  1  0
 37 30  1  0
 50 41  1  0
 63 54  1  0
 76 67  1  0
  1 77  1  0
  6 78  1  0
  6 79  1  0
  7 80  1  6
 11 81  1  0
 11 82  1  0
 11 83  1  0
 12 84  1  0
 12 85  1  0
 13 86  1  0
 13 87  1  0
 19 88  1  0
 19 89  1  0
 20 90  1  1
 24 91  1  0
 24 92  1  0
 24 93  1  0
 25 94  1  0
 25 95  1  0
 26 96  1  0
 26 97  1  0
 32 98  1  0
 35 99  1  0
 35100  1  0
 35101  1  0
 36102  1  0
 37103  1  0
 43104  1  0
 43105  1  0
 44106  1  1
 48107  1  0
 48108  1  0
 48109  1  0
 49110  1  0
 49111  1  0
 50112  1  0
 50113  1  0
 56114  1  0
 56115  1  0
 57116  1  6
 61117  1  0
 61118  1  0
 61119  1  0
 62120  1  0
 62121  1  0
 63122  1  0
 63123  1  0
 66124  1  0
 69125  1  0
 69126  1  0
 70127  1  6
 74128  1  0
 74129  1  0
 74130  1  0
 75131  1  0
 75132  1  0
 76133  1  0
 76134  1  0
M  END

