
     RDKit          3D

 94105  0  0  0  0  0  0  0  0999 V2000
    8.7864    2.5976    2.1818 C   0  0  0  0  0  0  0  0  0  0  0  0
    9.3780    1.4267    1.7215 C   0  0  0  0  0  0  0  0  0  0  0  0
   10.3788    0.7204    2.2648 N   0  0  0  0  0  0  0  0  0  0  0  0
   10.5850   -0.2562    1.4163 O   0  0  0  0  0  0  0  0  0  0  0  0
    9.7994   -0.2348    0.3680 N   0  0  0  0  0  0  0  0  0  0  0  0
    9.0140    0.8366    0.5560 C   0  0  0  0  0  0  0  0  0  0  0  0
    8.0024    1.3575   -0.2622 C   0  0  0  0  0  0  0  0  0  0  0  0
    7.3994    2.5631    0.1616 C   0  0  0  0  0  0  0  0  0  0  0  0
    7.7821    3.1724    1.3804 C   0  0  0  0  0  0  0  0  0  0  0  0
    7.6021    0.7422   -1.5454 C   0  0  0  0  0  0  0  0  0  0  0  0
    7.3588   -0.5639   -1.7357 C   0  0  0  0  0  0  0  0  0  0  0  0
    7.3150   -1.5880   -0.6705 C   0  0  0  0  0  0  0  0  0  0  0  0
    6.5971   -1.4243    0.5205 C   0  0  0  0  0  0  0  0  0  0  0  0
    5.8577   -0.3831    0.9324 N   0  0  0  0  0  0  0  0  0  0  0  0
    5.4099   -0.7413    2.1096 O   0  0  0  0  0  0  0  0  0  0  0  0
    5.7927   -1.9342    2.4904 N   0  0  0  0  0  0  0  0  0  0  0  0
    6.5450   -2.3875    1.4758 C   0  0  0  0  0  0  0  0  0  0  0  0
    7.1799   -3.6263    1.3269 C   0  0  0  0  0  0  0  0  0  0  0  0
    7.9230   -3.8241    0.1444 C   0  0  0  0  0  0  0  0  0  0  0  0
    7.9713   -2.8240   -0.8541 C   0  0  0  0  0  0  0  0  0  0  0  0
    7.1098   -4.6941    2.3457 C   0  0  0  0  0  0  0  0  0  0  0  0
    5.9787   -5.1444    2.9119 C   0  0  0  0  0  0  0  0  0  0  0  0
    4.6107   -4.7374    2.5192 C   0  0  0  0  0  0  0  0  0  0  0  0
    3.6229   -4.5407    3.4844 C   0  0  0  0  0  0  0  0  0  0  0  0
    3.7068   -4.6884    4.8152 N   0  0  0  0  0  0  0  0  0  0  0  0
    2.5103   -4.3889    5.2539 O   0  0  0  0  0  0  0  0  0  0  0  0
    1.6610   -4.0566    4.3145 N   0  0  0  0  0  0  0  0  0  0  0  0
    2.3617   -4.1386    3.1726 C   0  0  0  0  0  0  0  0  0  0  0  0
    1.9548   -3.8983    1.8494 C   0  0  0  0  0  0  0  0  0  0  0  0
    2.9129   -4.1529    0.8423 C   0  0  0  0  0  0  0  0  0  0  0  0
    4.2213   -4.5729    1.1699 C   0  0  0  0  0  0  0  0  0  0  0  0
    0.6094   -3.4138    1.4536 C   0  0  0  0  0  0  0  0  0  0  0  0
   -0.2036   -2.7173    2.2593 C   0  0  0  0  0  0  0  0  0  0  0  0
   -1.4898   -2.1627    1.7865 C   0  0  0  0  0  0  0  0  0  0  0  0
   -1.9382   -1.9574    0.1721 S   0  0  0  0  0  0  0  0  0  0  0  0
   -3.4145   -1.1949    0.4484 C   0  0  0  0  0  0  0  0  0  0  0  0
   -3.5863   -1.0968    1.8332 C   0  0  0  0  0  0  0  0  0  0  0  0
   -2.5129   -1.6290    2.5768 C   0  0  0  0  0  0  0  0  0  0  0  0
   -2.5448   -1.6117    3.9784 C   0  0  0  0  0  0  0  0  0  0  0  0
   -3.6639   -1.0639    4.6412 C   0  0  0  0  0  0  0  0  0  0  0  0
   -3.7555   -1.0134    6.0401 O   0  0  0  0  0  0  0  0  0  0  0  0
   -2.7504   -1.4872    6.9307 C   0  0  0  0  0  0  0  0  0  0  0  0
   -4.7346   -0.5531    3.8889 C   0  0  0  0  0  0  0  0  0  0  0  0
   -4.7062   -0.5729    2.4898 C   0  0  0  0  0  0  0  0  0  0  0  0
   -4.2753   -0.6401   -0.6162 C   0  0  0  0  0  0  0  0  0  0  0  0
   -4.5398   -1.3512   -1.7884 C   0  0  0  0  0  0  0  0  0  0  0  0
   -4.1627   -2.5928   -2.1285 N   0  0  0  0  0  0  0  0  0  0  0  0
   -4.6772   -2.7787   -3.3182 O   0  0  0  0  0  0  0  0  0  0  0  0
   -5.3589   -1.7583   -3.7754 N   0  0  0  0  0  0  0  0  0  0  0  0
   -5.2785   -0.8359   -2.8042 C   0  0  0  0  0  0  0  0  0  0  0  0
   -5.8335    0.4462   -2.7596 C   0  0  0  0  0  0  0  0  0  0  0  0
   -5.5669    1.2087   -1.5942 C   0  0  0  0  0  0  0  0  0  0  0  0
   -4.7950    0.6713   -0.5384 C   0  0  0  0  0  0  0  0  0  0  0  0
   -6.6039    0.9674   -3.9148 C   0  0  0  0  0  0  0  0  0  0  0  0
   -7.4872    1.9732   -3.8179 C   0  0  0  0  0  0  0  0  0  0  0  0
   -8.2419    2.5264   -4.9713 C   0  0  0  0  0  0  0  0  0  0  0  0
   -8.8819    3.7643   -4.8571 C   0  0  0  0  0  0  0  0  0  0  0  0
   -8.9512    4.5797   -3.7932 N   0  0  0  0  0  0  0  0  0  0  0  0
   -9.6878    5.5844   -4.1951 O   0  0  0  0  0  0  0  0  0  0  0  0
  -10.1023    5.4849   -5.4329 N   0  0  0  0  0  0  0  0  0  0  0  0
   -9.5856    4.3277   -5.8747 C   0  0  0  0  0  0  0  0  0  0  0  0
   -9.7307    3.7052   -7.1224 C   0  0  0  0  0  0  0  0  0  0  0  0
   -9.1287    2.4363   -7.2670 C   0  0  0  0  0  0  0  0  0  0  0  0
   -8.3891    1.8548   -6.2115 C   0  0  0  0  0  0  0  0  0  0  0  0
  -10.5029    4.2780   -8.2488 C   0  0  0  0  0  0  0  0  0  0  0  0
  -10.6583    5.5859   -8.4503 C   0  0  0  0  0  0  0  0  0  0  0  0
    9.0968    3.0580    3.1105 H   0  0  0  0  0  0  0  0  0  0  0  0
    6.6264    3.0249   -0.4405 H   0  0  0  0  0  0  0  0  0  0  0  0
    7.3047    4.0913    1.6956 H   0  0  0  0  0  0  0  0  0  0  0  0
    7.4981    1.4030   -2.3976 H   0  0  0  0  0  0  0  0  0  0  0  0
    7.1788   -0.9008   -2.7496 H   0  0  0  0  0  0  0  0  0  0  0  0
    8.4409   -4.7609   -0.0195 H   0  0  0  0  0  0  0  0  0  0  0  0
    8.5334   -3.0106   -1.7611 H   0  0  0  0  0  0  0  0  0  0  0  0
    8.0444   -5.1494    2.6481 H   0  0  0  0  0  0  0  0  0  0  0  0
    6.0715   -5.8609    3.7190 H   0  0  0  0  0  0  0  0  0  0  0  0
    2.6564   -4.0136   -0.2008 H   0  0  0  0  0  0  0  0  0  0  0  0
    4.9207   -4.7698    0.3681 H   0  0  0  0  0  0  0  0  0  0  0  0
    0.3129   -3.5797    0.4244 H   0  0  0  0  0  0  0  0  0  0  0  0
    0.0957   -2.4941    3.2708 H   0  0  0  0  0  0  0  0  0  0  0  0
   -1.7246   -2.0269    4.5450 H   0  0  0  0  0  0  0  0  0  0  0  0
   -1.8014   -0.9345    6.7643 H   0  0  0  0  0  0  0  0  0  0  0  0
   -3.0829   -1.3168    7.9749 H   0  0  0  0  0  0  0  0  0  0  0  0
   -2.5907   -2.5760    6.7815 H   0  0  0  0  0  0  0  0  0  0  0  0
   -5.6008   -0.1462    4.3952 H   0  0  0  0  0  0  0  0  0  0  0  0
   -5.5594   -0.2026    1.9388 H   0  0  0  0  0  0  0  0  0  0  0  0
   -5.9114    2.2294   -1.5033 H   0  0  0  0  0  0  0  0  0  0  0  0
   -4.5745    1.2969    0.3176 H   0  0  0  0  0  0  0  0  0  0  0  0
   -6.4279    0.4921   -4.8690 H   0  0  0  0  0  0  0  0  0  0  0  0
   -7.6641    2.4312   -2.8541 H   0  0  0  0  0  0  0  0  0  0  0  0
   -9.2227    1.8952   -8.2005 H   0  0  0  0  0  0  0  0  0  0  0  0
   -7.9651    0.8745   -6.3742 H   0  0  0  0  0  0  0  0  0  0  0  0
  -10.9113    3.5992   -8.9883 H   0  0  0  0  0  0  0  0  0  0  0  0
  -11.2127    5.9333   -9.3120 H   0  0  0  0  0  0  0  0  0  0  0  0
  -10.2111    6.3258   -7.8023 H   0  0  0  0  0  0  0  0  0  0  0  0
  1  2  1  0
  2  3  2  0
  3  4  1  0
  4  5  1  0
  5  6  2  0
  6  7  1  0
  7  8  2  0
  8  9  1  0
  7 10  1  0
 10 11  2  3
 11 12  1  0
 12 13  1  0
 13 14  2  0
 14 15  1  0
 15 16  1  0
 16 17  2  0
 17 18  1  0
 18 19  2  0
 19 20  1  0
 18 21  1  0
 21 22  2  3
 22 23  1  0
 23 24  1  0
 24 25  2  0
 25 26  1  0
 26 27  1  0
 27 28  2  0
 28 29  1  0
 29 30  2  0
 30 31  1  0
 29 32  1  0
 32 33  2  3
 33 34  1  0
 34 35  1  0
 35 36  1  0
 36 37  2  0
 37 38  1  0
 38 39  1  0
 39 40  2  0
 40 41  1  0
 41 42  1  0
 40 43  1  0
 43 44  2  0
 36 45  1  0
 45 46  1  0
 46 47  2  0
 47 48  1  0
 48 49  1  0
 49 50  2  0
 50 51  1  0
 51 52  2  0
 52 53  1  0
 51 54  1  0
 54 55  2  3
 55 56  1  0
 56 57  1  0
 57 58  2  0
 58 59  1  0
 59 60  1  0
 60 61  2  0
 61 62  1  0
 62 63  2  0
 63 64  1  0
 62 65  1  0
 65 66  2  3
  9  1  2  0
 20 12  2  0
 31 23  2  0
 38 34  2  0
 53 45  2  0
 64 56  2  0
  6  2  1  0
 17 13  1  0
 28 24  1  0
 44 37  1  0
 50 46  1  0
 61 57  1  0
  1 67  1  0
  8 68  1  0
  9 69  1  0
 10 70  1  0
 11 71  1  0
 19 72  1  0
 20 73  1  0
 21 74  1  0
 22 75  1  0
 30 76  1  0
 31 77  1  0
 32 78  1  0
 33 79  1  0
 39 80  1  0
 42 81  1  0
 42 82  1  0
 42 83  1  0
 43 84  1  0
 44 85  1  0
 52 86  1  0
 53 87  1  0
 54 88  1  0
 55 89  1  0
 63 90  1  0
 64 91  1  0
 65 92  1  0
 66 93  1  0
 66 94  1  0
M  END

