
     RDKit          3D

 94105  0  0  0  0  0  0  0  0999 V2000
   10.9394   -2.1525   -0.8285 C   0  0  0  0  0  0  0  0  0  0  0  0
   11.3798   -2.0476   -2.1466 C   0  0  0  0  0  0  0  0  0  0  0  0
   12.4588   -2.7276   -2.6107 N   0  0  0  0  0  0  0  0  0  0  0  0
   12.4895   -2.1898   -4.1767 S   0  0  0  0  0  0  0  0  0  0  0  0
   11.2127   -1.1466   -4.3273 N   0  0  0  0  0  0  0  0  0  0  0  0
   10.7077   -1.1922   -3.0653 C   0  0  0  0  0  0  0  0  0  0  0  0
    9.5768   -0.4608   -2.6630 C   0  0  0  0  0  0  0  0  0  0  0  0
    9.1624   -0.5570   -1.3181 C   0  0  0  0  0  0  0  0  0  0  0  0
    9.8341   -1.4009   -0.4172 C   0  0  0  0  0  0  0  0  0  0  0  0
    8.8956    0.4384   -3.6314 C   0  0  0  0  0  0  0  0  0  0  0  0
    7.5730    0.6571   -3.7099 C   0  0  0  0  0  0  0  0  0  0  0  0
    6.5312   -0.0200   -2.9139 C   0  0  0  0  0  0  0  0  0  0  0  0
    5.2507    0.8069   -2.1954 S   0  0  0  0  0  0  0  0  0  0  0  0
    4.4665   -0.5386   -1.5583 C   0  0  0  0  0  0  0  0  0  0  0  0
    5.1994   -1.6743   -1.9138 C   0  0  0  0  0  0  0  0  0  0  0  0
    6.3338   -1.3904   -2.7017 C   0  0  0  0  0  0  0  0  0  0  0  0
    7.1089   -2.4359   -3.2205 C   0  0  0  0  0  0  0  0  0  0  0  0
    6.8057   -3.7613   -2.8813 C   0  0  0  0  0  0  0  0  0  0  0  0
    7.6046   -4.7805   -3.4273 O   0  0  0  0  0  0  0  0  0  0  0  0
    7.4270   -6.1705   -3.1722 C   0  0  0  0  0  0  0  0  0  0  0  0
    5.7111   -4.0286   -2.0257 C   0  0  0  0  0  0  0  0  0  0  0  0
    4.8950   -2.9909   -1.5612 C   0  0  0  0  0  0  0  0  0  0  0  0
    3.1613   -0.4775   -0.8783 C   0  0  0  0  0  0  0  0  0  0  0  0
    2.0287   -1.1234   -1.4032 C   0  0  0  0  0  0  0  0  0  0  0  0
    2.0594   -1.8732   -2.5330 N   0  0  0  0  0  0  0  0  0  0  0  0
    0.4705   -2.3180   -2.6409 S   0  0  0  0  0  0  0  0  0  0  0  0
   -0.2875   -1.6243   -1.3488 N   0  0  0  0  0  0  0  0  0  0  0  0
    0.7581   -0.9733   -0.7706 C   0  0  0  0  0  0  0  0  0  0  0  0
    0.6246   -0.1865    0.3847 C   0  0  0  0  0  0  0  0  0  0  0  0
    1.7734    0.4500    0.8966 C   0  0  0  0  0  0  0  0  0  0  0  0
    3.0167    0.3149    0.2683 C   0  0  0  0  0  0  0  0  0  0  0  0
   -0.7051    0.0384    1.0052 C   0  0  0  0  0  0  0  0  0  0  0  0
   -0.8450    0.1557    2.3293 C   0  0  0  0  0  0  0  0  0  0  0  0
   -2.1209    0.4495    3.0361 C   0  0  0  0  0  0  0  0  0  0  0  0
   -3.2046    1.1570    2.4708 C   0  0  0  0  0  0  0  0  0  0  0  0
   -3.2394    1.5844    1.1833 N   0  0  0  0  0  0  0  0  0  0  0  0
   -4.7061    2.3379    1.1329 S   0  0  0  0  0  0  0  0  0  0  0  0
   -5.3239    2.1997    2.6521 N   0  0  0  0  0  0  0  0  0  0  0  0
   -4.3440    1.4933    3.2666 C   0  0  0  0  0  0  0  0  0  0  0  0
   -4.4063    1.1191    4.6224 C   0  0  0  0  0  0  0  0  0  0  0  0
   -3.3087    0.4442    5.1742 C   0  0  0  0  0  0  0  0  0  0  0  0
   -2.1969    0.1077    4.3993 C   0  0  0  0  0  0  0  0  0  0  0  0
   -5.5057    1.4943    5.5432 C   0  0  0  0  0  0  0  0  0  0  0  0
   -6.8309    1.4778    5.2953 C   0  0  0  0  0  0  0  0  0  0  0  0
   -7.5339    0.9560    4.1007 C   0  0  0  0  0  0  0  0  0  0  0  0
   -7.1723   -0.2380    3.4365 C   0  0  0  0  0  0  0  0  0  0  0  0
   -6.1371   -1.0258    3.8212 N   0  0  0  0  0  0  0  0  0  0  0  0
   -6.2580   -2.2532    2.7293 S   0  0  0  0  0  0  0  0  0  0  0  0
   -7.5736   -1.8991    1.7945 N   0  0  0  0  0  0  0  0  0  0  0  0
   -7.9667   -0.7253    2.3561 C   0  0  0  0  0  0  0  0  0  0  0  0
   -9.1325   -0.0513    1.9611 C   0  0  0  0  0  0  0  0  0  0  0  0
   -9.5063    1.1088    2.6532 C   0  0  0  0  0  0  0  0  0  0  0  0
   -8.7073    1.6117    3.6922 C   0  0  0  0  0  0  0  0  0  0  0  0
  -10.0462   -0.6314    0.9578 C   0  0  0  0  0  0  0  0  0  0  0  0
   -9.7482   -0.7331   -0.3442 C   0  0  0  0  0  0  0  0  0  0  0  0
   -8.5666   -0.1047   -0.9711 C   0  0  0  0  0  0  0  0  0  0  0  0
   -8.3911    1.2856   -0.9734 C   0  0  0  0  0  0  0  0  0  0  0  0
   -9.2470    2.1348   -0.3435 N   0  0  0  0  0  0  0  0  0  0  0  0
   -8.5982    3.5932   -0.7630 S   0  0  0  0  0  0  0  0  0  0  0  0
   -7.2963    3.2445   -1.7273 N   0  0  0  0  0  0  0  0  0  0  0  0
   -7.3244    1.8846   -1.7168 C   0  0  0  0  0  0  0  0  0  0  0  0
   -6.4244    1.0760   -2.4435 C   0  0  0  0  0  0  0  0  0  0  0  0
   -6.6354   -0.3134   -2.4537 C   0  0  0  0  0  0  0  0  0  0  0  0
   -7.6973   -0.8919   -1.7399 C   0  0  0  0  0  0  0  0  0  0  0  0
   -5.3180    1.6252   -3.2637 C   0  0  0  0  0  0  0  0  0  0  0  0
   -4.6224    2.7145   -2.9322 C   0  0  0  0  0  0  0  0  0  0  0  0
   11.4461   -2.7983   -0.1243 H   0  0  0  0  0  0  0  0  0  0  0  0
    8.3345    0.0357   -0.9480 H   0  0  0  0  0  0  0  0  0  0  0  0
    9.4993   -1.4617    0.6120 H   0  0  0  0  0  0  0  0  0  0  0  0
    9.5308    0.9535   -4.3462 H   0  0  0  0  0  0  0  0  0  0  0  0
    7.2437    1.4265   -4.3967 H   0  0  0  0  0  0  0  0  0  0  0  0
    7.9251   -2.2371   -3.9086 H   0  0  0  0  0  0  0  0  0  0  0  0
    7.6072   -6.3869   -2.0949 H   0  0  0  0  0  0  0  0  0  0  0  0
    8.1482   -6.7497   -3.7947 H   0  0  0  0  0  0  0  0  0  0  0  0
    6.3982   -6.4890   -3.4439 H   0  0  0  0  0  0  0  0  0  0  0  0
    5.4610   -5.0411   -1.7391 H   0  0  0  0  0  0  0  0  0  0  0  0
    4.0498   -3.2171   -0.9322 H   0  0  0  0  0  0  0  0  0  0  0  0
    1.7079    1.0898    1.7658 H   0  0  0  0  0  0  0  0  0  0  0  0
    3.8735    0.8360    0.6766 H   0  0  0  0  0  0  0  0  0  0  0  0
   -1.5749    0.0074    0.3656 H   0  0  0  0  0  0  0  0  0  0  0  0
    0.0117   -0.0563    2.9493 H   0  0  0  0  0  0  0  0  0  0  0  0
   -3.3176    0.1685    6.2235 H   0  0  0  0  0  0  0  0  0  0  0  0
   -1.3728   -0.4133    4.8702 H   0  0  0  0  0  0  0  0  0  0  0  0
   -5.2018    1.8425    6.5182 H   0  0  0  0  0  0  0  0  0  0  0  0
   -7.4666    1.8989    6.0699 H   0  0  0  0  0  0  0  0  0  0  0  0
  -10.4230    1.6290    2.3903 H   0  0  0  0  0  0  0  0  0  0  0  0
   -9.0385    2.5054    4.2115 H   0  0  0  0  0  0  0  0  0  0  0  0
  -10.9747   -1.0581    1.3180 H   0  0  0  0  0  0  0  0  0  0  0  0
  -10.4114   -1.3109   -0.9758 H   0  0  0  0  0  0  0  0  0  0  0  0
   -5.9794   -0.9635   -3.0266 H   0  0  0  0  0  0  0  0  0  0  0  0
   -7.8460   -1.9665   -1.7902 H   0  0  0  0  0  0  0  0  0  0  0  0
   -5.0138    1.0837   -4.1475 H   0  0  0  0  0  0  0  0  0  0  0  0
   -4.8088    3.2590   -2.0176 H   0  0  0  0  0  0  0  0  0  0  0  0
   -3.8174    3.0531   -3.5737 H   0  0  0  0  0  0  0  0  0  0  0  0
  1  2  1  0
  2  3  2  0
  3  4  1  0
  4  5  1  0
  5  6  2  0
  6  7  1  0
  7  8  2  0
  8  9  1  0
  7 10  1  0
 10 11  2  3
 11 12  1  0
 12 13  1  0
 13 14  1  0
 14 15  2  0
 15 16  1  0
 16 17  1  0
 17 18  2  0
 18 19  1  0
 19 20  1  0
 18 21  1  0
 21 22  2  0
 14 23  1  0
 23 24  1  0
 24 25  2  0
 25 26  1  0
 26 27  1  0
 27 28  2  0
 28 29  1  0
 29 30  2  0
 30 31  1  0
 29 32  1  0
 32 33  2  3
 33 34  1  0
 34 35  1  0
 35 36  2  0
 36 37  1  0
 37 38  1  0
 38 39  2  0
 39 40  1  0
 40 41  2  0
 41 42  1  0
 40 43  1  0
 43 44  2  3
 44 45  1  0
 45 46  1  0
 46 47  2  0
 47 48  1  0
 48 49  1  0
 49 50  2  0
 50 51  1  0
 51 52  2  0
 52 53  1  0
 51 54  1  0
 54 55  2  3
 55 56  1  0
 56 57  1  0
 57 58  2  0
 58 59  1  0
 59 60  1  0
 60 61  2  0
 61 62  1  0
 62 63  2  0
 63 64  1  0
 62 65  1  0
 65 66  2  3
  9  1  2  0
 16 12  2  0
 31 23  2  0
 42 34  2  0
 53 45  2  0
 64 56  2  0
  6  2  1  0
 22 15  1  0
 28 24  1  0
 39 35  1  0
 50 46  1  0
 61 57  1  0
  1 67  1  0
  8 68  1  0
  9 69  1  0
 10 70  1  0
 11 71  1  0
 17 72  1  0
 20 73  1  0
 20 74  1  0
 20 75  1  0
 21 76  1  0
 22 77  1  0
 30 78  1  0
 31 79  1  0
 32 80  1  0
 33 81  1  0
 41 82  1  0
 42 83  1  0
 43 84  1  0
 44 85  1  0
 52 86  1  0
 53 87  1  0
 54 88  1  0
 55 89  1  0
 63 90  1  0
 64 91  1  0
 65 92  1  0
 66 93  1  0
 66 94  1  0
M  END

