
     RDKit          3D

134145  0  0  0  0  0  0  0  0999 V2000
    0.8932    1.5544   10.5894 C   0  0  0  0  0  0  0  0  0  0  0  0
    1.8977    1.3178    9.6641 C   0  0  0  0  0  0  0  0  0  0  0  0
    1.5022    0.6137    8.5483 C   0  0  0  0  0  0  0  0  0  0  0  0
    2.8115    0.3376    7.5365 S   0  0  0  0  0  0  0  0  0  0  0  0
    3.9186    1.1470    8.5487 C   0  0  0  0  0  0  0  0  0  0  0  0
    5.3548    1.2632    8.2676 C   0  0  0  0  0  0  0  0  0  0  0  0
    6.1156    1.8537    9.0811 O   0  0  0  0  0  0  0  0  0  0  0  0
    5.8679    0.7050    7.0936 O   0  0  0  0  0  0  0  0  0  0  0  0
    7.2538    0.7160    6.7746 C   0  0  0  0  0  0  0  0  0  0  0  0
    7.4704    0.0421    5.4280 C   0  0  0  0  0  0  0  0  0  0  0  0
    3.2552    1.6328    9.6848 C   0  0  0  0  0  0  0  0  0  0  0  0
    3.8581    2.3003   10.6996 F   0  0  0  0  0  0  0  0  0  0  0  0
    0.1742    0.2317    8.5114 C   0  0  0  0  0  0  0  0  0  0  0  0
   -0.5020    0.8274    9.9501 S   0  0  0  0  0  0  0  0  0  0  0  0
   -0.4759   -0.5657    7.4586 C   0  0  0  0  0  0  0  0  0  0  0  0
   -1.6666   -1.1443    7.6374 C   0  0  0  0  0  0  0  0  0  0  0  0
   -2.2733   -2.0100    6.6061 C   0  0  0  0  0  0  0  0  0  0  0  0
   -1.9072   -1.9905    4.9621 S   0  0  0  0  0  0  0  0  0  0  0  0
   -2.9220   -3.2496    4.4860 C   0  0  0  0  0  0  0  0  0  0  0  0
   -3.5865   -3.7035    5.6343 C   0  0  0  0  0  0  0  0  0  0  0  0
   -3.2296   -3.0074    6.8085 C   0  0  0  0  0  0  0  0  0  0  0  0
   -3.7954   -3.3594    8.0420 C   0  0  0  0  0  0  0  0  0  0  0  0
   -4.7287   -4.4024    8.1091 C   0  0  0  0  0  0  0  0  0  0  0  0
   -5.2895   -4.7089    9.3581 O   0  0  0  0  0  0  0  0  0  0  0  0
   -6.2933   -5.6983    9.5667 C   0  0  0  0  0  0  0  0  0  0  0  0
   -5.0680   -5.1099    6.9335 C   0  0  0  0  0  0  0  0  0  0  0  0
   -4.4930   -4.7697    5.7029 C   0  0  0  0  0  0  0  0  0  0  0  0
   -3.1144   -3.6952    3.0879 C   0  0  0  0  0  0  0  0  0  0  0  0
   -2.1673   -3.7788    2.0625 C   0  0  0  0  0  0  0  0  0  0  0  0
   -2.6831   -4.2150    0.8544 C   0  0  0  0  0  0  0  0  0  0  0  0
   -1.4529   -4.3928   -0.2757 S   0  0  0  0  0  0  0  0  0  0  0  0
   -0.2319   -3.8574    0.7770 C   0  0  0  0  0  0  0  0  0  0  0  0
    1.1740   -3.6789    0.3952 C   0  0  0  0  0  0  0  0  0  0  0  0
    1.5604   -4.0423   -0.7488 O   0  0  0  0  0  0  0  0  0  0  0  0
    2.0658   -3.0726    1.2874 O   0  0  0  0  0  0  0  0  0  0  0  0
    3.4350   -2.8211    0.9801 C   0  0  0  0  0  0  0  0  0  0  0  0
    4.2553   -4.0987    1.1036 C   0  0  0  0  0  0  0  0  0  0  0  0
   -0.7813   -3.5747    2.0334 C   0  0  0  0  0  0  0  0  0  0  0  0
   -0.0364   -3.2065    3.1025 F   0  0  0  0  0  0  0  0  0  0  0  0
   -4.0486   -4.4636    0.8250 C   0  0  0  0  0  0  0  0  0  0  0  0
   -4.5913   -4.1689    2.3956 S   0  0  0  0  0  0  0  0  0  0  0  0
   -4.8565   -5.0695   -0.2473 C   0  0  0  0  0  0  0  0  0  0  0  0
   -4.7927   -4.7487   -1.5458 C   0  0  0  0  0  0  0  0  0  0  0  0
   -4.0583   -3.5981   -2.1050 C   0  0  0  0  0  0  0  0  0  0  0  0
   -3.5184   -3.5050   -3.3816 C   0  0  0  0  0  0  0  0  0  0  0  0
   -2.9618   -2.2738   -3.6791 C   0  0  0  0  0  0  0  0  0  0  0  0
   -2.3541   -2.3032   -5.2466 S   0  0  0  0  0  0  0  0  0  0  0  0
   -2.7955   -3.9153   -5.5481 C   0  0  0  0  0  0  0  0  0  0  0  0
   -2.5448   -4.6175   -6.8128 C   0  0  0  0  0  0  0  0  0  0  0  0
   -2.8940   -5.8222   -6.9483 O   0  0  0  0  0  0  0  0  0  0  0  0
   -1.9195   -3.9362   -7.8617 O   0  0  0  0  0  0  0  0  0  0  0  0
   -1.6549   -4.5395   -9.1236 C   0  0  0  0  0  0  0  0  0  0  0  0
   -0.9838   -3.5270  -10.0390 C   0  0  0  0  0  0  0  0  0  0  0  0
   -3.4305   -4.4420   -4.4173 C   0  0  0  0  0  0  0  0  0  0  0  0
   -3.8968   -5.7131   -4.3324 F   0  0  0  0  0  0  0  0  0  0  0  0
   -3.0366   -1.3126   -2.6714 C   0  0  0  0  0  0  0  0  0  0  0  0
   -3.8545   -2.0682   -1.3967 S   0  0  0  0  0  0  0  0  0  0  0  0
   -2.5681    0.0871   -2.6346 C   0  0  0  0  0  0  0  0  0  0  0  0
   -1.8909    0.6741   -3.6244 C   0  0  0  0  0  0  0  0  0  0  0  0
   -1.4301    2.0705   -3.5590 C   0  0  0  0  0  0  0  0  0  0  0  0
   -2.0615    3.2005   -3.0325 C   0  0  0  0  0  0  0  0  0  0  0  0
   -1.3375    4.3662   -3.1919 C   0  0  0  0  0  0  0  0  0  0  0  0
   -2.1759    5.6777   -2.5680 S   0  0  0  0  0  0  0  0  0  0  0  0
   -3.5154    4.7472   -2.0885 C   0  0  0  0  0  0  0  0  0  0  0  0
   -4.7107    5.2927   -1.4350 C   0  0  0  0  0  0  0  0  0  0  0  0
   -4.8108    6.5366   -1.2577 O   0  0  0  0  0  0  0  0  0  0  0  0
   -5.7216    4.4281   -0.9998 O   0  0  0  0  0  0  0  0  0  0  0  0
   -6.9278    4.8789   -0.3873 C   0  0  0  0  0  0  0  0  0  0  0  0
   -7.8830    5.4431   -1.4320 C   0  0  0  0  0  0  0  0  0  0  0  0
   -3.3107    3.4036   -2.4316 C   0  0  0  0  0  0  0  0  0  0  0  0
   -4.2529    2.4422   -2.2721 F   0  0  0  0  0  0  0  0  0  0  0  0
   -0.1409    4.2597   -3.8763 C   0  0  0  0  0  0  0  0  0  0  0  0
    0.0246    2.6114   -4.2379 S   0  0  0  0  0  0  0  0  0  0  0  0
    0.8165    5.3536   -4.1311 C   0  0  0  0  0  0  0  0  0  0  0  0
    1.6946    5.3878   -5.1406 C   0  0  0  0  0  0  0  0  0  0  0  0
    1.7043    4.4434   -6.2688 C   0  0  0  0  0  0  0  0  0  0  0  0
    2.8102    3.7967   -6.7958 C   0  0  0  0  0  0  0  0  0  0  0  0
    2.5406    3.0109   -7.8995 C   0  0  0  0  0  0  0  0  0  0  0  0
    3.9622    2.2837   -8.4302 S   0  0  0  0  0  0  0  0  0  0  0  0
    4.9335    2.9727   -7.2146 C   0  0  0  0  0  0  0  0  0  0  0  0
    6.3687    2.7167   -7.0386 C   0  0  0  0  0  0  0  0  0  0  0  0
    6.9693    1.9405   -7.8318 O   0  0  0  0  0  0  0  0  0  0  0  0
    7.0566    3.3345   -5.9865 O   0  0  0  0  0  0  0  0  0  0  0  0
    8.4065    3.0333   -5.6420 C   0  0  0  0  0  0  0  0  0  0  0  0
    8.4963    1.6705   -4.9623 C   0  0  0  0  0  0  0  0  0  0  0  0
    4.1459    3.7868   -6.3937 C   0  0  0  0  0  0  0  0  0  0  0  0
    4.6174    4.4716   -5.3220 F   0  0  0  0  0  0  0  0  0  0  0  0
    1.2151    3.0091   -8.3314 C   0  0  0  0  0  0  0  0  0  0  0  0
    0.3939    4.0474   -7.2733 S   0  0  0  0  0  0  0  0  0  0  0  0
    0.5794    2.3051   -9.4616 C   0  0  0  0  0  0  0  0  0  0  0  0
    1.1336    1.2791  -10.1032 C   0  0  0  0  0  0  0  0  0  0  0  0
    0.9855    2.0747   11.5334 H   0  0  0  0  0  0  0  0  0  0  0  0
    7.6220    1.7624    6.7248 H   0  0  0  0  0  0  0  0  0  0  0  0
    7.8219    0.1648    7.5552 H   0  0  0  0  0  0  0  0  0  0  0  0
    8.5550    0.0166    5.1910 H   0  0  0  0  0  0  0  0  0  0  0  0
    6.9393    0.6066    4.6325 H   0  0  0  0  0  0  0  0  0  0  0  0
    7.0826   -0.9980    5.4575 H   0  0  0  0  0  0  0  0  0  0  0  0
    0.0720   -0.7289    6.5382 H   0  0  0  0  0  0  0  0  0  0  0  0
   -2.1784   -1.0308    8.5836 H   0  0  0  0  0  0  0  0  0  0  0  0
   -3.5236   -2.8382    8.9505 H   0  0  0  0  0  0  0  0  0  0  0  0
   -5.9044   -6.7033    9.2912 H   0  0  0  0  0  0  0  0  0  0  0  0
   -6.5747   -5.7083   10.6397 H   0  0  0  0  0  0  0  0  0  0  0  0
   -7.1962   -5.4595    8.9644 H   0  0  0  0  0  0  0  0  0  0  0  0
   -5.7699   -5.9312    6.9637 H   0  0  0  0  0  0  0  0  0  0  0  0
   -4.7447   -5.3574    4.8332 H   0  0  0  0  0  0  0  0  0  0  0  0
    3.8289   -2.0744    1.7017 H   0  0  0  0  0  0  0  0  0  0  0  0
    3.5323   -2.3967   -0.0428 H   0  0  0  0  0  0  0  0  0  0  0  0
    3.8965   -4.8627    0.3845 H   0  0  0  0  0  0  0  0  0  0  0  0
    5.3227   -3.8783    0.8886 H   0  0  0  0  0  0  0  0  0  0  0  0
    4.1713   -4.5014    2.1351 H   0  0  0  0  0  0  0  0  0  0  0  0
   -5.5489   -5.8490    0.0457 H   0  0  0  0  0  0  0  0  0  0  0  0
   -5.3674   -5.3506   -2.2378 H   0  0  0  0  0  0  0  0  0  0  0  0
   -2.6079   -4.8759   -9.5867 H   0  0  0  0  0  0  0  0  0  0  0  0
   -0.9832   -5.4153   -8.9892 H   0  0  0  0  0  0  0  0  0  0  0  0
   -0.0200   -3.1957   -9.5975 H   0  0  0  0  0  0  0  0  0  0  0  0
   -0.7881   -3.9876  -11.0292 H   0  0  0  0  0  0  0  0  0  0  0  0
   -1.6446   -2.6441  -10.1765 H   0  0  0  0  0  0  0  0  0  0  0  0
   -2.7600    0.6391   -1.7259 H   0  0  0  0  0  0  0  0  0  0  0  0
   -1.5717    0.1095   -4.4825 H   0  0  0  0  0  0  0  0  0  0  0  0
   -6.7057    5.6447    0.3868 H   0  0  0  0  0  0  0  0  0  0  0  0
   -7.4158    4.0159    0.1136 H   0  0  0  0  0  0  0  0  0  0  0  0
   -7.4266    6.3132   -1.9478 H   0  0  0  0  0  0  0  0  0  0  0  0
   -8.1251    4.6617   -2.1838 H   0  0  0  0  0  0  0  0  0  0  0  0
   -8.8219    5.7728   -0.9386 H   0  0  0  0  0  0  0  0  0  0  0  0
    0.8320    6.1713   -3.4213 H   0  0  0  0  0  0  0  0  0  0  0  0
    2.4349    6.1779   -5.1484 H   0  0  0  0  0  0  0  0  0  0  0  0
    8.7670    3.8093   -4.9328 H   0  0  0  0  0  0  0  0  0  0  0  0
    9.0543    3.0614   -6.5460 H   0  0  0  0  0  0  0  0  0  0  0  0
    7.7448    1.6039   -4.1488 H   0  0  0  0  0  0  0  0  0  0  0  0
    9.5088    1.5313   -4.5303 H   0  0  0  0  0  0  0  0  0  0  0  0
    8.3033    0.8618   -5.6994 H   0  0  0  0  0  0  0  0  0  0  0  0
   -0.4151    2.6166   -9.7567 H   0  0  0  0  0  0  0  0  0  0  0  0
    0.5969    0.7991  -10.9110 H   0  0  0  0  0  0  0  0  0  0  0  0
    2.0952    0.8782   -9.8256 H   0  0  0  0  0  0  0  0  0  0  0  0
  1  2  2  0
  2  3  1  0
  3  4  1  0
  4  5  1  0
  5  6  1  0
  6  7  2  0
  6  8  1  0
  8  9  1  0
  9 10  1  0
  5 11  2  0
 11 12  1  0
  3 13  2  0
 13 14  1  0
 13 15  1  0
 15 16  2  3
 16 17  1  0
 17 18  1  0
 18 19  1  0
 19 20  2  0
 20 21  1  0
 21 22  1  0
 22 23  2  0
 23 24  1  0
 24 25  1  0
 23 26  1  0
 26 27  2  0
 19 28  1  0
 28 29  2  0
 29 30  1  0
 30 31  1  0
 31 32  1  0
 32 33  1  0
 33 34  2  0
 33 35  1  0
 35 36  1  0
 36 37  1  0
 32 38  2  0
 38 39  1  0
 30 40  2  0
 40 41  1  0
 40 42  1  0
 42 43  2  3
 43 44  1  0
 44 45  2  0
 45 46  1  0
 46 47  1  0
 47 48  1  0
 48 49  1  0
 49 50  2  0
 49 51  1  0
 51 52  1  0
 52 53  1  0
 48 54  2  0
 54 55  1  0
 46 56  2  0
 56 57  1  0
 56 58  1  0
 58 59  2  3
 59 60  1  0
 60 61  2  0
 61 62  1  0
 62 63  1  0
 63 64  1  0
 64 65  1  0
 65 66  2  0
 65 67  1  0
 67 68  1  0
 68 69  1  0
 64 70  2  0
 70 71  1  0
 62 72  2  0
 72 73  1  0
 72 74  1  0
 74 75  2  3
 75 76  1  0
 76 77  2  0
 77 78  1  0
 78 79  1  0
 79 80  1  0
 80 81  1  0
 81 82  2  0
 81 83  1  0
 83 84  1  0
 84 85  1  0
 80 86  2  0
 86 87  1  0
 78 88  2  0
 88 89  1  0
 88 90  1  0
 90 91  2  3
 14  1  1  0
 21 17  2  0
 41 28  1  0
 57 44  1  0
 73 60  1  0
 89 76  1  0
 11  2  1  0
 27 20  1  0
 38 29  1  0
 54 45  1  0
 70 61  1  0
 86 77  1  0
  1 92  1  0
  9 93  1  0
  9 94  1  0
 10 95  1  0
 10 96  1  0
 10 97  1  0
 15 98  1  0
 16 99  1  0
 22100  1  0
 25101  1  0
 25102  1  0
 25103  1  0
 26104  1  0
 27105  1  0
 36106  1  0
 36107  1  0
 37108  1  0
 37109  1  0
 37110  1  0
 42111  1  0
 43112  1  0
 52113  1  0
 52114  1  0
 53115  1  0
 53116  1  0
 53117  1  0
 58118  1  0
 59119  1  0
 68120  1  0
 68121  1  0
 69122  1  0
 69123  1  0
 69124  1  0
 74125  1  0
 75126  1  0
 84127  1  0
 84128  1  0
 85129  1  0
 85130  1  0
 85131  1  0
 90132  1  0
 91133  1  0
 91134  1  0
M  END

