
     RDKit          3D

129143  0  0  0  0  0  0  0  0999 V2000
    6.6648   -2.5598   10.0137 C   0  0  0  0  0  0  0  0  0  0  0  0
    5.0495   -2.0901    9.9771 S   0  0  0  0  0  0  0  0  0  0  0  0
    4.9858   -1.6097    8.3596 C   0  0  0  0  0  0  0  0  0  0  0  0
    6.2571   -1.8371    7.8149 C   0  0  0  0  0  0  0  0  0  0  0  0
    7.1772   -2.3670    8.7394 C   0  0  0  0  0  0  0  0  0  0  0  0
    8.4811   -2.6858    8.3517 C   0  0  0  0  0  0  0  0  0  0  0  0
    8.8783   -2.4799    7.0210 C   0  0  0  0  0  0  0  0  0  0  0  0
   10.1797   -2.8512    6.6563 O   0  0  0  0  0  0  0  0  0  0  0  0
   10.6675   -2.8657    5.3146 C   0  0  0  0  0  0  0  0  0  0  0  0
    7.9672   -1.9128    6.1024 C   0  0  0  0  0  0  0  0  0  0  0  0
    6.6638   -1.5833    6.4983 C   0  0  0  0  0  0  0  0  0  0  0  0
    3.7470   -1.2423    7.6382 C   0  0  0  0  0  0  0  0  0  0  0  0
    3.3604   -1.7744    6.0916 S   0  0  0  0  0  0  0  0  0  0  0  0
    1.8003   -1.1506    5.9941 C   0  0  0  0  0  0  0  0  0  0  0  0
    1.5357   -0.5184    7.2247 C   0  0  0  0  0  0  0  0  0  0  0  0
    2.6265   -0.5605    8.1278 C   0  0  0  0  0  0  0  0  0  0  0  0
    2.5401    0.0831    9.3709 C   0  0  0  0  0  0  0  0  0  0  0  0
    1.3524    0.7267    9.7458 C   0  0  0  0  0  0  0  0  0  0  0  0
    1.3117    1.3670   10.9919 O   0  0  0  0  0  0  0  0  0  0  0  0
    0.1658    2.0509   11.5052 C   0  0  0  0  0  0  0  0  0  0  0  0
    0.2475    0.7119    8.8713 C   0  0  0  0  0  0  0  0  0  0  0  0
    0.3390    0.1028    7.6151 C   0  0  0  0  0  0  0  0  0  0  0  0
    0.9897   -1.2282    4.7550 C   0  0  0  0  0  0  0  0  0  0  0  0
    1.4386   -1.7905    3.5551 C   0  0  0  0  0  0  0  0  0  0  0  0
    0.5204   -1.6708    2.5002 C   0  0  0  0  0  0  0  0  0  0  0  0
    0.6994   -2.1301    1.1805 C   0  0  0  0  0  0  0  0  0  0  0  0
    1.9636   -2.7415    0.7351 C   0  0  0  0  0  0  0  0  0  0  0  0
    3.4491   -1.9533    0.7104 S   0  0  0  0  0  0  0  0  0  0  0  0
    4.3307   -3.2497    0.1035 C   0  0  0  0  0  0  0  0  0  0  0  0
    5.7955   -3.2088   -0.2094 C   0  0  0  0  0  0  0  0  0  0  0  0
    6.0264   -2.8823   -1.6810 C   0  0  0  0  0  0  0  0  0  0  0  0
    3.4636   -4.3201   -0.1068 C   0  0  0  0  0  0  0  0  0  0  0  0
    3.9788   -5.8711   -0.7540 Cl  0  0  0  0  0  0  0  0  0  0  0  0
    2.1355   -4.0373    0.2549 C   0  0  0  0  0  0  0  0  0  0  0  0
    0.8333   -5.2167    0.1555 Cl  0  0  0  0  0  0  0  0  0  0  0  0
   -0.3590   -1.9105    0.2822 C   0  0  0  0  0  0  0  0  0  0  0  0
   -1.5391   -1.2592    0.6581 C   0  0  0  0  0  0  0  0  0  0  0  0
   -1.7226   -0.8091    1.9798 C   0  0  0  0  0  0  0  0  0  0  0  0
   -2.9609   -0.1294    2.4043 C   0  0  0  0  0  0  0  0  0  0  0  0
   -3.0435    1.4548    2.9631 S   0  0  0  0  0  0  0  0  0  0  0  0
   -4.7170    1.4991    3.1361 C   0  0  0  0  0  0  0  0  0  0  0  0
   -5.4912    2.6703    3.6610 C   0  0  0  0  0  0  0  0  0  0  0  0
   -5.7295    2.5306    5.1609 C   0  0  0  0  0  0  0  0  0  0  0  0
   -5.2357    0.2587    2.7745 C   0  0  0  0  0  0  0  0  0  0  0  0
   -4.2521   -0.6542    2.3591 C   0  0  0  0  0  0  0  0  0  0  0  0
   -4.6129   -2.3057    1.8732 Cl  0  0  0  0  0  0  0  0  0  0  0  0
   -6.9488   -0.1333    2.8332 Cl  0  0  0  0  0  0  0  0  0  0  0  0
   -0.6610   -1.0247    2.8733 C   0  0  0  0  0  0  0  0  0  0  0  0
   -0.5575   -0.5978    4.4925 S   0  0  0  0  0  0  0  0  0  0  0  0
   -2.4208   -1.0561   -0.4110 C   0  0  0  0  0  0  0  0  0  0  0  0
   -1.9516   -1.5797   -1.6120 C   0  0  0  0  0  0  0  0  0  0  0  0
   -0.4143   -2.2360   -1.3698 S   0  0  0  0  0  0  0  0  0  0  0  0
   -2.5895   -1.4019   -2.9251 C   0  0  0  0  0  0  0  0  0  0  0  0
   -1.7376   -1.0518   -4.3322 S   0  0  0  0  0  0  0  0  0  0  0  0
   -3.0659   -0.7291   -5.3118 C   0  0  0  0  0  0  0  0  0  0  0  0
   -4.2183   -0.8550   -4.5257 C   0  0  0  0  0  0  0  0  0  0  0  0
   -3.9537   -1.2669   -3.2057 C   0  0  0  0  0  0  0  0  0  0  0  0
   -5.0106   -1.5003   -2.3146 C   0  0  0  0  0  0  0  0  0  0  0  0
   -6.3294   -1.2414   -2.7132 C   0  0  0  0  0  0  0  0  0  0  0  0
   -7.3562   -1.4743   -1.7869 O   0  0  0  0  0  0  0  0  0  0  0  0
   -8.7406   -1.2646   -2.0462 C   0  0  0  0  0  0  0  0  0  0  0  0
   -6.5808   -0.7553   -4.0150 C   0  0  0  0  0  0  0  0  0  0  0  0
   -5.5285   -0.5568   -4.9181 C   0  0  0  0  0  0  0  0  0  0  0  0
   -2.9543   -0.2633   -6.7038 C   0  0  0  0  0  0  0  0  0  0  0  0
   -1.8350    0.8763   -7.2207 S   0  0  0  0  0  0  0  0  0  0  0  0
   -2.2742    0.9034   -8.8494 C   0  0  0  0  0  0  0  0  0  0  0  0
   -3.3036   -0.0357   -9.0153 C   0  0  0  0  0  0  0  0  0  0  0  0
   -3.6645   -0.6984   -7.8226 C   0  0  0  0  0  0  0  0  0  0  0  0
   -4.6076   -1.7336   -7.8432 C   0  0  0  0  0  0  0  0  0  0  0  0
   -5.2584   -2.0573   -9.0501 C   0  0  0  0  0  0  0  0  0  0  0  0
   -6.2322   -3.0640   -9.1274 O   0  0  0  0  0  0  0  0  0  0  0  0
   -6.6583   -3.8565   -8.0211 C   0  0  0  0  0  0  0  0  0  0  0  0
   -4.9393   -1.3521  -10.2204 C   0  0  0  0  0  0  0  0  0  0  0  0
   -3.9652   -0.3428  -10.2113 C   0  0  0  0  0  0  0  0  0  0  0  0
   -1.5413    1.6500   -9.8977 C   0  0  0  0  0  0  0  0  0  0  0  0
   -1.1598    1.0401  -11.4269 S   0  0  0  0  0  0  0  0  0  0  0  0
   -0.2018    2.3167  -11.9498 C   0  0  0  0  0  0  0  0  0  0  0  0
   -0.1484    3.2427  -10.9170 C   0  0  0  0  0  0  0  0  0  0  0  0
   -0.8901    2.8851   -9.7757 C   0  0  0  0  0  0  0  0  0  0  0  0
   -0.9262    3.7476   -8.6695 C   0  0  0  0  0  0  0  0  0  0  0  0
   -0.1939    4.9454   -8.6917 C   0  0  0  0  0  0  0  0  0  0  0  0
   -0.2256    5.7648   -7.5511 O   0  0  0  0  0  0  0  0  0  0  0  0
    0.4745    6.9959   -7.4252 C   0  0  0  0  0  0  0  0  0  0  0  0
    0.5530    5.2853   -9.8441 C   0  0  0  0  0  0  0  0  0  0  0  0
    0.5701    4.4379  -10.9579 C   0  0  0  0  0  0  0  0  0  0  0  0
    7.1942   -2.9625   10.8677 H   0  0  0  0  0  0  0  0  0  0  0  0
    9.1777   -3.1094    9.0667 H   0  0  0  0  0  0  0  0  0  0  0  0
   10.0246   -3.5174    4.6821 H   0  0  0  0  0  0  0  0  0  0  0  0
   10.6881   -1.8342    4.9035 H   0  0  0  0  0  0  0  0  0  0  0  0
   11.6986   -3.2729    5.3068 H   0  0  0  0  0  0  0  0  0  0  0  0
    8.2579   -1.7246    5.0771 H   0  0  0  0  0  0  0  0  0  0  0  0
    5.9973   -1.1307    5.7776 H   0  0  0  0  0  0  0  0  0  0  0  0
    3.3854    0.1148   10.0433 H   0  0  0  0  0  0  0  0  0  0  0  0
   -0.1271    2.8773   10.8193 H   0  0  0  0  0  0  0  0  0  0  0  0
   -0.6806    1.3402   11.6280 H   0  0  0  0  0  0  0  0  0  0  0  0
    0.4153    2.4856   12.4934 H   0  0  0  0  0  0  0  0  0  0  0  0
   -0.6878    1.1804    9.1491 H   0  0  0  0  0  0  0  0  0  0  0  0
   -0.5348    0.1204    6.9882 H   0  0  0  0  0  0  0  0  0  0  0  0
    2.4029   -2.2664    3.4474 H   0  0  0  0  0  0  0  0  0  0  0  0
    6.2589   -4.1884    0.0349 H   0  0  0  0  0  0  0  0  0  0  0  0
    6.2905   -2.4345    0.4202 H   0  0  0  0  0  0  0  0  0  0  0  0
    5.5684   -1.9023   -1.9383 H   0  0  0  0  0  0  0  0  0  0  0  0
    7.1168   -2.8252   -1.8838 H   0  0  0  0  0  0  0  0  0  0  0  0
    5.5850   -3.6746   -2.3252 H   0  0  0  0  0  0  0  0  0  0  0  0
   -6.4670    2.7474    3.1329 H   0  0  0  0  0  0  0  0  0  0  0  0
   -4.9219    3.6049    3.4624 H   0  0  0  0  0  0  0  0  0  0  0  0
   -6.3127    3.4021    5.5254 H   0  0  0  0  0  0  0  0  0  0  0  0
   -6.3051    1.6054    5.3773 H   0  0  0  0  0  0  0  0  0  0  0  0
   -4.7590    2.4954    5.7015 H   0  0  0  0  0  0  0  0  0  0  0  0
   -3.3319   -0.4828   -0.3261 H   0  0  0  0  0  0  0  0  0  0  0  0
   -4.8306   -1.8960   -1.3264 H   0  0  0  0  0  0  0  0  0  0  0  0
   -9.3233   -1.5223   -1.1364 H   0  0  0  0  0  0  0  0  0  0  0  0
   -8.9267   -0.1969   -2.2961 H   0  0  0  0  0  0  0  0  0  0  0  0
   -9.0746   -1.9198   -2.8805 H   0  0  0  0  0  0  0  0  0  0  0  0
   -7.5849   -0.5228   -4.3375 H   0  0  0  0  0  0  0  0  0  0  0  0
   -5.7403   -0.1637   -5.9027 H   0  0  0  0  0  0  0  0  0  0  0  0
   -4.8254   -2.2847   -6.9382 H   0  0  0  0  0  0  0  0  0  0  0  0
   -7.4331   -4.5700   -8.3642 H   0  0  0  0  0  0  0  0  0  0  0  0
   -5.8005   -4.4293   -7.6069 H   0  0  0  0  0  0  0  0  0  0  0  0
   -7.0980   -3.2070   -7.2320 H   0  0  0  0  0  0  0  0  0  0  0  0
   -5.4458   -1.5905  -11.1485 H   0  0  0  0  0  0  0  0  0  0  0  0
   -3.7515    0.1897  -11.1267 H   0  0  0  0  0  0  0  0  0  0  0  0
    0.2937    2.3945  -12.9109 H   0  0  0  0  0  0  0  0  0  0  0  0
   -1.5218    3.5156   -7.7992 H   0  0  0  0  0  0  0  0  0  0  0  0
    0.1081    7.7242   -8.1783 H   0  0  0  0  0  0  0  0  0  0  0  0
    1.5656    6.8274   -7.5522 H   0  0  0  0  0  0  0  0  0  0  0  0
    0.3009    7.4122   -6.4103 H   0  0  0  0  0  0  0  0  0  0  0  0
    1.1251    6.2030   -9.8860 H   0  0  0  0  0  0  0  0  0  0  0  0
    1.1447    4.7088  -11.8358 H   0  0  0  0  0  0  0  0  0  0  0  0
  1  2  1  0
  2  3  1  0
  3  4  2  0
  4  5  1  0
  5  6  1  0
  6  7  2  0
  7  8  1  0
  8  9  1  0
  7 10  1  0
 10 11  2  0
  3 12  1  0
 12 13  1  0
 13 14  1  0
 14 15  2  0
 15 16  1  0
 16 17  1  0
 17 18  2  0
 18 19  1  0
 19 20  1  0
 18 21  1  0
 21 22  2  0
 14 23  1  0
 23 24  2  0
 24 25  1  0
 25 26  2  0
 26 27  1  0
 27 28  1  0
 28 29  1  0
 29 30  1  0
 30 31  1  0
 29 32  2  0
 32 33  1  0
 32 34  1  0
 34 35  1  0
 26 36  1  0
 36 37  2  0
 37 38  1  0
 38 39  1  0
 39 40  1  0
 40 41  1  0
 41 42  1  0
 42 43  1  0
 41 44  2  0
 44 45  1  0
 45 46  1  0
 44 47  1  0
 38 48  2  0
 48 49  1  0
 37 50  1  0
 50 51  2  0
 51 52  1  0
 51 53  1  0
 53 54  1  0
 54 55  1  0
 55 56  2  0
 56 57  1  0
 57 58  1  0
 58 59  2  0
 59 60  1  0
 60 61  1  0
 59 62  1  0
 62 63  2  0
 55 64  1  0
 64 65  1  0
 65 66  1  0
 66 67  2  0
 67 68  1  0
 68 69  1  0
 69 70  2  0
 70 71  1  0
 71 72  1  0
 70 73  1  0
 73 74  2  0
 66 75  1  0
 75 76  1  0
 76 77  1  0
 77 78  2  0
 78 79  1  0
 79 80  1  0
 80 81  2  0
 81 82  1  0
 82 83  1  0
 81 84  1  0
 84 85  2  0
  5  1  2  0
 16 12  2  0
 49 23  1  0
 57 53  2  0
 68 64  2  0
 79 75  2  0
 11  4  1  0
 22 15  1  0
 48 25  1  0
 63 56  1  0
 74 67  1  0
 85 78  1  0
 34 27  2  0
 52 36  1  0
 45 39  2  0
  1 86  1  0
  6 87  1  0
  9 88  1  0
  9 89  1  0
  9 90  1  0
 10 91  1  0
 11 92  1  0
 17 93  1  0
 20 94  1  0
 20 95  1  0
 20 96  1  0
 21 97  1  0
 22 98  1  0
 24 99  1  0
 30100  1  0
 30101  1  0
 31102  1  0
 31103  1  0
 31104  1  0
 42105  1  0
 42106  1  0
 43107  1  0
 43108  1  0
 43109  1  0
 50110  1  0
 58111  1  0
 61112  1  0
 61113  1  0
 61114  1  0
 62115  1  0
 63116  1  0
 69117  1  0
 72118  1  0
 72119  1  0
 72120  1  0
 73121  1  0
 74122  1  0
 77123  1  0
 80124  1  0
 83125  1  0
 83126  1  0
 83127  1  0
 84128  1  0
 85129  1  0
M  END

