
     RDKit          3D

200223  0  0  0  0  0  0  0  0999 V2000
    8.8541   -6.9639    5.6017 C   0  0  0  0  0  0  0  0  0  0  0  0
    9.0941   -5.7280    4.9899 C   0  0  0  0  0  0  0  0  0  0  0  0
    8.0001   -4.8226    5.1970 C   0  0  0  0  0  0  0  0  0  0  0  0
    7.9580   -3.4866    4.7425 C   0  0  0  0  0  0  0  0  0  0  0  0
    8.9734   -2.8015    3.9197 C   0  0  0  0  0  0  0  0  0  0  0  0
    9.4580   -1.1947    4.1287 S   0  0  0  0  0  0  0  0  0  0  0  0
   10.2503   -1.0114    2.6464 C   0  0  0  0  0  0  0  0  0  0  0  0
   10.8051    0.2575    2.0780 C   0  0  0  0  0  0  0  0  0  0  0  0
    9.7738    0.9452    1.1702 C   0  0  0  0  0  0  0  0  0  0  0  0
   10.1161   -2.2002    1.9230 C   0  0  0  0  0  0  0  0  0  0  0  0
   10.6927   -2.4237    0.2896 Cl  0  0  0  0  0  0  0  0  0  0  0  0
    9.4324   -3.2423    2.6332 C   0  0  0  0  0  0  0  0  0  0  0  0
    8.9769   -4.7433    1.8974 Cl  0  0  0  0  0  0  0  0  0  0  0  0
    6.8210   -2.7134    5.1134 C   0  0  0  0  0  0  0  0  0  0  0  0
    5.7788   -3.2223    5.8686 C   0  0  0  0  0  0  0  0  0  0  0  0
    5.8383   -4.5701    6.3048 C   0  0  0  0  0  0  0  0  0  0  0  0
    4.8163   -5.1212    7.1631 C   0  0  0  0  0  0  0  0  0  0  0  0
    3.2401   -5.4065    6.7733 S   0  0  0  0  0  0  0  0  0  0  0  0
    2.8387   -6.2466    8.1627 C   0  0  0  0  0  0  0  0  0  0  0  0
    1.4790   -6.8399    8.4600 C   0  0  0  0  0  0  0  0  0  0  0  0
    0.8518   -6.2675    9.7460 C   0  0  0  0  0  0  0  0  0  0  0  0
    3.9942   -6.3856    8.9448 C   0  0  0  0  0  0  0  0  0  0  0  0
    5.1244   -5.7643    8.3830 C   0  0  0  0  0  0  0  0  0  0  0  0
    6.7124   -5.6579    9.1034 Cl  0  0  0  0  0  0  0  0  0  0  0  0
    4.0508   -7.2022   10.4746 Cl  0  0  0  0  0  0  0  0  0  0  0  0
    6.9598   -5.3448    5.9497 C   0  0  0  0  0  0  0  0  0  0  0  0
    7.3787   -6.9334    6.3674 S   0  0  0  0  0  0  0  0  0  0  0  0
    4.7679   -2.3033    6.1961 C   0  0  0  0  0  0  0  0  0  0  0  0
    5.0418   -1.0204    5.6598 C   0  0  0  0  0  0  0  0  0  0  0  0
    6.4651   -1.0893    4.8162 S   0  0  0  0  0  0  0  0  0  0  0  0
    4.2588    0.2251    5.8890 C   0  0  0  0  0  0  0  0  0  0  0  0
    4.5071    1.7047    5.0349 S   0  0  0  0  0  0  0  0  0  0  0  0
    3.4318    2.6700    5.9067 C   0  0  0  0  0  0  0  0  0  0  0  0
    2.9164    1.8520    6.9256 C   0  0  0  0  0  0  0  0  0  0  0  0
    3.3418    0.5504    6.9135 C   0  0  0  0  0  0  0  0  0  0  0  0
    2.8215   -0.1133    7.9766 N   0  0  0  0  0  0  0  0  0  0  0  0
    2.0906    0.8265    8.6358 C   0  0  0  0  0  0  0  0  0  0  0  0
    1.2755    0.5562   10.0259 S   0  0  0  0  0  0  0  0  0  0  0  0
    2.1432    2.0619    7.9835 N   0  0  0  0  0  0  0  0  0  0  0  0
    3.2363    4.1275    5.9060 C   0  0  0  0  0  0  0  0  0  0  0  0
    3.1569    4.9831    4.8323 C   0  0  0  0  0  0  0  0  0  0  0  0
    3.1627    4.7428    3.3763 C   0  0  0  0  0  0  0  0  0  0  0  0
    2.9155    3.5529    2.7101 C   0  0  0  0  0  0  0  0  0  0  0  0
    2.8126    3.7644    1.2605 C   0  0  0  0  0  0  0  0  0  0  0  0
    2.5898    2.7208    0.3026 C   0  0  0  0  0  0  0  0  0  0  0  0
    2.4952    1.3116    0.7039 C   0  0  0  0  0  0  0  0  0  0  0  0
    3.3347    0.0361   -0.0596 S   0  0  0  0  0  0  0  0  0  0  0  0
    2.5250   -1.2013    0.7567 C   0  0  0  0  0  0  0  0  0  0  0  0
    2.7632   -2.6906    0.5535 C   0  0  0  0  0  0  0  0  0  0  0  0
    1.6829   -3.2793   -0.3864 C   0  0  0  0  0  0  0  0  0  0  0  0
    1.5693   -0.6639    1.5953 C   0  0  0  0  0  0  0  0  0  0  0  0
    0.5647   -1.5931    2.6765 Cl  0  0  0  0  0  0  0  0  0  0  0  0
    1.5535    0.7552    1.5872 C   0  0  0  0  0  0  0  0  0  0  0  0
    0.3731    1.6839    2.4566 Cl  0  0  0  0  0  0  0  0  0  0  0  0
    2.4320    3.0772   -1.0644 C   0  0  0  0  0  0  0  0  0  0  0  0
    2.4876    4.4109   -1.4472 C   0  0  0  0  0  0  0  0  0  0  0  0
    2.7208    5.4071   -0.4820 C   0  0  0  0  0  0  0  0  0  0  0  0
    2.7074    6.8232   -0.9421 C   0  0  0  0  0  0  0  0  0  0  0  0
    3.3584    7.3844   -2.3449 S   0  0  0  0  0  0  0  0  0  0  0  0
    2.7479    8.9520   -2.2655 C   0  0  0  0  0  0  0  0  0  0  0  0
    2.8932   10.0230   -3.3397 C   0  0  0  0  0  0  0  0  0  0  0  0
    3.9735   11.0706   -3.0158 C   0  0  0  0  0  0  0  0  0  0  0  0
    2.0532    9.0790   -1.0805 C   0  0  0  0  0  0  0  0  0  0  0  0
    2.0225    7.8593   -0.2981 C   0  0  0  0  0  0  0  0  0  0  0  0
    0.9454    7.6776    1.0510 Cl  0  0  0  0  0  0  0  0  0  0  0  0
    1.1625   10.5102   -0.6173 Cl  0  0  0  0  0  0  0  0  0  0  0  0
    2.9373    5.0637    0.8741 C   0  0  0  0  0  0  0  0  0  0  0  0
    3.2154    5.9942    2.2648 S   0  0  0  0  0  0  0  0  0  0  0  0
    2.1357    4.5893   -2.8149 C   0  0  0  0  0  0  0  0  0  0  0  0
    1.8507    3.3621   -3.4966 C   0  0  0  0  0  0  0  0  0  0  0  0
    1.9989    2.1005   -2.3979 S   0  0  0  0  0  0  0  0  0  0  0  0
    0.9636    3.2313   -4.7040 C   0  0  0  0  0  0  0  0  0  0  0  0
   -0.2631    3.8674   -4.7953 C   0  0  0  0  0  0  0  0  0  0  0  0
   -1.1079    3.3039   -5.8069 C   0  0  0  0  0  0  0  0  0  0  0  0
   -2.3652    3.7561   -6.0618 C   0  0  0  0  0  0  0  0  0  0  0  0
   -2.6555    5.2165   -6.1088 C   0  0  0  0  0  0  0  0  0  0  0  0
   -1.6574    6.4371   -5.5380 S   0  0  0  0  0  0  0  0  0  0  0  0
   -2.4982    7.7739   -6.0488 C   0  0  0  0  0  0  0  0  0  0  0  0
   -2.1250    9.2317   -5.7824 C   0  0  0  0  0  0  0  0  0  0  0  0
   -2.2499   10.0253   -7.0980 C   0  0  0  0  0  0  0  0  0  0  0  0
   -3.7224    7.2878   -6.5652 C   0  0  0  0  0  0  0  0  0  0  0  0
   -5.0716    8.3152   -6.9713 Cl  0  0  0  0  0  0  0  0  0  0  0  0
   -3.7852    5.8658   -6.6609 C   0  0  0  0  0  0  0  0  0  0  0  0
   -4.8876    5.2917   -7.9525 Cl  0  0  0  0  0  0  0  0  0  0  0  0
   -3.2576    2.8460   -6.6640 C   0  0  0  0  0  0  0  0  0  0  0  0
   -2.8265    1.7086   -7.3132 C   0  0  0  0  0  0  0  0  0  0  0  0
   -1.4691    1.3027   -7.1924 C   0  0  0  0  0  0  0  0  0  0  0  0
   -1.0173   -0.0146   -7.7295 C   0  0  0  0  0  0  0  0  0  0  0  0
   -1.6205   -0.8477   -9.0821 S   0  0  0  0  0  0  0  0  0  0  0  0
   -0.7437   -2.2532   -8.9545 C   0  0  0  0  0  0  0  0  0  0  0  0
   -0.8461   -3.4767   -9.8334 C   0  0  0  0  0  0  0  0  0  0  0  0
   -1.5105   -4.5863   -9.0239 C   0  0  0  0  0  0  0  0  0  0  0  0
    0.1009   -2.0991   -7.8553 C   0  0  0  0  0  0  0  0  0  0  0  0
    0.0174   -0.8306   -7.1864 C   0  0  0  0  0  0  0  0  0  0  0  0
    0.5889   -0.7473   -5.5551 Cl  0  0  0  0  0  0  0  0  0  0  0  0
    1.3466   -3.2920   -7.4257 Cl  0  0  0  0  0  0  0  0  0  0  0  0
   -0.5901    2.1720   -6.4163 C   0  0  0  0  0  0  0  0  0  0  0  0
    0.9904    2.1091   -5.8890 S   0  0  0  0  0  0  0  0  0  0  0  0
   -3.9611    0.9153   -7.7548 C   0  0  0  0  0  0  0  0  0  0  0  0
   -5.2509    1.4437   -7.3677 C   0  0  0  0  0  0  0  0  0  0  0  0
   -4.8703    2.6159   -6.2721 S   0  0  0  0  0  0  0  0  0  0  0  0
   -6.3304    0.4648   -7.0630 C   0  0  0  0  0  0  0  0  0  0  0  0
   -6.0687   -0.7661   -5.9914 S   0  0  0  0  0  0  0  0  0  0  0  0
   -7.6152   -0.9304   -5.2386 C   0  0  0  0  0  0  0  0  0  0  0  0
   -8.3380    0.1005   -5.9140 C   0  0  0  0  0  0  0  0  0  0  0  0
   -7.7168    0.7377   -6.9002 C   0  0  0  0  0  0  0  0  0  0  0  0
   -8.5035    1.7532   -7.3786 N   0  0  0  0  0  0  0  0  0  0  0  0
   -9.6368    1.6478   -6.6414 C   0  0  0  0  0  0  0  0  0  0  0  0
  -11.0168    2.6062   -6.8997 S   0  0  0  0  0  0  0  0  0  0  0  0
   -9.5569    0.6454   -5.7204 N   0  0  0  0  0  0  0  0  0  0  0  0
   -7.9880   -1.7167   -4.0445 C   0  0  0  0  0  0  0  0  0  0  0  0
   -6.9423   -2.4857   -3.5775 C   0  0  0  0  0  0  0  0  0  0  0  0
   -6.8786   -3.4329   -2.4465 C   0  0  0  0  0  0  0  0  0  0  0  0
   -7.6051   -3.4436   -1.2555 C   0  0  0  0  0  0  0  0  0  0  0  0
   -7.0979   -4.4593   -0.3412 C   0  0  0  0  0  0  0  0  0  0  0  0
   -7.5809   -4.6774    0.9510 C   0  0  0  0  0  0  0  0  0  0  0  0
   -8.3517   -3.6785    1.7500 C   0  0  0  0  0  0  0  0  0  0  0  0
   -9.4207   -4.0355    3.0111 S   0  0  0  0  0  0  0  0  0  0  0  0
   -9.6631   -2.4423    3.5497 C   0  0  0  0  0  0  0  0  0  0  0  0
  -10.4454   -2.0082    4.7583 C   0  0  0  0  0  0  0  0  0  0  0  0
   -9.5387   -1.5268    5.8913 C   0  0  0  0  0  0  0  0  0  0  0  0
   -8.8444   -1.5990    2.7978 C   0  0  0  0  0  0  0  0  0  0  0  0
   -8.6965    0.0934    3.0482 Cl  0  0  0  0  0  0  0  0  0  0  0  0
   -8.1102   -2.2773    1.7531 C   0  0  0  0  0  0  0  0  0  0  0  0
   -6.8446   -1.4844    0.8938 Cl  0  0  0  0  0  0  0  0  0  0  0  0
   -6.9811   -5.7655    1.6563 C   0  0  0  0  0  0  0  0  0  0  0  0
   -5.9249   -6.5028    1.1168 C   0  0  0  0  0  0  0  0  0  0  0  0
   -5.4538   -6.2592   -0.1377 C   0  0  0  0  0  0  0  0  0  0  0  0
   -4.5462   -7.1822   -0.8517 C   0  0  0  0  0  0  0  0  0  0  0  0
   -3.1702   -7.9449   -0.2720 S   0  0  0  0  0  0  0  0  0  0  0  0
   -2.8386   -8.7859   -1.6590 C   0  0  0  0  0  0  0  0  0  0  0  0
   -1.6494   -9.6737   -1.8178 C   0  0  0  0  0  0  0  0  0  0  0  0
   -0.4570   -8.9468   -2.4172 C   0  0  0  0  0  0  0  0  0  0  0  0
   -3.8178   -8.5711   -2.6119 C   0  0  0  0  0  0  0  0  0  0  0  0
   -4.7904   -7.6514   -2.1630 C   0  0  0  0  0  0  0  0  0  0  0  0
   -6.2683   -7.3008   -3.0891 Cl  0  0  0  0  0  0  0  0  0  0  0  0
   -3.8063   -9.3106   -4.1824 Cl  0  0  0  0  0  0  0  0  0  0  0  0
   -6.0795   -5.1879   -0.8563 C   0  0  0  0  0  0  0  0  0  0  0  0
   -5.6633   -4.5040   -2.3060 S   0  0  0  0  0  0  0  0  0  0  0  0
   -5.4454   -7.5299    1.9909 C   0  0  0  0  0  0  0  0  0  0  0  0
   -6.0494   -7.5006    3.2547 C   0  0  0  0  0  0  0  0  0  0  0  0
   -7.2003   -6.2631    3.2484 S   0  0  0  0  0  0  0  0  0  0  0  0
    9.5681   -7.7910    5.5758 H   0  0  0  0  0  0  0  0  0  0  0  0
    9.9970   -5.5048    4.4393 H   0  0  0  0  0  0  0  0  0  0  0  0
   11.6908    0.0001    1.4742 H   0  0  0  0  0  0  0  0  0  0  0  0
   11.0966    0.9285    2.9016 H   0  0  0  0  0  0  0  0  0  0  0  0
    9.3462    1.8470    1.6763 H   0  0  0  0  0  0  0  0  0  0  0  0
   10.2525    1.2624    0.2258 H   0  0  0  0  0  0  0  0  0  0  0  0
    8.9305    0.2612    0.9199 H   0  0  0  0  0  0  0  0  0  0  0  0
    0.7663   -6.5282    7.6241 H   0  0  0  0  0  0  0  0  0  0  0  0
    1.4954   -7.9607    8.5026 H   0  0  0  0  0  0  0  0  0  0  0  0
    1.3960   -6.6731   10.6260 H   0  0  0  0  0  0  0  0  0  0  0  0
    0.8670   -5.1720    9.7279 H   0  0  0  0  0  0  0  0  0  0  0  0
   -0.1878   -6.6260    9.8194 H   0  0  0  0  0  0  0  0  0  0  0  0
    3.8885   -2.5778    6.7573 H   0  0  0  0  0  0  0  0  0  0  0  0
    3.0133   -1.0884    8.2711 H   0  0  0  0  0  0  0  0  0  0  0  0
    1.6921    2.9452    8.3056 H   0  0  0  0  0  0  0  0  0  0  0  0
    3.1396    4.5992    6.8306 H   0  0  0  0  0  0  0  0  0  0  0  0
    3.0052    6.0372    5.1133 H   0  0  0  0  0  0  0  0  0  0  0  0
    2.7521    2.6317    3.1946 H   0  0  0  0  0  0  0  0  0  0  0  0
    3.7852   -2.8391    0.0903 H   0  0  0  0  0  0  0  0  0  0  0  0
    2.7205   -3.2105    1.5169 H   0  0  0  0  0  0  0  0  0  0  0  0
    1.9639   -4.3256   -0.6900 H   0  0  0  0  0  0  0  0  0  0  0  0
    1.5547   -2.6437   -1.3077 H   0  0  0  0  0  0  0  0  0  0  0  0
    0.6845   -3.3484    0.1414 H   0  0  0  0  0  0  0  0  0  0  0  0
    3.1553    9.5297   -4.2936 H   0  0  0  0  0  0  0  0  0  0  0  0
    1.9064   10.5220   -3.4621 H   0  0  0  0  0  0  0  0  0  0  0  0
    3.7091   11.6420   -2.0739 H   0  0  0  0  0  0  0  0  0  0  0  0
    4.9660   10.5444   -2.8393 H   0  0  0  0  0  0  0  0  0  0  0  0
    4.0742   11.7634   -3.8937 H   0  0  0  0  0  0  0  0  0  0  0  0
    2.0017    5.5217   -3.2488 H   0  0  0  0  0  0  0  0  0  0  0  0
   -0.5144    4.5688   -4.0549 H   0  0  0  0  0  0  0  0  0  0  0  0
   -1.0189    9.2635   -5.5296 H   0  0  0  0  0  0  0  0  0  0  0  0
   -2.7923    9.6910   -4.9619 H   0  0  0  0  0  0  0  0  0  0  0  0
   -1.6544    9.5927   -7.9358 H   0  0  0  0  0  0  0  0  0  0  0  0
   -1.9439   11.0649   -6.8833 H   0  0  0  0  0  0  0  0  0  0  0  0
   -3.3104   10.1128   -7.3574 H   0  0  0  0  0  0  0  0  0  0  0  0
   -1.4694   -3.2161  -10.7110 H   0  0  0  0  0  0  0  0  0  0  0  0
    0.1495   -3.8349  -10.1771 H   0  0  0  0  0  0  0  0  0  0  0  0
   -1.2989   -5.5655   -9.5131 H   0  0  0  0  0  0  0  0  0  0  0  0
   -1.1101   -4.6055   -8.0049 H   0  0  0  0  0  0  0  0  0  0  0  0
   -2.6149   -4.5314   -9.0241 H   0  0  0  0  0  0  0  0  0  0  0  0
   -3.8901    0.0821   -8.4128 H   0  0  0  0  0  0  0  0  0  0  0  0
   -8.3630    2.3595   -8.2076 H   0  0  0  0  0  0  0  0  0  0  0  0
  -10.0090    0.6367   -4.8331 H   0  0  0  0  0  0  0  0  0  0  0  0
   -8.9743   -1.7254   -3.6419 H   0  0  0  0  0  0  0  0  0  0  0  0
   -6.0193   -2.5544   -4.1385 H   0  0  0  0  0  0  0  0  0  0  0  0
   -8.4752   -2.8894   -1.1346 H   0  0  0  0  0  0  0  0  0  0  0  0
  -11.0853   -2.8189    5.1172 H   0  0  0  0  0  0  0  0  0  0  0  0
  -11.1333   -1.1568    4.4659 H   0  0  0  0  0  0  0  0  0  0  0  0
   -9.3988   -0.4391    5.8620 H   0  0  0  0  0  0  0  0  0  0  0  0
   -9.9693   -1.7919    6.8969 H   0  0  0  0  0  0  0  0  0  0  0  0
   -8.5448   -2.0126    5.8200 H   0  0  0  0  0  0  0  0  0  0  0  0
   -1.3557  -10.1332   -0.8453 H   0  0  0  0  0  0  0  0  0  0  0  0
   -1.8947  -10.5233   -2.4637 H   0  0  0  0  0  0  0  0  0  0  0  0
   -0.7889   -8.0987   -3.0535 H   0  0  0  0  0  0  0  0  0  0  0  0
    0.1789   -8.5304   -1.5597 H   0  0  0  0  0  0  0  0  0  0  0  0
    0.1908   -9.6583   -3.0040 H   0  0  0  0  0  0  0  0  0  0  0  0
   -4.5847   -8.1125    1.8004 H   0  0  0  0  0  0  0  0  0  0  0  0
   -5.7411   -8.1179    4.0760 H   0  0  0  0  0  0  0  0  0  0  0  0
  1  2  2  0
  2  3  1  0
  3  4  2  0
  4  5  1  0
  5  6  1  0
  6  7  1  0
  7  8  1  0
  8  9  1  0
  7 10  2  0
 10 11  1  0
 10 12  1  0
 12 13  1  0
  4 14  1  0
 14 15  2  0
 15 16  1  0
 16 17  1  0
 17 18  1  0
 18 19  1  0
 19 20  1  0
 20 21  1  0
 19 22  2  0
 22 23  1  0
 23 24  1  0
 22 25  1  0
 16 26  2  0
 26 27  1  0
 15 28  1  0
 28 29  2  0
 29 30  1  0
 29 31  1  0
 31 32  1  0
 32 33  1  0
 33 34  2  0
 34 35  1  0
 35 36  1  0
 36 37  1  0
 37 38  2  0
 37 39  1  0
 33 40  1  0
 40 41  2  3
 41 42  1  0
 42 43  2  0
 43 44  1  0
 44 45  2  0
 45 46  1  0
 46 47  1  0
 47 48  1  0
 48 49  1  0
 49 50  1  0
 48 51  2  0
 51 52  1  0
 51 53  1  0
 53 54  1  0
 45 55  1  0
 55 56  2  0
 56 57  1  0
 57 58  1  0
 58 59  1  0
 59 60  1  0
 60 61  1  0
 61 62  1  0
 60 63  2  0
 63 64  1  0
 64 65  1  0
 63 66  1  0
 57 67  2  0
 67 68  1  0
 56 69  1  0
 69 70  2  0
 70 71  1  0
 70 72  1  0
 72 73  2  0
 73 74  1  0
 74 75  2  0
 75 76  1  0
 76 77  1  0
 77 78  1  0
 78 79  1  0
 79 80  1  0
 78 81  2  0
 81 82  1  0
 81 83  1  0
 83 84  1  0
 75 85  1  0
 85 86  2  0
 86 87  1  0
 87 88  1  0
 88 89  1  0
 89 90  1  0
 90 91  1  0
 91 92  1  0
 90 93  2  0
 93 94  1  0
 94 95  1  0
 93 96  1  0
 87 97  2  0
 97 98  1  0
 86 99  1  0
 99100  2  0
100101  1  0
100102  1  0
102103  1  0
103104  1  0
104105  2  0
105106  1  0
106107  1  0
107108  1  0
108109  2  0
108110  1  0
104111  1  0
111112  2  3
112113  1  0
113114  2  0
114115  1  0
115116  2  0
116117  1  0
117118  1  0
118119  1  0
119120  1  0
120121  1  0
119122  2  0
122123  1  0
122124  1  0
124125  1  0
116126  1  0
126127  2  0
127128  1  0
128129  1  0
129130  1  0
130131  1  0
131132  1  0
132133  1  0
131134  2  0
134135  1  0
135136  1  0
134137  1  0
128138  2  0
138139  1  0
127140  1  0
140141  2  0
141142  1  0
 27  1  1  0
 35 31  2  0
 68 42  1  0
 98 72  1  0
106102  2  0
139113  1  0
 26  3  1  0
 39 34  1  0
 67 44  1  0
 97 74  1  0
110105  1  0
138115  1  0
 12  5  2  0
 30 14  1  0
 53 46  2  0
 71 55  1  0
 83 76  2  0
101 85  1  0
124117  2  0
142126  1  0
 23 17  2  0
 64 58  2  0
 94 88  2  0
135129  2  0
  1143  1  0
  2144  1  0
  8145  1  0
  8146  1  0
  9147  1  0
  9148  1  0
  9149  1  0
 20150  1  0
 20151  1  0
 21152  1  0
 21153  1  0
 21154  1  0
 28155  1  0
 36156  1  0
 39157  1  0
 40158  1  0
 41159  1  0
 43160  1  0
 49161  1  0
 49162  1  0
 50163  1  0
 50164  1  0
 50165  1  0
 61166  1  0
 61167  1  0
 62168  1  0
 62169  1  0
 62170  1  0
 69171  1  0
 73172  1  0
 79173  1  0
 79174  1  0
 80175  1  0
 80176  1  0
 80177  1  0
 91178  1  0
 91179  1  0
 92180  1  0
 92181  1  0
 92182  1  0
 99183  1  0
107184  1  0
110185  1  0
111186  1  0
112187  1  0
114188  1  0
120189  1  0
120190  1  0
121191  1  0
121192  1  0
121193  1  0
132194  1  0
132195  1  0
133196  1  0
133197  1  0
133198  1  0
140199  1  0
141200  1  0
M  END

