
     RDKit          3D

218235  0  0  0  0  0  0  0  0999 V2000
    5.5268   -4.3896    7.3550 C   0  0  0  0  0  0  0  0  0  0  0  0
    6.4429   -3.9455    8.3119 C   0  0  0  0  0  0  0  0  0  0  0  0
    6.6087   -4.6988    9.5981 C   0  0  0  0  0  0  0  0  0  0  0  0
    7.1362   -2.7516    8.0962 C   0  0  0  0  0  0  0  0  0  0  0  0
    6.9975   -2.0476    6.8923 C   0  0  0  0  0  0  0  0  0  0  0  0
    7.7582   -0.7420    6.7537 C   0  0  0  0  0  0  0  0  0  0  0  0
    9.2149   -0.9857    6.3766 C   0  0  0  0  0  0  0  0  0  0  0  0
    6.1803   -2.5783    5.8572 C   0  0  0  0  0  0  0  0  0  0  0  0
    6.1888   -1.9460    4.4829 C   0  0  0  0  0  0  0  0  0  0  0  0
    5.3606   -3.7097    6.1331 C   0  0  0  0  0  0  0  0  0  0  0  0
    4.3068   -4.1972    5.1966 C   0  0  0  0  0  0  0  0  0  0  0  0
    3.8921   -5.5228    5.0722 C   0  0  0  0  0  0  0  0  0  0  0  0
    2.7879   -5.6915    4.2221 C   0  0  0  0  0  0  0  0  0  0  0  0
    2.1332   -6.9063    3.9536 C   0  0  0  0  0  0  0  0  0  0  0  0
    2.4624   -8.1525    4.6841 C   0  0  0  0  0  0  0  0  0  0  0  0
    2.3554   -8.1916    6.0842 C   0  0  0  0  0  0  0  0  0  0  0  0
    2.6004   -9.3790    6.7773 C   0  0  0  0  0  0  0  0  0  0  0  0
    2.9181  -10.5476    6.0811 C   0  0  0  0  0  0  0  0  0  0  0  0
    3.1462  -12.0841    6.9805 S   0  0  0  0  0  0  0  0  0  0  0  0
    1.4097  -12.6408    6.8062 C   0  0  0  0  0  0  0  0  0  0  0  0
    0.5090  -11.9804    7.8431 C   0  0  0  0  0  0  0  0  0  0  0  0
    3.0586  -10.5119    4.6834 C   0  0  0  0  0  0  0  0  0  0  0  0
    3.4000  -11.6290    3.9951 F   0  0  0  0  0  0  0  0  0  0  0  0
    2.8294   -9.3167    3.9892 C   0  0  0  0  0  0  0  0  0  0  0  0
    1.0527   -6.8534    3.0608 C   0  0  0  0  0  0  0  0  0  0  0  0
    0.5767   -5.6693    2.4949 C   0  0  0  0  0  0  0  0  0  0  0  0
    1.2389   -4.4508    2.7630 C   0  0  0  0  0  0  0  0  0  0  0  0
    0.8622   -3.1793    2.1156 C   0  0  0  0  0  0  0  0  0  0  0  0
   -0.3702   -2.5664    2.3899 C   0  0  0  0  0  0  0  0  0  0  0  0
   -0.6361   -1.2844    1.8942 C   0  0  0  0  0  0  0  0  0  0  0  0
    0.3081   -0.6288    1.0946 C   0  0  0  0  0  0  0  0  0  0  0  0
   -0.0118    1.0425    0.5077 S   0  0  0  0  0  0  0  0  0  0  0  0
    1.2291    1.8506    1.5864 C   0  0  0  0  0  0  0  0  0  0  0  0
    0.5743    2.8624    2.5063 C   0  0  0  0  0  0  0  0  0  0  0  0
    1.5198   -1.2621    0.7872 C   0  0  0  0  0  0  0  0  0  0  0  0
    1.7912   -2.5316    1.2910 C   0  0  0  0  0  0  0  0  0  0  0  0
    2.4677   -0.6247    0.0551 F   0  0  0  0  0  0  0  0  0  0  0  0
    2.3419   -4.5033    3.6424 C   0  0  0  0  0  0  0  0  0  0  0  0
    3.2838   -3.2385    4.2371 S   0  0  0  0  0  0  0  0  0  0  0  0
   -0.5677   -5.8629    1.6824 C   0  0  0  0  0  0  0  0  0  0  0  0
   -0.9701   -7.2068    1.6056 C   0  0  0  0  0  0  0  0  0  0  0  0
    0.1034   -8.1222    2.5314 S   0  0  0  0  0  0  0  0  0  0  0  0
   -2.0845   -7.8248    0.8205 C   0  0  0  0  0  0  0  0  0  0  0  0
   -2.8116   -8.9082    1.3847 C   0  0  0  0  0  0  0  0  0  0  0  0
   -2.8274   -9.1877    2.8661 C   0  0  0  0  0  0  0  0  0  0  0  0
   -3.5576   -9.7532    0.5610 C   0  0  0  0  0  0  0  0  0  0  0  0
   -3.6606   -9.5256   -0.8143 C   0  0  0  0  0  0  0  0  0  0  0  0
   -4.4311  -10.5370   -1.6364 C   0  0  0  0  0  0  0  0  0  0  0  0
   -3.5294  -11.7042   -2.0225 C   0  0  0  0  0  0  0  0  0  0  0  0
   -3.0442   -8.3836   -1.3782 C   0  0  0  0  0  0  0  0  0  0  0  0
   -3.2200   -8.0840   -2.8570 C   0  0  0  0  0  0  0  0  0  0  0  0
   -2.3160   -7.4932   -0.5403 C   0  0  0  0  0  0  0  0  0  0  0  0
   -2.1172   -6.1085   -1.0091 C   0  0  0  0  0  0  0  0  0  0  0  0
   -3.1649   -5.2014   -1.1118 C   0  0  0  0  0  0  0  0  0  0  0  0
   -2.7858   -3.9854   -1.6827 C   0  0  0  0  0  0  0  0  0  0  0  0
   -3.6307   -2.8837   -1.8963 C   0  0  0  0  0  0  0  0  0  0  0  0
   -5.0937   -2.9711   -1.7108 C   0  0  0  0  0  0  0  0  0  0  0  0
   -5.9281   -3.0066   -2.8391 C   0  0  0  0  0  0  0  0  0  0  0  0
   -7.3115   -3.1219   -2.6825 C   0  0  0  0  0  0  0  0  0  0  0  0
   -7.8725   -3.1929   -1.4047 C   0  0  0  0  0  0  0  0  0  0  0  0
   -9.6510   -3.3639   -1.2167 S   0  0  0  0  0  0  0  0  0  0  0  0
   -9.9853   -1.5706   -1.1047 C   0  0  0  0  0  0  0  0  0  0  0  0
  -10.2198   -0.9835   -2.4889 C   0  0  0  0  0  0  0  0  0  0  0  0
   -7.0381   -3.1608   -0.2758 C   0  0  0  0  0  0  0  0  0  0  0  0
   -7.5673   -3.2321    0.9704 F   0  0  0  0  0  0  0  0  0  0  0  0
   -5.6521   -3.0515   -0.4298 C   0  0  0  0  0  0  0  0  0  0  0  0
   -3.0368   -1.7243   -2.4045 C   0  0  0  0  0  0  0  0  0  0  0  0
   -1.6936   -1.6641   -2.7969 C   0  0  0  0  0  0  0  0  0  0  0  0
   -0.8649   -2.8098   -2.6803 C   0  0  0  0  0  0  0  0  0  0  0  0
    0.5257   -2.8448   -3.1907 C   0  0  0  0  0  0  0  0  0  0  0  0
    1.4813   -1.9337   -2.7193 C   0  0  0  0  0  0  0  0  0  0  0  0
    2.7959   -1.9840   -3.1913 C   0  0  0  0  0  0  0  0  0  0  0  0
    3.1687   -2.9477   -4.1372 C   0  0  0  0  0  0  0  0  0  0  0  0
    4.8714   -3.0199   -4.7125 S   0  0  0  0  0  0  0  0  0  0  0  0
    5.3425   -4.4470   -3.6680 C   0  0  0  0  0  0  0  0  0  0  0  0
    5.5742   -4.0235   -2.2222 C   0  0  0  0  0  0  0  0  0  0  0  0
    2.2076   -3.8356   -4.6415 C   0  0  0  0  0  0  0  0  0  0  0  0
    0.8947   -3.7917   -4.1598 C   0  0  0  0  0  0  0  0  0  0  0  0
    2.5476   -4.7554   -5.5825 F   0  0  0  0  0  0  0  0  0  0  0  0
   -1.4413   -3.9469   -2.0731 C   0  0  0  0  0  0  0  0  0  0  0  0
   -0.7238   -5.4341   -1.6956 S   0  0  0  0  0  0  0  0  0  0  0  0
   -1.3203   -0.3804   -3.2447 C   0  0  0  0  0  0  0  0  0  0  0  0
   -2.3556    0.5499   -3.1354 C   0  0  0  0  0  0  0  0  0  0  0  0
   -3.7383   -0.2081   -2.5452 S   0  0  0  0  0  0  0  0  0  0  0  0
   -2.1943    2.0053   -3.1711 C   0  0  0  0  0  0  0  0  0  0  0  0
   -1.6000    2.7633   -4.1784 C   0  0  0  0  0  0  0  0  0  0  0  0
   -1.5513    4.1348   -3.8627 C   0  0  0  0  0  0  0  0  0  0  0  0
   -1.0647    5.1686   -4.6877 C   0  0  0  0  0  0  0  0  0  0  0  0
   -0.6463    4.9228   -6.0768 C   0  0  0  0  0  0  0  0  0  0  0  0
   -1.5855    5.0117   -7.1118 C   0  0  0  0  0  0  0  0  0  0  0  0
   -1.1873    4.8326   -8.4387 C   0  0  0  0  0  0  0  0  0  0  0  0
    0.1566    4.5723   -8.7396 C   0  0  0  0  0  0  0  0  0  0  0  0
    0.6617    4.3833  -10.4521 S   0  0  0  0  0  0  0  0  0  0  0  0
    1.1388    6.1345  -10.6830 C   0  0  0  0  0  0  0  0  0  0  0  0
   -0.0795    7.0059  -10.9631 C   0  0  0  0  0  0  0  0  0  0  0  0
    1.0906    4.4485   -7.7016 C   0  0  0  0  0  0  0  0  0  0  0  0
    2.3925    4.1684   -7.9777 F   0  0  0  0  0  0  0  0  0  0  0  0
    0.6898    4.6243   -6.3725 C   0  0  0  0  0  0  0  0  0  0  0  0
   -1.0605    6.4671   -4.1520 C   0  0  0  0  0  0  0  0  0  0  0  0
   -1.5295    6.7532   -2.8650 C   0  0  0  0  0  0  0  0  0  0  0  0
   -2.0702    5.7315   -2.0527 C   0  0  0  0  0  0  0  0  0  0  0  0
   -2.6136    6.0006   -0.6982 C   0  0  0  0  0  0  0  0  0  0  0  0
   -3.6153    6.9699   -0.5066 C   0  0  0  0  0  0  0  0  0  0  0  0
   -4.1115    7.2273    0.7725 C   0  0  0  0  0  0  0  0  0  0  0  0
   -3.6265    6.5095    1.8758 C   0  0  0  0  0  0  0  0  0  0  0  0
   -4.2778    6.8420    3.5214 S   0  0  0  0  0  0  0  0  0  0  0  0
   -2.9161    7.9602    4.0187 C   0  0  0  0  0  0  0  0  0  0  0  0
   -3.1351    9.3642    3.4765 C   0  0  0  0  0  0  0  0  0  0  0  0
   -2.6515    5.5210    1.6860 C   0  0  0  0  0  0  0  0  0  0  0  0
   -2.1383    5.2799    0.4076 C   0  0  0  0  0  0  0  0  0  0  0  0
   -2.1946    4.7957    2.7382 F   0  0  0  0  0  0  0  0  0  0  0  0
   -2.0614    4.4284   -2.5921 C   0  0  0  0  0  0  0  0  0  0  0  0
   -2.6408    3.0113   -1.8934 S   0  0  0  0  0  0  0  0  0  0  0  0
   -1.3749    8.1041   -2.5164 C   0  0  0  0  0  0  0  0  0  0  0  0
   -0.8125    8.8717   -3.5345 C   0  0  0  0  0  0  0  0  0  0  0  0
   -0.5039    7.8862   -4.8739 S   0  0  0  0  0  0  0  0  0  0  0  0
   -0.5452   10.3221   -3.4588 C   0  0  0  0  0  0  0  0  0  0  0  0
    0.1834   10.8884   -2.3908 C   0  0  0  0  0  0  0  0  0  0  0  0
    0.8361   10.0449   -1.3266 C   0  0  0  0  0  0  0  0  0  0  0  0
    0.2881   12.2831   -2.2966 C   0  0  0  0  0  0  0  0  0  0  0  0
   -0.2650   13.1234   -3.2739 C   0  0  0  0  0  0  0  0  0  0  0  0
   -0.1166   14.6176   -3.0978 C   0  0  0  0  0  0  0  0  0  0  0  0
    1.2278   15.1010   -3.6393 C   0  0  0  0  0  0  0  0  0  0  0  0
   -0.9017   12.5475   -4.3993 C   0  0  0  0  0  0  0  0  0  0  0  0
   -1.4985   13.3956   -5.4955 C   0  0  0  0  0  0  0  0  0  0  0  0
   -1.0535   11.1554   -4.4657 C   0  0  0  0  0  0  0  0  0  0  0  0
    4.9315   -5.2678    7.5807 H   0  0  0  0  0  0  0  0  0  0  0  0
    7.6259   -4.5501   10.0183 H   0  0  0  0  0  0  0  0  0  0  0  0
    6.4721   -5.7888    9.4247 H   0  0  0  0  0  0  0  0  0  0  0  0
    5.8550   -4.3472   10.3326 H   0  0  0  0  0  0  0  0  0  0  0  0
    7.7902   -2.3713    8.8742 H   0  0  0  0  0  0  0  0  0  0  0  0
    7.7124   -0.1841    7.7142 H   0  0  0  0  0  0  0  0  0  0  0  0
    7.2792   -0.0687    6.0103 H   0  0  0  0  0  0  0  0  0  0  0  0
    9.7422   -0.0150    6.2771 H   0  0  0  0  0  0  0  0  0  0  0  0
    9.2847   -1.5201    5.4057 H   0  0  0  0  0  0  0  0  0  0  0  0
    9.7294   -1.5809    7.1623 H   0  0  0  0  0  0  0  0  0  0  0  0
    7.1855   -1.5377    4.2212 H   0  0  0  0  0  0  0  0  0  0  0  0
    5.4295   -1.1368    4.4404 H   0  0  0  0  0  0  0  0  0  0  0  0
    5.9735   -2.6984    3.6963 H   0  0  0  0  0  0  0  0  0  0  0  0
    4.3712   -6.3455    5.5873 H   0  0  0  0  0  0  0  0  0  0  0  0
    2.0644   -7.3062    6.6359 H   0  0  0  0  0  0  0  0  0  0  0  0
    2.5128   -9.3915    7.8561 H   0  0  0  0  0  0  0  0  0  0  0  0
    1.0306  -12.4246    5.7848 H   0  0  0  0  0  0  0  0  0  0  0  0
    1.3867  -13.7398    6.9590 H   0  0  0  0  0  0  0  0  0  0  0  0
    0.8938  -12.1656    8.8676 H   0  0  0  0  0  0  0  0  0  0  0  0
   -0.5122  -12.4117    7.7705 H   0  0  0  0  0  0  0  0  0  0  0  0
    0.4394  -10.8879    7.6674 H   0  0  0  0  0  0  0  0  0  0  0  0
    2.9270   -9.3031    2.9102 H   0  0  0  0  0  0  0  0  0  0  0  0
   -1.0954   -3.0532    3.0330 H   0  0  0  0  0  0  0  0  0  0  0  0
   -1.5730   -0.7959    2.1431 H   0  0  0  0  0  0  0  0  0  0  0  0
    1.9618    2.3719    0.9392 H   0  0  0  0  0  0  0  0  0  0  0  0
    1.7860    1.1165    2.2127 H   0  0  0  0  0  0  0  0  0  0  0  0
    0.0578    3.6474    1.9136 H   0  0  0  0  0  0  0  0  0  0  0  0
    1.3573    3.3564    3.1176 H   0  0  0  0  0  0  0  0  0  0  0  0
   -0.1467    2.3635    3.1853 H   0  0  0  0  0  0  0  0  0  0  0  0
    2.7495   -2.9940    1.0800 H   0  0  0  0  0  0  0  0  0  0  0  0
   -1.0908   -5.0530    1.1969 H   0  0  0  0  0  0  0  0  0  0  0  0
   -2.6904   -8.2547    3.4493 H   0  0  0  0  0  0  0  0  0  0  0  0
   -3.8005   -9.6248    3.1806 H   0  0  0  0  0  0  0  0  0  0  0  0
   -2.0336   -9.9208    3.1123 H   0  0  0  0  0  0  0  0  0  0  0  0
   -4.0501  -10.6166    0.9938 H   0  0  0  0  0  0  0  0  0  0  0  0
   -4.8841  -10.0879   -2.5432 H   0  0  0  0  0  0  0  0  0  0  0  0
   -5.2832  -10.9313   -1.0377 H   0  0  0  0  0  0  0  0  0  0  0  0
   -3.1088  -12.1747   -1.1118 H   0  0  0  0  0  0  0  0  0  0  0  0
   -2.6870  -11.3552   -2.6663 H   0  0  0  0  0  0  0  0  0  0  0  0
   -4.1133  -12.4665   -2.5779 H   0  0  0  0  0  0  0  0  0  0  0  0
   -4.2313   -7.6663   -3.0351 H   0  0  0  0  0  0  0  0  0  0  0  0
   -3.0769   -9.0014   -3.4582 H   0  0  0  0  0  0  0  0  0  0  0  0
   -2.4630   -7.3661   -3.2310 H   0  0  0  0  0  0  0  0  0  0  0  0
   -4.1723   -5.4351   -0.7925 H   0  0  0  0  0  0  0  0  0  0  0  0
   -5.5091   -2.9604   -3.8380 H   0  0  0  0  0  0  0  0  0  0  0  0
   -7.9448   -3.1565   -3.5605 H   0  0  0  0  0  0  0  0  0  0  0  0
   -9.1545   -1.0343   -0.5981 H   0  0  0  0  0  0  0  0  0  0  0  0
  -10.9000   -1.4290   -0.4938 H   0  0  0  0  0  0  0  0  0  0  0  0
  -11.0502   -1.5176   -2.9976 H   0  0  0  0  0  0  0  0  0  0  0  0
   -9.3065   -1.0626   -3.1109 H   0  0  0  0  0  0  0  0  0  0  0  0
  -10.4965    0.0878   -2.3984 H   0  0  0  0  0  0  0  0  0  0  0  0
   -5.0164   -3.0278    0.4461 H   0  0  0  0  0  0  0  0  0  0  0  0
    1.2011   -1.1801   -1.9978 H   0  0  0  0  0  0  0  0  0  0  0  0
    3.5210   -1.2726   -2.8202 H   0  0  0  0  0  0  0  0  0  0  0  0
    6.2821   -4.8811   -4.0705 H   0  0  0  0  0  0  0  0  0  0  0  0
    4.5624   -5.2387   -3.7150 H   0  0  0  0  0  0  0  0  0  0  0  0
    5.8781   -4.9031   -1.6153 H   0  0  0  0  0  0  0  0  0  0  0  0
    6.3798   -3.2616   -2.1759 H   0  0  0  0  0  0  0  0  0  0  0  0
    4.6500   -3.5974   -1.7883 H   0  0  0  0  0  0  0  0  0  0  0  0
    0.1654   -4.4903   -4.5483 H   0  0  0  0  0  0  0  0  0  0  0  0
   -0.3243   -0.1076   -3.5549 H   0  0  0  0  0  0  0  0  0  0  0  0
   -1.2260    2.3404   -5.0996 H   0  0  0  0  0  0  0  0  0  0  0  0
   -2.6211    5.2349   -6.8925 H   0  0  0  0  0  0  0  0  0  0  0  0
   -1.9216    4.9112   -9.2322 H   0  0  0  0  0  0  0  0  0  0  0  0
    1.8256    6.1893  -11.5542 H   0  0  0  0  0  0  0  0  0  0  0  0
    1.6807    6.5142   -9.7906 H   0  0  0  0  0  0  0  0  0  0  0  0
    0.2474    8.0447  -11.1766 H   0  0  0  0  0  0  0  0  0  0  0  0
   -0.6326    6.6203  -11.8442 H   0  0  0  0  0  0  0  0  0  0  0  0
   -0.7543    7.0289  -10.0845 H   0  0  0  0  0  0  0  0  0  0  0  0
    1.4193    4.5435   -5.5764 H   0  0  0  0  0  0  0  0  0  0  0  0
   -4.0110    7.5277   -1.3468 H   0  0  0  0  0  0  0  0  0  0  0  0
   -4.8761    7.9819    0.9103 H   0  0  0  0  0  0  0  0  0  0  0  0
   -1.9330    7.5658    3.6763 H   0  0  0  0  0  0  0  0  0  0  0  0
   -2.8959    8.0045    5.1300 H   0  0  0  0  0  0  0  0  0  0  0  0
   -3.1385    9.3543    2.3687 H   0  0  0  0  0  0  0  0  0  0  0  0
   -2.3142   10.0303    3.8127 H   0  0  0  0  0  0  0  0  0  0  0  0
   -4.0956    9.7719    3.8517 H   0  0  0  0  0  0  0  0  0  0  0  0
   -1.3695    4.5325    0.2768 H   0  0  0  0  0  0  0  0  0  0  0  0
   -1.6649    8.5215   -1.5623 H   0  0  0  0  0  0  0  0  0  0  0  0
    1.2091    9.0911   -1.7578 H   0  0  0  0  0  0  0  0  0  0  0  0
    0.1071    9.8385   -0.5143 H   0  0  0  0  0  0  0  0  0  0  0  0
    1.7151   10.5702   -0.8922 H   0  0  0  0  0  0  0  0  0  0  0  0
    0.8099   12.7196   -1.4520 H   0  0  0  0  0  0  0  0  0  0  0  0
   -0.1762   14.8751   -2.0168 H   0  0  0  0  0  0  0  0  0  0  0  0
   -0.9431   15.1684   -3.5899 H   0  0  0  0  0  0  0  0  0  0  0  0
    1.3128   14.8897   -4.7261 H   0  0  0  0  0  0  0  0  0  0  0  0
    2.0620   14.5995   -3.1081 H   0  0  0  0  0  0  0  0  0  0  0  0
    1.3183   16.1975   -3.4827 H   0  0  0  0  0  0  0  0  0  0  0  0
   -1.6597   12.8008   -6.4203 H   0  0  0  0  0  0  0  0  0  0  0  0
   -2.4783   13.7926   -5.1603 H   0  0  0  0  0  0  0  0  0  0  0  0
   -0.8265   14.2359   -5.7611 H   0  0  0  0  0  0  0  0  0  0  0  0
   -1.6023   10.7123   -5.2940 H   0  0  0  0  0  0  0  0  0  0  0  0
  1  2  2  0
  2  3  1  0
  2  4  1  0
  4  5  2  0
  5  6  1  0
  6  7  1  0
  5  8  1  0
  8  9  1  0
  8 10  2  0
 10 11  1  0
 11 12  2  0
 12 13  1  0
 13 14  2  0
 14 15  1  0
 15 16  2  0
 16 17  1  0
 17 18  2  0
 18 19  1  0
 19 20  1  0
 20 21  1  0
 18 22  1  0
 22 23  1  0
 22 24  2  0
 14 25  1  0
 25 26  2  0
 26 27  1  0
 27 28  1  0
 28 29  2  0
 29 30  1  0
 30 31  2  0
 31 32  1  0
 32 33  1  0
 33 34  1  0
 31 35  1  0
 35 36  2  0
 35 37  1  0
 27 38  2  0
 38 39  1  0
 26 40  1  0
 40 41  2  0
 41 42  1  0
 41 43  1  0
 43 44  2  0
 44 45  1  0
 44 46  1  0
 46 47  2  0
 47 48  1  0
 48 49  1  0
 47 50  1  0
 50 51  1  0
 50 52  2  0
 52 53  1  0
 53 54  2  0
 54 55  1  0
 55 56  2  0
 56 57  1  0
 57 58  2  0
 58 59  1  0
 59 60  2  0
 60 61  1  0
 61 62  1  0
 62 63  1  0
 60 64  1  0
 64 65  1  0
 64 66  2  0
 56 67  1  0
 67 68  2  0
 68 69  1  0
 69 70  1  0
 70 71  2  0
 71 72  1  0
 72 73  2  0
 73 74  1  0
 74 75  1  0
 75 76  1  0
 73 77  1  0
 77 78  2  0
 77 79  1  0
 69 80  2  0
 80 81  1  0
 68 82  1  0
 82 83  2  0
 83 84  1  0
 83 85  1  0
 85 86  2  0
 86 87  1  0
 87 88  2  0
 88 89  1  0
 89 90  2  0
 90 91  1  0
 91 92  2  0
 92 93  1  0
 93 94  1  0
 94 95  1  0
 92 96  1  0
 96 97  1  0
 96 98  2  0
 88 99  1  0
 99100  2  0
100101  1  0
101102  1  0
102103  2  0
103104  1  0
104105  2  0
105106  1  0
106107  1  0
107108  1  0
105109  1  0
109110  2  0
109111  1  0
101112  2  0
112113  1  0
100114  1  0
114115  2  0
115116  1  0
115117  1  0
117118  2  0
118119  1  0
118120  1  0
120121  2  0
121122  1  0
122123  1  0
121124  1  0
124125  1  0
124126  2  0
 10  1  1  0
 39 11  1  0
 52 43  1  0
 81 53  1  0
113 85  1  0
126117  1  0
 38 13  1  0
 80 55  1  0
112 87  1  0
 24 15  1  0
 42 25  1  0
 66 57  1  0
 84 67  1  0
 98 89  1  0
116 99  1  0
 36 28  1  0
 78 70  1  0
110102  1  0
  1127  1  0
  3128  1  0
  3129  1  0
  3130  1  0
  4131  1  0
  6132  1  0
  6133  1  0
  7134  1  0
  7135  1  0
  7136  1  0
  9137  1  0
  9138  1  0
  9139  1  0
 12140  1  0
 16141  1  0
 17142  1  0
 20143  1  0
 20144  1  0
 21145  1  0
 21146  1  0
 21147  1  0
 24148  1  0
 29149  1  0
 30150  1  0
 33151  1  0
 33152  1  0
 34153  1  0
 34154  1  0
 34155  1  0
 36156  1  0
 40157  1  0
 45158  1  0
 45159  1  0
 45160  1  0
 46161  1  0
 48162  1  0
 48163  1  0
 49164  1  0
 49165  1  0
 49166  1  0
 51167  1  0
 51168  1  0
 51169  1  0
 54170  1  0
 58171  1  0
 59172  1  0
 62173  1  0
 62174  1  0
 63175  1  0
 63176  1  0
 63177  1  0
 66178  1  0
 71179  1  0
 72180  1  0
 75181  1  0
 75182  1  0
 76183  1  0
 76184  1  0
 76185  1  0
 78186  1  0
 82187  1  0
 86188  1  0
 90189  1  0
 91190  1  0
 94191  1  0
 94192  1  0
 95193  1  0
 95194  1  0
 95195  1  0
 98196  1  0
103197  1  0
104198  1  0
107199  1  0
107200  1  0
108201  1  0
108202  1  0
108203  1  0
110204  1  0
114205  1  0
119206  1  0
119207  1  0
119208  1  0
120209  1  0
122210  1  0
122211  1  0
123212  1  0
123213  1  0
123214  1  0
125215  1  0
125216  1  0
125217  1  0
126218  1  0
M  END

