
     RDKit          3D

235262  0  0  0  0  0  0  0  0999 V2000
    5.4120   -3.8398    4.3597 C   0  0  0  0  0  0  0  0  0  0  0  0
    5.3805   -2.5434    4.8596 C   0  0  0  0  0  0  0  0  0  0  0  0
    4.0978   -2.1369    5.2651 C   0  0  0  0  0  0  0  0  0  0  0  0
    3.7488   -0.8767    5.7880 C   0  0  0  0  0  0  0  0  0  0  0  0
    4.7236    0.2221    5.9068 C   0  0  0  0  0  0  0  0  0  0  0  0
    5.1170    1.0035    7.3426 S   0  0  0  0  0  0  0  0  0  0  0  0
    6.1231    2.1609    6.6503 C   0  0  0  0  0  0  0  0  0  0  0  0
    6.7594    3.2911    7.3987 C   0  0  0  0  0  0  0  0  0  0  0  0
    5.8249    4.4942    7.4535 C   0  0  0  0  0  0  0  0  0  0  0  0
    6.1331    1.9702    5.2698 C   0  0  0  0  0  0  0  0  0  0  0  0
    7.0004    3.0164    4.1529 Cl  0  0  0  0  0  0  0  0  0  0  0  0
    5.3524    0.8810    4.8532 C   0  0  0  0  0  0  0  0  0  0  0  0
    5.1092    0.4594    3.1616 Cl  0  0  0  0  0  0  0  0  0  0  0  0
    2.3981   -0.6749    6.1103 C   0  0  0  0  0  0  0  0  0  0  0  0
    1.4192   -1.6560    5.9213 C   0  0  0  0  0  0  0  0  0  0  0  0
    1.7732   -2.9303    5.4234 C   0  0  0  0  0  0  0  0  0  0  0  0
    0.7707   -3.9921    5.2064 C   0  0  0  0  0  0  0  0  0  0  0  0
    0.4835   -4.7610    3.7367 S   0  0  0  0  0  0  0  0  0  0  0  0
   -0.6943   -5.8167    4.3089 C   0  0  0  0  0  0  0  0  0  0  0  0
   -1.4212   -6.8215    3.4667 C   0  0  0  0  0  0  0  0  0  0  0  0
   -2.7502   -6.2600    2.9764 C   0  0  0  0  0  0  0  0  0  0  0  0
   -0.8925   -5.5674    5.6659 C   0  0  0  0  0  0  0  0  0  0  0  0
   -0.0657   -4.5521    6.1720 C   0  0  0  0  0  0  0  0  0  0  0  0
   -0.0421   -4.0917    7.8697 Cl  0  0  0  0  0  0  0  0  0  0  0  0
   -2.0486   -6.4517    6.6528 Cl  0  0  0  0  0  0  0  0  0  0  0  0
    3.1276   -3.1290    5.0951 C   0  0  0  0  0  0  0  0  0  0  0  0
    3.8625   -4.4969    4.4442 S   0  0  0  0  0  0  0  0  0  0  0  0
    0.1142   -1.1793    6.1475 C   0  0  0  0  0  0  0  0  0  0  0  0
    0.0772    0.1691    6.5092 C   0  0  0  0  0  0  0  0  0  0  0  0
    1.6566    0.7652    6.5529 S   0  0  0  0  0  0  0  0  0  0  0  0
   -1.1236    1.0218    6.4972 C   0  0  0  0  0  0  0  0  0  0  0  0
   -1.0919    2.4111    6.3846 C   0  0  0  0  0  0  0  0  0  0  0  0
   -2.3138    2.9600    5.9683 C   0  0  0  0  0  0  0  0  0  0  0  0
   -2.5187    4.2892    5.5442 C   0  0  0  0  0  0  0  0  0  0  0  0
   -1.4541    5.3051    5.6140 C   0  0  0  0  0  0  0  0  0  0  0  0
   -0.0315    5.2840    4.7163 S   0  0  0  0  0  0  0  0  0  0  0  0
    0.6110    6.6950    5.3758 C   0  0  0  0  0  0  0  0  0  0  0  0
    1.9157    7.3089    4.9649 C   0  0  0  0  0  0  0  0  0  0  0  0
    1.6936    8.4594    3.9893 C   0  0  0  0  0  0  0  0  0  0  0  0
   -0.2962    7.2095    6.3007 C   0  0  0  0  0  0  0  0  0  0  0  0
   -0.0190    8.6851    7.2177 Cl  0  0  0  0  0  0  0  0  0  0  0  0
   -1.4569    6.4318    6.4311 C   0  0  0  0  0  0  0  0  0  0  0  0
   -2.7768    6.8276    7.5225 Cl  0  0  0  0  0  0  0  0  0  0  0  0
   -3.7413    4.5708    4.9125 C   0  0  0  0  0  0  0  0  0  0  0  0
   -4.7459    3.6121    4.7608 C   0  0  0  0  0  0  0  0  0  0  0  0
   -4.5705    2.3034    5.2547 C   0  0  0  0  0  0  0  0  0  0  0  0
   -5.5701    1.2453    5.0209 C   0  0  0  0  0  0  0  0  0  0  0  0
   -6.0140    0.6502    3.5100 S   0  0  0  0  0  0  0  0  0  0  0  0
   -7.1875   -0.4124    4.0764 C   0  0  0  0  0  0  0  0  0  0  0  0
   -7.9959   -1.3294    3.2108 C   0  0  0  0  0  0  0  0  0  0  0  0
   -7.3981   -2.7313    3.2000 C   0  0  0  0  0  0  0  0  0  0  0  0
   -7.2295   -0.3302    5.4681 C   0  0  0  0  0  0  0  0  0  0  0  0
   -6.3190    0.5979    5.9965 C   0  0  0  0  0  0  0  0  0  0  0  0
   -6.1503    0.9245    7.7176 Cl  0  0  0  0  0  0  0  0  0  0  0  0
   -8.3102   -1.2943    6.4657 Cl  0  0  0  0  0  0  0  0  0  0  0  0
   -3.3255    2.0047    5.8300 C   0  0  0  0  0  0  0  0  0  0  0  0
   -2.6888    0.4814    6.1585 S   0  0  0  0  0  0  0  0  0  0  0  0
   -5.7830    4.0305    3.9161 C   0  0  0  0  0  0  0  0  0  0  0  0
   -5.5357    5.2556    3.2887 C   0  0  0  0  0  0  0  0  0  0  0  0
   -4.0995    5.8845    3.9235 S   0  0  0  0  0  0  0  0  0  0  0  0
   -6.0131    5.5665    1.9253 C   0  0  0  0  0  0  0  0  0  0  0  0
   -6.5712    4.5990    1.0858 C   0  0  0  0  0  0  0  0  0  0  0  0
   -6.3543    4.8400   -0.2770 C   0  0  0  0  0  0  0  0  0  0  0  0
   -6.5192    3.8870   -1.3001 C   0  0  0  0  0  0  0  0  0  0  0  0
   -6.9132    2.4996   -0.9984 C   0  0  0  0  0  0  0  0  0  0  0  0
   -8.3698    1.7840   -1.4317 S   0  0  0  0  0  0  0  0  0  0  0  0
   -7.9739    0.2382   -0.8884 C   0  0  0  0  0  0  0  0  0  0  0  0
   -8.8553   -0.9676   -1.0277 C   0  0  0  0  0  0  0  0  0  0  0  0
   -8.5938   -1.6773   -2.3499 C   0  0  0  0  0  0  0  0  0  0  0  0
   -6.6679    0.2561   -0.4029 C   0  0  0  0  0  0  0  0  0  0  0  0
   -5.8152   -1.1780    0.1531 Cl  0  0  0  0  0  0  0  0  0  0  0  0
   -6.0768    1.5257   -0.4527 C   0  0  0  0  0  0  0  0  0  0  0  0
   -4.4259    1.8464    0.0619 Cl  0  0  0  0  0  0  0  0  0  0  0  0
   -5.9716    4.2009   -2.5519 C   0  0  0  0  0  0  0  0  0  0  0  0
   -5.2769    5.3899   -2.7984 C   0  0  0  0  0  0  0  0  0  0  0  0
   -5.1702    6.3715   -1.7884 C   0  0  0  0  0  0  0  0  0  0  0  0
   -4.3947    7.6090   -1.9827 C   0  0  0  0  0  0  0  0  0  0  0  0
   -2.7271    7.6866   -2.2003 S   0  0  0  0  0  0  0  0  0  0  0  0
   -2.6430    9.3660   -2.3029 C   0  0  0  0  0  0  0  0  0  0  0  0
   -1.3733   10.1508   -2.4384 C   0  0  0  0  0  0  0  0  0  0  0  0
   -0.8985   10.6485   -1.0781 C   0  0  0  0  0  0  0  0  0  0  0  0
   -3.9252    9.8884   -2.1380 C   0  0  0  0  0  0  0  0  0  0  0  0
   -4.9056    8.9033   -1.9546 C   0  0  0  0  0  0  0  0  0  0  0  0
   -6.6109    9.2606   -1.7231 Cl  0  0  0  0  0  0  0  0  0  0  0  0
   -4.2838   11.6105   -2.1413 Cl  0  0  0  0  0  0  0  0  0  0  0  0
   -5.7078    6.0529   -0.5280 C   0  0  0  0  0  0  0  0  0  0  0  0
   -5.3451    6.7779    0.9494 S   0  0  0  0  0  0  0  0  0  0  0  0
   -4.5700    5.3707   -4.0176 C   0  0  0  0  0  0  0  0  0  0  0  0
   -4.6692    4.1504   -4.6921 C   0  0  0  0  0  0  0  0  0  0  0  0
   -5.6949    3.1376   -3.8156 S   0  0  0  0  0  0  0  0  0  0  0  0
   -3.6553    3.6201   -5.6220 C   0  0  0  0  0  0  0  0  0  0  0  0
   -3.5863    2.2723   -5.9807 C   0  0  0  0  0  0  0  0  0  0  0  0
   -2.2947    1.8535   -6.3327 C   0  0  0  0  0  0  0  0  0  0  0  0
   -1.8794    0.5194   -6.5049 C   0  0  0  0  0  0  0  0  0  0  0  0
   -2.8230   -0.6128   -6.4426 C   0  0  0  0  0  0  0  0  0  0  0  0
   -3.7312   -1.0438   -5.0913 S   0  0  0  0  0  0  0  0  0  0  0  0
   -4.4542   -2.3934   -5.7875 C   0  0  0  0  0  0  0  0  0  0  0  0
   -5.4863   -3.2475   -5.1152 C   0  0  0  0  0  0  0  0  0  0  0  0
   -6.8880   -2.7291   -5.4083 C   0  0  0  0  0  0  0  0  0  0  0  0
   -3.9957   -2.5210   -7.0982 C   0  0  0  0  0  0  0  0  0  0  0  0
   -4.5211   -3.7940   -8.1928 Cl  0  0  0  0  0  0  0  0  0  0  0  0
   -3.0714   -1.5294   -7.4602 C   0  0  0  0  0  0  0  0  0  0  0  0
   -2.3243   -1.4335   -9.0511 Cl  0  0  0  0  0  0  0  0  0  0  0  0
   -0.4971    0.2964   -6.6106 C   0  0  0  0  0  0  0  0  0  0  0  0
    0.4421    1.3316   -6.5949 C   0  0  0  0  0  0  0  0  0  0  0  0
    0.0192    2.6738   -6.5002 C   0  0  0  0  0  0  0  0  0  0  0  0
    0.9714    3.7964   -6.4771 C   0  0  0  0  0  0  0  0  0  0  0  0
    2.0982    4.0913   -5.2613 S   0  0  0  0  0  0  0  0  0  0  0  0
    2.7403    5.4858   -5.9542 C   0  0  0  0  0  0  0  0  0  0  0  0
    3.7961    6.3437   -5.3243 C   0  0  0  0  0  0  0  0  0  0  0  0
    3.1642    7.4984   -4.5542 C   0  0  0  0  0  0  0  0  0  0  0  0
    2.0606    5.7495   -7.1417 C   0  0  0  0  0  0  0  0  0  0  0  0
    1.0680    4.8029   -7.4343 C   0  0  0  0  0  0  0  0  0  0  0  0
    0.0571    4.8701   -8.8720 Cl  0  0  0  0  0  0  0  0  0  0  0  0
    2.4072    7.1312   -8.1707 Cl  0  0  0  0  0  0  0  0  0  0  0  0
   -1.3614    2.8963   -6.3446 C   0  0  0  0  0  0  0  0  0  0  0  0
   -2.1280    4.3108   -5.8469 S   0  0  0  0  0  0  0  0  0  0  0  0
    1.7702    0.8708   -6.5649 C   0  0  0  0  0  0  0  0  0  0  0  0
    1.8657   -0.5220   -6.4977 C   0  0  0  0  0  0  0  0  0  0  0  0
    0.3086   -1.1743   -6.5380 S   0  0  0  0  0  0  0  0  0  0  0  0
    3.0940   -1.2949   -6.1988 C   0  0  0  0  0  0  0  0  0  0  0  0
    2.9946   -2.5155   -5.4936 C   0  0  0  0  0  0  0  0  0  0  0  0
    4.1390   -3.2281   -5.0974 C   0  0  0  0  0  0  0  0  0  0  0  0
    5.3892   -2.7217   -5.4825 C   0  0  0  0  0  0  0  0  0  0  0  0
    5.5085   -1.5315   -6.2034 C   0  0  0  0  0  0  0  0  0  0  0  0
    4.3650   -0.8011   -6.5547 C   0  0  0  0  0  0  0  0  0  0  0  0
    6.8428   -1.2167   -6.5185 C   0  0  0  0  0  0  0  0  0  0  0  0
    7.7424   -2.1743   -6.0568 C   0  0  0  0  0  0  0  0  0  0  0  0
    6.9204   -3.4047   -5.2569 S   0  0  0  0  0  0  0  0  0  0  0  0
    9.1131   -2.0657   -6.2726 C   0  0  0  0  0  0  0  0  0  0  0  0
    9.5890   -0.9453   -6.9710 C   0  0  0  0  0  0  0  0  0  0  0  0
    8.6948    0.0347   -7.4400 C   0  0  0  0  0  0  0  0  0  0  0  0
    7.3127   -0.0969   -7.2199 C   0  0  0  0  0  0  0  0  0  0  0  0
    3.9631   -4.4773   -4.3305 C   0  0  0  0  0  0  0  0  0  0  0  0
    4.6661   -4.7521   -3.2254 C   0  0  0  0  0  0  0  0  0  0  0  0
    4.4241   -5.9516   -2.4021 C   0  0  0  0  0  0  0  0  0  0  0  0
    3.5045   -6.9751   -2.6478 C   0  0  0  0  0  0  0  0  0  0  0  0
    3.5317   -7.9868   -1.6752 C   0  0  0  0  0  0  0  0  0  0  0  0
    2.7180   -9.1368   -1.6539 C   0  0  0  0  0  0  0  0  0  0  0  0
    1.7537   -9.4275   -2.7289 C   0  0  0  0  0  0  0  0  0  0  0  0
    0.0806   -9.4214   -2.5510 S   0  0  0  0  0  0  0  0  0  0  0  0
   -0.2709   -9.7730   -4.1603 C   0  0  0  0  0  0  0  0  0  0  0  0
   -1.6516   -9.8312   -4.7392 C   0  0  0  0  0  0  0  0  0  0  0  0
   -2.0702   -8.4660   -5.2738 C   0  0  0  0  0  0  0  0  0  0  0  0
    0.9284   -9.8829   -4.8648 C   0  0  0  0  0  0  0  0  0  0  0  0
    1.0140  -10.2094   -6.5908 Cl  0  0  0  0  0  0  0  0  0  0  0  0
    2.0627   -9.6983   -4.0608 C   0  0  0  0  0  0  0  0  0  0  0  0
    3.7082   -9.8148   -4.6713 Cl  0  0  0  0  0  0  0  0  0  0  0  0
    2.8892  -10.0151   -0.5738 C   0  0  0  0  0  0  0  0  0  0  0  0
    3.8344   -9.7969    0.4330 C   0  0  0  0  0  0  0  0  0  0  0  0
    4.6529   -8.6464    0.4142 C   0  0  0  0  0  0  0  0  0  0  0  0
    5.6753   -8.4052    1.4529 C   0  0  0  0  0  0  0  0  0  0  0  0
    5.3687   -8.3054    3.1072 S   0  0  0  0  0  0  0  0  0  0  0  0
    6.9775   -8.1948    3.5856 C   0  0  0  0  0  0  0  0  0  0  0  0
    7.4416   -8.1147    5.0086 C   0  0  0  0  0  0  0  0  0  0  0  0
    7.4431   -6.6750    5.5020 C   0  0  0  0  0  0  0  0  0  0  0  0
    7.7808   -8.2128    2.4470 C   0  0  0  0  0  0  0  0  0  0  0  0
    7.0532   -8.3463    1.2537 C   0  0  0  0  0  0  0  0  0  0  0  0
    7.8212   -8.5269   -0.3195 Cl  0  0  0  0  0  0  0  0  0  0  0  0
    9.5360   -8.1198    2.4961 Cl  0  0  0  0  0  0  0  0  0  0  0  0
    4.4667   -7.7556   -0.6604 C   0  0  0  0  0  0  0  0  0  0  0  0
    5.2523   -6.2968   -0.9698 S   0  0  0  0  0  0  0  0  0  0  0  0
    3.8852  -10.8460    1.3678 C   0  0  0  0  0  0  0  0  0  0  0  0
    2.9815  -11.8682    1.0966 C   0  0  0  0  0  0  0  0  0  0  0  0
    2.1244  -11.4876   -0.3020 S   0  0  0  0  0  0  0  0  0  0  0  0
    6.2901   -4.3383    3.9763 H   0  0  0  0  0  0  0  0  0  0  0  0
    6.2624   -1.9171    4.9163 H   0  0  0  0  0  0  0  0  0  0  0  0
    7.7159    3.5796    6.9107 H   0  0  0  0  0  0  0  0  0  0  0  0
    6.9921    2.9608    8.4330 H   0  0  0  0  0  0  0  0  0  0  0  0
    4.9002    4.2368    8.0141 H   0  0  0  0  0  0  0  0  0  0  0  0
    6.3342    5.3358    7.9680 H   0  0  0  0  0  0  0  0  0  0  0  0
    5.5528    4.8204    6.4269 H   0  0  0  0  0  0  0  0  0  0  0  0
   -0.7933   -7.0919    2.5918 H   0  0  0  0  0  0  0  0  0  0  0  0
   -1.6000   -7.7458    4.0561 H   0  0  0  0  0  0  0  0  0  0  0  0
   -3.4093   -6.0195    3.8377 H   0  0  0  0  0  0  0  0  0  0  0  0
   -3.2587   -7.0147    2.3402 H   0  0  0  0  0  0  0  0  0  0  0  0
   -2.5826   -5.3399    2.3779 H   0  0  0  0  0  0  0  0  0  0  0  0
   -0.7766   -1.7653    5.9647 H   0  0  0  0  0  0  0  0  0  0  0  0
   -0.1825    2.9883    6.4837 H   0  0  0  0  0  0  0  0  0  0  0  0
    2.5500    6.5367    4.4800 H   0  0  0  0  0  0  0  0  0  0  0  0
    2.4536    7.6814    5.8623 H   0  0  0  0  0  0  0  0  0  0  0  0
    1.1107    9.2705    4.4740 H   0  0  0  0  0  0  0  0  0  0  0  0
    2.6752    8.8728    3.6725 H   0  0  0  0  0  0  0  0  0  0  0  0
    1.1500    8.1016    3.0897 H   0  0  0  0  0  0  0  0  0  0  0  0
   -9.0425   -1.3718    3.5772 H   0  0  0  0  0  0  0  0  0  0  0  0
   -8.0153   -0.9330    2.1764 H   0  0  0  0  0  0  0  0  0  0  0  0
   -7.9957   -3.3841    2.5273 H   0  0  0  0  0  0  0  0  0  0  0  0
   -7.4122   -3.1675    4.2210 H   0  0  0  0  0  0  0  0  0  0  0  0
   -6.3505   -2.7007    2.8297 H   0  0  0  0  0  0  0  0  0  0  0  0
   -6.6097    3.3916    3.6469 H   0  0  0  0  0  0  0  0  0  0  0  0
   -6.9659    3.6603    1.4456 H   0  0  0  0  0  0  0  0  0  0  0  0
   -8.6780   -1.6695   -0.1844 H   0  0  0  0  0  0  0  0  0  0  0  0
   -9.9196   -0.6513   -0.9876 H   0  0  0  0  0  0  0  0  0  0  0  0
   -8.8573   -1.0095   -3.1980 H   0  0  0  0  0  0  0  0  0  0  0  0
   -7.5247   -1.9702   -2.4266 H   0  0  0  0  0  0  0  0  0  0  0  0
   -9.2198   -2.5941   -2.4086 H   0  0  0  0  0  0  0  0  0  0  0  0
   -0.5889    9.5056   -2.8866 H   0  0  0  0  0  0  0  0  0  0  0  0
   -1.5381   11.0151   -3.1166 H   0  0  0  0  0  0  0  0  0  0  0  0
    0.0642   11.1894   -1.1953 H   0  0  0  0  0  0  0  0  0  0  0  0
   -1.6443   11.3452   -0.6415 H   0  0  0  0  0  0  0  0  0  0  0  0
   -0.7475    9.7935   -0.3863 H   0  0  0  0  0  0  0  0  0  0  0  0
   -3.8925    6.1558   -4.3258 H   0  0  0  0  0  0  0  0  0  0  0  0
   -4.4135    1.5912   -5.8504 H   0  0  0  0  0  0  0  0  0  0  0  0
   -5.3964   -4.2995   -5.4600 H   0  0  0  0  0  0  0  0  0  0  0  0
   -5.3135   -3.2374   -4.0184 H   0  0  0  0  0  0  0  0  0  0  0  0
   -7.0027   -1.6953   -5.0185 H   0  0  0  0  0  0  0  0  0  0  0  0
   -7.0829   -2.7309   -6.5010 H   0  0  0  0  0  0  0  0  0  0  0  0
   -7.6357   -3.3833   -4.9116 H   0  0  0  0  0  0  0  0  0  0  0  0
    4.4045    5.7274   -4.6294 H   0  0  0  0  0  0  0  0  0  0  0  0
    4.4742    6.7445   -6.1101 H   0  0  0  0  0  0  0  0  0  0  0  0
    3.9604    8.0901   -4.0542 H   0  0  0  0  0  0  0  0  0  0  0  0
    2.6097    8.1646   -5.2474 H   0  0  0  0  0  0  0  0  0  0  0  0
    2.4691    7.1085   -3.7811 H   0  0  0  0  0  0  0  0  0  0  0  0
    2.6275    1.5243   -6.4981 H   0  0  0  0  0  0  0  0  0  0  0  0
    2.0227   -2.8939   -5.2009 H   0  0  0  0  0  0  0  0  0  0  0  0
    4.4543    0.1231   -7.1103 H   0  0  0  0  0  0  0  0  0  0  0  0
    9.7955   -2.8251   -5.9132 H   0  0  0  0  0  0  0  0  0  0  0  0
   10.6521   -0.8332   -7.1485 H   0  0  0  0  0  0  0  0  0  0  0  0
    9.0744    0.8950   -7.9730 H   0  0  0  0  0  0  0  0  0  0  0  0
    6.6399    0.6649   -7.5869 H   0  0  0  0  0  0  0  0  0  0  0  0
    3.1455   -5.1172   -4.6278 H   0  0  0  0  0  0  0  0  0  0  0  0
    5.4235   -4.0569   -2.8860 H   0  0  0  0  0  0  0  0  0  0  0  0
    2.8368   -6.9959   -3.4969 H   0  0  0  0  0  0  0  0  0  0  0  0
   -2.3679  -10.1540   -3.9536 H   0  0  0  0  0  0  0  0  0  0  0  0
   -1.6858  -10.5787   -5.5605 H   0  0  0  0  0  0  0  0  0  0  0  0
   -3.0790   -8.5377   -5.7289 H   0  0  0  0  0  0  0  0  0  0  0  0
   -2.1018   -7.7258   -4.4474 H   0  0  0  0  0  0  0  0  0  0  0  0
   -1.3545   -8.1170   -6.0483 H   0  0  0  0  0  0  0  0  0  0  0  0
    8.4642   -8.5381    5.1038 H   0  0  0  0  0  0  0  0  0  0  0  0
    6.7668   -8.7206    5.6486 H   0  0  0  0  0  0  0  0  0  0  0  0
    8.0672   -6.0365    4.8413 H   0  0  0  0  0  0  0  0  0  0  0  0
    7.8591   -6.6360    6.5301 H   0  0  0  0  0  0  0  0  0  0  0  0
    6.4044   -6.2836    5.5269 H   0  0  0  0  0  0  0  0  0  0  0  0
    4.5667  -10.8864    2.2043 H   0  0  0  0  0  0  0  0  0  0  0  0
    2.8673  -12.7706    1.6810 H   0  0  0  0  0  0  0  0  0  0  0  0
  1  2  2  0
  2  3  1  0
  3  4  2  0
  4  5  1  0
  5  6  1  0
  6  7  1  0
  7  8  1  0
  8  9  1  0
  7 10  2  0
 10 11  1  0
 10 12  1  0
 12 13  1  0
  4 14  1  0
 14 15  2  0
 15 16  1  0
 16 17  1  0
 17 18  1  0
 18 19  1  0
 19 20  1  0
 20 21  1  0
 19 22  2  0
 22 23  1  0
 23 24  1  0
 22 25  1  0
 16 26  2  0
 26 27  1  0
 15 28  1  0
 28 29  2  0
 29 30  1  0
 29 31  1  0
 31 32  2  0
 32 33  1  0
 33 34  2  0
 34 35  1  0
 35 36  1  0
 36 37  1  0
 37 38  1  0
 38 39  1  0
 37 40  2  0
 40 41  1  0
 40 42  1  0
 42 43  1  0
 34 44  1  0
 44 45  2  0
 45 46  1  0
 46 47  1  0
 47 48  1  0
 48 49  1  0
 49 50  1  0
 50 51  1  0
 49 52  2  0
 52 53  1  0
 53 54  1  0
 52 55  1  0
 46 56  2  0
 56 57  1  0
 45 58  1  0
 58 59  2  0
 59 60  1  0
 59 61  1  0
 61 62  2  0
 62 63  1  0
 63 64  2  0
 64 65  1  0
 65 66  1  0
 66 67  1  0
 67 68  1  0
 68 69  1  0
 67 70  2  0
 70 71  1  0
 70 72  1  0
 72 73  1  0
 64 74  1  0
 74 75  2  0
 75 76  1  0
 76 77  1  0
 77 78  1  0
 78 79  1  0
 79 80  1  0
 80 81  1  0
 79 82  2  0
 82 83  1  0
 83 84  1  0
 82 85  1  0
 76 86  2  0
 86 87  1  0
 75 88  1  0
 88 89  2  0
 89 90  1  0
 89 91  1  0
 91 92  2  0
 92 93  1  0
 93 94  2  0
 94 95  1  0
 95 96  1  0
 96 97  1  0
 97 98  1  0
 98 99  1  0
 97100  2  0
100101  1  0
100102  1  0
102103  1  0
 94104  1  0
104105  2  0
105106  1  0
106107  1  0
107108  1  0
108109  1  0
109110  1  0
110111  1  0
109112  2  0
112113  1  0
113114  1  0
112115  1  0
106116  2  0
116117  1  0
105118  1  0
118119  2  0
119120  1  0
119121  1  0
121122  2  0
122123  1  0
123124  2  0
124125  1  0
125126  2  0
125127  1  0
127128  2  0
128129  1  0
128130  1  0
130131  2  0
131132  1  0
132133  2  0
123134  1  0
134135  2  3
135136  1  0
136137  2  0
137138  1  0
138139  2  0
139140  1  0
140141  1  0
141142  1  0
142143  1  0
143144  1  0
142145  2  0
145146  1  0
145147  1  0
147148  1  0
139149  1  0
149150  2  0
150151  1  0
151152  1  0
152153  1  0
153154  1  0
154155  1  0
155156  1  0
154157  2  0
157158  1  0
158159  1  0
157160  1  0
151161  2  0
161162  1  0
150163  1  0
163164  2  0
164165  1  0
 27  1  1  0
 57 31  1  0
 87 61  1  0
117 91  1  0
126121  1  0
133127  1  0
162136  1  0
 26  3  1  0
 56 33  1  0
 86 63  1  0
116 93  1  0
129124  1  0
161138  1  0
 12  5  2  0
 30 14  1  0
 42 35  2  0
 60 44  1  0
 72 65  2  0
 90 74  1  0
102 95  2  0
120104  1  0
147140  2  0
165149  1  0
 23 17  2  0
 53 47  2  0
 83 77  2  0
113107  2  0
158152  2  0
  1166  1  0
  2167  1  0
  8168  1  0
  8169  1  0
  9170  1  0
  9171  1  0
  9172  1  0
 20173  1  0
 20174  1  0
 21175  1  0
 21176  1  0
 21177  1  0
 28178  1  0
 32179  1  0
 38180  1  0
 38181  1  0
 39182  1  0
 39183  1  0
 39184  1  0
 50185  1  0
 50186  1  0
 51187  1  0
 51188  1  0
 51189  1  0
 58190  1  0
 62191  1  0
 68192  1  0
 68193  1  0
 69194  1  0
 69195  1  0
 69196  1  0
 80197  1  0
 80198  1  0
 81199  1  0
 81200  1  0
 81201  1  0
 88202  1  0
 92203  1  0
 98204  1  0
 98205  1  0
 99206  1  0
 99207  1  0
 99208  1  0
110209  1  0
110210  1  0
111211  1  0
111212  1  0
111213  1  0
118214  1  0
122215  1  0
126216  1  0
130217  1  0
131218  1  0
132219  1  0
133220  1  0
134221  1  0
135222  1  0
137223  1  0
143224  1  0
143225  1  0
144226  1  0
144227  1  0
144228  1  0
155229  1  0
155230  1  0
156231  1  0
156232  1  0
156233  1  0
163234  1  0
164235  1  0
M  END

