
     RDKit          3D

220241  0  0  0  0  0  0  0  0999 V2000
   -2.5254    8.9532    0.5575 C   0  0  0  0  0  0  0  0  0  0  0  0
   -2.6938    8.2576    1.7512 C   0  0  0  0  0  0  0  0  0  0  0  0
   -3.3911    7.0487    1.5916 C   0  0  0  0  0  0  0  0  0  0  0  0
   -3.6584    6.1025    2.6004 C   0  0  0  0  0  0  0  0  0  0  0  0
   -3.1353    6.2488    3.9739 C   0  0  0  0  0  0  0  0  0  0  0  0
   -3.6441    7.2332    4.8338 C   0  0  0  0  0  0  0  0  0  0  0  0
   -3.1592    7.3403    6.1389 C   0  0  0  0  0  0  0  0  0  0  0  0
   -2.1717    6.4603    6.6011 C   0  0  0  0  0  0  0  0  0  0  0  0
   -1.5779    6.5937    8.2920 S   0  0  0  0  0  0  0  0  0  0  0  0
   -2.8939    5.5453    9.0089 C   0  0  0  0  0  0  0  0  0  0  0  0
   -2.5301    4.0695    8.9045 C   0  0  0  0  0  0  0  0  0  0  0  0
   -1.6440    5.4893    5.7360 C   0  0  0  0  0  0  0  0  0  0  0  0
   -0.6617    4.6548    6.1563 F   0  0  0  0  0  0  0  0  0  0  0  0
   -2.1250    5.3855    4.4297 C   0  0  0  0  0  0  0  0  0  0  0  0
   -4.3401    4.9381    2.2115 C   0  0  0  0  0  0  0  0  0  0  0  0
   -4.6929    4.6771    0.8822 C   0  0  0  0  0  0  0  0  0  0  0  0
   -4.3953    5.6083   -0.1344 C   0  0  0  0  0  0  0  0  0  0  0  0
   -4.6372    5.3094   -1.5636 C   0  0  0  0  0  0  0  0  0  0  0  0
   -3.9778    4.2313   -2.1757 C   0  0  0  0  0  0  0  0  0  0  0  0
   -4.2095    3.9361   -3.5205 C   0  0  0  0  0  0  0  0  0  0  0  0
   -5.0954    4.7171   -4.2707 C   0  0  0  0  0  0  0  0  0  0  0  0
   -5.3736    4.3362   -6.0078 S   0  0  0  0  0  0  0  0  0  0  0  0
   -6.8525    3.2960   -5.7229 C   0  0  0  0  0  0  0  0  0  0  0  0
   -6.4608    1.8702   -5.3449 C   0  0  0  0  0  0  0  0  0  0  0  0
   -5.7440    5.8087   -3.6698 C   0  0  0  0  0  0  0  0  0  0  0  0
   -5.5165    6.1000   -2.3190 C   0  0  0  0  0  0  0  0  0  0  0  0
   -6.5937    6.5832   -4.3900 F   0  0  0  0  0  0  0  0  0  0  0  0
   -3.7604    6.7974    0.2659 C   0  0  0  0  0  0  0  0  0  0  0  0
   -3.2226    8.0675   -0.6996 S   0  0  0  0  0  0  0  0  0  0  0  0
   -5.2928    3.4195    0.7107 C   0  0  0  0  0  0  0  0  0  0  0  0
   -5.4073    2.7020    1.9017 C   0  0  0  0  0  0  0  0  0  0  0  0
   -4.7736    3.6215    3.1693 S   0  0  0  0  0  0  0  0  0  0  0  0
   -5.7050    1.2685    1.9993 C   0  0  0  0  0  0  0  0  0  0  0  0
   -5.4010    0.3499    0.9969 C   0  0  0  0  0  0  0  0  0  0  0  0
   -5.3704   -0.9755    1.4554 C   0  0  0  0  0  0  0  0  0  0  0  0
   -4.8627   -2.0772    0.7347 C   0  0  0  0  0  0  0  0  0  0  0  0
   -4.3771   -1.9204   -0.6592 C   0  0  0  0  0  0  0  0  0  0  0  0
   -5.2649   -1.5400   -1.6752 C   0  0  0  0  0  0  0  0  0  0  0  0
   -4.7990   -1.3521   -2.9813 C   0  0  0  0  0  0  0  0  0  0  0  0
   -3.4455   -1.5368   -3.2788 C   0  0  0  0  0  0  0  0  0  0  0  0
   -2.8727   -1.3286   -4.9685 S   0  0  0  0  0  0  0  0  0  0  0  0
   -3.0114   -3.1061   -5.3600 C   0  0  0  0  0  0  0  0  0  0  0  0
   -2.9054   -3.3186   -6.8629 C   0  0  0  0  0  0  0  0  0  0  0  0
   -2.5481   -1.8890   -2.2602 C   0  0  0  0  0  0  0  0  0  0  0  0
   -1.2328   -2.0601   -2.5328 F   0  0  0  0  0  0  0  0  0  0  0  0
   -3.0136   -2.0770   -0.9543 C   0  0  0  0  0  0  0  0  0  0  0  0
   -4.6409   -3.2593    1.4685 C   0  0  0  0  0  0  0  0  0  0  0  0
   -4.9081   -3.3628    2.8374 C   0  0  0  0  0  0  0  0  0  0  0  0
   -5.5082   -2.2908    3.5295 C   0  0  0  0  0  0  0  0  0  0  0  0
   -5.9000   -2.3824    4.9525 C   0  0  0  0  0  0  0  0  0  0  0  0
   -7.2538   -2.2757    5.3010 C   0  0  0  0  0  0  0  0  0  0  0  0
   -7.6478   -2.4045    6.6345 C   0  0  0  0  0  0  0  0  0  0  0  0
   -6.6966   -2.6438    7.6330 C   0  0  0  0  0  0  0  0  0  0  0  0
   -7.2306   -2.8348    9.3391 S   0  0  0  0  0  0  0  0  0  0  0  0
   -7.6429   -4.6109    9.1946 C   0  0  0  0  0  0  0  0  0  0  0  0
   -6.4121   -5.4747    9.4289 C   0  0  0  0  0  0  0  0  0  0  0  0
   -5.3367   -2.7069    7.2931 C   0  0  0  0  0  0  0  0  0  0  0  0
   -4.9402   -2.5715    5.9587 C   0  0  0  0  0  0  0  0  0  0  0  0
   -4.3996   -2.8923    8.2566 F   0  0  0  0  0  0  0  0  0  0  0  0
   -5.6942   -1.0972    2.8112 C   0  0  0  0  0  0  0  0  0  0  0  0
   -5.9766    0.4377    3.4443 S   0  0  0  0  0  0  0  0  0  0  0  0
   -4.3542   -4.5219    3.4173 C   0  0  0  0  0  0  0  0  0  0  0  0
   -3.6166   -5.3025    2.5241 C   0  0  0  0  0  0  0  0  0  0  0  0
   -3.7622   -4.6041    0.9948 S   0  0  0  0  0  0  0  0  0  0  0  0
   -2.3007   -5.8329    2.8995 C   0  0  0  0  0  0  0  0  0  0  0  0
   -1.2538   -4.9333    3.0816 C   0  0  0  0  0  0  0  0  0  0  0  0
   -0.0135   -5.4039    2.6325 C   0  0  0  0  0  0  0  0  0  0  0  0
    1.1159   -4.5964    2.4109 C   0  0  0  0  0  0  0  0  0  0  0  0
    1.1111   -3.1639    2.7788 C   0  0  0  0  0  0  0  0  0  0  0  0
    1.1068   -2.7937    4.1310 C   0  0  0  0  0  0  0  0  0  0  0  0
    0.9377   -1.4575    4.4927 C   0  0  0  0  0  0  0  0  0  0  0  0
    0.7663   -0.4749    3.5106 C   0  0  0  0  0  0  0  0  0  0  0  0
    0.4252    1.2187    4.0003 S   0  0  0  0  0  0  0  0  0  0  0  0
    2.1742    1.7235    4.1400 C   0  0  0  0  0  0  0  0  0  0  0  0
    2.5385    2.6573    2.9978 C   0  0  0  0  0  0  0  0  0  0  0  0
    0.7960   -0.8355    2.1530 C   0  0  0  0  0  0  0  0  0  0  0  0
    0.6085    0.0998    1.1885 F   0  0  0  0  0  0  0  0  0  0  0  0
    0.9717   -2.1744    1.7919 C   0  0  0  0  0  0  0  0  0  0  0  0
    2.1501   -5.1581    1.6478 C   0  0  0  0  0  0  0  0  0  0  0  0
    2.1242   -6.4787    1.1907 C   0  0  0  0  0  0  0  0  0  0  0  0
    1.0390   -7.3272    1.5145 C   0  0  0  0  0  0  0  0  0  0  0  0
    1.0916   -8.7855    1.2521 C   0  0  0  0  0  0  0  0  0  0  0  0
    0.0430   -9.4666    0.6103 C   0  0  0  0  0  0  0  0  0  0  0  0
    0.0576  -10.8617    0.5231 C   0  0  0  0  0  0  0  0  0  0  0  0
    1.1375  -11.5909    1.0381 C   0  0  0  0  0  0  0  0  0  0  0  0
    1.1289  -13.3896    0.9587 S   0  0  0  0  0  0  0  0  0  0  0  0
    0.6563  -13.6379    2.7101 C   0  0  0  0  0  0  0  0  0  0  0  0
   -0.8465  -13.4746    2.9045 C   0  0  0  0  0  0  0  0  0  0  0  0
    2.2236  -10.9122    1.6058 C   0  0  0  0  0  0  0  0  0  0  0  0
    2.1892   -9.5218    1.7304 C   0  0  0  0  0  0  0  0  0  0  0  0
    3.2941  -11.6018    2.0743 F   0  0  0  0  0  0  0  0  0  0  0  0
   -0.0538   -6.7254    2.1762 C   0  0  0  0  0  0  0  0  0  0  0  0
   -1.6547   -7.2583    2.2677 S   0  0  0  0  0  0  0  0  0  0  0  0
    3.1543   -6.7648    0.2687 C   0  0  0  0  0  0  0  0  0  0  0  0
    3.9530   -5.6541   -0.0227 C   0  0  0  0  0  0  0  0  0  0  0  0
    3.4310   -4.3562    0.9231 S   0  0  0  0  0  0  0  0  0  0  0  0
    4.8366   -5.4565   -1.1975 C   0  0  0  0  0  0  0  0  0  0  0  0
    5.6912   -4.0305   -1.4237 S   0  0  0  0  0  0  0  0  0  0  0  0
    5.9925   -4.1764   -3.0658 C   0  0  0  0  0  0  0  0  0  0  0  0
    5.4196   -5.3835   -3.4864 C   0  0  0  0  0  0  0  0  0  0  0  0
    4.7796   -6.1002   -2.4450 C   0  0  0  0  0  0  0  0  0  0  0  0
    4.0334   -7.3100   -2.6967 C   0  0  0  0  0  0  0  0  0  0  0  0
    3.4413   -8.2850   -2.8998 N   0  0  0  0  0  0  0  0  0  0  0  0
    5.3346   -5.7807   -4.8708 C   0  0  0  0  0  0  0  0  0  0  0  0
    5.2774   -6.0991   -5.9814 N   0  0  0  0  0  0  0  0  0  0  0  0
    6.3790   -3.0156   -3.8942 C   0  0  0  0  0  0  0  0  0  0  0  0
    5.9663   -1.4469   -3.4697 S   0  0  0  0  0  0  0  0  0  0  0  0
    6.7214   -0.6660   -4.7404 C   0  0  0  0  0  0  0  0  0  0  0  0
    7.3354   -1.6342   -5.5372 C   0  0  0  0  0  0  0  0  0  0  0  0
    7.1585   -2.9538   -5.0564 C   0  0  0  0  0  0  0  0  0  0  0  0
    7.8490   -4.0901   -5.6142 C   0  0  0  0  0  0  0  0  0  0  0  0
    8.4078   -5.0023   -6.0551 N   0  0  0  0  0  0  0  0  0  0  0  0
    8.1564   -1.3091   -6.6803 C   0  0  0  0  0  0  0  0  0  0  0  0
    8.8109   -1.0495   -7.5974 N   0  0  0  0  0  0  0  0  0  0  0  0
    6.8413    0.8013   -4.8120 C   0  0  0  0  0  0  0  0  0  0  0  0
    6.8615    1.6039   -3.6775 C   0  0  0  0  0  0  0  0  0  0  0  0
    6.8381    2.9718   -3.9680 C   0  0  0  0  0  0  0  0  0  0  0  0
    6.8145    4.0044   -3.0135 C   0  0  0  0  0  0  0  0  0  0  0  0
    6.8266    3.6897   -1.5752 C   0  0  0  0  0  0  0  0  0  0  0  0
    5.6237    3.6989   -0.8586 C   0  0  0  0  0  0  0  0  0  0  0  0
    5.5511    3.0769    0.3906 C   0  0  0  0  0  0  0  0  0  0  0  0
    6.6734    2.4348    0.9273 C   0  0  0  0  0  0  0  0  0  0  0  0
    6.5171    1.4630    2.4290 S   0  0  0  0  0  0  0  0  0  0  0  0
    6.2423   -0.1290    1.5588 C   0  0  0  0  0  0  0  0  0  0  0  0
    4.7689   -0.3262    1.2147 C   0  0  0  0  0  0  0  0  0  0  0  0
    7.9003    2.5015    0.2506 C   0  0  0  0  0  0  0  0  0  0  0  0
    9.0028    1.9007    0.7660 F   0  0  0  0  0  0  0  0  0  0  0  0
    7.9744    3.1237   -0.9993 C   0  0  0  0  0  0  0  0  0  0  0  0
    6.6898    5.3127   -3.5015 C   0  0  0  0  0  0  0  0  0  0  0  0
    6.6083    5.6013   -4.8684 C   0  0  0  0  0  0  0  0  0  0  0  0
    6.6587    4.5626   -5.8266 C   0  0  0  0  0  0  0  0  0  0  0  0
    6.4598    4.8450   -7.2590 C   0  0  0  0  0  0  0  0  0  0  0  0
    5.2504    4.4995   -7.8761 C   0  0  0  0  0  0  0  0  0  0  0  0
    4.9708    4.9480   -9.1692 C   0  0  0  0  0  0  0  0  0  0  0  0
    5.8971    5.7393   -9.8579 C   0  0  0  0  0  0  0  0  0  0  0  0
    5.4549    6.4325  -11.4575 S   0  0  0  0  0  0  0  0  0  0  0  0
    4.9663    8.0722  -10.8009 C   0  0  0  0  0  0  0  0  0  0  0  0
    3.6950    7.9979   -9.9620 C   0  0  0  0  0  0  0  0  0  0  0  0
    7.1433    6.0124   -9.2778 C   0  0  0  0  0  0  0  0  0  0  0  0
    7.4191    5.5757   -7.9767 C   0  0  0  0  0  0  0  0  0  0  0  0
    8.0582    6.7647   -9.9392 F   0  0  0  0  0  0  0  0  0  0  0  0
    6.7735    3.2459   -5.3374 C   0  0  0  0  0  0  0  0  0  0  0  0
    6.7706    1.7829   -6.1900 S   0  0  0  0  0  0  0  0  0  0  0  0
    6.4268    6.9712   -5.1275 C   0  0  0  0  0  0  0  0  0  0  0  0
    6.3839    7.7467   -3.9721 C   0  0  0  0  0  0  0  0  0  0  0  0
    6.5550    6.7434   -2.6264 S   0  0  0  0  0  0  0  0  0  0  0  0
   -2.0242    9.9042    0.4524 H   0  0  0  0  0  0  0  0  0  0  0  0
   -2.3126    8.6188    2.6959 H   0  0  0  0  0  0  0  0  0  0  0  0
   -4.4214    7.9034    4.4926 H   0  0  0  0  0  0  0  0  0  0  0  0
   -3.5601    8.1027    6.7976 H   0  0  0  0  0  0  0  0  0  0  0  0
   -3.0036    5.8111   10.0798 H   0  0  0  0  0  0  0  0  0  0  0  0
   -3.8671    5.7341    8.5074 H   0  0  0  0  0  0  0  0  0  0  0  0
   -2.4807    3.7545    7.8439 H   0  0  0  0  0  0  0  0  0  0  0  0
   -1.5521    3.8823    9.3945 H   0  0  0  0  0  0  0  0  0  0  0  0
   -3.3061    3.4598    9.4132 H   0  0  0  0  0  0  0  0  0  0  0  0
   -1.7079    4.6373    3.7679 H   0  0  0  0  0  0  0  0  0  0  0  0
   -3.2838    3.6234   -1.6116 H   0  0  0  0  0  0  0  0  0  0  0  0
   -3.6965    3.1024   -3.9811 H   0  0  0  0  0  0  0  0  0  0  0  0
   -7.5014    3.7373   -4.9338 H   0  0  0  0  0  0  0  0  0  0  0  0
   -7.4365    3.2615   -6.6677 H   0  0  0  0  0  0  0  0  0  0  0  0
   -5.9300    1.8554   -4.3704 H   0  0  0  0  0  0  0  0  0  0  0  0
   -7.3753    1.2450   -5.2533 H   0  0  0  0  0  0  0  0  0  0  0  0
   -5.8032    1.4332   -6.1274 H   0  0  0  0  0  0  0  0  0  0  0  0
   -6.0337    6.9340   -1.8631 H   0  0  0  0  0  0  0  0  0  0  0  0
   -5.5918    3.0226   -0.2506 H   0  0  0  0  0  0  0  0  0  0  0  0
   -5.0704    0.6508    0.0106 H   0  0  0  0  0  0  0  0  0  0  0  0
   -6.3145   -1.3821   -1.4558 H   0  0  0  0  0  0  0  0  0  0  0  0
   -5.4934   -1.0658   -3.7593 H   0  0  0  0  0  0  0  0  0  0  0  0
   -3.9842   -3.5019   -5.0023 H   0  0  0  0  0  0  0  0  0  0  0  0
   -2.1852   -3.6532   -4.8564 H   0  0  0  0  0  0  0  0  0  0  0  0
   -1.9532   -2.8951   -7.2431 H   0  0  0  0  0  0  0  0  0  0  0  0
   -3.7592   -2.8295   -7.3756 H   0  0  0  0  0  0  0  0  0  0  0  0
   -2.9244   -4.4046   -7.0959 H   0  0  0  0  0  0  0  0  0  0  0  0
   -2.3071   -2.3276   -0.1735 H   0  0  0  0  0  0  0  0  0  0  0  0
   -8.0052   -2.1057    4.5415 H   0  0  0  0  0  0  0  0  0  0  0  0
   -8.6991   -2.3302    6.8917 H   0  0  0  0  0  0  0  0  0  0  0  0
   -8.4028   -4.8512    9.9632 H   0  0  0  0  0  0  0  0  0  0  0  0
   -8.0852   -4.8403    8.2012 H   0  0  0  0  0  0  0  0  0  0  0  0
   -6.7079   -6.5460    9.4368 H   0  0  0  0  0  0  0  0  0  0  0  0
   -5.6742   -5.3179    8.6170 H   0  0  0  0  0  0  0  0  0  0  0  0
   -5.9533   -5.2213   10.4090 H   0  0  0  0  0  0  0  0  0  0  0  0
   -3.8880   -2.6197    5.7080 H   0  0  0  0  0  0  0  0  0  0  0  0
   -4.3121   -4.6943    4.4829 H   0  0  0  0  0  0  0  0  0  0  0  0
   -1.4326   -3.8904    3.3280 H   0  0  0  0  0  0  0  0  0  0  0  0
    1.2028   -3.5462    4.9049 H   0  0  0  0  0  0  0  0  0  0  0  0
    0.9145   -1.1881    5.5428 H   0  0  0  0  0  0  0  0  0  0  0  0
    2.3008    2.2644    5.1011 H   0  0  0  0  0  0  0  0  0  0  0  0
    2.8647    0.8519    4.1455 H   0  0  0  0  0  0  0  0  0  0  0  0
    3.5812    3.0096    3.1299 H   0  0  0  0  0  0  0  0  0  0  0  0
    1.8664    3.5425    3.0004 H   0  0  0  0  0  0  0  0  0  0  0  0
    2.4582    2.1251    2.0259 H   0  0  0  0  0  0  0  0  0  0  0  0
    0.9547   -2.4481    0.7435 H   0  0  0  0  0  0  0  0  0  0  0  0
   -0.7884   -8.9213    0.1858 H   0  0  0  0  0  0  0  0  0  0  0  0
   -0.7716  -11.3766    0.0536 H   0  0  0  0  0  0  0  0  0  0  0  0
    0.9474  -14.6668    3.0069 H   0  0  0  0  0  0  0  0  0  0  0  0
    1.2010  -12.9309    3.3695 H   0  0  0  0  0  0  0  0  0  0  0  0
   -1.3906  -14.2253    2.2945 H   0  0  0  0  0  0  0  0  0  0  0  0
   -1.1020  -13.6255    3.9739 H   0  0  0  0  0  0  0  0  0  0  0  0
   -1.1719  -12.4579    2.6101 H   0  0  0  0  0  0  0  0  0  0  0  0
    3.0109   -9.0224    2.2321 H   0  0  0  0  0  0  0  0  0  0  0  0
    3.2410   -7.7136   -0.2327 H   0  0  0  0  0  0  0  0  0  0  0  0
    6.8600    1.2032   -2.6721 H   0  0  0  0  0  0  0  0  0  0  0  0
    4.7238    4.1055   -1.2997 H   0  0  0  0  0  0  0  0  0  0  0  0
    4.6057    3.0446    0.9141 H   0  0  0  0  0  0  0  0  0  0  0  0
    6.5661   -0.9518    2.2306 H   0  0  0  0  0  0  0  0  0  0  0  0
    6.8512   -0.1878    0.6299 H   0  0  0  0  0  0  0  0  0  0  0  0
    4.1528   -0.3020    2.1377 H   0  0  0  0  0  0  0  0  0  0  0  0
    4.6343   -1.3120    0.7227 H   0  0  0  0  0  0  0  0  0  0  0  0
    4.4208    0.4622    0.5154 H   0  0  0  0  0  0  0  0  0  0  0  0
    8.9049    3.1002   -1.5537 H   0  0  0  0  0  0  0  0  0  0  0  0
    4.4989    3.9344   -7.3401 H   0  0  0  0  0  0  0  0  0  0  0  0
    4.0118    4.7167   -9.6143 H   0  0  0  0  0  0  0  0  0  0  0  0
    4.7816    8.7464  -11.6639 H   0  0  0  0  0  0  0  0  0  0  0  0
    5.7917    8.5087  -10.1963 H   0  0  0  0  0  0  0  0  0  0  0  0
    3.8975    7.5116   -8.9846 H   0  0  0  0  0  0  0  0  0  0  0  0
    3.3219    9.0256   -9.7590 H   0  0  0  0  0  0  0  0  0  0  0  0
    2.9084    7.4344  -10.5050 H   0  0  0  0  0  0  0  0  0  0  0  0
    8.3571    5.8553   -7.5085 H   0  0  0  0  0  0  0  0  0  0  0  0
    6.3130    7.3914   -6.1172 H   0  0  0  0  0  0  0  0  0  0  0  0
    6.2447    8.8154   -3.9457 H   0  0  0  0  0  0  0  0  0  0  0  0
  1  2  2  0
  2  3  1  0
  3  4  2  0
  4  5  1  0
  5  6  2  0
  6  7  1  0
  7  8  2  0
  8  9  1  0
  9 10  1  0
 10 11  1  0
  8 12  1  0
 12 13  1  0
 12 14  2  0
  4 15  1  0
 15 16  2  0
 16 17  1  0
 17 18  1  0
 18 19  2  0
 19 20  1  0
 20 21  2  0
 21 22  1  0
 22 23  1  0
 23 24  1  0
 21 25  1  0
 25 26  2  0
 25 27  1  0
 17 28  2  0
 28 29  1  0
 16 30  1  0
 30 31  2  0
 31 32  1  0
 31 33  1  0
 33 34  2  0
 34 35  1  0
 35 36  2  0
 36 37  1  0
 37 38  2  0
 38 39  1  0
 39 40  2  0
 40 41  1  0
 41 42  1  0
 42 43  1  0
 40 44  1  0
 44 45  1  0
 44 46  2  0
 36 47  1  0
 47 48  2  0
 48 49  1  0
 49 50  1  0
 50 51  2  0
 51 52  1  0
 52 53  2  0
 53 54  1  0
 54 55  1  0
 55 56  1  0
 53 57  1  0
 57 58  2  0
 57 59  1  0
 49 60  2  0
 60 61  1  0
 48 62  1  0
 62 63  2  0
 63 64  1  0
 63 65  1  0
 65 66  2  0
 66 67  1  0
 67 68  2  0
 68 69  1  0
 69 70  2  0
 70 71  1  0
 71 72  2  0
 72 73  1  0
 73 74  1  0
 74 75  1  0
 72 76  1  0
 76 77  1  0
 76 78  2  0
 68 79  1  0
 79 80  2  0
 80 81  1  0
 81 82  1  0
 82 83  2  0
 83 84  1  0
 84 85  2  0
 85 86  1  0
 86 87  1  0
 87 88  1  0
 85 89  1  0
 89 90  2  0
 89 91  1  0
 81 92  2  0
 92 93  1  0
 80 94  1  0
 94 95  2  0
 95 96  1  0
 95 97  1  0
 97 98  1  0
 98 99  1  0
 99100  2  0
100101  1  0
101102  1  0
102103  3  0
100104  1  0
104105  3  0
 99106  1  0
106107  1  0
107108  1  0
108109  2  0
109110  1  0
110111  1  0
111112  3  0
109113  1  0
113114  3  0
108115  1  0
115116  2  0
116117  1  0
117118  2  0
118119  1  0
119120  2  0
120121  1  0
121122  2  0
122123  1  0
123124  1  0
124125  1  0
122126  1  0
126127  1  0
126128  2  0
118129  1  0
129130  2  0
130131  1  0
131132  1  0
132133  2  0
133134  1  0
134135  2  0
135136  1  0
136137  1  0
137138  1  0
135139  1  0
139140  2  0
139141  1  0
131142  2  0
142143  1  0
130144  1  0
144145  2  0
145146  1  0
 29  1  1  0
 61 33  1  0
 93 65  1  0
101 97  2  0
110106  2  0
143115  1  0
 28  3  1  0
 60 35  1  0
 92 67  1  0
142117  1  0
 14  5  1  0
 32 15  1  0
 46 37  1  0
 64 47  1  0
 78 69  1  0
 96 79  1  0
128119  1  0
146129  1  0
 26 18  1  0
 58 50  1  0
 90 82  1  0
140132  1  0
  1147  1  0
  2148  1  0
  6149  1  0
  7150  1  0
 10151  1  0
 10152  1  0
 11153  1  0
 11154  1  0
 11155  1  0
 14156  1  0
 19157  1  0
 20158  1  0
 23159  1  0
 23160  1  0
 24161  1  0
 24162  1  0
 24163  1  0
 26164  1  0
 30165  1  0
 34166  1  0
 38167  1  0
 39168  1  0
 42169  1  0
 42170  1  0
 43171  1  0
 43172  1  0
 43173  1  0
 46174  1  0
 51175  1  0
 52176  1  0
 55177  1  0
 55178  1  0
 56179  1  0
 56180  1  0
 56181  1  0
 58182  1  0
 62183  1  0
 66184  1  0
 70185  1  0
 71186  1  0
 74187  1  0
 74188  1  0
 75189  1  0
 75190  1  0
 75191  1  0
 78192  1  0
 83193  1  0
 84194  1  0
 87195  1  0
 87196  1  0
 88197  1  0
 88198  1  0
 88199  1  0
 90200  1  0
 94201  1  0
116202  1  0
120203  1  0
121204  1  0
124205  1  0
124206  1  0
125207  1  0
125208  1  0
125209  1  0
128210  1  0
133211  1  0
134212  1  0
137213  1  0
137214  1  0
138215  1  0
138216  1  0
138217  1  0
140218  1  0
144219  1  0
145220  1  0
M  END

