
     RDKit          3D

221246  0  0  0  0  0  0  0  0999 V2000
    3.9755    2.4328   -7.3804 C   0  0  0  0  0  0  0  0  0  0  0  0
    3.6441    1.3238   -6.6076 C   0  0  0  0  0  0  0  0  0  0  0  0
    4.4562    1.1763   -5.4697 C   0  0  0  0  0  0  0  0  0  0  0  0
    4.3670    0.1555   -4.5003 C   0  0  0  0  0  0  0  0  0  0  0  0
    3.3011   -0.8635   -4.5441 C   0  0  0  0  0  0  0  0  0  0  0  0
    3.5472   -2.5095   -4.7946 S   0  0  0  0  0  0  0  0  0  0  0  0
    1.9176   -2.9408   -4.7762 C   0  0  0  0  0  0  0  0  0  0  0  0
    1.3979   -4.3248   -5.0145 C   0  0  0  0  0  0  0  0  0  0  0  0
    1.0299   -4.5220   -6.4808 C   0  0  0  0  0  0  0  0  0  0  0  0
    1.1549   -1.7888   -4.5878 C   0  0  0  0  0  0  0  0  0  0  0  0
   -0.6050   -1.7944   -4.5094 Cl  0  0  0  0  0  0  0  0  0  0  0  0
    1.9300   -0.6265   -4.4494 C   0  0  0  0  0  0  0  0  0  0  0  0
    1.2333    0.9587   -4.1298 Cl  0  0  0  0  0  0  0  0  0  0  0  0
    5.3076    0.1882   -3.4534 C   0  0  0  0  0  0  0  0  0  0  0  0
    6.2714    1.1966   -3.3444 C   0  0  0  0  0  0  0  0  0  0  0  0
    6.3642    2.2129   -4.3155 C   0  0  0  0  0  0  0  0  0  0  0  0
    7.3849    3.2716   -4.2256 C   0  0  0  0  0  0  0  0  0  0  0  0
    7.0691    4.8916   -3.9053 S   0  0  0  0  0  0  0  0  0  0  0  0
    8.6818    5.3653   -3.7778 C   0  0  0  0  0  0  0  0  0  0  0  0
    9.1454    6.7630   -3.5009 C   0  0  0  0  0  0  0  0  0  0  0  0
    9.3896    7.5214   -4.7986 C   0  0  0  0  0  0  0  0  0  0  0  0
    9.4932    4.2547   -4.0017 C   0  0  0  0  0  0  0  0  0  0  0  0
    8.7656    3.0783   -4.2419 C   0  0  0  0  0  0  0  0  0  0  0  0
    9.5224    1.5212   -4.5479 Cl  0  0  0  0  0  0  0  0  0  0  0  0
   11.2499    4.3114   -3.9724 Cl  0  0  0  0  0  0  0  0  0  0  0  0
    5.4299    2.1748   -5.3628 C   0  0  0  0  0  0  0  0  0  0  0  0
    5.2772    3.2321   -6.6646 S   0  0  0  0  0  0  0  0  0  0  0  0
    7.0283    1.1185   -2.1675 C   0  0  0  0  0  0  0  0  0  0  0  0
    6.6807    0.0386   -1.3611 C   0  0  0  0  0  0  0  0  0  0  0  0
    5.4145   -0.8093   -2.1001 S   0  0  0  0  0  0  0  0  0  0  0  0
    7.1439   -0.1372    0.0275 C   0  0  0  0  0  0  0  0  0  0  0  0
    7.5233    1.1504    1.0293 S   0  0  0  0  0  0  0  0  0  0  0  0
    7.6740    0.2879    2.4689 C   0  0  0  0  0  0  0  0  0  0  0  0
    7.4543   -1.0643    2.1650 C   0  0  0  0  0  0  0  0  0  0  0  0
    7.1460   -1.2976    0.8035 C   0  0  0  0  0  0  0  0  0  0  0  0
    6.8421   -2.6038    0.2707 C   0  0  0  0  0  0  0  0  0  0  0  0
    6.5965   -3.6508   -0.1573 N   0  0  0  0  0  0  0  0  0  0  0  0
    7.4917   -2.1251    3.1423 C   0  0  0  0  0  0  0  0  0  0  0  0
    7.5198   -2.9791    3.9233 N   0  0  0  0  0  0  0  0  0  0  0  0
    7.6473    0.9443    3.8003 C   0  0  0  0  0  0  0  0  0  0  0  0
    7.5327    2.3299    3.9609 C   0  0  0  0  0  0  0  0  0  0  0  0
    6.9327    2.7067    5.1722 C   0  0  0  0  0  0  0  0  0  0  0  0
    6.3863    3.9752    5.4500 C   0  0  0  0  0  0  0  0  0  0  0  0
    6.5235    5.1031    4.5102 C   0  0  0  0  0  0  0  0  0  0  0  0
    5.8330    5.1777    2.9768 S   0  0  0  0  0  0  0  0  0  0  0  0
    6.4021    6.7135    2.5987 C   0  0  0  0  0  0  0  0  0  0  0  0
    6.2078    7.3939    1.2766 C   0  0  0  0  0  0  0  0  0  0  0  0
    7.3080    6.9970    0.2969 C   0  0  0  0  0  0  0  0  0  0  0  0
    7.1500    7.1893    3.6767 C   0  0  0  0  0  0  0  0  0  0  0  0
    7.9456    8.7597    3.6921 Cl  0  0  0  0  0  0  0  0  0  0  0  0
    7.2023    6.2923    4.7553 C   0  0  0  0  0  0  0  0  0  0  0  0
    8.0672    6.6221    6.2500 Cl  0  0  0  0  0  0  0  0  0  0  0  0
    5.4805    4.0522    6.5213 C   0  0  0  0  0  0  0  0  0  0  0  0
    5.1885    2.9578    7.3397 C   0  0  0  0  0  0  0  0  0  0  0  0
    5.8663    1.7345    7.1583 C   0  0  0  0  0  0  0  0  0  0  0  0
    5.5621    0.5480    7.9761 C   0  0  0  0  0  0  0  0  0  0  0  0
    4.1504   -0.3581    7.8824 S   0  0  0  0  0  0  0  0  0  0  0  0
    4.5649   -1.4496    9.0991 C   0  0  0  0  0  0  0  0  0  0  0  0
    3.6553   -2.5170    9.6285 C   0  0  0  0  0  0  0  0  0  0  0  0
    2.8522   -2.0042   10.8175 C   0  0  0  0  0  0  0  0  0  0  0  0
    5.8199   -1.1089    9.5990 C   0  0  0  0  0  0  0  0  0  0  0  0
    6.3866    0.0039    8.9584 C   0  0  0  0  0  0  0  0  0  0  0  0
    7.9545    0.6748    9.3807 Cl  0  0  0  0  0  0  0  0  0  0  0  0
    6.6137   -1.9706   10.9077 Cl  0  0  0  0  0  0  0  0  0  0  0  0
    6.6848    1.6278    6.0233 C   0  0  0  0  0  0  0  0  0  0  0  0
    7.1305    0.2079    5.2349 S   0  0  0  0  0  0  0  0  0  0  0  0
    4.0086    3.1206    8.0845 C   0  0  0  0  0  0  0  0  0  0  0  0
    3.2871    4.2706    7.7460 C   0  0  0  0  0  0  0  0  0  0  0  0
    4.2465    5.1757    6.6872 S   0  0  0  0  0  0  0  0  0  0  0  0
    1.8196    4.2020    7.5776 C   0  0  0  0  0  0  0  0  0  0  0  0
    1.2293    4.4495    6.3335 C   0  0  0  0  0  0  0  0  0  0  0  0
    0.0998    3.6595    6.0735 C   0  0  0  0  0  0  0  0  0  0  0  0
   -0.4796    3.4737    4.8040 C   0  0  0  0  0  0  0  0  0  0  0  0
   -0.0344    4.2522    3.6339 C   0  0  0  0  0  0  0  0  0  0  0  0
    0.8826    3.6446    2.3595 S   0  0  0  0  0  0  0  0  0  0  0  0
    1.0333    5.1041    1.5335 C   0  0  0  0  0  0  0  0  0  0  0  0
    1.7567    5.2763    0.2294 C   0  0  0  0  0  0  0  0  0  0  0  0
    0.9030    4.7926   -0.9367 C   0  0  0  0  0  0  0  0  0  0  0  0
    0.3499    6.0906    2.2459 C   0  0  0  0  0  0  0  0  0  0  0  0
    0.2254    7.7636    1.7173 Cl  0  0  0  0  0  0  0  0  0  0  0  0
   -0.2366    5.6150    3.4277 C   0  0  0  0  0  0  0  0  0  0  0  0
   -1.1483    6.6320    4.5347 Cl  0  0  0  0  0  0  0  0  0  0  0  0
   -1.3774    2.4058    4.6666 C   0  0  0  0  0  0  0  0  0  0  0  0
   -1.7444    1.5830    5.7363 C   0  0  0  0  0  0  0  0  0  0  0  0
   -1.2265    1.8236    7.0246 C   0  0  0  0  0  0  0  0  0  0  0  0
   -1.6091    0.9910    8.1747 C   0  0  0  0  0  0  0  0  0  0  0  0
   -3.0579    1.1380    9.0104 S   0  0  0  0  0  0  0  0  0  0  0  0
   -2.7457   -0.0872   10.1225 C   0  0  0  0  0  0  0  0  0  0  0  0
   -3.6560   -0.4559   11.2542 C   0  0  0  0  0  0  0  0  0  0  0  0
   -3.6815    0.6431   12.3139 C   0  0  0  0  0  0  0  0  0  0  0  0
   -1.4931   -0.6379    9.8414 C   0  0  0  0  0  0  0  0  0  0  0  0
   -0.8624   -0.0392    8.7403 C   0  0  0  0  0  0  0  0  0  0  0  0
    0.6597   -0.5948    8.0698 Cl  0  0  0  0  0  0  0  0  0  0  0  0
   -0.7723   -1.9506   10.7659 Cl  0  0  0  0  0  0  0  0  0  0  0  0
   -0.2717    2.8494    7.1486 C   0  0  0  0  0  0  0  0  0  0  0  0
    0.8378    3.0840    8.3992 S   0  0  0  0  0  0  0  0  0  0  0  0
   -2.4991    0.4634    5.3430 C   0  0  0  0  0  0  0  0  0  0  0  0
   -2.7154    0.4271    3.9680 C   0  0  0  0  0  0  0  0  0  0  0  0
   -1.9885    1.7621    3.2467 S   0  0  0  0  0  0  0  0  0  0  0  0
   -3.1102   -0.7447    3.1932 C   0  0  0  0  0  0  0  0  0  0  0  0
   -4.4148   -1.0128    2.7884 C   0  0  0  0  0  0  0  0  0  0  0  0
   -4.4733   -1.8064    1.6249 C   0  0  0  0  0  0  0  0  0  0  0  0
   -5.6368   -2.1752    0.9207 C   0  0  0  0  0  0  0  0  0  0  0  0
   -6.9872   -1.9108    1.4492 C   0  0  0  0  0  0  0  0  0  0  0  0
   -7.6638   -0.3892    1.6943 S   0  0  0  0  0  0  0  0  0  0  0  0
   -9.1250   -0.9428    2.3222 C   0  0  0  0  0  0  0  0  0  0  0  0
  -10.2294   -0.0578    2.8170 C   0  0  0  0  0  0  0  0  0  0  0  0
  -10.0290    0.3052    4.2837 C   0  0  0  0  0  0  0  0  0  0  0  0
   -9.0919   -2.3375    2.3710 C   0  0  0  0  0  0  0  0  0  0  0  0
  -10.4051   -3.3247    3.0003 Cl  0  0  0  0  0  0  0  0  0  0  0  0
   -7.8968   -2.8805    1.8724 C   0  0  0  0  0  0  0  0  0  0  0  0
   -7.5594   -4.6076    1.8376 Cl  0  0  0  0  0  0  0  0  0  0  0  0
   -5.4532   -2.8241   -0.3122 C   0  0  0  0  0  0  0  0  0  0  0  0
   -4.1893   -3.1502   -0.8153 C   0  0  0  0  0  0  0  0  0  0  0  0
   -3.0256   -2.8269   -0.0912 C   0  0  0  0  0  0  0  0  0  0  0  0
   -1.6745   -3.1481   -0.5939 C   0  0  0  0  0  0  0  0  0  0  0  0
   -1.0898   -4.7122   -0.7987 S   0  0  0  0  0  0  0  0  0  0  0  0
    0.4886   -4.2715   -1.1840 C   0  0  0  0  0  0  0  0  0  0  0  0
    1.6144   -5.2317   -1.4329 C   0  0  0  0  0  0  0  0  0  0  0  0
    2.4020   -5.4893   -0.1537 C   0  0  0  0  0  0  0  0  0  0  0  0
    0.5881   -2.8830   -1.1222 C   0  0  0  0  0  0  0  0  0  0  0  0
   -0.6291   -2.2509   -0.8249 C   0  0  0  0  0  0  0  0  0  0  0  0
   -0.8124   -0.5006   -0.8111 Cl  0  0  0  0  0  0  0  0  0  0  0  0
    2.1026   -2.0100   -1.2975 Cl  0  0  0  0  0  0  0  0  0  0  0  0
   -3.2101   -2.1568    1.1307 C   0  0  0  0  0  0  0  0  0  0  0  0
   -2.0396   -1.5036    2.1396 S   0  0  0  0  0  0  0  0  0  0  0  0
   -4.2330   -3.6864   -2.1106 C   0  0  0  0  0  0  0  0  0  0  0  0
   -5.5259   -3.7511   -2.6269 C   0  0  0  0  0  0  0  0  0  0  0  0
   -6.6142   -3.1689   -1.4764 S   0  0  0  0  0  0  0  0  0  0  0  0
   -5.8726   -4.1073   -4.0100 C   0  0  0  0  0  0  0  0  0  0  0  0
   -7.0111   -3.6778   -4.6882 C   0  0  0  0  0  0  0  0  0  0  0  0
   -7.0351   -4.0928   -6.0275 C   0  0  0  0  0  0  0  0  0  0  0  0
   -8.0055   -3.7479   -6.9887 C   0  0  0  0  0  0  0  0  0  0  0  0
   -9.1416   -2.8751   -6.6573 C   0  0  0  0  0  0  0  0  0  0  0  0
  -10.4206   -3.2975   -5.6549 S   0  0  0  0  0  0  0  0  0  0  0  0
  -11.1869   -1.7990   -5.7004 C   0  0  0  0  0  0  0  0  0  0  0  0
  -12.4725   -1.4743   -5.0029 C   0  0  0  0  0  0  0  0  0  0  0  0
  -13.6510   -1.5580   -5.9687 C   0  0  0  0  0  0  0  0  0  0  0  0
  -10.4469   -0.9433   -6.5125 C   0  0  0  0  0  0  0  0  0  0  0  0
  -10.8925    0.7299   -6.8327 Cl  0  0  0  0  0  0  0  0  0  0  0  0
   -9.2959   -1.5470   -7.0487 C   0  0  0  0  0  0  0  0  0  0  0  0
   -8.1388   -0.6947   -8.0637 Cl  0  0  0  0  0  0  0  0  0  0  0  0
   -7.8135   -4.2412   -8.2904 C   0  0  0  0  0  0  0  0  0  0  0  0
   -6.7097   -5.0227   -8.6443 C   0  0  0  0  0  0  0  0  0  0  0  0
   -5.7215   -5.3398   -7.6900 C   0  0  0  0  0  0  0  0  0  0  0  0
   -4.5191   -6.1126   -8.0389 C   0  0  0  0  0  0  0  0  0  0  0  0
   -4.1566   -7.6445   -7.4489 S   0  0  0  0  0  0  0  0  0  0  0  0
   -2.6911   -7.8046   -8.2637 C   0  0  0  0  0  0  0  0  0  0  0  0
   -1.7764   -8.9858   -8.1441 C   0  0  0  0  0  0  0  0  0  0  0  0
   -0.7890   -8.7919   -6.9993 C   0  0  0  0  0  0  0  0  0  0  0  0
   -2.4522   -6.6382   -8.9876 C   0  0  0  0  0  0  0  0  0  0  0  0
   -3.4817   -5.6918   -8.8707 C   0  0  0  0  0  0  0  0  0  0  0  0
   -3.4375   -4.1125   -9.6410 Cl  0  0  0  0  0  0  0  0  0  0  0  0
   -0.9942   -6.3621   -9.9320 Cl  0  0  0  0  0  0  0  0  0  0  0  0
   -5.9235   -4.8634   -6.3862 C   0  0  0  0  0  0  0  0  0  0  0  0
   -4.8981   -5.0019   -5.0588 S   0  0  0  0  0  0  0  0  0  0  0  0
   -6.7327   -5.4304   -9.9874 C   0  0  0  0  0  0  0  0  0  0  0  0
   -7.8448   -4.9608  -10.6818 C   0  0  0  0  0  0  0  0  0  0  0  0
   -8.8050   -4.0499   -9.6361 S   0  0  0  0  0  0  0  0  0  0  0  0
    3.4786    2.7326   -8.2907 H   0  0  0  0  0  0  0  0  0  0  0  0
    2.8437    0.6463   -6.8743 H   0  0  0  0  0  0  0  0  0  0  0  0
    2.1762   -5.0671   -4.7329 H   0  0  0  0  0  0  0  0  0  0  0  0
    0.5058   -4.5133   -4.3781 H   0  0  0  0  0  0  0  0  0  0  0  0
    0.6985   -5.5679   -6.6409 H   0  0  0  0  0  0  0  0  0  0  0  0
    0.2003   -3.8435   -6.7704 H   0  0  0  0  0  0  0  0  0  0  0  0
    1.9090   -4.3214   -7.1295 H   0  0  0  0  0  0  0  0  0  0  0  0
    8.3763    7.2950   -2.9024 H   0  0  0  0  0  0  0  0  0  0  0  0
   10.0812    6.7380   -2.9023 H   0  0  0  0  0  0  0  0  0  0  0  0
    9.7275    8.5539   -4.5637 H   0  0  0  0  0  0  0  0  0  0  0  0
   10.1772    7.0165   -5.3980 H   0  0  0  0  0  0  0  0  0  0  0  0
    8.4562    7.5802   -5.3983 H   0  0  0  0  0  0  0  0  0  0  0  0
    7.7682    1.8538   -1.8786 H   0  0  0  0  0  0  0  0  0  0  0  0
    7.7183    3.0248    3.1530 H   0  0  0  0  0  0  0  0  0  0  0  0
    5.2205    7.1061    0.8570 H   0  0  0  0  0  0  0  0  0  0  0  0
    6.2117    8.4971    1.4100 H   0  0  0  0  0  0  0  0  0  0  0  0
    8.3092    7.2519    0.7075 H   0  0  0  0  0  0  0  0  0  0  0  0
    7.2623    5.9045    0.0904 H   0  0  0  0  0  0  0  0  0  0  0  0
    7.1694    7.5438   -0.6618 H   0  0  0  0  0  0  0  0  0  0  0  0
    4.2511   -3.3983    9.9441 H   0  0  0  0  0  0  0  0  0  0  0  0
    2.9590   -2.8421    8.8248 H   0  0  0  0  0  0  0  0  0  0  0  0
    2.1614   -2.7981   11.1764 H   0  0  0  0  0  0  0  0  0  0  0  0
    2.2582   -1.1085   10.5326 H   0  0  0  0  0  0  0  0  0  0  0  0
    3.5308   -1.7300   11.6563 H   0  0  0  0  0  0  0  0  0  0  0  0
    3.5717    2.3167    8.6584 H   0  0  0  0  0  0  0  0  0  0  0  0
    1.7162    5.0237    5.5560 H   0  0  0  0  0  0  0  0  0  0  0  0
    2.7048    4.6982    0.2540 H   0  0  0  0  0  0  0  0  0  0  0  0
    2.0188    6.3441    0.0714 H   0  0  0  0  0  0  0  0  0  0  0  0
    1.4132    5.0259   -1.9001 H   0  0  0  0  0  0  0  0  0  0  0  0
   -0.0868    5.3000   -0.9361 H   0  0  0  0  0  0  0  0  0  0  0  0
    0.7535    3.6937   -0.8784 H   0  0  0  0  0  0  0  0  0  0  0  0
   -4.6843   -0.6043   10.8583 H   0  0  0  0  0  0  0  0  0  0  0  0
   -3.3303   -1.4087   11.7253 H   0  0  0  0  0  0  0  0  0  0  0  0
   -4.3374    0.3371   13.1523 H   0  0  0  0  0  0  0  0  0  0  0  0
   -4.0761    1.5898   11.8818 H   0  0  0  0  0  0  0  0  0  0  0  0
   -2.6565    0.8186   12.7071 H   0  0  0  0  0  0  0  0  0  0  0  0
   -2.7773   -0.3408    6.0104 H   0  0  0  0  0  0  0  0  0  0  0  0
   -5.2788   -0.5640    3.2591 H   0  0  0  0  0  0  0  0  0  0  0  0
  -11.2081   -0.5683    2.6946 H   0  0  0  0  0  0  0  0  0  0  0  0
  -10.2544    0.8695    2.2086 H   0  0  0  0  0  0  0  0  0  0  0  0
  -10.8542    0.9668    4.6199 H   0  0  0  0  0  0  0  0  0  0  0  0
  -10.0277   -0.6087    4.9162 H   0  0  0  0  0  0  0  0  0  0  0  0
   -9.0660    0.8439    4.4193 H   0  0  0  0  0  0  0  0  0  0  0  0
    2.2960   -4.8201   -2.2078 H   0  0  0  0  0  0  0  0  0  0  0  0
    1.2028   -6.1896   -1.8137 H   0  0  0  0  0  0  0  0  0  0  0  0
    3.2359   -6.1895   -0.3695 H   0  0  0  0  0  0  0  0  0  0  0  0
    2.8345   -4.5424    0.2326 H   0  0  0  0  0  0  0  0  0  0  0  0
    1.7458   -5.9424    0.6201 H   0  0  0  0  0  0  0  0  0  0  0  0
   -3.3537   -3.9415   -2.6898 H   0  0  0  0  0  0  0  0  0  0  0  0
   -7.7645   -3.0434   -4.2382 H   0  0  0  0  0  0  0  0  0  0  0  0
  -12.4189   -0.4517   -4.5708 H   0  0  0  0  0  0  0  0  0  0  0  0
  -12.6338   -2.1915   -4.1722 H   0  0  0  0  0  0  0  0  0  0  0  0
  -14.5905   -1.3187   -5.4249 H   0  0  0  0  0  0  0  0  0  0  0  0
  -13.7337   -2.5850   -6.3880 H   0  0  0  0  0  0  0  0  0  0  0  0
  -13.5271   -0.8338   -6.8015 H   0  0  0  0  0  0  0  0  0  0  0  0
   -1.2197   -9.1318   -9.0950 H   0  0  0  0  0  0  0  0  0  0  0  0
   -2.3782   -9.9009   -7.9596 H   0  0  0  0  0  0  0  0  0  0  0  0
   -1.3290   -8.7067   -6.0325 H   0  0  0  0  0  0  0  0  0  0  0  0
   -0.1831   -7.8774   -7.1632 H   0  0  0  0  0  0  0  0  0  0  0  0
   -0.1038   -9.6648   -6.9481 H   0  0  0  0  0  0  0  0  0  0  0  0
   -5.9733   -6.0528  -10.4458 H   0  0  0  0  0  0  0  0  0  0  0  0
   -8.0596   -5.1568  -11.7240 H   0  0  0  0  0  0  0  0  0  0  0  0
  1  2  2  0
  2  3  1  0
  3  4  2  0
  4  5  1  0
  5  6  1  0
  6  7  1  0
  7  8  1  0
  8  9  1  0
  7 10  2  0
 10 11  1  0
 10 12  1  0
 12 13  1  0
  4 14  1  0
 14 15  2  0
 15 16  1  0
 16 17  1  0
 17 18  1  0
 18 19  1  0
 19 20  1  0
 20 21  1  0
 19 22  2  0
 22 23  1  0
 23 24  1  0
 22 25  1  0
 16 26  2  0
 26 27  1  0
 15 28  1  0
 28 29  2  0
 29 30  1  0
 29 31  1  0
 31 32  1  0
 32 33  1  0
 33 34  2  0
 34 35  1  0
 35 36  1  0
 36 37  3  0
 34 38  1  0
 38 39  3  0
 33 40  1  0
 40 41  2  0
 41 42  1  0
 42 43  2  0
 43 44  1  0
 44 45  1  0
 45 46  1  0
 46 47  1  0
 47 48  1  0
 46 49  2  0
 49 50  1  0
 49 51  1  0
 51 52  1  0
 43 53  1  0
 53 54  2  0
 54 55  1  0
 55 56  1  0
 56 57  1  0
 57 58  1  0
 58 59  1  0
 59 60  1  0
 58 61  2  0
 61 62  1  0
 62 63  1  0
 61 64  1  0
 55 65  2  0
 65 66  1  0
 54 67  1  0
 67 68  2  0
 68 69  1  0
 68 70  1  0
 70 71  2  0
 71 72  1  0
 72 73  2  0
 73 74  1  0
 74 75  1  0
 75 76  1  0
 76 77  1  0
 77 78  1  0
 76 79  2  0
 79 80  1  0
 79 81  1  0
 81 82  1  0
 73 83  1  0
 83 84  2  0
 84 85  1  0
 85 86  1  0
 86 87  1  0
 87 88  1  0
 88 89  1  0
 89 90  1  0
 88 91  2  0
 91 92  1  0
 92 93  1  0
 91 94  1  0
 85 95  2  0
 95 96  1  0
 84 97  1  0
 97 98  2  0
 98 99  1  0
 98100  1  0
100101  2  0
101102  1  0
102103  2  0
103104  1  0
104105  1  0
105106  1  0
106107  1  0
107108  1  0
106109  2  0
109110  1  0
109111  1  0
111112  1  0
103113  1  0
113114  2  0
114115  1  0
115116  1  0
116117  1  0
117118  1  0
118119  1  0
119120  1  0
118121  2  0
121122  1  0
122123  1  0
121124  1  0
115125  2  0
125126  1  0
114127  1  0
127128  2  0
128129  1  0
128130  1  0
130131  2  0
131132  1  0
132133  2  0
133134  1  0
134135  1  0
135136  1  0
136137  1  0
137138  1  0
136139  2  0
139140  1  0
139141  1  0
141142  1  0
133143  1  0
143144  2  0
144145  1  0
145146  1  0
146147  1  0
147148  1  0
148149  1  0
149150  1  0
148151  2  0
151152  1  0
152153  1  0
151154  1  0
145155  2  0
155156  1  0
144157  1  0
157158  2  0
158159  1  0
 27  1  1  0
 35 31  2  0
 66 40  1  0
 96 70  1  0
126100  1  0
156130  1  0
 26  3  1  0
 65 42  1  0
 95 72  1  0
125102  1  0
155132  1  0
 12  5  2  0
 30 14  1  0
 51 44  2  0
 69 53  1  0
 81 74  2  0
 99 83  1  0
111104  2  0
129113  1  0
141134  2  0
159143  1  0
 23 17  2  0
 62 56  2  0
 92 86  2  0
122116  2  0
152146  2  0
  1160  1  0
  2161  1  0
  8162  1  0
  8163  1  0
  9164  1  0
  9165  1  0
  9166  1  0
 20167  1  0
 20168  1  0
 21169  1  0
 21170  1  0
 21171  1  0
 28172  1  0
 41173  1  0
 47174  1  0
 47175  1  0
 48176  1  0
 48177  1  0
 48178  1  0
 59179  1  0
 59180  1  0
 60181  1  0
 60182  1  0
 60183  1  0
 67184  1  0
 71185  1  0
 77186  1  0
 77187  1  0
 78188  1  0
 78189  1  0
 78190  1  0
 89191  1  0
 89192  1  0
 90193  1  0
 90194  1  0
 90195  1  0
 97196  1  0
101197  1  0
107198  1  0
107199  1  0
108200  1  0
108201  1  0
108202  1  0
119203  1  0
119204  1  0
120205  1  0
120206  1  0
120207  1  0
127208  1  0
131209  1  0
137210  1  0
137211  1  0
138212  1  0
138213  1  0
138214  1  0
149215  1  0
149216  1  0
150217  1  0
150218  1  0
150219  1  0
157220  1  0
158221  1  0
M  END

