
     RDKit          3D

230255  0  0  0  0  0  0  0  0999 V2000
    3.3348   -9.8733    8.4567 C   0  0  0  0  0  0  0  0  0  0  0  0
    2.4021   -8.8387    8.4922 C   0  0  0  0  0  0  0  0  0  0  0  0
    1.8340   -8.5634    7.2372 C   0  0  0  0  0  0  0  0  0  0  0  0
    0.8765   -7.5702    6.9516 C   0  0  0  0  0  0  0  0  0  0  0  0
    0.3409   -6.6683    7.9914 C   0  0  0  0  0  0  0  0  0  0  0  0
    0.5410   -4.9978    8.0050 S   0  0  0  0  0  0  0  0  0  0  0  0
   -0.3583   -4.7144    9.3956 C   0  0  0  0  0  0  0  0  0  0  0  0
   -0.5403   -3.3695   10.0334 C   0  0  0  0  0  0  0  0  0  0  0  0
    0.5625   -3.1048   11.0516 C   0  0  0  0  0  0  0  0  0  0  0  0
   -0.8142   -5.9374    9.8858 C   0  0  0  0  0  0  0  0  0  0  0  0
   -1.7700   -6.1008   11.3537 Cl  0  0  0  0  0  0  0  0  0  0  0  0
   -0.4295   -7.0325    9.0910 C   0  0  0  0  0  0  0  0  0  0  0  0
   -0.9425   -8.6841    9.4146 Cl  0  0  0  0  0  0  0  0  0  0  0  0
    0.4931   -7.4298    5.6086 C   0  0  0  0  0  0  0  0  0  0  0  0
    1.0169   -8.2227    4.5787 C   0  0  0  0  0  0  0  0  0  0  0  0
    1.9705   -9.2205    4.8685 C   0  0  0  0  0  0  0  0  0  0  0  0
    2.5764  -10.0468    3.8086 C   0  0  0  0  0  0  0  0  0  0  0  0
    1.7449  -11.1699    2.8690 S   0  0  0  0  0  0  0  0  0  0  0  0
    3.0668  -11.6248    1.9326 C   0  0  0  0  0  0  0  0  0  0  0  0
    3.0026  -12.5855    0.7840 C   0  0  0  0  0  0  0  0  0  0  0  0
    2.7807  -11.8464   -0.5320 C   0  0  0  0  0  0  0  0  0  0  0  0
    4.1771  -10.8800    2.3268 C   0  0  0  0  0  0  0  0  0  0  0  0
    3.9003   -9.9955    3.3823 C   0  0  0  0  0  0  0  0  0  0  0  0
    5.0895   -8.8793    4.0351 Cl  0  0  0  0  0  0  0  0  0  0  0  0
    5.7415  -10.9756    1.5369 Cl  0  0  0  0  0  0  0  0  0  0  0  0
    2.3523   -9.3649    6.2151 C   0  0  0  0  0  0  0  0  0  0  0  0
    3.4757  -10.4331    6.8734 S   0  0  0  0  0  0  0  0  0  0  0  0
    0.5526   -7.8513    3.3004 C   0  0  0  0  0  0  0  0  0  0  0  0
   -0.3377   -6.7744    3.3432 C   0  0  0  0  0  0  0  0  0  0  0  0
   -0.5528   -6.3003    4.9473 S   0  0  0  0  0  0  0  0  0  0  0  0
   -0.8700   -6.0209    2.1974 C   0  0  0  0  0  0  0  0  0  0  0  0
   -0.7513   -6.3377    0.8415 C   0  0  0  0  0  0  0  0  0  0  0  0
   -1.2360   -5.3170   -0.0029 C   0  0  0  0  0  0  0  0  0  0  0  0
   -1.2718   -5.3317   -1.4155 C   0  0  0  0  0  0  0  0  0  0  0  0
   -0.9119   -6.5327   -2.1948 C   0  0  0  0  0  0  0  0  0  0  0  0
    0.2887   -6.6045   -3.3761 S   0  0  0  0  0  0  0  0  0  0  0  0
    0.0202   -8.2143   -3.8008 C   0  0  0  0  0  0  0  0  0  0  0  0
    0.7428   -8.9453   -4.8912 C   0  0  0  0  0  0  0  0  0  0  0  0
   -0.0296   -8.8720   -6.2026 C   0  0  0  0  0  0  0  0  0  0  0  0
   -1.0440   -8.7041   -3.0473 C   0  0  0  0  0  0  0  0  0  0  0  0
   -1.6978  -10.3251   -3.2269 Cl  0  0  0  0  0  0  0  0  0  0  0  0
   -1.5629   -7.7630   -2.1457 C   0  0  0  0  0  0  0  0  0  0  0  0
   -2.9596   -8.0807   -1.1249 Cl  0  0  0  0  0  0  0  0  0  0  0  0
   -1.7469   -4.1677   -2.0516 C   0  0  0  0  0  0  0  0  0  0  0  0
   -2.1833   -3.0481   -1.3351 C   0  0  0  0  0  0  0  0  0  0  0  0
   -2.1755   -3.0391    0.0744 C   0  0  0  0  0  0  0  0  0  0  0  0
   -2.7056   -1.8935    0.8451 C   0  0  0  0  0  0  0  0  0  0  0  0
   -4.2657   -1.2747    0.6767 S   0  0  0  0  0  0  0  0  0  0  0  0
   -4.0681    0.0187    1.7276 C   0  0  0  0  0  0  0  0  0  0  0  0
   -5.1450    1.0042    2.0684 C   0  0  0  0  0  0  0  0  0  0  0  0
   -5.9128    0.5600    3.3102 C   0  0  0  0  0  0  0  0  0  0  0  0
   -2.7778   -0.0268    2.2555 C   0  0  0  0  0  0  0  0  0  0  0  0
   -2.0157   -1.1021    1.7643 C   0  0  0  0  0  0  0  0  0  0  0  0
   -0.3473   -1.3759    2.2541 Cl  0  0  0  0  0  0  0  0  0  0  0  0
   -2.1532    1.1592    3.3904 Cl  0  0  0  0  0  0  0  0  0  0  0  0
   -1.7007   -4.2004    0.7054 C   0  0  0  0  0  0  0  0  0  0  0  0
   -1.5791   -4.5011    2.3467 S   0  0  0  0  0  0  0  0  0  0  0  0
   -2.6348   -2.0124   -2.1584 C   0  0  0  0  0  0  0  0  0  0  0  0
   -2.5861   -2.3276   -3.5082 C   0  0  0  0  0  0  0  0  0  0  0  0
   -1.9645   -3.8831   -3.7063 S   0  0  0  0  0  0  0  0  0  0  0  0
   -3.1484   -1.4680   -4.5487 C   0  0  0  0  0  0  0  0  0  0  0  0
   -4.4711   -1.0228   -4.5038 C   0  0  0  0  0  0  0  0  0  0  0  0
   -4.6765    0.1745   -5.2007 C   0  0  0  0  0  0  0  0  0  0  0  0
   -5.8567    0.9388   -5.1734 C   0  0  0  0  0  0  0  0  0  0  0  0
   -7.0713    0.4401   -4.5103 C   0  0  0  0  0  0  0  0  0  0  0  0
   -8.0655   -0.7650   -5.1270 S   0  0  0  0  0  0  0  0  0  0  0  0
   -9.1002   -0.8416   -3.8011 C   0  0  0  0  0  0  0  0  0  0  0  0
  -10.2877   -1.7545   -3.7077 C   0  0  0  0  0  0  0  0  0  0  0  0
  -11.4272   -1.2605   -4.5965 C   0  0  0  0  0  0  0  0  0  0  0  0
   -8.6705    0.0832   -2.8453 C   0  0  0  0  0  0  0  0  0  0  0  0
   -9.4304    0.2867   -1.2730 Cl  0  0  0  0  0  0  0  0  0  0  0  0
   -7.5237    0.7946   -3.2406 C   0  0  0  0  0  0  0  0  0  0  0  0
   -6.6931    1.9552   -2.2115 Cl  0  0  0  0  0  0  0  0  0  0  0  0
   -5.7848    2.2371   -5.6933 C   0  0  0  0  0  0  0  0  0  0  0  0
   -4.6128    2.7578   -6.2650 C   0  0  0  0  0  0  0  0  0  0  0  0
   -3.4579    1.9527   -6.3865 C   0  0  0  0  0  0  0  0  0  0  0  0
   -2.2208    2.4239   -7.0485 C   0  0  0  0  0  0  0  0  0  0  0  0
   -1.3047    3.7637   -6.6033 S   0  0  0  0  0  0  0  0  0  0  0  0
   -0.1081    3.5750   -7.7693 C   0  0  0  0  0  0  0  0  0  0  0  0
    1.0988    4.4510   -7.9141 C   0  0  0  0  0  0  0  0  0  0  0  0
    2.2818    3.8880   -7.1385 C   0  0  0  0  0  0  0  0  0  0  0  0
   -0.3992    2.4331   -8.5177 C   0  0  0  0  0  0  0  0  0  0  0  0
   -1.5846    1.7947   -8.1191 C   0  0  0  0  0  0  0  0  0  0  0  0
   -2.2396    0.3959   -8.9581 Cl  0  0  0  0  0  0  0  0  0  0  0  0
    0.6081    1.8577   -9.8381 Cl  0  0  0  0  0  0  0  0  0  0  0  0
   -3.5184    0.6697   -5.8070 C   0  0  0  0  0  0  0  0  0  0  0  0
   -2.2404   -0.3677   -5.4473 S   0  0  0  0  0  0  0  0  0  0  0  0
   -4.7181    4.1276   -6.5568 C   0  0  0  0  0  0  0  0  0  0  0  0
   -5.9497    4.6701   -6.1862 C   0  0  0  0  0  0  0  0  0  0  0  0
   -6.9337    3.4566   -5.5565 S   0  0  0  0  0  0  0  0  0  0  0  0
   -6.1710    6.0975   -5.9105 C   0  0  0  0  0  0  0  0  0  0  0  0
   -7.0993    6.9119   -6.5378 C   0  0  0  0  0  0  0  0  0  0  0  0
   -8.0807    6.4874   -7.5829 C   0  0  0  0  0  0  0  0  0  0  0  0
   -6.9544    8.1859   -6.1192 N   0  0  0  0  0  0  0  0  0  0  0  0
   -5.9604    8.1906   -5.2071 C   0  0  0  0  0  0  0  0  0  0  0  0
   -5.4607    9.4281   -4.5382 C   0  0  0  0  0  0  0  0  0  0  0  0
   -5.4513    6.9113   -5.0336 C   0  0  0  0  0  0  0  0  0  0  0  0
   -4.3465    6.5420   -4.1136 C   0  0  0  0  0  0  0  0  0  0  0  0
   -4.2100    5.3147   -3.6044 C   0  0  0  0  0  0  0  0  0  0  0  0
   -3.0288    4.8986   -2.8475 C   0  0  0  0  0  0  0  0  0  0  0  0
   -2.4632    5.5384   -1.7474 C   0  0  0  0  0  0  0  0  0  0  0  0
   -1.3450    4.8473   -1.2443 C   0  0  0  0  0  0  0  0  0  0  0  0
   -0.5715    5.2007   -0.1200 C   0  0  0  0  0  0  0  0  0  0  0  0
   -0.9225    6.3430    0.7471 C   0  0  0  0  0  0  0  0  0  0  0  0
    0.0926    7.6445    1.0894 S   0  0  0  0  0  0  0  0  0  0  0  0
   -0.9241    8.3762    2.2141 C   0  0  0  0  0  0  0  0  0  0  0  0
   -0.6037    9.6366    2.9609 C   0  0  0  0  0  0  0  0  0  0  0  0
   -1.2827   10.8396    2.3153 C   0  0  0  0  0  0  0  0  0  0  0  0
   -2.0851    7.6111    2.3337 C   0  0  0  0  0  0  0  0  0  0  0  0
   -3.3950    8.0017    3.4410 Cl  0  0  0  0  0  0  0  0  0  0  0  0
   -2.0797    6.4665    1.5190 C   0  0  0  0  0  0  0  0  0  0  0  0
   -3.3620    5.2646    1.5433 Cl  0  0  0  0  0  0  0  0  0  0  0  0
    0.5423    4.3908    0.1630 C   0  0  0  0  0  0  0  0  0  0  0  0
    0.9039    3.2958   -0.6343 C   0  0  0  0  0  0  0  0  0  0  0  0
    0.1117    2.9237   -1.7394 C   0  0  0  0  0  0  0  0  0  0  0  0
    0.4985    1.8356   -2.6610 C   0  0  0  0  0  0  0  0  0  0  0  0
    0.8456    2.0552   -4.2890 S   0  0  0  0  0  0  0  0  0  0  0  0
    1.1301    0.4403   -4.6469 C   0  0  0  0  0  0  0  0  0  0  0  0
    1.5627   -0.0628   -5.9885 C   0  0  0  0  0  0  0  0  0  0  0  0
    3.0852   -0.1596   -6.0589 C   0  0  0  0  0  0  0  0  0  0  0  0
    0.9720   -0.3028   -3.4802 C   0  0  0  0  0  0  0  0  0  0  0  0
    0.6080    0.4747   -2.3681 C   0  0  0  0  0  0  0  0  0  0  0  0
    0.2810   -0.2041   -0.7881 Cl  0  0  0  0  0  0  0  0  0  0  0  0
    1.2148   -2.0453   -3.3975 Cl  0  0  0  0  0  0  0  0  0  0  0  0
   -1.0205    3.7113   -1.9941 C   0  0  0  0  0  0  0  0  0  0  0  0
   -2.1653    3.4982   -3.2020 S   0  0  0  0  0  0  0  0  0  0  0  0
    2.0893    2.6725   -0.2129 C   0  0  0  0  0  0  0  0  0  0  0  0
    2.6230    3.2540    0.9374 C   0  0  0  0  0  0  0  0  0  0  0  0
    1.6494    4.5421    1.4236 S   0  0  0  0  0  0  0  0  0  0  0  0
    3.8615    2.8402    1.6104 C   0  0  0  0  0  0  0  0  0  0  0  0
    4.9393    2.2099    0.9973 C   0  0  0  0  0  0  0  0  0  0  0  0
    6.0000    1.9668    1.8841 C   0  0  0  0  0  0  0  0  0  0  0  0
    7.2298    1.3555    1.5661 C   0  0  0  0  0  0  0  0  0  0  0  0
    7.5797    0.9815    0.1837 C   0  0  0  0  0  0  0  0  0  0  0  0
    7.9027   -0.5876   -0.3364 S   0  0  0  0  0  0  0  0  0  0  0  0
    8.2368   -0.1817   -1.9339 C   0  0  0  0  0  0  0  0  0  0  0  0
    8.7166   -1.1511   -2.9670 C   0  0  0  0  0  0  0  0  0  0  0  0
   10.2382   -1.2576   -2.9299 C   0  0  0  0  0  0  0  0  0  0  0  0
    8.1266    1.2010   -2.0773 C   0  0  0  0  0  0  0  0  0  0  0  0
    8.4720    2.0547   -3.5733 Cl  0  0  0  0  0  0  0  0  0  0  0  0
    7.7475    1.8522   -0.8929 C   0  0  0  0  0  0  0  0  0  0  0  0
    7.5878    3.5978   -0.7592 Cl  0  0  0  0  0  0  0  0  0  0  0  0
    8.1286    1.1445    2.6266 C   0  0  0  0  0  0  0  0  0  0  0  0
    7.8506    1.5366    3.9409 C   0  0  0  0  0  0  0  0  0  0  0  0
    6.6272    2.1590    4.2558 C   0  0  0  0  0  0  0  0  0  0  0  0
    6.2763    2.5303    5.6380 C   0  0  0  0  0  0  0  0  0  0  0  0
    5.9317    4.0957    6.1551 S   0  0  0  0  0  0  0  0  0  0  0  0
    5.5696    3.6817    7.7442 C   0  0  0  0  0  0  0  0  0  0  0  0
    5.0560    4.6428    8.7692 C   0  0  0  0  0  0  0  0  0  0  0  0
    3.5351    4.7341    8.7059 C   0  0  0  0  0  0  0  0  0  0  0  0
    5.6825    2.2987    7.8831 C   0  0  0  0  0  0  0  0  0  0  0  0
    6.0848    1.6533    6.7046 C   0  0  0  0  0  0  0  0  0  0  0  0
    6.2301   -0.0936    6.5648 Cl  0  0  0  0  0  0  0  0  0  0  0  0
    5.3066    1.4400    9.3714 Cl  0  0  0  0  0  0  0  0  0  0  0  0
    5.7305    2.3745    3.1950 C   0  0  0  0  0  0  0  0  0  0  0  0
    4.2013    3.0746    3.2469 S   0  0  0  0  0  0  0  0  0  0  0  0
    8.9063    1.2750    4.8300 C   0  0  0  0  0  0  0  0  0  0  0  0
    9.9972    0.6676    4.2182 C   0  0  0  0  0  0  0  0  0  0  0  0
    9.6722    0.4747    2.5742 S   0  0  0  0  0  0  0  0  0  0  0  0
    3.8853  -10.2506    9.3096 H   0  0  0  0  0  0  0  0  0  0  0  0
    2.1524   -8.3104    9.4016 H   0  0  0  0  0  0  0  0  0  0  0  0
   -1.5316   -3.3129   10.5319 H   0  0  0  0  0  0  0  0  0  0  0  0
   -0.5106   -2.5817    9.2509 H   0  0  0  0  0  0  0  0  0  0  0  0
    0.4226   -2.1006   11.5030 H   0  0  0  0  0  0  0  0  0  0  0  0
    1.5586   -3.1376   10.5567 H   0  0  0  0  0  0  0  0  0  0  0  0
    0.5305   -3.8667   11.8586 H   0  0  0  0  0  0  0  0  0  0  0  0
    3.9466  -13.1758    0.7294 H   0  0  0  0  0  0  0  0  0  0  0  0
    2.1654  -13.3000    0.9449 H   0  0  0  0  0  0  0  0  0  0  0  0
    1.8248  -11.2788   -0.5023 H   0  0  0  0  0  0  0  0  0  0  0  0
    3.6204  -11.1444   -0.7231 H   0  0  0  0  0  0  0  0  0  0  0  0
    2.7295  -12.5790   -1.3661 H   0  0  0  0  0  0  0  0  0  0  0  0
    0.9012   -8.3021    2.3799 H   0  0  0  0  0  0  0  0  0  0  0  0
   -0.3178   -7.2620    0.4815 H   0  0  0  0  0  0  0  0  0  0  0  0
    1.7517   -8.5015   -5.0367 H   0  0  0  0  0  0  0  0  0  0  0  0
    0.8793  -10.0103   -4.6016 H   0  0  0  0  0  0  0  0  0  0  0  0
    0.4911   -9.4734   -6.9786 H   0  0  0  0  0  0  0  0  0  0  0  0
   -1.0556   -9.2824   -6.0732 H   0  0  0  0  0  0  0  0  0  0  0  0
   -0.1032   -7.8192   -6.5553 H   0  0  0  0  0  0  0  0  0  0  0  0
   -5.8479    1.0909    1.2137 H   0  0  0  0  0  0  0  0  0  0  0  0
   -4.7009    2.0064    2.2462 H   0  0  0  0  0  0  0  0  0  0  0  0
   -5.2291    0.5037    4.1860 H   0  0  0  0  0  0  0  0  0  0  0  0
   -6.3776   -0.4356    3.1400 H   0  0  0  0  0  0  0  0  0  0  0  0
   -6.7156    1.2947    3.5300 H   0  0  0  0  0  0  0  0  0  0  0  0
   -3.0052   -1.0607   -1.7995 H   0  0  0  0  0  0  0  0  0  0  0  0
   -5.2172   -1.4777   -3.8674 H   0  0  0  0  0  0  0  0  0  0  0  0
   -9.9880   -2.7733   -4.0351 H   0  0  0  0  0  0  0  0  0  0  0  0
  -10.6481   -1.8270   -2.6592 H   0  0  0  0  0  0  0  0  0  0  0  0
  -11.1023   -1.2202   -5.6612 H   0  0  0  0  0  0  0  0  0  0  0  0
  -12.2880   -1.9586   -4.5208 H   0  0  0  0  0  0  0  0  0  0  0  0
  -11.7605   -0.2507   -4.2745 H   0  0  0  0  0  0  0  0  0  0  0  0
    1.3697    4.5366   -8.9871 H   0  0  0  0  0  0  0  0  0  0  0  0
    0.8667    5.4722   -7.5399 H   0  0  0  0  0  0  0  0  0  0  0  0
    3.1973    4.4665   -7.3763 H   0  0  0  0  0  0  0  0  0  0  0  0
    2.4574    2.8190   -7.4023 H   0  0  0  0  0  0  0  0  0  0  0  0
    2.0933    3.9713   -6.0453 H   0  0  0  0  0  0  0  0  0  0  0  0
   -3.8996    4.7363   -6.9109 H   0  0  0  0  0  0  0  0  0  0  0  0
   -8.6633    5.6107   -7.2230 H   0  0  0  0  0  0  0  0  0  0  0  0
   -7.5386    6.2111   -8.5117 H   0  0  0  0  0  0  0  0  0  0  0  0
   -8.7884    7.3146   -7.8096 H   0  0  0  0  0  0  0  0  0  0  0  0
   -7.4999    9.0133   -6.4462 H   0  0  0  0  0  0  0  0  0  0  0  0
   -6.1552   10.2756   -4.7233 H   0  0  0  0  0  0  0  0  0  0  0  0
   -5.3851    9.2626   -3.4421 H   0  0  0  0  0  0  0  0  0  0  0  0
   -4.4589    9.6958   -4.9359 H   0  0  0  0  0  0  0  0  0  0  0  0
   -3.6216    7.3052   -3.8503 H   0  0  0  0  0  0  0  0  0  0  0  0
   -4.9256    4.5401   -3.8282 H   0  0  0  0  0  0  0  0  0  0  0  0
   -2.8544    6.4540   -1.3221 H   0  0  0  0  0  0  0  0  0  0  0  0
    0.4964    9.7989    2.9636 H   0  0  0  0  0  0  0  0  0  0  0  0
   -0.9333    9.5437    4.0174 H   0  0  0  0  0  0  0  0  0  0  0  0
   -1.0703   11.7511    2.9123 H   0  0  0  0  0  0  0  0  0  0  0  0
   -2.3808   10.6888    2.2739 H   0  0  0  0  0  0  0  0  0  0  0  0
   -0.8985   10.9900    1.2832 H   0  0  0  0  0  0  0  0  0  0  0  0
    1.2085    0.6337   -6.7770 H   0  0  0  0  0  0  0  0  0  0  0  0
    1.1089   -1.0589   -6.1876 H   0  0  0  0  0  0  0  0  0  0  0  0
    3.3961   -0.4133   -7.0943 H   0  0  0  0  0  0  0  0  0  0  0  0
    3.4506   -0.9534   -5.3742 H   0  0  0  0  0  0  0  0  0  0  0  0
    3.5463    0.8121   -5.7762 H   0  0  0  0  0  0  0  0  0  0  0  0
    2.5340    1.8213   -0.7120 H   0  0  0  0  0  0  0  0  0  0  0  0
    4.9597    1.9534   -0.0524 H   0  0  0  0  0  0  0  0  0  0  0  0
    8.3935   -0.8212   -3.9780 H   0  0  0  0  0  0  0  0  0  0  0  0
    8.2724   -2.1518   -2.7744 H   0  0  0  0  0  0  0  0  0  0  0  0
   10.6981   -0.2758   -3.1801 H   0  0  0  0  0  0  0  0  0  0  0  0
   10.5786   -1.5738   -1.9180 H   0  0  0  0  0  0  0  0  0  0  0  0
   10.5800   -2.0101   -3.6742 H   0  0  0  0  0  0  0  0  0  0  0  0
    5.3632    4.3138    9.7824 H   0  0  0  0  0  0  0  0  0  0  0  0
    5.4949    5.6473    8.5863 H   0  0  0  0  0  0  0  0  0  0  0  0
    3.2046    5.0550    7.6926 H   0  0  0  0  0  0  0  0  0  0  0  0
    3.1767    5.4757    9.4505 H   0  0  0  0  0  0  0  0  0  0  0  0
    3.0801    3.7465    8.9379 H   0  0  0  0  0  0  0  0  0  0  0  0
    8.8899    1.5245    5.8808 H   0  0  0  0  0  0  0  0  0  0  0  0
   10.9139    0.3827    4.7133 H   0  0  0  0  0  0  0  0  0  0  0  0
  1  2  2  0
  2  3  1  0
  3  4  2  0
  4  5  1  0
  5  6  1  0
  6  7  1  0
  7  8  1  0
  8  9  1  0
  7 10  2  0
 10 11  1  0
 10 12  1  0
 12 13  1  0
  4 14  1  0
 14 15  2  0
 15 16  1  0
 16 17  1  0
 17 18  1  0
 18 19  1  0
 19 20  1  0
 20 21  1  0
 19 22  2  0
 22 23  1  0
 23 24  1  0
 22 25  1  0
 16 26  2  0
 26 27  1  0
 15 28  1  0
 28 29  2  0
 29 30  1  0
 29 31  1  0
 31 32  2  0
 32 33  1  0
 33 34  2  0
 34 35  1  0
 35 36  1  0
 36 37  1  0
 37 38  1  0
 38 39  1  0
 37 40  2  0
 40 41  1  0
 40 42  1  0
 42 43  1  0
 34 44  1  0
 44 45  2  0
 45 46  1  0
 46 47  1  0
 47 48  1  0
 48 49  1  0
 49 50  1  0
 50 51  1  0
 49 52  2  0
 52 53  1  0
 53 54  1  0
 52 55  1  0
 46 56  2  0
 56 57  1  0
 45 58  1  0
 58 59  2  0
 59 60  1  0
 59 61  1  0
 61 62  2  0
 62 63  1  0
 63 64  2  0
 64 65  1  0
 65 66  1  0
 66 67  1  0
 67 68  1  0
 68 69  1  0
 67 70  2  0
 70 71  1  0
 70 72  1  0
 72 73  1  0
 64 74  1  0
 74 75  2  0
 75 76  1  0
 76 77  1  0
 77 78  1  0
 78 79  1  0
 79 80  1  0
 80 81  1  0
 79 82  2  0
 82 83  1  0
 83 84  1  0
 82 85  1  0
 76 86  2  0
 86 87  1  0
 75 88  1  0
 88 89  2  0
 89 90  1  0
 89 91  1  0
 91 92  2  0
 92 93  1  0
 92 94  1  0
 94 95  1  0
 95 96  1  0
 95 97  2  0
 97 98  1  0
 98 99  2  3
 99100  1  0
100101  2  0
101102  1  0
102103  2  0
103104  1  0
104105  1  0
105106  1  0
106107  1  0
107108  1  0
106109  2  0
109110  1  0
109111  1  0
111112  1  0
103113  1  0
113114  2  0
114115  1  0
115116  1  0
116117  1  0
117118  1  0
118119  1  0
119120  1  0
118121  2  0
121122  1  0
122123  1  0
121124  1  0
115125  2  0
125126  1  0
114127  1  0
127128  2  0
128129  1  0
128130  1  0
130131  2  0
131132  1  0
132133  2  0
133134  1  0
134135  1  0
135136  1  0
136137  1  0
137138  1  0
136139  2  0
139140  1  0
139141  1  0
141142  1  0
133143  1  0
143144  2  0
144145  1  0
145146  1  0
146147  1  0
147148  1  0
148149  1  0
149150  1  0
148151  2  0
151152  1  0
152153  1  0
151154  1  0
145155  2  0
155156  1  0
144157  1  0
157158  2  0
158159  1  0
 27  1  1  0
 57 31  1  0
 87 61  1  0
 97 91  1  0
126100  1  0
156130  1  0
 26  3  1  0
 56 33  1  0
 86 63  1  0
125102  1  0
155132  1  0
 12  5  2  0
 30 14  1  0
 42 35  2  0
 60 44  1  0
 72 65  2  0
 90 74  1  0
111104  2  0
129113  1  0
141134  2  0
159143  1  0
 23 17  2  0
 53 47  2  0
 83 77  2  0
122116  2  0
152146  2  0
  1160  1  0
  2161  1  0
  8162  1  0
  8163  1  0
  9164  1  0
  9165  1  0
  9166  1  0
 20167  1  0
 20168  1  0
 21169  1  0
 21170  1  0
 21171  1  0
 28172  1  0
 32173  1  0
 38174  1  0
 38175  1  0
 39176  1  0
 39177  1  0
 39178  1  0
 50179  1  0
 50180  1  0
 51181  1  0
 51182  1  0
 51183  1  0
 58184  1  0
 62185  1  0
 68186  1  0
 68187  1  0
 69188  1  0
 69189  1  0
 69190  1  0
 80191  1  0
 80192  1  0
 81193  1  0
 81194  1  0
 81195  1  0
 88196  1  0
 93197  1  0
 93198  1  0
 93199  1  0
 94200  1  0
 96201  1  0
 96202  1  0
 96203  1  0
 98204  1  0
 99205  1  0
101206  1  0
107207  1  0
107208  1  0
108209  1  0
108210  1  0
108211  1  0
119212  1  0
119213  1  0
120214  1  0
120215  1  0
120216  1  0
127217  1  0
131218  1  0
137219  1  0
137220  1  0
138221  1  0
138222  1  0
138223  1  0
149224  1  0
149225  1  0
150226  1  0
150227  1  0
150228  1  0
157229  1  0
158230  1  0
M  END

