
     RDKit          3D

116129  0  0  0  0  0  0  0  0999 V2000
    6.5027   -1.3050    6.5729 C   0  0  0  0  0  0  0  0  0  0  0  0
    5.9024   -0.1032    6.9006 C   0  0  0  0  0  0  0  0  0  0  0  0
    4.6468   -0.1613    7.3820 C   0  0  0  0  0  0  0  0  0  0  0  0
    4.1735    1.1066    7.6581 O   0  0  0  0  0  0  0  0  0  0  0  0
    5.2177    2.0447    7.3219 C   0  0  0  0  0  0  0  0  0  0  0  0
    6.3471    1.2332    6.8314 N   0  0  0  0  0  0  0  0  0  0  0  0
    4.0998   -1.4246    7.4950 C   0  0  0  0  0  0  0  0  0  0  0  0
    5.3217   -2.4754    6.9410 S   0  0  0  0  0  0  0  0  0  0  0  0
    2.7634   -1.7580    8.0080 C   0  0  0  0  0  0  0  0  0  0  0  0
    2.3085   -3.0138    8.0439 C   0  0  0  0  0  0  0  0  0  0  0  0
    0.9699   -3.3547    8.5474 C   0  0  0  0  0  0  0  0  0  0  0  0
    0.1602   -2.6712    9.4462 C   0  0  0  0  0  0  0  0  0  0  0  0
   -1.0141   -3.2605    9.7424 C   0  0  0  0  0  0  0  0  0  0  0  0
   -1.6712   -2.5707   10.7410 O   0  0  0  0  0  0  0  0  0  0  0  0
   -0.8322   -1.4680   11.1364 C   0  0  0  0  0  0  0  0  0  0  0  0
    0.3704   -1.5536   10.2882 N   0  0  0  0  0  0  0  0  0  0  0  0
   -1.2924   -4.4371    9.0756 C   0  0  0  0  0  0  0  0  0  0  0  0
    0.0959   -4.7584    8.1436 S   0  0  0  0  0  0  0  0  0  0  0  0
   -2.4279   -5.3332    9.3230 C   0  0  0  0  0  0  0  0  0  0  0  0
   -3.3558   -5.6756    8.4153 C   0  0  0  0  0  0  0  0  0  0  0  0
   -3.4849   -5.1494    7.0359 C   0  0  0  0  0  0  0  0  0  0  0  0
   -2.5565   -3.9230    6.2970 S   0  0  0  0  0  0  0  0  0  0  0  0
   -3.3943   -3.9815    4.8551 C   0  0  0  0  0  0  0  0  0  0  0  0
   -3.1919   -3.3854    3.5476 C   0  0  0  0  0  0  0  0  0  0  0  0
   -4.0471   -3.8315    2.5740 C   0  0  0  0  0  0  0  0  0  0  0  0
   -5.2803   -5.1500    3.2368 Ge  0  0  0  0  0  4  0  0  0  0  0  0
   -4.9817   -6.9207    2.4864 C   0  0  0  0  0  0  0  0  0  0  0  0
   -5.5130   -6.9964    1.0631 C   0  0  0  0  0  0  0  0  0  0  0  0
   -7.1363   -4.5612    3.2620 C   0  0  0  0  0  0  0  0  0  0  0  0
   -8.0005   -5.5737    3.9988 C   0  0  0  0  0  0  0  0  0  0  0  0
   -4.3847   -4.9195    4.9174 C   0  0  0  0  0  0  0  0  0  0  0  0
   -4.4591   -5.5965    6.1307 C   0  0  0  0  0  0  0  0  0  0  0  0
   -3.7001   -3.4385    1.2838 C   0  0  0  0  0  0  0  0  0  0  0  0
   -2.5157   -2.6913    1.2832 C   0  0  0  0  0  0  0  0  0  0  0  0
   -1.9142   -2.5439    2.8685 S   0  0  0  0  0  0  0  0  0  0  0  0
   -1.8190   -2.2161    0.0843 C   0  0  0  0  0  0  0  0  0  0  0  0
   -2.5870   -1.6492   -1.3271 S   0  0  0  0  0  0  0  0  0  0  0  0
   -1.1385   -1.2968   -2.0949 C   0  0  0  0  0  0  0  0  0  0  0  0
   -0.7807   -0.6111   -3.3242 C   0  0  0  0  0  0  0  0  0  0  0  0
    0.5621   -0.3986   -3.4908 C   0  0  0  0  0  0  0  0  0  0  0  0
    1.6120   -1.1224   -2.0588 Ge  0  0  0  0  0  4  0  0  0  0  0  0
    2.5887    0.2299   -1.0506 C   0  0  0  0  0  0  0  0  0  0  0  0
    3.1475   -0.3708    0.2296 C   0  0  0  0  0  0  0  0  0  0  0  0
    2.6723   -2.6532   -2.6338 C   0  0  0  0  0  0  0  0  0  0  0  0
    3.9024   -2.1868   -3.3970 C   0  0  0  0  0  0  0  0  0  0  0  0
   -0.0765   -1.6069   -1.2878 C   0  0  0  0  0  0  0  0  0  0  0  0
   -0.4292   -2.1144   -0.0438 C   0  0  0  0  0  0  0  0  0  0  0  0
    0.8844    0.4569   -4.5392 C   0  0  0  0  0  0  0  0  0  0  0  0
   -0.2626    0.9228   -5.1943 C   0  0  0  0  0  0  0  0  0  0  0  0
   -1.6507    0.2806   -4.4424 S   0  0  0  0  0  0  0  0  0  0  0  0
   -0.2561    1.9183   -6.2771 C   0  0  0  0  0  0  0  0  0  0  0  0
   -1.3241    2.6019   -6.8386 C   0  0  0  0  0  0  0  0  0  0  0  0
   -1.0115    3.5287   -7.7673 C   0  0  0  0  0  0  0  0  0  0  0  0
   -2.1510    4.1740   -8.2060 O   0  0  0  0  0  0  0  0  0  0  0  0
   -3.2751    3.6273   -7.4909 C   0  0  0  0  0  0  0  0  0  0  0  0
   -2.7176    2.5981   -6.5976 N   0  0  0  0  0  0  0  0  0  0  0  0
    0.3380    3.6728   -8.0574 C   0  0  0  0  0  0  0  0  0  0  0  0
    1.1203    2.5553   -7.0479 S   0  0  0  0  0  0  0  0  0  0  0  0
    1.0105    4.5991   -8.9832 C   0  0  0  0  0  0  0  0  0  0  0  0
    0.3591    5.5483   -9.6606 C   0  0  0  0  0  0  0  0  0  0  0  0
    1.0459    6.4706  -10.5779 C   0  0  0  0  0  0  0  0  0  0  0  0
    0.4632    7.4806  -11.3215 C   0  0  0  0  0  0  0  0  0  0  0  0
    1.2840    8.1774  -12.1278 C   0  0  0  0  0  0  0  0  0  0  0  0
    0.5720    9.1242  -12.8362 O   0  0  0  0  0  0  0  0  0  0  0  0
   -0.8137    9.0156  -12.4482 C   0  0  0  0  0  0  0  0  0  0  0  0
   -0.8681    7.9296  -11.4552 N   0  0  0  0  0  0  0  0  0  0  0  0
    2.6161    7.8075  -12.1067 C   0  0  0  0  0  0  0  0  0  0  0  0
    2.6974    6.5180  -10.9956 S   0  0  0  0  0  0  0  0  0  0  0  0
    3.7025    8.4040  -12.8958 C   0  0  0  0  0  0  0  0  0  0  0  0
    4.9534    7.9567  -12.8352 C   0  0  0  0  0  0  0  0  0  0  0  0
    7.4956   -1.4625    6.1737 H   0  0  0  0  0  0  0  0  0  0  0  0
    4.8699    2.7368    6.5251 H   0  0  0  0  0  0  0  0  0  0  0  0
    5.5211    2.6153    8.2239 H   0  0  0  0  0  0  0  0  0  0  0  0
    7.2744    1.5750    6.4854 H   0  0  0  0  0  0  0  0  0  0  0  0
    2.1356   -0.9397    8.3378 H   0  0  0  0  0  0  0  0  0  0  0  0
    2.9067   -3.8174    7.6333 H   0  0  0  0  0  0  0  0  0  0  0  0
   -0.5511   -1.5719   12.2059 H   0  0  0  0  0  0  0  0  0  0  0  0
   -1.3546   -0.5046   10.9635 H   0  0  0  0  0  0  0  0  0  0  0  0
    1.2612   -1.0289   10.4348 H   0  0  0  0  0  0  0  0  0  0  0  0
   -2.5311   -5.7227   10.3303 H   0  0  0  0  0  0  0  0  0  0  0  0
   -4.1201   -6.3716    8.7413 H   0  0  0  0  0  0  0  0  0  0  0  0
   -5.4995   -7.6697    3.1209 H   0  0  0  0  0  0  0  0  0  0  0  0
   -3.8914   -7.1368    2.4943 H   0  0  0  0  0  0  0  0  0  0  0  0
   -5.3409   -8.0143    0.6553 H   0  0  0  0  0  0  0  0  0  0  0  0
   -4.9902   -6.2596    0.4179 H   0  0  0  0  0  0  0  0  0  0  0  0
   -6.6054   -6.7889    1.0529 H   0  0  0  0  0  0  0  0  0  0  0  0
   -7.1936   -3.5743    3.7674 H   0  0  0  0  0  0  0  0  0  0  0  0
   -7.4959   -4.4524    2.2165 H   0  0  0  0  0  0  0  0  0  0  0  0
   -9.0584   -5.2368    3.9904 H   0  0  0  0  0  0  0  0  0  0  0  0
   -7.6615   -5.6698    5.0521 H   0  0  0  0  0  0  0  0  0  0  0  0
   -7.9383   -6.5642    3.5023 H   0  0  0  0  0  0  0  0  0  0  0  0
   -5.1695   -6.3862    6.3346 H   0  0  0  0  0  0  0  0  0  0  0  0
   -4.2269   -3.7522    0.3928 H   0  0  0  0  0  0  0  0  0  0  0  0
    3.4226    0.6101   -1.6801 H   0  0  0  0  0  0  0  0  0  0  0  0
    1.9040    1.0702   -0.8092 H   0  0  0  0  0  0  0  0  0  0  0  0
    2.3143   -0.6731    0.9033 H   0  0  0  0  0  0  0  0  0  0  0  0
    3.7720    0.3872    0.7506 H   0  0  0  0  0  0  0  0  0  0  0  0
    3.7805   -1.2568    0.0005 H   0  0  0  0  0  0  0  0  0  0  0  0
    2.0424   -3.2955   -3.2813 H   0  0  0  0  0  0  0  0  0  0  0  0
    2.9858   -3.2317   -1.7405 H   0  0  0  0  0  0  0  0  0  0  0  0
    4.6054   -1.6774   -2.7019 H   0  0  0  0  0  0  0  0  0  0  0  0
    3.6217   -1.4811   -4.2097 H   0  0  0  0  0  0  0  0  0  0  0  0
    4.4204   -3.0626   -3.8467 H   0  0  0  0  0  0  0  0  0  0  0  0
    0.2822   -2.3814    0.7269 H   0  0  0  0  0  0  0  0  0  0  0  0
    1.8936    0.7709   -4.7673 H   0  0  0  0  0  0  0  0  0  0  0  0
   -3.9959    3.1707   -8.2014 H   0  0  0  0  0  0  0  0  0  0  0  0
   -3.7681    4.4265   -6.8945 H   0  0  0  0  0  0  0  0  0  0  0  0
   -3.2500    2.0203   -5.9137 H   0  0  0  0  0  0  0  0  0  0  0  0
    2.0819    4.5006   -9.0936 H   0  0  0  0  0  0  0  0  0  0  0  0
   -0.7076    5.6691   -9.5424 H   0  0  0  0  0  0  0  0  0  0  0  0
   -1.1567    9.9686  -11.9923 H   0  0  0  0  0  0  0  0  0  0  0  0
   -1.4383    8.7553  -13.3284 H   0  0  0  0  0  0  0  0  0  0  0  0
   -1.7095    7.5677  -10.9562 H   0  0  0  0  0  0  0  0  0  0  0  0
    3.4736    9.2375  -13.5487 H   0  0  0  0  0  0  0  0  0  0  0  0
    5.7213    8.4253  -13.4348 H   0  0  0  0  0  0  0  0  0  0  0  0
    5.2291    7.1248  -12.2006 H   0  0  0  0  0  0  0  0  0  0  0  0
  1  2  2  0
  2  3  1  0
  3  4  1  0
  4  5  1  0
  5  6  1  0
  3  7  2  0
  7  8  1  0
  7  9  1  0
  9 10  2  3
 10 11  1  0
 11 12  2  0
 12 13  1  0
 13 14  1  0
 14 15  1  0
 15 16  1  0
 13 17  2  0
 17 18  1  0
 17 19  1  0
 19 20  2  3
 20 21  1  0
 21 22  1  0
 22 23  1  0
 23 24  1  0
 24 25  2  0
 25 26  1  0
 26 27  1  0
 27 28  1  0
 26 29  1  0
 29 30  1  0
 26 31  1  0
 31 32  1  0
 25 33  1  0
 33 34  2  0
 34 35  1  0
 34 36  1  0
 36 37  1  0
 37 38  1  0
 38 39  1  0
 39 40  2  0
 40 41  1  0
 41 42  1  0
 42 43  1  0
 41 44  1  0
 44 45  1  0
 41 46  1  0
 46 47  1  0
 40 48  1  0
 48 49  2  0
 49 50  1  0
 49 51  1  0
 51 52  2  0
 52 53  1  0
 53 54  1  0
 54 55  1  0
 55 56  1  0
 53 57  2  0
 57 58  1  0
 57 59  1  0
 59 60  2  3
 60 61  1  0
 61 62  2  0
 62 63  1  0
 63 64  1  0
 64 65  1  0
 65 66  1  0
 63 67  2  0
 67 68  1  0
 67 69  1  0
 69 70  2  3
  8  1  1  0
 18 11  1  0
 32 21  2  0
 47 36  2  0
 58 51  1  0
 68 61  1  0
  6  2  1  0
 16 12  1  0
 31 23  2  0
 46 38  2  0
 56 52  1  0
 66 62  1  0
 35 24  1  0
 50 39  1  0
  1 71  1  0
  5 72  1  0
  5 73  1  0
  6 74  1  0
  9 75  1  0
 10 76  1  0
 15 77  1  0
 15 78  1  0
 16 79  1  0
 19 80  1  0
 20 81  1  0
 27 82  1  0
 27 83  1  0
 28 84  1  0
 28 85  1  0
 28 86  1  0
 29 87  1  0
 29 88  1  0
 30 89  1  0
 30 90  1  0
 30 91  1  0
 32 92  1  0
 33 93  1  0
 42 94  1  0
 42 95  1  0
 43 96  1  0
 43 97  1  0
 43 98  1  0
 44 99  1  0
 44100  1  0
 45101  1  0
 45102  1  0
 45103  1  0
 47104  1  0
 48105  1  0
 55106  1  0
 55107  1  0
 56108  1  0
 59109  1  0
 60110  1  0
 65111  1  0
 65112  1  0
 66113  1  0
 69114  1  0
 70115  1  0
 70116  1  0
M  END

