
     RDKit          3D

 94105  0  0  0  0  0  0  0  0999 V2000
    5.6442    5.1285    2.8125 C   0  0  0  0  0  0  0  0  0  0  0  0
    5.3256    3.8572    2.4224 C   0  0  0  0  0  0  0  0  0  0  0  0
    4.1824    3.3405    2.8885 C   0  0  0  0  0  0  0  0  0  0  0  0
    4.0452    2.0116    2.3584 O   0  0  0  0  0  0  0  0  0  0  0  0
    5.3578    1.5566    2.0531 C   0  0  0  0  0  0  0  0  0  0  0  0
    5.9440    2.8279    1.6038 N   0  0  0  0  0  0  0  0  0  0  0  0
    3.4154    4.1002    3.7105 C   0  0  0  0  0  0  0  0  0  0  0  0
    4.3253    5.5482    3.8190 S   0  0  0  0  0  0  0  0  0  0  0  0
    2.1120    3.8098    4.3564 C   0  0  0  0  0  0  0  0  0  0  0  0
    1.4340    2.7365    4.1611 C   0  0  0  0  0  0  0  0  0  0  0  0
    0.1510    2.5033    4.8349 C   0  0  0  0  0  0  0  0  0  0  0  0
   -0.5414    3.1990    5.7841 C   0  0  0  0  0  0  0  0  0  0  0  0
   -1.7159    2.7257    6.1922 C   0  0  0  0  0  0  0  0  0  0  0  0
   -2.2294    3.6253    7.1714 O   0  0  0  0  0  0  0  0  0  0  0  0
   -1.6405    4.9136    6.8815 C   0  0  0  0  0  0  0  0  0  0  0  0
   -0.3056    4.4275    6.5290 N   0  0  0  0  0  0  0  0  0  0  0  0
   -2.1717    1.5389    5.6229 C   0  0  0  0  0  0  0  0  0  0  0  0
   -0.9191    1.1714    4.5531 S   0  0  0  0  0  0  0  0  0  0  0  0
   -3.3867    0.8112    5.9753 C   0  0  0  0  0  0  0  0  0  0  0  0
   -3.9963   -0.1543    5.3855 C   0  0  0  0  0  0  0  0  0  0  0  0
   -3.6830   -0.8519    4.1587 C   0  0  0  0  0  0  0  0  0  0  0  0
   -2.3720   -0.6653    3.0720 S   0  0  0  0  0  0  0  0  0  0  0  0
   -2.8322   -1.7966    1.8932 C   0  0  0  0  0  0  0  0  0  0  0  0
   -4.0656   -2.3426    2.3804 C   0  0  0  0  0  0  0  0  0  0  0  0
   -4.8401   -3.2938    1.8041 C   0  0  0  0  0  0  0  0  0  0  0  0
   -5.9958   -3.7459    2.3575 C   0  0  0  0  0  0  0  0  0  0  0  0
   -6.9952   -4.7695    1.8956 C   0  0  0  0  0  0  0  0  0  0  0  0
   -6.5446   -5.2906    0.5751 C   0  0  0  0  0  0  0  0  0  0  0  0
   -6.1616   -2.7790    3.9461 Se  0  0  0  0  0  2  0  0  0  0  0  0
   -4.3639   -1.7886    3.5011 C   0  0  0  0  0  0  0  0  0  0  0  0
   -2.1267   -2.0822    0.6595 C   0  0  0  0  0  0  0  0  0  0  0  0
   -2.5938   -3.0811   -0.6503 S   0  0  0  0  0  0  0  0  0  0  0  0
   -1.2579   -2.8644   -1.6451 C   0  0  0  0  0  0  0  0  0  0  0  0
   -0.4013   -1.9754   -0.9206 C   0  0  0  0  0  0  0  0  0  0  0  0
    0.8244   -1.4854   -1.2637 C   0  0  0  0  0  0  0  0  0  0  0  0
    1.5577   -0.6646   -0.5106 C   0  0  0  0  0  0  0  0  0  0  0  0
    2.8868   -0.0353   -0.6540 C   0  0  0  0  0  0  0  0  0  0  0  0
    2.8880    1.2928   -1.3514 C   0  0  0  0  0  0  0  0  0  0  0  0
    0.4067   -0.4420    1.0510 Se  0  0  0  0  0  2  0  0  0  0  0  0
   -0.9267   -1.6277    0.2440 C   0  0  0  0  0  0  0  0  0  0  0  0
   -1.1128   -3.4231   -2.9805 C   0  0  0  0  0  0  0  0  0  0  0  0
   -1.8812   -4.3393   -3.6591 C   0  0  0  0  0  0  0  0  0  0  0  0
   -1.5093   -4.6411   -4.8988 C   0  0  0  0  0  0  0  0  0  0  0  0
   -2.4385   -5.5994   -5.4088 O   0  0  0  0  0  0  0  0  0  0  0  0
   -3.3449   -5.9949   -4.4417 C   0  0  0  0  0  0  0  0  0  0  0  0
   -3.0751   -5.0991   -3.3238 N   0  0  0  0  0  0  0  0  0  0  0  0
   -0.3953   -4.0286   -5.4212 C   0  0  0  0  0  0  0  0  0  0  0  0
    0.0934   -3.0284   -4.0969 S   0  0  0  0  0  0  0  0  0  0  0  0
    0.2996   -4.2357   -6.6764 C   0  0  0  0  0  0  0  0  0  0  0  0
    1.0967   -3.4580   -7.2889 C   0  0  0  0  0  0  0  0  0  0  0  0
    1.5699   -2.1056   -6.9745 C   0  0  0  0  0  0  0  0  0  0  0  0
    0.9789   -1.0299   -6.3806 C   0  0  0  0  0  0  0  0  0  0  0  0
    1.7337    0.0231   -6.0708 C   0  0  0  0  0  0  0  0  0  0  0  0
    0.9183    1.0389   -5.4698 O   0  0  0  0  0  0  0  0  0  0  0  0
   -0.4209    0.7631   -5.7245 C   0  0  0  0  0  0  0  0  0  0  0  0
   -0.3726   -0.6700   -5.9851 N   0  0  0  0  0  0  0  0  0  0  0  0
    3.0624   -0.0293   -6.3666 C   0  0  0  0  0  0  0  0  0  0  0  0
    3.2300   -1.5672   -7.0861 S   0  0  0  0  0  0  0  0  0  0  0  0
    4.1520    0.9371   -6.1135 C   0  0  0  0  0  0  0  0  0  0  0  0
    5.0130    1.2442   -7.0424 C   0  0  0  0  0  0  0  0  0  0  0  0
    6.5341    5.7225    2.5348 H   0  0  0  0  0  0  0  0  0  0  0  0
    5.4262    0.7614    1.3348 H   0  0  0  0  0  0  0  0  0  0  0  0
    5.8488    1.3308    3.0281 H   0  0  0  0  0  0  0  0  0  0  0  0
    6.6447    2.9542    0.8632 H   0  0  0  0  0  0  0  0  0  0  0  0
    1.7658    4.5920    5.0083 H   0  0  0  0  0  0  0  0  0  0  0  0
    1.7850    1.9541    3.4809 H   0  0  0  0  0  0  0  0  0  0  0  0
   -1.6555    5.5566    7.7545 H   0  0  0  0  0  0  0  0  0  0  0  0
   -2.1372    5.3913    6.0298 H   0  0  0  0  0  0  0  0  0  0  0  0
    0.5313    4.9229    6.8179 H   0  0  0  0  0  0  0  0  0  0  0  0
   -3.8542    1.1603    6.9456 H   0  0  0  0  0  0  0  0  0  0  0  0
   -4.9246   -0.5053    5.9258 H   0  0  0  0  0  0  0  0  0  0  0  0
   -4.6171   -3.8102    0.8060 H   0  0  0  0  0  0  0  0  0  0  0  0
   -6.9932   -5.5893    2.6788 H   0  0  0  0  0  0  0  0  0  0  0  0
   -7.9711   -4.2974    1.9216 H   0  0  0  0  0  0  0  0  0  0  0  0
   -5.4862   -5.6603    0.6404 H   0  0  0  0  0  0  0  0  0  0  0  0
   -6.5703   -4.4753   -0.1787 H   0  0  0  0  0  0  0  0  0  0  0  0
   -7.1434   -6.1418    0.2054 H   0  0  0  0  0  0  0  0  0  0  0  0
    1.3466   -1.7550   -2.2518 H   0  0  0  0  0  0  0  0  0  0  0  0
    3.4360   -0.0287    0.3142 H   0  0  0  0  0  0  0  0  0  0  0  0
    3.5016   -0.7367   -1.2961 H   0  0  0  0  0  0  0  0  0  0  0  0
    3.8398    1.4647   -1.9040 H   0  0  0  0  0  0  0  0  0  0  0  0
    2.0784    1.2855   -2.1147 H   0  0  0  0  0  0  0  0  0  0  0  0
    2.6426    2.1345   -0.6734 H   0  0  0  0  0  0  0  0  0  0  0  0
   -4.4189   -5.9592   -4.7512 H   0  0  0  0  0  0  0  0  0  0  0  0
   -3.0788   -7.0278   -4.0577 H   0  0  0  0  0  0  0  0  0  0  0  0
   -3.6552   -5.0442   -2.4589 H   0  0  0  0  0  0  0  0  0  0  0  0
    0.0837   -5.2271   -7.1346 H   0  0  0  0  0  0  0  0  0  0  0  0
    1.5493   -3.8168   -8.2551 H   0  0  0  0  0  0  0  0  0  0  0  0
   -1.0142    0.9390   -4.7977 H   0  0  0  0  0  0  0  0  0  0  0  0
   -0.8450    1.2866   -6.6148 H   0  0  0  0  0  0  0  0  0  0  0  0
   -1.2062   -1.2551   -5.9018 H   0  0  0  0  0  0  0  0  0  0  0  0
    4.2167    1.3861   -5.1382 H   0  0  0  0  0  0  0  0  0  0  0  0
    5.0394    0.8574   -8.0478 H   0  0  0  0  0  0  0  0  0  0  0  0
    5.7892    1.9747   -6.8007 H   0  0  0  0  0  0  0  0  0  0  0  0
  1  2  2  0
  2  3  1  0
  3  4  1  0
  4  5  1  0
  5  6  1  0
  3  7  2  0
  7  8  1  0
  7  9  1  0
  9 10  2  3
 10 11  1  0
 11 12  2  0
 12 13  1  0
 13 14  1  0
 14 15  1  0
 15 16  1  0
 13 17  2  0
 17 18  1  0
 17 19  1  0
 19 20  2  3
 20 21  1  0
 21 22  1  0
 22 23  1  0
 23 24  2  0
 24 25  1  0
 25 26  2  0
 26 27  1  0
 27 28  1  0
 26 29  1  0
 29 30  1  0
 23 31  1  0
 31 32  1  0
 32 33  1  0
 33 34  2  0
 34 35  1  0
 35 36  2  0
 36 37  1  0
 37 38  1  0
 36 39  1  0
 39 40  1  0
 33 41  1  0
 41 42  2  0
 42 43  1  0
 43 44  1  0
 44 45  1  0
 45 46  1  0
 43 47  2  0
 47 48  1  0
 47 49  1  0
 49 50  2  3
 50 51  1  0
 51 52  2  0
 52 53  1  0
 53 54  1  0
 54 55  1  0
 55 56  1  0
 53 57  2  0
 57 58  1  0
 57 59  1  0
 59 60  2  3
  8  1  1  0
 18 11  1  0
 30 21  2  0
 40 31  2  0
 48 41  1  0
 58 51  1  0
  6  2  1  0
 16 12  1  0
 30 24  1  0
 40 34  1  0
 46 42  1  0
 56 52  1  0
  1 61  1  0
  5 62  1  0
  5 63  1  0
  6 64  1  0
  9 65  1  0
 10 66  1  0
 15 67  1  0
 15 68  1  0
 16 69  1  0
 19 70  1  0
 20 71  1  0
 25 72  1  0
 27 73  1  0
 27 74  1  0
 28 75  1  0
 28 76  1  0
 28 77  1  0
 35 78  1  0
 37 79  1  0
 37 80  1  0
 38 81  1  0
 38 82  1  0
 38 83  1  0
 45 84  1  0
 45 85  1  0
 46 86  1  0
 49 87  1  0
 50 88  1  0
 55 89  1  0
 55 90  1  0
 56 91  1  0
 59 92  1  0
 60 93  1  0
 60 94  1  0
M  END

