
     RDKit          3D

104115  0  0  0  0  0  0  0  0999 V2000
    7.0200   -4.6833    1.2609 C   0  0  0  0  0  0  0  0  0  0  0  0
    6.6120   -3.3753    1.4529 C   0  0  0  0  0  0  0  0  0  0  0  0
    6.4103   -2.6361    0.3489 C   0  0  0  0  0  0  0  0  0  0  0  0
    6.1148   -1.3301    0.6884 O   0  0  0  0  0  0  0  0  0  0  0  0
    6.1170   -1.2421    2.1264 C   0  0  0  0  0  0  0  0  0  0  0  0
    6.4646   -2.5862    2.6111 N   0  0  0  0  0  0  0  0  0  0  0  0
    6.5749   -3.2940   -0.8579 C   0  0  0  0  0  0  0  0  0  0  0  0
    7.0786   -4.8574   -0.4242 S   0  0  0  0  0  0  0  0  0  0  0  0
    6.5405   -2.7415   -2.2232 C   0  0  0  0  0  0  0  0  0  0  0  0
    5.6985   -1.7840   -2.6415 C   0  0  0  0  0  0  0  0  0  0  0  0
    4.5426   -1.3050   -1.8715 C   0  0  0  0  0  0  0  0  0  0  0  0
    4.0332   -0.0245   -1.8560 C   0  0  0  0  0  0  0  0  0  0  0  0
    2.8990    0.1600   -1.1561 C   0  0  0  0  0  0  0  0  0  0  0  0
    2.5116    1.4810   -1.2016 O   0  0  0  0  0  0  0  0  0  0  0  0
    3.4665    2.1929   -2.0146 C   0  0  0  0  0  0  0  0  0  0  0  0
    4.4662    1.1924   -2.4270 N   0  0  0  0  0  0  0  0  0  0  0  0
    2.3650   -0.9669   -0.5621 C   0  0  0  0  0  0  0  0  0  0  0  0
    3.4192   -2.2385   -0.9914 S   0  0  0  0  0  0  0  0  0  0  0  0
    1.1697   -1.0378    0.2916 C   0  0  0  0  0  0  0  0  0  0  0  0
    0.8156   -2.1608    0.9107 C   0  0  0  0  0  0  0  0  0  0  0  0
   -0.2512   -2.1533    1.9145 C   0  0  0  0  0  0  0  0  0  0  0  0
   -1.8382   -1.6636    1.6596 S   0  0  0  0  0  0  0  0  0  0  0  0
   -2.3318   -1.7481    3.2717 C   0  0  0  0  0  0  0  0  0  0  0  0
   -1.2609   -2.2667    4.0166 C   0  0  0  0  0  0  0  0  0  0  0  0
   -0.0917   -2.4543    3.2580 C   0  0  0  0  0  0  0  0  0  0  0  0
    1.1999   -2.9294    3.8689 C   0  0  0  0  0  0  0  0  0  0  0  0
    1.2315   -2.6383    5.3727 C   0  0  2  0  0  0  0  0  0  0  0  0
    2.3494   -3.2299    5.9352 F   0  0  0  0  0  0  0  0  0  0  0  0
   -0.0332   -3.1841    6.0515 C   0  0  1  0  0  0  0  0  0  0  0  0
    0.0421   -2.9543    7.4126 F   0  0  0  0  0  0  0  0  0  0  0  0
   -1.3155   -2.5228    5.5034 C   0  0  0  0  0  0  0  0  0  0  0  0
   -3.6888   -1.5193    3.8146 C   0  0  0  0  0  0  0  0  0  0  0  0
   -4.6054   -0.5980    3.4628 C   0  0  0  0  0  0  0  0  0  0  0  0
   -4.5207    0.4991    2.4648 C   0  0  0  0  0  0  0  0  0  0  0  0
   -3.1438    1.1846    1.7754 S   0  0  0  0  0  0  0  0  0  0  0  0
   -3.9275    2.3363    0.8406 C   0  0  0  0  0  0  0  0  0  0  0  0
   -5.2815    2.2962    1.1399 C   0  0  0  0  0  0  0  0  0  0  0  0
   -5.6218    1.2460    2.0186 C   0  0  0  0  0  0  0  0  0  0  0  0
   -7.0343    1.0413    2.5083 C   0  0  0  0  0  0  0  0  0  0  0  0
   -8.0741    1.7651    1.6327 C   0  0  2  0  0  0  0  0  0  0  0  0
   -8.3050    1.0433    0.4711 F   0  0  0  0  0  0  0  0  0  0  0  0
   -7.6233    3.1913    1.2788 C   0  0  1  0  0  0  0  0  0  0  0  0
   -7.4576    3.9347    2.4375 F   0  0  0  0  0  0  0  0  0  0  0  0
   -6.3120    3.1747    0.4816 C   0  0  0  0  0  0  0  0  0  0  0  0
   -3.2945    3.2007   -0.1673 C   0  0  0  0  0  0  0  0  0  0  0  0
   -2.5218    2.7626   -1.1729 C   0  0  0  0  0  0  0  0  0  0  0  0
   -2.2729    1.3468   -1.5172 C   0  0  0  0  0  0  0  0  0  0  0  0
   -3.1169    0.2452   -1.4882 C   0  0  0  0  0  0  0  0  0  0  0  0
   -2.5652   -0.9358   -1.8327 C   0  0  0  0  0  0  0  0  0  0  0  0
   -3.4686   -1.9659   -1.7060 O   0  0  0  0  0  0  0  0  0  0  0  0
   -4.7078   -1.4002   -1.2273 C   0  0  0  0  0  0  0  0  0  0  0  0
   -4.4761    0.0504   -1.1172 N   0  0  0  0  0  0  0  0  0  0  0  0
   -1.2540   -0.8944   -2.2537 C   0  0  0  0  0  0  0  0  0  0  0  0
   -0.7925    0.7357   -2.0899 S   0  0  0  0  0  0  0  0  0  0  0  0
   -0.3995   -2.0543   -2.5566 C   0  0  0  0  0  0  0  0  0  0  0  0
    0.6028   -2.0490   -3.4434 C   0  0  0  0  0  0  0  0  0  0  0  0
    0.8703   -0.9511   -4.3860 C   0  0  0  0  0  0  0  0  0  0  0  0
   -0.0314   -0.2649   -5.1888 C   0  0  0  0  0  0  0  0  0  0  0  0
    0.5017    0.6397   -6.0270 C   0  0  0  0  0  0  0  0  0  0  0  0
   -0.4775    1.1996   -6.8213 O   0  0  0  0  0  0  0  0  0  0  0  0
   -1.7327    0.5814   -6.4744 C   0  0  0  0  0  0  0  0  0  0  0  0
   -1.4182   -0.3956   -5.4143 N   0  0  0  0  0  0  0  0  0  0  0  0
    1.8759    0.7819   -5.9790 C   0  0  0  0  0  0  0  0  0  0  0  0
    2.3978   -0.3467   -4.8215 S   0  0  0  0  0  0  0  0  0  0  0  0
    2.7029    1.6691   -6.8089 C   0  0  0  0  0  0  0  0  0  0  0  0
    3.9656    1.9415   -6.5098 C   0  0  0  0  0  0  0  0  0  0  0  0
    7.2739   -5.4049    2.0181 H   0  0  0  0  0  0  0  0  0  0  0  0
    6.8766   -0.5063    2.4673 H   0  0  0  0  0  0  0  0  0  0  0  0
    5.1046   -0.9554    2.4856 H   0  0  0  0  0  0  0  0  0  0  0  0
    6.5857   -2.8974    3.6079 H   0  0  0  0  0  0  0  0  0  0  0  0
    7.2770   -3.1171   -2.9200 H   0  0  0  0  0  0  0  0  0  0  0  0
    5.8613   -1.3441   -3.6224 H   0  0  0  0  0  0  0  0  0  0  0  0
    3.9501    3.0042   -1.4249 H   0  0  0  0  0  0  0  0  0  0  0  0
    2.9572    2.6105   -2.9083 H   0  0  0  0  0  0  0  0  0  0  0  0
    5.3144    1.3423   -3.0143 H   0  0  0  0  0  0  0  0  0  0  0  0
    0.6102   -0.1238    0.4682 H   0  0  0  0  0  0  0  0  0  0  0  0
    1.4276   -3.0469    0.8286 H   0  0  0  0  0  0  0  0  0  0  0  0
    2.0655   -2.4229    3.3915 H   0  0  0  0  0  0  0  0  0  0  0  0
    1.2950   -4.0189    3.6956 H   0  0  0  0  0  0  0  0  0  0  0  0
    1.2940   -1.5413    5.5360 H   0  0  0  0  0  0  0  0  0  0  0  0
   -0.0837   -4.2807    5.8991 H   0  0  0  0  0  0  0  0  0  0  0  0
   -1.4974   -1.5515    6.0290 H   0  0  0  0  0  0  0  0  0  0  0  0
   -2.1719   -3.2022    5.7203 H   0  0  0  0  0  0  0  0  0  0  0  0
   -3.9712   -2.1717    4.6323 H   0  0  0  0  0  0  0  0  0  0  0  0
   -5.5447   -0.6604    4.0043 H   0  0  0  0  0  0  0  0  0  0  0  0
   -7.1063    1.4241    3.5509 H   0  0  0  0  0  0  0  0  0  0  0  0
   -7.2808   -0.0440    2.5150 H   0  0  0  0  0  0  0  0  0  0  0  0
   -9.0347    1.8241    2.1919 H   0  0  0  0  0  0  0  0  0  0  0  0
   -8.4125    3.6822    0.6630 H   0  0  0  0  0  0  0  0  0  0  0  0
   -5.9270    4.2132    0.3908 H   0  0  0  0  0  0  0  0  0  0  0  0
   -6.5063    2.7964   -0.5461 H   0  0  0  0  0  0  0  0  0  0  0  0
   -3.4495    4.2684   -0.0677 H   0  0  0  0  0  0  0  0  0  0  0  0
   -2.0152    3.5028   -1.7685 H   0  0  0  0  0  0  0  0  0  0  0  0
   -4.9520   -1.8178   -0.2264 H   0  0  0  0  0  0  0  0  0  0  0  0
   -5.5259   -1.6040   -1.9474 H   0  0  0  0  0  0  0  0  0  0  0  0
   -5.2167    0.7897   -1.1374 H   0  0  0  0  0  0  0  0  0  0  0  0
   -0.5823   -2.9652   -2.0035 H   0  0  0  0  0  0  0  0  0  0  0  0
    1.2596   -2.9093   -3.4853 H   0  0  0  0  0  0  0  0  0  0  0  0
   -2.4467    1.3422   -6.0897 H   0  0  0  0  0  0  0  0  0  0  0  0
   -2.1548    0.0606   -7.3600 H   0  0  0  0  0  0  0  0  0  0  0  0
   -2.0759   -1.0865   -4.9862 H   0  0  0  0  0  0  0  0  0  0  0  0
    2.2580    2.1235   -7.6852 H   0  0  0  0  0  0  0  0  0  0  0  0
    4.4335    1.5466   -5.6228 H   0  0  0  0  0  0  0  0  0  0  0  0
    4.5411    2.6024   -7.1416 H   0  0  0  0  0  0  0  0  0  0  0  0
  1  2  2  0
  2  3  1  0
  3  4  1  0
  4  5  1  0
  5  6  1  0
  3  7  2  0
  7  8  1  0
  7  9  1  0
  9 10  2  3
 10 11  1  0
 11 12  2  0
 12 13  1  0
 13 14  1  0
 14 15  1  0
 15 16  1  0
 13 17  2  0
 17 18  1  0
 17 19  1  0
 19 20  2  3
 20 21  1  0
 21 22  1  0
 22 23  1  0
 23 24  2  0
 24 25  1  0
 25 26  1  0
 26 27  1  0
 27 28  1  0
 27 29  1  0
 29 30  1  0
 29 31  1  0
 23 32  1  0
 32 33  2  3
 33 34  1  0
 34 35  1  0
 35 36  1  0
 36 37  2  0
 37 38  1  0
 38 39  1  0
 39 40  1  0
 40 41  1  0
 40 42  1  0
 42 43  1  0
 42 44  1  0
 36 45  1  0
 45 46  2  3
 46 47  1  0
 47 48  2  0
 48 49  1  0
 49 50  1  0
 50 51  1  0
 51 52  1  0
 49 53  2  0
 53 54  1  0
 53 55  1  0
 55 56  2  3
 56 57  1  0
 57 58  2  0
 58 59  1  0
 59 60  1  0
 60 61  1  0
 61 62  1  0
 59 63  2  0
 63 64  1  0
 63 65  1  0
 65 66  2  3
  8  1  1  0
 18 11  1  0
 25 21  2  0
 38 34  2  0
 54 47  1  0
 64 57  1  0
  6  2  1  0
 16 12  1  0
 31 24  1  0
 44 37  1  0
 52 48  1  0
 62 58  1  0
  1 67  1  0
  5 68  1  0
  5 69  1  0
  6 70  1  0
  9 71  1  0
 10 72  1  0
 15 73  1  0
 15 74  1  0
 16 75  1  0
 19 76  1  0
 20 77  1  0
 26 78  1  0
 26 79  1  0
 27 80  1  6
 29 81  1  1
 31 82  1  0
 31 83  1  0
 32 84  1  0
 33 85  1  0
 39 86  1  0
 39 87  1  0
 40 88  1  1
 42 89  1  6
 44 90  1  0
 44 91  1  0
 45 92  1  0
 46 93  1  0
 51 94  1  0
 51 95  1  0
 52 96  1  0
 55 97  1  0
 56 98  1  0
 61 99  1  0
 61100  1  0
 62101  1  0
 65102  1  0
 66103  1  0
 66104  1  0
M  END

