
     RDKit          3D

224247  0  0  0  0  0  0  0  0999 V2000
   -1.0576   -6.1551   12.4961 C   0  0  0  0  0  0  0  0  0  0  0  0
   -1.8482   -5.1454   11.9567 C   0  0  0  0  0  0  0  0  0  0  0  0
   -2.0067   -5.2497   10.5659 C   0  0  0  0  0  0  0  0  0  0  0  0
   -2.7551   -4.3877    9.7456 C   0  0  0  0  0  0  0  0  0  0  0  0
   -3.4670   -3.2167   10.2801 C   0  0  0  0  0  0  0  0  0  0  0  0
   -4.8290   -3.3036   10.5978 C   0  0  0  0  0  0  0  0  0  0  0  0
   -5.5249   -2.1673   11.0236 C   0  0  0  0  0  0  0  0  0  0  0  0
   -4.8648   -0.9359   11.1237 C   0  0  0  0  0  0  0  0  0  0  0  0
   -5.7755    0.5301   11.6188 S   0  0  0  0  0  0  0  0  0  0  0  0
   -6.2546    0.9717    9.9131 C   0  0  0  0  0  0  0  0  0  0  0  0
   -6.7566    2.4041    9.8714 C   0  0  0  0  0  0  0  0  0  0  0  0
   -3.4964   -0.8519   10.8243 C   0  0  0  0  0  0  0  0  0  0  0  0
   -2.8419    0.3336   10.9224 F   0  0  0  0  0  0  0  0  0  0  0  0
   -2.8022   -1.9880   10.4000 C   0  0  0  0  0  0  0  0  0  0  0  0
   -2.7829   -4.6823    8.3732 C   0  0  0  0  0  0  0  0  0  0  0  0
   -2.0880   -5.7610    7.8115 C   0  0  0  0  0  0  0  0  0  0  0  0
   -1.3543   -6.6403    8.6374 C   0  0  0  0  0  0  0  0  0  0  0  0
   -0.6812   -7.8491    8.1124 C   0  0  0  0  0  0  0  0  0  0  0  0
    0.3860   -7.7381    7.2071 C   0  0  0  0  0  0  0  0  0  0  0  0
    1.0717   -8.8843    6.7877 C   0  0  0  0  0  0  0  0  0  0  0  0
    0.6936  -10.1462    7.2628 C   0  0  0  0  0  0  0  0  0  0  0  0
    1.6523  -11.6015    6.8133 S   0  0  0  0  0  0  0  0  0  0  0  0
    0.5561  -12.1291    5.4501 C   0  0  0  0  0  0  0  0  0  0  0  0
    0.8997  -11.3988    4.1607 C   0  0  0  0  0  0  0  0  0  0  0  0
   -0.3867  -10.2605    8.1482 C   0  0  0  0  0  0  0  0  0  0  0  0
   -1.0750   -9.1180    8.5641 C   0  0  0  0  0  0  0  0  0  0  0  0
   -0.7613  -11.4751    8.6210 F   0  0  0  0  0  0  0  0  0  0  0  0
   -1.3353   -6.3470   10.0162 C   0  0  0  0  0  0  0  0  0  0  0  0
   -0.5496   -7.1722   11.2541 S   0  0  0  0  0  0  0  0  0  0  0  0
   -2.2590   -5.8553    6.4176 C   0  0  0  0  0  0  0  0  0  0  0  0
   -3.1064   -4.8684    5.9139 C   0  0  0  0  0  0  0  0  0  0  0  0
   -3.6319   -3.8739    7.1692 S   0  0  0  0  0  0  0  0  0  0  0  0
   -3.5119   -4.6914    4.5162 C   0  0  0  0  0  0  0  0  0  0  0  0
   -2.6576   -4.6911    3.4127 C   0  0  0  0  0  0  0  0  0  0  0  0
   -3.2968   -4.2672    2.2338 C   0  0  0  0  0  0  0  0  0  0  0  0
   -2.6833   -4.0414    0.9816 C   0  0  0  0  0  0  0  0  0  0  0  0
   -1.2451   -4.3324    0.7407 C   0  0  0  0  0  0  0  0  0  0  0  0
   -0.3725   -3.3227    0.2985 C   0  0  0  0  0  0  0  0  0  0  0  0
    0.9665   -3.6188    0.0217 C   0  0  0  0  0  0  0  0  0  0  0  0
    1.4579   -4.9130    0.2153 C   0  0  0  0  0  0  0  0  0  0  0  0
    3.1723   -5.2962   -0.1703 S   0  0  0  0  0  0  0  0  0  0  0  0
    3.8038   -4.9791    1.5141 C   0  0  0  0  0  0  0  0  0  0  0  0
    4.2017   -3.5173    1.6714 C   0  0  0  0  0  0  0  0  0  0  0  0
    0.5990   -5.9200    0.6761 C   0  0  0  0  0  0  0  0  0  0  0  0
    1.0667   -7.1768    0.8799 F   0  0  0  0  0  0  0  0  0  0  0  0
   -0.7444   -5.6304    0.9349 C   0  0  0  0  0  0  0  0  0  0  0  0
   -3.4974   -3.4737   -0.0220 C   0  0  0  0  0  0  0  0  0  0  0  0
   -4.8433   -3.1451    0.1807 C   0  0  0  0  0  0  0  0  0  0  0  0
   -5.4674   -3.4358    1.4092 C   0  0  0  0  0  0  0  0  0  0  0  0
   -6.9171   -3.2534    1.6296 C   0  0  0  0  0  0  0  0  0  0  0  0
   -7.5053   -1.9802    1.5667 C   0  0  0  0  0  0  0  0  0  0  0  0
   -8.8787   -1.8287    1.7880 C   0  0  0  0  0  0  0  0  0  0  0  0
   -9.6721   -2.9454    2.0796 C   0  0  0  0  0  0  0  0  0  0  0  0
  -11.4216   -2.7325    2.4308 S   0  0  0  0  0  0  0  0  0  0  0  0
  -12.0040   -3.2073    0.7629 C   0  0  0  0  0  0  0  0  0  0  0  0
  -11.7842   -2.0813   -0.2393 C   0  0  0  0  0  0  0  0  0  0  0  0
   -9.0836   -4.2152    2.1598 C   0  0  0  0  0  0  0  0  0  0  0  0
   -7.7158   -4.3685    1.9307 C   0  0  0  0  0  0  0  0  0  0  0  0
   -9.8344   -5.3026    2.4672 F   0  0  0  0  0  0  0  0  0  0  0  0
   -4.6515   -3.9706    2.4224 C   0  0  0  0  0  0  0  0  0  0  0  0
   -5.0474   -4.1881    4.0399 S   0  0  0  0  0  0  0  0  0  0  0  0
   -5.4176   -2.4647   -0.9079 C   0  0  0  0  0  0  0  0  0  0  0  0
   -4.5259   -2.2691   -1.9609 C   0  0  0  0  0  0  0  0  0  0  0  0
   -3.0416   -2.9511   -1.5506 S   0  0  0  0  0  0  0  0  0  0  0  0
   -4.6188   -1.1724   -2.9250 C   0  0  0  0  0  0  0  0  0  0  0  0
   -4.5251    0.1588   -2.5119 C   0  0  0  0  0  0  0  0  0  0  0  0
   -3.9295    0.9996   -3.4700 C   0  0  0  0  0  0  0  0  0  0  0  0
   -3.4524    2.3057   -3.2270 C   0  0  0  0  0  0  0  0  0  0  0  0
   -3.6718    2.9828   -1.9292 C   0  0  0  0  0  0  0  0  0  0  0  0
   -4.9675    3.3419   -1.5300 C   0  0  0  0  0  0  0  0  0  0  0  0
   -5.1749    4.0000   -0.3134 C   0  0  0  0  0  0  0  0  0  0  0  0
   -4.0874    4.3019    0.5193 C   0  0  0  0  0  0  0  0  0  0  0  0
   -4.3547    5.2258    2.0372 S   0  0  0  0  0  0  0  0  0  0  0  0
   -4.3587    3.7711    3.1406 C   0  0  0  0  0  0  0  0  0  0  0  0
   -5.7138    3.0687    3.1242 C   0  0  0  0  0  0  0  0  0  0  0  0
   -2.7947    3.9228    0.1381 C   0  0  0  0  0  0  0  0  0  0  0  0
   -1.7327    4.1962    0.9377 F   0  0  0  0  0  0  0  0  0  0  0  0
   -2.5890    3.2585   -1.0763 C   0  0  0  0  0  0  0  0  0  0  0  0
   -2.6017    2.8585   -4.2079 C   0  0  0  0  0  0  0  0  0  0  0  0
   -2.2630    2.1803   -5.3846 C   0  0  0  0  0  0  0  0  0  0  0  0
   -2.8009    0.9067   -5.6546 C   0  0  0  0  0  0  0  0  0  0  0  0
   -2.3884    0.1384   -6.8462 C   0  0  0  0  0  0  0  0  0  0  0  0
   -1.5382   -0.9691   -6.7134 C   0  0  0  0  0  0  0  0  0  0  0  0
   -1.1407   -1.6900   -7.8408 C   0  0  0  0  0  0  0  0  0  0  0  0
   -1.5897   -1.3109   -9.1113 C   0  0  0  0  0  0  0  0  0  0  0  0
   -1.0331   -2.2206  -10.5583 S   0  0  0  0  0  0  0  0  0  0  0  0
   -2.2745   -3.5545  -10.4152 C   0  0  0  0  0  0  0  0  0  0  0  0
   -3.6206   -3.1165  -10.9759 C   0  0  0  0  0  0  0  0  0  0  0  0
   -2.4285   -0.1959   -9.2515 C   0  0  0  0  0  0  0  0  0  0  0  0
   -2.8224    0.5291   -8.1216 C   0  0  0  0  0  0  0  0  0  0  0  0
   -2.8525    0.1945  -10.4794 F   0  0  0  0  0  0  0  0  0  0  0  0
   -3.6063    0.3319   -4.6573 C   0  0  0  0  0  0  0  0  0  0  0  0
   -4.0183   -1.2914   -4.4961 S   0  0  0  0  0  0  0  0  0  0  0  0
   -1.2047    2.7804   -6.0867 C   0  0  0  0  0  0  0  0  0  0  0  0
   -0.6887    3.9081   -5.4470 C   0  0  0  0  0  0  0  0  0  0  0  0
   -1.5998    4.1975   -4.0537 S   0  0  0  0  0  0  0  0  0  0  0  0
    0.6848    4.4114   -5.6333 C   0  0  0  0  0  0  0  0  0  0  0  0
    1.3795    5.1484   -4.6737 C   0  0  0  0  0  0  0  0  0  0  0  0
    2.7698    5.1357   -4.8603 C   0  0  0  0  0  0  0  0  0  0  0  0
    3.7309    5.6773   -3.9816 C   0  0  0  0  0  0  0  0  0  0  0  0
    3.3513    6.3457   -2.7209 C   0  0  0  0  0  0  0  0  0  0  0  0
    2.6499    5.6416   -1.7290 C   0  0  0  0  0  0  0  0  0  0  0  0
    2.2547    6.2873   -0.5563 C   0  0  0  0  0  0  0  0  0  0  0  0
    2.5603    7.6384   -0.3580 C   0  0  0  0  0  0  0  0  0  0  0  0
    2.0174    8.4628    1.1421 S   0  0  0  0  0  0  0  0  0  0  0  0
    0.4599    9.0997    0.4238 C   0  0  0  0  0  0  0  0  0  0  0  0
   -0.6492    8.0570    0.5039 C   0  0  0  0  0  0  0  0  0  0  0  0
    3.2918    8.3362   -1.3303 C   0  0  0  0  0  0  0  0  0  0  0  0
    3.6117    9.6424   -1.1434 F   0  0  0  0  0  0  0  0  0  0  0  0
    3.6823    7.6924   -2.5090 C   0  0  0  0  0  0  0  0  0  0  0  0
    5.0806    5.4656   -4.3086 C   0  0  0  0  0  0  0  0  0  0  0  0
    5.4808    4.7529   -5.4426 C   0  0  0  0  0  0  0  0  0  0  0  0
    4.5219    4.2284   -6.3339 C   0  0  0  0  0  0  0  0  0  0  0  0
    4.9148    3.4594   -7.5324 C   0  0  0  0  0  0  0  0  0  0  0  0
    5.6757    4.0725   -8.5397 C   0  0  0  0  0  0  0  0  0  0  0  0
    6.0530    3.3500   -9.6738 C   0  0  0  0  0  0  0  0  0  0  0  0
    5.6630    2.0134   -9.8206 C   0  0  0  0  0  0  0  0  0  0  0  0
    6.1747    1.0939  -11.2747 S   0  0  0  0  0  0  0  0  0  0  0  0
    4.8369    1.7145  -12.3560 C   0  0  0  0  0  0  0  0  0  0  0  0
    3.5210    1.0029  -12.0713 C   0  0  0  0  0  0  0  0  0  0  0  0
    4.9073    1.3958   -8.8149 C   0  0  0  0  0  0  0  0  0  0  0  0
    4.5339    2.1163   -7.6766 C   0  0  0  0  0  0  0  0  0  0  0  0
    4.5449    0.0929   -8.9326 F   0  0  0  0  0  0  0  0  0  0  0  0
    3.1671    4.4286   -6.0010 C   0  0  0  0  0  0  0  0  0  0  0  0
    1.7972    3.7988   -6.7490 S   0  0  0  0  0  0  0  0  0  0  0  0
    6.8711    4.5433   -5.4940 C   0  0  0  0  0  0  0  0  0  0  0  0
    7.5474    5.0727   -4.3942 C   0  0  0  0  0  0  0  0  0  0  0  0
    6.4306    5.8176   -3.3718 S   0  0  0  0  0  0  0  0  0  0  0  0
    8.9785    4.8661   -4.0916 C   0  0  0  0  0  0  0  0  0  0  0  0
   10.0626    4.0488   -5.0885 S   0  0  0  0  0  0  0  0  0  0  0  0
   11.3589    4.0423   -4.0138 C   0  0  0  0  0  0  0  0  0  0  0  0
   10.9681    4.7057   -2.8531 C   0  0  0  0  0  0  0  0  0  0  0  0
    9.6301    5.1440   -2.8851 C   0  0  0  0  0  0  0  0  0  0  0  0
    8.9730    5.7147   -1.7861 O   0  0  0  0  0  0  0  0  0  0  0  0
    9.5712    5.9098   -0.5031 C   0  0  0  0  0  0  0  0  0  0  0  0
   10.6289    4.4940   -0.0544 S   0  0  0  0  0  0  0  0  0  0  0  0
   12.0774    5.0888   -1.4934 S   0  0  0  0  0  0  0  0  0  0  0  0
   12.6563    3.4045   -4.2732 C   0  0  0  0  0  0  0  0  0  0  0  0
   13.4788    3.4542   -5.7379 S   0  0  0  0  0  0  0  0  0  0  0  0
   14.7445    2.4426   -5.2871 C   0  0  0  0  0  0  0  0  0  0  0  0
   14.5293    2.0442   -3.9776 C   0  0  0  0  0  0  0  0  0  0  0  0
   13.3439    2.5528   -3.4159 C   0  0  0  0  0  0  0  0  0  0  0  0
   12.8257    2.1428   -2.1805 O   0  0  0  0  0  0  0  0  0  0  0  0
   13.4479    1.1707   -1.3385 C   0  0  0  0  0  0  0  0  0  0  0  0
   14.0807   -0.2226   -2.3320 S   0  0  0  0  0  0  0  0  0  0  0  0
   15.6669    0.9917   -3.0831 S   0  0  0  0  0  0  0  0  0  0  0  0
   -0.8117   -6.2682   13.5413 H   0  0  0  0  0  0  0  0  0  0  0  0
   -2.2947   -4.3656   12.5586 H   0  0  0  0  0  0  0  0  0  0  0  0
   -5.3550   -4.2464   10.5000 H   0  0  0  0  0  0  0  0  0  0  0  0
   -6.5813   -2.2373   11.2512 H   0  0  0  0  0  0  0  0  0  0  0  0
   -5.3865    0.8761    9.2260 H   0  0  0  0  0  0  0  0  0  0  0  0
   -7.0632    0.2919    9.5747 H   0  0  0  0  0  0  0  0  0  0  0  0
   -7.6623    2.5105   10.5041 H   0  0  0  0  0  0  0  0  0  0  0  0
   -7.0174    2.6752    8.8267 H   0  0  0  0  0  0  0  0  0  0  0  0
   -5.9691    3.0995   10.2354 H   0  0  0  0  0  0  0  0  0  0  0  0
   -1.7530   -1.9088   10.1435 H   0  0  0  0  0  0  0  0  0  0  0  0
    0.7041   -6.7668    6.8476 H   0  0  0  0  0  0  0  0  0  0  0  0
    1.9103   -8.7850    6.1096 H   0  0  0  0  0  0  0  0  0  0  0  0
   -0.5122  -11.9629    5.7066 H   0  0  0  0  0  0  0  0  0  0  0  0
    0.7062  -13.2195    5.2959 H   0  0  0  0  0  0  0  0  0  0  0  0
    1.9632  -11.5786    3.8889 H   0  0  0  0  0  0  0  0  0  0  0  0
    0.2561  -11.7727    3.3370 H   0  0  0  0  0  0  0  0  0  0  0  0
    0.7278  -10.3088    4.2772 H   0  0  0  0  0  0  0  0  0  0  0  0
   -1.9053   -9.2184    9.2533 H   0  0  0  0  0  0  0  0  0  0  0  0
   -1.8141   -6.6218    5.7974 H   0  0  0  0  0  0  0  0  0  0  0  0
   -1.5989   -4.9039    3.4881 H   0  0  0  0  0  0  0  0  0  0  0  0
   -0.7308   -2.3079    0.1650 H   0  0  0  0  0  0  0  0  0  0  0  0
    1.6243   -2.8351   -0.3351 H   0  0  0  0  0  0  0  0  0  0  0  0
    3.0526   -5.2568    2.2859 H   0  0  0  0  0  0  0  0  0  0  0  0
    4.7042   -5.6129    1.6706 H   0  0  0  0  0  0  0  0  0  0  0  0
    4.6381   -3.3629    2.6791 H   0  0  0  0  0  0  0  0  0  0  0  0
    3.3122   -2.8634    1.5680 H   0  0  0  0  0  0  0  0  0  0  0  0
    4.9555   -3.2414    0.9035 H   0  0  0  0  0  0  0  0  0  0  0  0
   -1.4015   -6.4221    1.2738 H   0  0  0  0  0  0  0  0  0  0  0  0
   -6.8990   -1.1071    1.3567 H   0  0  0  0  0  0  0  0  0  0  0  0
   -9.3206   -0.8423    1.7387 H   0  0  0  0  0  0  0  0  0  0  0  0
  -13.0949   -3.4197    0.8230 H   0  0  0  0  0  0  0  0  0  0  0  0
  -11.4950   -4.1337    0.4121 H   0  0  0  0  0  0  0  0  0  0  0  0
  -12.2123   -1.1296    0.1489 H   0  0  0  0  0  0  0  0  0  0  0  0
  -10.7016   -1.9497   -0.4419 H   0  0  0  0  0  0  0  0  0  0  0  0
  -12.2899   -2.3388   -1.1956 H   0  0  0  0  0  0  0  0  0  0  0  0
   -7.2727   -5.3568    1.9858 H   0  0  0  0  0  0  0  0  0  0  0  0
   -6.4147   -2.0429   -0.9013 H   0  0  0  0  0  0  0  0  0  0  0  0
   -4.7009    0.4601   -1.4883 H   0  0  0  0  0  0  0  0  0  0  0  0
   -5.8165    3.1267   -2.1688 H   0  0  0  0  0  0  0  0  0  0  0  0
   -6.1770    4.2953   -0.0261 H   0  0  0  0  0  0  0  0  0  0  0  0
   -4.1600    4.1253    4.1748 H   0  0  0  0  0  0  0  0  0  0  0  0
   -3.5546    3.0560    2.8612 H   0  0  0  0  0  0  0  0  0  0  0  0
   -5.9085    2.6323    2.1236 H   0  0  0  0  0  0  0  0  0  0  0  0
   -5.7164    2.2522    3.8726 H   0  0  0  0  0  0  0  0  0  0  0  0
   -6.5220    3.7904    3.3738 H   0  0  0  0  0  0  0  0  0  0  0  0
   -1.5856    2.9571   -1.3485 H   0  0  0  0  0  0  0  0  0  0  0  0
   -1.1731   -1.2656   -5.7372 H   0  0  0  0  0  0  0  0  0  0  0  0
   -0.4870   -2.5459   -7.7264 H   0  0  0  0  0  0  0  0  0  0  0  0
   -2.3885   -3.8788   -9.3580 H   0  0  0  0  0  0  0  0  0  0  0  0
   -1.9103   -4.4241  -11.0012 H   0  0  0  0  0  0  0  0  0  0  0  0
   -4.3115   -3.9870  -11.0073 H   0  0  0  0  0  0  0  0  0  0  0  0
   -3.4975   -2.7230  -12.0063 H   0  0  0  0  0  0  0  0  0  0  0  0
   -4.0697   -2.3331  -10.3328 H   0  0  0  0  0  0  0  0  0  0  0  0
   -3.4645    1.3934   -8.2411 H   0  0  0  0  0  0  0  0  0  0  0  0
   -0.7267    2.3274   -6.9436 H   0  0  0  0  0  0  0  0  0  0  0  0
    0.8969    5.5974   -3.8162 H   0  0  0  0  0  0  0  0  0  0  0  0
    2.4089    4.5955   -1.8676 H   0  0  0  0  0  0  0  0  0  0  0  0
    1.7026    5.7369    0.1958 H   0  0  0  0  0  0  0  0  0  0  0  0
    0.6097    9.4156   -0.6305 H   0  0  0  0  0  0  0  0  0  0  0  0
    0.1535    9.9924    1.0081 H   0  0  0  0  0  0  0  0  0  0  0  0
   -0.7988    7.7348    1.5557 H   0  0  0  0  0  0  0  0  0  0  0  0
   -0.3996    7.1725   -0.1169 H   0  0  0  0  0  0  0  0  0  0  0  0
   -1.5973    8.4932    0.1278 H   0  0  0  0  0  0  0  0  0  0  0  0
    4.2352    8.2427   -3.2630 H   0  0  0  0  0  0  0  0  0  0  0  0
    5.9754    5.1096   -8.4428 H   0  0  0  0  0  0  0  0  0  0  0  0
    6.6451    3.8330  -10.4413 H   0  0  0  0  0  0  0  0  0  0  0  0
    4.7091    2.8108  -12.2351 H   0  0  0  0  0  0  0  0  0  0  0  0
    5.1292    1.5191  -13.4103 H   0  0  0  0  0  0  0  0  0  0  0  0
    3.6552   -0.0967  -12.1417 H   0  0  0  0  0  0  0  0  0  0  0  0
    2.7581    1.3151  -12.8156 H   0  0  0  0  0  0  0  0  0  0  0  0
    3.1458    1.2667  -11.0626 H   0  0  0  0  0  0  0  0  0  0  0  0
    3.9574    1.6259   -6.9027 H   0  0  0  0  0  0  0  0  0  0  0  0
    7.3608    3.9661   -6.2650 H   0  0  0  0  0  0  0  0  0  0  0  0
   10.1608    6.8519   -0.5025 H   0  0  0  0  0  0  0  0  0  0  0  0
    8.7699    6.0092    0.2556 H   0  0  0  0  0  0  0  0  0  0  0  0
   15.5860    2.1671   -5.9051 H   0  0  0  0  0  0  0  0  0  0  0  0
   12.6938    0.7850   -0.6220 H   0  0  0  0  0  0  0  0  0  0  0  0
   14.2667    1.6422   -0.7594 H   0  0  0  0  0  0  0  0  0  0  0  0
  1  2  2  0
  2  3  1  0
  3  4  2  0
  4  5  1  0
  5  6  2  0
  6  7  1  0
  7  8  2  0
  8  9  1  0
  9 10  1  0
 10 11  1  0
  8 12  1  0
 12 13  1  0
 12 14  2  0
  4 15  1  0
 15 16  2  0
 16 17  1  0
 17 18  1  0
 18 19  2  0
 19 20  1  0
 20 21  2  0
 21 22  1  0
 22 23  1  0
 23 24  1  0
 21 25  1  0
 25 26  2  0
 25 27  1  0
 17 28  2  0
 28 29  1  0
 16 30  1  0
 30 31  2  0
 31 32  1  0
 31 33  1  0
 33 34  2  0
 34 35  1  0
 35 36  2  0
 36 37  1  0
 37 38  2  0
 38 39  1  0
 39 40  2  0
 40 41  1  0
 41 42  1  0
 42 43  1  0
 40 44  1  0
 44 45  1  0
 44 46  2  0
 36 47  1  0
 47 48  2  0
 48 49  1  0
 49 50  1  0
 50 51  2  0
 51 52  1  0
 52 53  2  0
 53 54  1  0
 54 55  1  0
 55 56  1  0
 53 57  1  0
 57 58  2  0
 57 59  1  0
 49 60  2  0
 60 61  1  0
 48 62  1  0
 62 63  2  0
 63 64  1  0
 63 65  1  0
 65 66  2  0
 66 67  1  0
 67 68  2  0
 68 69  1  0
 69 70  2  0
 70 71  1  0
 71 72  2  0
 72 73  1  0
 73 74  1  0
 74 75  1  0
 72 76  1  0
 76 77  1  0
 76 78  2  0
 68 79  1  0
 79 80  2  0
 80 81  1  0
 81 82  1  0
 82 83  2  0
 83 84  1  0
 84 85  2  0
 85 86  1  0
 86 87  1  0
 87 88  1  0
 85 89  1  0
 89 90  2  0
 89 91  1  0
 81 92  2  0
 92 93  1  0
 80 94  1  0
 94 95  2  0
 95 96  1  0
 95 97  1  0
 97 98  2  0
 98 99  1  0
 99100  2  0
100101  1  0
101102  2  0
102103  1  0
103104  2  0
104105  1  0
105106  1  0
106107  1  0
104108  1  0
108109  1  0
108110  2  0
100111  1  0
111112  2  0
112113  1  0
113114  1  0
114115  2  0
115116  1  0
116117  2  0
117118  1  0
118119  1  0
119120  1  0
117121  1  0
121122  2  0
121123  1  0
113124  2  0
124125  1  0
112126  1  0
126127  2  0
127128  1  0
127129  1  0
129130  1  0
130131  1  0
131132  2  0
132133  1  0
133134  1  0
134135  1  0
135136  1  0
136137  1  0
131138  1  0
138139  1  0
139140  1  0
140141  2  0
141142  1  0
142143  1  0
143144  1  0
144145  1  0
145146  1  0
 29  1  1  0
 61 33  1  0
 93 65  1  0
125 97  1  0
133129  2  0
142138  2  0
 28  3  1  0
 60 35  1  0
 92 67  1  0
124 99  1  0
137132  1  0
146141  1  0
 14  5  1  0
 32 15  1  0
 46 37  1  0
 64 47  1  0
 78 69  1  0
 96 79  1  0
110101  1  0
128111  1  0
 26 18  1  0
 58 50  1  0
 90 82  1  0
122114  1  0
  1147  1  0
  2148  1  0
  6149  1  0
  7150  1  0
 10151  1  0
 10152  1  0
 11153  1  0
 11154  1  0
 11155  1  0
 14156  1  0
 19157  1  0
 20158  1  0
 23159  1  0
 23160  1  0
 24161  1  0
 24162  1  0
 24163  1  0
 26164  1  0
 30165  1  0
 34166  1  0
 38167  1  0
 39168  1  0
 42169  1  0
 42170  1  0
 43171  1  0
 43172  1  0
 43173  1  0
 46174  1  0
 51175  1  0
 52176  1  0
 55177  1  0
 55178  1  0
 56179  1  0
 56180  1  0
 56181  1  0
 58182  1  0
 62183  1  0
 66184  1  0
 70185  1  0
 71186  1  0
 74187  1  0
 74188  1  0
 75189  1  0
 75190  1  0
 75191  1  0
 78192  1  0
 83193  1  0
 84194  1  0
 87195  1  0
 87196  1  0
 88197  1  0
 88198  1  0
 88199  1  0
 90200  1  0
 94201  1  0
 98202  1  0
102203  1  0
103204  1  0
106205  1  0
106206  1  0
107207  1  0
107208  1  0
107209  1  0
110210  1  0
115211  1  0
116212  1  0
119213  1  0
119214  1  0
120215  1  0
120216  1  0
120217  1  0
122218  1  0
126219  1  0
135220  1  0
135221  1  0
140222  1  0
144223  1  0
144224  1  0
M  END

