
     RDKit          3D

244269  0  0  0  0  0  0  0  0999 V2000
    1.8646    0.1577    9.9460 C   0  0  0  0  0  0  0  0  0  0  0  0
    2.1856    1.4230    9.4629 C   0  0  0  0  0  0  0  0  0  0  0  0
    1.0905    2.0935    8.8921 C   0  0  0  0  0  0  0  0  0  0  0  0
    1.1110    3.3622    8.2790 C   0  0  0  0  0  0  0  0  0  0  0  0
    2.3642    4.1208    8.1073 C   0  0  0  0  0  0  0  0  0  0  0  0
    3.6777    3.6003    7.1920 S   0  0  0  0  0  0  0  0  0  0  0  0
    4.6329    4.9584    7.4579 C   0  0  0  0  0  0  0  0  0  0  0  0
    5.9863    5.1835    6.8513 C   0  0  0  0  0  0  0  0  0  0  0  0
    5.8851    6.0569    5.6075 C   0  0  0  0  0  0  0  0  0  0  0  0
    3.9226    5.8532    8.2599 C   0  0  0  0  0  0  0  0  0  0  0  0
    4.5500    7.4157    8.7657 Cl  0  0  0  0  0  0  0  0  0  0  0  0
    2.6512    5.3824    8.6250 C   0  0  0  0  0  0  0  0  0  0  0  0
    1.5543    6.2781    9.6664 Cl  0  0  0  0  0  0  0  0  0  0  0  0
   -0.1051    3.8373    7.7556 C   0  0  0  0  0  0  0  0  0  0  0  0
   -1.2899    3.0984    7.8196 C   0  0  0  0  0  0  0  0  0  0  0  0
   -1.3092    1.8222    8.4201 C   0  0  0  0  0  0  0  0  0  0  0  0
   -2.5166    0.9732    8.4048 C   0  0  0  0  0  0  0  0  0  0  0  0
   -3.2615    0.3982    7.0083 S   0  0  0  0  0  0  0  0  0  0  0  0
   -4.4855   -0.4484    7.7926 C   0  0  0  0  0  0  0  0  0  0  0  0
   -5.5306   -1.2707    7.0988 C   0  0  0  0  0  0  0  0  0  0  0  0
   -5.0662   -2.7147    6.9420 C   0  0  0  0  0  0  0  0  0  0  0  0
   -4.3133   -0.3093    9.1684 C   0  0  0  0  0  0  0  0  0  0  0  0
   -3.2137    0.4942    9.5124 C   0  0  0  0  0  0  0  0  0  0  0  0
   -2.7996    0.9041   11.1721 Cl  0  0  0  0  0  0  0  0  0  0  0  0
   -5.3615   -1.0651   10.3607 Cl  0  0  0  0  0  0  0  0  0  0  0  0
   -0.0963    1.3537    8.9546 C   0  0  0  0  0  0  0  0  0  0  0  0
    0.2253   -0.1339    9.6734 S   0  0  0  0  0  0  0  0  0  0  0  0
   -2.3707    3.7311    7.1851 C   0  0  0  0  0  0  0  0  0  0  0  0
   -2.0256    4.9459    6.5966 C   0  0  0  0  0  0  0  0  0  0  0  0
   -0.3862    5.2443    6.8733 S   0  0  0  0  0  0  0  0  0  0  0  0
   -2.8878    5.7113    5.6856 C   0  0  0  0  0  0  0  0  0  0  0  0
   -2.4688    6.7416    4.8429 C   0  0  0  0  0  0  0  0  0  0  0  0
   -3.4183    7.0680    3.8570 C   0  0  0  0  0  0  0  0  0  0  0  0
   -3.2091    7.9118    2.7474 C   0  0  0  0  0  0  0  0  0  0  0  0
   -1.9206    8.5878    2.5122 C   0  0  0  0  0  0  0  0  0  0  0  0
   -1.7183   10.2559    2.3914 S   0  0  0  0  0  0  0  0  0  0  0  0
   -0.0877   10.2085    1.9704 C   0  0  0  0  0  0  0  0  0  0  0  0
    0.7454   11.4120    1.6451 C   0  0  0  0  0  0  0  0  0  0  0  0
    0.5897   11.7979    0.1789 C   0  0  0  0  0  0  0  0  0  0  0  0
    0.3105    8.8745    1.8783 C   0  0  0  0  0  0  0  0  0  0  0  0
    1.9188    8.3744    1.3752 Cl  0  0  0  0  0  0  0  0  0  0  0  0
   -0.7166    7.9667    2.1801 C   0  0  0  0  0  0  0  0  0  0  0  0
   -0.5254    6.2199    2.0652 Cl  0  0  0  0  0  0  0  0  0  0  0  0
   -4.2042    7.9154    1.7558 C   0  0  0  0  0  0  0  0  0  0  0  0
   -5.3585    7.1288    1.8371 C   0  0  0  0  0  0  0  0  0  0  0  0
   -5.6017    6.3394    2.9801 C   0  0  0  0  0  0  0  0  0  0  0  0
   -6.7451    5.4128    3.0704 C   0  0  0  0  0  0  0  0  0  0  0  0
   -6.9468    4.0513    2.1020 S   0  0  0  0  0  0  0  0  0  0  0  0
   -8.2859    3.4462    2.9206 C   0  0  0  0  0  0  0  0  0  0  0  0
   -8.9443    2.1339    2.6159 C   0  0  0  0  0  0  0  0  0  0  0  0
   -8.3539    1.0237    3.4764 C   0  0  0  0  0  0  0  0  0  0  0  0
   -8.5729    4.2906    3.9945 C   0  0  0  0  0  0  0  0  0  0  0  0
   -7.7095    5.3930    4.0768 C   0  0  0  0  0  0  0  0  0  0  0  0
   -7.8175    6.6143    5.3405 Cl  0  0  0  0  0  0  0  0  0  0  0  0
   -9.8517    3.9798    5.1603 Cl  0  0  0  0  0  0  0  0  0  0  0  0
   -4.5995    6.3253    3.9661 C   0  0  0  0  0  0  0  0  0  0  0  0
   -4.4458    5.2409    5.2439 S   0  0  0  0  0  0  0  0  0  0  0  0
   -6.0712    7.0628    0.6270 C   0  0  0  0  0  0  0  0  0  0  0  0
   -5.4406    7.7329   -0.4250 C   0  0  0  0  0  0  0  0  0  0  0  0
   -4.0564    8.4880    0.1871 S   0  0  0  0  0  0  0  0  0  0  0  0
   -5.5464    7.3078   -1.8364 C   0  0  0  0  0  0  0  0  0  0  0  0
   -4.5691    7.6164   -2.7863 C   0  0  0  0  0  0  0  0  0  0  0  0
   -4.3863    6.6086   -3.7500 C   0  0  0  0  0  0  0  0  0  0  0  0
   -3.2784    6.5177   -4.6147 C   0  0  0  0  0  0  0  0  0  0  0  0
   -2.3312    7.6405   -4.7697 C   0  0  0  0  0  0  0  0  0  0  0  0
   -0.7120    7.6276   -4.3053 S   0  0  0  0  0  0  0  0  0  0  0  0
   -0.3870    9.2222   -4.7321 C   0  0  0  0  0  0  0  0  0  0  0  0
    0.9607    9.8731   -4.6407 C   0  0  0  0  0  0  0  0  0  0  0  0
    1.7430    9.6868   -5.9370 C   0  0  0  0  0  0  0  0  0  0  0  0
   -1.5471    9.7871   -5.2607 C   0  0  0  0  0  0  0  0  0  0  0  0
   -1.6333   11.4340   -5.8731 Cl  0  0  0  0  0  0  0  0  0  0  0  0
   -2.6398    8.9053   -5.2666 C   0  0  0  0  0  0  0  0  0  0  0  0
   -4.2299    9.3446   -5.8798 Cl  0  0  0  0  0  0  0  0  0  0  0  0
   -3.0337    5.2604   -5.1903 C   0  0  0  0  0  0  0  0  0  0  0  0
   -3.8930    4.1683   -5.0152 C   0  0  0  0  0  0  0  0  0  0  0  0
   -5.0860    4.3059   -4.2743 C   0  0  0  0  0  0  0  0  0  0  0  0
   -6.0295    3.1756   -4.1104 C   0  0  0  0  0  0  0  0  0  0  0  0
   -6.5552    2.5300   -2.6433 S   0  0  0  0  0  0  0  0  0  0  0  0
   -7.5736    1.3640   -3.3033 C   0  0  0  0  0  0  0  0  0  0  0  0
   -8.4740    0.4675   -2.5050 C   0  0  0  0  0  0  0  0  0  0  0  0
   -9.8422    1.1096   -2.3063 C   0  0  0  0  0  0  0  0  0  0  0  0
   -7.5317    1.4742   -4.6915 C   0  0  0  0  0  0  0  0  0  0  0  0
   -6.6605    2.4798   -5.1443 C   0  0  0  0  0  0  0  0  0  0  0  0
   -6.4559    2.8747   -6.8462 Cl  0  0  0  0  0  0  0  0  0  0  0  0
   -8.4989    0.4780   -5.7727 Cl  0  0  0  0  0  0  0  0  0  0  0  0
   -5.2713    5.5326   -3.6044 C   0  0  0  0  0  0  0  0  0  0  0  0
   -6.2642    5.8436   -2.2843 S   0  0  0  0  0  0  0  0  0  0  0  0
   -3.3311    2.9514   -5.4438 C   0  0  0  0  0  0  0  0  0  0  0  0
   -2.0253    3.0886   -5.9190 C   0  0  0  0  0  0  0  0  0  0  0  0
   -1.5985    4.7195   -5.8731 S   0  0  0  0  0  0  0  0  0  0  0  0
   -1.0368    2.0002   -5.9696 C   0  0  0  0  0  0  0  0  0  0  0  0
   -1.3214    0.6351   -6.0183 C   0  0  0  0  0  0  0  0  0  0  0  0
   -0.1989   -0.1645   -5.7438 C   0  0  0  0  0  0  0  0  0  0  0  0
   -0.1657   -1.5733   -5.6761 C   0  0  0  0  0  0  0  0  0  0  0  0
   -1.3651   -2.3951   -5.9080 C   0  0  0  0  0  0  0  0  0  0  0  0
   -1.5598   -3.4685   -7.1883 S   0  0  0  0  0  0  0  0  0  0  0  0
   -3.0898   -4.0077   -6.7360 C   0  0  0  0  0  0  0  0  0  0  0  0
   -3.8701   -5.0586   -7.4641 C   0  0  0  0  0  0  0  0  0  0  0  0
   -3.4514   -6.4526   -7.0136 C   0  0  0  0  0  0  0  0  0  0  0  0
   -3.4558   -3.3704   -5.5506 C   0  0  0  0  0  0  0  0  0  0  0  0
   -4.9577   -3.6928   -4.6982 Cl  0  0  0  0  0  0  0  0  0  0  0  0
   -2.4914   -2.4596   -5.0895 C   0  0  0  0  0  0  0  0  0  0  0  0
   -2.6645   -1.5386   -3.5999 Cl  0  0  0  0  0  0  0  0  0  0  0  0
    1.0646   -2.1671   -5.3439 C   0  0  0  0  0  0  0  0  0  0  0  0
    2.2015   -1.4171   -5.0361 C   0  0  0  0  0  0  0  0  0  0  0  0
    2.1699   -0.0121   -5.0995 C   0  0  0  0  0  0  0  0  0  0  0  0
    3.3421    0.8011   -4.7297 C   0  0  0  0  0  0  0  0  0  0  0  0
    3.9944    0.8841   -3.1808 S   0  0  0  0  0  0  0  0  0  0  0  0
    5.2923    1.8732   -3.5902 C   0  0  0  0  0  0  0  0  0  0  0  0
    6.3814    2.2757   -2.6403 C   0  0  0  0  0  0  0  0  0  0  0  0
    7.4991    1.2426   -2.6353 C   0  0  0  0  0  0  0  0  0  0  0  0
    5.2457    2.1291   -4.9609 C   0  0  0  0  0  0  0  0  0  0  0  0
    4.1488    1.5294   -5.5982 C   0  0  0  0  0  0  0  0  0  0  0  0
    3.8635    1.6254   -7.3301 Cl  0  0  0  0  0  0  0  0  0  0  0  0
    6.4621    3.0684   -5.8140 Cl  0  0  0  0  0  0  0  0  0  0  0  0
    0.9585    0.5785   -5.4854 C   0  0  0  0  0  0  0  0  0  0  0  0
    0.5953    2.2127   -5.5901 S   0  0  0  0  0  0  0  0  0  0  0  0
    3.3093   -2.2010   -4.6827 C   0  0  0  0  0  0  0  0  0  0  0  0
    3.0567   -3.5751   -4.7435 C   0  0  0  0  0  0  0  0  0  0  0  0
    1.4363   -3.8004   -5.1879 S   0  0  0  0  0  0  0  0  0  0  0  0
    4.0243   -4.6682   -4.4564 C   0  0  0  0  0  0  0  0  0  0  0  0
    5.4119   -4.5086   -4.6712 C   0  0  0  0  0  0  0  0  0  0  0  0
    5.8938   -3.2948   -5.1914 O   0  0  0  0  0  0  0  0  0  0  0  0
    7.2654   -2.9256   -5.2973 C   0  0  0  0  0  0  0  0  0  0  0  0
    7.3562   -1.4708   -5.7312 C   0  0  0  0  0  0  0  0  0  0  0  0
    6.2835   -5.5727   -4.3802 C   0  0  0  0  0  0  0  0  0  0  0  0
    5.7987   -6.7900   -3.8832 C   0  0  0  0  0  0  0  0  0  0  0  0
    4.4088   -6.9721   -3.7169 C   0  0  0  0  0  0  0  0  0  0  0  0
    3.5399   -5.8994   -3.9864 C   0  0  0  0  0  0  0  0  0  0  0  0
    3.9299   -8.2310   -3.3079 O   0  0  0  0  0  0  0  0  0  0  0  0
    2.5644   -8.6048   -3.1289 C   0  0  0  0  0  0  0  0  0  0  0  0
    1.8941   -8.8727   -4.4723 C   0  0  0  0  0  0  0  0  0  0  0  0
    6.7664   -7.8786   -3.6097 C   0  0  0  0  0  0  0  0  0  0  0  0
    6.6474   -8.6812   -2.5474 C   0  0  0  0  0  0  0  0  0  0  0  0
    7.5267   -9.8528   -2.3600 C   0  0  0  0  0  0  0  0  0  0  0  0
    7.2022  -10.8874   -1.5706 C   0  0  0  0  0  0  0  0  0  0  0  0
    5.9535  -10.9440   -0.7957 C   0  0  0  0  0  0  0  0  0  0  0  0
    5.6087  -10.0908    0.2494 C   0  0  0  0  0  0  0  0  0  0  0  0
    4.2916  -10.2818    0.6903 C   0  0  0  0  0  0  0  0  0  0  0  0
    3.6298   -9.5465    1.6944 C   0  0  0  0  0  0  0  0  0  0  0  0
    4.2889   -8.4424    2.4131 C   0  0  0  0  0  0  0  0  0  0  0  0
    4.7979   -7.0035    1.7015 S   0  0  0  0  0  0  0  0  0  0  0  0
    5.3701   -6.2979    3.1184 C   0  0  0  0  0  0  0  0  0  0  0  0
    5.9103   -4.9029    3.2130 C   0  0  0  0  0  0  0  0  0  0  0  0
    4.7951   -3.9131    3.5227 C   0  0  0  0  0  0  0  0  0  0  0  0
    5.1476   -7.1769    4.1780 C   0  0  0  0  0  0  0  0  0  0  0  0
    5.5614   -6.8097    5.8492 Cl  0  0  0  0  0  0  0  0  0  0  0  0
    4.5499   -8.3825    3.7818 C   0  0  0  0  0  0  0  0  0  0  0  0
    4.2008   -9.6997    4.8952 Cl  0  0  0  0  0  0  0  0  0  0  0  0
    2.2905   -9.8866    1.9536 C   0  0  0  0  0  0  0  0  0  0  0  0
    1.6184  -10.8938    1.2560 C   0  0  0  0  0  0  0  0  0  0  0  0
    2.2772  -11.6252    0.2469 C   0  0  0  0  0  0  0  0  0  0  0  0
    1.5746  -12.6375   -0.5633 C   0  0  0  0  0  0  0  0  0  0  0  0
    1.9420  -14.2805   -0.5902 S   0  0  0  0  0  0  0  0  0  0  0  0
    0.7621  -14.7073   -1.7136 C   0  0  0  0  0  0  0  0  0  0  0  0
    0.4689  -16.1092   -2.1520 C   0  0  0  0  0  0  0  0  0  0  0  0
   -0.6421  -16.7123   -1.3055 C   0  0  0  0  0  0  0  0  0  0  0  0
    0.0565  -13.5622   -2.0764 C   0  0  0  0  0  0  0  0  0  0  0  0
    0.5136  -12.4014   -1.4375 C   0  0  0  0  0  0  0  0  0  0  0  0
   -0.1719  -10.8060   -1.7285 Cl  0  0  0  0  0  0  0  0  0  0  0  0
   -1.2739  -13.5617   -3.2249 Cl  0  0  0  0  0  0  0  0  0  0  0  0
    3.6243  -11.3043    0.0036 C   0  0  0  0  0  0  0  0  0  0  0  0
    4.6535  -11.9536   -1.1599 S   0  0  0  0  0  0  0  0  0  0  0  0
    0.2853  -11.0503    1.6652 C   0  0  0  0  0  0  0  0  0  0  0  0
   -0.0928  -10.1561    2.6594 C   0  0  0  0  0  0  0  0  0  0  0  0
    1.2214   -9.1736    3.0400 S   0  0  0  0  0  0  0  0  0  0  0  0
    2.5575   -0.5284   10.4098 H   0  0  0  0  0  0  0  0  0  0  0  0
    3.1859    1.8316    9.5213 H   0  0  0  0  0  0  0  0  0  0  0  0
    6.6563    5.6641    7.5937 H   0  0  0  0  0  0  0  0  0  0  0  0
    6.4318    4.2044    6.5723 H   0  0  0  0  0  0  0  0  0  0  0  0
    5.4749    7.0551    5.8653 H   0  0  0  0  0  0  0  0  0  0  0  0
    6.8942    6.1937    5.1656 H   0  0  0  0  0  0  0  0  0  0  0  0
    5.2292    5.5763    4.8513 H   0  0  0  0  0  0  0  0  0  0  0  0
   -5.7332   -0.8399    6.0958 H   0  0  0  0  0  0  0  0  0  0  0  0
   -6.4800   -1.2457    7.6744 H   0  0  0  0  0  0  0  0  0  0  0  0
   -4.8782   -3.1726    7.9363 H   0  0  0  0  0  0  0  0  0  0  0  0
   -5.8508   -3.3025    6.4198 H   0  0  0  0  0  0  0  0  0  0  0  0
   -4.1344   -2.7564    6.3397 H   0  0  0  0  0  0  0  0  0  0  0  0
   -3.3594    3.2978    7.1103 H   0  0  0  0  0  0  0  0  0  0  0  0
   -1.4732    7.1636    4.8780 H   0  0  0  0  0  0  0  0  0  0  0  0
    1.8136   11.2045    1.8585 H   0  0  0  0  0  0  0  0  0  0  0  0
    0.4299   12.2618    2.2863 H   0  0  0  0  0  0  0  0  0  0  0  0
   -0.4706   12.0453   -0.0421 H   0  0  0  0  0  0  0  0  0  0  0  0
    1.2167   12.6856   -0.0394 H   0  0  0  0  0  0  0  0  0  0  0  0
    0.9134   10.9632   -0.4780 H   0  0  0  0  0  0  0  0  0  0  0  0
   -8.7926    1.8868    1.5436 H   0  0  0  0  0  0  0  0  0  0  0  0
  -10.0374    2.2090    2.7967 H   0  0  0  0  0  0  0  0  0  0  0  0
   -8.8617    0.0641    3.2413 H   0  0  0  0  0  0  0  0  0  0  0  0
   -7.2688    0.9079    3.2634 H   0  0  0  0  0  0  0  0  0  0  0  0
   -8.5005    1.2449    4.5550 H   0  0  0  0  0  0  0  0  0  0  0  0
   -6.9230    6.4166    0.4758 H   0  0  0  0  0  0  0  0  0  0  0  0
   -3.8805    8.4420   -2.6690 H   0  0  0  0  0  0  0  0  0  0  0  0
    0.8455   10.9569   -4.4290 H   0  0  0  0  0  0  0  0  0  0  0  0
    1.5313    9.4227   -3.8006 H   0  0  0  0  0  0  0  0  0  0  0  0
    1.9134    8.6084   -6.1332 H   0  0  0  0  0  0  0  0  0  0  0  0
    2.7284   10.1892   -5.8478 H   0  0  0  0  0  0  0  0  0  0  0  0
    1.1961   10.1344   -6.7923 H   0  0  0  0  0  0  0  0  0  0  0  0
   -8.0131    0.2724   -1.5122 H   0  0  0  0  0  0  0  0  0  0  0  0
   -8.5951   -0.5081   -3.0223 H   0  0  0  0  0  0  0  0  0  0  0  0
  -10.3292    1.2997   -3.2878 H   0  0  0  0  0  0  0  0  0  0  0  0
   -9.7431    2.0681   -1.7538 H   0  0  0  0  0  0  0  0  0  0  0  0
  -10.4908    0.4285   -1.7135 H   0  0  0  0  0  0  0  0  0  0  0  0
   -3.7927    1.9890   -5.2603 H   0  0  0  0  0  0  0  0  0  0  0  0
   -2.3127    0.2398   -6.2014 H   0  0  0  0  0  0  0  0  0  0  0  0
   -4.9563   -4.9231   -7.2811 H   0  0  0  0  0  0  0  0  0  0  0  0
   -3.6924   -4.9555   -8.5565 H   0  0  0  0  0  0  0  0  0  0  0  0
   -3.6432   -6.5805   -5.9264 H   0  0  0  0  0  0  0  0  0  0  0  0
   -2.3705   -6.6164   -7.2146 H   0  0  0  0  0  0  0  0  0  0  0  0
   -4.0370   -7.2131   -7.5700 H   0  0  0  0  0  0  0  0  0  0  0  0
    5.9549    2.3562   -1.6164 H   0  0  0  0  0  0  0  0  0  0  0  0
    6.7847    3.2726   -2.9208 H   0  0  0  0  0  0  0  0  0  0  0  0
    7.1015    0.2336   -2.3900 H   0  0  0  0  0  0  0  0  0  0  0  0
    7.9904    1.2074   -3.6319 H   0  0  0  0  0  0  0  0  0  0  0  0
    8.2592    1.5199   -1.8749 H   0  0  0  0  0  0  0  0  0  0  0  0
    4.2490   -1.7773   -4.3688 H   0  0  0  0  0  0  0  0  0  0  0  0
    7.7645   -3.0364   -4.3081 H   0  0  0  0  0  0  0  0  0  0  0  0
    7.7733   -3.5689   -6.0466 H   0  0  0  0  0  0  0  0  0  0  0  0
    6.8443   -1.3324   -6.7083 H   0  0  0  0  0  0  0  0  0  0  0  0
    6.8715   -0.8162   -4.9757 H   0  0  0  0  0  0  0  0  0  0  0  0
    8.4202   -1.1723   -5.8354 H   0  0  0  0  0  0  0  0  0  0  0  0
    7.3504   -5.4652   -4.5380 H   0  0  0  0  0  0  0  0  0  0  0  0
    2.4779   -6.0165   -3.8274 H   0  0  0  0  0  0  0  0  0  0  0  0
    2.0104   -7.8369   -2.5471 H   0  0  0  0  0  0  0  0  0  0  0  0
    2.5433   -9.5474   -2.5358 H   0  0  0  0  0  0  0  0  0  0  0  0
    1.8347   -7.9417   -5.0735 H   0  0  0  0  0  0  0  0  0  0  0  0
    0.8667   -9.2584   -4.3050 H   0  0  0  0  0  0  0  0  0  0  0  0
    2.4736   -9.6321   -5.0386 H   0  0  0  0  0  0  0  0  0  0  0  0
    7.5992   -8.0127   -4.2931 H   0  0  0  0  0  0  0  0  0  0  0  0
    5.8604   -8.4909   -1.8321 H   0  0  0  0  0  0  0  0  0  0  0  0
    8.4263   -9.9306   -2.9596 H   0  0  0  0  0  0  0  0  0  0  0  0
    7.8327  -11.7682   -1.5859 H   0  0  0  0  0  0  0  0  0  0  0  0
    6.2787   -9.3384    0.6431 H   0  0  0  0  0  0  0  0  0  0  0  0
    6.6868   -4.8495    4.0070 H   0  0  0  0  0  0  0  0  0  0  0  0
    6.3921   -4.6299    2.2497 H   0  0  0  0  0  0  0  0  0  0  0  0
    5.2209   -2.8930    3.6203 H   0  0  0  0  0  0  0  0  0  0  0  0
    4.0454   -3.9051    2.7026 H   0  0  0  0  0  0  0  0  0  0  0  0
    4.2941   -4.1823    4.4756 H   0  0  0  0  0  0  0  0  0  0  0  0
    0.1650  -16.1116   -3.2201 H   0  0  0  0  0  0  0  0  0  0  0  0
    1.3869  -16.7286   -2.0576 H   0  0  0  0  0  0  0  0  0  0  0  0
   -0.8634  -17.7412   -1.6590 H   0  0  0  0  0  0  0  0  0  0  0  0
   -0.3281  -16.7692   -0.2405 H   0  0  0  0  0  0  0  0  0  0  0  0
   -1.5689  -16.1038   -1.3825 H   0  0  0  0  0  0  0  0  0  0  0  0
   -0.3931  -11.7852    1.2519 H   0  0  0  0  0  0  0  0  0  0  0  0
   -1.0714  -10.0988    3.1143 H   0  0  0  0  0  0  0  0  0  0  0  0
  1  2  2  0
  2  3  1  0
  3  4  2  0
  4  5  1  0
  5  6  1  0
  6  7  1  0
  7  8  1  0
  8  9  1  0
  7 10  2  0
 10 11  1  0
 10 12  1  0
 12 13  1  0
  4 14  1  0
 14 15  2  0
 15 16  1  0
 16 17  1  0
 17 18  1  0
 18 19  1  0
 19 20  1  0
 20 21  1  0
 19 22  2  0
 22 23  1  0
 23 24  1  0
 22 25  1  0
 16 26  2  0
 26 27  1  0
 15 28  1  0
 28 29  2  0
 29 30  1  0
 29 31  1  0
 31 32  2  0
 32 33  1  0
 33 34  2  0
 34 35  1  0
 35 36  1  0
 36 37  1  0
 37 38  1  0
 38 39  1  0
 37 40  2  0
 40 41  1  0
 40 42  1  0
 42 43  1  0
 34 44  1  0
 44 45  2  0
 45 46  1  0
 46 47  1  0
 47 48  1  0
 48 49  1  0
 49 50  1  0
 50 51  1  0
 49 52  2  0
 52 53  1  0
 53 54  1  0
 52 55  1  0
 46 56  2  0
 56 57  1  0
 45 58  1  0
 58 59  2  0
 59 60  1  0
 59 61  1  0
 61 62  2  0
 62 63  1  0
 63 64  2  0
 64 65  1  0
 65 66  1  0
 66 67  1  0
 67 68  1  0
 68 69  1  0
 67 70  2  0
 70 71  1  0
 70 72  1  0
 72 73  1  0
 64 74  1  0
 74 75  2  0
 75 76  1  0
 76 77  1  0
 77 78  1  0
 78 79  1  0
 79 80  1  0
 80 81  1  0
 79 82  2  0
 82 83  1  0
 83 84  1  0
 82 85  1  0
 76 86  2  0
 86 87  1  0
 75 88  1  0
 88 89  2  0
 89 90  1  0
 89 91  1  0
 91 92  2  0
 92 93  1  0
 93 94  2  0
 94 95  1  0
 95 96  1  0
 96 97  1  0
 97 98  1  0
 98 99  1  0
 97100  2  0
100101  1  0
100102  1  0
102103  1  0
 94104  1  0
104105  2  0
105106  1  0
106107  1  0
107108  1  0
108109  1  0
109110  1  0
110111  1  0
109112  2  0
112113  1  0
113114  1  0
112115  1  0
106116  2  0
116117  1  0
105118  1  0
118119  2  0
119120  1  0
119121  1  0
121122  2  0
122123  1  0
123124  1  0
124125  1  0
122126  1  0
126127  2  0
127128  1  0
128129  2  0
128130  1  0
130131  1  0
131132  1  0
127133  1  0
133134  2  3
134135  1  0
135136  2  3
136137  1  0
137138  2  0
138139  1  0
139140  2  0
140141  1  0
141142  1  0
142143  1  0
143144  1  0
144145  1  0
143146  2  0
146147  1  0
146148  1  0
148149  1  0
140150  1  0
150151  2  0
151152  1  0
152153  1  0
153154  1  0
154155  1  0
155156  1  0
156157  1  0
155158  2  0
158159  1  0
159160  1  0
158161  1  0
152162  2  0
162163  1  0
151164  1  0
164165  2  0
165166  1  0
 27  1  1  0
 57 31  1  0
 87 61  1  0
117 91  1  0
129121  1  0
163137  1  0
 26  3  1  0
 56 33  1  0
 86 63  1  0
116 93  1  0
162139  1  0
 12  5  2  0
 30 14  1  0
 42 35  2  0
 60 44  1  0
 72 65  2  0
 90 74  1  0
102 95  2  0
120104  1  0
148141  2  0
166150  1  0
 23 17  2  0
 53 47  2  0
 83 77  2  0
113107  2  0
159153  2  0
  1167  1  0
  2168  1  0
  8169  1  0
  8170  1  0
  9171  1  0
  9172  1  0
  9173  1  0
 20174  1  0
 20175  1  0
 21176  1  0
 21177  1  0
 21178  1  0
 28179  1  0
 32180  1  0
 38181  1  0
 38182  1  0
 39183  1  0
 39184  1  0
 39185  1  0
 50186  1  0
 50187  1  0
 51188  1  0
 51189  1  0
 51190  1  0
 58191  1  0
 62192  1  0
 68193  1  0
 68194  1  0
 69195  1  0
 69196  1  0
 69197  1  0
 80198  1  0
 80199  1  0
 81200  1  0
 81201  1  0
 81202  1  0
 88203  1  0
 92204  1  0
 98205  1  0
 98206  1  0
 99207  1  0
 99208  1  0
 99209  1  0
110210  1  0
110211  1  0
111212  1  0
111213  1  0
111214  1  0
118215  1  0
124216  1  0
124217  1  0
125218  1  0
125219  1  0
125220  1  0
126221  1  0
129222  1  0
131223  1  0
131224  1  0
132225  1  0
132226  1  0
132227  1  0
133228  1  0
134229  1  0
135230  1  0
136231  1  0
138232  1  0
144233  1  0
144234  1  0
145235  1  0
145236  1  0
145237  1  0
156238  1  0
156239  1  0
157240  1  0
157241  1  0
157242  1  0
164243  1  0
165244  1  0
M  END

