
     RDKit          3D

238261  0  0  0  0  0  0  0  0999 V2000
    1.9474    2.8968   13.3222 C   0  0  0  0  0  0  0  0  0  0  0  0
    1.8815    1.7477   12.6680 C   0  0  0  0  0  0  0  0  0  0  0  0
    3.2210    1.3933   12.1989 C   0  0  0  0  0  0  0  0  0  0  0  0
    4.0695    2.3132   12.6511 C   0  0  0  0  0  0  0  0  0  0  0  0
    3.3597    3.3735   13.3882 C   0  0  1  0  0  0  0  0  0  0  0  0
    3.6338    4.6364   12.5807 C   0  0  0  0  0  0  0  0  0  0  0  0
    5.0869    4.5566   12.0873 C   0  0  0  0  0  0  0  0  0  0  0  0
    5.5878    2.8029   11.8684 S   0  0  0  0  0  0  0  0  0  0  0  0
    3.5475    0.3488   11.2032 C   0  0  0  0  0  0  0  0  0  0  0  0
    2.6597   -0.5764   10.8271 C   0  0  0  0  0  0  0  0  0  0  0  0
    2.9430   -1.5801    9.7829 C   0  0  0  0  0  0  0  0  0  0  0  0
    2.0805   -2.5292    9.4427 C   0  0  0  0  0  0  0  0  0  0  0  0
    2.6209   -3.2851    8.3202 C   0  0  0  0  0  0  0  0  0  0  0  0
    3.8454   -2.8245    8.0663 C   0  0  0  0  0  0  0  0  0  0  0  0
    4.1726   -1.6685    8.9238 C   0  0  1  0  0  0  0  0  0  0  0  0
    4.3411   -0.5133    7.9414 C   0  0  0  0  0  0  0  0  0  0  0  0
    5.0262   -1.0713    6.6833 C   0  0  0  0  0  0  0  0  0  0  0  0
    4.6507   -2.8543    6.4833 S   0  0  0  0  0  0  0  0  0  0  0  0
    1.8668   -4.2083    7.4416 C   0  0  0  0  0  0  0  0  0  0  0  0
    0.5586   -4.4471    7.5987 C   0  0  0  0  0  0  0  0  0  0  0  0
   -0.2283   -5.2259    6.6260 C   0  0  0  0  0  0  0  0  0  0  0  0
   -1.6217   -5.2282    6.5805 C   0  0  0  0  0  0  0  0  0  0  0  0
   -2.1337   -5.8756    5.4437 C   0  0  0  0  0  0  0  0  0  0  0  0
   -3.4826   -5.8846    5.0369 C   0  0  0  0  0  0  0  0  0  0  0  0
   -4.5230   -5.1660    5.7977 C   0  0  0  0  0  0  0  0  0  0  0  0
   -5.2432   -5.8095    6.8123 C   0  0  0  0  0  0  0  0  0  0  0  0
   -6.2109   -5.1061    7.5379 C   0  0  0  0  0  0  0  0  0  0  0  0
   -6.4650   -3.7572    7.2513 C   0  0  0  0  0  0  0  0  0  0  0  0
   -7.6578   -2.8412    8.2327 S   0  0  0  0  0  0  0  0  0  0  0  0
   -9.0827   -3.2835    7.1835 C   0  0  0  0  0  0  0  0  0  0  0  0
  -10.2854   -2.4359    7.5718 C   0  0  0  0  0  0  0  0  0  0  0  0
   -5.7543   -3.1185    6.2282 C   0  0  0  0  0  0  0  0  0  0  0  0
   -5.9880   -1.8124    5.9444 F   0  0  0  0  0  0  0  0  0  0  0  0
   -4.7913   -3.8196    5.5014 C   0  0  0  0  0  0  0  0  0  0  0  0
   -3.7582   -6.4137    3.7670 C   0  0  0  0  0  0  0  0  0  0  0  0
   -2.7624   -6.9279    2.9313 C   0  0  0  0  0  0  0  0  0  0  0  0
   -1.4140   -6.9423    3.3470 C   0  0  0  0  0  0  0  0  0  0  0  0
   -0.3148   -7.3122    2.4314 C   0  0  0  0  0  0  0  0  0  0  0  0
   -0.0592   -6.5358    1.2905 C   0  0  0  0  0  0  0  0  0  0  0  0
    0.9805   -6.8808    0.4248 C   0  0  0  0  0  0  0  0  0  0  0  0
    1.7935   -7.9861    0.7044 C   0  0  0  0  0  0  0  0  0  0  0  0
    3.1207   -8.4231   -0.4247 S   0  0  0  0  0  0  0  0  0  0  0  0
    4.4329   -7.5560    0.5088 C   0  0  0  0  0  0  0  0  0  0  0  0
    4.3830   -6.0518    0.2670 C   0  0  0  0  0  0  0  0  0  0  0  0
    1.5463   -8.7596    1.8489 C   0  0  0  0  0  0  0  0  0  0  0  0
    0.5005   -8.4192    2.7130 C   0  0  0  0  0  0  0  0  0  0  0  0
    2.3182   -9.8417    2.1252 F   0  0  0  0  0  0  0  0  0  0  0  0
   -1.1370   -6.4062    4.6170 C   0  0  0  0  0  0  0  0  0  0  0  0
    0.3724   -6.0432    5.2715 S   0  0  0  0  0  0  0  0  0  0  0  0
   -3.2271   -7.2262    1.6420 C   0  0  0  0  0  0  0  0  0  0  0  0
   -4.5628   -6.8731    1.4351 C   0  0  0  0  0  0  0  0  0  0  0  0
   -5.1845   -6.2790    2.8929 S   0  0  0  0  0  0  0  0  0  0  0  0
   -5.1017   -6.5114    0.1103 C   0  0  0  0  0  0  0  0  0  0  0  0
   -6.1358   -5.5901   -0.0733 C   0  0  0  0  0  0  0  0  0  0  0  0
   -6.0428   -4.8801   -1.2838 C   0  0  0  0  0  0  0  0  0  0  0  0
   -6.7391   -3.6886   -1.5779 C   0  0  0  0  0  0  0  0  0  0  0  0
   -7.9007   -3.2577   -0.7618 C   0  0  0  0  0  0  0  0  0  0  0  0
   -7.8889   -2.0384   -0.0656 C   0  0  0  0  0  0  0  0  0  0  0  0
   -9.0047   -1.6442    0.6814 C   0  0  0  0  0  0  0  0  0  0  0  0
  -10.1283   -2.4761    0.7620 C   0  0  0  0  0  0  0  0  0  0  0  0
  -11.5496   -1.9646    1.7330 S   0  0  0  0  0  0  0  0  0  0  0  0
  -12.3887   -1.1769    0.3193 C   0  0  0  0  0  0  0  0  0  0  0  0
  -13.7210   -0.5942    0.7649 C   0  0  0  0  0  0  0  0  0  0  0  0
  -10.1301   -3.7089    0.0987 C   0  0  0  0  0  0  0  0  0  0  0  0
  -11.2004   -4.5352    0.1912 F   0  0  0  0  0  0  0  0  0  0  0  0
   -9.0230   -4.0952   -0.6650 C   0  0  0  0  0  0  0  0  0  0  0  0
   -6.2181   -2.8964   -2.6206 C   0  0  0  0  0  0  0  0  0  0  0  0
   -5.1230   -3.2957   -3.3959 C   0  0  0  0  0  0  0  0  0  0  0  0
   -4.4892   -4.5344   -3.1610 C   0  0  0  0  0  0  0  0  0  0  0  0
   -3.2153   -4.9126   -3.8157 C   0  0  0  0  0  0  0  0  0  0  0  0
   -3.1184   -6.1263   -4.5102 C   0  0  0  0  0  0  0  0  0  0  0  0
   -1.8932   -6.5402   -5.0382 C   0  0  0  0  0  0  0  0  0  0  0  0
   -0.7535   -5.7415   -4.8868 C   0  0  0  0  0  0  0  0  0  0  0  0
    0.8236   -6.2961   -5.5441 S   0  0  0  0  0  0  0  0  0  0  0  0
    0.7169   -5.3344   -7.0973 C   0  0  0  0  0  0  0  0  0  0  0  0
   -0.2093   -6.0059   -8.1028 C   0  0  0  0  0  0  0  0  0  0  0  0
   -0.8427   -4.5322   -4.1830 C   0  0  0  0  0  0  0  0  0  0  0  0
   -2.0649   -4.1256   -3.6428 C   0  0  0  0  0  0  0  0  0  0  0  0
    0.2579   -3.7579   -4.0076 F   0  0  0  0  0  0  0  0  0  0  0  0
   -4.9708   -5.2944   -2.0811 C   0  0  0  0  0  0  0  0  0  0  0  0
   -4.1471   -6.5156   -1.2815 S   0  0  0  0  0  0  0  0  0  0  0  0
   -4.6297   -2.2732   -4.2227 C   0  0  0  0  0  0  0  0  0  0  0  0
   -5.2569   -1.0462   -4.0218 C   0  0  0  0  0  0  0  0  0  0  0  0
   -6.5039   -1.2638   -2.9094 S   0  0  0  0  0  0  0  0  0  0  0  0
   -4.4786    0.1906   -4.0898 C   0  0  0  0  0  0  0  0  0  0  0  0
   -3.8007    0.6300   -5.2265 C   0  0  0  0  0  0  0  0  0  0  0  0
   -2.7006    1.4535   -4.9282 C   0  0  0  0  0  0  0  0  0  0  0  0
   -1.7587    1.9490   -5.8526 C   0  0  0  0  0  0  0  0  0  0  0  0
   -1.9656    1.8386   -7.3118 C   0  0  0  0  0  0  0  0  0  0  0  0
   -3.1001    2.4176   -7.9012 C   0  0  0  0  0  0  0  0  0  0  0  0
   -3.2781    2.3623   -9.2852 C   0  0  0  0  0  0  0  0  0  0  0  0
   -2.3127    1.7505  -10.0939 C   0  0  0  0  0  0  0  0  0  0  0  0
   -2.5212    1.7477  -11.8785 S   0  0  0  0  0  0  0  0  0  0  0  0
   -1.5222    3.2554  -12.1542 C   0  0  0  0  0  0  0  0  0  0  0  0
   -2.3358    4.5150  -11.8812 C   0  0  0  0  0  0  0  0  0  0  0  0
   -1.1963    1.1396   -9.5070 C   0  0  0  0  0  0  0  0  0  0  0  0
   -0.2635    0.5270  -10.2781 F   0  0  0  0  0  0  0  0  0  0  0  0
   -1.0236    1.1821   -8.1191 C   0  0  0  0  0  0  0  0  0  0  0  0
   -0.6112    2.5697   -5.3213 C   0  0  0  0  0  0  0  0  0  0  0  0
   -0.3886    2.6940   -3.9468 C   0  0  0  0  0  0  0  0  0  0  0  0
   -1.3405    2.2184   -3.0222 C   0  0  0  0  0  0  0  0  0  0  0  0
   -1.0666    2.1913   -1.5723 C   0  0  0  0  0  0  0  0  0  0  0  0
   -0.0469    1.3686   -1.0665 C   0  0  0  0  0  0  0  0  0  0  0  0
    0.2003    1.3219    0.3083 C   0  0  0  0  0  0  0  0  0  0  0  0
   -0.5561    2.1037    1.1887 C   0  0  0  0  0  0  0  0  0  0  0  0
   -0.2340    2.0190    2.9555 S   0  0  0  0  0  0  0  0  0  0  0  0
    0.9194    3.4394    2.9892 C   0  0  0  0  0  0  0  0  0  0  0  0
    2.3252    3.0120    2.5906 C   0  0  0  0  0  0  0  0  0  0  0  0
   -1.5888    2.9123    0.6884 C   0  0  0  0  0  0  0  0  0  0  0  0
   -1.8427    2.9557   -0.6864 C   0  0  0  0  0  0  0  0  0  0  0  0
   -2.3457    3.6578    1.5326 F   0  0  0  0  0  0  0  0  0  0  0  0
   -2.5002    1.6267   -3.5537 C   0  0  0  0  0  0  0  0  0  0  0  0
   -3.6948    0.7951   -2.7219 S   0  0  0  0  0  0  0  0  0  0  0  0
    0.8418    3.2963   -3.6344 C   0  0  0  0  0  0  0  0  0  0  0  0
    1.5764    3.6410   -4.7666 C   0  0  0  0  0  0  0  0  0  0  0  0
    0.7029    3.2148   -6.1468 S   0  0  0  0  0  0  0  0  0  0  0  0
    2.9315    4.2082   -4.7712 C   0  0  0  0  0  0  0  0  0  0  0  0
    3.6776    4.4930   -5.9116 C   0  0  0  0  0  0  0  0  0  0  0  0
    4.9713    4.9479   -5.6228 C   0  0  0  0  0  0  0  0  0  0  0  0
    5.9689    5.2855   -6.5613 C   0  0  0  0  0  0  0  0  0  0  0  0
    5.7868    5.0559   -8.0131 C   0  0  0  0  0  0  0  0  0  0  0  0
    5.4865    3.7672   -8.4883 C   0  0  0  0  0  0  0  0  0  0  0  0
    5.3314    3.5376   -9.8572 C   0  0  0  0  0  0  0  0  0  0  0  0
    5.4955    4.5869  -10.7671 C   0  0  0  0  0  0  0  0  0  0  0  0
    5.3317    4.2646  -12.5272 S   0  0  0  0  0  0  0  0  0  0  0  0
    7.0692    3.7357  -12.7032 C   0  0  0  0  0  0  0  0  0  0  0  0
    7.3295    3.2562  -14.1240 C   0  0  0  0  0  0  0  0  0  0  0  0
    5.7931    5.8745  -10.3021 C   0  0  0  0  0  0  0  0  0  0  0  0
    5.9500    6.8994  -11.1781 F   0  0  0  0  0  0  0  0  0  0  0  0
    5.9361    6.1095   -8.9296 C   0  0  0  0  0  0  0  0  0  0  0  0
    7.1927    5.7490   -6.0400 C   0  0  0  0  0  0  0  0  0  0  0  0
    7.4429    5.8390   -4.6678 C   0  0  0  0  0  0  0  0  0  0  0  0
    6.4572    5.4657   -3.7340 C   0  0  0  0  0  0  0  0  0  0  0  0
    6.7267    5.4311   -2.2862 C   0  0  0  0  0  0  0  0  0  0  0  0
    6.6472    6.5977   -1.5164 C   0  0  0  0  0  0  0  0  0  0  0  0
    6.9142    6.5510   -0.1440 C   0  0  0  0  0  0  0  0  0  0  0  0
    7.2571    5.3352    0.4649 C   0  0  0  0  0  0  0  0  0  0  0  0
    7.6460    5.2821    2.2163 S   0  0  0  0  0  0  0  0  0  0  0  0
    5.9243    4.9740    2.7339 C   0  0  0  0  0  0  0  0  0  0  0  0
    5.9065    4.4066    4.1451 C   0  0  0  0  0  0  0  0  0  0  0  0
    7.3368    4.1696   -0.3067 C   0  0  0  0  0  0  0  0  0  0  0  0
    7.0620    4.2135   -1.6729 C   0  0  0  0  0  0  0  0  0  0  0  0
    7.6727    2.9871    0.2692 F   0  0  0  0  0  0  0  0  0  0  0  0
    5.2242    5.0389   -4.2494 C   0  0  0  0  0  0  0  0  0  0  0  0
    3.8637    4.5332   -3.3987 S   0  0  0  0  0  0  0  0  0  0  0  0
    8.7465    6.2636   -4.3667 C   0  0  0  0  0  0  0  0  0  0  0  0
    9.5178    6.5070   -5.4996 C   0  0  0  0  0  0  0  0  0  0  0  0
    8.5891    6.1848   -6.8721 S   0  0  0  0  0  0  0  0  0  0  0  0
    1.0904    3.4071   13.7384 H   0  0  0  0  0  0  0  0  0  0  0  0
    0.9610    1.2181   12.4606 H   0  0  0  0  0  0  0  0  0  0  0  0
    3.7220    3.4510   14.4349 H   0  0  0  0  0  0  0  0  0  0  0  0
    2.9598    4.6830   11.6970 H   0  0  0  0  0  0  0  0  0  0  0  0
    3.4733    5.5430   13.2020 H   0  0  0  0  0  0  0  0  0  0  0  0
    5.2030    5.1035   11.1289 H   0  0  0  0  0  0  0  0  0  0  0  0
    5.7583    5.0128   12.8453 H   0  0  0  0  0  0  0  0  0  0  0  0
    4.5416    0.3361   10.7761 H   0  0  0  0  0  0  0  0  0  0  0  0
    1.6822   -0.6043   11.2908 H   0  0  0  0  0  0  0  0  0  0  0  0
    1.1046   -2.6637    9.8923 H   0  0  0  0  0  0  0  0  0  0  0  0
    5.0900   -1.8601    9.5209 H   0  0  0  0  0  0  0  0  0  0  0  0
    3.3469   -0.1007    7.6524 H   0  0  0  0  0  0  0  0  0  0  0  0
    4.9529    0.2994    8.3824 H   0  0  0  0  0  0  0  0  0  0  0  0
    4.6976   -0.5154    5.7816 H   0  0  0  0  0  0  0  0  0  0  0  0
    6.1278   -0.9649    6.7801 H   0  0  0  0  0  0  0  0  0  0  0  0
    2.3909   -4.6518    6.6046 H   0  0  0  0  0  0  0  0  0  0  0  0
    0.0173   -3.9900    8.4156 H   0  0  0  0  0  0  0  0  0  0  0  0
   -2.2371   -4.7162    7.3108 H   0  0  0  0  0  0  0  0  0  0  0  0
   -5.0475   -6.8488    7.0458 H   0  0  0  0  0  0  0  0  0  0  0  0
   -6.7621   -5.6066    8.3207 H   0  0  0  0  0  0  0  0  0  0  0  0
   -8.8424   -3.1095    6.1118 H   0  0  0  0  0  0  0  0  0  0  0  0
   -9.3257   -4.3590    7.3318 H   0  0  0  0  0  0  0  0  0  0  0  0
  -10.5306   -2.5867    8.6464 H   0  0  0  0  0  0  0  0  0  0  0  0
  -11.1613   -2.7372    6.9580 H   0  0  0  0  0  0  0  0  0  0  0  0
  -10.0671   -1.3605    7.3902 H   0  0  0  0  0  0  0  0  0  0  0  0
   -4.2420   -3.3127    4.7194 H   0  0  0  0  0  0  0  0  0  0  0  0
   -0.6683   -5.6658    1.0724 H   0  0  0  0  0  0  0  0  0  0  0  0
    1.1566   -6.2844   -0.4619 H   0  0  0  0  0  0  0  0  0  0  0  0
    4.3481   -7.7718    1.5953 H   0  0  0  0  0  0  0  0  0  0  0  0
    5.4144   -7.9398    0.1570 H   0  0  0  0  0  0  0  0  0  0  0  0
    5.2583   -5.5690    0.7493 H   0  0  0  0  0  0  0  0  0  0  0  0
    4.4073   -5.8356   -0.8215 H   0  0  0  0  0  0  0  0  0  0  0  0
    3.4623   -5.6182    0.7049 H   0  0  0  0  0  0  0  0  0  0  0  0
    0.3172   -9.0201    3.5964 H   0  0  0  0  0  0  0  0  0  0  0  0
   -2.5765   -7.5541    0.8395 H   0  0  0  0  0  0  0  0  0  0  0  0
   -6.8085   -5.3089    0.7241 H   0  0  0  0  0  0  0  0  0  0  0  0
   -7.0170   -1.3958   -0.0908 H   0  0  0  0  0  0  0  0  0  0  0  0
   -8.9893   -0.6961    1.2038 H   0  0  0  0  0  0  0  0  0  0  0  0
  -11.7500   -0.3632   -0.0862 H   0  0  0  0  0  0  0  0  0  0  0  0
  -12.5692   -1.9322   -0.4762 H   0  0  0  0  0  0  0  0  0  0  0  0
  -14.2304   -0.1167   -0.0997 H   0  0  0  0  0  0  0  0  0  0  0  0
  -14.3744   -1.3989    1.1640 H   0  0  0  0  0  0  0  0  0  0  0  0
  -13.5582    0.1739    1.5517 H   0  0  0  0  0  0  0  0  0  0  0  0
   -9.0397   -5.0466   -1.1813 H   0  0  0  0  0  0  0  0  0  0  0  0
   -3.9875   -6.7596   -4.6247 H   0  0  0  0  0  0  0  0  0  0  0  0
   -1.8270   -7.4906   -5.5517 H   0  0  0  0  0  0  0  0  0  0  0  0
    1.7377   -5.2806   -7.5321 H   0  0  0  0  0  0  0  0  0  0  0  0
    0.3733   -4.2977   -6.8926 H   0  0  0  0  0  0  0  0  0  0  0  0
   -1.2519   -6.0126   -7.7264 H   0  0  0  0  0  0  0  0  0  0  0  0
    0.1220   -7.0479   -8.2907 H   0  0  0  0  0  0  0  0  0  0  0  0
   -0.1836   -5.4439   -9.0608 H   0  0  0  0  0  0  0  0  0  0  0  0
   -2.1103   -3.2060   -3.0711 H   0  0  0  0  0  0  0  0  0  0  0  0
   -3.7226   -2.3654   -4.8065 H   0  0  0  0  0  0  0  0  0  0  0  0
   -4.0241    0.2652   -6.2222 H   0  0  0  0  0  0  0  0  0  0  0  0
   -3.8384    2.9236   -7.2901 H   0  0  0  0  0  0  0  0  0  0  0  0
   -4.1503    2.8204   -9.7302 H   0  0  0  0  0  0  0  0  0  0  0  0
   -1.1962    3.2610  -13.2150 H   0  0  0  0  0  0  0  0  0  0  0  0
   -0.6130    3.2457  -11.5165 H   0  0  0  0  0  0  0  0  0  0  0  0
   -1.7328    5.4083  -12.1476 H   0  0  0  0  0  0  0  0  0  0  0  0
   -2.6019    4.5840  -10.8077 H   0  0  0  0  0  0  0  0  0  0  0  0
   -3.2629    4.5143  -12.4906 H   0  0  0  0  0  0  0  0  0  0  0  0
   -0.1565    0.7062   -7.6748 H   0  0  0  0  0  0  0  0  0  0  0  0
    0.5475    0.7584   -1.7371 H   0  0  0  0  0  0  0  0  0  0  0  0
    0.9811    0.6744    0.6883 H   0  0  0  0  0  0  0  0  0  0  0  0
    0.5615    4.2527    2.3224 H   0  0  0  0  0  0  0  0  0  0  0  0
    0.9465    3.8338    4.0271 H   0  0  0  0  0  0  0  0  0  0  0  0
    3.0089    3.8804    2.6880 H   0  0  0  0  0  0  0  0  0  0  0  0
    2.6811    2.1968    3.2520 H   0  0  0  0  0  0  0  0  0  0  0  0
    2.3449    2.6694    1.5382 H   0  0  0  0  0  0  0  0  0  0  0  0
   -2.6375    3.5874   -1.0644 H   0  0  0  0  0  0  0  0  0  0  0  0
    1.1928    3.4649   -2.6251 H   0  0  0  0  0  0  0  0  0  0  0  0
    3.2951    4.3636   -6.9167 H   0  0  0  0  0  0  0  0  0  0  0  0
    5.3794    2.9404   -7.7980 H   0  0  0  0  0  0  0  0  0  0  0  0
    5.1077    2.5388  -10.2104 H   0  0  0  0  0  0  0  0  0  0  0  0
    7.7439    4.5876  -12.4702 H   0  0  0  0  0  0  0  0  0  0  0  0
    7.2823    2.9040  -11.9975 H   0  0  0  0  0  0  0  0  0  0  0  0
    7.1476    4.0807  -14.8444 H   0  0  0  0  0  0  0  0  0  0  0  0
    6.6618    2.4016  -14.3630 H   0  0  0  0  0  0  0  0  0  0  0  0
    8.3857    2.9226  -14.2150 H   0  0  0  0  0  0  0  0  0  0  0  0
    6.1590    7.1106   -8.5811 H   0  0  0  0  0  0  0  0  0  0  0  0
    6.3825    7.5410   -1.9786 H   0  0  0  0  0  0  0  0  0  0  0  0
    6.8438    7.4521    0.4467 H   0  0  0  0  0  0  0  0  0  0  0  0
    5.4364    4.2474    2.0474 H   0  0  0  0  0  0  0  0  0  0  0  0
    5.3603    5.9319    2.7121 H   0  0  0  0  0  0  0  0  0  0  0  0
    6.4155    5.1028    4.8474 H   0  0  0  0  0  0  0  0  0  0  0  0
    6.4220    3.4225    4.1642 H   0  0  0  0  0  0  0  0  0  0  0  0
    4.8554    4.2698    4.4766 H   0  0  0  0  0  0  0  0  0  0  0  0
    7.1299    3.3076   -2.2607 H   0  0  0  0  0  0  0  0  0  0  0  0
    9.1288    6.3812   -3.3597 H   0  0  0  0  0  0  0  0  0  0  0  0
   10.5485    6.8331   -5.4979 H   0  0  0  0  0  0  0  0  0  0  0  0
  1  2  2  0
  2  3  1  0
  3  4  2  0
  4  5  1  0
  5  6  1  0
  6  7  1  0
  7  8  1  0
  3  9  1  0
  9 10  2  3
 10 11  1  0
 11 12  2  0
 12 13  1  0
 13 14  2  0
 14 15  1  0
 15 16  1  0
 16 17  1  0
 17 18  1  0
 13 19  1  0
 19 20  2  3
 20 21  1  0
 21 22  2  0
 22 23  1  0
 23 24  2  0
 24 25  1  0
 25 26  2  0
 26 27  1  0
 27 28  2  0
 28 29  1  0
 29 30  1  0
 30 31  1  0
 28 32  1  0
 32 33  1  0
 32 34  2  0
 24 35  1  0
 35 36  2  0
 36 37  1  0
 37 38  1  0
 38 39  2  0
 39 40  1  0
 40 41  2  0
 41 42  1  0
 42 43  1  0
 43 44  1  0
 41 45  1  0
 45 46  2  0
 45 47  1  0
 37 48  2  0
 48 49  1  0
 36 50  1  0
 50 51  2  0
 51 52  1  0
 51 53  1  0
 53 54  2  0
 54 55  1  0
 55 56  2  0
 56 57  1  0
 57 58  2  0
 58 59  1  0
 59 60  2  0
 60 61  1  0
 61 62  1  0
 62 63  1  0
 60 64  1  0
 64 65  1  0
 64 66  2  0
 56 67  1  0
 67 68  2  0
 68 69  1  0
 69 70  1  0
 70 71  2  0
 71 72  1  0
 72 73  2  0
 73 74  1  0
 74 75  1  0
 75 76  1  0
 73 77  1  0
 77 78  2  0
 77 79  1  0
 69 80  2  0
 80 81  1  0
 68 82  1  0
 82 83  2  0
 83 84  1  0
 83 85  1  0
 85 86  2  0
 86 87  1  0
 87 88  2  0
 88 89  1  0
 89 90  2  0
 90 91  1  0
 91 92  2  0
 92 93  1  0
 93 94  1  0
 94 95  1  0
 92 96  1  0
 96 97  1  0
 96 98  2  0
 88 99  1  0
 99100  2  0
100101  1  0
101102  1  0
102103  2  0
103104  1  0
104105  2  0
105106  1  0
106107  1  0
107108  1  0
105109  1  0
109110  2  0
109111  1  0
101112  2  0
112113  1  0
100114  1  0
114115  2  0
115116  1  0
115117  1  0
117118  2  0
118119  1  0
119120  2  0
120121  1  0
121122  2  0
122123  1  0
123124  2  0
124125  1  0
125126  1  0
126127  1  0
124128  1  0
128129  1  0
128130  2  0
120131  1  0
131132  2  0
132133  1  0
133134  1  0
134135  2  0
135136  1  0
136137  2  0
137138  1  0
138139  1  0
139140  1  0
137141  1  0
141142  2  0
141143  1  0
133144  2  0
144145  1  0
132146  1  0
146147  2  0
147148  1  0
  5  1  1  0
 15 11  1  0
 49 21  1  0
 81 53  1  0
113 85  1  0
145117  1  0
  8  4  1  0
 18 14  1  0
 48 23  1  0
 80 55  1  0
112 87  1  0
144119  1  0
 34 25  1  0
 52 35  1  0
 66 57  1  0
 84 67  1  0
 98 89  1  0
116 99  1  0
130121  1  0
148131  1  0
 46 38  1  0
 78 70  1  0
110102  1  0
142134  1  0
  1149  1  0
  2150  1  0
  5151  1  1
  6152  1  0
  6153  1  0
  7154  1  0
  7155  1  0
  9156  1  0
 10157  1  0
 12158  1  0
 15159  1  1
 16160  1  0
 16161  1  0
 17162  1  0
 17163  1  0
 19164  1  0
 20165  1  0
 22166  1  0
 26167  1  0
 27168  1  0
 30169  1  0
 30170  1  0
 31171  1  0
 31172  1  0
 31173  1  0
 34174  1  0
 39175  1  0
 40176  1  0
 43177  1  0
 43178  1  0
 44179  1  0
 44180  1  0
 44181  1  0
 46182  1  0
 50183  1  0
 54184  1  0
 58185  1  0
 59186  1  0
 62187  1  0
 62188  1  0
 63189  1  0
 63190  1  0
 63191  1  0
 66192  1  0
 71193  1  0
 72194  1  0
 75195  1  0
 75196  1  0
 76197  1  0
 76198  1  0
 76199  1  0
 78200  1  0
 82201  1  0
 86202  1  0
 90203  1  0
 91204  1  0
 94205  1  0
 94206  1  0
 95207  1  0
 95208  1  0
 95209  1  0
 98210  1  0
103211  1  0
104212  1  0
107213  1  0
107214  1  0
108215  1  0
108216  1  0
108217  1  0
110218  1  0
114219  1  0
118220  1  0
122221  1  0
123222  1  0
126223  1  0
126224  1  0
127225  1  0
127226  1  0
127227  1  0
130228  1  0
135229  1  0
136230  1  0
139231  1  0
139232  1  0
140233  1  0
140234  1  0
140235  1  0
142236  1  0
146237  1  0
147238  1  0
M  END

