
     RDKit          3D

230256  0  0  0  0  0  0  0  0999 V2000
   -1.4348   -7.6963    7.8462 C   0  0  0  0  0  0  0  0  0  0  0  0
   -0.5948   -7.7683    6.7378 C   0  0  0  0  0  0  0  0  0  0  0  0
   -1.2642   -7.6083    5.5116 C   0  0  0  0  0  0  0  0  0  0  0  0
   -0.6782   -7.5819    4.2215 C   0  0  0  0  0  0  0  0  0  0  0  0
    0.7730   -7.6934    4.0492 C   0  0  0  0  0  0  0  0  0  0  0  0
    1.5458   -8.9333    3.2194 S   0  0  0  0  0  0  0  0  0  0  0  0
    3.1038   -8.3307    3.4147 C   0  0  0  0  0  0  0  0  0  0  0  0
    4.3336   -8.9664    2.8468 C   0  0  0  0  0  0  0  0  0  0  0  0
    4.5771   -8.4802    1.4248 C   0  0  0  0  0  0  0  0  0  0  0  0
    3.0409   -7.1194    4.1012 C   0  0  0  0  0  0  0  0  0  0  0  0
    4.4303   -6.0923    4.4111 Cl  0  0  0  0  0  0  0  0  0  0  0  0
    1.7273   -6.7679    4.4674 C   0  0  0  0  0  0  0  0  0  0  0  0
    1.3267   -5.2742    5.3086 Cl  0  0  0  0  0  0  0  0  0  0  0  0
   -1.5342   -7.4186    3.1342 C   0  0  0  0  0  0  0  0  0  0  0  0
   -2.9201   -7.2658    3.2875 C   0  0  0  0  0  0  0  0  0  0  0  0
   -3.5134   -7.2816    4.5648 C   0  0  0  0  0  0  0  0  0  0  0  0
   -4.9479   -7.0161    4.7489 C   0  0  0  0  0  0  0  0  0  0  0  0
   -5.7211   -5.6002    4.2616 S   0  0  0  0  0  0  0  0  0  0  0  0
   -7.2438   -6.0112    4.8347 C   0  0  0  0  0  0  0  0  0  0  0  0
   -8.4322   -5.1049    4.8176 C   0  0  0  0  0  0  0  0  0  0  0  0
   -8.3814   -4.1282    5.9914 C   0  0  0  0  0  0  0  0  0  0  0  0
   -7.1655   -7.2625    5.4439 C   0  0  0  0  0  0  0  0  0  0  0  0
   -5.8746   -7.8264    5.4044 C   0  0  0  0  0  0  0  0  0  0  0  0
   -5.5103   -9.4104    6.0702 Cl  0  0  0  0  0  0  0  0  0  0  0  0
   -8.5293   -8.0596    6.2142 Cl  0  0  0  0  0  0  0  0  0  0  0  0
   -2.6466   -7.4576    5.6558 C   0  0  0  0  0  0  0  0  0  0  0  0
   -3.0060   -7.4677    7.3057 S   0  0  0  0  0  0  0  0  0  0  0  0
   -3.5869   -7.0542    2.0827 C   0  0  0  0  0  0  0  0  0  0  0  0
   -2.7477   -7.0208    0.9731 C   0  0  0  0  0  0  0  0  0  0  0  0
   -1.1408   -7.2513    1.5004 S   0  0  0  0  0  0  0  0  0  0  0  0
   -3.2035   -6.6772   -0.3858 C   0  0  0  0  0  0  0  0  0  0  0  0
   -2.4246   -6.1764   -1.4272 C   0  0  0  0  0  0  0  0  0  0  0  0
   -3.1896   -5.6664   -2.4950 C   0  0  0  0  0  0  0  0  0  0  0  0
   -2.6969   -4.9415   -3.5972 C   0  0  0  0  0  0  0  0  0  0  0  0
   -1.2664   -4.6644   -3.7069 C   0  0  0  0  0  0  0  0  0  0  0  0
   -0.1527   -5.7082   -4.3890 S   0  0  0  0  0  0  0  0  0  0  0  0
    1.2100   -4.8575   -3.8903 C   0  0  0  0  0  0  0  0  0  0  0  0
    2.6142   -5.2607   -4.1870 C   0  0  0  0  0  0  0  0  0  0  0  0
    3.2134   -6.0517   -3.0244 C   0  0  0  0  0  0  0  0  0  0  0  0
    0.7956   -3.7388   -3.1717 C   0  0  0  0  0  0  0  0  0  0  0  0
    1.8987   -2.5385   -2.4833 Cl  0  0  0  0  0  0  0  0  0  0  0  0
   -0.5932   -3.6210   -3.0768 C   0  0  0  0  0  0  0  0  0  0  0  0
   -1.3972   -2.3206   -2.2124 Cl  0  0  0  0  0  0  0  0  0  0  0  0
   -3.6384   -4.3399   -4.4515 C   0  0  0  0  0  0  0  0  0  0  0  0
   -5.0146   -4.4216   -4.2238 C   0  0  0  0  0  0  0  0  0  0  0  0
   -5.5109   -5.1416   -3.1153 C   0  0  0  0  0  0  0  0  0  0  0  0
   -6.9156   -5.0518   -2.6943 C   0  0  0  0  0  0  0  0  0  0  0  0
   -7.9683   -6.3546   -2.5568 S   0  0  0  0  0  0  0  0  0  0  0  0
   -9.2034   -5.5128   -1.7808 C   0  0  0  0  0  0  0  0  0  0  0  0
  -10.5395   -6.0744   -1.4104 C   0  0  0  0  0  0  0  0  0  0  0  0
  -11.5734   -5.7579   -2.4979 C   0  0  0  0  0  0  0  0  0  0  0  0
   -8.8054   -4.1862   -1.6291 C   0  0  0  0  0  0  0  0  0  0  0  0
   -7.5131   -3.9309   -2.1221 C   0  0  0  0  0  0  0  0  0  0  0  0
   -6.7158   -2.3709   -1.9717 Cl  0  0  0  0  0  0  0  0  0  0  0  0
   -9.8074   -2.9443   -0.8787 Cl  0  0  0  0  0  0  0  0  0  0  0  0
   -4.5704   -5.7788   -2.2903 C   0  0  0  0  0  0  0  0  0  0  0  0
   -4.8319   -6.4967   -0.7981 S   0  0  0  0  0  0  0  0  0  0  0  0
   -5.7702   -3.5950   -5.0707 C   0  0  0  0  0  0  0  0  0  0  0  0
   -4.9901   -2.8209   -5.9343 C   0  0  0  0  0  0  0  0  0  0  0  0
   -3.3709   -3.2130   -5.6687 S   0  0  0  0  0  0  0  0  0  0  0  0
   -5.4143   -1.5343   -6.4936 C   0  0  0  0  0  0  0  0  0  0  0  0
   -4.5547   -0.7062   -7.2258 C   0  0  0  0  0  0  0  0  0  0  0  0
   -4.7378    0.6635   -6.9622 C   0  0  0  0  0  0  0  0  0  0  0  0
   -3.7854    1.6766   -7.2350 C   0  0  0  0  0  0  0  0  0  0  0  0
   -2.6793    1.4581   -8.1860 C   0  0  0  0  0  0  0  0  0  0  0  0
   -1.0455    1.6760   -7.8667 S   0  0  0  0  0  0  0  0  0  0  0  0
   -0.4976    1.4240   -9.4320 C   0  0  0  0  0  0  0  0  0  0  0  0
    0.9319    1.5109   -9.8681 C   0  0  0  0  0  0  0  0  0  0  0  0
    1.5990    0.1402   -9.8273 C   0  0  0  0  0  0  0  0  0  0  0  0
   -1.5887    1.1288  -10.2408 C   0  0  0  0  0  0  0  0  0  0  0  0
   -1.4530    0.7864  -11.9687 Cl  0  0  0  0  0  0  0  0  0  0  0  0
   -2.8197    1.1439   -9.5441 C   0  0  0  0  0  0  0  0  0  0  0  0
   -4.3625    0.9134  -10.3444 Cl  0  0  0  0  0  0  0  0  0  0  0  0
   -3.8795    2.8475   -6.4646 C   0  0  0  0  0  0  0  0  0  0  0  0
   -4.9236    3.0776   -5.5619 C   0  0  0  0  0  0  0  0  0  0  0  0
   -5.9778    2.1523   -5.4467 C   0  0  0  0  0  0  0  0  0  0  0  0
   -7.0654    2.3481   -4.4907 C   0  0  0  0  0  0  0  0  0  0  0  0
   -6.9010    2.2652   -2.8105 S   0  0  0  0  0  0  0  0  0  0  0  0
   -8.4972    2.6242   -2.4660 C   0  0  0  0  0  0  0  0  0  0  0  0
   -9.0380    2.7591   -1.0756 C   0  0  0  0  0  0  0  0  0  0  0  0
   -9.4319    4.2072   -0.7727 C   0  0  0  0  0  0  0  0  0  0  0  0
   -9.2054    2.7390   -3.6705 C   0  0  0  0  0  0  0  0  0  0  0  0
   -8.3918    2.5957   -4.8025 C   0  0  0  0  0  0  0  0  0  0  0  0
   -9.0078    2.7856   -6.4482 Cl  0  0  0  0  0  0  0  0  0  0  0  0
  -10.9249    3.0389   -3.7915 Cl  0  0  0  0  0  0  0  0  0  0  0  0
   -5.8173    0.9242   -6.1109 C   0  0  0  0  0  0  0  0  0  0  0  0
   -6.4910   -0.5399   -5.6581 S   0  0  0  0  0  0  0  0  0  0  0  0
   -4.6725    4.1378   -4.6658 C   0  0  0  0  0  0  0  0  0  0  0  0
   -3.3800    4.6583   -4.7600 C   0  0  0  0  0  0  0  0  0  0  0  0
   -2.6425    3.9265   -6.0892 S   0  0  0  0  0  0  0  0  0  0  0  0
   -2.5825    4.8306   -3.5582 C   0  0  0  0  0  0  0  0  0  0  0  0
   -1.8717    5.9605   -3.1655 C   0  0  0  0  0  0  0  0  0  0  0  0
   -0.8775    5.6873   -2.2016 C   0  0  0  0  0  0  0  0  0  0  0  0
    0.1728    6.5586   -1.8179 C   0  0  0  0  0  0  0  0  0  0  0  0
    0.2886    7.8887   -2.4118 C   0  0  0  0  0  0  0  0  0  0  0  0
   -0.7384    9.1749   -2.1122 S   0  0  0  0  0  0  0  0  0  0  0  0
   -0.1437   10.1949   -3.3137 C   0  0  0  0  0  0  0  0  0  0  0  0
   -0.6839   11.5645   -3.6222 C   0  0  0  0  0  0  0  0  0  0  0  0
    0.3983   12.6332   -3.5443 C   0  0  0  0  0  0  0  0  0  0  0  0
    0.8526    9.5027   -4.0048 C   0  0  0  0  0  0  0  0  0  0  0  0
    1.6928   10.1236   -5.4253 Cl  0  0  0  0  0  0  0  0  0  0  0  0
    1.1137    8.2203   -3.4832 C   0  0  0  0  0  0  0  0  0  0  0  0
    2.2686    7.0989   -4.2076 Cl  0  0  0  0  0  0  0  0  0  0  0  0
    1.2418    5.9780   -1.1190 C   0  0  0  0  0  0  0  0  0  0  0  0
    1.2379    4.6325   -0.7284 C   0  0  0  0  0  0  0  0  0  0  0  0
    0.0852    3.8471   -0.8919 C   0  0  0  0  0  0  0  0  0  0  0  0
   -0.3010    2.8591    0.1587 C   0  0  0  0  0  0  0  0  0  0  0  0
    0.7861    1.9570    1.0901 S   0  0  0  0  0  0  0  0  0  0  0  0
   -0.2245    1.6103    2.3805 C   0  0  0  0  0  0  0  0  0  0  0  0
    0.2150    0.9644    3.6562 C   0  0  0  0  0  0  0  0  0  0  0  0
    0.1703    1.9342    4.8528 C   0  0  0  0  0  0  0  0  0  0  0  0
   -1.4760    2.1758    2.1154 C   0  0  0  0  0  0  0  0  0  0  0  0
   -1.4934    2.9192    0.9059 C   0  0  0  0  0  0  0  0  0  0  0  0
   -2.9108    3.8876    0.4896 Cl  0  0  0  0  0  0  0  0  0  0  0  0
   -2.8171    2.1302    3.2739 Cl  0  0  0  0  0  0  0  0  0  0  0  0
   -0.8722    4.3567   -1.7812 C   0  0  0  0  0  0  0  0  0  0  0  0
   -1.9975    3.5063   -2.6849 S   0  0  0  0  0  0  0  0  0  0  0  0
    2.5164    4.1661   -0.3862 C   0  0  0  0  0  0  0  0  0  0  0  0
    3.4901    5.1629   -0.3949 C   0  0  0  0  0  0  0  0  0  0  0  0
    2.7540    6.6184   -0.8304 S   0  0  0  0  0  0  0  0  0  0  0  0
    4.9499    4.9732   -0.2579 C   0  0  0  0  0  0  0  0  0  0  0  0
    5.5792    3.8017   -0.2236 C   0  0  0  0  0  0  0  0  0  0  0  0
    7.0169    4.0408   -0.1658 C   0  0  0  0  0  0  0  0  0  0  0  0
    7.2119    5.3555   -0.1598 C   0  0  0  0  0  0  0  0  0  0  0  0
    5.9404    6.0961   -0.1738 C   0  0  1  0  0  0  0  0  0  0  0  0
    6.0005    7.0087   -1.4183 C   0  0  0  0  0  0  0  0  0  0  0  0
    7.3380    6.7991   -2.1369 C   0  0  0  0  0  0  0  0  0  0  0  0
    8.5705    6.1962   -0.9392 S   0  0  0  0  0  0  0  0  0  0  0  0
    8.0283    3.0689   -0.6252 C   0  0  0  0  0  0  0  0  0  0  0  0
    8.4128    1.9700    0.0510 C   0  0  0  0  0  0  0  0  0  0  0  0
    7.9538    1.5474    1.3974 C   0  0  0  0  0  0  0  0  0  0  0  0
    8.4285    0.4214    2.0731 C   0  0  0  0  0  0  0  0  0  0  0  0
    7.8010    0.2145    3.3104 C   0  0  0  0  0  0  0  0  0  0  0  0
    8.0673   -0.8271    4.2309 C   0  0  0  0  0  0  0  0  0  0  0  0
    9.1101   -1.8307    3.9883 C   0  0  0  0  0  0  0  0  0  0  0  0
    9.1319   -2.9434    2.7264 S   0  0  0  0  0  0  0  0  0  0  0  0
   10.6097   -3.6487    3.1409 C   0  0  0  0  0  0  0  0  0  0  0  0
   11.2638   -4.7802    2.4099 C   0  0  0  0  0  0  0  0  0  0  0  0
   10.9423   -6.1108    3.0747 C   0  0  0  0  0  0  0  0  0  0  0  0
   11.1104   -3.0099    4.2734 C   0  0  0  0  0  0  0  0  0  0  0  0
   12.6446   -3.4194    5.0214 Cl  0  0  0  0  0  0  0  0  0  0  0  0
   10.2591   -1.9986    4.7606 C   0  0  0  0  0  0  0  0  0  0  0  0
   10.6663   -1.0001    6.1460 Cl  0  0  0  0  0  0  0  0  0  0  0  0
    7.3064   -0.8350    5.4109 C   0  0  0  0  0  0  0  0  0  0  0  0
    6.3356    0.1366    5.7027 C   0  0  0  0  0  0  0  0  0  0  0  0
    6.1016    1.2018    4.8039 C   0  0  0  0  0  0  0  0  0  0  0  0
    5.1457    2.2932    5.0749 C   0  0  0  0  0  0  0  0  0  0  0  0
    3.9330    2.8006    4.0214 S   0  0  0  0  0  0  0  0  0  0  0  0
    3.4383    4.1367    4.9124 C   0  0  0  0  0  0  0  0  0  0  0  0
    2.3383    5.0732    4.5071 C   0  0  0  0  0  0  0  0  0  0  0  0
    2.8559    6.4832    4.2381 C   0  0  0  0  0  0  0  0  0  0  0  0
    4.2197    4.2073    6.0604 C   0  0  0  0  0  0  0  0  0  0  0  0
    5.1845    3.1796    6.1507 C   0  0  0  0  0  0  0  0  0  0  0  0
    6.3947    3.1202    7.4266 Cl  0  0  0  0  0  0  0  0  0  0  0  0
    4.0248    5.4307    7.3164 Cl  0  0  0  0  0  0  0  0  0  0  0  0
    6.8355    1.1819    3.6113 C   0  0  0  0  0  0  0  0  0  0  0  0
    6.7880    2.2948    2.3660 S   0  0  0  0  0  0  0  0  0  0  0  0
    5.6669   -0.0951    6.9108 C   0  0  0  0  0  0  0  0  0  0  0  0
    6.1077   -1.2392    7.5718 C   0  0  0  0  0  0  0  0  0  0  0  0
    7.3143   -1.9667    6.6542 S   0  0  0  0  0  0  0  0  0  0  0  0
   -1.1235   -7.7788    8.8774 H   0  0  0  0  0  0  0  0  0  0  0  0
    0.4743   -7.9129    6.8379 H   0  0  0  0  0  0  0  0  0  0  0  0
    4.2090  -10.0698    2.8360 H   0  0  0  0  0  0  0  0  0  0  0  0
    5.2133   -8.7257    3.4799 H   0  0  0  0  0  0  0  0  0  0  0  0
    3.6907   -8.6999    0.7910 H   0  0  0  0  0  0  0  0  0  0  0  0
    4.7782   -7.3894    1.4212 H   0  0  0  0  0  0  0  0  0  0  0  0
    5.4526   -9.0144    1.0067 H   0  0  0  0  0  0  0  0  0  0  0  0
   -9.3742   -5.6981    4.8686 H   0  0  0  0  0  0  0  0  0  0  0  0
   -8.4536   -4.5316    3.8642 H   0  0  0  0  0  0  0  0  0  0  0  0
   -9.3302   -3.5447    6.0348 H   0  0  0  0  0  0  0  0  0  0  0  0
   -7.5398   -3.4169    5.8560 H   0  0  0  0  0  0  0  0  0  0  0  0
   -8.2454   -4.6777    6.9469 H   0  0  0  0  0  0  0  0  0  0  0  0
   -4.6498   -6.8934    1.9916 H   0  0  0  0  0  0  0  0  0  0  0  0
   -1.3447   -6.1230   -1.3764 H   0  0  0  0  0  0  0  0  0  0  0  0
    3.2341   -4.3598   -4.3793 H   0  0  0  0  0  0  0  0  0  0  0  0
    2.6309   -5.9028   -5.1003 H   0  0  0  0  0  0  0  0  0  0  0  0
    3.1495   -5.4639   -2.0830 H   0  0  0  0  0  0  0  0  0  0  0  0
    2.6655   -7.0126   -2.9134 H   0  0  0  0  0  0  0  0  0  0  0  0
    4.2774   -6.2866   -3.2500 H   0  0  0  0  0  0  0  0  0  0  0  0
  -10.4680   -7.1698   -1.2676 H   0  0  0  0  0  0  0  0  0  0  0  0
  -10.8724   -5.6254   -0.4468 H   0  0  0  0  0  0  0  0  0  0  0  0
  -11.4950   -4.6894   -2.8034 H   0  0  0  0  0  0  0  0  0  0  0  0
  -12.5894   -5.9216   -2.0960 H   0  0  0  0  0  0  0  0  0  0  0  0
  -11.4004   -6.4049   -3.3862 H   0  0  0  0  0  0  0  0  0  0  0  0
   -6.8351   -3.4503   -4.9706 H   0  0  0  0  0  0  0  0  0  0  0  0
   -3.6851   -1.0931   -7.7724 H   0  0  0  0  0  0  0  0  0  0  0  0
    0.9871    1.9268  -10.8984 H   0  0  0  0  0  0  0  0  0  0  0  0
    1.4797    2.2118   -9.1976 H   0  0  0  0  0  0  0  0  0  0  0  0
    1.6195   -0.2348   -8.7810 H   0  0  0  0  0  0  0  0  0  0  0  0
    1.0450   -0.5687  -10.4790 H   0  0  0  0  0  0  0  0  0  0  0  0
    2.6410    0.2131  -10.1951 H   0  0  0  0  0  0  0  0  0  0  0  0
   -9.9068    2.0734   -0.9333 H   0  0  0  0  0  0  0  0  0  0  0  0
   -8.2350    2.4831   -0.3584 H   0  0  0  0  0  0  0  0  0  0  0  0
   -9.7811    4.2900    0.2838 H   0  0  0  0  0  0  0  0  0  0  0  0
   -8.5592    4.8916   -0.9005 H   0  0  0  0  0  0  0  0  0  0  0  0
  -10.2566    4.5462   -1.4430 H   0  0  0  0  0  0  0  0  0  0  0  0
   -5.3302    4.3741   -3.8462 H   0  0  0  0  0  0  0  0  0  0  0  0
   -2.0296    6.9458   -3.6141 H   0  0  0  0  0  0  0  0  0  0  0  0
   -1.1271   11.5767   -4.6416 H   0  0  0  0  0  0  0  0  0  0  0  0
   -1.4770   11.8035   -2.8912 H   0  0  0  0  0  0  0  0  0  0  0  0
    1.0786   12.5667   -4.4140 H   0  0  0  0  0  0  0  0  0  0  0  0
   -0.0658   13.6462   -3.5810 H   0  0  0  0  0  0  0  0  0  0  0  0
    0.9799   12.5442   -2.5973 H   0  0  0  0  0  0  0  0  0  0  0  0
    1.2557    0.5837    3.5394 H   0  0  0  0  0  0  0  0  0  0  0  0
   -0.4401    0.0917    3.8680 H   0  0  0  0  0  0  0  0  0  0  0  0
    0.3769    2.9791    4.5409 H   0  0  0  0  0  0  0  0  0  0  0  0
   -0.8362    1.9169    5.3310 H   0  0  0  0  0  0  0  0  0  0  0  0
    0.9146    1.6362    5.6142 H   0  0  0  0  0  0  0  0  0  0  0  0
    2.7757    3.1281   -0.2384 H   0  0  0  0  0  0  0  0  0  0  0  0
    5.1229    2.8322   -0.3544 H   0  0  0  0  0  0  0  0  0  0  0  0
    5.7934    6.6628    0.7665 H   0  0  0  0  0  0  0  0  0  0  0  0
    5.1722    6.7786   -2.1222 H   0  0  0  0  0  0  0  0  0  0  0  0
    5.9288    8.0652   -1.0784 H   0  0  0  0  0  0  0  0  0  0  0  0
    7.6713    7.7547   -2.6166 H   0  0  0  0  0  0  0  0  0  0  0  0
    7.2156    6.0297   -2.9407 H   0  0  0  0  0  0  0  0  0  0  0  0
    8.4371    3.2240   -1.6031 H   0  0  0  0  0  0  0  0  0  0  0  0
    9.1340    1.3247   -0.4294 H   0  0  0  0  0  0  0  0  0  0  0  0
    9.1999   -0.2211    1.6734 H   0  0  0  0  0  0  0  0  0  0  0  0
   12.3686   -4.6330    2.4010 H   0  0  0  0  0  0  0  0  0  0  0  0
   10.9213   -4.8030    1.3463 H   0  0  0  0  0  0  0  0  0  0  0  0
   11.5440   -6.9180    2.6091 H   0  0  0  0  0  0  0  0  0  0  0  0
    9.8587   -6.3369    2.9627 H   0  0  0  0  0  0  0  0  0  0  0  0
   11.1973   -6.0724    4.1568 H   0  0  0  0  0  0  0  0  0  0  0  0
    1.8699    4.6947    3.5717 H   0  0  0  0  0  0  0  0  0  0  0  0
    1.5573    5.0945    5.2946 H   0  0  0  0  0  0  0  0  0  0  0  0
    3.7242    6.4567    3.5560 H   0  0  0  0  0  0  0  0  0  0  0  0
    2.0511    7.1017    3.7842 H   0  0  0  0  0  0  0  0  0  0  0  0
    3.1551    6.9628    5.1907 H   0  0  0  0  0  0  0  0  0  0  0  0
    4.8699    0.5274    7.3006 H   0  0  0  0  0  0  0  0  0  0  0  0
    5.7139   -1.6031    8.5150 H   0  0  0  0  0  0  0  0  0  0  0  0
  1  2  2  0
  2  3  1  0
  3  4  2  0
  4  5  1  0
  5  6  1  0
  6  7  1  0
  7  8  1  0
  8  9  1  0
  7 10  2  0
 10 11  1  0
 10 12  1  0
 12 13  1  0
  4 14  1  0
 14 15  2  0
 15 16  1  0
 16 17  1  0
 17 18  1  0
 18 19  1  0
 19 20  1  0
 20 21  1  0
 19 22  2  0
 22 23  1  0
 23 24  1  0
 22 25  1  0
 16 26  2  0
 26 27  1  0
 15 28  1  0
 28 29  2  0
 29 30  1  0
 29 31  1  0
 31 32  2  0
 32 33  1  0
 33 34  2  0
 34 35  1  0
 35 36  1  0
 36 37  1  0
 37 38  1  0
 38 39  1  0
 37 40  2  0
 40 41  1  0
 40 42  1  0
 42 43  1  0
 34 44  1  0
 44 45  2  0
 45 46  1  0
 46 47  1  0
 47 48  1  0
 48 49  1  0
 49 50  1  0
 50 51  1  0
 49 52  2  0
 52 53  1  0
 53 54  1  0
 52 55  1  0
 46 56  2  0
 56 57  1  0
 45 58  1  0
 58 59  2  0
 59 60  1  0
 59 61  1  0
 61 62  2  0
 62 63  1  0
 63 64  2  0
 64 65  1  0
 65 66  1  0
 66 67  1  0
 67 68  1  0
 68 69  1  0
 67 70  2  0
 70 71  1  0
 70 72  1  0
 72 73  1  0
 64 74  1  0
 74 75  2  0
 75 76  1  0
 76 77  1  0
 77 78  1  0
 78 79  1  0
 79 80  1  0
 80 81  1  0
 79 82  2  0
 82 83  1  0
 83 84  1  0
 82 85  1  0
 76 86  2  0
 86 87  1  0
 75 88  1  0
 88 89  2  0
 89 90  1  0
 89 91  1  0
 91 92  2  0
 92 93  1  0
 93 94  2  0
 94 95  1  0
 95 96  1  0
 96 97  1  0
 97 98  1  0
 98 99  1  0
 97100  2  0
100101  1  0
100102  1  0
102103  1  0
 94104  1  0
104105  2  0
105106  1  0
106107  1  0
107108  1  0
108109  1  0
109110  1  0
110111  1  0
109112  2  0
112113  1  0
113114  1  0
112115  1  0
106116  2  0
116117  1  0
105118  1  0
118119  2  0
119120  1  0
119121  1  0
121122  2  0
122123  1  0
123124  2  0
124125  1  0
125126  1  0
126127  1  0
127128  1  0
123129  1  0
129130  2  3
130131  1  0
131132  2  0
132133  1  0
133134  2  0
134135  1  0
135136  1  0
136137  1  0
137138  1  0
138139  1  0
137140  2  0
140141  1  0
140142  1  0
142143  1  0
134144  1  0
144145  2  0
145146  1  0
146147  1  0
147148  1  0
148149  1  0
149150  1  0
150151  1  0
149152  2  0
152153  1  0
153154  1  0
152155  1  0
146156  2  0
156157  1  0
145158  1  0
158159  2  0
159160  1  0
 27  1  1  0
 57 31  1  0
 87 61  1  0
117 91  1  0
125121  1  0
157131  1  0
 26  3  1  0
 56 33  1  0
 86 63  1  0
116 93  1  0
128124  1  0
156133  1  0
 12  5  2  0
 30 14  1  0
 42 35  2  0
 60 44  1  0
 72 65  2  0
 90 74  1  0
102 95  2  0
120104  1  0
142135  2  0
160144  1  0
 23 17  2  0
 53 47  2  0
 83 77  2  0
113107  2  0
153147  2  0
  1161  1  0
  2162  1  0
  8163  1  0
  8164  1  0
  9165  1  0
  9166  1  0
  9167  1  0
 20168  1  0
 20169  1  0
 21170  1  0
 21171  1  0
 21172  1  0
 28173  1  0
 32174  1  0
 38175  1  0
 38176  1  0
 39177  1  0
 39178  1  0
 39179  1  0
 50180  1  0
 50181  1  0
 51182  1  0
 51183  1  0
 51184  1  0
 58185  1  0
 62186  1  0
 68187  1  0
 68188  1  0
 69189  1  0
 69190  1  0
 69191  1  0
 80192  1  0
 80193  1  0
 81194  1  0
 81195  1  0
 81196  1  0
 88197  1  0
 92198  1  0
 98199  1  0
 98200  1  0
 99201  1  0
 99202  1  0
 99203  1  0
110204  1  0
110205  1  0
111206  1  0
111207  1  0
111208  1  0
118209  1  0
122210  1  0
125211  1  1
126212  1  0
126213  1  0
127214  1  0
127215  1  0
129216  1  0
130217  1  0
132218  1  0
138219  1  0
138220  1  0
139221  1  0
139222  1  0
139223  1  0
150224  1  0
150225  1  0
151226  1  0
151227  1  0
151228  1  0
158229  1  0
159230  1  0
M  END

