
     RDKit          3D

226252  0  0  0  0  0  0  0  0999 V2000
    0.4223   -8.4184   11.1392 C   0  0  0  0  0  0  0  0  0  0  0  0
    1.2775   -8.5109   10.0448 C   0  0  0  0  0  0  0  0  0  0  0  0
    0.6651   -8.1467    8.8335 C   0  0  0  0  0  0  0  0  0  0  0  0
    1.2624   -8.1606    7.5573 C   0  0  0  0  0  0  0  0  0  0  0  0
    2.6726   -8.5366    7.3586 C   0  0  0  0  0  0  0  0  0  0  0  0
    3.1911   -9.8874    6.5019 S   0  0  0  0  0  0  0  0  0  0  0  0
    4.8375   -9.5961    6.6880 C   0  0  0  0  0  0  0  0  0  0  0  0
    5.9217  -10.4305    6.0798 C   0  0  0  0  0  0  0  0  0  0  0  0
    6.2995   -9.9034    4.6993 C   0  0  0  0  0  0  0  0  0  0  0  0
    5.0024   -8.4111    7.4049 C   0  0  0  0  0  0  0  0  0  0  0  0
    6.5719   -7.7078    7.7711 Cl  0  0  0  0  0  0  0  0  0  0  0  0
    3.7872   -7.8204    7.7853 C   0  0  0  0  0  0  0  0  0  0  0  0
    3.6835   -6.2932    8.6522 Cl  0  0  0  0  0  0  0  0  0  0  0  0
    0.4523   -7.8005    6.4702 C   0  0  0  0  0  0  0  0  0  0  0  0
   -0.8888   -7.4329    6.6180 C   0  0  0  0  0  0  0  0  0  0  0  0
   -1.4858   -7.4094    7.8968 C   0  0  0  0  0  0  0  0  0  0  0  0
   -2.8850   -6.9981    8.1015 C   0  0  0  0  0  0  0  0  0  0  0  0
   -3.3622   -5.6235    8.9450 S   0  0  0  0  0  0  0  0  0  0  0  0
   -5.0163   -5.8419    8.7220 C   0  0  0  0  0  0  0  0  0  0  0  0
   -6.0674   -4.8762    9.1756 C   0  0  0  0  0  0  0  0  0  0  0  0
   -6.3187   -3.8137    8.1114 C   0  0  0  0  0  0  0  0  0  0  0  0
   -5.2155   -6.9937    7.9647 C   0  0  0  0  0  0  0  0  0  0  0  0
   -4.0215   -7.6482    7.6222 C   0  0  0  0  0  0  0  0  0  0  0  0
   -3.9684   -9.1532    6.7137 Cl  0  0  0  0  0  0  0  0  0  0  0  0
   -6.8011   -7.5717    7.4739 Cl  0  0  0  0  0  0  0  0  0  0  0  0
   -0.6733   -7.7718    8.9845 C   0  0  0  0  0  0  0  0  0  0  0  0
   -1.0918   -7.8946   10.6096 S   0  0  0  0  0  0  0  0  0  0  0  0
   -1.5001   -7.0776    5.4040 C   0  0  0  0  0  0  0  0  0  0  0  0
   -0.6363   -7.1685    4.3139 C   0  0  0  0  0  0  0  0  0  0  0  0
    0.8818   -7.6762    4.8481 S   0  0  0  0  0  0  0  0  0  0  0  0
   -0.9825   -6.8622    2.9170 C   0  0  0  0  0  0  0  0  0  0  0  0
   -0.0768   -6.7366    1.8644 C   0  0  0  0  0  0  0  0  0  0  0  0
   -0.6945   -6.4013    0.6477 C   0  0  0  0  0  0  0  0  0  0  0  0
   -0.0430   -6.1392   -0.5767 C   0  0  0  0  0  0  0  0  0  0  0  0
    1.4266   -6.1367   -0.6928 C   0  0  0  0  0  0  0  0  0  0  0  0
    2.3167   -7.1718   -1.6757 S   0  0  0  0  0  0  0  0  0  0  0  0
    3.8290   -6.5631   -1.2589 C   0  0  0  0  0  0  0  0  0  0  0  0
    5.1326   -7.1296   -1.7323 C   0  0  0  0  0  0  0  0  0  0  0  0
    5.6600   -8.1662   -0.7452 C   0  0  0  0  0  0  0  0  0  0  0  0
    3.6551   -5.5414   -0.3258 C   0  0  0  0  0  0  0  0  0  0  0  0
    4.9865   -4.6431    0.3880 Cl  0  0  0  0  0  0  0  0  0  0  0  0
    2.3088   -5.2998   -0.0107 C   0  0  0  0  0  0  0  0  0  0  0  0
    1.7950   -4.0583    1.1245 Cl  0  0  0  0  0  0  0  0  0  0  0  0
   -0.8610   -5.8346   -1.6797 C   0  0  0  0  0  0  0  0  0  0  0  0
   -2.2542   -5.7492   -1.5829 C   0  0  0  0  0  0  0  0  0  0  0  0
   -2.9016   -5.9800   -0.3519 C   0  0  0  0  0  0  0  0  0  0  0  0
   -4.3642   -5.8775   -0.1993 C   0  0  0  0  0  0  0  0  0  0  0  0
   -5.3695   -7.1562    0.2260 S   0  0  0  0  0  0  0  0  0  0  0  0
   -6.7940   -6.2622    0.2572 C   0  0  0  0  0  0  0  0  0  0  0  0
   -8.1503   -6.8408    0.5160 C   0  0  0  0  0  0  0  0  0  0  0  0
   -8.7580   -7.3729   -0.7758 C   0  0  0  0  0  0  0  0  0  0  0  0
   -6.5005   -4.9420   -0.0838 C   0  0  0  0  0  0  0  0  0  0  0  0
   -5.1339   -4.7235   -0.3278 C   0  0  0  0  0  0  0  0  0  0  0  0
   -4.4634   -3.1427   -0.7026 Cl  0  0  0  0  0  0  0  0  0  0  0  0
   -7.7122   -3.6734   -0.1921 Cl  0  0  0  0  0  0  0  0  0  0  0  0
   -2.0868   -6.3110    0.7428 C   0  0  0  0  0  0  0  0  0  0  0  0
   -2.5458   -6.5930    2.3372 S   0  0  0  0  0  0  0  0  0  0  0  0
   -2.8701   -5.3819   -2.7918 C   0  0  0  0  0  0  0  0  0  0  0  0
   -1.9628   -5.1854   -3.8337 C   0  0  0  0  0  0  0  0  0  0  0  0
   -0.3972   -5.4199   -3.2442 S   0  0  0  0  0  0  0  0  0  0  0  0
   -2.2831   -4.5485   -5.1203 C   0  0  0  0  0  0  0  0  0  0  0  0
   -1.5598   -3.1001   -5.5788 S   0  0  0  0  0  0  0  0  0  0  0  0
   -2.6494   -2.6644   -6.7785 C   0  0  0  0  0  0  0  0  0  0  0  0
   -3.6249   -3.6624   -6.8382 C   0  0  0  0  0  0  0  0  0  0  0  0
   -3.4160   -4.7334   -5.9339 C   0  0  0  0  0  0  0  0  0  0  0  0
   -4.2943   -5.8415   -5.9485 C   0  0  0  0  0  0  0  0  0  0  0  0
   -3.9835   -7.3539   -5.0356 S   0  0  0  0  0  0  0  0  0  0  0  0
   -5.4062   -5.8147   -6.8040 C   0  0  0  0  0  0  0  0  0  0  0  0
   -5.6268   -4.7307   -7.6617 C   0  0  0  0  0  0  0  0  0  0  0  0
   -4.7296   -3.6604   -7.6961 C   0  0  0  0  0  0  0  0  0  0  0  0
   -2.7217   -1.3026   -7.3369 C   0  0  0  0  0  0  0  0  0  0  0  0
   -1.6166   -0.4717   -7.5270 C   0  0  0  0  0  0  0  0  0  0  0  0
   -1.9507    0.8942   -7.5856 C   0  0  0  0  0  0  0  0  0  0  0  0
   -1.0442    1.9735   -7.6245 C   0  0  0  0  0  0  0  0  0  0  0  0
    0.4141    1.7727   -7.7319 C   0  0  0  0  0  0  0  0  0  0  0  0
    1.3750    0.9801   -6.5993 S   0  0  0  0  0  0  0  0  0  0  0  0
    2.8360    1.2241   -7.3989 C   0  0  0  0  0  0  0  0  0  0  0  0
    4.1577    0.6779   -6.9486 C   0  0  0  0  0  0  0  0  0  0  0  0
    4.3892   -0.7144   -7.5251 C   0  0  0  0  0  0  0  0  0  0  0  0
    2.5888    1.9326   -8.5739 C   0  0  0  0  0  0  0  0  0  0  0  0
    3.8415    2.3655   -9.7291 Cl  0  0  0  0  0  0  0  0  0  0  0  0
    1.2324    2.2536   -8.7521 C   0  0  0  0  0  0  0  0  0  0  0  0
    0.6224    3.1370  -10.1463 Cl  0  0  0  0  0  0  0  0  0  0  0  0
   -1.5766    3.2548   -7.4077 C   0  0  0  0  0  0  0  0  0  0  0  0
   -2.9416    3.4787   -7.2046 C   0  0  0  0  0  0  0  0  0  0  0  0
   -3.8653    2.4180   -7.3022 C   0  0  0  0  0  0  0  0  0  0  0  0
   -5.3159    2.6404   -7.1242 C   0  0  0  0  0  0  0  0  0  0  0  0
   -6.2872    1.8768   -5.9781 S   0  0  0  0  0  0  0  0  0  0  0  0
   -7.7186    2.6512   -6.4020 C   0  0  0  0  0  0  0  0  0  0  0  0
   -9.0633    2.3317   -5.8207 C   0  0  0  0  0  0  0  0  0  0  0  0
   -9.7374    1.2168   -6.6119 C   0  0  0  0  0  0  0  0  0  0  0  0
   -7.4591    3.5160   -7.4650 C   0  0  0  0  0  0  0  0  0  0  0  0
   -6.1134    3.5148   -7.8654 C   0  0  0  0  0  0  0  0  0  0  0  0
   -5.5108    4.4813   -9.2066 Cl  0  0  0  0  0  0  0  0  0  0  0  0
   -8.6934    4.4943   -8.2448 Cl  0  0  0  0  0  0  0  0  0  0  0  0
   -3.3260    1.1278   -7.4582 C   0  0  0  0  0  0  0  0  0  0  0  0
   -4.1111   -0.3475   -7.2784 S   0  0  0  0  0  0  0  0  0  0  0  0
   -3.2193    4.7455   -6.6614 C   0  0  0  0  0  0  0  0  0  0  0  0
   -2.0764    5.5043   -6.4029 C   0  0  0  0  0  0  0  0  0  0  0  0
   -0.7327    4.6228   -6.9223 S   0  0  0  0  0  0  0  0  0  0  0  0
   -1.9696    6.3879   -5.2355 C   0  0  0  0  0  0  0  0  0  0  0  0
   -2.4125    5.9648   -3.9784 C   0  0  0  0  0  0  0  0  0  0  0  0
   -1.6754    6.5028   -2.9164 C   0  0  0  0  0  0  0  0  0  0  0  0
   -1.7025    6.0451   -1.5820 C   0  0  0  0  0  0  0  0  0  0  0  0
   -2.5966    4.9551   -1.1368 C   0  0  0  0  0  0  0  0  0  0  0  0
   -2.5640    3.3782   -1.7282 S   0  0  0  0  0  0  0  0  0  0  0  0
   -3.6998    2.7539   -0.6560 C   0  0  0  0  0  0  0  0  0  0  0  0
   -4.0932    1.3084   -0.5678 C   0  0  0  0  0  0  0  0  0  0  0  0
   -3.1575    0.5537    0.3706 C   0  0  0  0  0  0  0  0  0  0  0  0
   -4.0961    3.7709    0.2123 C   0  0  0  0  0  0  0  0  0  0  0  0
   -5.2219    3.5303    1.5385 Cl  0  0  0  0  0  0  0  0  0  0  0  0
   -3.4766    5.0034   -0.0587 C   0  0  0  0  0  0  0  0  0  0  0  0
   -3.7871    6.4618    0.8754 Cl  0  0  0  0  0  0  0  0  0  0  0  0
   -0.6946    6.5270   -0.7312 C   0  0  0  0  0  0  0  0  0  0  0  0
    0.2572    7.4676   -1.1408 C   0  0  0  0  0  0  0  0  0  0  0  0
    0.2382    7.9712   -2.4547 C   0  0  0  0  0  0  0  0  0  0  0  0
    1.2727    8.8981   -2.9325 C   0  0  0  0  0  0  0  0  0  0  0  0
    1.2993   10.5439   -2.6051 S   0  0  0  0  0  0  0  0  0  0  0  0
    2.7552   10.8595   -3.3931 C   0  0  0  0  0  0  0  0  0  0  0  0
    3.4276   12.2034   -3.4372 C   0  0  0  0  0  0  0  0  0  0  0  0
    2.5150   13.2613   -4.0530 C   0  0  0  0  0  0  0  0  0  0  0  0
    3.2529    9.6586   -3.8997 C   0  0  0  0  0  0  0  0  0  0  0  0
    2.4169    8.5587   -3.6435 C   0  0  0  0  0  0  0  0  0  0  0  0
    2.8104    6.9084   -4.1099 Cl  0  0  0  0  0  0  0  0  0  0  0  0
    4.7934    9.5113   -4.7331 Cl  0  0  0  0  0  0  0  0  0  0  0  0
   -0.7176    7.4324   -3.3315 C   0  0  0  0  0  0  0  0  0  0  0  0
   -0.7220    7.5079   -5.0150 S   0  0  0  0  0  0  0  0  0  0  0  0
    1.3075    7.6289   -0.2212 C   0  0  0  0  0  0  0  0  0  0  0  0
    1.2017    6.7820    0.8786 C   0  0  0  0  0  0  0  0  0  0  0  0
   -0.1980    5.8568    0.7273 S   0  0  0  0  0  0  0  0  0  0  0  0
    2.3608    6.3321    1.6455 C   0  0  0  0  0  0  0  0  0  0  0  0
    2.9888    5.1090    1.4360 C   0  0  0  0  0  0  0  0  0  0  0  0
    4.1783    4.9796    2.1601 C   0  0  0  0  0  0  0  0  0  0  0  0
    5.0501    3.8736    2.1285 C   0  0  0  0  0  0  0  0  0  0  0  0
    4.8445    2.7475    1.1998 C   0  0  0  0  0  0  0  0  0  0  0  0
    4.4954    1.1652    1.6544 S   0  0  0  0  0  0  0  0  0  0  0  0
    4.4283    0.5420    0.0910 C   0  0  0  0  0  0  0  0  0  0  0  0
    4.0784   -0.8739   -0.2521 C   0  0  0  0  0  0  0  0  0  0  0  0
    2.6035   -0.9901   -0.6239 C   0  0  0  0  0  0  0  0  0  0  0  0
    4.6705    1.5746   -0.8131 C   0  0  0  0  0  0  0  0  0  0  0  0
    4.6797    1.3547   -2.5582 Cl  0  0  0  0  0  0  0  0  0  0  0  0
    4.9065    2.8110   -0.1923 C   0  0  0  0  0  0  0  0  0  0  0  0
    5.2727    4.2840   -1.0821 Cl  0  0  0  0  0  0  0  0  0  0  0  0
    6.1754    3.9326    2.9634 C   0  0  0  0  0  0  0  0  0  0  0  0
    6.4568    5.0379    3.7743 C   0  0  0  0  0  0  0  0  0  0  0  0
    5.5996    6.1597    3.7789 C   0  0  0  0  0  0  0  0  0  0  0  0
    5.8695    7.3355    4.6225 C   0  0  0  0  0  0  0  0  0  0  0  0
    5.8674    7.3246    6.3052 S   0  0  0  0  0  0  0  0  0  0  0  0
    6.2813    8.9452    6.4924 C   0  0  0  0  0  0  0  0  0  0  0  0
    6.4127    9.6433    7.8123 C   0  0  0  0  0  0  0  0  0  0  0  0
    5.0924   10.2879    8.2153 C   0  0  0  0  0  0  0  0  0  0  0  0
    6.4065    9.5240    5.2301 C   0  0  0  0  0  0  0  0  0  0  0  0
    6.1846    8.6192    4.1795 C   0  0  0  0  0  0  0  0  0  0  0  0
    6.3390    9.0486    2.4811 Cl  0  0  0  0  0  0  0  0  0  0  0  0
    6.8092   11.2168    4.9761 Cl  0  0  0  0  0  0  0  0  0  0  0  0
    4.4645    6.0961    2.9532 C   0  0  0  0  0  0  0  0  0  0  0  0
    3.2666    7.2626    2.7212 S   0  0  0  0  0  0  0  0  0  0  0  0
    7.6628    4.9069    4.4820 C   0  0  0  0  0  0  0  0  0  0  0  0
    8.3188    3.7059    4.2286 C   0  0  0  0  0  0  0  0  0  0  0  0
    7.4147    2.8082    3.1229 S   0  0  0  0  0  0  0  0  0  0  0  0
    0.6858   -8.6572   12.1603 H   0  0  0  0  0  0  0  0  0  0  0  0
    2.3041   -8.8367   10.1305 H   0  0  0  0  0  0  0  0  0  0  0  0
    5.5693  -11.4798    5.9857 H   0  0  0  0  0  0  0  0  0  0  0  0
    6.8164  -10.4282    6.7374 H   0  0  0  0  0  0  0  0  0  0  0  0
    6.6693   -8.8580    4.7715 H   0  0  0  0  0  0  0  0  0  0  0  0
    5.4200   -9.9380    4.0211 H   0  0  0  0  0  0  0  0  0  0  0  0
    7.1038  -10.5353    4.2690 H   0  0  0  0  0  0  0  0  0  0  0  0
   -7.0137   -5.4151    9.3937 H   0  0  0  0  0  0  0  0  0  0  0  0
   -5.7343   -4.3828   10.1136 H   0  0  0  0  0  0  0  0  0  0  0  0
   -6.6895   -4.2855    7.1760 H   0  0  0  0  0  0  0  0  0  0  0  0
   -5.3812   -3.2578    7.8948 H   0  0  0  0  0  0  0  0  0  0  0  0
   -7.0836   -3.0949    8.4732 H   0  0  0  0  0  0  0  0  0  0  0  0
   -2.5282   -6.7504    5.3209 H   0  0  0  0  0  0  0  0  0  0  0  0
    0.9905   -6.8639    1.9839 H   0  0  0  0  0  0  0  0  0  0  0  0
    5.8790   -6.3161   -1.8525 H   0  0  0  0  0  0  0  0  0  0  0  0
    4.9883   -7.6103   -2.7232 H   0  0  0  0  0  0  0  0  0  0  0  0
    4.9377   -9.0050   -0.6443 H   0  0  0  0  0  0  0  0  0  0  0  0
    5.8240   -7.7008    0.2501 H   0  0  0  0  0  0  0  0  0  0  0  0
    6.6285   -8.5678   -1.1102 H   0  0  0  0  0  0  0  0  0  0  0  0
   -8.8198   -6.0717    0.9555 H   0  0  0  0  0  0  0  0  0  0  0  0
   -8.0601   -7.6739    1.2480 H   0  0  0  0  0  0  0  0  0  0  0  0
   -8.8831   -6.5489   -1.5107 H   0  0  0  0  0  0  0  0  0  0  0  0
   -9.7534   -7.8158   -0.5658 H   0  0  0  0  0  0  0  0  0  0  0  0
   -8.1033   -8.1572   -1.2113 H   0  0  0  0  0  0  0  0  0  0  0  0
   -3.9345   -5.2137   -2.8996 H   0  0  0  0  0  0  0  0  0  0  0  0
   -3.2275   -7.9004   -6.0926 H   0  0  0  0  0  0  0  0  0  0  0  0
   -6.0896   -6.6548   -6.8312 H   0  0  0  0  0  0  0  0  0  0  0  0
   -6.4812   -4.7364   -8.3253 H   0  0  0  0  0  0  0  0  0  0  0  0
   -4.8924   -2.8553   -8.3989 H   0  0  0  0  0  0  0  0  0  0  0  0
   -0.6009   -0.8441   -7.5263 H   0  0  0  0  0  0  0  0  0  0  0  0
    4.9789    1.3511   -7.2716 H   0  0  0  0  0  0  0  0  0  0  0  0
    4.1741    0.6209   -5.8393 H   0  0  0  0  0  0  0  0  0  0  0  0
    5.3730   -1.0975   -7.1824 H   0  0  0  0  0  0  0  0  0  0  0  0
    3.5967   -1.4098   -7.1787 H   0  0  0  0  0  0  0  0  0  0  0  0
    4.3901   -0.6770   -8.6352 H   0  0  0  0  0  0  0  0  0  0  0  0
   -9.7070    3.2383   -5.8265 H   0  0  0  0  0  0  0  0  0  0  0  0
   -8.9407    2.0088   -4.7643 H   0  0  0  0  0  0  0  0  0  0  0  0
  -10.7340    0.9990   -6.1746 H   0  0  0  0  0  0  0  0  0  0  0  0
   -9.1213    0.2939   -6.5767 H   0  0  0  0  0  0  0  0  0  0  0  0
   -9.8721    1.5259   -7.6697 H   0  0  0  0  0  0  0  0  0  0  0  0
   -4.1948    5.0235   -6.2832 H   0  0  0  0  0  0  0  0  0  0  0  0
   -3.1270    5.1636   -3.8564 H   0  0  0  0  0  0  0  0  0  0  0  0
   -5.1376    1.2220   -0.1992 H   0  0  0  0  0  0  0  0  0  0  0  0
   -4.0496    0.8503   -1.5795 H   0  0  0  0  0  0  0  0  0  0  0  0
   -2.1393    0.4961   -0.0698 H   0  0  0  0  0  0  0  0  0  0  0  0
   -3.5383   -0.4761    0.5311 H   0  0  0  0  0  0  0  0  0  0  0  0
   -3.1003    1.0644    1.3554 H   0  0  0  0  0  0  0  0  0  0  0  0
    4.3635   12.1557   -4.0308 H   0  0  0  0  0  0  0  0  0  0  0  0
    3.6956   12.5042   -2.4023 H   0  0  0  0  0  0  0  0  0  0  0  0
    3.0589   14.2266   -4.1173 H   0  0  0  0  0  0  0  0  0  0  0  0
    1.6116   13.4063   -3.4239 H   0  0  0  0  0  0  0  0  0  0  0  0
    2.2077   12.9550   -5.0768 H   0  0  0  0  0  0  0  0  0  0  0  0
    2.1965    8.2118   -0.4263 H   0  0  0  0  0  0  0  0  0  0  0  0
    2.6101    4.3591    0.7531 H   0  0  0  0  0  0  0  0  0  0  0  0
    4.2916   -1.5323    0.6169 H   0  0  0  0  0  0  0  0  0  0  0  0
    4.7039   -1.2167   -1.1025 H   0  0  0  0  0  0  0  0  0  0  0  0
    2.3836   -2.0309   -0.9400 H   0  0  0  0  0  0  0  0  0  0  0  0
    1.9665   -0.7353    0.2510 H   0  0  0  0  0  0  0  0  0  0  0  0
    2.3582   -0.3091   -1.4678 H   0  0  0  0  0  0  0  0  0  0  0  0
    6.7112    8.9084    8.5896 H   0  0  0  0  0  0  0  0  0  0  0  0
    7.2061   10.4186    7.7550 H   0  0  0  0  0  0  0  0  0  0  0  0
    4.7880   11.0480    7.4642 H   0  0  0  0  0  0  0  0  0  0  0  0
    5.2085   10.7899    9.1980 H   0  0  0  0  0  0  0  0  0  0  0  0
    4.2961    9.5182    8.2988 H   0  0  0  0  0  0  0  0  0  0  0  0
    8.0676    5.6625    5.1410 H   0  0  0  0  0  0  0  0  0  0  0  0
    9.2658    3.4073    4.6588 H   0  0  0  0  0  0  0  0  0  0  0  0
  1  2  2  0
  2  3  1  0
  3  4  2  0
  4  5  1  0
  5  6  1  0
  6  7  1  0
  7  8  1  0
  8  9  1  0
  7 10  2  0
 10 11  1  0
 10 12  1  0
 12 13  1  0
  4 14  1  0
 14 15  2  0
 15 16  1  0
 16 17  1  0
 17 18  1  0
 18 19  1  0
 19 20  1  0
 20 21  1  0
 19 22  2  0
 22 23  1  0
 23 24  1  0
 22 25  1  0
 16 26  2  0
 26 27  1  0
 15 28  1  0
 28 29  2  0
 29 30  1  0
 29 31  1  0
 31 32  2  0
 32 33  1  0
 33 34  2  0
 34 35  1  0
 35 36  1  0
 36 37  1  0
 37 38  1  0
 38 39  1  0
 37 40  2  0
 40 41  1  0
 40 42  1  0
 42 43  1  0
 34 44  1  0
 44 45  2  0
 45 46  1  0
 46 47  1  0
 47 48  1  0
 48 49  1  0
 49 50  1  0
 50 51  1  0
 49 52  2  0
 52 53  1  0
 53 54  1  0
 52 55  1  0
 46 56  2  0
 56 57  1  0
 45 58  1  0
 58 59  2  0
 59 60  1  0
 59 61  1  0
 61 62  1  0
 62 63  1  0
 63 64  2  0
 64 65  1  0
 65 66  1  0
 66 67  1  0
 66 68  2  0
 68 69  1  0
 69 70  2  0
 63 71  1  0
 71 72  2  0
 72 73  1  0
 73 74  2  0
 74 75  1  0
 75 76  1  0
 76 77  1  0
 77 78  1  0
 78 79  1  0
 77 80  2  0
 80 81  1  0
 80 82  1  0
 82 83  1  0
 74 84  1  0
 84 85  2  0
 85 86  1  0
 86 87  1  0
 87 88  1  0
 88 89  1  0
 89 90  1  0
 90 91  1  0
 89 92  2  0
 92 93  1  0
 93 94  1  0
 92 95  1  0
 86 96  2  0
 96 97  1  0
 85 98  1  0
 98 99  2  0
 99100  1  0
 99101  1  0
101102  2  0
102103  1  0
103104  2  0
104105  1  0
105106  1  0
106107  1  0
107108  1  0
108109  1  0
107110  2  0
110111  1  0
110112  1  0
112113  1  0
104114  1  0
114115  2  0
115116  1  0
116117  1  0
117118  1  0
118119  1  0
119120  1  0
120121  1  0
119122  2  0
122123  1  0
123124  1  0
122125  1  0
116126  2  0
126127  1  0
115128  1  0
128129  2  0
129130  1  0
129131  1  0
131132  2  0
132133  1  0
133134  2  0
134135  1  0
135136  1  0
136137  1  0
137138  1  0
138139  1  0
137140  2  0
140141  1  0
140142  1  0
142143  1  0
134144  1  0
144145  2  0
145146  1  0
146147  1  0
147148  1  0
148149  1  0
149150  1  0
150151  1  0
149152  2  0
152153  1  0
153154  1  0
152155  1  0
146156  2  0
156157  1  0
145158  1  0
158159  2  0
159160  1  0
 27  1  1  0
 57 31  1  0
 65 61  2  0
 97 71  1  0
127101  1  0
157131  1  0
 26  3  1  0
 56 33  1  0
 70 64  1  0
 96 73  1  0
126103  1  0
156133  1  0
 12  5  2  0
 30 14  1  0
 42 35  2  0
 60 44  1  0
 82 75  2  0
100 84  1  0
112105  2  0
130114  1  0
142135  2  0
160144  1  0
 23 17  2  0
 53 47  2  0
 93 87  2  0
123117  2  0
153147  2  0
  1161  1  0
  2162  1  0
  8163  1  0
  8164  1  0
  9165  1  0
  9166  1  0
  9167  1  0
 20168  1  0
 20169  1  0
 21170  1  0
 21171  1  0
 21172  1  0
 28173  1  0
 32174  1  0
 38175  1  0
 38176  1  0
 39177  1  0
 39178  1  0
 39179  1  0
 50180  1  0
 50181  1  0
 51182  1  0
 51183  1  0
 51184  1  0
 58185  1  0
 67186  1  0
 68187  1  0
 69188  1  0
 70189  1  0
 72190  1  0
 78191  1  0
 78192  1  0
 79193  1  0
 79194  1  0
 79195  1  0
 90196  1  0
 90197  1  0
 91198  1  0
 91199  1  0
 91200  1  0
 98201  1  0
102202  1  0
108203  1  0
108204  1  0
109205  1  0
109206  1  0
109207  1  0
120208  1  0
120209  1  0
121210  1  0
121211  1  0
121212  1  0
128213  1  0
132214  1  0
138215  1  0
138216  1  0
139217  1  0
139218  1  0
139219  1  0
150220  1  0
150221  1  0
151222  1  0
151223  1  0
151224  1  0
158225  1  0
159226  1  0
M  END

