
     RDKit          3D

228253  0  0  0  0  0  0  0  0999 V2000
    9.4115   -4.2988   -9.6684 C   0  0  0  0  0  0  0  0  0  0  0  0
   10.0505   -5.8039  -10.1246 S   0  0  0  0  0  0  0  0  0  0  0  0
    8.7323   -6.6665   -9.5648 C   0  0  0  0  0  0  0  0  0  0  0  0
    8.5869   -7.9568   -8.9670 C   0  0  0  0  0  0  0  0  0  0  0  0
    7.6244   -7.9317   -8.0171 C   0  0  0  0  0  0  0  0  0  0  0  0
    8.2253   -9.0173   -7.2031 C   0  0  0  0  0  3  0  0  0  0  0  0
    9.5069   -9.3579   -8.2869 S   0  0  0  0  0  0  0  0  0  0  0  0
    6.9941   -6.5911   -7.8631 C   0  0  0  0  0  0  0  0  0  0  0  0
    7.8474   -5.8328   -8.8918 C   0  0  0  0  0  0  0  0  0  0  0  0
    8.2088   -4.4740   -8.9623 C   0  0  0  0  0  0  0  0  0  0  0  0
    7.4956   -3.3541   -8.3017 C   0  0  0  0  0  0  0  0  0  0  0  0
    6.3085   -3.4241   -7.5678 C   0  0  0  0  0  0  0  0  0  0  0  0
    5.8932   -2.1820   -7.0610 C   0  0  0  0  0  0  0  0  0  0  0  0
    4.7792   -1.9529   -6.2264 C   0  0  0  0  0  0  0  0  0  0  0  0
    3.9470   -3.0635   -5.7090 C   0  0  0  0  0  0  0  0  0  0  0  0
    3.9333   -3.3482   -4.3335 C   0  0  0  0  0  0  0  0  0  0  0  0
    3.1685   -4.4082   -3.8380 C   0  0  0  0  0  0  0  0  0  0  0  0
    2.4106   -5.1945   -4.7140 C   0  0  0  0  0  0  0  0  0  0  0  0
    1.3762   -6.5136   -4.0606 S   0  0  0  0  0  0  0  0  0  0  0  0
    2.7185   -7.7526   -3.9243 C   0  0  0  0  0  0  0  0  0  0  0  0
    2.9257   -8.1227   -2.4613 C   0  0  0  0  0  0  0  0  0  0  0  0
    2.4205   -4.9184   -6.0869 C   0  0  0  0  0  0  0  0  0  0  0  0
    1.6868   -5.6690   -6.9441 F   0  0  0  0  0  0  0  0  0  0  0  0
    3.1828   -3.8528   -6.5832 C   0  0  0  0  0  0  0  0  0  0  0  0
    4.5635   -0.6272   -5.8097 C   0  0  0  0  0  0  0  0  0  0  0  0
    5.4265    0.4220   -6.1443 C   0  0  0  0  0  0  0  0  0  0  0  0
    6.5526    0.1908   -6.9657 C   0  0  0  0  0  0  0  0  0  0  0  0
    7.5039    1.2663   -7.3271 C   0  0  0  0  0  0  0  0  0  0  0  0
    7.7495    1.5671   -8.6743 C   0  0  0  0  0  0  0  0  0  0  0  0
    8.6661    2.5643   -9.0204 C   0  0  0  0  0  0  0  0  0  0  0  0
    9.3498    3.2698   -8.0237 C   0  0  0  0  0  0  0  0  0  0  0  0
   10.5338    4.5384   -8.4823 S   0  0  0  0  0  0  0  0  0  0  0  0
   11.9261    3.3808   -8.7437 C   0  0  0  0  0  0  0  0  0  0  0  0
   12.5715    2.9841   -7.4204 C   0  0  0  0  0  0  0  0  0  0  0  0
    9.0970    2.9837   -6.6752 C   0  0  0  0  0  0  0  0  0  0  0  0
    8.1874    1.9808   -6.3294 C   0  0  0  0  0  0  0  0  0  0  0  0
    9.7329    3.6757   -5.6947 F   0  0  0  0  0  0  0  0  0  0  0  0
    6.7461   -1.1292   -7.4120 C   0  0  0  0  0  0  0  0  0  0  0  0
    8.0157   -1.7466   -8.3248 S   0  0  0  0  0  0  0  0  0  0  0  0
    5.0640    1.6394   -5.5416 C   0  0  0  0  0  0  0  0  0  0  0  0
    3.9148    1.5426   -4.7563 C   0  0  0  0  0  0  0  0  0  0  0  0
    3.3591   -0.0467   -4.7951 S   0  0  0  0  0  0  0  0  0  0  0  0
    3.5772    2.4713   -3.6756 C   0  0  0  0  0  0  0  0  0  0  0  0
    4.5027    2.8360   -2.7053 C   0  0  0  0  0  0  0  0  0  0  0  0
    3.9105    3.2454   -1.5025 C   0  0  0  0  0  0  0  0  0  0  0  0
    4.5824    3.4803   -0.2877 C   0  0  0  0  0  0  0  0  0  0  0  0
    6.0601    3.5558   -0.1841 C   0  0  0  0  0  0  0  0  0  0  0  0
    6.8769    2.4730   -0.5472 C   0  0  0  0  0  0  0  0  0  0  0  0
    8.2712    2.5844   -0.4678 C   0  0  0  0  0  0  0  0  0  0  0  0
    8.8568    3.7591    0.0117 C   0  0  0  0  0  0  0  0  0  0  0  0
   10.6432    3.8799    0.1490 S   0  0  0  0  0  0  0  0  0  0  0  0
   10.8667    4.8363   -1.3926 C   0  0  0  0  0  0  0  0  0  0  0  0
   10.9623    3.9153   -2.6005 C   0  0  0  0  0  0  0  0  0  0  0  0
    8.0451    4.8284    0.4154 C   0  0  0  0  0  0  0  0  0  0  0  0
    8.5959    5.9681    0.9046 F   0  0  0  0  0  0  0  0  0  0  0  0
    6.6567    4.7320    0.3001 C   0  0  0  0  0  0  0  0  0  0  0  0
    3.7743    3.6860    0.8427 C   0  0  0  0  0  0  0  0  0  0  0  0
    2.3804    3.7865    0.7832 C   0  0  0  0  0  0  0  0  0  0  0  0
    1.7126    3.6402   -0.4581 C   0  0  0  0  0  0  0  0  0  0  0  0
    0.2497    3.8186   -0.6008 C   0  0  0  0  0  0  0  0  0  0  0  0
   -0.6402    3.1188    0.2253 C   0  0  0  0  0  0  0  0  0  0  0  0
   -2.0181    3.2818    0.0807 C   0  0  0  0  0  0  0  0  0  0  0  0
   -2.5251    4.1637   -0.8749 C   0  0  0  0  0  0  0  0  0  0  0  0
   -4.3027    4.3617   -1.0398 S   0  0  0  0  0  0  0  0  0  0  0  0
   -4.4220    5.7743    0.1130 C   0  0  0  0  0  0  0  0  0  0  0  0
   -4.4252    5.3095    1.5651 C   0  0  0  0  0  0  0  0  0  0  0  0
   -1.6468    4.8670   -1.7099 C   0  0  0  0  0  0  0  0  0  0  0  0
   -0.2664    4.6926   -1.5732 C   0  0  0  0  0  0  0  0  0  0  0  0
   -2.1232    5.7260   -2.6470 F   0  0  0  0  0  0  0  0  0  0  0  0
    2.5151    3.3052   -1.5675 C   0  0  0  0  0  0  0  0  0  0  0  0
    2.0222    2.7454   -3.0802 S   0  0  0  0  0  0  0  0  0  0  0  0
    1.7979    4.0292    2.0481 C   0  0  0  0  0  0  0  0  0  0  0  0
    2.7287    4.0122    3.0862 C   0  0  0  0  0  0  0  0  0  0  0  0
    4.2705    3.8288    2.4331 S   0  0  0  0  0  0  0  0  0  0  0  0
    2.5097    4.3919    4.4880 C   0  0  0  0  0  0  0  0  0  0  0  0
    3.5595    5.5061    5.2298 S   0  0  0  0  0  0  0  0  0  0  0  0
    2.8356    5.4209    6.7174 C   0  0  0  0  0  0  0  0  0  0  0  0
    3.3625    5.4861    8.0428 C   0  0  0  0  0  0  0  0  0  0  0  0
    2.7218    4.6108    8.8502 C   0  0  0  0  0  0  0  0  0  0  0  0
    3.8942    4.3772    9.7294 C   0  0  0  0  0  3  0  0  0  0  0  0
    4.9107    5.5305    8.9796 S   0  0  0  0  0  0  0  0  0  0  0  0
    1.6575    3.8470    8.1398 C   0  0  0  0  0  0  0  0  0  0  0  0
    1.8762    4.4195    6.7254 C   0  0  0  0  0  0  0  0  0  0  0  0
    1.6383    3.8279    5.4578 C   0  0  0  0  0  0  0  0  0  0  0  0
    0.6501    2.7177    5.2857 C   0  0  0  0  0  0  0  0  0  0  0  0
    0.4202    1.8618    4.1885 C   0  0  0  0  0  0  0  0  0  0  0  0
   -0.6562    0.9547    4.3866 C   0  0  0  0  0  0  0  0  0  0  0  0
   -1.2085    0.0260    3.4574 C   0  0  0  0  0  0  0  0  0  0  0  0
   -0.7130   -0.1062    2.0652 C   0  0  0  0  0  0  0  0  0  0  0  0
    0.6377   -0.3855    1.8003 C   0  0  0  0  0  0  0  0  0  0  0  0
    1.0862   -0.5113    0.4795 C   0  0  0  0  0  0  0  0  0  0  0  0
    0.1903   -0.3595   -0.5856 C   0  0  0  0  0  0  0  0  0  0  0  0
    0.7738   -0.4662   -2.2759 S   0  0  0  0  0  0  0  0  0  0  0  0
    0.2335   -2.1900   -2.5309 C   0  0  0  0  0  0  0  0  0  0  0  0
    0.1929   -2.4919   -4.0217 C   0  0  0  0  0  0  0  0  0  0  0  0
   -1.1552   -0.0812   -0.3285 C   0  0  0  0  0  0  0  0  0  0  0  0
   -2.0327    0.1012   -1.3485 F   0  0  0  0  0  0  0  0  0  0  0  0
   -1.6028    0.0424    0.9876 C   0  0  0  0  0  0  0  0  0  0  0  0
   -2.3519   -0.6976    3.8845 C   0  0  0  0  0  0  0  0  0  0  0  0
   -2.9178   -0.5273    5.1504 C   0  0  0  0  0  0  0  0  0  0  0  0
   -2.3578    0.3657    6.0720 C   0  0  0  0  0  0  0  0  0  0  0  0
   -2.9131    0.5394    7.4298 C   0  0  0  0  0  0  0  0  0  0  0  0
   -4.1670    1.1419    7.6192 C   0  0  0  0  0  0  0  0  0  0  0  0
   -4.6947    1.2682    8.9075 C   0  0  0  0  0  0  0  0  0  0  0  0
   -3.9798    0.7929   10.0142 C   0  0  0  0  0  0  0  0  0  0  0  0
   -4.6732    0.9568   11.6623 S   0  0  0  0  0  0  0  0  0  0  0  0
   -5.3745   -0.7300   11.7199 C   0  0  0  0  0  0  0  0  0  0  0  0
   -6.6885   -0.8113   10.9517 C   0  0  0  0  0  0  0  0  0  0  0  0
   -2.7136    0.2209    9.8280 C   0  0  0  0  0  0  0  0  0  0  0  0
   -2.1857    0.0910    8.5410 C   0  0  0  0  0  0  0  0  0  0  0  0
   -1.9924   -0.2205   10.8911 F   0  0  0  0  0  0  0  0  0  0  0  0
   -1.2410    1.0960    5.6490 C   0  0  0  0  0  0  0  0  0  0  0  0
   -0.4814    2.3271    6.4744 S   0  0  0  0  0  0  0  0  0  0  0  0
   -4.1033   -1.2454    5.3392 C   0  0  0  0  0  0  0  0  0  0  0  0
   -4.5010   -1.9675    4.2203 C   0  0  0  0  0  0  0  0  0  0  0  0
   -3.3449   -1.7538    3.0050 S   0  0  0  0  0  0  0  0  0  0  0  0
   -5.8971   -2.3525    3.9926 C   0  0  0  0  0  0  0  0  0  0  0  0
   -6.9672   -1.5568    4.3838 C   0  0  0  0  0  0  0  0  0  0  0  0
   -8.2055   -2.0684    3.9929 C   0  0  0  0  0  0  0  0  0  0  0  0
   -9.4483   -1.4455    4.2145 C   0  0  0  0  0  0  0  0  0  0  0  0
   -9.5292   -0.0760    4.7657 C   0  0  0  0  0  0  0  0  0  0  0  0
  -10.0973    0.1581    6.0240 C   0  0  0  0  0  0  0  0  0  0  0  0
  -10.0506    1.4405    6.5840 C   0  0  0  0  0  0  0  0  0  0  0  0
   -9.4597    2.4969    5.8763 C   0  0  0  0  0  0  0  0  0  0  0  0
   -9.3375    4.1201    6.6336 S   0  0  0  0  0  0  0  0  0  0  0  0
   -7.6934    3.7781    7.3524 C   0  0  0  0  0  0  0  0  0  0  0  0
   -7.2300    4.9694    8.1787 C   0  0  0  0  0  0  0  0  0  0  0  0
   -8.9381    2.2729    4.5957 C   0  0  0  0  0  0  0  0  0  0  0  0
   -8.3824    3.2944    3.8917 F   0  0  0  0  0  0  0  0  0  0  0  0
   -8.9732    0.9916    4.0440 C   0  0  0  0  0  0  0  0  0  0  0  0
  -10.5877   -2.1470    3.7997 C   0  0  0  0  0  0  0  0  0  0  0  0
  -10.5155   -3.3863    3.1464 C   0  0  0  0  0  0  0  0  0  0  0  0
   -9.2610   -3.9901    2.8786 C   0  0  0  0  0  0  0  0  0  0  0  0
   -9.1484   -5.2765    2.1485 C   0  0  0  0  0  0  0  0  0  0  0  0
   -8.3730   -5.3676    0.9843 C   0  0  0  0  0  0  0  0  0  0  0  0
   -8.3096   -6.5684    0.2687 C   0  0  0  0  0  0  0  0  0  0  0  0
   -9.0259   -7.6864    0.7106 C   0  0  0  0  0  0  0  0  0  0  0  0
   -9.0102   -9.1980   -0.2604 S   0  0  0  0  0  0  0  0  0  0  0  0
   -7.6063   -9.9235    0.6477 C   0  0  0  0  0  0  0  0  0  0  0  0
   -7.3488  -11.3400    0.1485 C   0  0  0  0  0  0  0  0  0  0  0  0
   -9.7937   -7.6058    1.8773 C   0  0  0  0  0  0  0  0  0  0  0  0
   -9.8424   -6.4101    2.6027 C   0  0  0  0  0  0  0  0  0  0  0  0
  -10.5001   -8.6803    2.3119 F   0  0  0  0  0  0  0  0  0  0  0  0
   -8.1167   -3.2915    3.3220 C   0  0  0  0  0  0  0  0  0  0  0  0
   -6.4815   -3.7127    3.1715 S   0  0  0  0  0  0  0  0  0  0  0  0
  -11.7779   -3.8662    2.7678 C   0  0  0  0  0  0  0  0  0  0  0  0
  -12.8247   -3.0246    3.1347 C   0  0  0  0  0  0  0  0  0  0  0  0
  -12.1936   -1.6670    3.9092 S   0  0  0  0  0  0  0  0  0  0  0  0
    9.9134   -3.3549   -9.8232 H   0  0  0  0  0  0  0  0  0  0  0  0
    8.6321   -8.5879   -6.2647 H   0  0  0  0  0  0  0  0  0  0  0  0
    7.1521   -6.2063   -6.8345 H   0  0  0  0  0  0  0  0  0  0  0  0
    5.9272   -6.6188   -8.1681 H   0  0  0  0  0  0  0  0  0  0  0  0
    5.7558   -4.3322   -7.3992 H   0  0  0  0  0  0  0  0  0  0  0  0
    4.5205   -2.7494   -3.6453 H   0  0  0  0  0  0  0  0  0  0  0  0
    3.1654   -4.6125   -2.7757 H   0  0  0  0  0  0  0  0  0  0  0  0
    3.6778   -7.3810   -4.3449 H   0  0  0  0  0  0  0  0  0  0  0  0
    2.4209   -8.6612   -4.4918 H   0  0  0  0  0  0  0  0  0  0  0  0
    3.2164   -7.2183   -1.8822 H   0  0  0  0  0  0  0  0  0  0  0  0
    3.7343   -8.8814   -2.3670 H   0  0  0  0  0  0  0  0  0  0  0  0
    1.9894   -8.5483   -2.0365 H   0  0  0  0  0  0  0  0  0  0  0  0
    3.1837   -3.6435   -7.6439 H   0  0  0  0  0  0  0  0  0  0  0  0
    7.2360    1.0219   -9.4579 H   0  0  0  0  0  0  0  0  0  0  0  0
    8.8494    2.7791  -10.0683 H   0  0  0  0  0  0  0  0  0  0  0  0
   12.6853    3.8919   -9.3737 H   0  0  0  0  0  0  0  0  0  0  0  0
   11.5875    2.4732   -9.2888 H   0  0  0  0  0  0  0  0  0  0  0  0
   13.4804    2.3770   -7.6169 H   0  0  0  0  0  0  0  0  0  0  0  0
   12.8668    3.8903   -6.8492 H   0  0  0  0  0  0  0  0  0  0  0  0
   11.8691    2.3754   -6.8146 H   0  0  0  0  0  0  0  0  0  0  0  0
    8.0178    1.7572   -5.2828 H   0  0  0  0  0  0  0  0  0  0  0  0
    5.6452    2.5480   -5.6114 H   0  0  0  0  0  0  0  0  0  0  0  0
    5.5645    2.6783   -2.8373 H   0  0  0  0  0  0  0  0  0  0  0  0
    6.4392    1.5419   -0.8884 H   0  0  0  0  0  0  0  0  0  0  0  0
    8.8914    1.7498   -0.7655 H   0  0  0  0  0  0  0  0  0  0  0  0
   10.0384    5.5631   -1.5370 H   0  0  0  0  0  0  0  0  0  0  0  0
   11.8119    5.4127   -1.3042 H   0  0  0  0  0  0  0  0  0  0  0  0
   11.7805    3.1779   -2.4600 H   0  0  0  0  0  0  0  0  0  0  0  0
   10.0033    3.3778   -2.7566 H   0  0  0  0  0  0  0  0  0  0  0  0
   11.1805    4.5213   -3.5048 H   0  0  0  0  0  0  0  0  0  0  0  0
    6.0403    5.5744    0.5925 H   0  0  0  0  0  0  0  0  0  0  0  0
   -0.2614    2.4443    0.9787 H   0  0  0  0  0  0  0  0  0  0  0  0
   -2.6908    2.7263    0.7210 H   0  0  0  0  0  0  0  0  0  0  0  0
   -3.5896    6.4890   -0.0585 H   0  0  0  0  0  0  0  0  0  0  0  0
   -5.3750    6.3044   -0.0954 H   0  0  0  0  0  0  0  0  0  0  0  0
   -3.4512    4.8519    1.8311 H   0  0  0  0  0  0  0  0  0  0  0  0
   -4.5892    6.1816    2.2324 H   0  0  0  0  0  0  0  0  0  0  0  0
   -5.2387    4.5723    1.7343 H   0  0  0  0  0  0  0  0  0  0  0  0
    0.4076    5.2488   -2.2149 H   0  0  0  0  0  0  0  0  0  0  0  0
    0.7489    4.2265    2.2128 H   0  0  0  0  0  0  0  0  0  0  0  0
    3.6595    4.7163   10.7595 H   0  0  0  0  0  0  0  0  0  0  0  0
    0.6565    4.1175    8.5316 H   0  0  0  0  0  0  0  0  0  0  0  0
    1.8667    2.7581    8.1867 H   0  0  0  0  0  0  0  0  0  0  0  0
    1.0055    1.8870    3.2848 H   0  0  0  0  0  0  0  0  0  0  0  0
    1.3377   -0.5216    2.6153 H   0  0  0  0  0  0  0  0  0  0  0  0
    2.1347   -0.7127    0.2875 H   0  0  0  0  0  0  0  0  0  0  0  0
    0.9393   -2.8802   -2.0209 H   0  0  0  0  0  0  0  0  0  0  0  0
   -0.7867   -2.3390   -2.1117 H   0  0  0  0  0  0  0  0  0  0  0  0
    1.1847   -2.3063   -4.4789 H   0  0  0  0  0  0  0  0  0  0  0  0
   -0.0871   -3.5551   -4.1816 H   0  0  0  0  0  0  0  0  0  0  0  0
   -0.5598   -1.8470   -4.5258 H   0  0  0  0  0  0  0  0  0  0  0  0
   -2.6431    0.2832    1.1659 H   0  0  0  0  0  0  0  0  0  0  0  0
   -4.7359    1.5012    6.7720 H   0  0  0  0  0  0  0  0  0  0  0  0
   -5.6640    1.7292    9.0463 H   0  0  0  0  0  0  0  0  0  0  0  0
   -5.5647   -0.9841   12.7848 H   0  0  0  0  0  0  0  0  0  0  0  0
   -4.6501   -1.4695   11.3165 H   0  0  0  0  0  0  0  0  0  0  0  0
   -6.5092   -0.6884    9.8640 H   0  0  0  0  0  0  0  0  0  0  0  0
   -7.1547   -1.8051   11.1188 H   0  0  0  0  0  0  0  0  0  0  0  0
   -7.3887   -0.0234   11.3021 H   0  0  0  0  0  0  0  0  0  0  0  0
   -1.2146   -0.3711    8.4024 H   0  0  0  0  0  0  0  0  0  0  0  0
   -4.7190   -1.1719    6.2262 H   0  0  0  0  0  0  0  0  0  0  0  0
   -6.8416   -0.6182    4.9087 H   0  0  0  0  0  0  0  0  0  0  0  0
  -10.5323   -0.6546    6.5904 H   0  0  0  0  0  0  0  0  0  0  0  0
  -10.4573    1.6075    7.5732 H   0  0  0  0  0  0  0  0  0  0  0  0
   -7.7542    2.8836    8.0097 H   0  0  0  0  0  0  0  0  0  0  0  0
   -6.9552    3.5814    6.5428 H   0  0  0  0  0  0  0  0  0  0  0  0
   -7.1533    5.8741    7.5354 H   0  0  0  0  0  0  0  0  0  0  0  0
   -6.2305    4.7576    8.6204 H   0  0  0  0  0  0  0  0  0  0  0  0
   -7.9506    5.1585    9.0041 H   0  0  0  0  0  0  0  0  0  0  0  0
   -8.5419    0.8238    3.0625 H   0  0  0  0  0  0  0  0  0  0  0  0
   -7.8380   -4.5033    0.6078 H   0  0  0  0  0  0  0  0  0  0  0  0
   -7.7144   -6.6235   -0.6344 H   0  0  0  0  0  0  0  0  0  0  0  0
   -6.6961   -9.3042    0.4903 H   0  0  0  0  0  0  0  0  0  0  0  0
   -7.8356   -9.9585    1.7342 H   0  0  0  0  0  0  0  0  0  0  0  0
   -8.2526  -11.9684    0.2953 H   0  0  0  0  0  0  0  0  0  0  0  0
   -7.0875  -11.3256   -0.9303 H   0  0  0  0  0  0  0  0  0  0  0  0
   -6.5052  -11.7897    0.7132 H   0  0  0  0  0  0  0  0  0  0  0  0
  -10.4395   -6.3641    3.5029 H   0  0  0  0  0  0  0  0  0  0  0  0
  -11.9463   -4.7818    2.2240 H   0  0  0  0  0  0  0  0  0  0  0  0
  -13.8728   -3.2072    2.9444 H   0  0  0  0  0  0  0  0  0  0  0  0
  1  2  1  0
  2  3  1  0
  3  4  1  0
  4  5  2  0
  5  6  1  0
  6  7  1  0
  5  8  1  0
  8  9  1  0
  9 10  1  0
 10 11  1  0
 11 12  2  0
 12 13  1  0
 13 14  2  0
 14 15  1  0
 15 16  2  0
 16 17  1  0
 17 18  2  0
 18 19  1  0
 19 20  1  0
 20 21  1  0
 18 22  1  0
 22 23  1  0
 22 24  2  0
 14 25  1  0
 25 26  2  0
 26 27  1  0
 27 28  1  0
 28 29  2  0
 29 30  1  0
 30 31  2  0
 31 32  1  0
 32 33  1  0
 33 34  1  0
 31 35  1  0
 35 36  2  0
 35 37  1  0
 27 38  2  0
 38 39  1  0
 26 40  1  0
 40 41  2  0
 41 42  1  0
 41 43  1  0
 43 44  2  0
 44 45  1  0
 45 46  2  0
 46 47  1  0
 47 48  2  0
 48 49  1  0
 49 50  2  0
 50 51  1  0
 51 52  1  0
 52 53  1  0
 50 54  1  0
 54 55  1  0
 54 56  2  0
 46 57  1  0
 57 58  2  0
 58 59  1  0
 59 60  1  0
 60 61  2  0
 61 62  1  0
 62 63  2  0
 63 64  1  0
 64 65  1  0
 65 66  1  0
 63 67  1  0
 67 68  2  0
 67 69  1  0
 59 70  2  0
 70 71  1  0
 58 72  1  0
 72 73  2  0
 73 74  1  0
 73 75  1  0
 75 76  1  0
 76 77  1  0
 77 78  1  0
 78 79  2  0
 79 80  1  0
 80 81  1  0
 79 82  1  0
 82 83  1  0
 83 84  1  0
 84 85  1  0
 85 86  2  0
 86 87  1  0
 87 88  2  0
 88 89  1  0
 89 90  2  0
 90 91  1  0
 91 92  2  0
 92 93  1  0
 93 94  1  0
 94 95  1  0
 92 96  1  0
 96 97  1  0
 96 98  2  0
 88 99  1  0
 99100  2  0
100101  1  0
101102  1  0
102103  2  0
103104  1  0
104105  2  0
105106  1  0
106107  1  0
107108  1  0
105109  1  0
109110  2  0
109111  1  0
101112  2  0
112113  1  0
100114  1  0
114115  2  0
115116  1  0
115117  1  0
117118  2  0
118119  1  0
119120  2  0
120121  1  0
121122  2  0
122123  1  0
123124  2  0
124125  1  0
125126  1  0
126127  1  0
124128  1  0
128129  1  0
128130  2  0
120131  1  0
131132  2  0
132133  1  0
133134  1  0
134135  2  0
135136  1  0
136137  2  0
137138  1  0
138139  1  0
139140  1  0
137141  1  0
141142  2  0
141143  1  0
133144  2  0
144145  1  0
132146  1  0
146147  2  0
147148  1  0
 10  1  2  0
 39 11  1  0
 71 43  1  0
 84 75  2  0
113 85  1  0
145117  1  0
  9  3  2  0
 38 13  1  0
 70 45  1  0
 83 77  2  0
112 87  1  0
144119  1  0
  7  4  1  0
 24 15  1  0
 42 25  1  0
 56 47  1  0
 74 57  1  0
 81 78  1  0
 98 89  1  0
116 99  1  0
130121  1  0
148131  1  0
 36 28  1  0
 68 60  1  0
110102  1  0
142134  1  0
  1149  1  0
  6150  1  0
  8151  1  0
  8152  1  0
 12153  1  0
 16154  1  0
 17155  1  0
 20156  1  0
 20157  1  0
 21158  1  0
 21159  1  0
 21160  1  0
 24161  1  0
 29162  1  0
 30163  1  0
 33164  1  0
 33165  1  0
 34166  1  0
 34167  1  0
 34168  1  0
 36169  1  0
 40170  1  0
 44171  1  0
 48172  1  0
 49173  1  0
 52174  1  0
 52175  1  0
 53176  1  0
 53177  1  0
 53178  1  0
 56179  1  0
 61180  1  0
 62181  1  0
 65182  1  0
 65183  1  0
 66184  1  0
 66185  1  0
 66186  1  0
 68187  1  0
 72188  1  0
 80189  1  0
 82190  1  0
 82191  1  0
 86192  1  0
 90193  1  0
 91194  1  0
 94195  1  0
 94196  1  0
 95197  1  0
 95198  1  0
 95199  1  0
 98200  1  0
103201  1  0
104202  1  0
107203  1  0
107204  1  0
108205  1  0
108206  1  0
108207  1  0
110208  1  0
114209  1  0
118210  1  0
122211  1  0
123212  1  0
126213  1  0
126214  1  0
127215  1  0
127216  1  0
127217  1  0
130218  1  0
135219  1  0
136220  1  0
139221  1  0
139222  1  0
140223  1  0
140224  1  0
140225  1  0
142226  1  0
146227  1  0
147228  1  0
M  RAD  2   6   2  80   2
M  END

