
     RDKit          3D

130145  0  0  0  0  0  0  0  0999 V2000
   12.8942   -2.7902   -0.0484 C   0  0  0  0  0  0  0  0  0  0  0  0
   13.5459   -1.5213   -1.0031 S   0  0  0  0  0  0  0  0  0  0  0  0
   12.2555   -0.5127   -0.6732 C   0  0  0  0  0  0  0  0  0  0  0  0
   11.7442    0.7149   -0.9789 C   0  0  0  0  0  0  0  0  0  0  0  0
   10.5509    0.7972   -0.3439 C   0  0  0  0  0  0  0  0  0  0  0  0
   10.2686   -0.3212    0.3726 N   0  0  0  0  0  0  0  0  0  0  0  0
    9.0467   -0.6455    1.1053 C   0  0  0  0  0  0  0  0  0  0  0  0
    8.0273   -1.2862    0.1725 C   0  0  0  0  0  0  0  0  0  0  0  0
   11.3450   -1.1127    0.1319 C   0  0  0  0  0  0  0  0  0  0  0  0
   11.6621   -2.4111    0.5109 C   0  0  0  0  0  0  0  0  0  0  0  0
    9.8417    1.9697   -0.5727 C   0  0  0  0  0  0  0  0  0  0  0  0
   10.5621    2.8172   -1.4396 C   0  0  0  0  0  0  0  0  0  0  0  0
   12.0514    2.0808   -1.8876 S   0  0  0  0  0  0  0  0  0  0  0  0
   10.1043    4.1662   -1.8400 C   0  0  0  0  0  0  0  0  0  0  0  0
    8.8920    5.0099   -1.0325 S   0  0  0  0  0  0  0  0  0  0  0  0
    8.9433    6.4036   -1.9723 C   0  0  0  0  0  0  0  0  0  0  0  0
    9.9579    6.2531   -2.9163 C   0  0  0  0  0  0  0  0  0  0  0  0
   10.5765    4.9832   -2.8800 C   0  0  0  0  0  0  0  0  0  0  0  0
   11.6714    4.6026   -3.8464 C   0  0  0  0  0  0  0  0  0  0  0  0
   11.7131    5.5268   -5.0725 C   0  0  0  0  0  0  0  0  0  0  0  0
   11.6271    7.0047   -4.6528 C   0  0  1  0  0  0  0  0  0  0  0  0
   11.8165    7.9236   -5.8647 C   0  0  0  0  0  0  0  0  0  0  0  0
   10.2760    7.2861   -3.9666 C   0  0  0  0  0  0  0  0  0  0  0  0
    8.1425    7.6226   -1.7441 C   0  0  0  0  0  0  0  0  0  0  0  0
    6.8400    7.6353   -1.4263 C   0  0  0  0  0  0  0  0  0  0  0  0
    5.9417    6.4673   -1.4707 C   0  0  0  0  0  0  0  0  0  0  0  0
    4.5559    6.3195   -0.4717 S   0  0  0  0  0  0  0  0  0  0  0  0
    4.0928    4.8903   -1.2023 C   0  0  0  0  0  0  0  0  0  0  0  0
    3.0344    4.0329   -1.2766 C   0  0  0  0  0  0  0  0  0  0  0  0
    3.2820    3.2121   -2.3272 C   0  0  0  0  0  0  0  0  0  0  0  0
    4.4616    3.4973   -2.9368 N   0  0  0  0  0  0  0  0  0  0  0  0
    4.9744    2.9725   -4.2004 C   0  0  0  0  0  0  0  0  0  0  0  0
    4.3986    3.7580   -5.3723 C   0  0  0  0  0  0  0  0  0  0  0  0
    4.9282    4.5488   -2.2148 C   0  0  0  0  0  0  0  0  0  0  0  0
    5.9844    5.4271   -2.4223 C   0  0  0  0  0  0  0  0  0  0  0  0
    2.2350    2.3631   -2.6682 C   0  0  0  0  0  0  0  0  0  0  0  0
    1.1431    2.5697   -1.8012 C   0  0  0  0  0  0  0  0  0  0  0  0
    1.4914    3.8187   -0.6741 S   0  0  0  0  0  0  0  0  0  0  0  0
   -0.1401    1.8505   -1.8655 C   0  0  0  0  0  0  0  0  0  0  0  0
   -1.4771    2.1760   -0.8378 S   0  0  0  0  0  0  0  0  0  0  0  0
   -2.3974    0.9643   -1.5276 C   0  0  0  0  0  0  0  0  0  0  0  0
   -3.5183    0.2299   -1.2743 C   0  0  0  0  0  0  0  0  0  0  0  0
   -3.4517   -0.8576   -2.0830 C   0  0  0  0  0  0  0  0  0  0  0  0
   -2.3389   -0.8514   -2.8635 N   0  0  0  0  0  0  0  0  0  0  0  0
   -1.8052   -1.9433   -3.6755 C   0  0  0  0  0  0  0  0  0  0  0  0
   -0.9942   -2.9014   -2.8118 C   0  0  0  0  0  0  0  0  0  0  0  0
   -1.7066    0.2889   -2.4803 C   0  0  0  0  0  0  0  0  0  0  0  0
   -0.4155    0.7540   -2.7067 C   0  0  0  0  0  0  0  0  0  0  0  0
   -4.3889   -1.8484   -1.8099 C   0  0  0  0  0  0  0  0  0  0  0  0
   -5.2081   -1.4555   -0.7327 C   0  0  0  0  0  0  0  0  0  0  0  0
   -4.7165    0.0728   -0.1228 S   0  0  0  0  0  0  0  0  0  0  0  0
   -6.2972   -2.2589   -0.1534 C   0  0  0  0  0  0  0  0  0  0  0  0
   -7.3496   -1.6945    1.0814 S   0  0  0  0  0  0  0  0  0  0  0  0
   -8.1903   -3.1358    1.1225 C   0  0  0  0  0  0  0  0  0  0  0  0
   -9.1070   -3.8033    1.8785 C   0  0  0  0  0  0  0  0  0  0  0  0
   -9.1071   -5.0829    1.4375 C   0  0  0  0  0  0  0  0  0  0  0  0
   -8.2286   -5.2762    0.4184 N   0  0  0  0  0  0  0  0  0  0  0  0
   -7.7832   -6.5449   -0.1562 C   0  0  0  0  0  0  0  0  0  0  0  0
   -6.6425   -7.1278    0.6701 C   0  0  0  0  0  0  0  0  0  0  0  0
   -7.6773   -4.0447    0.2570 C   0  0  0  0  0  0  0  0  0  0  0  0
   -6.5946   -3.5951   -0.4911 C   0  0  0  0  0  0  0  0  0  0  0  0
   -9.8609   -5.9657    2.2036 C   0  0  0  0  0  0  0  0  0  0  0  0
  -10.4700   -5.2903    3.2841 C   0  0  0  0  0  0  0  0  0  0  0  0
  -10.0055   -3.6348    3.2722 S   0  0  0  0  0  0  0  0  0  0  0  0
  -11.3274   -5.9538    4.2970 C   0  0  0  0  0  0  0  0  0  0  0  0
  -11.7344   -7.5871    4.2342 S   0  0  0  0  0  0  0  0  0  0  0  0
  -12.6187   -7.6495    5.6627 C   0  0  0  0  0  0  0  0  0  0  0  0
  -12.5955   -6.3764    6.2364 C   0  0  0  0  0  0  0  0  0  0  0  0
  -11.9115   -5.4137    5.4570 C   0  0  0  0  0  0  0  0  0  0  0  0
  -11.7665   -3.9802    5.9093 C   0  0  0  0  0  0  0  0  0  0  0  0
  -12.7010   -3.6217    7.0759 C   0  0  0  0  0  0  0  0  0  0  0  0
  -12.7169   -4.7317    8.1394 C   0  0  1  0  0  0  0  0  0  0  0  0
  -13.5391   -4.3037    9.3594 C   0  0  0  0  0  0  0  0  0  0  0  0
  -13.2792   -6.0312    7.5353 C   0  0  0  0  0  0  0  0  0  0  0  0
  -13.3146   -8.8375    6.2001 C   0  0  0  0  0  0  0  0  0  0  0  0
  -13.2331  -10.0384    5.6285 C   0  0  0  0  0  0  0  0  0  0  0  0
   13.3623   -3.7545    0.0951 H   0  0  0  0  0  0  0  0  0  0  0  0
    9.2800   -1.3446    1.9373 H   0  0  0  0  0  0  0  0  0  0  0  0
    8.6164    0.2786    1.5471 H   0  0  0  0  0  0  0  0  0  0  0  0
    7.7773   -0.5900   -0.6567 H   0  0  0  0  0  0  0  0  0  0  0  0
    8.4370   -2.2276   -0.2515 H   0  0  0  0  0  0  0  0  0  0  0  0
    7.0995   -1.5206    0.7365 H   0  0  0  0  0  0  0  0  0  0  0  0
   11.0485   -3.0432    1.1379 H   0  0  0  0  0  0  0  0  0  0  0  0
    8.8715    2.1911   -0.1474 H   0  0  0  0  0  0  0  0  0  0  0  0
   12.6467    4.6543   -3.3175 H   0  0  0  0  0  0  0  0  0  0  0  0
   11.5114    3.5641   -4.2063 H   0  0  0  0  0  0  0  0  0  0  0  0
   10.8668    5.2773   -5.7511 H   0  0  0  0  0  0  0  0  0  0  0  0
   12.6594    5.3408   -5.6252 H   0  0  0  0  0  0  0  0  0  0  0  0
   12.4469    7.2198   -3.9298 H   0  0  0  0  0  0  0  0  0  0  0  0
   12.8190    7.7613   -6.3125 H   0  0  0  0  0  0  0  0  0  0  0  0
   11.0412    7.7241   -6.6352 H   0  0  0  0  0  0  0  0  0  0  0  0
   11.7463    8.9878   -5.5514 H   0  0  0  0  0  0  0  0  0  0  0  0
    9.4571    7.2809   -4.7193 H   0  0  0  0  0  0  0  0  0  0  0  0
   10.3169    8.2940   -3.5002 H   0  0  0  0  0  0  0  0  0  0  0  0
    8.6577    8.5733   -1.7907 H   0  0  0  0  0  0  0  0  0  0  0  0
    6.3977    8.5825   -1.1449 H   0  0  0  0  0  0  0  0  0  0  0  0
    4.7001    1.9004   -4.3010 H   0  0  0  0  0  0  0  0  0  0  0  0
    6.0836    3.0428   -4.2147 H   0  0  0  0  0  0  0  0  0  0  0  0
    4.7970    3.3517   -6.3253 H   0  0  0  0  0  0  0  0  0  0  0  0
    4.6842    4.8291   -5.2918 H   0  0  0  0  0  0  0  0  0  0  0  0
    3.2905    3.6728   -5.3802 H   0  0  0  0  0  0  0  0  0  0  0  0
    6.6965    5.3496   -3.2327 H   0  0  0  0  0  0  0  0  0  0  0  0
    2.2524    1.6750   -3.5026 H   0  0  0  0  0  0  0  0  0  0  0  0
   -1.1588   -1.5307   -4.4802 H   0  0  0  0  0  0  0  0  0  0  0  0
   -2.6402   -2.4946   -4.1597 H   0  0  0  0  0  0  0  0  0  0  0  0
   -0.1531   -2.3609   -2.3280 H   0  0  0  0  0  0  0  0  0  0  0  0
   -1.6408   -3.3485   -2.0269 H   0  0  0  0  0  0  0  0  0  0  0  0
   -0.5808   -3.7152   -3.4433 H   0  0  0  0  0  0  0  0  0  0  0  0
    0.2882    0.2956   -3.3884 H   0  0  0  0  0  0  0  0  0  0  0  0
   -4.4449   -2.7975   -2.3258 H   0  0  0  0  0  0  0  0  0  0  0  0
   -8.6292   -7.2645   -0.1802 H   0  0  0  0  0  0  0  0  0  0  0  0
   -7.4410   -6.3850   -1.2008 H   0  0  0  0  0  0  0  0  0  0  0  0
   -6.9751   -7.2923    1.7162 H   0  0  0  0  0  0  0  0  0  0  0  0
   -6.3247   -8.0991    0.2373 H   0  0  0  0  0  0  0  0  0  0  0  0
   -5.7760   -6.4320    0.6685 H   0  0  0  0  0  0  0  0  0  0  0  0
   -6.0403   -4.2028   -1.1944 H   0  0  0  0  0  0  0  0  0  0  0  0
   -9.9331   -7.0284    2.0132 H   0  0  0  0  0  0  0  0  0  0  0  0
  -12.0100   -3.2969    5.0704 H   0  0  0  0  0  0  0  0  0  0  0  0
  -10.7129   -3.8112    6.2209 H   0  0  0  0  0  0  0  0  0  0  0  0
  -12.3514   -2.6669    7.5288 H   0  0  0  0  0  0  0  0  0  0  0  0
  -13.7317   -3.4599    6.6875 H   0  0  0  0  0  0  0  0  0  0  0  0
  -11.6720   -4.9168    8.4798 H   0  0  0  0  0  0  0  0  0  0  0  0
  -13.1004   -3.3900    9.8137 H   0  0  0  0  0  0  0  0  0  0  0  0
  -14.5903   -4.0903    9.0699 H   0  0  0  0  0  0  0  0  0  0  0  0
  -13.5320   -5.1077   10.1258 H   0  0  0  0  0  0  0  0  0  0  0  0
  -14.3688   -5.9251    7.3402 H   0  0  0  0  0  0  0  0  0  0  0  0
  -13.1293   -6.8542    8.2670 H   0  0  0  0  0  0  0  0  0  0  0  0
  -13.9218   -8.7374    7.0903 H   0  0  0  0  0  0  0  0  0  0  0  0
  -12.6442  -10.2073    4.7362 H   0  0  0  0  0  0  0  0  0  0  0  0
  -13.7649  -10.8765    6.0602 H   0  0  0  0  0  0  0  0  0  0  0  0
  1  2  1  0
  2  3  1  0
  3  4  1  0
  4  5  2  0
  5  6  1  0
  6  7  1  0
  7  8  1  0
  6  9  1  0
  9 10  1  0
  5 11  1  0
 11 12  2  0
 12 13  1  0
 12 14  1  0
 14 15  1  0
 15 16  1  0
 16 17  2  0
 17 18  1  0
 18 19  1  0
 19 20  1  0
 20 21  1  0
 21 22  1  0
 21 23  1  0
 16 24  1  0
 24 25  2  3
 25 26  1  0
 26 27  1  0
 27 28  1  0
 28 29  1  0
 29 30  2  0
 30 31  1  0
 31 32  1  0
 32 33  1  0
 31 34  1  0
 34 35  1  0
 30 36  1  0
 36 37  2  0
 37 38  1  0
 37 39  1  0
 39 40  1  0
 40 41  1  0
 41 42  1  0
 42 43  2  0
 43 44  1  0
 44 45  1  0
 45 46  1  0
 44 47  1  0
 47 48  1  0
 43 49  1  0
 49 50  2  0
 50 51  1  0
 50 52  1  0
 52 53  1  0
 53 54  1  0
 54 55  1  0
 55 56  2  0
 56 57  1  0
 57 58  1  0
 58 59  1  0
 57 60  1  0
 60 61  1  0
 56 62  1  0
 62 63  2  0
 63 64  1  0
 63 65  1  0
 65 66  1  0
 66 67  1  0
 67 68  2  0
 68 69  1  0
 69 70  1  0
 70 71  1  0
 71 72  1  0
 72 73  1  0
 72 74  1  0
 67 75  1  0
 75 76  2  3
 10  1  2  0
 18 14  2  0
 35 26  2  0
 48 39  2  0
 61 52  2  0
 69 65  2  0
  9  3  2  0
 23 17  1  0
 34 28  2  0
 47 41  2  0
 60 54  2  0
 74 68  1  0
 13  4  1  0
 38 29  1  0
 51 42  1  0
 64 55  1  0
  1 77  1  0
  7 78  1  0
  7 79  1  0
  8 80  1  0
  8 81  1  0
  8 82  1  0
 10 83  1  0
 11 84  1  0
 19 85  1  0
 19 86  1  0
 20 87  1  0
 20 88  1  0
 21 89  1  1
 22 90  1  0
 22 91  1  0
 22 92  1  0
 23 93  1  0
 23 94  1  0
 24 95  1  0
 25 96  1  0
 32 97  1  0
 32 98  1  0
 33 99  1  0
 33100  1  0
 33101  1  0
 35102  1  0
 36103  1  0
 45104  1  0
 45105  1  0
 46106  1  0
 46107  1  0
 46108  1  0
 48109  1  0
 49110  1  0
 58111  1  0
 58112  1  0
 59113  1  0
 59114  1  0
 59115  1  0
 61116  1  0
 62117  1  0
 70118  1  0
 70119  1  0
 71120  1  0
 71121  1  0
 72122  1  1
 73123  1  0
 73124  1  0
 73125  1  0
 74126  1  0
 74127  1  0
 75128  1  0
 76129  1  0
 76130  1  0
M  END

