
     RDKit          3D

138151  0  0  0  0  0  0  0  0999 V2000
    1.1540   -3.3189   -3.6049 C   0  0  0  0  0  0  0  0  0  0  0  0
    0.1347   -2.8749   -2.3506 S   0  0  0  0  0  0  0  0  0  0  0  0
    0.0781   -1.2329   -2.6940 C   0  0  0  0  0  0  0  0  0  0  0  0
    0.8767   -0.9994   -3.8212 C   0  0  0  0  0  0  0  0  0  0  0  0
    1.4795   -2.1718   -4.3205 C   0  0  0  0  0  0  0  0  0  0  0  0
    2.5136   -2.1614   -5.4172 C   0  0  0  0  0  0  0  0  0  0  0  0
    2.7172   -0.7802   -6.0796 C   0  0  0  0  0  0  0  0  0  0  0  0
    2.4783    0.3931   -5.1085 C   0  0  1  0  0  0  0  0  0  0  0  0
    2.7035    1.7329   -5.8147 C   0  0  0  0  0  0  0  0  0  0  0  0
    1.0501    0.3115   -4.5356 C   0  0  0  0  0  0  0  0  0  0  0  0
   -0.6209   -0.2599   -1.8405 C   0  0  0  0  0  0  0  0  0  0  0  0
   -0.0357    0.8616   -1.4150 C   0  0  0  0  0  0  0  0  0  0  0  0
   -0.7279    1.8512   -0.5749 C   0  0  0  0  0  0  0  0  0  0  0  0
   -2.0460    1.5508    0.4318 S   0  0  0  0  0  0  0  0  0  0  0  0
   -2.1706    3.1130    1.0472 C   0  0  0  0  0  0  0  0  0  0  0  0
   -1.1842    3.9081    0.4576 C   0  0  0  0  0  0  0  0  0  0  0  0
   -0.3741    3.1974   -0.4494 C   0  0  0  0  0  0  0  0  0  0  0  0
    0.7996    3.8310   -1.1558 C   0  0  0  0  0  0  0  0  0  0  0  0
    0.7229    5.3638   -1.1381 C   0  0  0  0  0  0  0  0  0  0  0  0
    0.3472    5.8865    0.2596 C   0  0  1  0  0  0  0  0  0  0  0  0
    0.4056    7.4182    0.2994 C   0  0  0  0  0  0  0  0  0  0  0  0
   -1.0585    5.3938    0.6484 C   0  0  0  0  0  0  0  0  0  0  0  0
   -3.1781    3.5220    2.0322 C   0  0  0  0  0  0  0  0  0  0  0  0
   -2.9146    3.9318    3.2848 C   0  0  0  0  0  0  0  0  0  0  0  0
   -1.5857    3.9673    3.9506 C   0  0  0  0  0  0  0  0  0  0  0  0
   -0.1370    3.3109    3.3852 S   0  0  0  0  0  0  0  0  0  0  0  0
    0.8496    3.7618    4.6642 C   0  0  0  0  0  0  0  0  0  0  0  0
    0.0587    4.4959    5.5527 C   0  0  0  0  0  0  0  0  0  0  0  0
   -1.3088    4.5541    5.1879 C   0  0  0  0  0  0  0  0  0  0  0  0
   -2.3374    5.2935    6.0032 C   0  0  0  0  0  0  0  0  0  0  0  0
   -1.8213    5.7006    7.3876 C   0  0  0  0  0  0  0  0  0  0  0  0
   -0.3851    6.2489    7.3063 C   0  0  1  0  0  0  0  0  0  0  0  0
    0.0726    6.7914    8.6650 C   0  0  0  0  0  0  0  0  0  0  0  0
    0.5751    5.1472    6.8138 C   0  0  0  0  0  0  0  0  0  0  0  0
    2.3189    3.5972    4.7277 C   0  0  0  0  0  0  0  0  0  0  0  0
    3.0470    2.6746    4.0837 C   0  0  0  0  0  0  0  0  0  0  0  0
    2.5320    1.4802    3.3882 C   0  0  0  0  0  0  0  0  0  0  0  0
    1.2775    0.4529    3.9678 S   0  0  0  0  0  0  0  0  0  0  0  0
    1.5120   -0.6474    2.7313 C   0  0  0  0  0  0  0  0  0  0  0  0
    1.0910   -1.8667    2.2883 C   0  0  0  0  0  0  0  0  0  0  0  0
    1.8859   -2.1901    1.2402 C   0  0  0  0  0  0  0  0  0  0  0  0
    2.8327   -1.2430    1.0013 N   0  0  0  0  0  0  0  0  0  0  0  0
    3.9173   -1.2599    0.0222 C   0  0  0  0  0  0  0  0  0  0  0  0
    3.5020   -0.5394   -1.2492 C   0  0  0  0  0  0  0  0  0  0  0  0
    2.5512   -0.2963    1.9346 C   0  0  0  0  0  0  0  0  0  0  0  0
    3.1692    0.9012    2.2760 C   0  0  0  0  0  0  0  0  0  0  0  0
    1.6223   -3.4234    0.6628 C   0  0  0  0  0  0  0  0  0  0  0  0
    0.5497   -4.0599    1.3262 C   0  0  0  0  0  0  0  0  0  0  0  0
   -0.0114   -3.0637    2.6122 S   0  0  0  0  0  0  0  0  0  0  0  0
   -0.0414   -5.3490    0.8875 C   0  0  0  0  0  0  0  0  0  0  0  0
    0.2676   -6.0252   -0.6326 S   0  0  0  0  0  0  0  0  0  0  0  0
   -0.7481   -7.3535   -0.4771 C   0  0  0  0  0  0  0  0  0  0  0  0
   -1.3002   -7.3403    0.8018 C   0  0  0  0  0  0  0  0  0  0  0  0
   -0.9636   -6.1861    1.5505 C   0  0  0  0  0  0  0  0  0  0  0  0
   -1.5263   -5.9615    2.9343 C   0  0  0  0  0  0  0  0  0  0  0  0
   -2.7751   -6.8020    3.1917 C   0  0  0  0  0  0  0  0  0  0  0  0
   -2.5441   -8.2714    2.8024 C   0  0  1  0  0  0  0  0  0  0  0  0
   -3.7489   -9.1277    3.1895 C   0  0  0  0  0  0  0  0  0  0  0  0
   -2.2709   -8.3870    1.2897 C   0  0  0  0  0  0  0  0  0  0  0  0
   -1.0057   -8.3594   -1.5234 C   0  0  0  0  0  0  0  0  0  0  0  0
   -1.3449   -8.0594   -2.7820 C   0  0  0  0  0  0  0  0  0  0  0  0
   -1.6622   -6.7066   -3.2660 C   0  0  0  0  0  0  0  0  0  0  0  0
   -2.6184   -5.5435   -2.4390 S   0  0  0  0  0  0  0  0  0  0  0  0
   -2.4819   -4.4358   -3.6832 C   0  0  0  0  0  0  0  0  0  0  0  0
   -2.8905   -3.1899   -4.0597 C   0  0  0  0  0  0  0  0  0  0  0  0
   -2.4077   -3.0013   -5.3140 C   0  0  0  0  0  0  0  0  0  0  0  0
   -1.6801   -4.0580   -5.7573 N   0  0  0  0  0  0  0  0  0  0  0  0
   -1.1627   -4.3069   -7.1081 C   0  0  0  0  0  0  0  0  0  0  0  0
   -2.2248   -4.9932   -7.9568 C   0  0  0  0  0  0  0  0  0  0  0  0
   -1.7564   -4.9291   -4.7151 C   0  0  0  0  0  0  0  0  0  0  0  0
   -1.2960   -6.2316   -4.5400 C   0  0  0  0  0  0  0  0  0  0  0  0
   -2.7640   -1.7918   -5.9013 C   0  0  0  0  0  0  0  0  0  0  0  0
   -3.5519   -1.0382   -5.0101 C   0  0  0  0  0  0  0  0  0  0  0  0
   -3.8039   -1.8919   -3.5432 S   0  0  0  0  0  0  0  0  0  0  0  0
    1.5178   -4.3199   -3.7974 H   0  0  0  0  0  0  0  0  0  0  0  0
    3.4864   -2.5094   -4.9790 H   0  0  0  0  0  0  0  0  0  0  0  0
    2.2234   -2.8936   -6.2019 H   0  0  0  0  0  0  0  0  0  0  0  0
    3.7627   -0.7224   -6.4655 H   0  0  0  0  0  0  0  0  0  0  0  0
    2.0252   -0.6850   -6.9518 H   0  0  0  0  0  0  0  0  0  0  0  0
    3.2088    0.3303   -4.2650 H   0  0  0  0  0  0  0  0  0  0  0  0
    3.7418    1.7846   -6.2117 H   0  0  0  0  0  0  0  0  0  0  0  0
    2.5728    2.5778   -5.0992 H   0  0  0  0  0  0  0  0  0  0  0  0
    1.9881    1.8636   -6.6554 H   0  0  0  0  0  0  0  0  0  0  0  0
    0.3088    0.3673   -5.3679 H   0  0  0  0  0  0  0  0  0  0  0  0
    0.8684    1.1794   -3.8750 H   0  0  0  0  0  0  0  0  0  0  0  0
   -1.6068   -0.5249   -1.4866 H   0  0  0  0  0  0  0  0  0  0  0  0
    0.9860    1.0656   -1.6914 H   0  0  0  0  0  0  0  0  0  0  0  0
    1.7253    3.5041   -0.6530 H   0  0  0  0  0  0  0  0  0  0  0  0
    0.8318    3.4892   -2.2132 H   0  0  0  0  0  0  0  0  0  0  0  0
    1.7081    5.7721   -1.4508 H   0  0  0  0  0  0  0  0  0  0  0  0
   -0.0292    5.7065   -1.8824 H   0  0  0  0  0  0  0  0  0  0  0  0
    1.0878    5.4950    0.9998 H   0  0  0  0  0  0  0  0  0  0  0  0
    0.1503    7.7827    1.3159 H   0  0  0  0  0  0  0  0  0  0  0  0
    1.4306    7.7724    0.0476 H   0  0  0  0  0  0  0  0  0  0  0  0
   -0.3091    7.8506   -0.4297 H   0  0  0  0  0  0  0  0  0  0  0  0
   -1.2613    5.6698    1.7059 H   0  0  0  0  0  0  0  0  0  0  0  0
   -1.8252    5.8904    0.0163 H   0  0  0  0  0  0  0  0  0  0  0  0
   -4.2188    3.4722    1.7183 H   0  0  0  0  0  0  0  0  0  0  0  0
   -3.7658    4.2386    3.8724 H   0  0  0  0  0  0  0  0  0  0  0  0
   -3.2288    4.6504    6.1399 H   0  0  0  0  0  0  0  0  0  0  0  0
   -2.6464    6.2029    5.4439 H   0  0  0  0  0  0  0  0  0  0  0  0
   -1.8499    4.8218    8.0756 H   0  0  0  0  0  0  0  0  0  0  0  0
   -2.4942    6.4826    7.8057 H   0  0  0  0  0  0  0  0  0  0  0  0
   -0.3612    7.0891    6.5807 H   0  0  0  0  0  0  0  0  0  0  0  0
    0.0675    5.9827    9.4308 H   0  0  0  0  0  0  0  0  0  0  0  0
    1.0985    7.2105    8.5856 H   0  0  0  0  0  0  0  0  0  0  0  0
   -0.6106    7.6043    8.9956 H   0  0  0  0  0  0  0  0  0  0  0  0
    1.5693    5.6045    6.6321 H   0  0  0  0  0  0  0  0  0  0  0  0
    0.6871    4.3631    7.5962 H   0  0  0  0  0  0  0  0  0  0  0  0
    2.8675    4.3387    5.2881 H   0  0  0  0  0  0  0  0  0  0  0  0
    4.1251    2.7890    4.1048 H   0  0  0  0  0  0  0  0  0  0  0  0
    4.1860   -2.3146   -0.2196 H   0  0  0  0  0  0  0  0  0  0  0  0
    4.8200   -0.7724    0.4506 H   0  0  0  0  0  0  0  0  0  0  0  0
    4.3035   -0.6261   -2.0076 H   0  0  0  0  0  0  0  0  0  0  0  0
    3.3153    0.5349   -1.0327 H   0  0  0  0  0  0  0  0  0  0  0  0
    2.5830   -1.0080   -1.6526 H   0  0  0  0  0  0  0  0  0  0  0  0
    4.0299    1.3165    1.7703 H   0  0  0  0  0  0  0  0  0  0  0  0
    2.1671   -3.8387   -0.1750 H   0  0  0  0  0  0  0  0  0  0  0  0
   -0.7449   -6.1929    3.6877 H   0  0  0  0  0  0  0  0  0  0  0  0
   -1.8236   -4.9075    3.0579 H   0  0  0  0  0  0  0  0  0  0  0  0
   -3.0449   -6.7264    4.2668 H   0  0  0  0  0  0  0  0  0  0  0  0
   -3.6193   -6.3844    2.5939 H   0  0  0  0  0  0  0  0  0  0  0  0
   -1.6588   -8.6538    3.3524 H   0  0  0  0  0  0  0  0  0  0  0  0
   -4.6854   -8.7351    2.7309 H   0  0  0  0  0  0  0  0  0  0  0  0
   -3.5989  -10.1800    2.8534 H   0  0  0  0  0  0  0  0  0  0  0  0
   -3.8684   -9.1330    4.2939 H   0  0  0  0  0  0  0  0  0  0  0  0
   -1.8485   -9.3947    1.0790 H   0  0  0  0  0  0  0  0  0  0  0  0
   -3.2152   -8.2810    0.7152 H   0  0  0  0  0  0  0  0  0  0  0  0
   -0.9155   -9.4035   -1.2578 H   0  0  0  0  0  0  0  0  0  0  0  0
   -1.4125   -8.8659   -3.5038 H   0  0  0  0  0  0  0  0  0  0  0  0
   -0.8783   -3.3369   -7.5780 H   0  0  0  0  0  0  0  0  0  0  0  0
   -0.2521   -4.9377   -7.0471 H   0  0  0  0  0  0  0  0  0  0  0  0
   -3.1210   -4.3335   -8.0436 H   0  0  0  0  0  0  0  0  0  0  0  0
   -1.8104   -5.1805   -8.9687 H   0  0  0  0  0  0  0  0  0  0  0  0
   -2.5199   -5.9636   -7.4994 H   0  0  0  0  0  0  0  0  0  0  0  0
   -0.7316   -6.7875   -5.2788 H   0  0  0  0  0  0  0  0  0  0  0  0
   -2.4836   -1.4713   -6.8931 H   0  0  0  0  0  0  0  0  0  0  0  0
   -3.9440   -0.0560   -5.2231 H   0  0  0  0  0  0  0  0  0  0  0  0
  1  2  1  0
  2  3  1  0
  3  4  2  0
  4  5  1  0
  5  6  1  0
  6  7  1  0
  7  8  1  0
  8  9  1  0
  8 10  1  0
  3 11  1  0
 11 12  2  3
 12 13  1  0
 13 14  1  0
 14 15  1  0
 15 16  2  0
 16 17  1  0
 17 18  1  0
 18 19  1  0
 19 20  1  0
 20 21  1  0
 20 22  1  0
 15 23  1  0
 23 24  2  3
 24 25  1  0
 25 26  1  0
 26 27  1  0
 27 28  2  0
 28 29  1  0
 29 30  1  0
 30 31  1  0
 31 32  1  0
 32 33  1  0
 32 34  1  0
 27 35  1  0
 35 36  2  3
 36 37  1  0
 37 38  1  0
 38 39  1  0
 39 40  1  0
 40 41  2  0
 41 42  1  0
 42 43  1  0
 43 44  1  0
 42 45  1  0
 45 46  1  0
 41 47  1  0
 47 48  2  0
 48 49  1  0
 48 50  1  0
 50 51  1  0
 51 52  1  0
 52 53  2  0
 53 54  1  0
 54 55  1  0
 55 56  1  0
 56 57  1  0
 57 58  1  0
 57 59  1  0
 52 60  1  0
 60 61  2  3
 61 62  1  0
 62 63  1  0
 63 64  1  0
 64 65  1  0
 65 66  2  0
 66 67  1  0
 67 68  1  0
 68 69  1  0
 67 70  1  0
 70 71  1  0
 66 72  1  0
 72 73  2  0
 73 74  1  0
  5  1  2  0
 17 13  2  0
 29 25  2  0
 46 37  2  0
 54 50  2  0
 71 62  2  0
 10  4  1  0
 22 16  1  0
 34 28  1  0
 45 39  2  0
 59 53  1  0
 70 64  2  0
 49 40  1  0
 74 65  1  0
  1 75  1  0
  6 76  1  0
  6 77  1  0
  7 78  1  0
  7 79  1  0
  8 80  1  1
  9 81  1  0
  9 82  1  0
  9 83  1  0
 10 84  1  0
 10 85  1  0
 11 86  1  0
 12 87  1  0
 18 88  1  0
 18 89  1  0
 19 90  1  0
 19 91  1  0
 20 92  1  1
 21 93  1  0
 21 94  1  0
 21 95  1  0
 22 96  1  0
 22 97  1  0
 23 98  1  0
 24 99  1  0
 30100  1  0
 30101  1  0
 31102  1  0
 31103  1  0
 32104  1  6
 33105  1  0
 33106  1  0
 33107  1  0
 34108  1  0
 34109  1  0
 35110  1  0
 36111  1  0
 43112  1  0
 43113  1  0
 44114  1  0
 44115  1  0
 44116  1  0
 46117  1  0
 47118  1  0
 55119  1  0
 55120  1  0
 56121  1  0
 56122  1  0
 57123  1  1
 58124  1  0
 58125  1  0
 58126  1  0
 59127  1  0
 59128  1  0
 60129  1  0
 61130  1  0
 68131  1  0
 68132  1  0
 69133  1  0
 69134  1  0
 69135  1  0
 71136  1  0
 72137  1  0
 73138  1  0
M  END

