
     RDKit          3D

134148  0  0  0  0  0  0  0  0999 V2000
    5.2601   12.9441    3.2618 C   0  0  0  0  0  0  0  0  0  0  0  0
    4.2857   12.1383    4.4094 S   0  0  0  0  0  0  0  0  0  0  0  0
    3.9398   10.8872    3.3575 C   0  0  0  0  0  0  0  0  0  0  0  0
    3.4456    9.6177    3.3688 C   0  0  0  0  0  0  0  0  0  0  0  0
    3.8045    9.0654    2.1835 C   0  0  0  0  0  0  0  0  0  0  0  0
    4.5137    9.9238    1.4047 N   0  0  0  0  0  0  0  0  0  0  0  0
    5.2790    9.6166    0.1975 C   0  0  0  0  0  0  0  0  0  0  0  0
    6.6598    9.0799    0.5577 C   0  0  0  0  0  0  0  0  0  0  0  0
    4.5835   11.0388    2.1745 C   0  0  0  0  0  0  0  0  0  0  0  0
    5.3554   12.1903    2.0783 C   0  0  0  0  0  0  0  0  0  0  0  0
    3.5811    7.6970    2.0865 C   0  0  0  0  0  0  0  0  0  0  0  0
    3.0097    7.2106    3.2792 C   0  0  0  0  0  0  0  0  0  0  0  0
    2.8588    8.4732    4.4342 S   0  0  0  0  0  0  0  0  0  0  0  0
    2.6637    5.8050    3.5416 C   0  0  0  0  0  0  0  0  0  0  0  0
    2.1793    5.1984    5.0734 S   0  0  0  0  0  0  0  0  0  0  0  0
    1.9620    3.6543    4.4720 C   0  0  0  0  0  0  0  0  0  0  0  0
    1.4738    2.4240    4.8219 C   0  0  0  0  0  0  0  0  0  0  0  0
    1.4626    1.6847    3.6851 C   0  0  0  0  0  0  0  0  0  0  0  0
    1.8991    2.3887    2.6109 N   0  0  0  0  0  0  0  0  0  0  0  0
    2.0170    1.9383    1.2312 C   0  0  0  0  0  0  0  0  0  0  0  0
    3.3900    1.3191    0.9985 C   0  0  0  0  0  0  0  0  0  0  0  0
    2.2134    3.5988    3.1414 C   0  0  0  0  0  0  0  0  0  0  0  0
    2.6221    4.7914    2.5671 C   0  0  0  0  0  0  0  0  0  0  0  0
    0.8917    0.4279    3.7995 C   0  0  0  0  0  0  0  0  0  0  0  0
    0.4609    0.2173    5.1168 C   0  0  0  0  0  0  0  0  0  0  0  0
    0.7462    1.6089    6.0880 S   0  0  0  0  0  0  0  0  0  0  0  0
   -0.3214   -0.9475    5.5469 C   0  0  0  0  0  0  0  0  0  0  0  0
   -1.7583   -0.8480    6.4168 S   0  0  0  0  0  0  0  0  0  0  0  0
   -2.1440   -2.4806    6.3298 C   0  0  0  0  0  0  0  0  0  0  0  0
   -1.1227   -3.1459    5.6513 C   0  0  0  0  0  0  0  0  0  0  0  0
   -0.1005   -2.2863    5.2053 C   0  0  0  0  0  0  0  0  0  0  0  0
    1.1849   -2.8054    4.6085 C   0  0  0  0  0  0  0  0  0  0  0  0
    1.0671   -4.2633    4.1412 C   0  0  0  0  0  0  0  0  0  0  0  0
    0.3137   -5.1616    5.1461 C   0  0  1  0  0  0  0  0  0  0  0  0
    1.0808   -5.3136    6.4684 C   0  0  0  0  0  0  0  0  0  0  0  0
   -1.1146   -4.6275    5.3806 C   0  0  0  0  0  0  0  0  0  0  0  0
   -3.3818   -3.0729    6.8538 C   0  0  0  0  0  0  0  0  0  0  0  0
   -4.2930   -3.6785    6.0724 C   0  0  0  0  0  0  0  0  0  0  0  0
   -4.2945   -3.6152    4.6008 C   0  0  0  0  0  0  0  0  0  0  0  0
   -4.7723   -4.9269    3.6070 S   0  0  0  0  0  0  0  0  0  0  0  0
   -4.5273   -4.0475    2.2098 C   0  0  0  0  0  0  0  0  0  0  0  0
   -4.5181   -4.1696    0.8530 C   0  0  0  0  0  0  0  0  0  0  0  0
   -4.0845   -2.9850    0.3564 C   0  0  0  0  0  0  0  0  0  0  0  0
   -3.8155   -2.0909    1.3449 N   0  0  0  0  0  0  0  0  0  0  0  0
   -3.3170   -0.7174    1.2432 C   0  0  0  0  0  0  0  0  0  0  0  0
   -4.4273    0.2672    1.5987 C   0  0  0  0  0  0  0  0  0  0  0  0
   -4.1011   -2.7905    2.4749 C   0  0  0  0  0  0  0  0  0  0  0  0
   -3.9546   -2.4921    3.8220 C   0  0  0  0  0  0  0  0  0  0  0  0
   -3.8690   -2.9742   -1.0225 C   0  0  0  0  0  0  0  0  0  0  0  0
   -4.1883   -4.2368   -1.5756 C   0  0  0  0  0  0  0  0  0  0  0  0
   -4.6791   -5.3221   -0.3379 S   0  0  0  0  0  0  0  0  0  0  0  0
   -3.9511   -4.6410   -2.9781 C   0  0  0  0  0  0  0  0  0  0  0  0
   -2.7434   -4.0044   -3.9585 S   0  0  0  0  0  0  0  0  0  0  0  0
   -2.9239   -5.0621   -5.2603 C   0  0  0  0  0  0  0  0  0  0  0  0
   -4.0091   -5.9049   -4.9558 C   0  0  0  0  0  0  0  0  0  0  0  0
   -4.5632   -5.6860   -3.6827 C   0  0  0  0  0  0  0  0  0  0  0  0
   -5.7631   -6.4511   -3.1726 C   0  0  0  0  0  0  0  0  0  0  0  0
   -6.4073   -7.4260   -4.1906 C   0  0  0  0  0  0  0  0  0  0  0  0
   -6.0904   -7.1177   -5.6685 C   0  0  1  0  0  0  0  0  0  0  0  0
   -6.8607   -5.8863   -6.1731 C   0  0  0  0  0  0  0  0  0  0  0  0
   -4.5726   -6.9667   -5.8700 C   0  0  0  0  0  0  0  0  0  0  0  0
   -2.1232   -5.1241   -6.5123 C   0  0  0  0  0  0  0  0  0  0  0  0
   -1.0513   -4.3968   -6.8713 C   0  0  0  0  0  0  0  0  0  0  0  0
   -0.3056   -3.4086   -6.0710 C   0  0  0  0  0  0  0  0  0  0  0  0
    0.3895   -3.7035   -4.5607 S   0  0  0  0  0  0  0  0  0  0  0  0
    1.3521   -2.3248   -4.5063 C   0  0  0  0  0  0  0  0  0  0  0  0
    1.2360   -1.6610   -5.7396 C   0  0  0  0  0  0  0  0  0  0  0  0
    0.3011   -2.2649   -6.6047 C   0  0  0  0  0  0  0  0  0  0  0  0
    0.1031   -1.8147   -8.0393 C   0  0  0  0  0  0  0  0  0  0  0  0
    0.7843   -0.4781   -8.3587 C   0  0  0  0  0  0  0  0  0  0  0  0
    2.1657   -0.3735   -7.6952 C   0  0  1  0  0  0  0  0  0  0  0  0
    2.8614    0.9270   -8.1090 C   0  0  0  0  0  0  0  0  0  0  0  0
    2.0395   -0.4582   -6.1621 C   0  0  0  0  0  0  0  0  0  0  0  0
    2.2043   -1.9959   -3.3474 C   0  0  0  0  0  0  0  0  0  0  0  0
    2.5017   -0.7400   -2.9950 C   0  0  0  0  0  0  0  0  0  0  0  0
    5.7725   13.8802    3.4372 H   0  0  0  0  0  0  0  0  0  0  0  0
    5.3846   10.5269   -0.4256 H   0  0  0  0  0  0  0  0  0  0  0  0
    4.7335    8.8576   -0.4072 H   0  0  0  0  0  0  0  0  0  0  0  0
    7.2173    8.8285   -0.3704 H   0  0  0  0  0  0  0  0  0  0  0  0
    6.5666    8.1666    1.1737 H   0  0  0  0  0  0  0  0  0  0  0  0
    7.2296    9.8450    1.1244 H   0  0  0  0  0  0  0  0  0  0  0  0
    5.9726   12.4575    1.2242 H   0  0  0  0  0  0  0  0  0  0  0  0
    3.8530    7.0905    1.2302 H   0  0  0  0  0  0  0  0  0  0  0  0
    1.8696    2.7930    0.5348 H   0  0  0  0  0  0  0  0  0  0  0  0
    1.2278    1.1834    1.0057 H   0  0  0  0  0  0  0  0  0  0  0  0
    3.4601    0.9395   -0.0420 H   0  0  0  0  0  0  0  0  0  0  0  0
    4.1800    2.0799    1.1406 H   0  0  0  0  0  0  0  0  0  0  0  0
    3.5515    0.4759    1.7062 H   0  0  0  0  0  0  0  0  0  0  0  0
    2.8344    4.9230    1.5157 H   0  0  0  0  0  0  0  0  0  0  0  0
    0.7182   -0.2393    2.9698 H   0  0  0  0  0  0  0  0  0  0  0  0
    1.9865   -2.7249    5.3802 H   0  0  0  0  0  0  0  0  0  0  0  0
    1.4941   -2.1964    3.7397 H   0  0  0  0  0  0  0  0  0  0  0  0
    0.5335   -4.2910    3.1664 H   0  0  0  0  0  0  0  0  0  0  0  0
    2.0832   -4.6723    3.9652 H   0  0  0  0  0  0  0  0  0  0  0  0
    0.2315   -6.1807    4.6993 H   0  0  0  0  0  0  0  0  0  0  0  0
    2.1179   -5.6638    6.2724 H   0  0  0  0  0  0  0  0  0  0  0  0
    1.1277   -4.3530    7.0195 H   0  0  0  0  0  0  0  0  0  0  0  0
    0.5783   -6.0603    7.1119 H   0  0  0  0  0  0  0  0  0  0  0  0
   -1.5921   -5.1804    6.2234 H   0  0  0  0  0  0  0  0  0  0  0  0
   -1.7140   -4.8156    4.4649 H   0  0  0  0  0  0  0  0  0  0  0  0
   -3.5277   -3.0819    7.9274 H   0  0  0  0  0  0  0  0  0  0  0  0
   -5.0852   -4.2401    6.5532 H   0  0  0  0  0  0  0  0  0  0  0  0
   -2.9675   -0.5116    0.2161 H   0  0  0  0  0  0  0  0  0  0  0  0
   -2.4611   -0.5849    1.9377 H   0  0  0  0  0  0  0  0  0  0  0  0
   -4.8851    0.0061    2.5708 H   0  0  0  0  0  0  0  0  0  0  0  0
   -5.2103    0.2583    0.8083 H   0  0  0  0  0  0  0  0  0  0  0  0
   -4.0039    1.2840    1.6806 H   0  0  0  0  0  0  0  0  0  0  0  0
   -3.6280   -1.5345    4.2092 H   0  0  0  0  0  0  0  0  0  0  0  0
   -3.4799   -2.1268   -1.5745 H   0  0  0  0  0  0  0  0  0  0  0  0
   -5.4710   -7.0497   -2.2869 H   0  0  0  0  0  0  0  0  0  0  0  0
   -6.5345   -5.7170   -2.8536 H   0  0  0  0  0  0  0  0  0  0  0  0
   -6.0896   -8.4751   -3.9656 H   0  0  0  0  0  0  0  0  0  0  0  0
   -7.5149   -7.4038   -4.0468 H   0  0  0  0  0  0  0  0  0  0  0  0
   -6.4273   -7.9904   -6.2727 H   0  0  0  0  0  0  0  0  0  0  0  0
   -6.6295   -4.9952   -5.5491 H   0  0  0  0  0  0  0  0  0  0  0  0
   -7.9559   -6.0759   -6.1367 H   0  0  0  0  0  0  0  0  0  0  0  0
   -6.5861   -5.6740   -7.2273 H   0  0  0  0  0  0  0  0  0  0  0  0
   -4.0709   -7.9349   -5.6494 H   0  0  0  0  0  0  0  0  0  0  0  0
   -4.3980   -6.7244   -6.9395 H   0  0  0  0  0  0  0  0  0  0  0  0
   -2.4486   -5.8338   -7.2616 H   0  0  0  0  0  0  0  0  0  0  0  0
   -0.6847   -4.5547   -7.8754 H   0  0  0  0  0  0  0  0  0  0  0  0
    0.5103   -2.6062   -8.7158 H   0  0  0  0  0  0  0  0  0  0  0  0
   -0.9890   -1.7140   -8.2506 H   0  0  0  0  0  0  0  0  0  0  0  0
    0.8939   -0.3920   -9.4632 H   0  0  0  0  0  0  0  0  0  0  0  0
    0.1371    0.3692   -8.0250 H   0  0  0  0  0  0  0  0  0  0  0  0
    2.7932   -1.2230   -8.0404 H   0  0  0  0  0  0  0  0  0  0  0  0
    3.8618    0.9932   -7.6277 H   0  0  0  0  0  0  0  0  0  0  0  0
    3.0185    0.9470   -9.2065 H   0  0  0  0  0  0  0  0  0  0  0  0
    2.2645    1.8082   -7.8064 H   0  0  0  0  0  0  0  0  0  0  0  0
    1.5397    0.4576   -5.7775 H   0  0  0  0  0  0  0  0  0  0  0  0
    3.0613   -0.5150   -5.7332 H   0  0  0  0  0  0  0  0  0  0  0  0
    2.5204   -2.8009   -2.6851 H   0  0  0  0  0  0  0  0  0  0  0  0
    3.0832   -0.5633   -2.0972 H   0  0  0  0  0  0  0  0  0  0  0  0
    2.1300    0.1187   -3.5420 H   0  0  0  0  0  0  0  0  0  0  0  0
  1  2  1  0
  2  3  1  0
  3  4  1  0
  4  5  2  0
  5  6  1  0
  6  7  1  0
  7  8  1  0
  6  9  1  0
  9 10  1  0
  5 11  1  0
 11 12  2  0
 12 13  1  0
 12 14  1  0
 14 15  1  0
 15 16  1  0
 16 17  1  0
 17 18  2  0
 18 19  1  0
 19 20  1  0
 20 21  1  0
 19 22  1  0
 22 23  1  0
 18 24  1  0
 24 25  2  0
 25 26  1  0
 25 27  1  0
 27 28  1  0
 28 29  1  0
 29 30  2  0
 30 31  1  0
 31 32  1  0
 32 33  1  0
 33 34  1  0
 34 35  1  0
 34 36  1  0
 29 37  1  0
 37 38  2  3
 38 39  1  0
 39 40  1  0
 40 41  1  0
 41 42  1  0
 42 43  2  0
 43 44  1  0
 44 45  1  0
 45 46  1  0
 44 47  1  0
 47 48  1  0
 43 49  1  0
 49 50  2  0
 50 51  1  0
 50 52  1  0
 52 53  1  0
 53 54  1  0
 54 55  2  0
 55 56  1  0
 56 57  1  0
 57 58  1  0
 58 59  1  0
 59 60  1  0
 59 61  1  0
 54 62  1  0
 62 63  2  3
 63 64  1  0
 64 65  1  0
 65 66  1  0
 66 67  2  0
 67 68  1  0
 68 69  1  0
 69 70  1  0
 70 71  1  0
 71 72  1  0
 71 73  1  0
 66 74  1  0
 74 75  2  3
 10  1  2  0
 23 14  2  0
 31 27  2  0
 48 39  2  0
 56 52  2  0
 68 64  2  0
  9  3  2  0
 22 16  2  0
 36 30  1  0
 47 41  2  0
 61 55  1  0
 73 67  1  0
 13  4  1  0
 26 17  1  0
 51 42  1  0
  1 76  1  0
  7 77  1  0
  7 78  1  0
  8 79  1  0
  8 80  1  0
  8 81  1  0
 10 82  1  0
 11 83  1  0
 20 84  1  0
 20 85  1  0
 21 86  1  0
 21 87  1  0
 21 88  1  0
 23 89  1  0
 24 90  1  0
 32 91  1  0
 32 92  1  0
 33 93  1  0
 33 94  1  0
 34 95  1  6
 35 96  1  0
 35 97  1  0
 35 98  1  0
 36 99  1  0
 36100  1  0
 37101  1  0
 38102  1  0
 45103  1  0
 45104  1  0
 46105  1  0
 46106  1  0
 46107  1  0
 48108  1  0
 49109  1  0
 57110  1  0
 57111  1  0
 58112  1  0
 58113  1  0
 59114  1  6
 60115  1  0
 60116  1  0
 60117  1  0
 61118  1  0
 61119  1  0
 62120  1  0
 63121  1  0
 69122  1  0
 69123  1  0
 70124  1  0
 70125  1  0
 71126  1  6
 72127  1  0
 72128  1  0
 72129  1  0
 73130  1  0
 73131  1  0
 74132  1  0
 75133  1  0
 75134  1  0
M  END

