
     RDKit          3D

232253  0  0  0  0  0  0  0  0999 V2000
    2.1707    0.1993    9.6753 C   0  0  0  0  0  0  0  0  0  0  0  0
    1.0108   -0.0123    9.0917 O   0  0  0  0  0  0  0  0  0  0  0  0
    0.1985   -0.6288    9.9294 C   0  0  0  0  0  0  0  0  0  0  0  0
    0.8570   -0.8145   11.1384 C   0  0  0  0  0  0  0  0  0  0  0  0
    2.1277   -0.3000   10.9627 C   0  0  0  0  0  0  0  0  0  0  0  0
    3.1671   -0.3141   11.9011 O   0  0  0  0  0  0  0  0  0  0  0  0
    4.4909    0.0986   11.5896 C   0  0  0  0  0  0  0  0  0  0  0  0
    0.3263   -1.4056   12.2902 O   0  0  0  0  0  0  0  0  0  0  0  0
    1.0321   -1.5255   13.5173 C   0  0  0  0  0  0  0  0  0  0  0  0
   -1.1667   -1.0343    9.5346 C   0  0  0  0  0  0  0  0  0  0  0  0
   -1.7203   -0.6229    8.4109 O   0  0  0  0  0  0  0  0  0  0  0  0
   -2.9039   -1.1801    8.2742 C   0  0  0  0  0  0  0  0  0  0  0  0
   -3.1614   -1.9734    9.3808 C   0  0  0  0  0  0  0  0  0  0  0  0
   -2.0334   -1.9060   10.1777 C   0  0  0  0  0  0  0  0  0  0  0  0
   -1.7840   -2.5964   11.3679 O   0  0  0  0  0  0  0  0  0  0  0  0
   -2.6702   -3.5546   11.9239 C   0  0  0  0  0  0  0  0  0  0  0  0
   -4.3161   -2.7145    9.6427 O   0  0  0  0  0  0  0  0  0  0  0  0
   -5.5989   -2.1066    9.7598 C   0  0  0  0  0  0  0  0  0  0  0  0
   -3.7309   -1.0239    7.0696 C   0  0  0  0  0  0  0  0  0  0  0  0
   -4.6420   -1.9569    6.5719 C   0  0  0  0  0  0  0  0  0  0  0  0
   -5.1587   -1.6068    5.3140 C   0  0  0  0  0  0  0  0  0  0  0  0
   -6.0340   -2.3838    4.5184 C   0  0  0  0  0  0  0  0  0  0  0  0
   -6.5565   -3.6851    4.9895 C   0  0  0  0  0  0  0  0  0  0  0  0
   -7.9244   -3.8369    5.2578 C   0  0  0  0  0  0  0  0  0  0  0  0
   -8.4029   -5.0153    5.8406 C   0  0  0  0  0  0  0  0  0  0  0  0
   -7.5191   -6.0562    6.1505 C   0  0  0  0  0  0  0  0  0  0  0  0
   -8.1110   -7.5146    7.0176 S   0  0  0  0  0  0  0  0  0  0  0  0
   -8.6836   -8.3876    5.5231 C   0  0  0  0  0  0  0  0  0  0  0  0
   -8.5105   -9.8874    5.7216 C   0  0  0  0  0  0  0  0  0  0  0  0
   -6.1580   -5.9267    5.8389 C   0  0  0  0  0  0  0  0  0  0  0  0
   -5.2914   -6.9328    6.1248 F   0  0  0  0  0  0  0  0  0  0  0  0
   -5.6779   -4.7455    5.2610 C   0  0  0  0  0  0  0  0  0  0  0  0
   -6.3753   -1.8623    3.2548 C   0  0  0  0  0  0  0  0  0  0  0  0
   -5.9033   -0.6257    2.8063 C   0  0  0  0  0  0  0  0  0  0  0  0
   -5.0124    0.1399    3.5878 C   0  0  0  0  0  0  0  0  0  0  0  0
   -4.3699    1.3672    3.0639 C   0  0  0  0  0  0  0  0  0  0  0  0
   -4.5697    2.6054    3.6928 C   0  0  0  0  0  0  0  0  0  0  0  0
   -3.9712    3.7613    3.1802 C   0  0  0  0  0  0  0  0  0  0  0  0
   -3.1688    3.6920    2.0357 C   0  0  0  0  0  0  0  0  0  0  0  0
   -2.4499    5.1905    1.3529 S   0  0  0  0  0  0  0  0  0  0  0  0
   -0.9961    5.2201    2.4600 C   0  0  0  0  0  0  0  0  0  0  0  0
    0.0571    4.2037    2.0332 C   0  0  0  0  0  0  0  0  0  0  0  0
   -2.9711    2.4601    1.4024 C   0  0  0  0  0  0  0  0  0  0  0  0
   -3.5580    1.3023    1.9208 C   0  0  0  0  0  0  0  0  0  0  0  0
   -2.2119    2.3762    0.2804 F   0  0  0  0  0  0  0  0  0  0  0  0
   -4.6647   -0.3839    4.8442 C   0  0  0  0  0  0  0  0  0  0  0  0
   -3.5638    0.2297    5.9562 S   0  0  0  0  0  0  0  0  0  0  0  0
   -6.3173   -0.3159    1.5075 C   0  0  0  0  0  0  0  0  0  0  0  0
   -7.0426   -1.3374    0.8965 C   0  0  0  0  0  0  0  0  0  0  0  0
   -7.2096   -2.6172    1.9908 S   0  0  0  0  0  0  0  0  0  0  0  0
   -7.2114   -1.4059   -0.5631 C   0  0  0  0  0  0  0  0  0  0  0  0
   -7.2390   -0.2489   -1.3416 C   0  0  0  0  0  0  0  0  0  0  0  0
   -6.6017   -0.3891   -2.5837 C   0  0  0  0  0  0  0  0  0  0  0  0
   -6.2111    0.6803   -3.4173 C   0  0  0  0  0  0  0  0  0  0  0  0
   -6.5083    2.0859   -3.0687 C   0  0  0  0  0  0  0  0  0  0  0  0
   -5.9427    2.6610   -1.9198 C   0  0  0  0  0  0  0  0  0  0  0  0
   -6.2205    3.9904   -1.5928 C   0  0  0  0  0  0  0  0  0  0  0  0
   -7.0496    4.7609   -2.4155 C   0  0  0  0  0  0  0  0  0  0  0  0
   -7.3984    6.4704   -1.9851 S   0  0  0  0  0  0  0  0  0  0  0  0
   -8.9558    6.1096   -1.1003 C   0  0  0  0  0  0  0  0  0  0  0  0
   -8.6851    5.6626    0.3318 C   0  0  0  0  0  0  0  0  0  0  0  0
   -7.5827    4.1985   -3.5847 C   0  0  0  0  0  0  0  0  0  0  0  0
   -8.3676    4.9409   -4.4040 F   0  0  0  0  0  0  0  0  0  0  0  0
   -7.3153    2.8641   -3.9084 C   0  0  0  0  0  0  0  0  0  0  0  0
   -5.3146    0.3809   -4.4528 C   0  0  0  0  0  0  0  0  0  0  0  0
   -4.8405   -0.9127   -4.6898 C   0  0  0  0  0  0  0  0  0  0  0  0
   -5.2977   -1.9988   -3.9103 C   0  0  0  0  0  0  0  0  0  0  0  0
   -4.7967   -3.3753   -4.1332 C   0  0  0  0  0  0  0  0  0  0  0  0
   -4.0815   -4.0582   -3.1355 C   0  0  0  0  0  0  0  0  0  0  0  0
   -3.6663   -5.3775   -3.3435 C   0  0  0  0  0  0  0  0  0  0  0  0
   -3.9345   -6.0171   -4.5579 C   0  0  0  0  0  0  0  0  0  0  0  0
   -3.4738   -7.7397   -4.7886 S   0  0  0  0  0  0  0  0  0  0  0  0
   -1.8572   -7.3880   -5.5613 C   0  0  0  0  0  0  0  0  0  0  0  0
   -0.7743   -7.2259   -4.5026 C   0  0  0  0  0  0  0  0  0  0  0  0
   -4.6180   -5.3290   -5.5683 C   0  0  0  0  0  0  0  0  0  0  0  0
   -5.0465   -4.0149   -5.3566 C   0  0  0  0  0  0  0  0  0  0  0  0
   -4.8878   -5.9360   -6.7517 F   0  0  0  0  0  0  0  0  0  0  0  0
   -6.1561   -1.6900   -2.8339 C   0  0  0  0  0  0  0  0  0  0  0  0
   -6.5209   -2.6413   -1.4890 S   0  0  0  0  0  0  0  0  0  0  0  0
   -3.7191   -0.9391   -5.5399 C   0  0  0  0  0  0  0  0  0  0  0  0
   -3.2789    0.3369   -5.9170 C   0  0  0  0  0  0  0  0  0  0  0  0
   -4.3390    1.4772   -5.2690 S   0  0  0  0  0  0  0  0  0  0  0  0
   -1.8793    0.6598   -6.2536 C   0  0  0  0  0  0  0  0  0  0  0  0
   -0.9025   -0.2796   -6.5805 C   0  0  0  0  0  0  0  0  0  0  0  0
    0.4099    0.1652   -6.3181 C   0  0  0  0  0  0  0  0  0  0  0  0
    1.5864   -0.6076   -6.4026 C   0  0  0  0  0  0  0  0  0  0  0  0
    1.5712   -2.0126   -6.8607 C   0  0  0  0  0  0  0  0  0  0  0  0
    0.7931   -2.9734   -6.1933 C   0  0  0  0  0  0  0  0  0  0  0  0
    0.7452   -4.2865   -6.6637 C   0  0  0  0  0  0  0  0  0  0  0  0
    1.4919   -4.6644   -7.7833 C   0  0  0  0  0  0  0  0  0  0  0  0
    1.4179   -6.3604   -8.3744 S   0  0  0  0  0  0  0  0  0  0  0  0
    0.1859   -6.0302   -9.6821 C   0  0  0  0  0  0  0  0  0  0  0  0
   -1.2272   -6.0172   -9.1184 C   0  0  0  0  0  0  0  0  0  0  0  0
    2.3053   -3.7217   -8.4251 C   0  0  0  0  0  0  0  0  0  0  0  0
    3.0496   -4.0754   -9.5021 F   0  0  0  0  0  0  0  0  0  0  0  0
    2.3376   -2.3983   -7.9707 C   0  0  0  0  0  0  0  0  0  0  0  0
    2.7753   -0.0118   -5.9480 C   0  0  0  0  0  0  0  0  0  0  0  0
    2.8258    1.2872   -5.4332 C   0  0  0  0  0  0  0  0  0  0  0  0
    1.6523    2.0715   -5.3693 C   0  0  0  0  0  0  0  0  0  0  0  0
    1.6312    3.4118   -4.7398 C   0  0  0  0  0  0  0  0  0  0  0  0
    0.8211    3.6510   -3.6182 C   0  0  0  0  0  0  0  0  0  0  0  0
    0.7234    4.9346   -3.0776 C   0  0  0  0  0  0  0  0  0  0  0  0
    1.4510    5.9889   -3.6354 C   0  0  0  0  0  0  0  0  0  0  0  0
    1.2520    7.6493   -2.9753 S   0  0  0  0  0  0  0  0  0  0  0  0
    2.4335    7.4384   -1.5977 C   0  0  0  0  0  0  0  0  0  0  0  0
    3.8660    7.6101   -2.0779 C   0  0  0  0  0  0  0  0  0  0  0  0
    2.2836    5.7531   -4.7391 C   0  0  0  0  0  0  0  0  0  0  0  0
    2.3741    4.4677   -5.2889 C   0  0  0  0  0  0  0  0  0  0  0  0
    2.9869    6.7686   -5.2989 F   0  0  0  0  0  0  0  0  0  0  0  0
    0.4629    1.4736   -5.8301 C   0  0  0  0  0  0  0  0  0  0  0  0
   -1.1066    2.0648   -5.7188 S   0  0  0  0  0  0  0  0  0  0  0  0
    4.0811    1.6185   -4.8854 C   0  0  0  0  0  0  0  0  0  0  0  0
    5.0016    0.5705   -4.9604 C   0  0  0  0  0  0  0  0  0  0  0  0
    4.2670   -0.7500   -5.7098 S   0  0  0  0  0  0  0  0  0  0  0  0
    6.3158    0.5119   -4.3030 C   0  0  0  0  0  0  0  0  0  0  0  0
    7.0324    1.5872   -3.7709 C   0  0  0  0  0  0  0  0  0  0  0  0
    8.1939    1.1848   -3.0816 C   0  0  0  0  0  0  0  0  0  0  0  0
    9.1207    2.0244   -2.4234 C   0  0  0  0  0  0  0  0  0  0  0  0
    9.0049    3.5001   -2.4301 C   0  0  0  0  0  0  0  0  0  0  0  0
   10.0555    4.2816   -2.9326 C   0  0  0  0  0  0  0  0  0  0  0  0
   10.0077    5.6739   -2.8443 C   0  0  0  0  0  0  0  0  0  0  0  0
    8.8991    6.3056   -2.2723 C   0  0  0  0  0  0  0  0  0  0  0  0
    8.8937    8.0942   -2.0987 S   0  0  0  0  0  0  0  0  0  0  0  0
    8.3396    8.4393   -3.8048 C   0  0  0  0  0  0  0  0  0  0  0  0
    6.8272    8.3230   -3.9170 C   0  0  0  0  0  0  0  0  0  0  0  0
    7.8351    5.5312   -1.7852 C   0  0  0  0  0  0  0  0  0  0  0  0
    6.7689    6.1271   -1.1984 F   0  0  0  0  0  0  0  0  0  0  0  0
    7.8916    4.1347   -1.8557 C   0  0  0  0  0  0  0  0  0  0  0  0
   10.1894    1.3917   -1.7550 C   0  0  0  0  0  0  0  0  0  0  0  0
   10.3574    0.0038   -1.7407 C   0  0  0  0  0  0  0  0  0  0  0  0
    9.4513   -0.8313   -2.4240 C   0  0  0  0  0  0  0  0  0  0  0  0
    9.5888   -2.2998   -2.4155 C   0  0  0  0  0  0  0  0  0  0  0  0
    9.8040   -2.9957   -3.6144 C   0  0  0  0  0  0  0  0  0  0  0  0
    9.9077   -4.3883   -3.6121 C   0  0  0  0  0  0  0  0  0  0  0  0
    9.8020   -5.1017   -2.4123 C   0  0  0  0  0  0  0  0  0  0  0  0
    9.8854   -6.8954   -2.4280 S   0  0  0  0  0  0  0  0  0  0  0  0
    8.0755   -7.1342   -2.5301 C   0  0  0  0  0  0  0  0  0  0  0  0
    7.5988   -7.0787   -3.9761 C   0  0  0  0  0  0  0  0  0  0  0  0
    9.6189   -4.4080   -1.2068 C   0  0  0  0  0  0  0  0  0  0  0  0
    9.4974   -3.0148   -1.2107 C   0  0  0  0  0  0  0  0  0  0  0  0
    9.5321   -5.0817   -0.0346 F   0  0  0  0  0  0  0  0  0  0  0  0
    8.3834   -0.2022   -3.0901 C   0  0  0  0  0  0  0  0  0  0  0  0
    7.1204   -0.9249   -3.9298 S   0  0  0  0  0  0  0  0  0  0  0  0
   11.4827   -0.4066   -1.0050 C   0  0  0  0  0  0  0  0  0  0  0  0
   12.1812    0.6497   -0.4298 C   0  0  0  0  0  0  0  0  0  0  0  0
   11.4161    2.0948   -0.8393 S   0  0  0  0  0  0  0  0  0  0  0  0
    3.0156    0.6844    9.2034 H   0  0  0  0  0  0  0  0  0  0  0  0
    4.5053    1.1784   11.3304 H   0  0  0  0  0  0  0  0  0  0  0  0
    5.1381   -0.0708   12.4731 H   0  0  0  0  0  0  0  0  0  0  0  0
    4.8865   -0.4965   10.7383 H   0  0  0  0  0  0  0  0  0  0  0  0
    0.3881   -2.0546   14.2525 H   0  0  0  0  0  0  0  0  0  0  0  0
    1.2819   -0.5171   13.9148 H   0  0  0  0  0  0  0  0  0  0  0  0
    1.9568   -2.1243   13.3675 H   0  0  0  0  0  0  0  0  0  0  0  0
   -2.8806   -4.3532   11.1832 H   0  0  0  0  0  0  0  0  0  0  0  0
   -2.1925   -4.0189   12.8128 H   0  0  0  0  0  0  0  0  0  0  0  0
   -3.6150   -3.0640   12.2393 H   0  0  0  0  0  0  0  0  0  0  0  0
   -6.3866   -2.8648    9.5492 H   0  0  0  0  0  0  0  0  0  0  0  0
   -5.7328   -1.7212   10.7933 H   0  0  0  0  0  0  0  0  0  0  0  0
   -5.7162   -1.2611    9.0458 H   0  0  0  0  0  0  0  0  0  0  0  0
   -4.8797   -2.8840    7.0762 H   0  0  0  0  0  0  0  0  0  0  0  0
   -8.6134   -3.0234    5.0609 H   0  0  0  0  0  0  0  0  0  0  0  0
   -9.4545   -5.1135    6.0720 H   0  0  0  0  0  0  0  0  0  0  0  0
   -8.1089   -8.0738    4.6224 H   0  0  0  0  0  0  0  0  0  0  0  0
   -9.7613   -8.1618    5.3615 H   0  0  0  0  0  0  0  0  0  0  0  0
   -7.4349  -10.1364    5.8384 H   0  0  0  0  0  0  0  0  0  0  0  0
   -9.0637  -10.2241    6.6246 H   0  0  0  0  0  0  0  0  0  0  0  0
   -8.9099  -10.4269    4.8380 H   0  0  0  0  0  0  0  0  0  0  0  0
   -4.6199   -4.6444    5.0547 H   0  0  0  0  0  0  0  0  0  0  0  0
   -5.2047    2.6770    4.5718 H   0  0  0  0  0  0  0  0  0  0  0  0
   -4.1413    4.7121    3.6691 H   0  0  0  0  0  0  0  0  0  0  0  0
   -0.5505    6.2360    2.4097 H   0  0  0  0  0  0  0  0  0  0  0  0
   -1.3058    5.0390    3.5111 H   0  0  0  0  0  0  0  0  0  0  0  0
   -0.3166    3.1707    2.1816 H   0  0  0  0  0  0  0  0  0  0  0  0
    0.9683    4.3370    2.6524 H   0  0  0  0  0  0  0  0  0  0  0  0
    0.3266    4.3491    0.9637 H   0  0  0  0  0  0  0  0  0  0  0  0
   -3.3876    0.3530    1.4259 H   0  0  0  0  0  0  0  0  0  0  0  0
   -6.0111    0.5804    0.9822 H   0  0  0  0  0  0  0  0  0  0  0  0
   -7.5438    0.7093   -0.9416 H   0  0  0  0  0  0  0  0  0  0  0  0
   -5.2970    2.0778   -1.2743 H   0  0  0  0  0  0  0  0  0  0  0  0
   -5.7915    4.4170   -0.6946 H   0  0  0  0  0  0  0  0  0  0  0  0
   -9.5457    5.3346   -1.6351 H   0  0  0  0  0  0  0  0  0  0  0  0
   -9.5638    7.0406   -1.0763 H   0  0  0  0  0  0  0  0  0  0  0  0
   -8.0804    6.4252    0.8630 H   0  0  0  0  0  0  0  0  0  0  0  0
   -8.1496    4.6913    0.3440 H   0  0  0  0  0  0  0  0  0  0  0  0
   -9.6467    5.5373    0.8732 H   0  0  0  0  0  0  0  0  0  0  0  0
   -7.7399    2.4354   -4.8075 H   0  0  0  0  0  0  0  0  0  0  0  0
   -3.8520   -3.5754   -2.1947 H   0  0  0  0  0  0  0  0  0  0  0  0
   -3.1468   -5.9053   -2.5548 H   0  0  0  0  0  0  0  0  0  0  0  0
   -1.5969   -8.2433   -6.2173 H   0  0  0  0  0  0  0  0  0  0  0  0
   -1.9112   -6.4762   -6.1927 H   0  0  0  0  0  0  0  0  0  0  0  0
   -0.7597   -8.1057   -3.8262 H   0  0  0  0  0  0  0  0  0  0  0  0
   -0.9559   -6.3122   -3.9010 H   0  0  0  0  0  0  0  0  0  0  0  0
    0.2187   -7.1390   -4.9896 H   0  0  0  0  0  0  0  0  0  0  0  0
   -5.5928   -3.5006   -6.1385 H   0  0  0  0  0  0  0  0  0  0  0  0
   -3.1390   -1.8344   -5.7150 H   0  0  0  0  0  0  0  0  0  0  0  0
   -1.1395   -1.2840   -6.8977 H   0  0  0  0  0  0  0  0  0  0  0  0
    0.2166   -2.7005   -5.3171 H   0  0  0  0  0  0  0  0  0  0  0  0
    0.1217   -5.0046   -6.1568 H   0  0  0  0  0  0  0  0  0  0  0  0
    0.2602   -6.8414  -10.4352 H   0  0  0  0  0  0  0  0  0  0  0  0
    0.3997   -5.0672  -10.1928 H   0  0  0  0  0  0  0  0  0  0  0  0
   -1.3425   -5.2013   -8.3784 H   0  0  0  0  0  0  0  0  0  0  0  0
   -1.4551   -6.9908   -8.6390 H   0  0  0  0  0  0  0  0  0  0  0  0
   -1.9532   -5.8515   -9.9421 H   0  0  0  0  0  0  0  0  0  0  0  0
    2.9533   -1.6701   -8.4878 H   0  0  0  0  0  0  0  0  0  0  0  0
    0.2493    2.8445   -3.1737 H   0  0  0  0  0  0  0  0  0  0  0  0
    0.0785    5.1084   -2.2274 H   0  0  0  0  0  0  0  0  0  0  0  0
    2.2180    8.2191   -0.8366 H   0  0  0  0  0  0  0  0  0  0  0  0
    2.3091    6.4450   -1.1116 H   0  0  0  0  0  0  0  0  0  0  0  0
    3.9700    8.5711   -2.6272 H   0  0  0  0  0  0  0  0  0  0  0  0
    4.5528    7.6239   -1.2045 H   0  0  0  0  0  0  0  0  0  0  0  0
    4.1507    6.7664   -2.7415 H   0  0  0  0  0  0  0  0  0  0  0  0
    2.9989    4.2975   -6.1575 H   0  0  0  0  0  0  0  0  0  0  0  0
    4.2889    2.5524   -4.3766 H   0  0  0  0  0  0  0  0  0  0  0  0
    6.7148    2.6158   -3.8696 H   0  0  0  0  0  0  0  0  0  0  0  0
   10.9248    3.8098   -3.3766 H   0  0  0  0  0  0  0  0  0  0  0  0
   10.8375    6.2602   -3.2136 H   0  0  0  0  0  0  0  0  0  0  0  0
    8.8330    7.7558   -4.5325 H   0  0  0  0  0  0  0  0  0  0  0  0
    8.6322    9.4808   -4.0600 H   0  0  0  0  0  0  0  0  0  0  0  0
    6.5094    7.2734   -3.7442 H   0  0  0  0  0  0  0  0  0  0  0  0
    6.5032    8.6331   -4.9345 H   0  0  0  0  0  0  0  0  0  0  0  0
    6.3445    8.9863   -3.1676 H   0  0  0  0  0  0  0  0  0  0  0  0
    7.0816    3.5461   -1.4386 H   0  0  0  0  0  0  0  0  0  0  0  0
    9.8927   -2.4571   -4.5519 H   0  0  0  0  0  0  0  0  0  0  0  0
   10.0594   -4.9136   -4.5445 H   0  0  0  0  0  0  0  0  0  0  0  0
    7.5409   -6.3737   -1.9213 H   0  0  0  0  0  0  0  0  0  0  0  0
    7.8285   -8.1348   -2.1131 H   0  0  0  0  0  0  0  0  0  0  0  0
    7.8407   -6.0989   -4.4363 H   0  0  0  0  0  0  0  0  0  0  0  0
    8.0785   -7.8869   -4.5660 H   0  0  0  0  0  0  0  0  0  0  0  0
    6.4990   -7.2195   -4.0125 H   0  0  0  0  0  0  0  0  0  0  0  0
    9.3240   -2.4913   -0.2795 H   0  0  0  0  0  0  0  0  0  0  0  0
   11.7919   -1.4364   -0.8889 H   0  0  0  0  0  0  0  0  0  0  0  0
   13.0707    0.5569    0.1782 H   0  0  0  0  0  0  0  0  0  0  0  0
  1  2  1  0
  2  3  1  0
  3  4  2  0
  4  5  1  0
  5  6  1  0
  6  7  1  0
  4  8  1  0
  8  9  1  0
  3 10  1  0
 10 11  1  0
 11 12  1  0
 12 13  2  0
 13 14  1  0
 14 15  1  0
 15 16  1  0
 13 17  1  0
 17 18  1  0
 12 19  1  0
 19 20  2  0
 20 21  1  0
 21 22  2  0
 22 23  1  0
 23 24  2  0
 24 25  1  0
 25 26  2  0
 26 27  1  0
 27 28  1  0
 28 29  1  0
 26 30  1  0
 30 31  1  0
 30 32  2  0
 22 33  1  0
 33 34  2  0
 34 35  1  0
 35 36  1  0
 36 37  2  0
 37 38  1  0
 38 39  2  0
 39 40  1  0
 40 41  1  0
 41 42  1  0
 39 43  1  0
 43 44  2  0
 43 45  1  0
 35 46  2  0
 46 47  1  0
 34 48  1  0
 48 49  2  0
 49 50  1  0
 49 51  1  0
 51 52  2  0
 52 53  1  0
 53 54  2  0
 54 55  1  0
 55 56  2  0
 56 57  1  0
 57 58  2  0
 58 59  1  0
 59 60  1  0
 60 61  1  0
 58 62  1  0
 62 63  1  0
 62 64  2  0
 54 65  1  0
 65 66  2  0
 66 67  1  0
 67 68  1  0
 68 69  2  0
 69 70  1  0
 70 71  2  0
 71 72  1  0
 72 73  1  0
 73 74  1  0
 71 75  1  0
 75 76  2  0
 75 77  1  0
 67 78  2  0
 78 79  1  0
 66 80  1  0
 80 81  2  0
 81 82  1  0
 81 83  1  0
 83 84  2  0
 84 85  1  0
 85 86  2  0
 86 87  1  0
 87 88  2  0
 88 89  1  0
 89 90  2  0
 90 91  1  0
 91 92  1  0
 92 93  1  0
 90 94  1  0
 94 95  1  0
 94 96  2  0
 86 97  1  0
 97 98  2  0
 98 99  1  0
 99100  1  0
100101  2  0
101102  1  0
102103  2  0
103104  1  0
104105  1  0
105106  1  0
103107  1  0
107108  2  0
107109  1  0
 99110  2  0
110111  1  0
 98112  1  0
112113  2  0
113114  1  0
113115  1  0
115116  2  0
116117  1  0
117118  2  0
118119  1  0
119120  2  0
120121  1  0
121122  2  0
122123  1  0
123124  1  0
124125  1  0
122126  1  0
126127  1  0
126128  2  0
118129  1  0
129130  2  0
130131  1  0
131132  1  0
132133  2  0
133134  1  0
134135  2  0
135136  1  0
136137  1  0
137138  1  0
135139  1  0
139140  2  0
139141  1  0
131142  2  0
142143  1  0
130144  1  0
144145  2  0
145146  1  0
  5  1  2  0
 14 10  2  0
 47 19  1  0
 79 51  1  0
111 83  1  0
143115  1  0
 46 21  1  0
 78 53  1  0
110 85  1  0
142117  1  0
 32 23  1  0
 50 33  1  0
 64 55  1  0
 82 65  1  0
 96 87  1  0
114 97  1  0
128119  1  0
146129  1  0
 44 36  1  0
 76 68  1  0
108100  1  0
140132  1  0
  1147  1  0
  7148  1  0
  7149  1  0
  7150  1  0
  9151  1  0
  9152  1  0
  9153  1  0
 16154  1  0
 16155  1  0
 16156  1  0
 18157  1  0
 18158  1  0
 18159  1  0
 20160  1  0
 24161  1  0
 25162  1  0
 28163  1  0
 28164  1  0
 29165  1  0
 29166  1  0
 29167  1  0
 32168  1  0
 37169  1  0
 38170  1  0
 41171  1  0
 41172  1  0
 42173  1  0
 42174  1  0
 42175  1  0
 44176  1  0
 48177  1  0
 52178  1  0
 56179  1  0
 57180  1  0
 60181  1  0
 60182  1  0
 61183  1  0
 61184  1  0
 61185  1  0
 64186  1  0
 69187  1  0
 70188  1  0
 73189  1  0
 73190  1  0
 74191  1  0
 74192  1  0
 74193  1  0
 76194  1  0
 80195  1  0
 84196  1  0
 88197  1  0
 89198  1  0
 92199  1  0
 92200  1  0
 93201  1  0
 93202  1  0
 93203  1  0
 96204  1  0
101205  1  0
102206  1  0
105207  1  0
105208  1  0
106209  1  0
106210  1  0
106211  1  0
108212  1  0
112213  1  0
116214  1  0
120215  1  0
121216  1  0
124217  1  0
124218  1  0
125219  1  0
125220  1  0
125221  1  0
128222  1  0
133223  1  0
134224  1  0
137225  1  0
137226  1  0
138227  1  0
138228  1  0
138229  1  0
140230  1  0
144231  1  0
145232  1  0
M  END

