
     RDKit          3D

232253  0  0  0  0  0  0  0  0999 V2000
   -1.2136   -7.6289   14.3177 C   0  0  0  0  0  0  0  0  0  0  0  0
   -2.0920   -6.6481   13.8795 C   0  0  0  0  0  0  0  0  0  0  0  0
   -2.5330   -6.8399   12.5586 C   0  0  0  0  0  0  0  0  0  0  0  0
   -3.4352   -6.0192   11.8456 C   0  0  0  0  0  0  0  0  0  0  0  0
   -4.0300   -4.8013   12.4462 C   0  0  0  0  0  0  0  0  0  0  0  0
   -4.8293   -4.8943   13.5972 C   0  0  0  0  0  0  0  0  0  0  0  0
   -5.4121   -3.7449   14.1422 C   0  0  0  0  0  0  0  0  0  0  0  0
   -5.2074   -2.4960   13.5430 C   0  0  0  0  0  0  0  0  0  0  0  0
   -6.0135   -1.0328   14.2084 S   0  0  0  0  0  0  0  0  0  0  0  0
   -4.5811   -0.4880   15.2053 C   0  0  0  0  0  0  0  0  0  0  0  0
   -4.5748   -1.1651   16.5678 C   0  0  0  0  0  0  0  0  0  0  0  0
   -4.4164   -2.4039   12.3875 C   0  0  0  0  0  0  0  0  0  0  0  0
   -4.2178   -1.2034   11.7859 F   0  0  0  0  0  0  0  0  0  0  0  0
   -3.8290   -3.5492   11.8449 C   0  0  0  0  0  0  0  0  0  0  0  0
   -3.7183   -6.3955   10.5187 C   0  0  0  0  0  0  0  0  0  0  0  0
   -3.1443   -7.5200    9.9087 C   0  0  0  0  0  0  0  0  0  0  0  0
   -2.2521   -8.3467   10.6259 C   0  0  0  0  0  0  0  0  0  0  0  0
   -1.6222   -9.5414   10.0104 C   0  0  0  0  0  0  0  0  0  0  0  0
   -2.4150  -10.5682    9.4719 C   0  0  0  0  0  0  0  0  0  0  0  0
   -1.8166  -11.6954    8.8984 C   0  0  0  0  0  0  0  0  0  0  0  0
   -0.4241  -11.8096    8.8578 C   0  0  0  0  0  0  0  0  0  0  0  0
    0.3370  -13.2584    8.1090 S   0  0  0  0  0  0  0  0  0  0  0  0
    0.6142  -12.4678    6.4803 C   0  0  0  0  0  0  0  0  0  0  0  0
   -0.6259  -12.5672    5.5996 C   0  0  0  0  0  0  0  0  0  0  0  0
    0.3717  -10.7955    9.4120 C   0  0  0  0  0  0  0  0  0  0  0  0
   -0.2262   -9.6628    9.9722 C   0  0  0  0  0  0  0  0  0  0  0  0
    1.7255  -10.8960    9.3843 F   0  0  0  0  0  0  0  0  0  0  0  0
   -1.9654   -7.9655   11.9531 C   0  0  0  0  0  0  0  0  0  0  0  0
   -0.9581   -8.7263   13.0671 S   0  0  0  0  0  0  0  0  0  0  0  0
   -3.5223   -7.6665    8.5592 C   0  0  0  0  0  0  0  0  0  0  0  0
   -4.4010   -6.6756    8.1271 C   0  0  0  0  0  0  0  0  0  0  0  0
   -4.7048   -5.6137    9.4044 S   0  0  0  0  0  0  0  0  0  0  0  0
   -4.8241   -6.4504    6.7350 C   0  0  0  0  0  0  0  0  0  0  0  0
   -5.3779   -5.2645    6.2675 C   0  0  0  0  0  0  0  0  0  0  0  0
   -5.4376   -5.2047    4.8685 C   0  0  0  0  0  0  0  0  0  0  0  0
   -5.7877   -4.0714    4.1114 C   0  0  0  0  0  0  0  0  0  0  0  0
   -6.1685   -2.8026    4.7566 C   0  0  0  0  0  0  0  0  0  0  0  0
   -5.2311   -1.7644    4.8787 C   0  0  0  0  0  0  0  0  0  0  0  0
   -5.5972   -0.5573    5.4773 C   0  0  0  0  0  0  0  0  0  0  0  0
   -6.8994   -0.3780    5.9588 C   0  0  0  0  0  0  0  0  0  0  0  0
   -7.3633    1.1901    6.7011 S   0  0  0  0  0  0  0  0  0  0  0  0
   -7.8891    1.9319    5.1178 C   0  0  0  0  0  0  0  0  0  0  0  0
   -8.2891    3.3835    5.3256 C   0  0  0  0  0  0  0  0  0  0  0  0
   -7.8335   -1.4191    5.8536 C   0  0  0  0  0  0  0  0  0  0  0  0
   -9.0983   -1.2589    6.3124 F   0  0  0  0  0  0  0  0  0  0  0  0
   -7.4650   -2.6306    5.2541 C   0  0  0  0  0  0  0  0  0  0  0  0
   -5.5892   -4.1496    2.7263 C   0  0  0  0  0  0  0  0  0  0  0  0
   -5.0915   -5.2883    2.0909 C   0  0  0  0  0  0  0  0  0  0  0  0
   -4.8193   -6.4510    2.8430 C   0  0  0  0  0  0  0  0  0  0  0  0
   -4.3954   -7.7132    2.2135 C   0  0  0  0  0  0  0  0  0  0  0  0
   -5.3648   -8.6035    1.7382 C   0  0  0  0  0  0  0  0  0  0  0  0
   -4.9877   -9.8522    1.2392 C   0  0  0  0  0  0  0  0  0  0  0  0
   -3.6362  -10.2156    1.1986 C   0  0  0  0  0  0  0  0  0  0  0  0
   -3.1666  -11.8561    0.6308 S   0  0  0  0  0  0  0  0  0  0  0  0
   -2.9691  -11.3919   -1.1282 C   0  0  0  0  0  0  0  0  0  0  0  0
   -4.2967  -11.4861   -1.8705 C   0  0  0  0  0  0  0  0  0  0  0  0
   -2.6594   -9.3203    1.6676 C   0  0  0  0  0  0  0  0  0  0  0  0
   -3.0393   -8.0749    2.1795 C   0  0  0  0  0  0  0  0  0  0  0  0
   -1.3468   -9.6640    1.6448 F   0  0  0  0  0  0  0  0  0  0  0  0
   -4.9712   -6.3614    4.2396 C   0  0  0  0  0  0  0  0  0  0  0  0
   -4.4612   -7.4512    5.4184 S   0  0  0  0  0  0  0  0  0  0  0  0
   -4.7515   -5.0634    0.7396 C   0  0  0  0  0  0  0  0  0  0  0  0
   -4.9673   -3.7363    0.3433 C   0  0  0  0  0  0  0  0  0  0  0  0
   -5.6144   -2.8787    1.6428 S   0  0  0  0  0  0  0  0  0  0  0  0
   -4.2278   -3.0212   -0.7004 C   0  0  0  0  0  0  0  0  0  0  0  0
   -3.9047   -1.7626   -0.5464 O   0  0  0  0  0  0  0  0  0  0  0  0
   -3.1064   -1.3843   -1.5129 C   0  0  0  0  0  0  0  0  0  0  0  0
   -2.9164   -2.4411   -2.3859 C   0  0  0  0  0  0  0  0  0  0  0  0
   -3.6427   -3.4995   -1.8592 C   0  0  0  0  0  0  0  0  0  0  0  0
   -3.7697   -4.7800   -2.3979 O   0  0  0  0  0  0  0  0  0  0  0  0
   -4.9213   -5.1451   -3.1535 C   0  0  0  0  0  0  0  0  0  0  0  0
   -2.1021   -2.4141   -3.5232 O   0  0  0  0  0  0  0  0  0  0  0  0
   -1.7692   -3.5762   -4.2811 C   0  0  0  0  0  0  0  0  0  0  0  0
   -2.4662   -0.0637   -1.5276 C   0  0  0  0  0  0  0  0  0  0  0  0
   -1.8581    0.4670   -2.5655 O   0  0  0  0  0  0  0  0  0  0  0  0
   -1.3829    1.6459   -2.2112 C   0  0  0  0  0  0  0  0  0  0  0  0
   -1.6934    1.9075   -0.8910 C   0  0  0  0  0  0  0  0  0  0  0  0
   -2.3863    0.8019   -0.4469 C   0  0  0  0  0  0  0  0  0  0  0  0
   -2.9190    0.6087    0.8289 O   0  0  0  0  0  0  0  0  0  0  0  0
   -2.3520   -0.3132    1.7508 C   0  0  0  0  0  0  0  0  0  0  0  0
   -1.3450    3.0637   -0.1807 O   0  0  0  0  0  0  0  0  0  0  0  0
   -1.3228    3.1365    1.2351 C   0  0  0  0  0  0  0  0  0  0  0  0
   -0.5852    2.5069   -3.0875 C   0  0  0  0  0  0  0  0  0  0  0  0
   -0.4774    2.3702   -4.4679 C   0  0  0  0  0  0  0  0  0  0  0  0
    0.4623    3.2518   -5.0322 C   0  0  0  0  0  0  0  0  0  0  0  0
    0.8437    3.3047   -6.3885 C   0  0  0  0  0  0  0  0  0  0  0  0
    0.0982    2.5727   -7.4385 C   0  0  0  0  0  0  0  0  0  0  0  0
    0.7520    1.7004   -8.3255 C   0  0  0  0  0  0  0  0  0  0  0  0
    0.0373    1.0800   -9.3552 C   0  0  0  0  0  0  0  0  0  0  0  0
   -1.3364    1.3107   -9.5009 C   0  0  0  0  0  0  0  0  0  0  0  0
   -2.2378    0.5326  -10.8484 S   0  0  0  0  0  0  0  0  0  0  0  0
   -1.8522    1.8308  -12.0818 C   0  0  0  0  0  0  0  0  0  0  0  0
   -2.7255    3.0672  -11.8877 C   0  0  0  0  0  0  0  0  0  0  0  0
   -2.0018    2.1348   -8.5822 C   0  0  0  0  0  0  0  0  0  0  0  0
   -3.3395    2.3405   -8.6857 F   0  0  0  0  0  0  0  0  0  0  0  0
   -1.2859    2.7744   -7.5698 C   0  0  0  0  0  0  0  0  0  0  0  0
    1.9227    4.1517   -6.7064 C   0  0  0  0  0  0  0  0  0  0  0  0
    2.5622    4.9600   -5.7548 C   0  0  0  0  0  0  0  0  0  0  0  0
    2.1576    4.9270   -4.4053 C   0  0  0  0  0  0  0  0  0  0  0  0
    2.8851    5.6565   -3.3396 C   0  0  0  0  0  0  0  0  0  0  0  0
    4.2541    5.4254   -3.1302 C   0  0  0  0  0  0  0  0  0  0  0  0
    4.9260    6.0537   -2.0791 C   0  0  0  0  0  0  0  0  0  0  0  0
    4.2311    6.9043   -1.2118 C   0  0  0  0  0  0  0  0  0  0  0  0
    5.0978    7.6641    0.1662 S   0  0  0  0  0  0  0  0  0  0  0  0
    4.7534    6.2754    1.2992 C   0  0  0  0  0  0  0  0  0  0  0  0
    5.4052    6.5340    2.6467 C   0  0  0  0  0  0  0  0  0  0  0  0
    2.8685    7.1507   -1.4188 C   0  0  0  0  0  0  0  0  0  0  0  0
    2.1990    6.5335   -2.4807 C   0  0  0  0  0  0  0  0  0  0  0  0
    2.1867    7.9768   -0.5867 F   0  0  0  0  0  0  0  0  0  0  0  0
    1.0973    4.0575   -4.0831 C   0  0  0  0  0  0  0  0  0  0  0  0
    0.4893    3.6987   -2.5637 S   0  0  0  0  0  0  0  0  0  0  0  0
    3.6224    5.7110   -6.2881 C   0  0  0  0  0  0  0  0  0  0  0  0
    3.8341    5.4528   -7.6389 C   0  0  0  0  0  0  0  0  0  0  0  0
    2.7043    4.3314   -8.1858 S   0  0  0  0  0  0  0  0  0  0  0  0
    5.0076    5.8836   -8.3989 C   0  0  0  0  0  0  0  0  0  0  0  0
    5.5391    7.1712   -8.4262 C   0  0  0  0  0  0  0  0  0  0  0  0
    6.7424    7.2478   -9.1474 C   0  0  0  0  0  0  0  0  0  0  0  0
    7.5245    8.4040   -9.3542 C   0  0  0  0  0  0  0  0  0  0  0  0
    7.0583    9.7482   -8.9359 C   0  0  0  0  0  0  0  0  0  0  0  0
    5.8395   10.2528   -9.4190 C   0  0  0  0  0  0  0  0  0  0  0  0
    5.4179   11.5375   -9.0733 C   0  0  0  0  0  0  0  0  0  0  0  0
    6.2155   12.3424   -8.2480 C   0  0  0  0  0  0  0  0  0  0  0  0
    5.7059   14.0290   -7.8843 S   0  0  0  0  0  0  0  0  0  0  0  0
    4.6423   13.5946   -6.4632 C   0  0  0  0  0  0  0  0  0  0  0  0
    5.4496   13.5080   -5.1767 C   0  0  0  0  0  0  0  0  0  0  0  0
    7.4293   11.8452   -7.7563 C   0  0  0  0  0  0  0  0  0  0  0  0
    8.2167   12.6137   -6.9635 F   0  0  0  0  0  0  0  0  0  0  0  0
    7.8450   10.5501   -8.0943 C   0  0  0  0  0  0  0  0  0  0  0  0
    8.7567    8.2237  -10.0136 C   0  0  0  0  0  0  0  0  0  0  0  0
    9.2005    6.9752  -10.4596 C   0  0  0  0  0  0  0  0  0  0  0  0
    8.4009    5.8248  -10.2798 C   0  0  0  0  0  0  0  0  0  0  0  0
    8.8551    4.4721  -10.6753 C   0  0  0  0  0  0  0  0  0  0  0  0
    8.1027    3.7106  -11.5848 C   0  0  0  0  0  0  0  0  0  0  0  0
    8.4435    2.3835  -11.8450 C   0  0  0  0  0  0  0  0  0  0  0  0
    9.5374    1.8008  -11.1954 C   0  0  0  0  0  0  0  0  0  0  0  0
    9.9053    0.0615  -11.4458 S   0  0  0  0  0  0  0  0  0  0  0  0
    8.7875   -0.5181  -10.1139 C   0  0  0  0  0  0  0  0  0  0  0  0
    9.3120   -1.8194   -9.5193 C   0  0  0  0  0  0  0  0  0  0  0  0
   10.3128    2.5628  -10.3107 C   0  0  0  0  0  0  0  0  0  0  0  0
    9.9772    3.8968  -10.0583 C   0  0  0  0  0  0  0  0  0  0  0  0
   11.3655    2.0020   -9.6686 F   0  0  0  0  0  0  0  0  0  0  0  0
    7.1668    6.0075   -9.6337 C   0  0  0  0  0  0  0  0  0  0  0  0
    6.0357    4.8347   -9.2234 S   0  0  0  0  0  0  0  0  0  0  0  0
   10.4495    7.0345  -11.0976 C   0  0  0  0  0  0  0  0  0  0  0  0
   10.9767    8.3197  -11.1650 C   0  0  0  0  0  0  0  0  0  0  0  0
    9.8981    9.3852  -10.4367 S   0  0  0  0  0  0  0  0  0  0  0  0
   -0.7609   -7.6752   15.2986 H   0  0  0  0  0  0  0  0  0  0  0  0
   -2.3974   -5.8266   14.5105 H   0  0  0  0  0  0  0  0  0  0  0  0
   -5.0078   -5.8522   14.0716 H   0  0  0  0  0  0  0  0  0  0  0  0
   -6.0314   -3.8249   15.0273 H   0  0  0  0  0  0  0  0  0  0  0  0
   -3.6251   -0.6919   14.6784 H   0  0  0  0  0  0  0  0  0  0  0  0
   -4.6645    0.6068   15.3618 H   0  0  0  0  0  0  0  0  0  0  0  0
   -3.7488   -0.7484   17.1860 H   0  0  0  0  0  0  0  0  0  0  0  0
   -4.4136   -2.2555   16.4556 H   0  0  0  0  0  0  0  0  0  0  0  0
   -5.5383   -0.9861   17.0974 H   0  0  0  0  0  0  0  0  0  0  0  0
   -3.2145   -3.4637   10.9582 H   0  0  0  0  0  0  0  0  0  0  0  0
   -3.4920  -10.4928    9.4957 H   0  0  0  0  0  0  0  0  0  0  0  0
   -2.4423  -12.4728    8.4826 H   0  0  0  0  0  0  0  0  0  0  0  0
    1.4565  -12.9908    5.9757 H   0  0  0  0  0  0  0  0  0  0  0  0
    0.9092  -11.4028    6.6046 H   0  0  0  0  0  0  0  0  0  0  0  0
   -0.4441  -12.0181    4.6532 H   0  0  0  0  0  0  0  0  0  0  0  0
   -0.8413  -13.6303    5.3644 H   0  0  0  0  0  0  0  0  0  0  0  0
   -1.5075  -12.1185    6.1037 H   0  0  0  0  0  0  0  0  0  0  0  0
    0.4071   -8.8730   10.3652 H   0  0  0  0  0  0  0  0  0  0  0  0
   -3.1328   -8.4329    7.9017 H   0  0  0  0  0  0  0  0  0  0  0  0
   -5.6440   -4.4377    6.9110 H   0  0  0  0  0  0  0  0  0  0  0  0
   -4.2227   -1.8912    4.5008 H   0  0  0  0  0  0  0  0  0  0  0  0
   -4.8716    0.2423    5.5505 H   0  0  0  0  0  0  0  0  0  0  0  0
   -7.0515    1.8868    4.3858 H   0  0  0  0  0  0  0  0  0  0  0  0
   -8.7521    1.3618    4.7109 H   0  0  0  0  0  0  0  0  0  0  0  0
   -8.6089    3.8298    4.3602 H   0  0  0  0  0  0  0  0  0  0  0  0
   -7.4270    3.9656    5.7164 H   0  0  0  0  0  0  0  0  0  0  0  0
   -9.1323    3.4520    6.0462 H   0  0  0  0  0  0  0  0  0  0  0  0
   -8.1980   -3.4235    5.1543 H   0  0  0  0  0  0  0  0  0  0  0  0
   -6.4164   -8.3440    1.7771 H   0  0  0  0  0  0  0  0  0  0  0  0
   -5.7513  -10.5425    0.9044 H   0  0  0  0  0  0  0  0  0  0  0  0
   -2.2576  -12.1046   -1.5988 H   0  0  0  0  0  0  0  0  0  0  0  0
   -2.5407  -10.3688   -1.2280 H   0  0  0  0  0  0  0  0  0  0  0  0
   -4.7163  -12.5110   -1.7768 H   0  0  0  0  0  0  0  0  0  0  0  0
   -5.0305  -10.7567   -1.4653 H   0  0  0  0  0  0  0  0  0  0  0  0
   -4.1408  -11.2647   -2.9470 H   0  0  0  0  0  0  0  0  0  0  0  0
   -2.2834   -7.3946    2.5541 H   0  0  0  0  0  0  0  0  0  0  0  0
   -4.2316   -5.7925    0.1262 H   0  0  0  0  0  0  0  0  0  0  0  0
   -5.8312   -5.0549   -2.5300 H   0  0  0  0  0  0  0  0  0  0  0  0
   -4.8157   -6.1966   -3.4962 H   0  0  0  0  0  0  0  0  0  0  0  0
   -5.0107   -4.4855   -4.0432 H   0  0  0  0  0  0  0  0  0  0  0  0
   -2.6715   -3.9834   -4.7841 H   0  0  0  0  0  0  0  0  0  0  0  0
   -1.0312   -3.2978   -5.0602 H   0  0  0  0  0  0  0  0  0  0  0  0
   -1.3162   -4.3458   -3.6173 H   0  0  0  0  0  0  0  0  0  0  0  0
   -2.1740   -1.2965    1.2667 H   0  0  0  0  0  0  0  0  0  0  0  0
   -1.3968    0.0861    2.1452 H   0  0  0  0  0  0  0  0  0  0  0  0
   -3.0559   -0.4553    2.5952 H   0  0  0  0  0  0  0  0  0  0  0  0
   -2.3268    2.9416    1.6597 H   0  0  0  0  0  0  0  0  0  0  0  0
   -0.9987    4.1562    1.5387 H   0  0  0  0  0  0  0  0  0  0  0  0
   -0.5891    2.4079    1.6394 H   0  0  0  0  0  0  0  0  0  0  0  0
   -1.0280    1.6269   -5.0350 H   0  0  0  0  0  0  0  0  0  0  0  0
    1.8145    1.5177   -8.2303 H   0  0  0  0  0  0  0  0  0  0  0  0
    0.5584    0.4375  -10.0519 H   0  0  0  0  0  0  0  0  0  0  0  0
   -2.0525    1.4166  -13.0909 H   0  0  0  0  0  0  0  0  0  0  0  0
   -0.7782    2.1166  -12.0406 H   0  0  0  0  0  0  0  0  0  0  0  0
   -2.5762    3.7648  -12.7388 H   0  0  0  0  0  0  0  0  0  0  0  0
   -2.4478    3.5957  -10.9520 H   0  0  0  0  0  0  0  0  0  0  0  0
   -3.7980    2.7777  -11.8459 H   0  0  0  0  0  0  0  0  0  0  0  0
   -1.8036    3.4514   -6.8973 H   0  0  0  0  0  0  0  0  0  0  0  0
    4.7990    4.7379   -3.7708 H   0  0  0  0  0  0  0  0  0  0  0  0
    5.9808    5.8636   -1.9333 H   0  0  0  0  0  0  0  0  0  0  0  0
    3.6530    6.1685    1.4377 H   0  0  0  0  0  0  0  0  0  0  0  0
    5.1593    5.3301    0.8717 H   0  0  0  0  0  0  0  0  0  0  0  0
    6.5075    6.6171    2.5302 H   0  0  0  0  0  0  0  0  0  0  0  0
    5.1816    5.6943    3.3384 H   0  0  0  0  0  0  0  0  0  0  0  0
    5.0101    7.4763    3.0872 H   0  0  0  0  0  0  0  0  0  0  0  0
    1.1407    6.7274   -2.6258 H   0  0  0  0  0  0  0  0  0  0  0  0
    4.2527    6.3747   -5.7093 H   0  0  0  0  0  0  0  0  0  0  0  0
    5.0693    8.0090   -7.9211 H   0  0  0  0  0  0  0  0  0  0  0  0
    5.2139    9.6510  -10.0717 H   0  0  0  0  0  0  0  0  0  0  0  0
    4.4755   11.9127   -9.4569 H   0  0  0  0  0  0  0  0  0  0  0  0
    4.1105   12.6358   -6.6410 H   0  0  0  0  0  0  0  0  0  0  0  0
    3.8808   14.3974   -6.3491 H   0  0  0  0  0  0  0  0  0  0  0  0
    5.9996   14.4565   -4.9962 H   0  0  0  0  0  0  0  0  0  0  0  0
    4.7660   13.3147   -4.3257 H   0  0  0  0  0  0  0  0  0  0  0  0
    6.1736   12.6695   -5.2394 H   0  0  0  0  0  0  0  0  0  0  0  0
    8.7868   10.1786   -7.7082 H   0  0  0  0  0  0  0  0  0  0  0  0
    7.2394    4.1437  -12.0754 H   0  0  0  0  0  0  0  0  0  0  0  0
    7.8327    1.7969  -12.5198 H   0  0  0  0  0  0  0  0  0  0  0  0
    8.7063    0.2322   -9.2975 H   0  0  0  0  0  0  0  0  0  0  0  0
    7.7738   -0.6879  -10.5394 H   0  0  0  0  0  0  0  0  0  0  0  0
    8.6639   -2.1416   -8.6732 H   0  0  0  0  0  0  0  0  0  0  0  0
    9.3306   -2.6196  -10.2937 H   0  0  0  0  0  0  0  0  0  0  0  0
   10.3494   -1.6624   -9.1379 H   0  0  0  0  0  0  0  0  0  0  0  0
   10.5511    4.4638   -9.3323 H   0  0  0  0  0  0  0  0  0  0  0  0
   10.9594    6.1744  -11.5179 H   0  0  0  0  0  0  0  0  0  0  0  0
   11.9206    8.5909  -11.6127 H   0  0  0  0  0  0  0  0  0  0  0  0
  1  2  2  0
  2  3  1  0
  3  4  2  0
  4  5  1  0
  5  6  2  0
  6  7  1  0
  7  8  2  0
  8  9  1  0
  9 10  1  0
 10 11  1  0
  8 12  1  0
 12 13  1  0
 12 14  2  0
  4 15  1  0
 15 16  2  0
 16 17  1  0
 17 18  1  0
 18 19  2  0
 19 20  1  0
 20 21  2  0
 21 22  1  0
 22 23  1  0
 23 24  1  0
 21 25  1  0
 25 26  2  0
 25 27  1  0
 17 28  2  0
 28 29  1  0
 16 30  1  0
 30 31  2  0
 31 32  1  0
 31 33  1  0
 33 34  2  0
 34 35  1  0
 35 36  2  0
 36 37  1  0
 37 38  2  0
 38 39  1  0
 39 40  2  0
 40 41  1  0
 41 42  1  0
 42 43  1  0
 40 44  1  0
 44 45  1  0
 44 46  2  0
 36 47  1  0
 47 48  2  0
 48 49  1  0
 49 50  1  0
 50 51  2  0
 51 52  1  0
 52 53  2  0
 53 54  1  0
 54 55  1  0
 55 56  1  0
 53 57  1  0
 57 58  2  0
 57 59  1  0
 49 60  2  0
 60 61  1  0
 48 62  1  0
 62 63  2  0
 63 64  1  0
 63 65  1  0
 65 66  1  0
 66 67  1  0
 67 68  2  0
 68 69  1  0
 69 70  1  0
 70 71  1  0
 68 72  1  0
 72 73  1  0
 67 74  1  0
 74 75  1  0
 75 76  1  0
 76 77  2  0
 77 78  1  0
 78 79  1  0
 79 80  1  0
 77 81  1  0
 81 82  1  0
 76 83  1  0
 83 84  2  0
 84 85  1  0
 85 86  2  0
 86 87  1  0
 87 88  2  0
 88 89  1  0
 89 90  2  0
 90 91  1  0
 91 92  1  0
 92 93  1  0
 90 94  1  0
 94 95  1  0
 94 96  2  0
 86 97  1  0
 97 98  2  0
 98 99  1  0
 99100  1  0
100101  2  0
101102  1  0
102103  2  0
103104  1  0
104105  1  0
105106  1  0
103107  1  0
107108  2  0
107109  1  0
 99110  2  0
110111  1  0
 98112  1  0
112113  2  0
113114  1  0
113115  1  0
115116  2  0
116117  1  0
117118  2  0
118119  1  0
119120  2  0
120121  1  0
121122  2  0
122123  1  0
123124  1  0
124125  1  0
122126  1  0
126127  1  0
126128  2  0
118129  1  0
129130  2  0
130131  1  0
131132  1  0
132133  2  0
133134  1  0
134135  2  0
135136  1  0
136137  1  0
137138  1  0
135139  1  0
139140  2  0
139141  1  0
131142  2  0
142143  1  0
130144  1  0
144145  2  0
145146  1  0
 29  1  1  0
 61 33  1  0
 69 65  2  0
 78 74  2  0
111 83  1  0
143115  1  0
 28  3  1  0
 60 35  1  0
110 85  1  0
142117  1  0
 14  5  1  0
 32 15  1  0
 46 37  1  0
 64 47  1  0
 96 87  1  0
114 97  1  0
128119  1  0
146129  1  0
 26 18  1  0
 58 50  1  0
108100  1  0
140132  1  0
  1147  1  0
  2148  1  0
  6149  1  0
  7150  1  0
 10151  1  0
 10152  1  0
 11153  1  0
 11154  1  0
 11155  1  0
 14156  1  0
 19157  1  0
 20158  1  0
 23159  1  0
 23160  1  0
 24161  1  0
 24162  1  0
 24163  1  0
 26164  1  0
 30165  1  0
 34166  1  0
 38167  1  0
 39168  1  0
 42169  1  0
 42170  1  0
 43171  1  0
 43172  1  0
 43173  1  0
 46174  1  0
 51175  1  0
 52176  1  0
 55177  1  0
 55178  1  0
 56179  1  0
 56180  1  0
 56181  1  0
 58182  1  0
 62183  1  0
 71184  1  0
 71185  1  0
 71186  1  0
 73187  1  0
 73188  1  0
 73189  1  0
 80190  1  0
 80191  1  0
 80192  1  0
 82193  1  0
 82194  1  0
 82195  1  0
 84196  1  0
 88197  1  0
 89198  1  0
 92199  1  0
 92200  1  0
 93201  1  0
 93202  1  0
 93203  1  0
 96204  1  0
101205  1  0
102206  1  0
105207  1  0
105208  1  0
106209  1  0
106210  1  0
106211  1  0
108212  1  0
112213  1  0
116214  1  0
120215  1  0
121216  1  0
124217  1  0
124218  1  0
125219  1  0
125220  1  0
125221  1  0
128222  1  0
133223  1  0
134224  1  0
137225  1  0
137226  1  0
138227  1  0
138228  1  0
138229  1  0
140230  1  0
144231  1  0
145232  1  0
M  END

