
     RDKit          3D

100113  0  0  0  0  0  0  0  0999 V2000
    7.8614   -3.5438    4.1845 C   0  0  0  0  0  0  0  0  0  0  0  0
    7.4074   -5.0451    3.5404 S   0  0  0  0  0  0  0  0  0  0  0  0
    6.9668   -4.5514    1.9803 C   0  0  0  0  0  0  0  0  0  0  0  0
    7.1817   -3.1895    1.9750 C   0  0  0  0  0  0  0  0  0  0  0  0
    7.6592   -2.6461    3.1580 C   0  0  0  0  0  0  0  0  0  0  0  0
    7.7984   -1.2744    3.0737 C   0  0  0  0  0  0  0  0  0  0  0  0
    7.4337   -0.7631    1.8593 C   0  0  0  0  0  0  0  0  0  0  0  0
    6.9251   -1.9872    0.7976 S   0  0  0  0  0  0  0  0  0  0  0  0
    7.5248    0.6203    1.7531 C   0  0  0  0  0  0  0  0  0  0  0  0
    7.9869    1.1714    2.9572 C   0  0  0  0  0  0  0  0  0  0  0  0
    8.2800   -0.0507    4.1137 S   0  0  0  0  0  0  0  0  0  0  0  0
    8.1739    2.6021    3.2205 C   0  0  0  0  0  0  0  0  0  0  0  0
    7.1778    3.4920    3.2835 C   0  0  0  0  0  0  0  0  0  0  0  0
    5.7396    3.1519    3.2129 C   0  0  0  0  0  0  0  0  0  0  0  0
    5.2594    1.9412    3.0308 O   0  0  0  0  0  0  0  0  0  0  0  0
    3.9452    1.9769    3.1180 C   0  0  0  0  0  0  0  0  0  0  0  0
    3.5276    3.2732    3.3581 C   0  0  0  0  0  0  0  0  0  0  0  0
    4.6849    4.0312    3.3988 C   0  0  0  0  0  0  0  0  0  0  0  0
    4.7683    5.4077    3.5998 O   0  0  0  0  0  0  0  0  0  0  0  0
    5.2381    6.2902    2.5889 C   0  0  0  0  0  0  0  0  0  0  0  0
    2.1989    3.6977    3.4721 O   0  0  0  0  0  0  0  0  0  0  0  0
    1.8217    5.0500    3.6889 C   0  0  0  0  0  0  0  0  0  0  0  0
    3.0932    0.7922    2.9495 C   0  0  0  0  0  0  0  0  0  0  0  0
    3.3647   -0.1826    2.1076 O   0  0  0  0  0  0  0  0  0  0  0  0
    2.4107   -1.0867    2.1739 C   0  0  0  0  0  0  0  0  0  0  0  0
    1.4920   -0.7184    3.1481 C   0  0  0  0  0  0  0  0  0  0  0  0
    1.9206    0.5081    3.6235 C   0  0  0  0  0  0  0  0  0  0  0  0
    1.3498    1.2924    4.6326 O   0  0  0  0  0  0  0  0  0  0  0  0
    0.1594    0.9360    5.3307 C   0  0  0  0  0  0  0  0  0  0  0  0
    0.3801   -1.4272    3.6174 O   0  0  0  0  0  0  0  0  0  0  0  0
    0.3213   -2.8453    3.6851 C   0  0  0  0  0  0  0  0  0  0  0  0
    2.3427   -2.2351    1.2661 C   0  0  0  0  0  0  0  0  0  0  0  0
    3.5930   -3.3314    0.9505 S   0  0  0  0  0  0  0  0  0  0  0  0
    2.8381   -4.2336   -0.2711 C   0  0  0  0  0  0  0  0  0  0  0  0
    1.5981   -3.6458   -0.4400 C   0  0  0  0  0  0  0  0  0  0  0  0
    1.3298   -2.5533    0.3727 C   0  0  0  0  0  0  0  0  0  0  0  0
    0.0880   -2.0001    0.0891 C   0  0  0  0  0  0  0  0  0  0  0  0
   -0.5896   -2.6627   -0.8934 C   0  0  0  0  0  0  0  0  0  0  0  0
    0.3122   -3.9645   -1.5042 S   0  0  0  0  0  0  0  0  0  0  0  0
   -1.8473   -2.1534   -1.1993 C   0  0  0  0  0  0  0  0  0  0  0  0
   -2.1433   -1.0415   -0.3857 C   0  0  0  0  0  0  0  0  0  0  0  0
   -0.8319   -0.7192    0.6598 S   0  0  0  0  0  0  0  0  0  0  0  0
   -3.3868   -0.2474   -0.3860 C   0  0  0  0  0  0  0  0  0  0  0  0
   -4.4772   -0.6345   -1.0550 C   0  0  0  0  0  0  0  0  0  0  0  0
   -5.7213    0.1544   -1.1022 C   0  0  0  0  0  0  0  0  0  0  0  0
   -5.9976    1.7170   -0.4809 S   0  0  0  0  0  0  0  0  0  0  0  0
   -7.5822    1.9330   -1.0600 C   0  0  0  0  0  0  0  0  0  0  0  0
   -7.8786    0.7740   -1.7589 C   0  0  0  0  0  0  0  0  0  0  0  0
   -6.8846   -0.1901   -1.7768 C   0  0  0  0  0  0  0  0  0  0  0  0
   -7.2680   -1.3020   -2.5112 C   0  0  0  0  0  0  0  0  0  0  0  0
   -8.5059   -1.1943   -3.0740 C   0  0  0  0  0  0  0  0  0  0  0  0
   -9.2325    0.2863   -2.6699 S   0  0  0  0  0  0  0  0  0  0  0  0
   -8.8854   -2.2721   -3.8644 C   0  0  0  0  0  0  0  0  0  0  0  0
   -7.8735   -3.2426   -3.9062 C   0  0  0  0  0  0  0  0  0  0  0  0
   -6.5643   -2.7583   -2.9224 S   0  0  0  0  0  0  0  0  0  0  0  0
   -7.9729   -4.4988   -4.6797 C   0  0  0  0  0  0  0  0  0  0  0  0
   -6.9441   -5.2699   -5.0700 C   0  0  0  0  0  0  0  0  0  0  0  0
   -5.5174   -4.9315   -4.9139 C   0  0  0  0  0  0  0  0  0  0  0  0
   -4.3766   -5.8702   -4.0779 S   0  0  0  0  0  0  0  0  0  0  0  0
   -3.0371   -4.8434   -4.2491 C   0  0  0  0  0  0  0  0  0  0  0  0
   -3.4941   -3.7664   -4.9804 C   0  0  0  0  0  0  0  0  0  0  0  0
   -4.8267   -3.8128   -5.3660 C   0  0  0  0  0  0  0  0  0  0  0  0
   -5.1854   -2.6859   -6.0945 C   0  0  0  0  0  0  0  0  0  0  0  0
   -4.1685   -1.7879   -6.2567 C   0  0  0  0  0  0  0  0  0  0  0  0
   -2.7423   -2.3392   -5.5160 S   0  0  0  0  0  0  0  0  0  0  0  0
   -4.5013   -0.6383   -6.9686 C   0  0  0  0  0  0  0  0  0  0  0  0
   -5.8481   -0.6723   -7.3711 C   0  0  0  0  0  0  0  0  0  0  0  0
   -6.5769   -2.1207   -6.8396 S   0  0  0  0  0  0  0  0  0  0  0  0
   -6.5725    0.3522   -8.1385 C   0  0  0  0  0  0  0  0  0  0  0  0
   -6.0395    1.5142   -8.5094 C   0  0  0  0  0  0  0  0  0  0  0  0
    8.2133   -3.3393    5.1860 H   0  0  0  0  0  0  0  0  0  0  0  0
    6.5769   -5.1578    1.1746 H   0  0  0  0  0  0  0  0  0  0  0  0
    7.2591    1.1903    0.8730 H   0  0  0  0  0  0  0  0  0  0  0  0
    9.1822    2.9356    3.4200 H   0  0  0  0  0  0  0  0  0  0  0  0
    7.4429    4.5149    3.5023 H   0  0  0  0  0  0  0  0  0  0  0  0
    5.3118    7.3191    3.0043 H   0  0  0  0  0  0  0  0  0  0  0  0
    6.2376    5.9840    2.2200 H   0  0  0  0  0  0  0  0  0  0  0  0
    4.5219    6.2933    1.7391 H   0  0  0  0  0  0  0  0  0  0  0  0
    0.7177    5.1076    3.7598 H   0  0  0  0  0  0  0  0  0  0  0  0
    2.1516    5.6679    2.8333 H   0  0  0  0  0  0  0  0  0  0  0  0
    2.2678    5.4286    4.6366 H   0  0  0  0  0  0  0  0  0  0  0  0
    0.3024   -0.0259    5.8689 H   0  0  0  0  0  0  0  0  0  0  0  0
   -0.0749    1.7226    6.0792 H   0  0  0  0  0  0  0  0  0  0  0  0
   -0.6899    0.8515    4.6181 H   0  0  0  0  0  0  0  0  0  0  0  0
   -0.5829   -3.1389    4.2408 H   0  0  0  0  0  0  0  0  0  0  0  0
    1.2040   -3.2360    4.2238 H   0  0  0  0  0  0  0  0  0  0  0  0
    0.2667   -3.2908    2.6812 H   0  0  0  0  0  0  0  0  0  0  0  0
    3.2415   -5.0766   -0.8133 H   0  0  0  0  0  0  0  0  0  0  0  0
   -2.4950   -2.5776   -1.9569 H   0  0  0  0  0  0  0  0  0  0  0  0
   -3.4018    0.6677    0.1939 H   0  0  0  0  0  0  0  0  0  0  0  0
   -4.4637   -1.5681   -1.5941 H   0  0  0  0  0  0  0  0  0  0  0  0
   -8.2200    2.7979   -0.9331 H   0  0  0  0  0  0  0  0  0  0  0  0
   -9.8228   -2.3439   -4.3906 H   0  0  0  0  0  0  0  0  0  0  0  0
   -8.9682   -4.8465   -4.9290 H   0  0  0  0  0  0  0  0  0  0  0  0
   -7.1732   -6.2327   -5.5179 H   0  0  0  0  0  0  0  0  0  0  0  0
   -2.0385   -4.9794   -3.8554 H   0  0  0  0  0  0  0  0  0  0  0  0
   -3.8022    0.1559   -7.1813 H   0  0  0  0  0  0  0  0  0  0  0  0
   -7.5951    0.1414   -8.4202 H   0  0  0  0  0  0  0  0  0  0  0  0
   -6.6362    2.2204   -9.0691 H   0  0  0  0  0  0  0  0  0  0  0  0
   -5.0279    1.7921   -8.2523 H   0  0  0  0  0  0  0  0  0  0  0  0
  1  2  1  0
  2  3  1  0
  3  4  2  0
  4  5  1  0
  5  6  1  0
  6  7  2  0
  7  8  1  0
  7  9  1  0
  9 10  2  0
 10 11  1  0
 10 12  1  0
 12 13  2  3
 13 14  1  0
 14 15  1  0
 15 16  1  0
 16 17  2  0
 17 18  1  0
 18 19  1  0
 19 20  1  0
 17 21  1  0
 21 22  1  0
 16 23  1  0
 23 24  1  0
 24 25  1  0
 25 26  2  0
 26 27  1  0
 27 28  1  0
 28 29  1  0
 26 30  1  0
 30 31  1  0
 25 32  1  0
 32 33  1  0
 33 34  1  0
 34 35  2  0
 35 36  1  0
 36 37  1  0
 37 38  2  0
 38 39  1  0
 38 40  1  0
 40 41  2  0
 41 42  1  0
 41 43  1  0
 43 44  2  3
 44 45  1  0
 45 46  1  0
 46 47  1  0
 47 48  2  0
 48 49  1  0
 49 50  1  0
 50 51  2  0
 51 52  1  0
 51 53  1  0
 53 54  2  0
 54 55  1  0
 54 56  1  0
 56 57  2  3
 57 58  1  0
 58 59  1  0
 59 60  1  0
 60 61  2  0
 61 62  1  0
 62 63  1  0
 63 64  2  0
 64 65  1  0
 64 66  1  0
 66 67  2  0
 67 68  1  0
 67 69  1  0
 69 70  2  3
  5  1  2  0
 11  6  1  0
 18 14  2  0
 27 23  2  0
 36 32  2  0
 42 37  1  0
 49 45  2  0
 55 50  1  0
 62 58  2  0
 68 63  1  0
  8  4  1  0
 39 35  1  0
 52 48  1  0
 65 61  1  0
  1 71  1  0
  3 72  1  0
  9 73  1  0
 12 74  1  0
 13 75  1  0
 20 76  1  0
 20 77  1  0
 20 78  1  0
 22 79  1  0
 22 80  1  0
 22 81  1  0
 29 82  1  0
 29 83  1  0
 29 84  1  0
 31 85  1  0
 31 86  1  0
 31 87  1  0
 34 88  1  0
 40 89  1  0
 43 90  1  0
 44 91  1  0
 47 92  1  0
 53 93  1  0
 56 94  1  0
 57 95  1  0
 60 96  1  0
 66 97  1  0
 69 98  1  0
 70 99  1  0
 70100  1  0
M  END

