
     RDKit          3D

232253  0  0  0  0  0  0  0  0999 V2000
    4.6316   -1.7038   11.2181 C   0  0  0  0  0  0  0  0  0  0  0  0
    5.4956   -0.6455   10.9489 C   0  0  0  0  0  0  0  0  0  0  0  0
    4.9339    0.3253   10.1030 C   0  0  0  0  0  0  0  0  0  0  0  0
    5.5534    1.5152    9.6570 C   0  0  0  0  0  0  0  0  0  0  0  0
    6.9369    1.8617   10.0388 C   0  0  0  0  0  0  0  0  0  0  0  0
    8.0131    1.0846    9.5838 C   0  0  0  0  0  0  0  0  0  0  0  0
    9.3178    1.3911    9.9798 C   0  0  0  0  0  0  0  0  0  0  0  0
    9.5597    2.4766   10.8318 C   0  0  0  0  0  0  0  0  0  0  0  0
   11.2367    2.8185   11.3821 S   0  0  0  0  0  0  0  0  0  0  0  0
   11.7041    3.8268    9.9322 C   0  0  0  0  0  0  0  0  0  0  0  0
   11.2512    5.2708   10.1017 C   0  0  0  0  0  0  0  0  0  0  0  0
    8.4876    3.2595   11.2817 C   0  0  0  0  0  0  0  0  0  0  0  0
    8.7023    4.2986   12.1275 F   0  0  0  0  0  0  0  0  0  0  0  0
    7.1816    2.9569   10.8804 C   0  0  0  0  0  0  0  0  0  0  0  0
    4.7883    2.3566    8.8288 C   0  0  0  0  0  0  0  0  0  0  0  0
    3.4793    2.0434    8.4523 C   0  0  0  0  0  0  0  0  0  0  0  0
    2.8667    0.8547    8.8856 C   0  0  0  0  0  0  0  0  0  0  0  0
    1.4959    0.5099    8.4651 C   0  0  0  0  0  0  0  0  0  0  0  0
    0.4188    0.7103    9.3424 C   0  0  0  0  0  0  0  0  0  0  0  0
   -0.8942    0.5335    8.8958 C   0  0  0  0  0  0  0  0  0  0  0  0
   -1.1418    0.1557    7.5703 C   0  0  0  0  0  0  0  0  0  0  0  0
   -2.8304   -0.0065    6.9794 S   0  0  0  0  0  0  0  0  0  0  0  0
   -2.9585   -1.7994    7.3149 C   0  0  0  0  0  0  0  0  0  0  0  0
   -3.3901   -2.0536    8.7538 C   0  0  0  0  0  0  0  0  0  0  0  0
   -0.0660   -0.0533    6.6920 C   0  0  0  0  0  0  0  0  0  0  0  0
    1.2474    0.1103    7.1427 C   0  0  0  0  0  0  0  0  0  0  0  0
   -0.2931   -0.3900    5.3969 F   0  0  0  0  0  0  0  0  0  0  0  0
    3.6226    0.0211    9.7211 C   0  0  0  0  0  0  0  0  0  0  0  0
    3.1713   -1.4423   10.4135 S   0  0  0  0  0  0  0  0  0  0  0  0
    2.8996    2.9990    7.6126 C   0  0  0  0  0  0  0  0  0  0  0  0
    3.7559    4.0499    7.3071 C   0  0  0  0  0  0  0  0  0  0  0  0
    5.2417    3.8004    8.0808 S   0  0  0  0  0  0  0  0  0  0  0  0
    3.4139    5.0774    6.3126 C   0  0  0  0  0  0  0  0  0  0  0  0
    2.2943    5.0224    5.6309 O   0  0  0  0  0  0  0  0  0  0  0  0
    2.2668    5.9842    4.7411 C   0  0  0  0  0  0  0  0  0  0  0  0
    3.4371    6.7225    4.8281 C   0  0  0  0  0  0  0  0  0  0  0  0
    4.1627    6.1547    5.8643 C   0  0  0  0  0  0  0  0  0  0  0  0
    5.4097    6.5663    6.3356 O   0  0  0  0  0  0  0  0  0  0  0  0
    5.5438    7.2314    7.5869 C   0  0  0  0  0  0  0  0  0  0  0  0
    3.8007    7.7814    3.9886 O   0  0  0  0  0  0  0  0  0  0  0  0
    5.0036    8.5259    4.1297 C   0  0  0  0  0  0  0  0  0  0  0  0
    1.1465    6.1031    3.7969 C   0  0  0  0  0  0  0  0  0  0  0  0
    0.3735    5.0731    3.5411 O   0  0  0  0  0  0  0  0  0  0  0  0
   -0.5251    5.4040    2.6447 C   0  0  0  0  0  0  0  0  0  0  0  0
   -0.3525    6.7337    2.2919 C   0  0  0  0  0  0  0  0  0  0  0  0
    0.7178    7.1887    3.0463 C   0  0  0  0  0  0  0  0  0  0  0  0
    1.2279    8.4852    3.0544 O   0  0  0  0  0  0  0  0  0  0  0  0
    1.1297    9.3207    4.2010 C   0  0  0  0  0  0  0  0  0  0  0  0
   -1.1202    7.4387    1.3566 O   0  0  0  0  0  0  0  0  0  0  0  0
   -0.9669    8.8284    1.0986 C   0  0  0  0  0  0  0  0  0  0  0  0
   -1.5056    4.4374    2.1285 C   0  0  0  0  0  0  0  0  0  0  0  0
   -2.5946    4.6907    1.2910 C   0  0  0  0  0  0  0  0  0  0  0  0
   -3.2604    3.5166    0.8942 C   0  0  0  0  0  0  0  0  0  0  0  0
   -4.3432    3.4273   -0.0076 C   0  0  0  0  0  0  0  0  0  0  0  0
   -4.9499    4.6183   -0.6383 C   0  0  0  0  0  0  0  0  0  0  0  0
   -4.1789    5.4680   -1.4461 C   0  0  0  0  0  0  0  0  0  0  0  0
   -4.7589    6.5948   -2.0356 C   0  0  0  0  0  0  0  0  0  0  0  0
   -6.1138    6.8814   -1.8267 C   0  0  0  0  0  0  0  0  0  0  0  0
   -6.8448    8.3409   -2.5731 S   0  0  0  0  0  0  0  0  0  0  0  0
   -6.6066    9.4116   -1.1083 C   0  0  0  0  0  0  0  0  0  0  0  0
   -5.1831    9.9531   -1.0467 C   0  0  0  0  0  0  0  0  0  0  0  0
   -6.8959    6.0171   -1.0487 C   0  0  0  0  0  0  0  0  0  0  0  0
   -8.2156    6.2689   -0.8588 F   0  0  0  0  0  0  0  0  0  0  0  0
   -6.3155    4.8898   -0.4592 C   0  0  0  0  0  0  0  0  0  0  0  0
   -4.7833    2.1336   -0.3423 C   0  0  0  0  0  0  0  0  0  0  0  0
   -4.2167    0.9803    0.2074 C   0  0  0  0  0  0  0  0  0  0  0  0
   -3.1610    1.0683    1.1347 C   0  0  0  0  0  0  0  0  0  0  0  0
   -2.4615   -0.1372    1.6244 C   0  0  0  0  0  0  0  0  0  0  0  0
   -1.1801   -0.4432    1.1489 C   0  0  0  0  0  0  0  0  0  0  0  0
   -0.5405   -1.6185    1.5470 C   0  0  0  0  0  0  0  0  0  0  0  0
   -1.1743   -2.4960    2.4356 C   0  0  0  0  0  0  0  0  0  0  0  0
   -0.3652   -4.0358    2.8879 S   0  0  0  0  0  0  0  0  0  0  0  0
    0.4997   -3.3144    4.3231 C   0  0  0  0  0  0  0  0  0  0  0  0
    1.5084   -4.3108    4.8765 C   0  0  0  0  0  0  0  0  0  0  0  0
   -2.4490   -2.1887    2.9304 C   0  0  0  0  0  0  0  0  0  0  0  0
   -3.0918   -1.0117    2.5263 C   0  0  0  0  0  0  0  0  0  0  0  0
   -3.0757   -3.0359    3.7850 F   0  0  0  0  0  0  0  0  0  0  0  0
   -2.6998    2.3574    1.4449 C   0  0  0  0  0  0  0  0  0  0  0  0
   -1.3921    2.7784    2.4079 S   0  0  0  0  0  0  0  0  0  0  0  0
   -4.6778   -0.1995   -0.3924 C   0  0  0  0  0  0  0  0  0  0  0  0
   -5.5683    0.0261   -1.4422 C   0  0  0  0  0  0  0  0  0  0  0  0
   -5.8110    1.6908   -1.6011 S   0  0  0  0  0  0  0  0  0  0  0  0
   -5.8381   -0.9636   -2.4952 C   0  0  0  0  0  0  0  0  0  0  0  0
   -5.6337   -2.3335   -2.3362 C   0  0  0  0  0  0  0  0  0  0  0  0
   -5.4042   -3.0010   -3.5473 C   0  0  0  0  0  0  0  0  0  0  0  0
   -4.9476   -4.3265   -3.6776 C   0  0  0  0  0  0  0  0  0  0  0  0
   -4.7533   -5.1919   -2.5009 C   0  0  0  0  0  0  0  0  0  0  0  0
   -5.6584   -6.2282   -2.2350 C   0  0  0  0  0  0  0  0  0  0  0  0
   -5.5081   -7.0112   -1.0869 C   0  0  0  0  0  0  0  0  0  0  0  0
   -4.4434   -6.7774   -0.2078 C   0  0  0  0  0  0  0  0  0  0  0  0
   -4.2707   -7.7778    1.2752 S   0  0  0  0  0  0  0  0  0  0  0  0
   -3.1937   -9.0369    0.5040 C   0  0  0  0  0  0  0  0  0  0  0  0
   -4.0192  -10.0868   -0.2297 C   0  0  0  0  0  0  0  0  0  0  0  0
   -3.5355   -5.7415   -0.4707 C   0  0  0  0  0  0  0  0  0  0  0  0
   -2.5109   -5.4892    0.3842 F   0  0  0  0  0  0  0  0  0  0  0  0
   -3.6895   -4.9521   -1.6151 C   0  0  0  0  0  0  0  0  0  0  0  0
   -4.5174   -4.7301   -4.9507 C   0  0  0  0  0  0  0  0  0  0  0  0
   -4.5650   -3.8795   -6.0596 C   0  0  0  0  0  0  0  0  0  0  0  0
   -5.0895   -2.5770   -5.9464 C   0  0  0  0  0  0  0  0  0  0  0  0
   -5.0311   -1.6354   -7.0790 C   0  0  0  0  0  0  0  0  0  0  0  0
   -3.9873   -0.7028   -7.1647 C   0  0  0  0  0  0  0  0  0  0  0  0
   -3.8551    0.0995   -8.3027 C   0  0  0  0  0  0  0  0  0  0  0  0
   -4.7661   -0.0188   -9.3601 C   0  0  0  0  0  0  0  0  0  0  0  0
   -4.5330    0.9519  -10.8546 S   0  0  0  0  0  0  0  0  0  0  0  0
   -5.6598    2.3037  -10.3676 C   0  0  0  0  0  0  0  0  0  0  0  0
   -4.9500    3.3136   -9.4746 C   0  0  0  0  0  0  0  0  0  0  0  0
   -5.8159   -0.9459   -9.2721 C   0  0  0  0  0  0  0  0  0  0  0  0
   -5.9460   -1.7533   -8.1349 C   0  0  0  0  0  0  0  0  0  0  0  0
   -6.6979   -1.0849  -10.2963 F   0  0  0  0  0  0  0  0  0  0  0  0
   -5.4803   -2.1613   -4.6622 C   0  0  0  0  0  0  0  0  0  0  0  0
   -5.8072   -0.5952   -4.1435 S   0  0  0  0  0  0  0  0  0  0  0  0
   -3.8530   -4.3712   -7.1628 C   0  0  0  0  0  0  0  0  0  0  0  0
   -3.2023   -5.5798   -6.9062 C   0  0  0  0  0  0  0  0  0  0  0  0
   -3.5777   -6.0711   -5.3315 S   0  0  0  0  0  0  0  0  0  0  0  0
   -2.0290   -6.0580   -7.6554 C   0  0  0  0  0  0  0  0  0  0  0  0
   -1.2674   -5.2562   -8.5066 C   0  0  0  0  0  0  0  0  0  0  0  0
   -0.0000   -5.7880   -8.7880 C   0  0  0  0  0  0  0  0  0  0  0  0
    1.0258   -5.1478   -9.5137 C   0  0  0  0  0  0  0  0  0  0  0  0
    0.8644   -3.7753  -10.0440 C   0  0  0  0  0  0  0  0  0  0  0  0
    0.5994   -2.7074   -9.1706 C   0  0  0  0  0  0  0  0  0  0  0  0
    0.3875   -1.4196   -9.6714 C   0  0  0  0  0  0  0  0  0  0  0  0
    0.4660   -1.1792  -11.0481 C   0  0  0  0  0  0  0  0  0  0  0  0
    0.1574    0.4757  -11.6781 S   0  0  0  0  0  0  0  0  0  0  0  0
    1.8576    1.0831  -11.3992 C   0  0  0  0  0  0  0  0  0  0  0  0
    2.7763    0.6833  -12.5456 C   0  0  0  0  0  0  0  0  0  0  0  0
    0.7480   -2.2366  -11.9248 C   0  0  0  0  0  0  0  0  0  0  0  0
    0.8092   -2.0194  -13.2629 F   0  0  0  0  0  0  0  0  0  0  0  0
    0.9500   -3.5291  -11.4238 C   0  0  0  0  0  0  0  0  0  0  0  0
    2.2444   -5.8404   -9.6295 C   0  0  0  0  0  0  0  0  0  0  0  0
    2.4573   -7.0962   -9.0494 C   0  0  0  0  0  0  0  0  0  0  0  0
    1.4312   -7.7312   -8.3152 C   0  0  0  0  0  0  0  0  0  0  0  0
    1.6329   -9.0457   -7.6672 C   0  0  0  0  0  0  0  0  0  0  0  0
    1.5124   -9.1794   -6.2751 C   0  0  0  0  0  0  0  0  0  0  0  0
    1.6835  -10.4275   -5.6704 C   0  0  0  0  0  0  0  0  0  0  0  0
    1.9898  -11.5507   -6.4462 C   0  0  0  0  0  0  0  0  0  0  0  0
    2.1909  -13.1489   -5.6550 S   0  0  0  0  0  0  0  0  0  0  0  0
    3.9522  -12.8725   -5.2639 C   0  0  0  0  0  0  0  0  0  0  0  0
    4.4900  -14.0373   -4.4481 C   0  0  0  0  0  0  0  0  0  0  0  0
    2.1123  -11.4250   -7.8366 C   0  0  0  0  0  0  0  0  0  0  0  0
    1.9341  -10.1773   -8.4444 C   0  0  0  0  0  0  0  0  0  0  0  0
    2.4005  -12.5086   -8.6033 F   0  0  0  0  0  0  0  0  0  0  0  0
    0.2125   -7.0379   -8.1993 C   0  0  0  0  0  0  0  0  0  0  0  0
   -1.1486   -7.4528   -7.2952 S   0  0  0  0  0  0  0  0  0  0  0  0
    3.7757   -7.5573   -9.2140 C   0  0  0  0  0  0  0  0  0  0  0  0
    4.5843   -6.6727   -9.9245 C   0  0  0  0  0  0  0  0  0  0  0  0
    3.6774   -5.3144  -10.3386 S   0  0  0  0  0  0  0  0  0  0  0  0
    4.8581   -2.5545   11.8479 H   0  0  0  0  0  0  0  0  0  0  0  0
    6.4938   -0.5871   11.3620 H   0  0  0  0  0  0  0  0  0  0  0  0
    7.8382    0.2393    8.9293 H   0  0  0  0  0  0  0  0  0  0  0  0
   10.1403    0.7802    9.6292 H   0  0  0  0  0  0  0  0  0  0  0  0
   11.2772    3.3997    9.0001 H   0  0  0  0  0  0  0  0  0  0  0  0
   12.8101    3.8068    9.8403 H   0  0  0  0  0  0  0  0  0  0  0  0
   11.6515    5.8828    9.2659 H   0  0  0  0  0  0  0  0  0  0  0  0
   10.1438    5.3310   10.0835 H   0  0  0  0  0  0  0  0  0  0  0  0
   11.6304    5.6841   11.0594 H   0  0  0  0  0  0  0  0  0  0  0  0
    6.3583    3.5605   11.2451 H   0  0  0  0  0  0  0  0  0  0  0  0
    0.5990    1.0389   10.3586 H   0  0  0  0  0  0  0  0  0  0  0  0
   -1.7173    0.7123    9.5743 H   0  0  0  0  0  0  0  0  0  0  0  0
   -3.7207   -2.2283    6.6308 H   0  0  0  0  0  0  0  0  0  0  0  0
   -1.9931   -2.3093    7.1151 H   0  0  0  0  0  0  0  0  0  0  0  0
   -4.3523   -1.5367    8.9662 H   0  0  0  0  0  0  0  0  0  0  0  0
   -2.6143   -1.6902    9.4603 H   0  0  0  0  0  0  0  0  0  0  0  0
   -3.5285   -3.1439    8.9129 H   0  0  0  0  0  0  0  0  0  0  0  0
    2.0708   -0.0343    6.4519 H   0  0  0  0  0  0  0  0  0  0  0  0
    1.8992    2.9147    7.2097 H   0  0  0  0  0  0  0  0  0  0  0  0
    6.6206    7.3316    7.8322 H   0  0  0  0  0  0  0  0  0  0  0  0
    5.0904    8.2427    7.5210 H   0  0  0  0  0  0  0  0  0  0  0  0
    5.0377    6.6593    8.3925 H   0  0  0  0  0  0  0  0  0  0  0  0
    5.0212    9.0413    5.1116 H   0  0  0  0  0  0  0  0  0  0  0  0
    5.0507    9.2903    3.3283 H   0  0  0  0  0  0  0  0  0  0  0  0
    5.8822    7.8565    4.0315 H   0  0  0  0  0  0  0  0  0  0  0  0
    0.0638    9.5531    4.4046 H   0  0  0  0  0  0  0  0  0  0  0  0
    1.6747   10.2663    4.0071 H   0  0  0  0  0  0  0  0  0  0  0  0
    1.5719    8.8230    5.0876 H   0  0  0  0  0  0  0  0  0  0  0  0
    0.0680    9.0458    0.7557 H   0  0  0  0  0  0  0  0  0  0  0  0
   -1.1980    9.4092    2.0159 H   0  0  0  0  0  0  0  0  0  0  0  0
   -1.6771    9.1264    0.3010 H   0  0  0  0  0  0  0  0  0  0  0  0
   -2.8830    5.6793    0.9666 H   0  0  0  0  0  0  0  0  0  0  0  0
   -3.1301    5.2561   -1.6208 H   0  0  0  0  0  0  0  0  0  0  0  0
   -4.1524    7.2461   -2.6521 H   0  0  0  0  0  0  0  0  0  0  0  0
   -7.3092   10.2672   -1.1877 H   0  0  0  0  0  0  0  0  0  0  0  0
   -6.8451    8.8593   -0.1737 H   0  0  0  0  0  0  0  0  0  0  0  0
   -4.9309   10.4740   -1.9946 H   0  0  0  0  0  0  0  0  0  0  0  0
   -5.0960   10.6770   -0.2075 H   0  0  0  0  0  0  0  0  0  0  0  0
   -4.4606    9.1288   -0.8749 H   0  0  0  0  0  0  0  0  0  0  0  0
   -6.9270    4.2326    0.1443 H   0  0  0  0  0  0  0  0  0  0  0  0
   -0.6906    0.2166    0.4441 H   0  0  0  0  0  0  0  0  0  0  0  0
    0.4419   -1.8523    1.1570 H   0  0  0  0  0  0  0  0  0  0  0  0
   -0.2412   -3.0628    5.1121 H   0  0  0  0  0  0  0  0  0  0  0  0
    1.0374   -2.3924    4.0143 H   0  0  0  0  0  0  0  0  0  0  0  0
    2.0373   -3.8626    5.7445 H   0  0  0  0  0  0  0  0  0  0  0  0
    0.9912   -5.2339    5.2132 H   0  0  0  0  0  0  0  0  0  0  0  0
    2.2559   -4.5700    4.0973 H   0  0  0  0  0  0  0  0  0  0  0  0
   -4.0853   -0.7928    2.8976 H   0  0  0  0  0  0  0  0  0  0  0  0
   -4.2676   -1.1750   -0.1635 H   0  0  0  0  0  0  0  0  0  0  0  0
   -5.5267   -2.8060   -1.3680 H   0  0  0  0  0  0  0  0  0  0  0  0
   -6.4907   -6.4141   -2.9040 H   0  0  0  0  0  0  0  0  0  0  0  0
   -6.2238   -7.7969   -0.8799 H   0  0  0  0  0  0  0  0  0  0  0  0
   -2.4679   -8.5650   -0.1924 H   0  0  0  0  0  0  0  0  0  0  0  0
   -2.6178   -9.5370    1.3101 H   0  0  0  0  0  0  0  0  0  0  0  0
   -4.5159   -9.6391   -1.1151 H   0  0  0  0  0  0  0  0  0  0  0  0
   -4.7889  -10.5165    0.4486 H   0  0  0  0  0  0  0  0  0  0  0  0
   -3.3531  -10.9055   -0.5794 H   0  0  0  0  0  0  0  0  0  0  0  0
   -2.9905   -4.1452   -1.8065 H   0  0  0  0  0  0  0  0  0  0  0  0
   -3.2582   -0.6214   -6.3685 H   0  0  0  0  0  0  0  0  0  0  0  0
   -3.0287    0.7938   -8.3718 H   0  0  0  0  0  0  0  0  0  0  0  0
   -6.5586    1.9038   -9.8525 H   0  0  0  0  0  0  0  0  0  0  0  0
   -5.9978    2.8209  -11.2902 H   0  0  0  0  0  0  0  0  0  0  0  0
   -4.6568    2.8423   -8.5144 H   0  0  0  0  0  0  0  0  0  0  0  0
   -5.6355    4.1617   -9.2576 H   0  0  0  0  0  0  0  0  0  0  0  0
   -4.0454    3.7071   -9.9854 H   0  0  0  0  0  0  0  0  0  0  0  0
   -6.7445   -2.4834   -8.0872 H   0  0  0  0  0  0  0  0  0  0  0  0
   -3.7090   -3.8004   -8.0720 H   0  0  0  0  0  0  0  0  0  0  0  0
   -1.5867   -4.2803   -8.8391 H   0  0  0  0  0  0  0  0  0  0  0  0
    0.5399   -2.8747   -8.1022 H   0  0  0  0  0  0  0  0  0  0  0  0
    0.1650   -0.6086   -8.9879 H   0  0  0  0  0  0  0  0  0  0  0  0
    2.2606    0.7028  -10.4376 H   0  0  0  0  0  0  0  0  0  0  0  0
    1.8210    2.1911  -11.3399 H   0  0  0  0  0  0  0  0  0  0  0  0
    3.7777    1.1410  -12.3954 H   0  0  0  0  0  0  0  0  0  0  0  0
    2.8966   -0.4176  -12.5791 H   0  0  0  0  0  0  0  0  0  0  0  0
    2.3630    1.0419  -13.5121 H   0  0  0  0  0  0  0  0  0  0  0  0
    1.1487   -4.3405  -12.1128 H   0  0  0  0  0  0  0  0  0  0  0  0
    1.2885   -8.3173   -5.6581 H   0  0  0  0  0  0  0  0  0  0  0  0
    1.5932  -10.5200   -4.5926 H   0  0  0  0  0  0  0  0  0  0  0  0
    4.0631  -11.9352   -4.6743 H   0  0  0  0  0  0  0  0  0  0  0  0
    4.5338  -12.7789   -6.2077 H   0  0  0  0  0  0  0  0  0  0  0  0
    3.9282  -14.1243   -3.4928 H   0  0  0  0  0  0  0  0  0  0  0  0
    5.5636  -13.8716   -4.2154 H   0  0  0  0  0  0  0  0  0  0  0  0
    4.3915  -14.9832   -5.0219 H   0  0  0  0  0  0  0  0  0  0  0  0
    2.0251  -10.0903   -9.5219 H   0  0  0  0  0  0  0  0  0  0  0  0
    4.1489   -8.4875   -8.8059 H   0  0  0  0  0  0  0  0  0  0  0  0
    5.6303   -6.8241  -10.1460 H   0  0  0  0  0  0  0  0  0  0  0  0
  1  2  2  0
  2  3  1  0
  3  4  2  0
  4  5  1  0
  5  6  2  0
  6  7  1  0
  7  8  2  0
  8  9  1  0
  9 10  1  0
 10 11  1  0
  8 12  1  0
 12 13  1  0
 12 14  2  0
  4 15  1  0
 15 16  2  0
 16 17  1  0
 17 18  1  0
 18 19  2  0
 19 20  1  0
 20 21  2  0
 21 22  1  0
 22 23  1  0
 23 24  1  0
 21 25  1  0
 25 26  2  0
 25 27  1  0
 17 28  2  0
 28 29  1  0
 16 30  1  0
 30 31  2  0
 31 32  1  0
 31 33  1  0
 33 34  1  0
 34 35  1  0
 35 36  2  0
 36 37  1  0
 37 38  1  0
 38 39  1  0
 36 40  1  0
 40 41  1  0
 35 42  1  0
 42 43  1  0
 43 44  1  0
 44 45  2  0
 45 46  1  0
 46 47  1  0
 47 48  1  0
 45 49  1  0
 49 50  1  0
 44 51  1  0
 51 52  2  0
 52 53  1  0
 53 54  2  0
 54 55  1  0
 55 56  2  0
 56 57  1  0
 57 58  2  0
 58 59  1  0
 59 60  1  0
 60 61  1  0
 58 62  1  0
 62 63  1  0
 62 64  2  0
 54 65  1  0
 65 66  2  0
 66 67  1  0
 67 68  1  0
 68 69  2  0
 69 70  1  0
 70 71  2  0
 71 72  1  0
 72 73  1  0
 73 74  1  0
 71 75  1  0
 75 76  2  0
 75 77  1  0
 67 78  2  0
 78 79  1  0
 66 80  1  0
 80 81  2  0
 81 82  1  0
 81 83  1  0
 83 84  2  0
 84 85  1  0
 85 86  2  0
 86 87  1  0
 87 88  2  0
 88 89  1  0
 89 90  2  0
 90 91  1  0
 91 92  1  0
 92 93  1  0
 90 94  1  0
 94 95  1  0
 94 96  2  0
 86 97  1  0
 97 98  2  0
 98 99  1  0
 99100  1  0
100101  2  0
101102  1  0
102103  2  0
103104  1  0
104105  1  0
105106  1  0
103107  1  0
107108  2  0
107109  1  0
 99110  2  0
110111  1  0
 98112  1  0
112113  2  0
113114  1  0
113115  1  0
115116  2  0
116117  1  0
117118  2  0
118119  1  0
119120  2  0
120121  1  0
121122  2  0
122123  1  0
123124  1  0
124125  1  0
122126  1  0
126127  1  0
126128  2  0
118129  1  0
129130  2  0
130131  1  0
131132  1  0
132133  2  0
133134  1  0
134135  2  0
135136  1  0
136137  1  0
137138  1  0
135139  1  0
139140  2  0
139141  1  0
131142  2  0
142143  1  0
130144  1  0
144145  2  0
145146  1  0
 29  1  1  0
 37 33  2  0
 46 42  2  0
 79 51  1  0
111 83  1  0
143115  1  0
 28  3  1  0
 78 53  1  0
110 85  1  0
142117  1  0
 14  5  1  0
 32 15  1  0
 64 55  1  0
 82 65  1  0
 96 87  1  0
114 97  1  0
128119  1  0
146129  1  0
 26 18  1  0
 76 68  1  0
108100  1  0
140132  1  0
  1147  1  0
  2148  1  0
  6149  1  0
  7150  1  0
 10151  1  0
 10152  1  0
 11153  1  0
 11154  1  0
 11155  1  0
 14156  1  0
 19157  1  0
 20158  1  0
 23159  1  0
 23160  1  0
 24161  1  0
 24162  1  0
 24163  1  0
 26164  1  0
 30165  1  0
 39166  1  0
 39167  1  0
 39168  1  0
 41169  1  0
 41170  1  0
 41171  1  0
 48172  1  0
 48173  1  0
 48174  1  0
 50175  1  0
 50176  1  0
 50177  1  0
 52178  1  0
 56179  1  0
 57180  1  0
 60181  1  0
 60182  1  0
 61183  1  0
 61184  1  0
 61185  1  0
 64186  1  0
 69187  1  0
 70188  1  0
 73189  1  0
 73190  1  0
 74191  1  0
 74192  1  0
 74193  1  0
 76194  1  0
 80195  1  0
 84196  1  0
 88197  1  0
 89198  1  0
 92199  1  0
 92200  1  0
 93201  1  0
 93202  1  0
 93203  1  0
 96204  1  0
101205  1  0
102206  1  0
105207  1  0
105208  1  0
106209  1  0
106210  1  0
106211  1  0
108212  1  0
112213  1  0
116214  1  0
120215  1  0
121216  1  0
124217  1  0
124218  1  0
125219  1  0
125220  1  0
125221  1  0
128222  1  0
133223  1  0
134224  1  0
137225  1  0
137226  1  0
138227  1  0
138228  1  0
138229  1  0
140230  1  0
144231  1  0
145232  1  0
M  END

