
     RDKit          3D

232253  0  0  0  0  0  0  0  0999 V2000
   -0.5508    0.6063   16.1820 C   0  0  0  0  0  0  0  0  0  0  0  0
   -1.2303    0.0407   15.2059 O   0  0  0  0  0  0  0  0  0  0  0  0
   -1.5042    0.9426   14.2863 C   0  0  0  0  0  0  0  0  0  0  0  0
   -0.9770    2.1628   14.6703 C   0  0  0  0  0  0  0  0  0  0  0  0
   -0.3631    1.9434   15.8891 C   0  0  0  0  0  0  0  0  0  0  0  0
    0.3446    2.8805   16.6476 O   0  0  0  0  0  0  0  0  0  0  0  0
    1.0020    2.5566   17.8662 C   0  0  0  0  0  0  0  0  0  0  0  0
   -1.0259    3.3503   13.9305 O   0  0  0  0  0  0  0  0  0  0  0  0
   -0.6738    4.6230   14.4493 C   0  0  0  0  0  0  0  0  0  0  0  0
   -2.2385    0.6382   13.0491 C   0  0  0  0  0  0  0  0  0  0  0  0
   -2.8079    1.5600   12.1685 C   0  0  0  0  0  0  0  0  0  0  0  0
   -3.3734    0.9523   11.0339 C   0  0  0  0  0  0  0  0  0  0  0  0
   -3.9768    1.6117    9.9426 C   0  0  0  0  0  0  0  0  0  0  0  0
   -4.1355    3.0814    9.8865 C   0  0  0  0  0  0  0  0  0  0  0  0
   -3.0115    3.9181    9.8673 C   0  0  0  0  0  0  0  0  0  0  0  0
   -3.1710    5.3037    9.7477 C   0  0  0  0  0  0  0  0  0  0  0  0
   -4.4529    5.8596    9.6379 C   0  0  0  0  0  0  0  0  0  0  0  0
   -4.6456    7.6349    9.4396 S   0  0  0  0  0  0  0  0  0  0  0  0
   -4.7945    7.5824    7.6168 C   0  0  0  0  0  0  0  0  0  0  0  0
   -3.4259    7.4801    6.9548 C   0  0  0  0  0  0  0  0  0  0  0  0
   -5.5791    5.0248    9.6838 C   0  0  0  0  0  0  0  0  0  0  0  0
   -6.8255    5.5502    9.5949 F   0  0  0  0  0  0  0  0  0  0  0  0
   -5.4192    3.6412    9.7969 C   0  0  0  0  0  0  0  0  0  0  0  0
   -4.4046    0.8061    8.8734 C   0  0  0  0  0  0  0  0  0  0  0  0
   -4.2730   -0.5869    8.8732 C   0  0  0  0  0  0  0  0  0  0  0  0
   -3.7081   -1.2508    9.9848 C   0  0  0  0  0  0  0  0  0  0  0  0
   -3.5310   -2.7173   10.0227 C   0  0  0  0  0  0  0  0  0  0  0  0
   -2.6875   -3.3565    9.1014 C   0  0  0  0  0  0  0  0  0  0  0  0
   -2.4868   -4.7384    9.1714 C   0  0  0  0  0  0  0  0  0  0  0  0
   -3.1167   -5.4886   10.1713 C   0  0  0  0  0  0  0  0  0  0  0  0
   -2.8167   -7.2567   10.2808 S   0  0  0  0  0  0  0  0  0  0  0  0
   -1.3628   -7.0640   11.3612 C   0  0  0  0  0  0  0  0  0  0  0  0
   -0.7955   -8.4290   11.7215 C   0  0  0  0  0  0  0  0  0  0  0  0
   -3.9657   -4.8566   11.0904 C   0  0  0  0  0  0  0  0  0  0  0  0
   -4.1659   -3.4754   11.0199 C   0  0  0  0  0  0  0  0  0  0  0  0
   -4.5869   -5.5740   12.0599 F   0  0  0  0  0  0  0  0  0  0  0  0
   -3.2665   -0.4407   11.0485 C   0  0  0  0  0  0  0  0  0  0  0  0
   -2.4643   -0.9179   12.4473 S   0  0  0  0  0  0  0  0  0  0  0  0
   -4.6922   -1.1804    7.6692 C   0  0  0  0  0  0  0  0  0  0  0  0
   -5.1024   -0.2463    6.7179 C   0  0  0  0  0  0  0  0  0  0  0  0
   -4.9911    1.3010    7.3812 S   0  0  0  0  0  0  0  0  0  0  0  0
   -5.3523   -0.5227    5.2932 C   0  0  0  0  0  0  0  0  0  0  0  0
   -5.3559   -1.7797    4.6874 C   0  0  0  0  0  0  0  0  0  0  0  0
   -5.3666   -1.7150    3.2852 C   0  0  0  0  0  0  0  0  0  0  0  0
   -5.2543   -2.8076    2.4049 C   0  0  0  0  0  0  0  0  0  0  0  0
   -5.2613   -4.2030    2.8920 C   0  0  0  0  0  0  0  0  0  0  0  0
   -4.1464   -5.0352    2.7010 C   0  0  0  0  0  0  0  0  0  0  0  0
   -4.1760   -6.3631    3.1357 C   0  0  0  0  0  0  0  0  0  0  0  0
   -5.3181   -6.8736    3.7631 C   0  0  0  0  0  0  0  0  0  0  0  0
   -5.3655   -8.5983    4.2692 S   0  0  0  0  0  0  0  0  0  0  0  0
   -6.1527   -9.2006    2.7304 C   0  0  0  0  0  0  0  0  0  0  0  0
   -5.1102   -9.4675    1.6510 C   0  0  0  0  0  0  0  0  0  0  0  0
   -6.4201   -6.0389    3.9927 C   0  0  0  0  0  0  0  0  0  0  0  0
   -7.5274   -6.5138    4.6174 F   0  0  0  0  0  0  0  0  0  0  0  0
   -6.3925   -4.7097    3.5543 C   0  0  0  0  0  0  0  0  0  0  0  0
   -5.0921   -2.5068    1.0386 C   0  0  0  0  0  0  0  0  0  0  0  0
   -5.0582   -1.1957    0.5530 C   0  0  0  0  0  0  0  0  0  0  0  0
   -5.2353   -0.1023    1.4275 C   0  0  0  0  0  0  0  0  0  0  0  0
   -5.2186    1.3020    0.9598 C   0  0  0  0  0  0  0  0  0  0  0  0
   -6.3338    2.1270    1.1738 C   0  0  0  0  0  0  0  0  0  0  0  0
   -6.3097    3.4664    0.7683 C   0  0  0  0  0  0  0  0  0  0  0  0
   -5.1772    3.9875    0.1339 C   0  0  0  0  0  0  0  0  0  0  0  0
   -5.1340    5.7250   -0.3276 S   0  0  0  0  0  0  0  0  0  0  0  0
   -6.0565    5.5181   -1.8919 C   0  0  0  0  0  0  0  0  0  0  0  0
   -5.1709    4.9363   -2.9865 C   0  0  0  0  0  0  0  0  0  0  0  0
   -4.0622    3.1688   -0.0859 C   0  0  0  0  0  0  0  0  0  0  0  0
   -4.0786    1.8343    0.3330 C   0  0  0  0  0  0  0  0  0  0  0  0
   -2.9489    3.6663   -0.6806 F   0  0  0  0  0  0  0  0  0  0  0  0
   -5.3823   -0.4063    2.7942 C   0  0  0  0  0  0  0  0  0  0  0  0
   -5.3807    0.6639    4.0899 S   0  0  0  0  0  0  0  0  0  0  0  0
   -4.7824   -1.1263   -0.8225 C   0  0  0  0  0  0  0  0  0  0  0  0
   -4.6047   -2.3771   -1.4067 C   0  0  0  0  0  0  0  0  0  0  0  0
   -4.8048   -3.5717   -0.2318 S   0  0  0  0  0  0  0  0  0  0  0  0
   -4.0273   -2.5894   -2.7401 C   0  0  0  0  0  0  0  0  0  0  0  0
   -3.1668   -1.7535   -3.2797 O   0  0  0  0  0  0  0  0  0  0  0  0
   -2.7553   -2.2334   -4.4320 C   0  0  0  0  0  0  0  0  0  0  0  0
   -3.4196   -3.4218   -4.6974 C   0  0  0  0  0  0  0  0  0  0  0  0
   -4.2056   -3.6719   -3.5854 C   0  0  0  0  0  0  0  0  0  0  0  0
   -4.9813   -4.8027   -3.3391 O   0  0  0  0  0  0  0  0  0  0  0  0
   -4.4012   -6.0033   -2.8358 C   0  0  0  0  0  0  0  0  0  0  0  0
   -3.3135   -4.1750   -5.8735 O   0  0  0  0  0  0  0  0  0  0  0  0
   -4.2326   -5.1914   -6.2530 C   0  0  0  0  0  0  0  0  0  0  0  0
   -1.6798   -1.6012   -5.2161 C   0  0  0  0  0  0  0  0  0  0  0  0
   -1.0229   -2.1417   -6.3226 C   0  0  0  0  0  0  0  0  0  0  0  0
    0.1449   -1.4376   -6.6673 C   0  0  0  0  0  0  0  0  0  0  0  0
    1.0829   -1.7987   -7.6567 C   0  0  0  0  0  0  0  0  0  0  0  0
    0.9060   -2.9787   -8.5361 C   0  0  0  0  0  0  0  0  0  0  0  0
    0.9046   -2.8199   -9.9327 C   0  0  0  0  0  0  0  0  0  0  0  0
    0.7972   -3.9312  -10.7707 C   0  0  0  0  0  0  0  0  0  0  0  0
    0.6868   -5.2155  -10.2227 C   0  0  0  0  0  0  0  0  0  0  0  0
    0.6241   -6.6493  -11.3082 S   0  0  0  0  0  0  0  0  0  0  0  0
   -1.1923   -6.6352  -11.5220 C   0  0  0  0  0  0  0  0  0  0  0  0
   -1.5396   -6.3113  -12.9679 C   0  0  0  0  0  0  0  0  0  0  0  0
    0.6777   -5.3815   -8.8319 C   0  0  0  0  0  0  0  0  0  0  0  0
    0.5816   -6.6232   -8.2905 F   0  0  0  0  0  0  0  0  0  0  0  0
    0.7885   -4.2694   -7.9917 C   0  0  0  0  0  0  0  0  0  0  0  0
    2.2351   -0.9946   -7.7603 C   0  0  0  0  0  0  0  0  0  0  0  0
    2.4463    0.1372   -6.9616 C   0  0  0  0  0  0  0  0  0  0  0  0
    1.5040    0.5041   -5.9765 C   0  0  0  0  0  0  0  0  0  0  0  0
    1.7347    1.6317   -5.0464 C   0  0  0  0  0  0  0  0  0  0  0  0
    2.8715    1.6470   -4.2202 C   0  0  0  0  0  0  0  0  0  0  0  0
    3.0950    2.7140   -3.3468 C   0  0  0  0  0  0  0  0  0  0  0  0
    2.1714    3.7652   -3.2704 C   0  0  0  0  0  0  0  0  0  0  0  0
    2.4835    5.1504   -2.1695 S   0  0  0  0  0  0  0  0  0  0  0  0
    1.5502    4.4675   -0.7509 C   0  0  0  0  0  0  0  0  0  0  0  0
    2.4024    3.4811    0.0376 C   0  0  0  0  0  0  0  0  0  0  0  0
    1.0345    3.7546   -4.0887 C   0  0  0  0  0  0  0  0  0  0  0  0
    0.8157    2.6905   -4.9696 C   0  0  0  0  0  0  0  0  0  0  0  0
    0.1386    4.7707   -4.0308 F   0  0  0  0  0  0  0  0  0  0  0  0
    0.3635   -0.3144   -5.8610 C   0  0  0  0  0  0  0  0  0  0  0  0
   -0.8450   -0.2343   -4.6993 S   0  0  0  0  0  0  0  0  0  0  0  0
    3.6773    0.7665   -7.2140 C   0  0  0  0  0  0  0  0  0  0  0  0
    4.4486    0.0913   -8.1526 C   0  0  0  0  0  0  0  0  0  0  0  0
    3.6036   -1.2556   -8.7085 S   0  0  0  0  0  0  0  0  0  0  0  0
    5.8312    0.4267   -8.5034 C   0  0  0  0  0  0  0  0  0  0  0  0
    6.3983    1.6970   -8.4437 C   0  0  0  0  0  0  0  0  0  0  0  0
    7.7711    1.6991   -8.7475 C   0  0  0  0  0  0  0  0  0  0  0  0
    8.6190    2.8247   -8.7800 C   0  0  0  0  0  0  0  0  0  0  0  0
    8.1184    4.1840   -8.4922 C   0  0  0  0  0  0  0  0  0  0  0  0
    8.1670    5.1741   -9.4849 C   0  0  0  0  0  0  0  0  0  0  0  0
    7.6295    6.4410   -9.2418 C   0  0  0  0  0  0  0  0  0  0  0  0
    7.0300    6.7275   -8.0093 C   0  0  0  0  0  0  0  0  0  0  0  0
    6.3022    8.3466   -7.7314 S   0  0  0  0  0  0  0  0  0  0  0  0
    4.7094    7.9571   -8.5400 C   0  0  0  0  0  0  0  0  0  0  0  0
    3.7638    7.2449   -7.5833 C   0  0  0  0  0  0  0  0  0  0  0  0
    7.0114    5.7524   -7.0000 C   0  0  0  0  0  0  0  0  0  0  0  0
    6.4586    6.0277   -5.7924 F   0  0  0  0  0  0  0  0  0  0  0  0
    7.5532    4.4875   -7.2415 C   0  0  0  0  0  0  0  0  0  0  0  0
    9.9644    2.5906   -9.1190 C   0  0  0  0  0  0  0  0  0  0  0  0
   10.4659    1.3134   -9.3812 C   0  0  0  0  0  0  0  0  0  0  0  0
    9.6168    0.1925   -9.3328 C   0  0  0  0  0  0  0  0  0  0  0  0
   10.1316   -1.1796   -9.4778 C   0  0  0  0  0  0  0  0  0  0  0  0
   10.1499   -1.8039  -10.7316 C   0  0  0  0  0  0  0  0  0  0  0  0
   10.6185   -3.1162  -10.8507 C   0  0  0  0  0  0  0  0  0  0  0  0
   11.0660   -3.8122   -9.7197 C   0  0  0  0  0  0  0  0  0  0  0  0
   11.6675   -5.4981   -9.8858 S   0  0  0  0  0  0  0  0  0  0  0  0
   10.0843   -6.2936   -9.4305 C   0  0  0  0  0  0  0  0  0  0  0  0
    9.1157   -6.3105  -10.6060 C   0  0  0  0  0  0  0  0  0  0  0  0
   11.0558   -3.1828   -8.4654 C   0  0  0  0  0  0  0  0  0  0  0  0
   10.5877   -1.8720   -8.3463 C   0  0  0  0  0  0  0  0  0  0  0  0
   11.4908   -3.8430   -7.3619 F   0  0  0  0  0  0  0  0  0  0  0  0
    8.2664    0.4241   -9.0351 C   0  0  0  0  0  0  0  0  0  0  0  0
    7.0196   -0.7002   -8.9233 S   0  0  0  0  0  0  0  0  0  0  0  0
   11.8409    1.3049   -9.6619 C   0  0  0  0  0  0  0  0  0  0  0  0
   12.4171    2.5729   -9.6213 C   0  0  0  0  0  0  0  0  0  0  0  0
   11.2257    3.7005   -9.2307 S   0  0  0  0  0  0  0  0  0  0  0  0
   -0.1957    0.0806   17.0620 H   0  0  0  0  0  0  0  0  0  0  0  0
    1.5421    3.4489   18.2350 H   0  0  0  0  0  0  0  0  0  0  0  0
    1.7351    1.7427   17.7001 H   0  0  0  0  0  0  0  0  0  0  0  0
    0.2565    2.2417   18.6229 H   0  0  0  0  0  0  0  0  0  0  0  0
   -0.8265    5.3882   13.6609 H   0  0  0  0  0  0  0  0  0  0  0  0
    0.3894    4.6361   14.7539 H   0  0  0  0  0  0  0  0  0  0  0  0
   -1.3322    4.8684   15.3058 H   0  0  0  0  0  0  0  0  0  0  0  0
   -2.8103    2.6280   12.3340 H   0  0  0  0  0  0  0  0  0  0  0  0
   -2.0136    3.5027    9.9254 H   0  0  0  0  0  0  0  0  0  0  0  0
   -2.2990    5.9457    9.7239 H   0  0  0  0  0  0  0  0  0  0  0  0
   -5.2838    8.5234    7.2853 H   0  0  0  0  0  0  0  0  0  0  0  0
   -5.4373    6.7326    7.2966 H   0  0  0  0  0  0  0  0  0  0  0  0
   -3.5441    7.5429    5.8527 H   0  0  0  0  0  0  0  0  0  0  0  0
   -2.7722    8.3104    7.2950 H   0  0  0  0  0  0  0  0  0  0  0  0
   -2.9477    6.5088    7.2005 H   0  0  0  0  0  0  0  0  0  0  0  0
   -6.2950    3.0041    9.8073 H   0  0  0  0  0  0  0  0  0  0  0  0
   -2.1824   -2.7869    8.3327 H   0  0  0  0  0  0  0  0  0  0  0  0
   -1.8322   -5.2251    8.4567 H   0  0  0  0  0  0  0  0  0  0  0  0
   -1.6531   -6.5307   12.2890 H   0  0  0  0  0  0  0  0  0  0  0  0
   -0.5814   -6.4729   10.8356 H   0  0  0  0  0  0  0  0  0  0  0  0
    0.0808   -8.3025   12.3912 H   0  0  0  0  0  0  0  0  0  0  0  0
   -0.4692   -8.9612   10.8037 H   0  0  0  0  0  0  0  0  0  0  0  0
   -1.5609   -9.0364   12.2467 H   0  0  0  0  0  0  0  0  0  0  0  0
   -4.8182   -2.9933   11.7394 H   0  0  0  0  0  0  0  0  0  0  0  0
   -4.6383   -2.2425    7.4744 H   0  0  0  0  0  0  0  0  0  0  0  0
   -5.2798   -2.7052    5.2440 H   0  0  0  0  0  0  0  0  0  0  0  0
   -3.2569   -4.6538    2.2145 H   0  0  0  0  0  0  0  0  0  0  0  0
   -3.3141   -6.9951    2.9744 H   0  0  0  0  0  0  0  0  0  0  0  0
   -6.9038   -8.4689    2.3535 H   0  0  0  0  0  0  0  0  0  0  0  0
   -6.6835  -10.1479    2.9588 H   0  0  0  0  0  0  0  0  0  0  0  0
   -4.3728  -10.2154    2.0093 H   0  0  0  0  0  0  0  0  0  0  0  0
   -5.6071   -9.8646    0.7381 H   0  0  0  0  0  0  0  0  0  0  0  0
   -4.5854   -8.5320    1.3735 H   0  0  0  0  0  0  0  0  0  0  0  0
   -7.2550   -4.0776    3.7189 H   0  0  0  0  0  0  0  0  0  0  0  0
   -7.2203    1.7378    1.6572 H   0  0  0  0  0  0  0  0  0  0  0  0
   -7.1721    4.0971    0.9513 H   0  0  0  0  0  0  0  0  0  0  0  0
   -6.4054    6.5207   -2.2165 H   0  0  0  0  0  0  0  0  0  0  0  0
   -6.9507    4.8766   -1.7448 H   0  0  0  0  0  0  0  0  0  0  0  0
   -4.8995    3.8863   -2.7497 H   0  0  0  0  0  0  0  0  0  0  0  0
   -5.7244    4.9488   -3.9480 H   0  0  0  0  0  0  0  0  0  0  0  0
   -4.2461    5.5432   -3.0914 H   0  0  0  0  0  0  0  0  0  0  0  0
   -3.2010    1.2173    0.1826 H   0  0  0  0  0  0  0  0  0  0  0  0
   -4.6749   -0.2008   -1.3750 H   0  0  0  0  0  0  0  0  0  0  0  0
   -4.2021   -5.9052   -1.7493 H   0  0  0  0  0  0  0  0  0  0  0  0
   -3.4392   -6.2150   -3.3454 H   0  0  0  0  0  0  0  0  0  0  0  0
   -5.0982   -6.8467   -3.0049 H   0  0  0  0  0  0  0  0  0  0  0  0
   -4.1183   -6.0795   -5.6067 H   0  0  0  0  0  0  0  0  0  0  0  0
   -4.0209   -5.4939   -7.3006 H   0  0  0  0  0  0  0  0  0  0  0  0
   -5.2727   -4.8088   -6.1990 H   0  0  0  0  0  0  0  0  0  0  0  0
   -1.3386   -3.0456   -6.8213 H   0  0  0  0  0  0  0  0  0  0  0  0
    0.9973   -1.8351  -10.3714 H   0  0  0  0  0  0  0  0  0  0  0  0
    0.8131   -3.7971  -11.8469 H   0  0  0  0  0  0  0  0  0  0  0  0
   -1.5751   -7.6492  -11.2772 H   0  0  0  0  0  0  0  0  0  0  0  0
   -1.6913   -5.9092  -10.8429 H   0  0  0  0  0  0  0  0  0  0  0  0
   -2.6426   -6.3247  -13.1042 H   0  0  0  0  0  0  0  0  0  0  0  0
   -1.0847   -7.0620  -13.6496 H   0  0  0  0  0  0  0  0  0  0  0  0
   -1.1712   -5.2992  -13.2385 H   0  0  0  0  0  0  0  0  0  0  0  0
    0.7989   -4.4117   -6.9177 H   0  0  0  0  0  0  0  0  0  0  0  0
    3.5847    0.8312   -4.2541 H   0  0  0  0  0  0  0  0  0  0  0  0
    3.9780    2.7164   -2.7230 H   0  0  0  0  0  0  0  0  0  0  0  0
    0.6152    3.9718   -1.0912 H   0  0  0  0  0  0  0  0  0  0  0  0
    1.2708    5.3110   -0.0836 H   0  0  0  0  0  0  0  0  0  0  0  0
    2.6241    2.5824   -0.5733 H   0  0  0  0  0  0  0  0  0  0  0  0
    3.3509    3.9616    0.3580 H   0  0  0  0  0  0  0  0  0  0  0  0
    1.8449    3.1575    0.9421 H   0  0  0  0  0  0  0  0  0  0  0  0
   -0.0649    2.6939   -5.5972 H   0  0  0  0  0  0  0  0  0  0  0  0
    4.0207    1.6539   -6.6963 H   0  0  0  0  0  0  0  0  0  0  0  0
    5.8283    2.5813   -8.1914 H   0  0  0  0  0  0  0  0  0  0  0  0
    8.5954    4.9556  -10.4552 H   0  0  0  0  0  0  0  0  0  0  0  0
    7.6603    7.1918  -10.0208 H   0  0  0  0  0  0  0  0  0  0  0  0
    4.2416    8.9117   -8.8573 H   0  0  0  0  0  0  0  0  0  0  0  0
    4.8666    7.3394   -9.4503 H   0  0  0  0  0  0  0  0  0  0  0  0
    2.7851    7.0902   -8.0867 H   0  0  0  0  0  0  0  0  0  0  0  0
    4.1716    6.2538   -7.2977 H   0  0  0  0  0  0  0  0  0  0  0  0
    3.6039    7.8619   -6.6737 H   0  0  0  0  0  0  0  0  0  0  0  0
    7.5198    3.7377   -6.4617 H   0  0  0  0  0  0  0  0  0  0  0  0
    9.7932   -1.2798  -11.6077 H   0  0  0  0  0  0  0  0  0  0  0  0
   10.6323   -3.5933  -11.8225 H   0  0  0  0  0  0  0  0  0  0  0  0
    9.6203   -5.7812   -8.5601 H   0  0  0  0  0  0  0  0  0  0  0  0
   10.3006   -7.3437   -9.1344 H   0  0  0  0  0  0  0  0  0  0  0  0
    8.7865   -5.2792  -10.8519 H   0  0  0  0  0  0  0  0  0  0  0  0
    8.2193   -6.9096  -10.3402 H   0  0  0  0  0  0  0  0  0  0  0  0
    9.5973   -6.7647  -11.4962 H   0  0  0  0  0  0  0  0  0  0  0  0
   10.5732   -1.3967   -7.3736 H   0  0  0  0  0  0  0  0  0  0  0  0
   12.4078    0.4085   -9.8880 H   0  0  0  0  0  0  0  0  0  0  0  0
   13.4588    2.7935   -9.8024 H   0  0  0  0  0  0  0  0  0  0  0  0
  1  2  1  0
  2  3  1  0
  3  4  2  0
  4  5  1  0
  5  6  1  0
  6  7  1  0
  4  8  1  0
  8  9  1  0
  3 10  1  0
 10 11  2  0
 11 12  1  0
 12 13  2  0
 13 14  1  0
 14 15  2  0
 15 16  1  0
 16 17  2  0
 17 18  1  0
 18 19  1  0
 19 20  1  0
 17 21  1  0
 21 22  1  0
 21 23  2  0
 13 24  1  0
 24 25  2  0
 25 26  1  0
 26 27  1  0
 27 28  2  0
 28 29  1  0
 29 30  2  0
 30 31  1  0
 31 32  1  0
 32 33  1  0
 30 34  1  0
 34 35  2  0
 34 36  1  0
 26 37  2  0
 37 38  1  0
 25 39  1  0
 39 40  2  0
 40 41  1  0
 40 42  1  0
 42 43  2  0
 43 44  1  0
 44 45  2  0
 45 46  1  0
 46 47  2  0
 47 48  1  0
 48 49  2  0
 49 50  1  0
 50 51  1  0
 51 52  1  0
 49 53  1  0
 53 54  1  0
 53 55  2  0
 45 56  1  0
 56 57  2  0
 57 58  1  0
 58 59  1  0
 59 60  2  0
 60 61  1  0
 61 62  2  0
 62 63  1  0
 63 64  1  0
 64 65  1  0
 62 66  1  0
 66 67  2  0
 66 68  1  0
 58 69  2  0
 69 70  1  0
 57 71  1  0
 71 72  2  0
 72 73  1  0
 72 74  1  0
 74 75  1  0
 75 76  1  0
 76 77  2  0
 77 78  1  0
 78 79  1  0
 79 80  1  0
 77 81  1  0
 81 82  1  0
 76 83  1  0
 83 84  2  0
 84 85  1  0
 85 86  2  0
 86 87  1  0
 87 88  2  0
 88 89  1  0
 89 90  2  0
 90 91  1  0
 91 92  1  0
 92 93  1  0
 90 94  1  0
 94 95  1  0
 94 96  2  0
 86 97  1  0
 97 98  2  0
 98 99  1  0
 99100  1  0
100101  2  0
101102  1  0
102103  2  0
103104  1  0
104105  1  0
105106  1  0
103107  1  0
107108  2  0
107109  1  0
 99110  2  0
110111  1  0
 98112  1  0
112113  2  0
113114  1  0
113115  1  0
115116  2  0
116117  1  0
117118  2  0
118119  1  0
119120  2  0
120121  1  0
121122  2  0
122123  1  0
123124  1  0
124125  1  0
122126  1  0
126127  1  0
126128  2  0
118129  1  0
129130  2  0
130131  1  0
131132  1  0
132133  2  0
133134  1  0
134135  2  0
135136  1  0
136137  1  0
137138  1  0
135139  1  0
139140  2  0
139141  1  0
131142  2  0
142143  1  0
130144  1  0
144145  2  0
145146  1  0
  5  1  2  0
 38 10  1  0
 70 42  1  0
 78 74  2  0
111 83  1  0
143115  1  0
 37 12  1  0
 69 44  1  0
110 85  1  0
142117  1  0
 23 14  1  0
 41 24  1  0
 55 46  1  0
 73 56  1  0
 96 87  1  0
114 97  1  0
128119  1  0
146129  1  0
 35 27  1  0
 67 59  1  0
108100  1  0
140132  1  0
  1147  1  0
  7148  1  0
  7149  1  0
  7150  1  0
  9151  1  0
  9152  1  0
  9153  1  0
 11154  1  0
 15155  1  0
 16156  1  0
 19157  1  0
 19158  1  0
 20159  1  0
 20160  1  0
 20161  1  0
 23162  1  0
 28163  1  0
 29164  1  0
 32165  1  0
 32166  1  0
 33167  1  0
 33168  1  0
 33169  1  0
 35170  1  0
 39171  1  0
 43172  1  0
 47173  1  0
 48174  1  0
 51175  1  0
 51176  1  0
 52177  1  0
 52178  1  0
 52179  1  0
 55180  1  0
 60181  1  0
 61182  1  0
 64183  1  0
 64184  1  0
 65185  1  0
 65186  1  0
 65187  1  0
 67188  1  0
 71189  1  0
 80190  1  0
 80191  1  0
 80192  1  0
 82193  1  0
 82194  1  0
 82195  1  0
 84196  1  0
 88197  1  0
 89198  1  0
 92199  1  0
 92200  1  0
 93201  1  0
 93202  1  0
 93203  1  0
 96204  1  0
101205  1  0
102206  1  0
105207  1  0
105208  1  0
106209  1  0
106210  1  0
106211  1  0
108212  1  0
112213  1  0
116214  1  0
120215  1  0
121216  1  0
124217  1  0
124218  1  0
125219  1  0
125220  1  0
125221  1  0
128222  1  0
133223  1  0
134224  1  0
137225  1  0
137226  1  0
138227  1  0
138228  1  0
138229  1  0
140230  1  0
144231  1  0
145232  1  0
M  END

