
     RDKit          3D

203223  0  0  0  0  0  0  0  0999 V2000
   12.2871   -3.1181    2.8290 C   0  0  0  0  0  0  0  0  0  0  0  0
   11.5910   -3.2755    4.0240 C   0  0  0  0  0  0  0  0  0  0  0  0
   10.3375   -2.6361    4.0208 C   0  0  0  0  0  0  0  0  0  0  0  0
    9.4420   -2.5518    5.1047 C   0  0  0  0  0  0  0  0  0  0  0  0
    9.7283   -3.1877    6.4037 C   0  0  0  0  0  0  0  0  0  0  0  0
    9.7338   -4.8471    6.6829 S   0  0  0  0  0  0  0  0  0  0  0  0
   10.1219   -4.7558    8.3198 C   0  0  0  0  0  0  0  0  0  0  0  0
   10.3259   -5.9398    9.2185 C   0  0  0  0  0  0  0  0  0  0  0  0
   11.7176   -6.5306    9.0305 C   0  0  0  0  0  0  0  0  0  0  0  0
   10.2792   -3.4109    8.6649 C   0  0  0  0  0  0  0  0  0  0  0  0
   10.7281   -2.8627   10.2741 Cl  0  0  0  0  0  0  0  0  0  0  0  0
   10.0476   -2.5315    7.5922 C   0  0  0  0  0  0  0  0  0  0  0  0
   10.2024   -0.7833    7.7235 Cl  0  0  0  0  0  0  0  0  0  0  0  0
    8.2715   -1.7999    4.9040 C   0  0  0  0  0  0  0  0  0  0  0  0
    7.9784   -1.1649    3.6952 C   0  0  0  0  0  0  0  0  0  0  0  0
    8.8777   -1.2396    2.6106 C   0  0  0  0  0  0  0  0  0  0  0  0
    8.6654   -0.4766    1.3662 C   0  0  0  0  0  0  0  0  0  0  0  0
    8.6036    1.2032    1.2878 S   0  0  0  0  0  0  0  0  0  0  0  0
    8.5406    1.3060   -0.3926 C   0  0  0  0  0  0  0  0  0  0  0  0
    8.5615    2.5870   -1.1685 C   0  0  0  0  0  0  0  0  0  0  0  0
    9.9926    3.0053   -1.4830 C   0  0  0  0  0  0  0  0  0  0  0  0
    8.6081    0.0171   -0.9167 C   0  0  0  0  0  0  0  0  0  0  0  0
    8.6480   -0.9836    0.0665 C   0  0  0  0  0  0  0  0  0  0  0  0
    8.6269   -2.7014   -0.3039 Cl  0  0  0  0  0  0  0  0  0  0  0  0
    8.7205   -0.3276   -2.6364 Cl  0  0  0  0  0  0  0  0  0  0  0  0
   10.0544   -1.9857    2.8133 C   0  0  0  0  0  0  0  0  0  0  0  0
   11.3623   -2.1870    1.7737 S   0  0  0  0  0  0  0  0  0  0  0  0
    6.7597   -0.4679    3.7159 C   0  0  0  0  0  0  0  0  0  0  0  0
    6.1084   -0.5505    4.9461 C   0  0  0  0  0  0  0  0  0  0  0  0
    7.0393   -1.4806    6.0041 S   0  0  0  0  0  0  0  0  0  0  0  0
    4.8725    0.1468    5.3287 C   0  0  0  0  0  0  0  0  0  0  0  0
    4.5975    0.7723    6.8657 S   0  0  0  0  0  0  0  0  0  0  0  0
    3.0119    1.2620    6.6166 C   0  0  0  0  0  0  0  0  0  0  0  0
    2.6593    0.9106    5.3161 C   0  0  0  0  0  0  0  0  0  0  0  0
    3.7024    0.3179    4.5809 C   0  0  0  0  0  0  0  0  0  0  0  0
    3.3987   -0.3059    3.2392 C   0  0  1  0  0  0  0  0  0  0  0  0
    2.0772   -1.0986    3.3711 C   0  0  0  0  0  0  0  0  0  0  0  0
    0.8926   -0.3085    4.0070 C   0  0  0  0  0  0  0  0  0  0  0  0
    1.2863    1.0237    4.7113 C   0  0  1  0  0  0  0  0  0  0  0  0
    0.2848    1.4410    5.6963 N   0  0  0  0  0  4  0  0  0  0  0  0
    0.1199    2.7839    5.9555 O   0  0  0  0  0  1  0  0  0  0  0  0
   -0.3004    0.6100    6.4234 O   0  0  0  0  0  0  0  0  0  0  0  0
    3.2721    0.7228    2.1982 N   0  0  0  0  0  0  0  0  0  0  0  0
    4.3667    1.0776    1.3495 C   0  0  0  0  0  0  0  0  0  0  0  0
    4.5417    0.5632    0.1234 C   0  0  0  0  0  0  0  0  0  0  0  0
    3.6301   -0.4054   -0.5309 C   0  0  0  0  0  0  0  0  0  0  0  0
    1.9954   -0.6336   -0.1868 S   0  0  0  0  0  0  0  0  0  0  0  0
    1.7120   -1.8948   -1.2442 C   0  0  0  0  0  0  0  0  0  0  0  0
    2.8962   -2.1551   -1.9182 C   0  0  0  0  0  0  0  0  0  0  0  0
    3.9693   -1.3088   -1.5502 C   0  0  0  0  0  0  0  0  0  0  0  0
    5.3148   -1.3538   -2.2495 C   0  0  1  0  0  0  0  0  0  0  0  0
    5.5271   -2.7002   -2.9971 C   0  0  0  0  0  0  0  0  0  0  0  0
    4.2696   -3.1685   -3.7561 C   0  0  0  0  0  0  0  0  0  0  0  0
    3.0658   -3.3438   -2.8254 C   0  0  1  0  0  0  0  0  0  0  0  0
    3.2086   -4.5659   -2.0304 N   0  0  0  0  0  4  0  0  0  0  0  0
    4.0305   -4.5924   -0.9326 O   0  0  0  0  0  1  0  0  0  0  0  0
    2.7195   -5.6329   -2.4599 O   0  0  0  0  0  0  0  0  0  0  0  0
    5.4554   -0.1779   -3.1208 N   0  0  0  0  0  0  0  0  0  0  0  0
    5.7370   -0.2234   -4.5252 C   0  0  0  0  0  0  0  0  0  0  0  0
    4.8129    0.0746   -5.4406 C   0  0  0  0  0  0  0  0  0  0  0  0
    3.4427    0.4865   -5.1030 C   0  0  0  0  0  0  0  0  0  0  0  0
    2.3114    0.0327   -5.7661 C   0  0  0  0  0  0  0  0  0  0  0  0
    1.1207    0.5622   -5.2423 C   0  0  0  0  0  0  0  0  0  0  0  0
   -0.1845    0.2648   -5.6822 C   0  0  0  0  0  0  0  0  0  0  0  0
   -0.4403   -0.6550   -6.8056 C   0  0  0  0  0  0  0  0  0  0  0  0
   -1.2500   -2.1268   -6.6792 S   0  0  0  0  0  0  0  0  0  0  0  0
   -1.0946   -2.5632   -8.2967 C   0  0  0  0  0  0  0  0  0  0  0  0
   -1.5780   -3.8581   -8.8810 C   0  0  0  0  0  0  0  0  0  0  0  0
   -0.4456   -4.8724   -8.9709 C   0  0  0  0  0  0  0  0  0  0  0  0
   -0.3795   -1.5657   -8.9600 C   0  0  0  0  0  0  0  0  0  0  0  0
    0.0374   -1.6412  -10.6668 Cl  0  0  0  0  0  0  0  0  0  0  0  0
   -0.0291   -0.4907   -8.1291 C   0  0  0  0  0  0  0  0  0  0  0  0
    0.8255    0.9384   -8.7050 Cl  0  0  0  0  0  0  0  0  0  0  0  0
   -1.2375    0.8579   -4.9685 C   0  0  0  0  0  0  0  0  0  0  0  0
   -1.0255    1.7238   -3.8883 C   0  0  0  0  0  0  0  0  0  0  0  0
    0.2796    2.0503   -3.4758 C   0  0  0  0  0  0  0  0  0  0  0  0
    0.5386    3.0173   -2.3864 C   0  0  0  0  0  0  0  0  0  0  0  0
    1.2917    2.6551   -0.9268 S   0  0  0  0  0  0  0  0  0  0  0  0
    1.1735    4.1970   -0.2629 C   0  0  0  0  0  0  0  0  0  0  0  0
    1.7080    4.5930    1.0807 C   0  0  0  0  0  0  0  0  0  0  0  0
    3.1640    5.0285    0.9742 C   0  0  0  0  0  0  0  0  0  0  0  0
    0.5552    5.0300   -1.1938 C   0  0  0  0  0  0  0  0  0  0  0  0
    0.1934    4.3697   -2.3824 C   0  0  0  0  0  0  0  0  0  0  0  0
   -0.5638    5.1814   -3.7468 Cl  0  0  0  0  0  0  0  0  0  0  0  0
    0.2774    6.7477   -0.9275 Cl  0  0  0  0  0  0  0  0  0  0  0  0
    1.3324    1.4288   -4.1642 C   0  0  0  0  0  0  0  0  0  0  0  0
    2.9869    1.5515   -3.8714 S   0  0  0  0  0  0  0  0  0  0  0  0
   -2.2080    2.1321   -3.2602 C   0  0  0  0  0  0  0  0  0  0  0  0
   -3.3497    1.5896   -3.8460 C   0  0  0  0  0  0  0  0  0  0  0  0
   -2.8919    0.6249   -5.1565 S   0  0  0  0  0  0  0  0  0  0  0  0
   -4.7077    1.6471   -3.2851 C   0  0  0  0  0  0  0  0  0  0  0  0
   -5.0214    2.1041   -2.0056 C   0  0  0  0  0  0  0  0  0  0  0  0
   -6.3399    1.8112   -1.6282 C   0  0  0  0  0  0  0  0  0  0  0  0
   -6.9140    2.0454   -0.3663 C   0  0  0  0  0  0  0  0  0  0  0  0
   -6.1640    2.7171    0.7088 C   0  0  0  0  0  0  0  0  0  0  0  0
   -4.8007    2.0796    1.4706 S   0  0  0  0  0  0  0  0  0  0  0  0
   -4.4250    3.4655    2.3506 C   0  0  0  0  0  0  0  0  0  0  0  0
   -3.1996    3.6294    3.1993 C   0  0  0  0  0  0  0  0  0  0  0  0
   -1.9916    3.9994    2.3425 C   0  0  0  0  0  0  0  0  0  0  0  0
   -5.3539    4.4583    2.0370 C   0  0  0  0  0  0  0  0  0  0  0  0
   -5.2895    6.0912    2.6800 Cl  0  0  0  0  0  0  0  0  0  0  0  0
   -6.3300    4.0347    1.1216 C   0  0  0  0  0  0  0  0  0  0  0  0
   -7.5764    5.0937    0.4749 Cl  0  0  0  0  0  0  0  0  0  0  0  0
   -8.2204    1.5748   -0.1667 C   0  0  0  0  0  0  0  0  0  0  0  0
   -8.9483    0.9188   -1.1670 C   0  0  0  0  0  0  0  0  0  0  0  0
   -8.3890    0.7373   -2.4519 C   0  0  0  0  0  0  0  0  0  0  0  0
   -9.1432    0.1315   -3.5623 C   0  0  0  0  0  0  0  0  0  0  0  0
   -9.6965   -1.4533   -3.6086 S   0  0  0  0  0  0  0  0  0  0  0  0
  -10.4230   -1.3478   -5.1253 C   0  0  0  0  0  0  0  0  0  0  0  0
  -11.1674   -2.4680   -5.7960 C   0  0  0  0  0  0  0  0  0  0  0  0
  -10.1963   -3.4865   -6.3798 C   0  0  0  0  0  0  0  0  0  0  0  0
  -10.2119   -0.0678   -5.6329 C   0  0  0  0  0  0  0  0  0  0  0  0
   -9.4895    0.7610   -4.7596 C   0  0  0  0  0  0  0  0  0  0  0  0
   -9.1231    2.4510   -5.0981 Cl  0  0  0  0  0  0  0  0  0  0  0  0
  -10.7856    0.4697   -7.2087 Cl  0  0  0  0  0  0  0  0  0  0  0  0
   -7.0712    1.1745   -2.6375 C   0  0  0  0  0  0  0  0  0  0  0  0
   -6.0746    0.9294   -3.9723 S   0  0  0  0  0  0  0  0  0  0  0  0
  -10.2083    0.4751   -0.7294 C   0  0  0  0  0  0  0  0  0  0  0  0
  -10.4495    0.7853    0.6096 C   0  0  0  0  0  0  0  0  0  0  0  0
   -9.1288    1.6203    1.2456 S   0  0  0  0  0  0  0  0  0  0  0  0
  -11.6310    0.4079    1.3949 C   0  0  0  0  0  0  0  0  0  0  0  0
  -12.4225    1.4429    2.4572 S   0  0  0  0  0  0  0  0  0  0  0  0
  -13.5114    0.3148    3.0664 C   0  0  0  0  0  0  0  0  0  0  0  0
  -13.2476   -0.9130    2.4642 C   0  0  0  0  0  0  0  0  0  0  0  0
  -12.1995   -0.8641    1.5214 C   0  0  0  0  0  0  0  0  0  0  0  0
  -11.7937   -2.0943    0.7513 C   0  0  1  0  0  0  0  0  0  0  0  0
  -11.9368   -3.3023    1.6974 C   0  0  0  0  0  0  0  0  0  0  0  0
  -13.3938   -3.4694    2.1543 C   0  0  0  0  0  0  0  0  0  0  0  0
  -13.9871   -2.1894    2.8158 C   0  0  1  0  0  0  0  0  0  0  0  0
  -14.0471   -2.3460    4.2704 N   0  0  0  0  0  4  0  0  0  0  0  0
  -15.2720   -2.3507    4.9006 O   0  0  0  0  0  1  0  0  0  0  0  0
  -13.0097   -2.5314    4.9494 O   0  0  0  0  0  0  0  0  0  0  0  0
  -12.6527   -2.2301   -0.4382 N   0  0  0  0  0  0  0  0  0  0  0  0
  -12.2422   -2.8909   -1.6408 C   0  0  0  0  0  0  0  0  0  0  0  0
  -11.9679   -4.1975   -1.6762 C   0  0  0  0  0  0  0  0  0  0  0  0
   13.2714   -3.5160    2.6192 H   0  0  0  0  0  0  0  0  0  0  0  0
   11.9976   -3.8122    4.8727 H   0  0  0  0  0  0  0  0  0  0  0  0
   10.1880   -5.6456   10.2806 H   0  0  0  0  0  0  0  0  0  0  0  0
    9.5649   -6.7143    8.9797 H   0  0  0  0  0  0  0  0  0  0  0  0
   11.8798   -7.3482    9.7643 H   0  0  0  0  0  0  0  0  0  0  0  0
   11.8191   -6.9508    8.0088 H   0  0  0  0  0  0  0  0  0  0  0  0
   12.4942   -5.7530    9.1861 H   0  0  0  0  0  0  0  0  0  0  0  0
    7.9899    2.4610   -2.1135 H   0  0  0  0  0  0  0  0  0  0  0  0
    8.0641    3.3862   -0.5738 H   0  0  0  0  0  0  0  0  0  0  0  0
   10.5184    2.1983   -2.0350 H   0  0  0  0  0  0  0  0  0  0  0  0
   10.5444    3.2297   -0.5449 H   0  0  0  0  0  0  0  0  0  0  0  0
    9.9808    3.9177   -2.1120 H   0  0  0  0  0  0  0  0  0  0  0  0
    6.3828    0.0997    2.8827 H   0  0  0  0  0  0  0  0  0  0  0  0
    2.3685    1.7113    7.3634 H   0  0  0  0  0  0  0  0  0  0  0  0
    4.1917   -1.0270    2.9460 H   0  0  0  0  0  0  0  0  0  0  0  0
    2.2876   -1.9872    4.0053 H   0  0  0  0  0  0  0  0  0  0  0  0
    1.7694   -1.5112    2.3920 H   0  0  0  0  0  0  0  0  0  0  0  0
    0.3979   -0.9959    4.7339 H   0  0  0  0  0  0  0  0  0  0  0  0
    0.1372   -0.0799    3.2176 H   0  0  0  0  0  0  0  0  0  0  0  0
    1.3394    1.8182    3.9372 H   0  0  0  0  0  0  0  0  0  0  0  0
    2.3475    1.1617    1.9907 H   0  0  0  0  0  0  0  0  0  0  0  0
    5.1185    1.7498    1.7309 H   0  0  0  0  0  0  0  0  0  0  0  0
    5.4534    0.8303   -0.3948 H   0  0  0  0  0  0  0  0  0  0  0  0
    0.7854   -2.4486   -1.3413 H   0  0  0  0  0  0  0  0  0  0  0  0
    6.0969   -1.2997   -1.4712 H   0  0  0  0  0  0  0  0  0  0  0  0
    6.3821   -2.6355   -3.7031 H   0  0  0  0  0  0  0  0  0  0  0  0
    5.8224   -3.4765   -2.2586 H   0  0  0  0  0  0  0  0  0  0  0  0
    4.4907   -4.1384   -4.2564 H   0  0  0  0  0  0  0  0  0  0  0  0
    4.0109   -2.4418   -4.5509 H   0  0  0  0  0  0  0  0  0  0  0  0
    2.1528   -3.4284   -3.4562 H   0  0  0  0  0  0  0  0  0  0  0  0
    5.4321    0.7659   -2.6819 H   0  0  0  0  0  0  0  0  0  0  0  0
    6.6949   -0.5980   -4.8519 H   0  0  0  0  0  0  0  0  0  0  0  0
    5.0530   -0.0944   -6.4857 H   0  0  0  0  0  0  0  0  0  0  0  0
    2.3490   -0.6792   -6.5846 H   0  0  0  0  0  0  0  0  0  0  0  0
   -2.0027   -3.6789   -9.8911 H   0  0  0  0  0  0  0  0  0  0  0  0
   -2.3843   -4.2702   -8.2381 H   0  0  0  0  0  0  0  0  0  0  0  0
    0.3626   -4.4997   -9.6376 H   0  0  0  0  0  0  0  0  0  0  0  0
   -0.0269   -5.0761   -7.9618 H   0  0  0  0  0  0  0  0  0  0  0  0
   -0.8352   -5.8252   -9.3896 H   0  0  0  0  0  0  0  0  0  0  0  0
    1.6342    3.7280    1.7764 H   0  0  0  0  0  0  0  0  0  0  0  0
    1.1016    5.4217    1.5028 H   0  0  0  0  0  0  0  0  0  0  0  0
    3.7951    4.1862    0.6181 H   0  0  0  0  0  0  0  0  0  0  0  0
    3.5304    5.3513    1.9714 H   0  0  0  0  0  0  0  0  0  0  0  0
    3.2642    5.8827    0.2721 H   0  0  0  0  0  0  0  0  0  0  0  0
   -2.2246    2.7506   -2.3757 H   0  0  0  0  0  0  0  0  0  0  0  0
   -4.3034    2.5814   -1.3498 H   0  0  0  0  0  0  0  0  0  0  0  0
   -3.3683    4.4211    3.9623 H   0  0  0  0  0  0  0  0  0  0  0  0
   -2.9914    2.6785    3.7358 H   0  0  0  0  0  0  0  0  0  0  0  0
   -1.7481    3.1706    1.6460 H   0  0  0  0  0  0  0  0  0  0  0  0
   -2.1934    4.9234    1.7595 H   0  0  0  0  0  0  0  0  0  0  0  0
   -1.1111    4.1760    2.9937 H   0  0  0  0  0  0  0  0  0  0  0  0
  -11.8180   -2.0739   -6.6046 H   0  0  0  0  0  0  0  0  0  0  0  0
  -11.8237   -2.9632   -5.0511 H   0  0  0  0  0  0  0  0  0  0  0  0
  -10.7692   -4.2684   -6.9230 H   0  0  0  0  0  0  0  0  0  0  0  0
   -9.4975   -2.9905   -7.0860 H   0  0  0  0  0  0  0  0  0  0  0  0
   -9.6048   -3.9728   -5.5725 H   0  0  0  0  0  0  0  0  0  0  0  0
  -10.9157   -0.0467   -1.3562 H   0  0  0  0  0  0  0  0  0  0  0  0
  -14.2599    0.5007    3.8286 H   0  0  0  0  0  0  0  0  0  0  0  0
  -10.7288   -2.0147    0.4369 H   0  0  0  0  0  0  0  0  0  0  0  0
  -11.2942   -3.1488    2.5923 H   0  0  0  0  0  0  0  0  0  0  0  0
  -11.5698   -4.2310    1.2246 H   0  0  0  0  0  0  0  0  0  0  0  0
  -14.0217   -3.7441    1.2768 H   0  0  0  0  0  0  0  0  0  0  0  0
  -13.4584   -4.3306    2.8563 H   0  0  0  0  0  0  0  0  0  0  0  0
  -15.0289   -2.0761    2.4386 H   0  0  0  0  0  0  0  0  0  0  0  0
  -13.4347   -1.5482   -0.5598 H   0  0  0  0  0  0  0  0  0  0  0  0
  -12.2814   -2.3464   -2.5745 H   0  0  0  0  0  0  0  0  0  0  0  0
  -12.0602   -4.8195   -0.8051 H   0  0  0  0  0  0  0  0  0  0  0  0
  -11.7208   -4.6697   -2.6214 H   0  0  0  0  0  0  0  0  0  0  0  0
  1  2  2  0
  2  3  1  0
  3  4  2  0
  4  5  1  0
  5  6  1  0
  6  7  1  0
  7  8  1  0
  8  9  1  0
  7 10  2  0
 10 11  1  0
 10 12  1  0
 12 13  1  0
  4 14  1  0
 14 15  2  0
 15 16  1  0
 16 17  1  0
 17 18  1  0
 18 19  1  0
 19 20  1  0
 20 21  1  0
 19 22  2  0
 22 23  1  0
 23 24  1  0
 22 25  1  0
 16 26  2  0
 26 27  1  0
 15 28  1  0
 28 29  2  0
 29 30  1  0
 29 31  1  0
 31 32  1  0
 32 33  1  0
 33 34  2  0
 34 35  1  0
 35 36  1  0
 36 37  1  0
 37 38  1  0
 38 39  1  0
 39 40  1  0
 40 41  1  0
 40 42  2  0
 36 43  1  0
 43 44  1  0
 44 45  2  3
 45 46  1  0
 46 47  1  0
 47 48  1  0
 48 49  2  0
 49 50  1  0
 50 51  1  0
 51 52  1  0
 52 53  1  0
 53 54  1  0
 54 55  1  0
 55 56  1  0
 55 57  2  0
 51 58  1  0
 58 59  1  0
 59 60  2  3
 60 61  1  0
 61 62  2  0
 62 63  1  0
 63 64  2  0
 64 65  1  0
 65 66  1  0
 66 67  1  0
 67 68  1  0
 68 69  1  0
 67 70  2  0
 70 71  1  0
 70 72  1  0
 72 73  1  0
 64 74  1  0
 74 75  2  0
 75 76  1  0
 76 77  1  0
 77 78  1  0
 78 79  1  0
 79 80  1  0
 80 81  1  0
 79 82  2  0
 82 83  1  0
 83 84  1  0
 82 85  1  0
 76 86  2  0
 86 87  1  0
 75 88  1  0
 88 89  2  0
 89 90  1  0
 89 91  1  0
 91 92  2  0
 92 93  1  0
 93 94  2  0
 94 95  1  0
 95 96  1  0
 96 97  1  0
 97 98  1  0
 98 99  1  0
 97100  2  0
100101  1  0
100102  1  0
102103  1  0
 94104  1  0
104105  2  0
105106  1  0
106107  1  0
107108  1  0
108109  1  0
109110  1  0
110111  1  0
109112  2  0
112113  1  0
113114  1  0
112115  1  0
106116  2  0
116117  1  0
105118  1  0
118119  2  0
119120  1  0
119121  1  0
121122  1  0
122123  1  0
123124  2  0
124125  1  0
125126  1  0
126127  1  0
127128  1  0
128129  1  0
129130  1  0
130131  1  0
130132  2  0
126133  1  0
133134  1  0
134135  2  3
 27  1  1  0
 35 31  2  0
 50 46  2  0
 87 61  1  0
117 91  1  0
125121  2  0
 26  3  1  0
 39 34  1  0
 54 49  1  0
 86 63  1  0
116 93  1  0
129124  1  0
 12  5  2  0
 30 14  1  0
 72 65  2  0
 90 74  1  0
102 95  2  0
120104  1  0
 23 17  2  0
 83 77  2  0
113107  2  0
  1136  1  0
  2137  1  0
  8138  1  0
  8139  1  0
  9140  1  0
  9141  1  0
  9142  1  0
 20143  1  0
 20144  1  0
 21145  1  0
 21146  1  0
 21147  1  0
 28148  1  0
 33149  1  0
 36150  1  6
 37151  1  0
 37152  1  0
 38153  1  0
 38154  1  0
 39155  1  6
 43156  1  0
 44157  1  0
 45158  1  0
 48159  1  0
 51160  1  1
 52161  1  0
 52162  1  0
 53163  1  0
 53164  1  0
 54165  1  6
 58166  1  0
 59167  1  0
 60168  1  0
 62169  1  0
 68170  1  0
 68171  1  0
 69172  1  0
 69173  1  0
 69174  1  0
 80175  1  0
 80176  1  0
 81177  1  0
 81178  1  0
 81179  1  0
 88180  1  0
 92181  1  0
 98182  1  0
 98183  1  0
 99184  1  0
 99185  1  0
 99186  1  0
110187  1  0
110188  1  0
111189  1  0
111190  1  0
111191  1  0
118192  1  0
123193  1  0
126194  1  6
127195  1  0
127196  1  0
128197  1  0
128198  1  0
129199  1  6
133200  1  0
134201  1  0
135202  1  0
135203  1  0
M  CHG  6  40   1  41  -1  55   1  56  -1 130   1 131  -1
M  END

