
     RDKit          3D

242265  0  0  0  0  0  0  0  0999 V2000
   -1.5778   -0.9178   11.0506 C   0  0  0  0  0  0  0  0  0  0  0  0
   -1.9355   -0.1452    9.9509 C   0  0  0  0  0  0  0  0  0  0  0  0
   -2.2802   -0.9125    8.8223 C   0  0  0  0  0  0  0  0  0  0  0  0
   -2.7193   -0.4186    7.5711 C   0  0  0  0  0  0  0  0  0  0  0  0
   -2.7520    1.0322    7.2818 C   0  0  0  0  0  0  0  0  0  0  0  0
   -1.5801    1.7935    7.4058 C   0  0  0  0  0  0  0  0  0  0  0  0
   -1.6152    3.1777    7.2287 C   0  0  0  0  0  0  0  0  0  0  0  0
   -2.8192    3.8155    6.9051 C   0  0  0  0  0  0  0  0  0  0  0  0
   -2.8583    5.6041    6.7582 S   0  0  0  0  0  0  0  0  0  0  0  0
   -2.3136    5.6159    5.0196 C   0  0  0  0  0  0  0  0  0  0  0  0
   -2.0940    7.0471    4.5577 C   0  0  0  0  0  0  0  0  0  0  0  0
   -3.9873    3.0586    6.7479 C   0  0  0  0  0  0  0  0  0  0  0  0
   -5.1651    3.6682    6.4543 F   0  0  0  0  0  0  0  0  0  0  0  0
   -3.9565    1.6713    6.9407 C   0  0  0  0  0  0  0  0  0  0  0  0
   -3.1007   -1.3766    6.6127 C   0  0  0  0  0  0  0  0  0  0  0  0
   -3.0202   -2.7540    6.8493 C   0  0  0  0  0  0  0  0  0  0  0  0
   -2.5694   -3.2388    8.0907 C   0  0  0  0  0  0  0  0  0  0  0  0
   -2.5066   -4.6788    8.3823 C   0  0  0  0  0  0  0  0  0  0  0  0
   -3.6882   -5.4174    8.5386 C   0  0  0  0  0  0  0  0  0  0  0  0
   -3.6282   -6.7821    8.8229 C   0  0  0  0  0  0  0  0  0  0  0  0
   -2.3881   -7.4216    8.9479 C   0  0  0  0  0  0  0  0  0  0  0  0
   -2.3281   -9.1745    9.3291 S   0  0  0  0  0  0  0  0  0  0  0  0
   -2.0369   -8.9332   11.1195 C   0  0  0  0  0  0  0  0  0  0  0  0
   -3.3079   -8.5076   11.8446 C   0  0  0  0  0  0  0  0  0  0  0  0
   -1.2055   -6.6920    8.7593 C   0  0  0  0  0  0  0  0  0  0  0  0
   -1.2659   -5.3231    8.4870 C   0  0  0  0  0  0  0  0  0  0  0  0
    0.0019   -7.3008    8.8602 F   0  0  0  0  0  0  0  0  0  0  0  0
   -2.2062   -2.2856    9.0548 C   0  0  0  0  0  0  0  0  0  0  0  0
   -1.6980   -2.5493   10.6360 S   0  0  0  0  0  0  0  0  0  0  0  0
   -3.4214   -3.5367    5.7535 C   0  0  0  0  0  0  0  0  0  0  0  0
   -3.8384   -2.7719    4.6682 C   0  0  0  0  0  0  0  0  0  0  0  0
   -3.6975   -1.1316    5.0585 S   0  0  0  0  0  0  0  0  0  0  0  0
   -4.3956   -3.2871    3.4077 C   0  0  0  0  0  0  0  0  0  0  0  0
   -5.4843   -2.4383    2.4548 S   0  0  0  0  0  0  0  0  0  0  0  0
   -5.6449   -3.6048    1.2556 C   0  0  0  0  0  0  0  0  0  0  0  0
   -4.8071   -4.6699    1.5649 C   0  0  0  0  0  0  0  0  0  0  0  0
   -4.1286   -4.5109    2.7895 C   0  0  0  0  0  0  0  0  0  0  0  0
   -3.2649   -5.4660    3.3404 O   0  0  0  0  0  0  0  0  0  0  0  0
   -3.0300   -6.7459    2.7612 C   0  0  0  0  0  0  0  0  0  0  0  0
   -2.4180   -6.6024    1.3655 C   0  0  0  0  0  0  0  0  0  0  0  0
   -3.4598   -6.3134    0.2559 C   0  0  1  0  0  0  0  0  0  0  0  0
   -3.8395   -7.8467   -0.6738 S   0  0  0  0  0  0  0  0  0  0  0  0
   -2.4989   -7.6659   -1.8956 C   0  0  0  0  0  0  0  0  0  0  0  0
   -4.6982   -5.7961    0.7465 O   0  0  0  0  0  0  0  0  0  0  0  0
   -6.3223   -3.3657   -0.0216 C   0  0  0  0  0  0  0  0  0  0  0  0
   -5.5524   -3.5046   -1.5059 S   0  0  0  0  0  0  0  0  0  0  0  0
   -6.6462   -2.5816   -2.3891 C   0  0  0  0  0  0  0  0  0  0  0  0
   -7.6600   -2.1676   -1.5223 C   0  0  0  0  0  0  0  0  0  0  0  0
   -7.4679   -2.5919   -0.1889 C   0  0  0  0  0  0  0  0  0  0  0  0
   -8.2304   -2.1941    0.9148 O   0  0  0  0  0  0  0  0  0  0  0  0
   -9.6342   -1.9732    0.9153 C   0  0  0  0  0  0  0  0  0  0  0  0
  -10.0340   -0.8284   -0.0110 C   0  0  0  0  0  0  0  0  0  0  0  0
  -10.0005   -1.2722   -1.4724 C   0  0  1  0  0  0  0  0  0  0  0  0
  -10.9589   -0.0942   -2.4865 S   0  0  0  0  0  0  0  0  0  0  0  0
  -10.6847   -0.9705   -4.0623 C   0  0  0  0  0  0  0  0  0  0  0  0
   -8.6653   -1.3066   -1.9649 O   0  0  0  0  0  0  0  0  0  0  0  0
   -6.2532   -1.8756   -3.6210 C   0  0  0  0  0  0  0  0  0  0  0  0
   -6.3671   -0.4924   -3.7662 C   0  0  0  0  0  0  0  0  0  0  0  0
   -5.4162    0.0655   -4.6371 C   0  0  0  0  0  0  0  0  0  0  0  0
   -5.1036    1.4396   -4.7379 C   0  0  0  0  0  0  0  0  0  0  0  0
   -5.8906    2.4667   -4.0213 C   0  0  0  0  0  0  0  0  0  0  0  0
   -6.6829    3.3747   -4.7418 C   0  0  0  0  0  0  0  0  0  0  0  0
   -7.5752    4.2164   -4.0723 C   0  0  0  0  0  0  0  0  0  0  0  0
   -7.6887    4.1556   -2.6760 C   0  0  0  0  0  0  0  0  0  0  0  0
   -8.9940    5.0744   -1.8477 S   0  0  0  0  0  0  0  0  0  0  0  0
   -7.9376    6.4478   -1.2625 C   0  0  0  0  0  0  0  0  0  0  0  0
   -8.2660    6.7502    0.1953 C   0  0  0  0  0  0  0  0  0  0  0  0
   -6.8603    3.2897   -1.9492 C   0  0  0  0  0  0  0  0  0  0  0  0
   -6.9599    3.2181   -0.5977 F   0  0  0  0  0  0  0  0  0  0  0  0
   -5.9469    2.4696   -2.6159 C   0  0  0  0  0  0  0  0  0  0  0  0
   -3.9325    1.7697   -5.4388 C   0  0  0  0  0  0  0  0  0  0  0  0
   -3.1341    0.8078   -6.0688 C   0  0  0  0  0  0  0  0  0  0  0  0
   -3.4762   -0.5629   -6.0076 C   0  0  0  0  0  0  0  0  0  0  0  0
   -2.6113   -1.6319   -6.5618 C   0  0  0  0  0  0  0  0  0  0  0  0
   -1.2800   -1.7836   -6.1361 C   0  0  0  0  0  0  0  0  0  0  0  0
   -0.4689   -2.7707   -6.7003 C   0  0  0  0  0  0  0  0  0  0  0  0
   -0.9886   -3.6438   -7.6631 C   0  0  0  0  0  0  0  0  0  0  0  0
    0.0685   -4.8901   -8.4088 S   0  0  0  0  0  0  0  0  0  0  0  0
    0.4368   -3.9018   -9.9039 C   0  0  0  0  0  0  0  0  0  0  0  0
    1.5429   -2.8894   -9.6387 C   0  0  0  0  0  0  0  0  0  0  0  0
   -2.3332   -3.5374   -8.0460 C   0  0  0  0  0  0  0  0  0  0  0  0
   -3.1356   -2.5276   -7.5068 C   0  0  0  0  0  0  0  0  0  0  0  0
   -2.8573   -4.3942   -8.9556 F   0  0  0  0  0  0  0  0  0  0  0  0
   -4.6145   -0.8951   -5.2539 C   0  0  0  0  0  0  0  0  0  0  0  0
   -5.0309   -2.4128   -4.6567 S   0  0  0  0  0  0  0  0  0  0  0  0
   -1.9157    1.3238   -6.5367 C   0  0  0  0  0  0  0  0  0  0  0  0
   -1.6873    2.6462   -6.1567 C   0  0  0  0  0  0  0  0  0  0  0  0
   -3.0744    3.2156   -5.3684 S   0  0  0  0  0  0  0  0  0  0  0  0
   -0.3291    3.1547   -5.8803 C   0  0  0  0  0  0  0  0  0  0  0  0
    0.8386    2.5459   -6.3507 C   0  0  0  0  0  0  0  0  0  0  0  0
    1.9439    2.7205   -5.5007 C   0  0  0  0  0  0  0  0  0  0  0  0
    3.1732    2.0342   -5.5968 C   0  0  0  0  0  0  0  0  0  0  0  0
    3.4873    1.1504   -6.7424 C   0  0  0  0  0  0  0  0  0  0  0  0
    3.6612   -0.2308   -6.5508 C   0  0  0  0  0  0  0  0  0  0  0  0
    4.0274   -1.0494   -7.6225 C   0  0  0  0  0  0  0  0  0  0  0  0
    4.2274   -0.4979   -8.8922 C   0  0  0  0  0  0  0  0  0  0  0  0
    4.7857   -1.5422  -10.2411 S   0  0  0  0  0  0  0  0  0  0  0  0
    6.5388   -1.4371   -9.7440 C   0  0  0  0  0  0  0  0  0  0  0  0
    7.4196   -2.1431  -10.7645 C   0  0  0  0  0  0  0  0  0  0  0  0
    4.0162    0.8729   -9.0981 C   0  0  0  0  0  0  0  0  0  0  0  0
    4.1741    1.4115  -10.3308 F   0  0  0  0  0  0  0  0  0  0  0  0
    3.6419    1.6927   -8.0269 C   0  0  0  0  0  0  0  0  0  0  0  0
    4.0430    2.1394   -4.4970 C   0  0  0  0  0  0  0  0  0  0  0  0
    3.7403    2.9035   -3.3653 C   0  0  0  0  0  0  0  0  0  0  0  0
    2.5375    3.6350   -3.2938 C   0  0  0  0  0  0  0  0  0  0  0  0
    2.1633    4.3852   -2.0789 C   0  0  0  0  0  0  0  0  0  0  0  0
    1.1170    3.9343   -1.2558 C   0  0  0  0  0  0  0  0  0  0  0  0
    0.7809    4.6407   -0.0973 C   0  0  0  0  0  0  0  0  0  0  0  0
    1.4876    5.7981    0.2490 C   0  0  0  0  0  0  0  0  0  0  0  0
    1.0581    6.6950    1.7442 S   0  0  0  0  0  0  0  0  0  0  0  0
   -0.1751    7.7725    0.9313 C   0  0  0  0  0  0  0  0  0  0  0  0
   -0.2167    9.1241    1.6339 C   0  0  0  0  0  0  0  0  0  0  0  0
    2.5411    6.2434   -0.5621 C   0  0  0  0  0  0  0  0  0  0  0  0
    2.8840    5.5320   -1.7162 C   0  0  0  0  0  0  0  0  0  0  0  0
    3.2397    7.3583   -0.2283 F   0  0  0  0  0  0  0  0  0  0  0  0
    1.6527    3.5050   -4.3806 C   0  0  0  0  0  0  0  0  0  0  0  0
    0.0431    3.9772   -4.4524 S   0  0  0  0  0  0  0  0  0  0  0  0
    4.6511    2.7118   -2.3116 C   0  0  0  0  0  0  0  0  0  0  0  0
    5.6603    1.7976   -2.6204 C   0  0  0  0  0  0  0  0  0  0  0  0
    5.4453    1.2564   -4.2029 S   0  0  0  0  0  0  0  0  0  0  0  0
    6.5640    1.1667   -1.6482 C   0  0  0  0  0  0  0  0  0  0  0  0
    7.4244    0.1026   -1.9262 C   0  0  0  0  0  0  0  0  0  0  0  0
    8.0017   -0.4468   -0.7709 C   0  0  0  0  0  0  0  0  0  0  0  0
    8.8723   -1.5532   -0.7256 C   0  0  0  0  0  0  0  0  0  0  0  0
    9.2865   -2.2594   -1.9501 C   0  0  0  0  0  0  0  0  0  0  0  0
    8.5328   -3.3412   -2.4305 C   0  0  0  0  0  0  0  0  0  0  0  0
    8.8824   -3.9618   -3.6335 C   0  0  0  0  0  0  0  0  0  0  0  0
    9.9781   -3.4952   -4.3724 C   0  0  0  0  0  0  0  0  0  0  0  0
   10.3983   -4.2745   -5.9367 S   0  0  0  0  0  0  0  0  0  0  0  0
    9.1804   -3.3352   -6.9309 C   0  0  0  0  0  0  0  0  0  0  0  0
    9.6278   -1.8935   -7.1473 C   0  0  0  0  0  0  0  0  0  0  0  0
   10.7465   -2.4311   -3.8786 C   0  0  0  0  0  0  0  0  0  0  0  0
   11.8233   -1.9838   -4.5722 F   0  0  0  0  0  0  0  0  0  0  0  0
   10.3969   -1.8118   -2.6759 C   0  0  0  0  0  0  0  0  0  0  0  0
    9.3100   -1.9648    0.5420 C   0  0  0  0  0  0  0  0  0  0  0  0
    8.9099   -1.3307    1.7214 C   0  0  0  0  0  0  0  0  0  0  0  0
    8.0256   -0.2316    1.6772 C   0  0  0  0  0  0  0  0  0  0  0  0
    7.5506    0.4370    2.9030 C   0  0  0  0  0  0  0  0  0  0  0  0
    8.4126    1.2668    3.6337 C   0  0  0  0  0  0  0  0  0  0  0  0
    7.9627    1.8837    4.8050 C   0  0  0  0  0  0  0  0  0  0  0  0
    6.6615    1.6597    5.2659 C   0  0  0  0  0  0  0  0  0  0  0  0
    6.1159    2.4461    6.7863 S   0  0  0  0  0  0  0  0  0  0  0  0
    6.7610    1.1219    7.8667 C   0  0  0  0  0  0  0  0  0  0  0  0
    6.9984    1.6694    9.2700 C   0  0  0  0  0  0  0  0  0  0  0  0
    5.7951    0.8378    4.5341 C   0  0  0  0  0  0  0  0  0  0  0  0
    6.2376    0.2328    3.3518 C   0  0  0  0  0  0  0  0  0  0  0  0
    4.5303    0.6152    4.9680 F   0  0  0  0  0  0  0  0  0  0  0  0
    7.5934    0.1852    0.4061 C   0  0  0  0  0  0  0  0  0  0  0  0
    6.5238    1.4253    0.0231 S   0  0  0  0  0  0  0  0  0  0  0  0
    9.4548   -1.9209    2.8743 C   0  0  0  0  0  0  0  0  0  0  0  0
   10.2807   -3.0062    2.5944 C   0  0  0  0  0  0  0  0  0  0  0  0
   10.3336   -3.2431    0.9234 S   0  0  0  0  0  0  0  0  0  0  0  0
   -1.2887   -0.5341   12.0196 H   0  0  0  0  0  0  0  0  0  0  0  0
   -1.9704    0.9356    9.9861 H   0  0  0  0  0  0  0  0  0  0  0  0
   -0.6404    1.3178    7.6614 H   0  0  0  0  0  0  0  0  0  0  0  0
   -0.7111    3.7565    7.3581 H   0  0  0  0  0  0  0  0  0  0  0  0
   -3.0841    5.1321    4.3811 H   0  0  0  0  0  0  0  0  0  0  0  0
   -1.3604    5.0550    4.9179 H   0  0  0  0  0  0  0  0  0  0  0  0
   -1.3221    7.5388    5.1854 H   0  0  0  0  0  0  0  0  0  0  0  0
   -1.7475    7.0470    3.5053 H   0  0  0  0  0  0  0  0  0  0  0  0
   -3.0414    7.6232    4.6181 H   0  0  0  0  0  0  0  0  0  0  0  0
   -4.8745    1.1029    6.8585 H   0  0  0  0  0  0  0  0  0  0  0  0
   -4.6536   -4.9321    8.4488 H   0  0  0  0  0  0  0  0  0  0  0  0
   -4.5446   -7.3424    8.9567 H   0  0  0  0  0  0  0  0  0  0  0  0
   -1.6948   -9.9020   11.5419 H   0  0  0  0  0  0  0  0  0  0  0  0
   -1.2341   -8.1844   11.2870 H   0  0  0  0  0  0  0  0  0  0  0  0
   -3.1160   -8.4689   12.9377 H   0  0  0  0  0  0  0  0  0  0  0  0
   -4.1264   -9.2340   11.6491 H   0  0  0  0  0  0  0  0  0  0  0  0
   -3.6251   -7.4959   11.5170 H   0  0  0  0  0  0  0  0  0  0  0  0
   -0.3471   -4.7614    8.3542 H   0  0  0  0  0  0  0  0  0  0  0  0
   -3.4372   -4.6188    5.7606 H   0  0  0  0  0  0  0  0  0  0  0  0
   -3.9700   -7.3386    2.7346 H   0  0  0  0  0  0  0  0  0  0  0  0
   -2.3093   -7.2895    3.4075 H   0  0  0  0  0  0  0  0  0  0  0  0
   -1.8575   -7.5322    1.1300 H   0  0  0  0  0  0  0  0  0  0  0  0
   -1.6685   -5.7814    1.3911 H   0  0  0  0  0  0  0  0  0  0  0  0
   -3.0364   -5.5615   -0.4463 H   0  0  0  0  0  0  0  0  0  0  0  0
   -2.6768   -6.7660   -2.5229 H   0  0  0  0  0  0  0  0  0  0  0  0
   -2.4917   -8.5589   -2.5553 H   0  0  0  0  0  0  0  0  0  0  0  0
   -1.5153   -7.5773   -1.3833 H   0  0  0  0  0  0  0  0  0  0  0  0
  -10.1649   -2.9136    0.6498 H   0  0  0  0  0  0  0  0  0  0  0  0
   -9.9310   -1.7083    1.9531 H   0  0  0  0  0  0  0  0  0  0  0  0
  -11.0705   -0.5247    0.2519 H   0  0  0  0  0  0  0  0  0  0  0  0
   -9.3685    0.0498    0.1442 H   0  0  0  0  0  0  0  0  0  0  0  0
  -10.4608   -2.2777   -1.5817 H   0  0  0  0  0  0  0  0  0  0  0  0
  -10.9165   -2.0488   -3.9553 H   0  0  0  0  0  0  0  0  0  0  0  0
  -11.3547   -0.5344   -4.8314 H   0  0  0  0  0  0  0  0  0  0  0  0
   -9.6333   -0.8417   -4.3871 H   0  0  0  0  0  0  0  0  0  0  0  0
   -7.0003    0.1068   -3.1308 H   0  0  0  0  0  0  0  0  0  0  0  0
   -6.6545    3.3868   -5.8262 H   0  0  0  0  0  0  0  0  0  0  0  0
   -8.2186    4.8789   -4.6361 H   0  0  0  0  0  0  0  0  0  0  0  0
   -6.8542    6.2058   -1.3473 H   0  0  0  0  0  0  0  0  0  0  0  0
   -8.1443    7.3460   -1.8843 H   0  0  0  0  0  0  0  0  0  0  0  0
   -8.0429    5.8592    0.8222 H   0  0  0  0  0  0  0  0  0  0  0  0
   -7.6461    7.6015    0.5488 H   0  0  0  0  0  0  0  0  0  0  0  0
   -9.3400    7.0159    0.3071 H   0  0  0  0  0  0  0  0  0  0  0  0
   -5.3288    1.7842   -2.0456 H   0  0  0  0  0  0  0  0  0  0  0  0
   -0.8669   -1.1297   -5.3766 H   0  0  0  0  0  0  0  0  0  0  0  0
    0.5664   -2.8557   -6.3920 H   0  0  0  0  0  0  0  0  0  0  0  0
    0.7713   -4.5928  -10.7060 H   0  0  0  0  0  0  0  0  0  0  0  0
   -0.4757   -3.3835  -10.2692 H   0  0  0  0  0  0  0  0  0  0  0  0
    1.2302   -2.1556   -8.8684 H   0  0  0  0  0  0  0  0  0  0  0  0
    2.4605   -3.4110   -9.2923 H   0  0  0  0  0  0  0  0  0  0  0  0
    1.7736   -2.3372  -10.5744 H   0  0  0  0  0  0  0  0  0  0  0  0
   -4.1656   -2.4387   -7.8318 H   0  0  0  0  0  0  0  0  0  0  0  0
   -1.1525    0.7076   -6.9886 H   0  0  0  0  0  0  0  0  0  0  0  0
    0.8510    1.8755   -7.1995 H   0  0  0  0  0  0  0  0  0  0  0  0
    3.5279   -0.6716   -5.5711 H   0  0  0  0  0  0  0  0  0  0  0  0
    4.1801   -2.1081   -7.4594 H   0  0  0  0  0  0  0  0  0  0  0  0
    6.6696   -1.9210   -8.7515 H   0  0  0  0  0  0  0  0  0  0  0  0
    6.8471   -0.3704   -9.6721 H   0  0  0  0  0  0  0  0  0  0  0  0
    8.4805   -2.1029  -10.4358 H   0  0  0  0  0  0  0  0  0  0  0  0
    7.1164   -3.2086  -10.8644 H   0  0  0  0  0  0  0  0  0  0  0  0
    7.3337   -1.6424  -11.7539 H   0  0  0  0  0  0  0  0  0  0  0  0
    3.4962    2.7539   -8.1932 H   0  0  0  0  0  0  0  0  0  0  0  0
    0.5685    3.0371   -1.5104 H   0  0  0  0  0  0  0  0  0  0  0  0
   -0.0207    4.2812    0.5348 H   0  0  0  0  0  0  0  0  0  0  0  0
   -1.1742    7.2897    0.9965 H   0  0  0  0  0  0  0  0  0  0  0  0
    0.0701    7.9344   -0.1408 H   0  0  0  0  0  0  0  0  0  0  0  0
    0.7672    9.6309    1.5321 H   0  0  0  0  0  0  0  0  0  0  0  0
   -1.0013    9.7624    1.1735 H   0  0  0  0  0  0  0  0  0  0  0  0
   -0.4461    8.9951    2.7137 H   0  0  0  0  0  0  0  0  0  0  0  0
    3.7037    5.8803   -2.3374 H   0  0  0  0  0  0  0  0  0  0  0  0
    4.5292    3.1474   -1.3270 H   0  0  0  0  0  0  0  0  0  0  0  0
    7.5951   -0.2875   -2.9217 H   0  0  0  0  0  0  0  0  0  0  0  0
    7.6660   -3.6926   -1.8834 H   0  0  0  0  0  0  0  0  0  0  0  0
    8.2912   -4.7894   -4.0035 H   0  0  0  0  0  0  0  0  0  0  0  0
    8.1838   -3.3540   -6.4425 H   0  0  0  0  0  0  0  0  0  0  0  0
    9.0864   -3.8298   -7.9232 H   0  0  0  0  0  0  0  0  0  0  0  0
    9.5955   -1.3319   -6.1914 H   0  0  0  0  0  0  0  0  0  0  0  0
   10.6576   -1.8699   -7.5587 H   0  0  0  0  0  0  0  0  0  0  0  0
    8.9462   -1.3917   -7.8643 H   0  0  0  0  0  0  0  0  0  0  0  0
   10.9855   -0.9748   -2.3134 H   0  0  0  0  0  0  0  0  0  0  0  0
    9.4287    1.4342    3.3027 H   0  0  0  0  0  0  0  0  0  0  0  0
    8.6316    2.5223    5.3662 H   0  0  0  0  0  0  0  0  0  0  0  0
    7.7233    0.7318    7.4709 H   0  0  0  0  0  0  0  0  0  0  0  0
    6.0230    0.2921    7.9080 H   0  0  0  0  0  0  0  0  0  0  0  0
    7.7239    2.5126    9.2268 H   0  0  0  0  0  0  0  0  0  0  0  0
    7.4195    0.8685    9.9136 H   0  0  0  0  0  0  0  0  0  0  0  0
    6.0437    2.0270    9.7107 H   0  0  0  0  0  0  0  0  0  0  0  0
    5.5602   -0.4029    2.7900 H   0  0  0  0  0  0  0  0  0  0  0  0
    9.2548   -1.5775    3.8826 H   0  0  0  0  0  0  0  0  0  0  0  0
   10.8015   -3.6031    3.3309 H   0  0  0  0  0  0  0  0  0  0  0  0
  1  2  2  0
  2  3  1  0
  3  4  2  0
  4  5  1  0
  5  6  2  0
  6  7  1  0
  7  8  2  0
  8  9  1  0
  9 10  1  0
 10 11  1  0
  8 12  1  0
 12 13  1  0
 12 14  2  0
  4 15  1  0
 15 16  2  0
 16 17  1  0
 17 18  1  0
 18 19  2  0
 19 20  1  0
 20 21  2  0
 21 22  1  0
 22 23  1  0
 23 24  1  0
 21 25  1  0
 25 26  2  0
 25 27  1  0
 17 28  2  0
 28 29  1  0
 16 30  1  0
 30 31  2  0
 31 32  1  0
 31 33  1  0
 33 34  1  0
 34 35  1  0
 35 36  2  0
 36 37  1  0
 37 38  1  0
 38 39  1  0
 39 40  1  0
 40 41  1  0
 41 42  1  0
 42 43  1  0
 41 44  1  0
 35 45  1  0
 45 46  1  0
 46 47  1  0
 47 48  2  0
 48 49  1  0
 49 50  1  0
 50 51  1  0
 51 52  1  0
 52 53  1  0
 53 54  1  0
 54 55  1  0
 53 56  1  0
 47 57  1  0
 57 58  2  0
 58 59  1  0
 59 60  2  0
 60 61  1  0
 61 62  2  0
 62 63  1  0
 63 64  2  0
 64 65  1  0
 65 66  1  0
 66 67  1  0
 64 68  1  0
 68 69  1  0
 68 70  2  0
 60 71  1  0
 71 72  2  0
 72 73  1  0
 73 74  1  0
 74 75  2  0
 75 76  1  0
 76 77  2  0
 77 78  1  0
 78 79  1  0
 79 80  1  0
 77 81  1  0
 81 82  2  0
 81 83  1  0
 73 84  2  0
 84 85  1  0
 72 86  1  0
 86 87  2  0
 87 88  1  0
 87 89  1  0
 89 90  2  0
 90 91  1  0
 91 92  2  0
 92 93  1  0
 93 94  2  0
 94 95  1  0
 95 96  2  0
 96 97  1  0
 97 98  1  0
 98 99  1  0
 96100  1  0
100101  1  0
100102  2  0
 92103  1  0
103104  2  0
104105  1  0
105106  1  0
106107  2  0
107108  1  0
108109  2  0
109110  1  0
110111  1  0
111112  1  0
109113  1  0
113114  2  0
113115  1  0
105116  2  0
116117  1  0
104118  1  0
118119  2  0
119120  1  0
119121  1  0
121122  2  0
122123  1  0
123124  2  0
124125  1  0
125126  2  0
126127  1  0
127128  2  0
128129  1  0
129130  1  0
130131  1  0
128132  1  0
132133  1  0
132134  2  0
124135  1  0
135136  2  0
136137  1  0
137138  1  0
138139  2  0
139140  1  0
140141  2  0
141142  1  0
142143  1  0
143144  1  0
141145  1  0
145146  2  0
145147  1  0
137148  2  0
148149  1  0
136150  1  0
150151  2  0
151152  1  0
 29  1  1  0
 37 33  2  0
 49 45  2  0
 85 57  1  0
117 89  1  0
149121  1  0
 28  3  1  0
 44 36  1  0
 56 48  1  0
 84 59  1  0
116 91  1  0
148123  1  0
 14  5  1  0
 32 15  1  0
 70 61  1  0
 88 71  1  0
102 93  1  0
120103  1  0
134125  1  0
152135  1  0
 26 18  1  0
 82 74  1  0
114106  1  0
146138  1  0
  1153  1  0
  2154  1  0
  6155  1  0
  7156  1  0
 10157  1  0
 10158  1  0
 11159  1  0
 11160  1  0
 11161  1  0
 14162  1  0
 19163  1  0
 20164  1  0
 23165  1  0
 23166  1  0
 24167  1  0
 24168  1  0
 24169  1  0
 26170  1  0
 30171  1  0
 39172  1  0
 39173  1  0
 40174  1  0
 40175  1  0
 41176  1  6
 43177  1  0
 43178  1  0
 43179  1  0
 51180  1  0
 51181  1  0
 52182  1  0
 52183  1  0
 53184  1  1
 55185  1  0
 55186  1  0
 55187  1  0
 58188  1  0
 62189  1  0
 63190  1  0
 66191  1  0
 66192  1  0
 67193  1  0
 67194  1  0
 67195  1  0
 70196  1  0
 75197  1  0
 76198  1  0
 79199  1  0
 79200  1  0
 80201  1  0
 80202  1  0
 80203  1  0
 82204  1  0
 86205  1  0
 90206  1  0
 94207  1  0
 95208  1  0
 98209  1  0
 98210  1  0
 99211  1  0
 99212  1  0
 99213  1  0
102214  1  0
107215  1  0
108216  1  0
111217  1  0
111218  1  0
112219  1  0
112220  1  0
112221  1  0
114222  1  0
118223  1  0
122224  1  0
126225  1  0
127226  1  0
130227  1  0
130228  1  0
131229  1  0
131230  1  0
131231  1  0
134232  1  0
139233  1  0
140234  1  0
143235  1  0
143236  1  0
144237  1  0
144238  1  0
144239  1  0
146240  1  0
150241  1  0
151242  1  0
M  END

