
     RDKit          3D

230255  0  0  0  0  0  0  0  0999 V2000
    0.6456   -8.7238    9.9953 C   0  0  0  0  0  0  0  0  0  0  0  0
    0.9285   -9.1256    8.6942 C   0  0  0  0  0  0  0  0  0  0  0  0
   -0.0958   -8.8115    7.7825 C   0  0  0  0  0  0  0  0  0  0  0  0
   -0.0898   -9.0689    6.3970 C   0  0  0  0  0  0  0  0  0  0  0  0
    1.0646   -9.6899    5.7223 C   0  0  0  0  0  0  0  0  0  0  0  0
    1.0207  -11.1533    4.8870 S   0  0  0  0  0  0  0  0  0  0  0  0
    2.6247  -11.1204    4.3778 C   0  0  0  0  0  0  0  0  0  0  0  0
    3.2566  -12.1436    3.4838 C   0  0  0  0  0  0  0  0  0  0  0  0
    3.1115  -11.7452    2.0195 C   0  0  0  0  0  0  0  0  0  0  0  0
    3.2101   -9.9394    4.8354 C   0  0  0  0  0  0  0  0  0  0  0  0
    4.8632   -9.4694    4.4692 Cl  0  0  0  0  0  0  0  0  0  0  0  0
    2.3366   -9.1421    5.5927 C   0  0  0  0  0  0  0  0  0  0  0  0
    2.7767   -7.5614    6.2249 Cl  0  0  0  0  0  0  0  0  0  0  0  0
   -1.2180   -8.6504    5.6693 C   0  0  0  0  0  0  0  0  0  0  0  0
   -2.2913   -7.9732    6.2619 C   0  0  0  0  0  0  0  0  0  0  0  0
   -2.2989   -7.7258    7.6497 C   0  0  0  0  0  0  0  0  0  0  0  0
   -3.4091   -7.0230    8.3141 C   0  0  0  0  0  0  0  0  0  0  0  0
   -3.8168   -5.4118    8.0541 S   0  0  0  0  0  0  0  0  0  0  0  0
   -5.1164   -5.3884    9.1225 C   0  0  0  0  0  0  0  0  0  0  0  0
   -5.9456   -4.1799    9.4312 C   0  0  0  0  0  0  0  0  0  0  0  0
   -5.4446   -3.4876   10.6936 C   0  0  0  0  0  0  0  0  0  0  0  0
   -5.2319   -6.6441    9.7186 C   0  0  0  0  0  0  0  0  0  0  0  0
   -4.2767   -7.5603    9.2605 C   0  0  0  0  0  0  0  0  0  0  0  0
   -4.2140   -9.2378    9.7835 Cl  0  0  0  0  0  0  0  0  0  0  0  0
   -6.4544   -7.0441   10.9189 Cl  0  0  0  0  0  0  0  0  0  0  0  0
   -1.1849   -8.1716    8.3806 C   0  0  0  0  0  0  0  0  0  0  0  0
   -0.8697   -7.9799   10.0235 S   0  0  0  0  0  0  0  0  0  0  0  0
   -3.2730   -7.5767    5.3406 C   0  0  0  0  0  0  0  0  0  0  0  0
   -2.9618   -7.9285    4.0290 C   0  0  0  0  0  0  0  0  0  0  0  0
   -1.4813   -8.7420    4.0116 S   0  0  0  0  0  0  0  0  0  0  0  0
   -3.7129   -7.5352    2.8265 C   0  0  0  0  0  0  0  0  0  0  0  0
   -4.6677   -6.5218    2.7540 C   0  0  0  0  0  0  0  0  0  0  0  0
   -5.0663   -6.2348    1.4387 C   0  0  0  0  0  0  0  0  0  0  0  0
   -5.9538   -5.2133    1.0373 C   0  0  0  0  0  0  0  0  0  0  0  0
   -6.7156   -4.4150    2.0197 C   0  0  0  0  0  0  0  0  0  0  0  0
   -6.7206   -2.7331    2.1243 S   0  0  0  0  0  0  0  0  0  0  0  0
   -7.7916   -2.6347    3.4180 C   0  0  0  0  0  0  0  0  0  0  0  0
   -8.3242   -1.3575    3.9936 C   0  0  0  0  0  0  0  0  0  0  0  0
   -9.6901   -1.0170    3.4044 C   0  0  0  0  0  0  0  0  0  0  0  0
   -8.1768   -3.9260    3.7774 C   0  0  0  0  0  0  0  0  0  0  0  0
   -9.3266   -4.2690    5.0633 Cl  0  0  0  0  0  0  0  0  0  0  0  0
   -7.5778   -4.9229    2.9942 C   0  0  0  0  0  0  0  0  0  0  0  0
   -7.9626   -6.6273    3.1681 Cl  0  0  0  0  0  0  0  0  0  0  0  0
   -6.0573   -4.9777   -0.3473 C   0  0  0  0  0  0  0  0  0  0  0  0
   -5.3772   -5.7498   -1.2968 C   0  0  0  0  0  0  0  0  0  0  0  0
   -4.5777   -6.8325   -0.8962 C   0  0  0  0  0  0  0  0  0  0  0  0
   -3.9722   -7.7539   -1.8740 C   0  0  0  0  0  0  0  0  0  0  0  0
   -2.3233   -8.0254   -2.0696 S   0  0  0  0  0  0  0  0  0  0  0  0
   -2.4830   -9.2675   -3.1956 C   0  0  0  0  0  0  0  0  0  0  0  0
   -1.3361  -10.0332   -3.7964 C   0  0  0  0  0  0  0  0  0  0  0  0
   -1.0452   -9.5571   -5.2142 C   0  0  0  0  0  0  0  0  0  0  0  0
   -3.8387   -9.4831   -3.4351 C   0  0  0  0  0  0  0  0  0  0  0  0
   -4.6699   -8.6385   -2.6895 C   0  0  0  0  0  0  0  0  0  0  0  0
   -6.4238   -8.7388   -2.7253 Cl  0  0  0  0  0  0  0  0  0  0  0  0
   -4.4512  -10.7335   -4.5132 Cl  0  0  0  0  0  0  0  0  0  0  0  0
   -4.4140   -7.0213    0.4848 C   0  0  0  0  0  0  0  0  0  0  0  0
   -3.3731   -8.0852    1.2664 S   0  0  0  0  0  0  0  0  0  0  0  0
   -5.4840   -5.2498   -2.6015 C   0  0  0  0  0  0  0  0  0  0  0  0
   -6.2555   -4.0939   -2.6821 C   0  0  0  0  0  0  0  0  0  0  0  0
   -6.8198   -3.7001   -1.1369 S   0  0  0  0  0  0  0  0  0  0  0  0
   -6.1277   -3.0953   -3.7490 C   0  0  0  0  0  0  0  0  0  0  0  0
   -4.8927   -2.6722   -4.2381 C   0  0  0  0  0  0  0  0  0  0  0  0
   -4.9625   -1.4622   -4.9388 C   0  0  0  0  0  0  0  0  0  0  0  0
   -3.8608   -0.7029   -5.3772 C   0  0  0  0  0  0  0  0  0  0  0  0
   -2.4716   -1.1880   -5.2388 C   0  0  0  0  0  0  0  0  0  0  0  0
   -1.2656   -0.4126   -4.3530 S   0  0  0  0  0  0  0  0  0  0  0  0
   -0.0465   -1.5178   -4.6948 C   0  0  0  0  0  0  0  0  0  0  0  0
    1.3623   -1.4169   -4.1920 C   0  0  0  0  0  0  0  0  0  0  0  0
    1.5720   -2.2868   -2.9594 C   0  0  0  0  0  0  0  0  0  0  0  0
   -0.5784   -2.5336   -5.4912 C   0  0  0  0  0  0  0  0  0  0  0  0
    0.3666   -3.8998   -6.0768 Cl  0  0  0  0  0  0  0  0  0  0  0  0
   -1.9333   -2.3435   -5.8007 C   0  0  0  0  0  0  0  0  0  0  0  0
   -2.8323   -3.4237   -6.8560 Cl  0  0  0  0  0  0  0  0  0  0  0  0
   -4.1360    0.5865   -5.8617 C   0  0  0  0  0  0  0  0  0  0  0  0
   -5.4381    1.0976   -5.9607 C   0  0  0  0  0  0  0  0  0  0  0  0
   -6.5456    0.3119   -5.5726 C   0  0  0  0  0  0  0  0  0  0  0  0
   -7.9399    0.7678   -5.7407 C   0  0  0  0  0  0  0  0  0  0  0  0
   -8.6268    2.1208   -5.0120 S   0  0  0  0  0  0  0  0  0  0  0  0
  -10.1546    1.9380   -5.6945 C   0  0  0  0  0  0  0  0  0  0  0  0
  -11.3066    2.8763   -5.4840 C   0  0  0  0  0  0  0  0  0  0  0  0
  -11.4534    3.8329   -6.6633 C   0  0  0  0  0  0  0  0  0  0  0  0
  -10.1435    0.8107   -6.5147 C   0  0  0  0  0  0  0  0  0  0  0  0
   -8.9037    0.1511   -6.5350 C   0  0  0  0  0  0  0  0  0  0  0  0
   -8.5768   -1.2682   -7.5219 Cl  0  0  0  0  0  0  0  0  0  0  0  0
  -11.5319    0.2649   -7.4458 Cl  0  0  0  0  0  0  0  0  0  0  0  0
   -6.2630   -0.9526   -5.0248 C   0  0  0  0  0  0  0  0  0  0  0  0
   -7.3100   -1.9736   -4.1895 S   0  0  0  0  0  0  0  0  0  0  0  0
   -5.4695    2.4320   -6.4007 C   0  0  0  0  0  0  0  0  0  0  0  0
   -4.1979    2.9538   -6.6396 C   0  0  0  0  0  0  0  0  0  0  0  0
   -3.0359    1.7801   -6.3141 S   0  0  0  0  0  0  0  0  0  0  0  0
   -3.8815    4.3708   -6.8075 C   0  0  0  0  0  0  0  0  0  0  0  0
   -3.6984    4.9446   -7.9737 O   0  0  0  0  0  0  0  0  0  0  0  0
   -3.3916    6.2080   -7.7730 C   0  0  0  0  0  0  0  0  0  0  0  0
   -3.3789    6.4764   -6.4097 C   0  0  0  0  0  0  0  0  0  0  0  0
   -3.1336    7.8136   -5.7910 C   0  0  0  0  0  0  0  0  0  0  0  0
   -3.6924    5.2790   -5.7804 C   0  0  0  0  0  0  0  0  0  0  0  0
   -3.9504    5.0214   -4.3512 C   0  0  0  0  0  0  0  0  0  0  0  0
   -3.2639    5.6078   -3.3613 C   0  0  0  0  0  0  0  0  0  0  0  0
   -3.6270    5.3395   -1.9613 C   0  0  0  0  0  0  0  0  0  0  0  0
   -2.7910    5.2864   -0.9133 C   0  0  0  0  0  0  0  0  0  0  0  0
   -1.3149    5.4006   -0.9193 C   0  0  0  0  0  0  0  0  0  0  0  0
   -0.5105    4.9288    0.1214 C   0  0  0  0  0  0  0  0  0  0  0  0
    0.8615    5.1259   -0.1012 C   0  0  0  0  0  0  0  0  0  0  0  0
    1.9066    4.7113    0.7457 C   0  0  0  0  0  0  0  0  0  0  0  0
    1.6538    3.9105    1.9514 C   0  0  0  0  0  0  0  0  0  0  0  0
    1.4392    4.5280    3.4989 S   0  0  0  0  0  0  0  0  0  0  0  0
    1.1258    3.0436    4.2446 C   0  0  0  0  0  0  0  0  0  0  0  0
    0.6871    2.8592    5.6711 C   0  0  0  0  0  0  0  0  0  0  0  0
    1.3898    3.8149    6.6356 C   0  0  0  0  0  0  0  0  0  0  0  0
    1.1365    2.0515    3.2606 C   0  0  0  0  0  0  0  0  0  0  0  0
    0.7397    0.3661    3.5761 Cl  0  0  0  0  0  0  0  0  0  0  0  0
    1.4351    2.5386    1.9785 C   0  0  0  0  0  0  0  0  0  0  0  0
    1.4369    1.5416    0.5337 Cl  0  0  0  0  0  0  0  0  0  0  0  0
    3.2149    4.9934    0.3222 C   0  0  0  0  0  0  0  0  0  0  0  0
    3.4900    5.6614   -0.8717 C   0  0  0  0  0  0  0  0  0  0  0  0
    2.4435    6.0762   -1.7183 C   0  0  0  0  0  0  0  0  0  0  0  0
    2.6996    6.7178   -3.0193 C   0  0  0  0  0  0  0  0  0  0  0  0
    2.3482    6.0272   -4.5129 S   0  0  0  0  0  0  0  0  0  0  0  0
    2.9310    7.3112   -5.4376 C   0  0  0  0  0  0  0  0  0  0  0  0
    2.8627    7.3733   -6.9308 C   0  0  0  0  0  0  0  0  0  0  0  0
    1.6222    8.1387   -7.3795 C   0  0  0  0  0  0  0  0  0  0  0  0
    3.3802    8.3126   -4.5793 C   0  0  0  0  0  0  0  0  0  0  0  0
    3.2588    7.9761   -3.2191 C   0  0  0  0  0  0  0  0  0  0  0  0
    3.6964    9.0585   -1.9072 Cl  0  0  0  0  0  0  0  0  0  0  0  0
    4.0225    9.8520   -5.1309 Cl  0  0  0  0  0  0  0  0  0  0  0  0
    1.1361    5.7739   -1.3084 C   0  0  0  0  0  0  0  0  0  0  0  0
   -0.3140    6.0852   -2.1006 S   0  0  0  0  0  0  0  0  0  0  0  0
    4.8657    5.7770   -1.1354 C   0  0  0  0  0  0  0  0  0  0  0  0
    5.6592    5.1928   -0.1494 C   0  0  0  0  0  0  0  0  0  0  0  0
    4.6620    4.5353    1.0464 S   0  0  0  0  0  0  0  0  0  0  0  0
    7.1250    5.0833   -0.1931 C   0  0  0  0  0  0  0  0  0  0  0  0
    7.9300    4.5004    0.7888 C   0  0  0  0  0  0  0  0  0  0  0  0
    9.2901    4.4936    0.4468 C   0  0  0  0  0  0  0  0  0  0  0  0
   10.3310    3.9222    1.2003 C   0  0  0  0  0  0  0  0  0  0  0  0
   10.0779    3.1693    2.4371 C   0  0  0  0  0  0  0  0  0  0  0  0
    9.9694    3.8324    3.9785 S   0  0  0  0  0  0  0  0  0  0  0  0
    9.8501    2.3622    4.7900 C   0  0  0  0  0  0  0  0  0  0  0  0
    9.7842    2.2073    6.2826 C   0  0  0  0  0  0  0  0  0  0  0  0
    8.3510    1.9726    6.7588 C   0  0  0  0  0  0  0  0  0  0  0  0
    9.8865    1.3273    3.8547 C   0  0  0  0  0  0  0  0  0  0  0  0
    9.8054   -0.3782    4.2695 Cl  0  0  0  0  0  0  0  0  0  0  0  0
   10.0165    1.7865    2.5339 C   0  0  0  0  0  0  0  0  0  0  0  0
   10.1157    0.7242    1.1366 Cl  0  0  0  0  0  0  0  0  0  0  0  0
   11.6227    3.9890    0.6535 C   0  0  0  0  0  0  0  0  0  0  0  0
   11.8903    4.5766   -0.5854 C   0  0  0  0  0  0  0  0  0  0  0  0
   10.8445    5.1176   -1.3616 C   0  0  0  0  0  0  0  0  0  0  0  0
   11.0682    5.5951   -2.7406 C   0  0  0  0  0  0  0  0  0  0  0  0
   10.6802    7.1343   -3.3128 S   0  0  0  0  0  0  0  0  0  0  0  0
   11.1143    6.8442   -4.9130 C   0  0  0  0  0  0  0  0  0  0  0  0
   10.9211    7.8122   -6.0412 C   0  0  0  0  0  0  0  0  0  0  0  0
    9.5183    7.6822   -6.6256 C   0  0  0  0  0  0  0  0  0  0  0  0
   11.5379    5.5191   -5.0264 C   0  0  0  0  0  0  0  0  0  0  0  0
   11.5080    4.8205   -3.8113 C   0  0  0  0  0  0  0  0  0  0  0  0
   11.8606    3.1033   -3.6803 Cl  0  0  0  0  0  0  0  0  0  0  0  0
   12.0003    4.7763   -6.5516 Cl  0  0  0  0  0  0  0  0  0  0  0  0
    9.5528    5.0778   -0.7991 C   0  0  0  0  0  0  0  0  0  0  0  0
    8.1013    5.5875   -1.4761 S   0  0  0  0  0  0  0  0  0  0  0  0
   13.2520    4.5427   -0.9263 C   0  0  0  0  0  0  0  0  0  0  0  0
   14.0427    3.9100    0.0313 C   0  0  0  0  0  0  0  0  0  0  0  0
   13.0597    3.4011    1.3048 S   0  0  0  0  0  0  0  0  0  0  0  0
    1.2981   -8.8502   10.8486 H   0  0  0  0  0  0  0  0  0  0  0  0
    1.8535   -9.6174    8.4250 H   0  0  0  0  0  0  0  0  0  0  0  0
    4.3323  -12.2544    3.7396 H   0  0  0  0  0  0  0  0  0  0  0  0
    2.7605  -13.1274    3.6415 H   0  0  0  0  0  0  0  0  0  0  0  0
    3.5970  -10.7659    1.8303 H   0  0  0  0  0  0  0  0  0  0  0  0
    3.5913  -12.5162    1.3797 H   0  0  0  0  0  0  0  0  0  0  0  0
    2.0366  -11.6755    1.7441 H   0  0  0  0  0  0  0  0  0  0  0  0
   -5.8991   -3.4726    8.5740 H   0  0  0  0  0  0  0  0  0  0  0  0
   -7.0075   -4.4753    9.5632 H   0  0  0  0  0  0  0  0  0  0  0  0
   -5.5290   -4.1703   11.5622 H   0  0  0  0  0  0  0  0  0  0  0  0
   -6.0503   -2.5744   10.8852 H   0  0  0  0  0  0  0  0  0  0  0  0
   -4.3826   -3.1945   10.5700 H   0  0  0  0  0  0  0  0  0  0  0  0
   -4.1650   -7.0278    5.6115 H   0  0  0  0  0  0  0  0  0  0  0  0
   -5.0079   -5.9635    3.6168 H   0  0  0  0  0  0  0  0  0  0  0  0
   -8.4074   -1.4572    5.0975 H   0  0  0  0  0  0  0  0  0  0  0  0
   -7.6158   -0.5288    3.7754 H   0  0  0  0  0  0  0  0  0  0  0  0
  -10.3963   -1.8624    3.5447 H   0  0  0  0  0  0  0  0  0  0  0  0
   -9.5974   -0.7844    2.3233 H   0  0  0  0  0  0  0  0  0  0  0  0
  -10.0994   -0.1328    3.9322 H   0  0  0  0  0  0  0  0  0  0  0  0
   -1.5744  -11.1177   -3.8111 H   0  0  0  0  0  0  0  0  0  0  0  0
   -0.4294   -9.8862   -3.1748 H   0  0  0  0  0  0  0  0  0  0  0  0
   -0.8309   -8.4667   -5.2234 H   0  0  0  0  0  0  0  0  0  0  0  0
   -1.9116   -9.7654   -5.8796 H   0  0  0  0  0  0  0  0  0  0  0  0
   -0.1581  -10.0945   -5.6134 H   0  0  0  0  0  0  0  0  0  0  0  0
   -4.9284   -5.6435   -3.4456 H   0  0  0  0  0  0  0  0  0  0  0  0
   -3.9673   -3.1697   -3.9861 H   0  0  0  0  0  0  0  0  0  0  0  0
    2.0643   -1.7269   -4.9944 H   0  0  0  0  0  0  0  0  0  0  0  0
    1.5887   -0.3589   -3.9371 H   0  0  0  0  0  0  0  0  0  0  0  0
    2.6273   -2.2048   -2.6244 H   0  0  0  0  0  0  0  0  0  0  0  0
    1.3653   -3.3503   -3.2039 H   0  0  0  0  0  0  0  0  0  0  0  0
    0.9040   -1.9604   -2.1394 H   0  0  0  0  0  0  0  0  0  0  0  0
  -12.2461    2.2976   -5.3644 H   0  0  0  0  0  0  0  0  0  0  0  0
  -11.1436    3.4668   -4.5569 H   0  0  0  0  0  0  0  0  0  0  0  0
  -11.6481    3.2728   -7.6043 H   0  0  0  0  0  0  0  0  0  0  0  0
  -12.3129    4.5164   -6.4862 H   0  0  0  0  0  0  0  0  0  0  0  0
  -10.5325    4.4473   -6.7839 H   0  0  0  0  0  0  0  0  0  0  0  0
   -6.3705    3.0241   -6.4961 H   0  0  0  0  0  0  0  0  0  0  0  0
   -3.1922    6.9194   -8.5627 H   0  0  0  0  0  0  0  0  0  0  0  0
   -3.2678    8.6171   -6.5464 H   0  0  0  0  0  0  0  0  0  0  0  0
   -3.8408    7.9865   -4.9542 H   0  0  0  0  0  0  0  0  0  0  0  0
   -2.0887    7.8618   -5.4092 H   0  0  0  0  0  0  0  0  0  0  0  0
   -4.6758    4.2537   -4.1040 H   0  0  0  0  0  0  0  0  0  0  0  0
   -2.4697    6.2986   -3.5974 H   0  0  0  0  0  0  0  0  0  0  0  0
   -4.6681    5.1180   -1.7599 H   0  0  0  0  0  0  0  0  0  0  0  0
   -3.2363    5.0394    0.0468 H   0  0  0  0  0  0  0  0  0  0  0  0
   -0.9144    4.4429    1.0058 H   0  0  0  0  0  0  0  0  0  0  0  0
    0.9039    1.8189    5.9960 H   0  0  0  0  0  0  0  0  0  0  0  0
   -0.4112    3.0184    5.7292 H   0  0  0  0  0  0  0  0  0  0  0  0
    1.1358    4.8672    6.3841 H   0  0  0  0  0  0  0  0  0  0  0  0
    2.4903    3.6758    6.5903 H   0  0  0  0  0  0  0  0  0  0  0  0
    1.0397    3.6193    7.6644 H   0  0  0  0  0  0  0  0  0  0  0  0
    3.7718    7.8726   -7.3276 H   0  0  0  0  0  0  0  0  0  0  0  0
    2.8256    6.3425   -7.3509 H   0  0  0  0  0  0  0  0  0  0  0  0
    1.5982    8.1799   -8.4874 H   0  0  0  0  0  0  0  0  0  0  0  0
    0.7036    7.6223   -7.0209 H   0  0  0  0  0  0  0  0  0  0  0  0
    1.6377    9.1755   -6.9792 H   0  0  0  0  0  0  0  0  0  0  0  0
    5.2706    6.2351   -2.0311 H   0  0  0  0  0  0  0  0  0  0  0  0
    7.5423    4.0790    1.7053 H   0  0  0  0  0  0  0  0  0  0  0  0
   10.1821    3.1239    6.7674 H   0  0  0  0  0  0  0  0  0  0  0  0
   10.4243    1.3539    6.5963 H   0  0  0  0  0  0  0  0  0  0  0  0
    7.7326    2.8694    6.5411 H   0  0  0  0  0  0  0  0  0  0  0  0
    8.3559    1.8037    7.8538 H   0  0  0  0  0  0  0  0  0  0  0  0
    7.9057    1.0867    6.2616 H   0  0  0  0  0  0  0  0  0  0  0  0
   11.6740    7.6217   -6.8350 H   0  0  0  0  0  0  0  0  0  0  0  0
   11.0627    8.8524   -5.6671 H   0  0  0  0  0  0  0  0  0  0  0  0
    9.3243    6.6488   -6.9716 H   0  0  0  0  0  0  0  0  0  0  0  0
    8.7588    7.9523   -5.8604 H   0  0  0  0  0  0  0  0  0  0  0  0
    9.4071    8.3787   -7.4854 H   0  0  0  0  0  0  0  0  0  0  0  0
   13.6614    4.9569   -1.8385 H   0  0  0  0  0  0  0  0  0  0  0  0
   15.1174    3.7779   -0.0302 H   0  0  0  0  0  0  0  0  0  0  0  0
  1  2  2  0
  2  3  1  0
  3  4  2  0
  4  5  1  0
  5  6  1  0
  6  7  1  0
  7  8  1  0
  8  9  1  0
  7 10  2  0
 10 11  1  0
 10 12  1  0
 12 13  1  0
  4 14  1  0
 14 15  2  0
 15 16  1  0
 16 17  1  0
 17 18  1  0
 18 19  1  0
 19 20  1  0
 20 21  1  0
 19 22  2  0
 22 23  1  0
 23 24  1  0
 22 25  1  0
 16 26  2  0
 26 27  1  0
 15 28  1  0
 28 29  2  0
 29 30  1  0
 29 31  1  0
 31 32  2  0
 32 33  1  0
 33 34  2  0
 34 35  1  0
 35 36  1  0
 36 37  1  0
 37 38  1  0
 38 39  1  0
 37 40  2  0
 40 41  1  0
 40 42  1  0
 42 43  1  0
 34 44  1  0
 44 45  2  0
 45 46  1  0
 46 47  1  0
 47 48  1  0
 48 49  1  0
 49 50  1  0
 50 51  1  0
 49 52  2  0
 52 53  1  0
 53 54  1  0
 52 55  1  0
 46 56  2  0
 56 57  1  0
 45 58  1  0
 58 59  2  0
 59 60  1  0
 59 61  1  0
 61 62  2  0
 62 63  1  0
 63 64  2  0
 64 65  1  0
 65 66  1  0
 66 67  1  0
 67 68  1  0
 68 69  1  0
 67 70  2  0
 70 71  1  0
 70 72  1  0
 72 73  1  0
 64 74  1  0
 74 75  2  0
 75 76  1  0
 76 77  1  0
 77 78  1  0
 78 79  1  0
 79 80  1  0
 80 81  1  0
 79 82  2  0
 82 83  1  0
 83 84  1  0
 82 85  1  0
 76 86  2  0
 86 87  1  0
 75 88  1  0
 88 89  2  0
 89 90  1  0
 89 91  1  0
 91 92  1  0
 92 93  1  0
 93 94  2  0
 94 95  1  0
 94 96  1  0
 96 97  1  0
 97 98  2  3
 98 99  1  0
 99100  2  3
100101  1  0
101102  2  0
102103  1  0
103104  2  0
104105  1  0
105106  1  0
106107  1  0
107108  1  0
108109  1  0
107110  2  0
110111  1  0
110112  1  0
112113  1  0
104114  1  0
114115  2  0
115116  1  0
116117  1  0
117118  1  0
118119  1  0
119120  1  0
120121  1  0
119122  2  0
122123  1  0
123124  1  0
122125  1  0
116126  2  0
126127  1  0
115128  1  0
128129  2  0
129130  1  0
129131  1  0
131132  2  0
132133  1  0
133134  2  0
134135  1  0
135136  1  0
136137  1  0
137138  1  0
138139  1  0
137140  2  0
140141  1  0
140142  1  0
142143  1  0
134144  1  0
144145  2  0
145146  1  0
146147  1  0
147148  1  0
148149  1  0
149150  1  0
150151  1  0
149152  2  0
152153  1  0
153154  1  0
152155  1  0
146156  2  0
156157  1  0
145158  1  0
158159  2  0
159160  1  0
 27  1  1  0
 57 31  1  0
 87 61  1  0
 96 91  2  0
127101  1  0
157131  1  0
 26  3  1  0
 56 33  1  0
 86 63  1  0
126103  1  0
156133  1  0
 12  5  2  0
 30 14  1  0
 42 35  2  0
 60 44  1  0
 72 65  2  0
 90 74  1  0
112105  2  0
130114  1  0
142135  2  0
160144  1  0
 23 17  2  0
 53 47  2  0
 83 77  2  0
123117  2  0
153147  2  0
  1161  1  0
  2162  1  0
  8163  1  0
  8164  1  0
  9165  1  0
  9166  1  0
  9167  1  0
 20168  1  0
 20169  1  0
 21170  1  0
 21171  1  0
 21172  1  0
 28173  1  0
 32174  1  0
 38175  1  0
 38176  1  0
 39177  1  0
 39178  1  0
 39179  1  0
 50180  1  0
 50181  1  0
 51182  1  0
 51183  1  0
 51184  1  0
 58185  1  0
 62186  1  0
 68187  1  0
 68188  1  0
 69189  1  0
 69190  1  0
 69191  1  0
 80192  1  0
 80193  1  0
 81194  1  0
 81195  1  0
 81196  1  0
 88197  1  0
 93198  1  0
 95199  1  0
 95200  1  0
 95201  1  0
 97202  1  0
 98203  1  0
 99204  1  0
100205  1  0
102206  1  0
108207  1  0
108208  1  0
109209  1  0
109210  1  0
109211  1  0
120212  1  0
120213  1  0
121214  1  0
121215  1  0
121216  1  0
128217  1  0
132218  1  0
138219  1  0
138220  1  0
139221  1  0
139222  1  0
139223  1  0
150224  1  0
150225  1  0
151226  1  0
151227  1  0
151228  1  0
158229  1  0
159230  1  0
M  END

