
     RDKit          3D

113124  0  0  0  0  0  0  0  0999 V2000
   -2.3367   -1.1624    8.0018 C   0  0  0  0  0  0  0  0  0  0  0  0
   -2.7722   -2.3026    7.3193 C   0  0  0  0  0  0  0  0  0  0  0  0
   -3.2730   -3.3528    8.0158 F   0  0  0  0  0  0  0  0  0  0  0  0
   -2.6988   -2.3615    5.9216 C   0  0  0  0  0  0  0  0  0  0  0  0
   -3.1288   -3.4755    5.2758 F   0  0  0  0  0  0  0  0  0  0  0  0
   -2.1734   -1.2770    5.1959 C   0  0  0  0  0  0  0  0  0  0  0  0
   -1.7415   -0.1284    5.8847 C   0  0  0  0  0  0  0  0  0  0  0  0
   -1.2528    0.9489    5.2155 N   0  0  0  0  0  0  0  0  0  0  0  0
   -0.8413    2.0783    5.8539 C   0  0  0  0  0  0  0  0  0  0  0  0
   -0.3160    3.2053    4.9984 C   0  0  0  0  0  0  0  0  0  0  0  0
    1.0001    2.8176    4.3312 C   0  0  0  0  0  0  0  0  0  0  0  0
   -0.9314    2.1296    7.2700 C   0  0  0  0  0  0  0  0  0  0  0  0
   -1.4149    1.0434    7.9343 N   0  0  0  0  0  0  0  0  0  0  0  0
   -1.8222   -0.0765    7.2863 C   0  0  0  0  0  0  0  0  0  0  0  0
   -0.5101    3.3213    8.0920 C   0  0  0  0  0  0  0  0  0  0  0  0
    1.0028    3.3571    8.2888 C   0  0  0  0  0  0  0  0  0  0  0  0
   -2.0792   -1.3431    3.7232 C   0  0  0  0  0  0  0  0  0  0  0  0
   -3.2374   -1.2031    2.9422 C   0  0  0  0  0  0  0  0  0  0  0  0
   -4.4436   -1.0277    3.5367 F   0  0  0  0  0  0  0  0  0  0  0  0
   -3.1566   -1.2224    1.5453 C   0  0  0  0  0  0  0  0  0  0  0  0
   -4.2866   -1.0706    0.8067 F   0  0  0  0  0  0  0  0  0  0  0  0
   -1.9173   -1.3982    0.9105 C   0  0  0  0  0  0  0  0  0  0  0  0
   -0.7554   -1.5472    1.6875 C   0  0  0  0  0  0  0  0  0  0  0  0
    0.4579   -1.7171    1.0993 N   0  0  0  0  0  0  0  0  0  0  0  0
    1.6028   -1.8509    1.8203 C   0  0  0  0  0  0  0  0  0  0  0  0
    2.8869   -2.0889    1.0686 C   0  0  0  0  0  0  0  0  0  0  0  0
    3.1231   -3.5821    0.8574 C   0  0  0  0  0  0  0  0  0  0  0  0
    1.5213   -1.8285    3.2341 C   0  0  0  0  0  0  0  0  0  0  0  0
    0.3049   -1.6504    3.8189 N   0  0  0  0  0  0  0  0  0  0  0  0
   -0.8347   -1.5120    3.0915 C   0  0  0  0  0  0  0  0  0  0  0  0
    2.7257   -1.9261    4.1325 C   0  0  0  0  0  0  0  0  0  0  0  0
    3.3215   -0.5446    4.3893 C   0  0  0  0  0  0  0  0  0  0  0  0
   -1.8360   -1.3805   -0.5642 C   0  0  0  0  0  0  0  0  0  0  0  0
   -1.6740   -2.5808   -1.2746 C   0  0  0  0  0  0  0  0  0  0  0  0
   -1.5986   -3.7640   -0.6125 F   0  0  0  0  0  0  0  0  0  0  0  0
   -1.5805   -2.5683   -2.6707 C   0  0  0  0  0  0  0  0  0  0  0  0
   -1.4059   -3.7376   -3.3397 F   0  0  0  0  0  0  0  0  0  0  0  0
   -1.6583   -1.3566   -3.3738 C   0  0  0  0  0  0  0  0  0  0  0  0
   -1.8226   -0.1531   -2.6676 C   0  0  0  0  0  0  0  0  0  0  0  0
   -1.8742    1.0365   -3.3214 N   0  0  0  0  0  0  0  0  0  0  0  0
   -1.9805    2.2238   -2.6644 C   0  0  0  0  0  0  0  0  0  0  0  0
   -2.0446    3.4777   -3.4973 C   0  0  0  0  0  0  0  0  0  0  0  0
   -3.4838    3.9578   -3.6598 C   0  0  0  0  0  0  0  0  0  0  0  0
   -2.0482    2.2143   -1.2468 C   0  0  0  0  0  0  0  0  0  0  0  0
   -2.0017    1.0174   -0.6012 N   0  0  0  0  0  0  0  0  0  0  0  0
   -1.8958   -0.1636   -1.2645 C   0  0  0  0  0  0  0  0  0  0  0  0
   -2.1591    3.4577   -0.3996 C   0  0  0  0  0  0  0  0  0  0  0  0
   -3.4835    3.4821    0.3575 C   0  0  0  0  0  0  0  0  0  0  0  0
   -1.4975   -1.3486   -4.8378 C   0  0  0  0  0  0  0  0  0  0  0  0
   -2.6127   -1.4338   -5.6177 N   0  0  0  0  0  0  0  0  0  0  0  0
   -2.4961   -1.4495   -6.9666 C   0  0  0  0  0  0  0  0  0  0  0  0
   -3.5565   -1.5359   -7.8526 C   0  0  0  0  0  0  0  0  0  0  0  0
   -2.8841   -1.5145   -9.4012 S   0  0  0  0  0  0  0  0  0  0  0  0
   -1.2616   -1.3981   -8.9526 C   0  0  0  0  0  0  0  0  0  0  0  0
   -1.2405   -1.3722   -7.5680 C   0  0  0  0  0  0  0  0  0  0  0  0
   -0.1213   -1.2836   -6.8102 N   0  0  0  0  0  0  0  0  0  0  0  0
   -0.2130   -1.2793   -5.4477 C   0  0  0  0  0  0  0  0  0  0  0  0
    1.0293   -1.1907   -4.6473 C   0  0  0  0  0  0  0  0  0  0  0  0
    1.1092   -0.2333   -3.6773 N   0  0  0  0  0  0  0  0  0  0  0  0
    2.2492   -0.0702   -2.9690 C   0  0  0  0  0  0  0  0  0  0  0  0
    2.4321    0.8695   -1.9684 C   0  0  0  0  0  0  0  0  0  0  0  0
    4.0197    0.6848   -1.4277 S   0  0  0  0  0  0  0  0  0  0  0  0
    4.4715   -0.5793   -2.4533 C   0  0  0  0  0  0  0  0  0  0  0  0
    3.3641   -0.8621   -3.2363 C   0  0  0  0  0  0  0  0  0  0  0  0
    3.3095   -1.8245   -4.1881 N   0  0  0  0  0  0  0  0  0  0  0  0
    2.1619   -2.0236   -4.9028 C   0  0  0  0  0  0  0  0  0  0  0  0
    2.1263   -3.1343   -5.8822 C   0  0  0  0  0  0  0  0  0  0  0  0
    0.9812   -3.8606   -6.0530 N   0  0  0  0  0  0  0  0  0  0  0  0
    0.9408   -4.8645   -6.9616 C   0  0  0  0  0  0  0  0  0  0  0  0
   -0.1707   -5.6445   -7.2337 C   0  0  0  0  0  0  0  0  0  0  0  0
    0.2929   -6.7259   -8.4444 S   0  0  0  0  0  0  0  0  0  0  0  0
    1.8900   -6.2085   -8.6254 C   0  0  0  0  0  0  0  0  0  0  0  0
    2.0697   -5.1734   -7.7211 C   0  0  0  0  0  0  0  0  0  0  0  0
    3.2205   -4.4750   -7.5559 N   0  0  0  0  0  0  0  0  0  0  0  0
    3.2731   -3.4633   -6.6423 C   0  0  0  0  0  0  0  0  0  0  0  0
   -2.3972   -1.1261    9.0837 H   0  0  0  0  0  0  0  0  0  0  0  0
   -1.0651    3.4329    4.2102 H   0  0  0  0  0  0  0  0  0  0  0  0
   -0.1590    4.1408    5.5690 H   0  0  0  0  0  0  0  0  0  0  0  0
    1.7534    2.5348    5.0933 H   0  0  0  0  0  0  0  0  0  0  0  0
    0.8480    1.9735    3.6216 H   0  0  0  0  0  0  0  0  0  0  0  0
    1.3953    3.6883    3.7623 H   0  0  0  0  0  0  0  0  0  0  0  0
   -0.9877    3.2592    9.0959 H   0  0  0  0  0  0  0  0  0  0  0  0
   -0.8698    4.2684    7.6364 H   0  0  0  0  0  0  0  0  0  0  0  0
    1.2666    4.2192    8.9379 H   0  0  0  0  0  0  0  0  0  0  0  0
    1.5233    3.4778    7.3158 H   0  0  0  0  0  0  0  0  0  0  0  0
    1.3487    2.4244    8.7833 H   0  0  0  0  0  0  0  0  0  0  0  0
    2.8136   -1.6011    0.0731 H   0  0  0  0  0  0  0  0  0  0  0  0
    3.7557   -1.6379    1.5924 H   0  0  0  0  0  0  0  0  0  0  0  0
    3.2597   -4.1003    1.8302 H   0  0  0  0  0  0  0  0  0  0  0  0
    4.0409   -3.7274    0.2464 H   0  0  0  0  0  0  0  0  0  0  0  0
    2.2648   -4.0348    0.3141 H   0  0  0  0  0  0  0  0  0  0  0  0
    3.4980   -2.5990    3.7096 H   0  0  0  0  0  0  0  0  0  0  0  0
    2.4191   -2.3662    5.1067 H   0  0  0  0  0  0  0  0  0  0  0  0
    2.5635    0.1223    4.8495 H   0  0  0  0  0  0  0  0  0  0  0  0
    4.1816   -0.6363    5.0862 H   0  0  0  0  0  0  0  0  0  0  0  0
    3.6831   -0.0974    3.4416 H   0  0  0  0  0  0  0  0  0  0  0  0
   -1.4063    4.2786   -3.0723 H   0  0  0  0  0  0  0  0  0  0  0  0
   -1.6343    3.2662   -4.5084 H   0  0  0  0  0  0  0  0  0  0  0  0
   -3.5019    4.8523   -4.3194 H   0  0  0  0  0  0  0  0  0  0  0  0
   -4.1045    3.1643   -4.1268 H   0  0  0  0  0  0  0  0  0  0  0  0
   -3.9200    4.2339   -2.6781 H   0  0  0  0  0  0  0  0  0  0  0  0
   -1.3222    3.4630    0.3327 H   0  0  0  0  0  0  0  0  0  0  0  0
   -2.0758    4.3916   -0.9872 H   0  0  0  0  0  0  0  0  0  0  0  0
   -4.3375    3.4873   -0.3509 H   0  0  0  0  0  0  0  0  0  0  0  0
   -3.5631    2.6035    1.0334 H   0  0  0  0  0  0  0  0  0  0  0  0
   -3.5362    4.4021    0.9777 H   0  0  0  0  0  0  0  0  0  0  0  0
   -4.6062   -1.6021   -7.5984 H   0  0  0  0  0  0  0  0  0  0  0  0
   -0.4073   -1.3489   -9.6152 H   0  0  0  0  0  0  0  0  0  0  0  0
    1.7028    1.5833   -1.6081 H   0  0  0  0  0  0  0  0  0  0  0  0
    5.4340   -1.0699   -2.4949 H   0  0  0  0  0  0  0  0  0  0  0  0
   -1.1433   -5.5724   -6.7664 H   0  0  0  0  0  0  0  0  0  0  0  0
    2.6266   -6.6020   -9.3148 H   0  0  0  0  0  0  0  0  0  0  0  0
    4.1924   -2.9031   -6.5251 H   0  0  0  0  0  0  0  0  0  0  0  0
  1  2  2  0
  2  3  1  0
  2  4  1  0
  4  5  1  0
  4  6  2  0
  6  7  1  0
  7  8  2  0
  8  9  1  0
  9 10  1  0
 10 11  1  0
  9 12  2  0
 12 13  1  0
 13 14  2  0
 12 15  1  0
 15 16  1  0
  6 17  1  0
 17 18  2  0
 18 19  1  0
 18 20  1  0
 20 21  1  0
 20 22  2  0
 22 23  1  0
 23 24  2  0
 24 25  1  0
 25 26  1  0
 26 27  1  0
 25 28  2  0
 28 29  1  0
 29 30  2  0
 28 31  1  0
 31 32  1  0
 22 33  1  0
 33 34  2  0
 34 35  1  0
 34 36  1  0
 36 37  1  0
 36 38  2  0
 38 39  1  0
 39 40  2  0
 40 41  1  0
 41 42  1  0
 42 43  1  0
 41 44  2  0
 44 45  1  0
 45 46  2  0
 44 47  1  0
 47 48  1  0
 38 49  1  0
 49 50  2  0
 50 51  1  0
 51 52  2  0
 52 53  1  0
 53 54  1  0
 54 55  2  0
 55 56  1  0
 56 57  2  0
 57 58  1  0
 58 59  2  0
 59 60  1  0
 60 61  2  0
 61 62  1  0
 62 63  1  0
 63 64  2  0
 64 65  1  0
 65 66  2  0
 66 67  1  0
 67 68  2  0
 68 69  1  0
 69 70  2  0
 70 71  1  0
 71 72  1  0
 72 73  2  0
 73 74  1  0
 74 75  2  0
 14  1  1  0
 30 17  1  0
 46 33  1  0
 57 49  1  0
 66 58  1  0
 75 67  1  0
 14  7  1  0
 30 23  1  0
 46 39  1  0
 55 51  1  0
 64 60  1  0
 73 69  1  0
  1 76  1  0
 10 77  1  0
 10 78  1  0
 11 79  1  0
 11 80  1  0
 11 81  1  0
 15 82  1  0
 15 83  1  0
 16 84  1  0
 16 85  1  0
 16 86  1  0
 26 87  1  0
 26 88  1  0
 27 89  1  0
 27 90  1  0
 27 91  1  0
 31 92  1  0
 31 93  1  0
 32 94  1  0
 32 95  1  0
 32 96  1  0
 42 97  1  0
 42 98  1  0
 43 99  1  0
 43100  1  0
 43101  1  0
 47102  1  0
 47103  1  0
 48104  1  0
 48105  1  0
 48106  1  0
 52107  1  0
 54108  1  0
 61109  1  0
 63110  1  0
 70111  1  0
 72112  1  0
 75113  1  0
M  END

