
     RDKit          3D

225250  0  0  0  0  0  0  0  0999 V2000
    1.7189   -6.7507   10.2905 C   0  0  0  0  0  0  0  0  0  0  0  0
    1.9279   -7.1117    8.9625 C   0  0  0  0  0  0  0  0  0  0  0  0
    0.7942   -6.9277    8.1548 C   0  0  0  0  0  0  0  0  0  0  0  0
    0.7042   -7.1743    6.7696 C   0  0  0  0  0  0  0  0  0  0  0  0
    1.8833   -7.5440    5.9695 C   0  0  0  0  0  0  0  0  0  0  0  0
    2.0858   -8.9998    5.1517 S   0  0  0  0  0  0  0  0  0  0  0  0
    3.5892   -8.6224    4.4907 C   0  0  0  0  0  0  0  0  0  0  0  0
    4.3579   -9.5144    3.5596 C   0  0  0  0  0  0  0  0  0  0  0  0
    3.7995   -9.4283    2.1437 C   0  0  0  0  0  0  0  0  0  0  0  0
    3.9375   -7.3293    4.8808 C   0  0  0  0  0  0  0  0  0  0  0  0
    5.4133   -6.5207    4.3738 Cl  0  0  0  0  0  0  0  0  0  0  0  0
    2.9837   -6.7292    5.7170 C   0  0  0  0  0  0  0  0  0  0  0  0
    3.1357   -5.0831    6.3249 Cl  0  0  0  0  0  0  0  0  0  0  0  0
   -0.5376   -6.9292    6.1611 C   0  0  0  0  0  0  0  0  0  0  0  0
   -1.6248   -6.3947    6.8587 C   0  0  0  0  0  0  0  0  0  0  0  0
   -1.5324   -6.1413    8.2414 C   0  0  0  0  0  0  0  0  0  0  0  0
   -2.6539   -5.5628    9.0015 C   0  0  0  0  0  0  0  0  0  0  0  0
   -3.2224   -3.9899    8.8253 S   0  0  0  0  0  0  0  0  0  0  0  0
   -4.4493   -4.1157    9.9726 C   0  0  0  0  0  0  0  0  0  0  0  0
   -5.3562   -2.9917   10.3735 C   0  0  0  0  0  0  0  0  0  0  0  0
   -4.7662   -2.2194   11.5479 C   0  0  0  0  0  0  0  0  0  0  0  0
   -4.4177   -5.3955   10.5199 C   0  0  0  0  0  0  0  0  0  0  0  0
   -3.4144   -6.2109    9.9699 C   0  0  0  0  0  0  0  0  0  0  0  0
   -3.1616   -7.8855   10.4439 Cl  0  0  0  0  0  0  0  0  0  0  0  0
   -5.5128   -5.9389   11.7849 Cl  0  0  0  0  0  0  0  0  0  0  0  0
   -0.3065   -6.4342    8.8607 C   0  0  0  0  0  0  0  0  0  0  0  0
    0.1328   -6.2052   10.4694 S   0  0  0  0  0  0  0  0  0  0  0  0
   -2.7261   -6.1143    6.0360 C   0  0  0  0  0  0  0  0  0  0  0  0
   -2.5037   -6.4523    4.7055 C   0  0  0  0  0  0  0  0  0  0  0  0
   -0.9441   -7.0693    4.5348 S   0  0  0  0  0  0  0  0  0  0  0  0
   -3.3663   -6.0698    3.5865 C   0  0  0  0  0  0  0  0  0  0  0  0
   -3.9089   -4.8011    3.4211 C   0  0  0  0  0  0  0  0  0  0  0  0
   -4.5071   -4.6244    2.1652 C   0  0  0  0  0  0  0  0  0  0  0  0
   -5.0549   -3.4265    1.6728 C   0  0  0  0  0  0  0  0  0  0  0  0
   -4.9653   -2.1669    2.4342 C   0  0  0  0  0  0  0  0  0  0  0  0
   -3.5256   -1.3959    2.8328 S   0  0  0  0  0  0  0  0  0  0  0  0
   -4.2303   -0.1418    3.7029 C   0  0  0  0  0  0  0  0  0  0  0  0
   -3.4598    0.8923    4.4721 C   0  0  0  0  0  0  0  0  0  0  0  0
   -3.0363    0.3437    5.8309 C   0  0  0  0  0  0  0  0  0  0  0  0
   -5.6124   -0.3276    3.7129 C   0  0  0  0  0  0  0  0  0  0  0  0
   -6.7333    0.7365    4.5563 Cl  0  0  0  0  0  0  0  0  0  0  0  0
   -6.0237   -1.4577    2.9896 C   0  0  0  0  0  0  0  0  0  0  0  0
   -7.7024   -1.9692    2.8575 Cl  0  0  0  0  0  0  0  0  0  0  0  0
   -5.5613   -3.4482    0.3654 C   0  0  0  0  0  0  0  0  0  0  0  0
   -5.5224   -4.5939   -0.4393 C   0  0  0  0  0  0  0  0  0  0  0  0
   -5.0040   -5.8038    0.0651 C   0  0  0  0  0  0  0  0  0  0  0  0
   -5.0696   -7.0589   -0.7081 C   0  0  0  0  0  0  0  0  0  0  0  0
   -3.7478   -8.0079   -1.1449 S   0  0  0  0  0  0  0  0  0  0  0  0
   -4.6441   -9.2333   -1.8761 C   0  0  0  0  0  0  0  0  0  0  0  0
   -4.0546  -10.4526   -2.5232 C   0  0  0  0  0  0  0  0  0  0  0  0
   -4.0453  -10.3130   -4.0415 C   0  0  0  0  0  0  0  0  0  0  0  0
   -5.9973   -8.9128   -1.7859 C   0  0  0  0  0  0  0  0  0  0  0  0
   -6.2344   -7.6953   -1.1285 C   0  0  0  0  0  0  0  0  0  0  0  0
   -7.8513   -7.0754   -0.8115 Cl  0  0  0  0  0  0  0  0  0  0  0  0
   -7.2853   -9.9359   -2.4112 Cl  0  0  0  0  0  0  0  0  0  0  0  0
   -4.4672   -5.7718    1.3652 C   0  0  0  0  0  0  0  0  0  0  0  0
   -3.6507   -6.9891    2.1991 S   0  0  0  0  0  0  0  0  0  0  0  0
   -5.9304   -4.3514   -1.7637 C   0  0  0  0  0  0  0  0  0  0  0  0
   -6.2979   -3.0227   -1.9826 C   0  0  0  0  0  0  0  0  0  0  0  0
   -6.1159   -2.1557   -0.5464 S   0  0  0  0  0  0  0  0  0  0  0  0
   -6.5097   -2.3849   -3.2893 C   0  0  0  0  0  0  0  0  0  0  0  0
   -5.8827   -2.7632   -4.4767 C   0  0  0  0  0  0  0  0  0  0  0  0
   -5.9067   -1.7509   -5.4547 C   0  0  0  0  0  0  0  0  0  0  0  0
   -5.1621   -1.7400   -6.6556 C   0  0  0  0  0  0  0  0  0  0  0  0
   -4.3434   -2.8922   -7.0740 C   0  0  0  0  0  0  0  0  0  0  0  0
   -2.6628   -2.8889   -7.1602 S   0  0  0  0  0  0  0  0  0  0  0  0
   -2.5110   -4.4607   -7.7409 C   0  0  0  0  0  0  0  0  0  0  0  0
   -1.2027   -5.1500   -7.9757 C   0  0  0  0  0  0  0  0  0  0  0  0
   -0.7824   -5.9485   -6.7449 C   0  0  0  0  0  0  0  0  0  0  0  0
   -3.7839   -5.0183   -7.8554 C   0  0  0  0  0  0  0  0  0  0  0  0
   -4.0761   -6.6608   -8.4101 Cl  0  0  0  0  0  0  0  0  0  0  0  0
   -4.8137   -4.1361   -7.4829 C   0  0  0  0  0  0  0  0  0  0  0  0
   -6.5210   -4.5535   -7.5597 Cl  0  0  0  0  0  0  0  0  0  0  0  0
   -5.0925   -0.5169   -7.3494 C   0  0  0  0  0  0  0  0  0  0  0  0
   -5.7465    0.6374   -6.9047 C   0  0  0  0  0  0  0  0  0  0  0  0
   -6.5394    0.6064   -5.7463 C   0  0  0  0  0  0  0  0  0  0  0  0
   -7.1676    1.8171   -5.1905 C   0  0  0  0  0  0  0  0  0  0  0  0
   -6.3255    3.1038   -4.5057 S   0  0  0  0  0  0  0  0  0  0  0  0
   -7.6887    3.9493   -3.9944 C   0  0  0  0  0  0  0  0  0  0  0  0
   -7.6642    5.2923   -3.3291 C   0  0  0  0  0  0  0  0  0  0  0  0
   -7.7663    6.4090   -4.3629 C   0  0  0  0  0  0  0  0  0  0  0  0
   -8.8283    3.2361   -4.3692 C   0  0  0  0  0  0  0  0  0  0  0  0
   -8.5345    2.0343   -5.0269 C   0  0  0  0  0  0  0  0  0  0  0  0
   -9.7658    0.9160   -5.5961 Cl  0  0  0  0  0  0  0  0  0  0  0  0
  -10.4705    3.7851   -4.0551 Cl  0  0  0  0  0  0  0  0  0  0  0  0
   -6.5856   -0.6012   -5.0364 C   0  0  0  0  0  0  0  0  0  0  0  0
   -7.1235   -0.8261   -3.4626 S   0  0  0  0  0  0  0  0  0  0  0  0
   -5.3991    1.7886   -7.6297 C   0  0  0  0  0  0  0  0  0  0  0  0
   -4.4327    1.5496   -8.6108 C   0  0  0  0  0  0  0  0  0  0  0  0
   -4.0717   -0.0999   -8.6203 S   0  0  0  0  0  0  0  0  0  0  0  0
   -3.5073    2.5792   -9.1034 C   0  0  0  0  0  0  0  0  0  0  0  0
   -3.1309    3.9487   -8.2081 S   0  0  0  0  0  0  0  0  0  0  0  0
   -1.6307    4.2800   -8.8979 C   0  0  0  0  0  0  0  0  0  0  0  0
   -1.4206    3.3159   -9.9047 C   0  0  0  0  0  0  0  0  0  0  0  0
   -2.4594    2.3603   -9.9865 C   0  0  0  0  0  0  0  0  0  0  0  0
   -0.2229    3.1960  -10.6883 N   0  0  0  0  0  4  0  0  0  0  0  0
    0.7491    4.1716  -10.6494 O   0  0  0  0  0  1  0  0  0  0  0  0
   -0.1456    2.3222  -11.5786 O   0  0  0  0  0  0  0  0  0  0  0  0
   -0.5996    5.0795   -8.2004 C   0  0  0  0  0  0  0  0  0  0  0  0
   -0.9131    5.8414   -7.1454 C   0  0  0  0  0  0  0  0  0  0  0  0
    0.0031    5.8856   -6.0072 C   0  0  0  0  0  0  0  0  0  0  0  0
   -0.0867    4.9904   -4.9457 C   0  0  0  0  0  0  0  0  0  0  0  0
    0.9799    5.0982   -4.0497 C   0  0  0  0  0  0  0  0  0  0  0  0
    1.2137    4.2600   -2.9422 C   0  0  0  0  0  0  0  0  0  0  0  0
    0.3119    3.1423   -2.6175 C   0  0  0  0  0  0  0  0  0  0  0  0
    0.1120    1.7595   -3.5587 S   0  0  0  0  0  0  0  0  0  0  0  0
   -1.1391    1.0953   -2.6454 C   0  0  0  0  0  0  0  0  0  0  0  0
   -1.8269   -0.2039   -2.9595 C   0  0  0  0  0  0  0  0  0  0  0  0
   -2.6931   -0.0769   -4.2070 C   0  0  0  0  0  0  0  0  0  0  0  0
   -1.4244    1.9636   -1.5891 C   0  0  0  0  0  0  0  0  0  0  0  0
   -2.6966    1.6751   -0.4077 Cl  0  0  0  0  0  0  0  0  0  0  0  0
   -0.6075    3.1073   -1.5712 C   0  0  0  0  0  0  0  0  0  0  0  0
   -0.7657    4.3966   -0.3819 Cl  0  0  0  0  0  0  0  0  0  0  0  0
    2.3790    4.5044   -2.2005 C   0  0  0  0  0  0  0  0  0  0  0  0
    3.2606    5.5486   -2.5027 C   0  0  0  0  0  0  0  0  0  0  0  0
    3.0204    6.3893   -3.6104 C   0  0  0  0  0  0  0  0  0  0  0  0
    3.9423    7.4796   -3.9686 C   0  0  0  0  0  0  0  0  0  0  0  0
    5.5128    7.2657   -4.5377 S   0  0  0  0  0  0  0  0  0  0  0  0
    5.8901    8.9065   -4.6163 C   0  0  0  0  0  0  0  0  0  0  0  0
    7.2391    9.4518   -4.9821 C   0  0  0  0  0  0  0  0  0  0  0  0
    8.1296    9.5614   -3.7521 C   0  0  0  0  0  0  0  0  0  0  0  0
    4.7963    9.6407   -4.1614 C   0  0  0  0  0  0  0  0  0  0  0  0
    3.7026    8.8380   -3.8031 C   0  0  0  0  0  0  0  0  0  0  0  0
    2.2001    9.4866   -3.1604 Cl  0  0  0  0  0  0  0  0  0  0  0  0
    4.7995   11.3911   -4.0044 Cl  0  0  0  0  0  0  0  0  0  0  0  0
    1.8738    6.1221   -4.3796 C   0  0  0  0  0  0  0  0  0  0  0  0
    1.3826    6.8434   -5.8311 S   0  0  0  0  0  0  0  0  0  0  0  0
    4.3647    5.6111   -1.6313 C   0  0  0  0  0  0  0  0  0  0  0  0
    4.3634    4.5785   -0.6969 C   0  0  0  0  0  0  0  0  0  0  0  0
    2.9931    3.6119   -0.9147 S   0  0  0  0  0  0  0  0  0  0  0  0
    5.4244    4.2989    0.2748 C   0  0  0  0  0  0  0  0  0  0  0  0
    5.8686    3.0237    0.6171 C   0  0  0  0  0  0  0  0  0  0  0  0
    6.8671    3.0414    1.6001 C   0  0  0  0  0  0  0  0  0  0  0  0
    7.5084    1.9155    2.1500 C   0  0  0  0  0  0  0  0  0  0  0  0
    7.2741    0.5602    1.6237 C   0  0  0  0  0  0  0  0  0  0  0  0
    6.4789   -0.6754    2.4412 S   0  0  0  0  0  0  0  0  0  0  0  0
    6.5623   -1.7978    1.1870 C   0  0  0  0  0  0  0  0  0  0  0  0
    6.0466   -3.2035    1.2659 C   0  0  0  0  0  0  0  0  0  0  0  0
    7.0532   -4.1113    1.9560 C   0  0  0  0  0  0  0  0  0  0  0  0
    7.2421   -1.2226    0.1152 C   0  0  0  0  0  0  0  0  0  0  0  0
    7.5867   -2.0675   -1.3896 Cl  0  0  0  0  0  0  0  0  0  0  0  0
    7.6306    0.1039    0.3568 C   0  0  0  0  0  0  0  0  0  0  0  0
    8.5008    1.0840   -0.8170 Cl  0  0  0  0  0  0  0  0  0  0  0  0
    8.4155    2.1476    3.1934 C   0  0  0  0  0  0  0  0  0  0  0  0
    8.7001    3.4287    3.6755 C   0  0  0  0  0  0  0  0  0  0  0  0
    8.0762    4.5617    3.1088 C   0  0  0  0  0  0  0  0  0  0  0  0
    8.3201    5.9206    3.6238 C   0  0  0  0  0  0  0  0  0  0  0  0
    9.0353    7.1677    2.7502 S   0  0  0  0  0  0  0  0  0  0  0  0
    8.9804    8.3054    3.9921 C   0  0  0  0  0  0  0  0  0  0  0  0
    9.4269    9.7312    3.8661 C   0  0  0  0  0  0  0  0  0  0  0  0
    8.2601   10.6343    3.4908 C   0  0  0  0  0  0  0  0  0  0  0  0
    8.3721    7.7268    5.1030 C   0  0  0  0  0  0  0  0  0  0  0  0
    8.0047    6.3871    4.8977 C   0  0  0  0  0  0  0  0  0  0  0  0
    7.1746    5.4162    6.1066 Cl  0  0  0  0  0  0  0  0  0  0  0  0
    8.0699    8.5866    6.6074 Cl  0  0  0  0  0  0  0  0  0  0  0  0
    7.1715    4.3278    2.0555 C   0  0  0  0  0  0  0  0  0  0  0  0
    6.2453    5.4477    1.1985 S   0  0  0  0  0  0  0  0  0  0  0  0
    9.6590    3.4251    4.7021 C   0  0  0  0  0  0  0  0  0  0  0  0
   10.1086    2.1505    5.0314 C   0  0  0  0  0  0  0  0  0  0  0  0
    9.3337    1.0245    4.0421 S   0  0  0  0  0  0  0  0  0  0  0  0
    2.4602   -6.8065   11.0764 H   0  0  0  0  0  0  0  0  0  0  0  0
    2.8723   -7.4942    8.5992 H   0  0  0  0  0  0  0  0  0  0  0  0
    5.4316   -9.2362    3.5553 H   0  0  0  0  0  0  0  0  0  0  0  0
    4.2832  -10.5619    3.9221 H   0  0  0  0  0  0  0  0  0  0  0  0
    4.3822  -10.0949    1.4768 H   0  0  0  0  0  0  0  0  0  0  0  0
    2.7357   -9.7538    2.1302 H   0  0  0  0  0  0  0  0  0  0  0  0
    3.8751   -8.3878    1.7595 H   0  0  0  0  0  0  0  0  0  0  0  0
   -6.3551   -3.3925   10.6531 H   0  0  0  0  0  0  0  0  0  0  0  0
   -5.4939   -2.3036    9.5135 H   0  0  0  0  0  0  0  0  0  0  0  0
   -4.6397   -2.8886   12.4247 H   0  0  0  0  0  0  0  0  0  0  0  0
   -5.4503   -1.3929   11.8291 H   0  0  0  0  0  0  0  0  0  0  0  0
   -3.7790   -1.7886   11.2685 H   0  0  0  0  0  0  0  0  0  0  0  0
   -3.6419   -5.6527    6.3830 H   0  0  0  0  0  0  0  0  0  0  0  0
   -3.8221   -4.0199    4.1676 H   0  0  0  0  0  0  0  0  0  0  0  0
   -4.0755    1.8046    4.6124 H   0  0  0  0  0  0  0  0  0  0  0  0
   -2.5571    1.1805    3.8930 H   0  0  0  0  0  0  0  0  0  0  0  0
   -2.4757    1.1240    6.3848 H   0  0  0  0  0  0  0  0  0  0  0  0
   -2.3769   -0.5406    5.7008 H   0  0  0  0  0  0  0  0  0  0  0  0
   -3.9249    0.0519    6.4291 H   0  0  0  0  0  0  0  0  0  0  0  0
   -3.0120  -10.5924   -2.1651 H   0  0  0  0  0  0  0  0  0  0  0  0
   -4.6431  -11.3491   -2.2338 H   0  0  0  0  0  0  0  0  0  0  0  0
   -3.4484   -9.4284   -4.3463 H   0  0  0  0  0  0  0  0  0  0  0  0
   -5.0791  -10.2093   -4.4295 H   0  0  0  0  0  0  0  0  0  0  0  0
   -3.5921  -11.2181   -4.4934 H   0  0  0  0  0  0  0  0  0  0  0  0
   -5.8985   -5.0922   -2.5539 H   0  0  0  0  0  0  0  0  0  0  0  0
   -5.3074   -3.6736   -4.5773 H   0  0  0  0  0  0  0  0  0  0  0  0
   -1.2744   -5.8246   -8.8564 H   0  0  0  0  0  0  0  0  0  0  0  0
   -0.4249   -4.3867   -8.1965 H   0  0  0  0  0  0  0  0  0  0  0  0
   -0.8441   -5.3165   -5.8338 H   0  0  0  0  0  0  0  0  0  0  0  0
   -1.4396   -6.8368   -6.6241 H   0  0  0  0  0  0  0  0  0  0  0  0
    0.2662   -6.2928   -6.8617 H   0  0  0  0  0  0  0  0  0  0  0  0
   -8.5073    5.3753   -2.6127 H   0  0  0  0  0  0  0  0  0  0  0  0
   -6.7170    5.4029   -2.7592 H   0  0  0  0  0  0  0  0  0  0  0  0
   -7.8030    7.3899   -3.8442 H   0  0  0  0  0  0  0  0  0  0  0  0
   -6.8813    6.3911   -5.0309 H   0  0  0  0  0  0  0  0  0  0  0  0
   -8.6886    6.2986   -4.9717 H   0  0  0  0  0  0  0  0  0  0  0  0
   -5.7339    2.7841   -7.3663 H   0  0  0  0  0  0  0  0  0  0  0  0
   -2.3919    1.4782  -10.6080 H   0  0  0  0  0  0  0  0  0  0  0  0
    0.4383    4.8409   -8.3684 H   0  0  0  0  0  0  0  0  0  0  0  0
   -1.9508    6.0419   -6.9182 H   0  0  0  0  0  0  0  0  0  0  0  0
   -0.8778    4.2601   -4.8659 H   0  0  0  0  0  0  0  0  0  0  0  0
   -1.0493   -0.9808   -3.1269 H   0  0  0  0  0  0  0  0  0  0  0  0
   -2.4589   -0.5255   -2.1051 H   0  0  0  0  0  0  0  0  0  0  0  0
   -3.5057    0.6652   -4.0449 H   0  0  0  0  0  0  0  0  0  0  0  0
   -3.1484   -1.0619   -4.4323 H   0  0  0  0  0  0  0  0  0  0  0  0
   -2.0821    0.2324   -5.0819 H   0  0  0  0  0  0  0  0  0  0  0  0
    7.1248   10.4523   -5.4508 H   0  0  0  0  0  0  0  0  0  0  0  0
    7.7202    8.7823   -5.7261 H   0  0  0  0  0  0  0  0  0  0  0  0
    8.3312    8.5498   -3.3352 H   0  0  0  0  0  0  0  0  0  0  0  0
    9.0997   10.0261   -4.0330 H   0  0  0  0  0  0  0  0  0  0  0  0
    7.6494   10.1903   -2.9734 H   0  0  0  0  0  0  0  0  0  0  0  0
    5.1574    6.3418   -1.7005 H   0  0  0  0  0  0  0  0  0  0  0  0
    5.4850    2.1195    0.1578 H   0  0  0  0  0  0  0  0  0  0  0  0
    5.8269   -3.5906    0.2461 H   0  0  0  0  0  0  0  0  0  0  0  0
    5.0935   -3.2076    1.8382 H   0  0  0  0  0  0  0  0  0  0  0  0
    6.6705   -5.1556    1.9554 H   0  0  0  0  0  0  0  0  0  0  0  0
    8.0254   -4.0933    1.4212 H   0  0  0  0  0  0  0  0  0  0  0  0
    7.2084   -3.7861    3.0075 H   0  0  0  0  0  0  0  0  0  0  0  0
    9.8706   10.0732    4.8266 H   0  0  0  0  0  0  0  0  0  0  0  0
   10.2156    9.8052    3.0872 H   0  0  0  0  0  0  0  0  0  0  0  0
    8.6135   11.6867    3.4078 H   0  0  0  0  0  0  0  0  0  0  0  0
    7.4674   10.5874    4.2679 H   0  0  0  0  0  0  0  0  0  0  0  0
    7.8329   10.3229    2.5145 H   0  0  0  0  0  0  0  0  0  0  0  0
   10.0243    4.3167    5.1894 H   0  0  0  0  0  0  0  0  0  0  0  0
   10.8479    1.9236    5.7902 H   0  0  0  0  0  0  0  0  0  0  0  0
  1  2  2  0
  2  3  1  0
  3  4  2  0
  4  5  1  0
  5  6  1  0
  6  7  1  0
  7  8  1  0
  8  9  1  0
  7 10  2  0
 10 11  1  0
 10 12  1  0
 12 13  1  0
  4 14  1  0
 14 15  2  0
 15 16  1  0
 16 17  1  0
 17 18  1  0
 18 19  1  0
 19 20  1  0
 20 21  1  0
 19 22  2  0
 22 23  1  0
 23 24  1  0
 22 25  1  0
 16 26  2  0
 26 27  1  0
 15 28  1  0
 28 29  2  0
 29 30  1  0
 29 31  1  0
 31 32  2  0
 32 33  1  0
 33 34  2  0
 34 35  1  0
 35 36  1  0
 36 37  1  0
 37 38  1  0
 38 39  1  0
 37 40  2  0
 40 41  1  0
 40 42  1  0
 42 43  1  0
 34 44  1  0
 44 45  2  0
 45 46  1  0
 46 47  1  0
 47 48  1  0
 48 49  1  0
 49 50  1  0
 50 51  1  0
 49 52  2  0
 52 53  1  0
 53 54  1  0
 52 55  1  0
 46 56  2  0
 56 57  1  0
 45 58  1  0
 58 59  2  0
 59 60  1  0
 59 61  1  0
 61 62  2  0
 62 63  1  0
 63 64  2  0
 64 65  1  0
 65 66  1  0
 66 67  1  0
 67 68  1  0
 68 69  1  0
 67 70  2  0
 70 71  1  0
 70 72  1  0
 72 73  1  0
 64 74  1  0
 74 75  2  0
 75 76  1  0
 76 77  1  0
 77 78  1  0
 78 79  1  0
 79 80  1  0
 80 81  1  0
 79 82  2  0
 82 83  1  0
 83 84  1  0
 82 85  1  0
 76 86  2  0
 86 87  1  0
 75 88  1  0
 88 89  2  0
 89 90  1  0
 89 91  1  0
 91 92  1  0
 92 93  1  0
 93 94  2  0
 94 95  1  0
 94 96  1  0
 96 97  1  0
 96 98  2  0
 93 99  1  0
 99100  2  3
100101  1  0
101102  2  0
102103  1  0
103104  2  0
104105  1  0
105106  1  0
106107  1  0
107108  1  0
108109  1  0
107110  2  0
110111  1  0
110112  1  0
112113  1  0
104114  1  0
114115  2  0
115116  1  0
116117  1  0
117118  1  0
118119  1  0
119120  1  0
120121  1  0
119122  2  0
122123  1  0
123124  1  0
122125  1  0
116126  2  0
126127  1  0
115128  1  0
128129  2  0
129130  1  0
129131  1  0
131132  2  0
132133  1  0
133134  2  0
134135  1  0
135136  1  0
136137  1  0
137138  1  0
138139  1  0
137140  2  0
140141  1  0
140142  1  0
142143  1  0
134144  1  0
144145  2  0
145146  1  0
146147  1  0
147148  1  0
148149  1  0
149150  1  0
150151  1  0
149152  2  0
152153  1  0
153154  1  0
152155  1  0
146156  2  0
156157  1  0
145158  1  0
158159  2  0
159160  1  0
 27  1  1  0
 57 31  1  0
 87 61  1  0
 95 91  2  0
127101  1  0
157131  1  0
 26  3  1  0
 56 33  1  0
 86 63  1  0
126103  1  0
156133  1  0
 12  5  2  0
 30 14  1  0
 42 35  2  0
 60 44  1  0
 72 65  2  0
 90 74  1  0
112105  2  0
130114  1  0
142135  2  0
160144  1  0
 23 17  2  0
 53 47  2  0
 83 77  2  0
123117  2  0
153147  2  0
  1161  1  0
  2162  1  0
  8163  1  0
  8164  1  0
  9165  1  0
  9166  1  0
  9167  1  0
 20168  1  0
 20169  1  0
 21170  1  0
 21171  1  0
 21172  1  0
 28173  1  0
 32174  1  0
 38175  1  0
 38176  1  0
 39177  1  0
 39178  1  0
 39179  1  0
 50180  1  0
 50181  1  0
 51182  1  0
 51183  1  0
 51184  1  0
 58185  1  0
 62186  1  0
 68187  1  0
 68188  1  0
 69189  1  0
 69190  1  0
 69191  1  0
 80192  1  0
 80193  1  0
 81194  1  0
 81195  1  0
 81196  1  0
 88197  1  0
 95198  1  0
 99199  1  0
100200  1  0
102201  1  0
108202  1  0
108203  1  0
109204  1  0
109205  1  0
109206  1  0
120207  1  0
120208  1  0
121209  1  0
121210  1  0
121211  1  0
128212  1  0
132213  1  0
138214  1  0
138215  1  0
139216  1  0
139217  1  0
139218  1  0
150219  1  0
150220  1  0
151221  1  0
151222  1  0
151223  1  0
158224  1  0
159225  1  0
M  CHG  2  96   1  97  -1
M  END

