
     RDKit          3D

239266  0  0  0  0  0  0  0  0999 V2000
   -0.7627   -9.1478   10.4149 C   0  0  0  0  0  0  0  0  0  0  0  0
   -1.3743   -7.8985   10.4152 C   0  0  0  0  0  0  0  0  0  0  0  0
   -2.0110   -7.5943    9.2002 C   0  0  0  0  0  0  0  0  0  0  0  0
   -2.6910   -6.4007    8.8911 C   0  0  0  0  0  0  0  0  0  0  0  0
   -2.7416   -5.2626    9.8242 C   0  0  0  0  0  0  0  0  0  0  0  0
   -4.1483   -4.6026   10.4703 S   0  0  0  0  0  0  0  0  0  0  0  0
   -3.3948   -3.3415   11.2915 C   0  0  0  0  0  0  0  0  0  0  0  0
   -4.1176   -2.2697   12.0486 C   0  0  0  0  0  0  0  0  0  0  0  0
   -4.5071   -1.1239   11.1210 C   0  0  0  0  0  0  0  0  0  0  0  0
   -2.0240   -3.4025   11.0421 C   0  0  0  0  0  0  0  0  0  0  0  0
   -0.8735   -2.2189   11.6472 Cl  0  0  0  0  0  0  0  0  0  0  0  0
   -1.6588   -4.4825   10.2218 C   0  0  0  0  0  0  0  0  0  0  0  0
   -0.0083   -4.7636    9.6827 Cl  0  0  0  0  0  0  0  0  0  0  0  0
   -3.2651   -6.3100    7.6126 C   0  0  0  0  0  0  0  0  0  0  0  0
   -3.1590   -7.3320    6.6625 C   0  0  0  0  0  0  0  0  0  0  0  0
   -2.4781   -8.5288    6.9731 C   0  0  0  0  0  0  0  0  0  0  0  0
   -2.3340   -9.6226    5.9948 C   0  0  0  0  0  0  0  0  0  0  0  0
   -1.5132   -9.4983    4.5317 S   0  0  0  0  0  0  0  0  0  0  0  0
   -1.8130  -11.0766    4.0224 C   0  0  0  0  0  0  0  0  0  0  0  0
   -1.4541  -11.6128    2.6680 C   0  0  0  0  0  0  0  0  0  0  0  0
   -2.5966  -11.3926    1.6828 C   0  0  0  0  0  0  0  0  0  0  0  0
   -2.5900  -11.7146    4.9880 C   0  0  0  0  0  0  0  0  0  0  0  0
   -2.8767  -10.9023    6.0971 C   0  0  0  0  0  0  0  0  0  0  0  0
   -3.8822  -11.4287    7.4422 Cl  0  0  0  0  0  0  0  0  0  0  0  0
   -3.1914  -13.3600    4.8136 Cl  0  0  0  0  0  0  0  0  0  0  0  0
   -1.9178   -8.6238    8.2594 C   0  0  0  0  0  0  0  0  0  0  0  0
   -1.0169   -9.8845    8.9181 S   0  0  0  0  0  0  0  0  0  0  0  0
   -3.7725   -7.0133    5.4372 C   0  0  0  0  0  0  0  0  0  0  0  0
   -4.3474   -5.7416    5.4333 C   0  0  0  0  0  0  0  0  0  0  0  0
   -4.1049   -5.0166    6.9384 S   0  0  0  0  0  0  0  0  0  0  0  0
   -4.9756   -5.0757    4.2798 C   0  0  0  0  0  0  0  0  0  0  0  0
   -4.8484   -5.4656    2.9468 C   0  0  0  0  0  0  0  0  0  0  0  0
   -5.4228   -4.5495    2.0502 C   0  0  0  0  0  0  0  0  0  0  0  0
   -5.3392   -4.6017    0.6441 C   0  0  0  0  0  0  0  0  0  0  0  0
   -4.5942   -5.6701   -0.0442 C   0  0  0  0  0  0  0  0  0  0  0  0
   -5.0754   -7.2793   -0.1308 S   0  0  0  0  0  0  0  0  0  0  0  0
   -3.6896   -7.8387   -0.9060 C   0  0  0  0  0  0  0  0  0  0  0  0
   -3.4572   -9.2629   -1.3117 C   0  0  0  0  0  0  0  0  0  0  0  0
   -3.7330   -9.4566   -2.7981 C   0  0  0  0  0  0  0  0  0  0  0  0
   -2.8276   -6.7621   -1.1108 C   0  0  0  0  0  0  0  0  0  0  0  0
   -1.2450   -6.9139   -1.8641 Cl  0  0  0  0  0  0  0  0  0  0  0  0
   -3.3321   -5.5467   -0.6206 C   0  0  0  0  0  0  0  0  0  0  0  0
   -2.4285   -4.0369   -0.6666 Cl  0  0  0  0  0  0  0  0  0  0  0  0
   -5.8795   -3.5167   -0.0653 C   0  0  0  0  0  0  0  0  0  0  0  0
   -6.4644   -2.4171    0.5711 C   0  0  0  0  0  0  0  0  0  0  0  0
   -6.5476   -2.3617    1.9774 C   0  0  0  0  0  0  0  0  0  0  0  0
   -7.0738   -1.1797    2.6846 C   0  0  0  0  0  0  0  0  0  0  0  0
   -8.4395   -1.1759    3.6698 S   0  0  0  0  0  0  0  0  0  0  0  0
   -8.3527    0.4508    4.0937 C   0  0  0  0  0  0  0  0  0  0  0  0
   -9.3399    1.1597    4.9749 C   0  0  0  0  0  0  0  0  0  0  0  0
  -10.3635    1.9257    4.1410 C   0  0  0  0  0  0  0  0  0  0  0  0
   -7.2489    1.0184    3.4576 C   0  0  0  0  0  0  0  0  0  0  0  0
   -6.5274    0.1038    2.6750 C   0  0  0  0  0  0  0  0  0  0  0  0
   -5.0492    0.5266    1.8185 Cl  0  0  0  0  0  0  0  0  0  0  0  0
   -6.7914    2.7083    3.6285 Cl  0  0  0  0  0  0  0  0  0  0  0  0
   -6.0187   -3.4539    2.6861 C   0  0  0  0  0  0  0  0  0  0  0  0
   -5.8091   -3.6070    4.3489 S   0  0  0  0  0  0  0  0  0  0  0  0
   -6.8451   -1.4011   -0.3195 C   0  0  0  0  0  0  0  0  0  0  0  0
   -6.5282   -1.6897   -1.6460 C   0  0  0  0  0  0  0  0  0  0  0  0
   -5.8160   -3.2203   -1.7206 S   0  0  0  0  0  0  0  0  0  0  0  0
   -6.4586   -0.6895   -2.7238 C   0  0  0  0  0  0  0  0  0  0  0  0
   -6.0184   -0.9415   -4.0224 C   0  0  0  0  0  0  0  0  0  0  0  0
   -5.6305    0.2236   -4.7078 C   0  0  0  0  0  0  0  0  0  0  0  0
   -5.0101    0.2804   -5.9738 C   0  0  0  0  0  0  0  0  0  0  0  0
   -4.7229   -0.9282   -6.7686 C   0  0  0  0  0  0  0  0  0  0  0  0
   -3.7248   -2.1927   -6.2786 S   0  0  0  0  0  0  0  0  0  0  0  0
   -3.7961   -3.0475   -7.7265 C   0  0  0  0  0  0  0  0  0  0  0  0
   -3.1666   -4.3886   -7.9530 C   0  0  0  0  0  0  0  0  0  0  0  0
   -4.1353   -5.5038   -7.5730 C   0  0  0  0  0  0  0  0  0  0  0  0
   -4.6122   -2.3507   -8.6161 C   0  0  0  0  0  0  0  0  0  0  0  0
   -4.9828   -2.9136  -10.2411 Cl  0  0  0  0  0  0  0  0  0  0  0  0
   -5.1201   -1.1560   -8.0839 C   0  0  0  0  0  0  0  0  0  0  0  0
   -6.1776   -0.0717   -8.9788 Cl  0  0  0  0  0  0  0  0  0  0  0  0
   -4.4977    1.5272   -6.3709 C   0  0  0  0  0  0  0  0  0  0  0  0
   -4.5955    2.6706   -5.5785 C   0  0  0  0  0  0  0  0  0  0  0  0
   -5.3161    2.6414   -4.3665 C   0  0  0  0  0  0  0  0  0  0  0  0
   -5.4502    3.8430   -3.5187 C   0  0  0  0  0  0  0  0  0  0  0  0
   -4.8599    3.9929   -1.9480 S   0  0  0  0  0  0  0  0  0  0  0  0
   -5.3938    5.5700   -1.7063 C   0  0  0  0  0  0  0  0  0  0  0  0
   -5.1423    6.3727   -0.4651 C   0  0  0  0  0  0  0  0  0  0  0  0
   -3.8581    7.1837   -0.6043 C   0  0  0  0  0  0  0  0  0  0  0  0
   -6.0227    6.0129   -2.8682 C   0  0  0  0  0  0  0  0  0  0  0  0
   -6.0574    5.0427   -3.8834 C   0  0  0  0  0  0  0  0  0  0  0  0
   -6.8244    5.3047   -5.4432 Cl  0  0  0  0  0  0  0  0  0  0  0  0
   -6.7137    7.6193   -3.0524 Cl  0  0  0  0  0  0  0  0  0  0  0  0
   -5.7998    1.3894   -3.9504 C   0  0  0  0  0  0  0  0  0  0  0  0
   -6.4238    0.9761   -2.4473 S   0  0  0  0  0  0  0  0  0  0  0  0
   -3.7292    3.7032   -5.9844 C   0  0  0  0  0  0  0  0  0  0  0  0
   -2.9106    3.3787   -7.0829 C   0  0  0  0  0  0  0  0  0  0  0  0
   -3.3592    1.8150   -7.5613 S   0  0  0  0  0  0  0  0  0  0  0  0
   -1.5593    3.9897   -7.3483 C   0  0  0  0  0  0  0  0  0  0  0  0
   -1.1855    5.2049   -6.7330 C   0  0  0  0  0  0  0  0  0  0  0  0
   -2.0804    6.1571   -6.3621 N   0  0  0  0  0  0  0  0  0  0  0  0
   -1.0941    7.2386   -5.6008 S   0  0  0  0  0  0  0  0  0  0  0  0
    0.4236    6.5985   -5.6962 N   0  0  0  0  0  0  0  0  0  0  0  0
    0.1775    5.4581   -6.3922 C   0  0  0  0  0  0  0  0  0  0  0  0
    1.1767    4.5239   -6.7157 C   0  0  0  0  0  0  0  0  0  0  0  0
    0.8376    3.4915   -7.6122 C   0  0  0  0  0  0  0  0  0  0  0  0
   -0.5142    3.2231   -7.9308 C   0  0  0  0  0  0  0  0  0  0  0  0
   -0.7839    2.1705   -8.7467 N   0  0  0  0  0  0  0  0  0  0  0  0
    0.1801    1.3603   -9.2553 C   0  0  0  0  0  0  0  0  0  0  0  0
   -0.2504    0.2161  -10.1364 C   0  0  0  0  0  0  0  0  0  0  0  0
   -0.3236    0.6550  -11.5942 C   0  0  0  0  0  0  0  0  0  0  0  0
    1.5294    1.6421   -8.9495 C   0  0  0  0  0  0  0  0  0  0  0  0
    2.6762    0.7830   -9.4156 C   0  0  0  0  0  0  0  0  0  0  0  0
    2.9676   -0.3234   -8.4032 C   0  0  0  0  0  0  0  0  0  0  0  0
    1.8058    2.6879   -8.1296 N   0  0  0  0  0  0  0  0  0  0  0  0
    2.4337    4.4269   -5.9227 C   0  0  0  0  0  0  0  0  0  0  0  0
    2.9034    3.2148   -5.4088 C   0  0  0  0  0  0  0  0  0  0  0  0
    3.8712    3.3628   -4.4098 C   0  0  0  0  0  0  0  0  0  0  0  0
    4.4046    2.3224   -3.6255 C   0  0  0  0  0  0  0  0  0  0  0  0
    3.9889    0.9220   -3.8197 C   0  0  0  0  0  0  0  0  0  0  0  0
    2.4693    0.3176   -3.4260 S   0  0  0  0  0  0  0  0  0  0  0  0
    2.7132   -1.2155   -4.0737 C   0  0  0  0  0  0  0  0  0  0  0  0
    1.6544   -2.2759   -4.1514 C   0  0  0  0  0  0  0  0  0  0  0  0
    0.8615   -2.1538   -5.4494 C   0  0  0  0  0  0  0  0  0  0  0  0
    3.9896   -1.2633   -4.6383 C   0  0  0  0  0  0  0  0  0  0  0  0
    4.6176   -2.6637   -5.4952 Cl  0  0  0  0  0  0  0  0  0  0  0  0
    4.7027   -0.0632   -4.4922 C   0  0  0  0  0  0  0  0  0  0  0  0
    6.3163    0.1891   -5.1432 Cl  0  0  0  0  0  0  0  0  0  0  0  0
    5.2497    2.6921   -2.5700 C   0  0  0  0  0  0  0  0  0  0  0  0
    5.5610    4.0270   -2.2903 C   0  0  0  0  0  0  0  0  0  0  0  0
    5.0448    5.0680   -3.0925 C   0  0  0  0  0  0  0  0  0  0  0  0
    5.3249    6.4836   -2.8062 C   0  0  0  0  0  0  0  0  0  0  0  0
    6.2355    7.4917   -3.7970 S   0  0  0  0  0  0  0  0  0  0  0  0
    6.1741    8.8388   -2.7884 C   0  0  0  0  0  0  0  0  0  0  0  0
    6.8964   10.1254   -3.0460 C   0  0  0  0  0  0  0  0  0  0  0  0
    8.2767   10.1109   -2.3984 C   0  0  0  0  0  0  0  0  0  0  0  0
    5.4446    8.5074   -1.6474 C   0  0  0  0  0  0  0  0  0  0  0  0
    4.9599    7.1903   -1.6612 C   0  0  0  0  0  0  0  0  0  0  0  0
    3.9745    6.5124   -0.3717 Cl  0  0  0  0  0  0  0  0  0  0  0  0
    5.1774    9.6184   -0.3105 Cl  0  0  0  0  0  0  0  0  0  0  0  0
    4.1956    4.6951   -4.1499 C   0  0  0  0  0  0  0  0  0  0  0  0
    3.2510    5.6866   -5.1351 S   0  0  0  0  0  0  0  0  0  0  0  0
    6.3303    4.1760   -1.1250 C   0  0  0  0  0  0  0  0  0  0  0  0
    6.5803    2.9668   -0.4771 C   0  0  0  0  0  0  0  0  0  0  0  0
    5.8924    1.7061   -1.3671 S   0  0  0  0  0  0  0  0  0  0  0  0
    7.1355    2.8378    0.8776 C   0  0  0  0  0  0  0  0  0  0  0  0
    7.4910    1.6435    1.5061 C   0  0  0  0  0  0  0  0  0  0  0  0
    7.8270    1.8178    2.8597 C   0  0  0  0  0  0  0  0  0  0  0  0
    8.2024    0.8074    3.7690 C   0  0  0  0  0  0  0  0  0  0  0  0
    8.3466   -0.5977    3.3537 C   0  0  0  0  0  0  0  0  0  0  0  0
    9.5347   -1.1663    2.3087 S   0  0  0  0  0  0  0  0  0  0  0  0
    9.0454   -2.7759    2.3456 C   0  0  0  0  0  0  0  0  0  0  0  0
    9.6725   -3.8725    1.5386 C   0  0  0  0  0  0  0  0  0  0  0  0
    8.9717   -4.0158    0.1922 C   0  0  0  0  0  0  0  0  0  0  0  0
    7.9216   -2.8836    3.1637 C   0  0  0  0  0  0  0  0  0  0  0  0
    7.0578   -4.3922    3.4310 Cl  0  0  0  0  0  0  0  0  0  0  0  0
    7.5349   -1.6628    3.7367 C   0  0  0  0  0  0  0  0  0  0  0  0
    6.1286   -1.4869    4.7757 Cl  0  0  0  0  0  0  0  0  0  0  0  0
    8.4414    1.2043    5.0962 C   0  0  0  0  0  0  0  0  0  0  0  0
    8.3083    2.5283    5.5247 C   0  0  0  0  0  0  0  0  0  0  0  0
    7.9267    3.5362    4.6199 C   0  0  0  0  0  0  0  0  0  0  0  0
    7.7118    4.9296    5.0419 C   0  0  0  0  0  0  0  0  0  0  0  0
    6.2215    5.7082    5.0270 S   0  0  0  0  0  0  0  0  0  0  0  0
    6.7950    7.2006    5.5488 C   0  0  0  0  0  0  0  0  0  0  0  0
    5.9501    8.4339    5.6711 C   0  0  0  0  0  0  0  0  0  0  0  0
    5.8213    9.1323    4.3213 C   0  0  0  0  0  0  0  0  0  0  0  0
    8.1763    7.1137    5.7185 C   0  0  0  0  0  0  0  0  0  0  0  0
    8.6889    5.8352    5.4436 C   0  0  0  0  0  0  0  0  0  0  0  0
   10.3997    5.4415    5.5243 Cl  0  0  0  0  0  0  0  0  0  0  0  0
    9.1845    8.4732    6.1945 Cl  0  0  0  0  0  0  0  0  0  0  0  0
    7.7042    3.1435    3.2892 C   0  0  0  0  0  0  0  0  0  0  0  0
    7.2209    4.1011    1.9952 S   0  0  0  0  0  0  0  0  0  0  0  0
    8.5673    2.6935    6.8953 C   0  0  0  0  0  0  0  0  0  0  0  0
    8.9253    1.5078    7.5320 C   0  0  0  0  0  0  0  0  0  0  0  0
    8.9080    0.2523    6.4028 S   0  0  0  0  0  0  0  0  0  0  0  0
   -0.2135   -9.5771   11.2441 H   0  0  0  0  0  0  0  0  0  0  0  0
   -1.3519   -7.2354   11.2707 H   0  0  0  0  0  0  0  0  0  0  0  0
   -3.4744   -1.8834   12.8653 H   0  0  0  0  0  0  0  0  0  0  0  0
   -5.0327   -2.6973   12.5095 H   0  0  0  0  0  0  0  0  0  0  0  0
   -5.2154   -1.4799   10.3408 H   0  0  0  0  0  0  0  0  0  0  0  0
   -3.6046   -0.7008   10.6293 H   0  0  0  0  0  0  0  0  0  0  0  0
   -4.9978   -0.3198   11.7092 H   0  0  0  0  0  0  0  0  0  0  0  0
   -1.2217  -12.6964    2.7389 H   0  0  0  0  0  0  0  0  0  0  0  0
   -0.5461  -11.0927    2.2895 H   0  0  0  0  0  0  0  0  0  0  0  0
   -2.8183  -10.3058    1.5937 H   0  0  0  0  0  0  0  0  0  0  0  0
   -3.5094  -11.9279    2.0238 H   0  0  0  0  0  0  0  0  0  0  0  0
   -2.3056  -11.7789    0.6833 H   0  0  0  0  0  0  0  0  0  0  0  0
   -3.7951   -7.6773    4.5843 H   0  0  0  0  0  0  0  0  0  0  0  0
   -4.2971   -6.3435    2.6341 H   0  0  0  0  0  0  0  0  0  0  0  0
   -2.4088   -9.5518   -1.0866 H   0  0  0  0  0  0  0  0  0  0  0  0
   -4.1313   -9.9268   -0.7298 H   0  0  0  0  0  0  0  0  0  0  0  0
   -3.0411   -8.8361   -3.4057 H   0  0  0  0  0  0  0  0  0  0  0  0
   -4.7824   -9.1806   -3.0382 H   0  0  0  0  0  0  0  0  0  0  0  0
   -3.5747  -10.5230   -3.0690 H   0  0  0  0  0  0  0  0  0  0  0  0
   -8.8027    1.8661    5.6438 H   0  0  0  0  0  0  0  0  0  0  0  0
   -9.8698    0.4213    5.6127 H   0  0  0  0  0  0  0  0  0  0  0  0
  -10.9820    1.2200    3.5459 H   0  0  0  0  0  0  0  0  0  0  0  0
   -9.8558    2.6391    3.4584 H   0  0  0  0  0  0  0  0  0  0  0  0
  -11.0320    2.5020    4.8157 H   0  0  0  0  0  0  0  0  0  0  0  0
   -7.2617   -0.4537   -0.0053 H   0  0  0  0  0  0  0  0  0  0  0  0
   -5.8943   -1.9404   -4.4150 H   0  0  0  0  0  0  0  0  0  0  0  0
   -2.2463   -4.4729   -7.3386 H   0  0  0  0  0  0  0  0  0  0  0  0
   -2.8766   -4.4955   -9.0190 H   0  0  0  0  0  0  0  0  0  0  0  0
   -3.6581   -6.4901   -7.7605 H   0  0  0  0  0  0  0  0  0  0  0  0
   -4.3970   -5.4343   -6.4969 H   0  0  0  0  0  0  0  0  0  0  0  0
   -5.0596   -5.4376   -8.1839 H   0  0  0  0  0  0  0  0  0  0  0  0
   -5.9985    7.0558   -0.2752 H   0  0  0  0  0  0  0  0  0  0  0  0
   -5.0512    5.6879    0.4053 H   0  0  0  0  0  0  0  0  0  0  0  0
   -2.9873    6.5044   -0.7292 H   0  0  0  0  0  0  0  0  0  0  0  0
   -3.9246    7.8667   -1.4759 H   0  0  0  0  0  0  0  0  0  0  0  0
   -3.7061    7.7934    0.3119 H   0  0  0  0  0  0  0  0  0  0  0  0
   -3.5892    4.5749   -5.3690 H   0  0  0  0  0  0  0  0  0  0  0  0
    0.4287   -0.6549  -10.0358 H   0  0  0  0  0  0  0  0  0  0  0  0
   -1.2580   -0.1289   -9.8177 H   0  0  0  0  0  0  0  0  0  0  0  0
    0.6689    1.0049  -11.9505 H   0  0  0  0  0  0  0  0  0  0  0  0
   -1.0637    1.4771  -11.7113 H   0  0  0  0  0  0  0  0  0  0  0  0
   -0.6463   -0.2026  -12.2247 H   0  0  0  0  0  0  0  0  0  0  0  0
    3.5857    1.4144   -9.5260 H   0  0  0  0  0  0  0  0  0  0  0  0
    2.4702    0.3435  -10.4130 H   0  0  0  0  0  0  0  0  0  0  0  0
    3.3036    0.1172   -7.4406 H   0  0  0  0  0  0  0  0  0  0  0  0
    3.7672   -0.9844   -8.7954 H   0  0  0  0  0  0  0  0  0  0  0  0
    2.0581   -0.9326   -8.2240 H   0  0  0  0  0  0  0  0  0  0  0  0
    2.4753    2.2570   -5.6726 H   0  0  0  0  0  0  0  0  0  0  0  0
    2.1194   -3.2823   -4.0913 H   0  0  0  0  0  0  0  0  0  0  0  0
    0.9608   -2.1675   -3.2885 H   0  0  0  0  0  0  0  0  0  0  0  0
    1.5243   -2.3406   -6.3200 H   0  0  0  0  0  0  0  0  0  0  0  0
    0.4131   -1.1404   -5.5385 H   0  0  0  0  0  0  0  0  0  0  0  0
    0.0450   -2.9071   -5.4609 H   0  0  0  0  0  0  0  0  0  0  0  0
    7.0073   10.2736   -4.1416 H   0  0  0  0  0  0  0  0  0  0  0  0
    6.3065   10.9770   -2.6462 H   0  0  0  0  0  0  0  0  0  0  0  0
    8.8910    9.2829   -2.8128 H   0  0  0  0  0  0  0  0  0  0  0  0
    8.1889    9.9853   -1.2979 H   0  0  0  0  0  0  0  0  0  0  0  0
    8.7925   11.0737   -2.6056 H   0  0  0  0  0  0  0  0  0  0  0  0
    6.6441    5.1334   -0.7294 H   0  0  0  0  0  0  0  0  0  0  0  0
    7.4753    0.6825    1.0070 H   0  0  0  0  0  0  0  0  0  0  0  0
    9.6117   -4.8328    2.0941 H   0  0  0  0  0  0  0  0  0  0  0  0
   10.7468   -3.6421    1.3725 H   0  0  0  0  0  0  0  0  0  0  0  0
    9.4533   -4.8282   -0.3929 H   0  0  0  0  0  0  0  0  0  0  0  0
    7.8996   -4.2709    0.3375 H   0  0  0  0  0  0  0  0  0  0  0  0
    9.0486   -3.0687   -0.3843 H   0  0  0  0  0  0  0  0  0  0  0  0
    4.9398    8.1504    6.0360 H   0  0  0  0  0  0  0  0  0  0  0  0
    6.3962    9.1325    6.4115 H   0  0  0  0  0  0  0  0  0  0  0  0
    6.8201    9.4420    3.9482 H   0  0  0  0  0  0  0  0  0  0  0  0
    5.3460    8.4570    3.5773 H   0  0  0  0  0  0  0  0  0  0  0  0
    5.1881   10.0382    4.4322 H   0  0  0  0  0  0  0  0  0  0  0  0
    8.4991    3.6407    7.4148 H   0  0  0  0  0  0  0  0  0  0  0  0
    9.1672    1.4111    8.5840 H   0  0  0  0  0  0  0  0  0  0  0  0
  1  2  2  0
  2  3  1  0
  3  4  2  0
  4  5  1  0
  5  6  1  0
  6  7  1  0
  7  8  1  0
  8  9  1  0
  7 10  2  0
 10 11  1  0
 10 12  1  0
 12 13  1  0
  4 14  1  0
 14 15  2  0
 15 16  1  0
 16 17  1  0
 17 18  1  0
 18 19  1  0
 19 20  1  0
 20 21  1  0
 19 22  2  0
 22 23  1  0
 23 24  1  0
 22 25  1  0
 16 26  2  0
 26 27  1  0
 15 28  1  0
 28 29  2  0
 29 30  1  0
 29 31  1  0
 31 32  2  0
 32 33  1  0
 33 34  2  0
 34 35  1  0
 35 36  1  0
 36 37  1  0
 37 38  1  0
 38 39  1  0
 37 40  2  0
 40 41  1  0
 40 42  1  0
 42 43  1  0
 34 44  1  0
 44 45  2  0
 45 46  1  0
 46 47  1  0
 47 48  1  0
 48 49  1  0
 49 50  1  0
 50 51  1  0
 49 52  2  0
 52 53  1  0
 53 54  1  0
 52 55  1  0
 46 56  2  0
 56 57  1  0
 45 58  1  0
 58 59  2  0
 59 60  1  0
 59 61  1  0
 61 62  2  0
 62 63  1  0
 63 64  2  0
 64 65  1  0
 65 66  1  0
 66 67  1  0
 67 68  1  0
 68 69  1  0
 67 70  2  0
 70 71  1  0
 70 72  1  0
 72 73  1  0
 64 74  1  0
 74 75  2  0
 75 76  1  0
 76 77  1  0
 77 78  1  0
 78 79  1  0
 79 80  1  0
 80 81  1  0
 79 82  2  0
 82 83  1  0
 83 84  1  0
 82 85  1  0
 76 86  2  0
 86 87  1  0
 75 88  1  0
 88 89  2  0
 89 90  1  0
 89 91  1  0
 91 92  1  0
 92 93  2  0
 93 94  1  0
 94 95  1  0
 95 96  2  0
 96 97  1  0
 97 98  2  0
 98 99  1  0
 99100  1  0
100101  2  0
101102  1  0
102103  1  0
101104  1  0
104105  1  0
105106  1  0
104107  2  0
 97108  1  0
108109  2  0
109110  1  0
110111  2  0
111112  1  0
112113  1  0
113114  1  0
114115  1  0
115116  1  0
114117  2  0
117118  1  0
117119  1  0
119120  1  0
111121  1  0
121122  2  0
122123  1  0
123124  1  0
124125  1  0
125126  1  0
126127  1  0
127128  1  0
126129  2  0
129130  1  0
130131  1  0
129132  1  0
123133  2  0
133134  1  0
122135  1  0
135136  2  0
136137  1  0
136138  1  0
138139  2  0
139140  1  0
140141  2  0
141142  1  0
142143  1  0
143144  1  0
144145  1  0
145146  1  0
144147  2  0
147148  1  0
147149  1  0
149150  1  0
141151  1  0
151152  2  0
152153  1  0
153154  1  0
154155  1  0
155156  1  0
156157  1  0
157158  1  0
156159  2  0
159160  1  0
160161  1  0
159162  1  0
153163  2  0
163164  1  0
152165  1  0
165166  2  0
166167  1  0
 27  1  1  0
 57 31  1  0
 87 61  1  0
 99 91  2  0
134108  1  0
164138  1  0
 26  3  1  0
 56 33  1  0
 86 63  1  0
 96 92  1  0
107 98  1  0
133110  1  0
163140  1  0
 12  5  2  0
 30 14  1  0
 42 35  2  0
 60 44  1  0
 72 65  2  0
 90 74  1  0
119112  2  0
137121  1  0
149142  2  0
167151  1  0
 23 17  2  0
 53 47  2  0
 83 77  2  0
130124  2  0
160154  2  0
  1168  1  0
  2169  1  0
  8170  1  0
  8171  1  0
  9172  1  0
  9173  1  0
  9174  1  0
 20175  1  0
 20176  1  0
 21177  1  0
 21178  1  0
 21179  1  0
 28180  1  0
 32181  1  0
 38182  1  0
 38183  1  0
 39184  1  0
 39185  1  0
 39186  1  0
 50187  1  0
 50188  1  0
 51189  1  0
 51190  1  0
 51191  1  0
 58192  1  0
 62193  1  0
 68194  1  0
 68195  1  0
 69196  1  0
 69197  1  0
 69198  1  0
 80199  1  0
 80200  1  0
 81201  1  0
 81202  1  0
 81203  1  0
 88204  1  0
102205  1  0
102206  1  0
103207  1  0
103208  1  0
103209  1  0
105210  1  0
105211  1  0
106212  1  0
106213  1  0
106214  1  0
109215  1  0
115216  1  0
115217  1  0
116218  1  0
116219  1  0
116220  1  0
127221  1  0
127222  1  0
128223  1  0
128224  1  0
128225  1  0
135226  1  0
139227  1  0
145228  1  0
145229  1  0
146230  1  0
146231  1  0
146232  1  0
157233  1  0
157234  1  0
158235  1  0
158236  1  0
158237  1  0
165238  1  0
166239  1  0
M  END

