
     RDKit          3D

246269  0  0  0  0  0  0  0  0999 V2000
   -2.3453    2.2528   12.4892 C   0  0  0  0  0  0  0  0  0  0  0  0
   -3.5311    1.3837   11.6700 S   0  0  0  0  0  0  0  0  0  0  0  0
   -3.4112    2.1898   10.1914 C   0  0  0  0  0  0  0  0  0  0  0  0
   -2.4168    3.1646   10.3301 C   0  0  0  0  0  0  0  0  0  0  0  0
   -1.8202    3.1812   11.6004 C   0  0  0  0  0  0  0  0  0  0  0  0
   -0.7604    4.0463   11.8873 C   0  0  0  0  0  0  0  0  0  0  0  0
   -0.2736    4.9126   10.8811 C   0  0  0  0  0  0  0  0  0  0  0  0
    0.9004    5.8013   11.1187 C   0  0  0  0  0  0  0  0  0  0  0  0
    1.3026    6.5561   10.1885 O   0  0  0  0  0  0  0  0  0  0  0  0
    1.6459    5.8283   12.4272 C   0  0  0  0  0  0  0  0  0  0  0  0
    0.7955    6.2260   13.4432 F   0  0  0  0  0  0  0  0  0  0  0  0
    2.7053    6.7190   12.3641 F   0  0  0  0  0  0  0  0  0  0  0  0
    2.1490    4.5718   12.7092 F   0  0  0  0  0  0  0  0  0  0  0  0
   -0.9019    4.9078    9.6142 C   0  0  0  0  0  0  0  0  0  0  0  0
   -1.9637    4.0374    9.3330 C   0  0  0  0  0  0  0  0  0  0  0  0
   -4.1470    1.8521    8.9555 C   0  0  0  0  0  0  0  0  0  0  0  0
   -4.6693    0.6382    8.7417 C   0  0  0  0  0  0  0  0  0  0  0  0
   -5.1976    0.2424    7.4241 C   0  0  0  0  0  0  0  0  0  0  0  0
   -5.2806   -1.0737    6.9662 C   0  0  0  0  0  0  0  0  0  0  0  0
   -5.5784   -1.1600    5.5912 C   0  0  0  0  0  0  0  0  0  0  0  0
   -5.5746   -2.3325    4.7990 C   0  0  0  0  0  0  0  0  0  0  0  0
   -5.4085   -3.6775    5.3884 C   0  0  0  0  0  0  0  0  0  0  0  0
   -4.1960   -4.0558    5.9859 C   0  0  0  0  0  0  0  0  0  0  0  0
   -4.0808   -5.3035    6.6103 C   0  0  0  0  0  0  0  0  0  0  0  0
   -5.1735   -6.1800    6.6419 C   0  0  0  0  0  0  0  0  0  0  0  0
   -5.0594   -7.7192    7.5643 S   0  0  0  0  0  0  0  0  0  0  0  0
   -4.7649   -8.7910    6.1145 C   0  0  0  0  0  0  0  0  0  0  0  0
   -3.2971   -8.7809    5.7072 C   0  0  0  0  0  0  0  0  0  0  0  0
   -6.3788   -5.8097    6.0275 C   0  0  0  0  0  0  0  0  0  0  0  0
   -7.4469   -6.6449    6.0543 F   0  0  0  0  0  0  0  0  0  0  0  0
   -6.4899   -4.5711    5.3899 C   0  0  0  0  0  0  0  0  0  0  0  0
   -5.7342   -2.1587    3.4104 C   0  0  0  0  0  0  0  0  0  0  0  0
   -5.9606   -0.9062    2.8323 C   0  0  0  0  0  0  0  0  0  0  0  0
   -5.9943    0.2559    3.6235 C   0  0  0  0  0  0  0  0  0  0  0  0
   -6.0559    1.6067    3.0294 C   0  0  0  0  0  0  0  0  0  0  0  0
   -5.0249    2.0515    2.1867 C   0  0  0  0  0  0  0  0  0  0  0  0
   -5.0817    3.3250    1.6180 C   0  0  0  0  0  0  0  0  0  0  0  0
   -6.1574    4.1730    1.8989 C   0  0  0  0  0  0  0  0  0  0  0  0
   -6.2159    5.8053    1.1557 S   0  0  0  0  0  0  0  0  0  0  0  0
   -5.2697    6.5796    2.5075 C   0  0  0  0  0  0  0  0  0  0  0  0
   -5.0002    8.0405    2.1834 C   0  0  0  0  0  0  0  0  0  0  0  0
   -7.1823    3.7417    2.7546 C   0  0  0  0  0  0  0  0  0  0  0  0
   -7.1279    2.4637    3.3200 C   0  0  0  0  0  0  0  0  0  0  0  0
   -8.2312    4.5548    3.0327 F   0  0  0  0  0  0  0  0  0  0  0  0
   -5.7875    0.0907    5.0005 C   0  0  0  0  0  0  0  0  0  0  0  0
   -5.5493    1.2931    6.1489 S   0  0  0  0  0  0  0  0  0  0  0  0
   -5.9852   -0.9389    1.4340 C   0  0  0  0  0  0  0  0  0  0  0  0
   -5.6895   -2.1904    0.9074 C   0  0  0  0  0  0  0  0  0  0  0  0
   -5.4475   -3.2766    2.1804 S   0  0  0  0  0  0  0  0  0  0  0  0
   -5.1165   -2.3212   -0.4328 C   0  0  0  0  0  0  0  0  0  0  0  0
   -3.7635   -2.0728   -0.6552 C   0  0  0  0  0  0  0  0  0  0  0  0
   -3.4929   -1.5551   -1.9317 C   0  0  0  0  0  0  0  0  0  0  0  0
   -2.2664   -1.0113   -2.3543 C   0  0  0  0  0  0  0  0  0  0  0  0
   -1.0660   -1.0032   -1.4873 C   0  0  0  0  0  0  0  0  0  0  0  0
   -0.4389   -2.2046   -1.1270 C   0  0  0  0  0  0  0  0  0  0  0  0
    0.6917   -2.1881   -0.3058 C   0  0  0  0  0  0  0  0  0  0  0  0
    1.2092   -0.9729    0.1564 C   0  0  0  0  0  0  0  0  0  0  0  0
    2.6222   -0.9570    1.2584 S   0  0  0  0  0  0  0  0  0  0  0  0
    1.5916   -1.1274    2.7513 C   0  0  0  0  0  0  0  0  0  0  0  0
    2.4743   -1.1763    3.9887 C   0  0  0  0  0  0  0  0  0  0  0  0
    0.5999    0.2310   -0.2186 C   0  0  0  0  0  0  0  0  0  0  0  0
    1.0973    1.4166    0.2161 F   0  0  0  0  0  0  0  0  0  0  0  0
   -0.5356    0.2136   -1.0319 C   0  0  0  0  0  0  0  0  0  0  0  0
   -2.2652   -0.3354   -3.5802 C   0  0  0  0  0  0  0  0  0  0  0  0
   -3.3993   -0.1894   -4.3789 C   0  0  0  0  0  0  0  0  0  0  0  0
   -4.6193   -0.7763   -3.9782 C   0  0  0  0  0  0  0  0  0  0  0  0
   -5.8244   -0.7490   -4.8339 C   0  0  0  0  0  0  0  0  0  0  0  0
   -6.3278   -1.9517   -5.3548 C   0  0  0  0  0  0  0  0  0  0  0  0
   -7.4220   -1.9396   -6.2268 C   0  0  0  0  0  0  0  0  0  0  0  0
   -8.0200   -0.7266   -6.5858 C   0  0  0  0  0  0  0  0  0  0  0  0
   -9.3990   -0.7170   -7.7376 S   0  0  0  0  0  0  0  0  0  0  0  0
   -8.3711   -0.4480   -9.2270 C   0  0  0  0  0  0  0  0  0  0  0  0
   -7.8405   -1.7678   -9.7692 C   0  0  0  0  0  0  0  0  0  0  0  0
   -7.5441    0.4729   -6.0392 C   0  0  0  0  0  0  0  0  0  0  0  0
   -6.4475    0.4621   -5.1692 C   0  0  0  0  0  0  0  0  0  0  0  0
   -8.1270    1.6527   -6.3657 F   0  0  0  0  0  0  0  0  0  0  0  0
   -4.6295   -1.4367   -2.7322 C   0  0  0  0  0  0  0  0  0  0  0  0
   -5.9693   -1.9188   -1.8348 S   0  0  0  0  0  0  0  0  0  0  0  0
   -3.1750    0.6194   -5.5160 C   0  0  0  0  0  0  0  0  0  0  0  0
   -1.8554    1.0811   -5.6053 C   0  0  0  0  0  0  0  0  0  0  0  0
   -0.9973    0.4945   -4.2790 S   0  0  0  0  0  0  0  0  0  0  0  0
   -1.2581    2.0632   -6.5368 C   0  0  0  0  0  0  0  0  0  0  0  0
    0.1334    2.9162   -6.1288 S   0  0  0  0  0  0  0  0  0  0  0  0
    0.3811    3.7090   -7.5842 C   0  0  0  0  0  0  0  0  0  0  0  0
   -0.7021    3.3820   -8.4081 C   0  0  0  0  0  0  0  0  0  0  0  0
   -1.6008    2.4403   -7.8453 C   0  0  0  0  0  0  0  0  0  0  0  0
   -2.6868    1.9762   -8.5989 C   0  0  0  0  0  0  0  0  0  0  0  0
   -2.9451    2.5198   -9.8756 C   0  0  0  0  0  0  0  0  0  0  0  0
   -4.1471    2.0774  -10.6366 C   0  0  0  0  0  0  0  0  0  0  0  0
   -4.7224    1.0020  -10.3161 O   0  0  0  0  0  0  0  0  0  0  0  0
   -4.6975    2.8666  -11.7952 C   0  0  0  0  0  0  0  0  0  0  0  0
   -4.8029    4.2040  -11.4564 F   0  0  0  0  0  0  0  0  0  0  0  0
   -5.9558    2.4006  -12.1402 F   0  0  0  0  0  0  0  0  0  0  0  0
   -3.8627    2.7321  -12.8878 F   0  0  0  0  0  0  0  0  0  0  0  0
   -2.0589    3.4854  -10.4051 C   0  0  0  0  0  0  0  0  0  0  0  0
   -0.9293    3.8978   -9.6865 C   0  0  0  0  0  0  0  0  0  0  0  0
    1.5037    4.6299   -7.8873 C   0  0  0  0  0  0  0  0  0  0  0  0
    2.7359    4.5565   -7.3480 C   0  0  0  0  0  0  0  0  0  0  0  0
    3.2311    3.4461   -6.5157 C   0  0  0  0  0  0  0  0  0  0  0  0
    3.8408    3.5962   -5.2723 C   0  0  0  0  0  0  0  0  0  0  0  0
    4.1111    2.3677   -4.6422 C   0  0  0  0  0  0  0  0  0  0  0  0
    4.6534    2.1888   -3.3519 C   0  0  0  0  0  0  0  0  0  0  0  0
    5.0306    3.3288   -2.4902 C   0  0  0  0  0  0  0  0  0  0  0  0
    6.0415    4.2203   -2.8845 C   0  0  0  0  0  0  0  0  0  0  0  0
    6.3746    5.3093   -2.0741 C   0  0  0  0  0  0  0  0  0  0  0  0
    5.7024    5.5193   -0.8640 C   0  0  0  0  0  0  0  0  0  0  0  0
    6.1197    6.9374    0.1596 S   0  0  0  0  0  0  0  0  0  0  0  0
    4.7840    8.0025   -0.4937 C   0  0  0  0  0  0  0  0  0  0  0  0
    5.1863    8.6359   -1.8193 C   0  0  0  0  0  0  0  0  0  0  0  0
    4.7108    4.6179   -0.4535 C   0  0  0  0  0  0  0  0  0  0  0  0
    4.0625    4.8030    0.7237 F   0  0  0  0  0  0  0  0  0  0  0  0
    4.3716    3.5334   -1.2676 C   0  0  0  0  0  0  0  0  0  0  0  0
    4.7562    0.8644   -2.8852 C   0  0  0  0  0  0  0  0  0  0  0  0
    4.2978   -0.2349   -3.6210 C   0  0  0  0  0  0  0  0  0  0  0  0
    3.7735   -0.0588   -4.9175 C   0  0  0  0  0  0  0  0  0  0  0  0
    3.2284   -1.1904   -5.7002 C   0  0  0  0  0  0  0  0  0  0  0  0
    4.0357   -2.2881   -6.0330 C   0  0  0  0  0  0  0  0  0  0  0  0
    3.4956   -3.3760   -6.7244 C   0  0  0  0  0  0  0  0  0  0  0  0
    2.1453   -3.3723   -7.0965 C   0  0  0  0  0  0  0  0  0  0  0  0
    1.4545   -4.7947   -7.9500 S   0  0  0  0  0  0  0  0  0  0  0  0
    1.9568   -4.2498   -9.6202 C   0  0  0  0  0  0  0  0  0  0  0  0
    0.9779   -3.2274  -10.1828 C   0  0  0  0  0  0  0  0  0  0  0  0
    1.3346   -2.2781   -6.7694 C   0  0  0  0  0  0  0  0  0  0  0  0
    1.8781   -1.1906   -6.0824 C   0  0  0  0  0  0  0  0  0  0  0  0
    0.0195   -2.2668   -7.1022 F   0  0  0  0  0  0  0  0  0  0  0  0
    3.7153    1.2619   -5.4050 C   0  0  0  0  0  0  0  0  0  0  0  0
    3.0927    1.8000   -6.8750 S   0  0  0  0  0  0  0  0  0  0  0  0
    4.3955   -1.4477   -2.9169 C   0  0  0  0  0  0  0  0  0  0  0  0
    4.9965   -1.2998   -1.6701 C   0  0  0  0  0  0  0  0  0  0  0  0
    5.3629    0.3255   -1.4098 S   0  0  0  0  0  0  0  0  0  0  0  0
    5.2221   -2.3742   -0.6994 C   0  0  0  0  0  0  0  0  0  0  0  0
    6.2993   -2.4565    0.1761 C   0  0  0  0  0  0  0  0  0  0  0  0
    6.2329   -3.5740    1.0256 C   0  0  0  0  0  0  0  0  0  0  0  0
    7.1827   -3.9419    2.0038 C   0  0  0  0  0  0  0  0  0  0  0  0
    8.4671   -3.2192    2.1701 C   0  0  0  0  0  0  0  0  0  0  0  0
    8.8357   -2.7020    3.4221 C   0  0  0  0  0  0  0  0  0  0  0  0
   10.0585   -2.0456    3.5849 C   0  0  0  0  0  0  0  0  0  0  0  0
   10.9307   -1.9088    2.4998 C   0  0  0  0  0  0  0  0  0  0  0  0
   12.5061   -1.0718    2.7230 S   0  0  0  0  0  0  0  0  0  0  0  0
   13.3816   -2.5327    3.3894 C   0  0  0  0  0  0  0  0  0  0  0  0
   13.7800   -3.4964    2.2781 C   0  0  0  0  0  0  0  0  0  0  0  0
   10.5641   -2.4061    1.2422 C   0  0  0  0  0  0  0  0  0  0  0  0
   11.3860   -2.2534    0.1735 F   0  0  0  0  0  0  0  0  0  0  0  0
    9.3410   -3.0656    1.0822 C   0  0  0  0  0  0  0  0  0  0  0  0
    6.8748   -5.0689    2.7885 C   0  0  0  0  0  0  0  0  0  0  0  0
    5.6862   -5.7918    2.6427 C   0  0  0  0  0  0  0  0  0  0  0  0
    4.7322   -5.4194    1.6704 C   0  0  0  0  0  0  0  0  0  0  0  0
    3.4007   -6.0660    1.5887 C   0  0  0  0  0  0  0  0  0  0  0  0
    2.5620   -6.0887    2.7159 C   0  0  0  0  0  0  0  0  0  0  0  0
    1.2932   -6.6649    2.6408 C   0  0  0  0  0  0  0  0  0  0  0  0
    0.8343   -7.2053    1.4341 C   0  0  0  0  0  0  0  0  0  0  0  0
   -0.8035   -7.9373    1.3523 S   0  0  0  0  0  0  0  0  0  0  0  0
   -1.6900   -6.3567    1.1061 C   0  0  0  0  0  0  0  0  0  0  0  0
   -1.5533   -5.8610   -0.3266 C   0  0  0  0  0  0  0  0  0  0  0  0
    1.6687   -7.1903    0.3058 C   0  0  0  0  0  0  0  0  0  0  0  0
    2.9444   -6.6228    0.3840 C   0  0  0  0  0  0  0  0  0  0  0  0
    1.2445   -7.7286   -0.8671 F   0  0  0  0  0  0  0  0  0  0  0  0
    5.0633   -4.3263    0.8474 C   0  0  0  0  0  0  0  0  0  0  0  0
    4.1623   -3.6526   -0.4056 S   0  0  0  0  0  0  0  0  0  0  0  0
    5.6017   -6.8930    3.5125 C   0  0  0  0  0  0  0  0  0  0  0  0
    6.7171   -7.0333    4.3341 C   0  0  0  0  0  0  0  0  0  0  0  0
    7.8106   -5.8020    3.9794 S   0  0  0  0  0  0  0  0  0  0  0  0
   -2.0291    2.0919   13.5101 H   0  0  0  0  0  0  0  0  0  0  0  0
   -0.3142    4.0192   12.8706 H   0  0  0  0  0  0  0  0  0  0  0  0
   -0.5615    5.5672    8.8274 H   0  0  0  0  0  0  0  0  0  0  0  0
   -2.4077    4.0511    8.3479 H   0  0  0  0  0  0  0  0  0  0  0  0
   -4.1637    2.5870    8.1626 H   0  0  0  0  0  0  0  0  0  0  0  0
   -4.5929   -0.1265    9.5052 H   0  0  0  0  0  0  0  0  0  0  0  0
   -5.0526   -1.9265    7.5901 H   0  0  0  0  0  0  0  0  0  0  0  0
   -3.3507   -3.3794    5.9870 H   0  0  0  0  0  0  0  0  0  0  0  0
   -3.1514   -5.5776    7.0918 H   0  0  0  0  0  0  0  0  0  0  0  0
   -5.0475   -9.8277    6.3952 H   0  0  0  0  0  0  0  0  0  0  0  0
   -5.4039   -8.4845    5.2577 H   0  0  0  0  0  0  0  0  0  0  0  0
   -3.0088   -7.7828    5.3154 H   0  0  0  0  0  0  0  0  0  0  0  0
   -2.6557   -9.0427    6.5766 H   0  0  0  0  0  0  0  0  0  0  0  0
   -3.1372   -9.5372    4.9090 H   0  0  0  0  0  0  0  0  0  0  0  0
   -7.4267   -4.2885    4.9290 H   0  0  0  0  0  0  0  0  0  0  0  0
   -4.1826    1.4086    1.9642 H   0  0  0  0  0  0  0  0  0  0  0  0
   -4.2838    3.6546    0.9627 H   0  0  0  0  0  0  0  0  0  0  0  0
   -5.8497    6.5102    3.4523 H   0  0  0  0  0  0  0  0  0  0  0  0
   -4.3026    6.0486    2.6385 H   0  0  0  0  0  0  0  0  0  0  0  0
   -5.9592    8.5878    2.0588 H   0  0  0  0  0  0  0  0  0  0  0  0
   -4.4037    8.1226    1.2491 H   0  0  0  0  0  0  0  0  0  0  0  0
   -4.4291    8.5061    3.0129 H   0  0  0  0  0  0  0  0  0  0  0  0
   -7.9260    2.1375    3.9762 H   0  0  0  0  0  0  0  0  0  0  0  0
   -6.0788   -0.0574    0.8123 H   0  0  0  0  0  0  0  0  0  0  0  0
   -3.0260   -2.0976    0.1398 H   0  0  0  0  0  0  0  0  0  0  0  0
   -0.8260   -3.1474   -1.4871 H   0  0  0  0  0  0  0  0  0  0  0  0
    1.1571   -3.1248   -0.0192 H   0  0  0  0  0  0  0  0  0  0  0  0
    0.8976   -0.2641    2.8222 H   0  0  0  0  0  0  0  0  0  0  0  0
    1.0000   -2.0642    2.6877 H   0  0  0  0  0  0  0  0  0  0  0  0
    1.8382   -1.2775    4.8913 H   0  0  0  0  0  0  0  0  0  0  0  0
    3.1618   -2.0473    3.9318 H   0  0  0  0  0  0  0  0  0  0  0  0
    3.0688   -0.2407    4.0732 H   0  0  0  0  0  0  0  0  0  0  0  0
   -1.0044    1.1515   -1.3031 H   0  0  0  0  0  0  0  0  0  0  0  0
   -5.8592   -2.8964   -5.1081 H   0  0  0  0  0  0  0  0  0  0  0  0
   -7.7914   -2.8735   -6.6326 H   0  0  0  0  0  0  0  0  0  0  0  0
   -7.5298    0.2420   -9.0061 H   0  0  0  0  0  0  0  0  0  0  0  0
   -9.0040    0.0287  -10.0045 H   0  0  0  0  0  0  0  0  0  0  0  0
   -8.6828   -2.4644   -9.9673 H   0  0  0  0  0  0  0  0  0  0  0  0
   -7.1407   -2.2309   -9.0451 H   0  0  0  0  0  0  0  0  0  0  0  0
   -7.2953   -1.5858  -10.7185 H   0  0  0  0  0  0  0  0  0  0  0  0
   -6.0722    1.3943   -4.7718 H   0  0  0  0  0  0  0  0  0  0  0  0
   -3.9632    0.9157   -6.1886 H   0  0  0  0  0  0  0  0  0  0  0  0
   -3.3302    1.2088   -8.2119 H   0  0  0  0  0  0  0  0  0  0  0  0
   -2.2258    3.9210  -11.3810 H   0  0  0  0  0  0  0  0  0  0  0  0
   -0.2587    4.6251  -10.1217 H   0  0  0  0  0  0  0  0  0  0  0  0
    1.3045    5.4590   -8.5540 H   0  0  0  0  0  0  0  0  0  0  0  0
    3.4214    5.3718   -7.5335 H   0  0  0  0  0  0  0  0  0  0  0  0
    4.0270    4.5637   -4.8234 H   0  0  0  0  0  0  0  0  0  0  0  0
    6.5693    4.0690   -3.8163 H   0  0  0  0  0  0  0  0  0  0  0  0
    7.1559    5.9907   -2.3865 H   0  0  0  0  0  0  0  0  0  0  0  0
    3.8455    7.4203   -0.6170 H   0  0  0  0  0  0  0  0  0  0  0  0
    4.5861    8.8081    0.2444 H   0  0  0  0  0  0  0  0  0  0  0  0
    6.1476    9.1802   -1.7047 H   0  0  0  0  0  0  0  0  0  0  0  0
    5.2880    7.8615   -2.6059 H   0  0  0  0  0  0  0  0  0  0  0  0
    4.4052    9.3556   -2.1389 H   0  0  0  0  0  0  0  0  0  0  0  0
    3.5847    2.8600   -0.9500 H   0  0  0  0  0  0  0  0  0  0  0  0
    5.0814   -2.3058   -5.7509 H   0  0  0  0  0  0  0  0  0  0  0  0
    4.1232   -4.2229   -6.9681 H   0  0  0  0  0  0  0  0  0  0  0  0
    1.9653   -5.1403  -10.2817 H   0  0  0  0  0  0  0  0  0  0  0  0
    2.9846   -3.8273   -9.6035 H   0  0  0  0  0  0  0  0  0  0  0  0
    1.2296   -3.0181  -11.2429 H   0  0  0  0  0  0  0  0  0  0  0  0
    1.0422   -2.2766   -9.6171 H   0  0  0  0  0  0  0  0  0  0  0  0
   -0.0604   -3.6198  -10.1339 H   0  0  0  0  0  0  0  0  0  0  0  0
    1.2438   -0.3502   -5.8346 H   0  0  0  0  0  0  0  0  0  0  0  0
    4.0485   -2.4029   -3.2890 H   0  0  0  0  0  0  0  0  0  0  0  0
    7.0968   -1.7247    0.1978 H   0  0  0  0  0  0  0  0  0  0  0  0
    8.1743   -2.8057    4.2726 H   0  0  0  0  0  0  0  0  0  0  0  0
   10.3334   -1.6571    4.5573 H   0  0  0  0  0  0  0  0  0  0  0  0
   14.3004   -2.1805    3.9044 H   0  0  0  0  0  0  0  0  0  0  0  0
   12.7523   -3.0576    4.1411 H   0  0  0  0  0  0  0  0  0  0  0  0
   12.8814   -3.9432    1.8067 H   0  0  0  0  0  0  0  0  0  0  0  0
   14.3779   -2.9670    1.5056 H   0  0  0  0  0  0  0  0  0  0  0  0
   14.3963   -4.3166    2.7048 H   0  0  0  0  0  0  0  0  0  0  0  0
    9.0766   -3.4579    0.1097 H   0  0  0  0  0  0  0  0  0  0  0  0
    2.8903   -5.6502    3.6483 H   0  0  0  0  0  0  0  0  0  0  0  0
    0.6596   -6.6816    3.5197 H   0  0  0  0  0  0  0  0  0  0  0  0
   -2.7647   -6.5285    1.3238 H   0  0  0  0  0  0  0  0  0  0  0  0
   -1.3153   -5.5864    1.8130 H   0  0  0  0  0  0  0  0  0  0  0  0
   -2.2048   -4.9754   -0.4727 H   0  0  0  0  0  0  0  0  0  0  0  0
   -0.5048   -5.5672   -0.5363 H   0  0  0  0  0  0  0  0  0  0  0  0
   -1.8658   -6.6537   -1.0384 H   0  0  0  0  0  0  0  0  0  0  0  0
    3.5785   -6.6205   -0.4945 H   0  0  0  0  0  0  0  0  0  0  0  0
    4.7715   -7.5876    3.5379 H   0  0  0  0  0  0  0  0  0  0  0  0
    6.8598   -7.8122    5.0694 H   0  0  0  0  0  0  0  0  0  0  0  0
  1  2  1  0
  2  3  1  0
  3  4  2  0
  4  5  1  0
  5  6  1  0
  6  7  2  0
  7  8  1  0
  8  9  2  0
  8 10  1  0
 10 11  1  0
 10 12  1  0
 10 13  1  0
  7 14  1  0
 14 15  2  0
  3 16  1  0
 16 17  2  3
 17 18  1  0
 18 19  2  0
 19 20  1  0
 20 21  2  0
 21 22  1  0
 22 23  2  0
 23 24  1  0
 24 25  2  0
 25 26  1  0
 26 27  1  0
 27 28  1  0
 25 29  1  0
 29 30  1  0
 29 31  2  0
 21 32  1  0
 32 33  2  0
 33 34  1  0
 34 35  1  0
 35 36  2  0
 36 37  1  0
 37 38  2  0
 38 39  1  0
 39 40  1  0
 40 41  1  0
 38 42  1  0
 42 43  2  0
 42 44  1  0
 34 45  2  0
 45 46  1  0
 33 47  1  0
 47 48  2  0
 48 49  1  0
 48 50  1  0
 50 51  2  0
 51 52  1  0
 52 53  2  0
 53 54  1  0
 54 55  2  0
 55 56  1  0
 56 57  2  0
 57 58  1  0
 58 59  1  0
 59 60  1  0
 57 61  1  0
 61 62  1  0
 61 63  2  0
 53 64  1  0
 64 65  2  0
 65 66  1  0
 66 67  1  0
 67 68  2  0
 68 69  1  0
 69 70  2  0
 70 71  1  0
 71 72  1  0
 72 73  1  0
 70 74  1  0
 74 75  2  0
 74 76  1  0
 66 77  2  0
 77 78  1  0
 65 79  1  0
 79 80  2  0
 80 81  1  0
 80 82  1  0
 82 83  1  0
 83 84  1  0
 84 85  2  0
 85 86  1  0
 86 87  1  0
 87 88  2  0
 88 89  1  0
 89 90  2  0
 89 91  1  0
 91 92  1  0
 91 93  1  0
 91 94  1  0
 88 95  1  0
 95 96  2  0
 84 97  1  0
 97 98  2  3
 98 99  1  0
 99100  2  0
100101  1  0
101102  2  0
102103  1  0
103104  2  0
104105  1  0
105106  2  0
106107  1  0
107108  1  0
108109  1  0
106110  1  0
110111  1  0
110112  2  0
102113  1  0
113114  2  0
114115  1  0
115116  1  0
116117  2  0
117118  1  0
118119  2  0
119120  1  0
120121  1  0
121122  1  0
119123  1  0
123124  2  0
123125  1  0
115126  2  0
126127  1  0
114128  1  0
128129  2  0
129130  1  0
129131  1  0
131132  2  0
132133  1  0
133134  2  0
134135  1  0
135136  2  0
136137  1  0
137138  2  0
138139  1  0
139140  1  0
140141  1  0
138142  1  0
142143  1  0
142144  2  0
134145  1  0
145146  2  0
146147  1  0
147148  1  0
148149  2  0
149150  1  0
150151  2  0
151152  1  0
152153  1  0
153154  1  0
151155  1  0
155156  2  0
155157  1  0
147158  2  0
158159  1  0
146160  1  0
160161  2  0
161162  1  0
  5  1  2  0
 46 18  1  0
 78 50  1  0
 86 82  2  0
127 99  1  0
159131  1  0
 15  4  1  0
 45 20  1  0
 77 52  1  0
 96 85  1  0
126101  1  0
158133  1  0
 31 22  1  0
 49 32  1  0
 63 54  1  0
 81 64  1  0
112103  1  0
130113  1  0
144135  1  0
162145  1  0
 43 35  1  0
 75 67  1  0
124116  1  0
156148  1  0
  1163  1  0
  6164  1  0
 14165  1  0
 15166  1  0
 16167  1  0
 17168  1  0
 19169  1  0
 23170  1  0
 24171  1  0
 27172  1  0
 27173  1  0
 28174  1  0
 28175  1  0
 28176  1  0
 31177  1  0
 36178  1  0
 37179  1  0
 40180  1  0
 40181  1  0
 41182  1  0
 41183  1  0
 41184  1  0
 43185  1  0
 47186  1  0
 51187  1  0
 55188  1  0
 56189  1  0
 59190  1  0
 59191  1  0
 60192  1  0
 60193  1  0
 60194  1  0
 63195  1  0
 68196  1  0
 69197  1  0
 72198  1  0
 72199  1  0
 73200  1  0
 73201  1  0
 73202  1  0
 75203  1  0
 79204  1  0
 87205  1  0
 95206  1  0
 96207  1  0
 97208  1  0
 98209  1  0
100210  1  0
104211  1  0
105212  1  0
108213  1  0
108214  1  0
109215  1  0
109216  1  0
109217  1  0
112218  1  0
117219  1  0
118220  1  0
121221  1  0
121222  1  0
122223  1  0
122224  1  0
122225  1  0
124226  1  0
128227  1  0
132228  1  0
136229  1  0
137230  1  0
140231  1  0
140232  1  0
141233  1  0
141234  1  0
141235  1  0
144236  1  0
149237  1  0
150238  1  0
153239  1  0
153240  1  0
154241  1  0
154242  1  0
154243  1  0
156244  1  0
160245  1  0
161246  1  0
M  END

