
     RDKit          3D

157173  0  0  0  0  0  0  0  0999 V2000
    3.9637    9.8218   12.0296 C   0  0  0  0  0  0  0  0  0  0  0  0
    3.8895    8.4523   12.2588 C   0  0  0  0  0  0  0  0  0  0  0  0
    3.2428    7.7483   11.2264 C   0  0  0  0  0  0  0  0  0  0  0  0
    3.0156    6.3550   11.1729 C   0  0  0  0  0  0  0  0  0  0  0  0
    3.4617    5.4221   12.2774 C   0  0  0  0  0  0  0  0  0  0  0  0
    2.4189    5.3536   13.3866 C   0  0  0  0  0  0  0  0  0  0  0  0
    2.3055    5.8766   10.0544 C   0  0  0  0  0  0  0  0  0  0  0  0
    1.8760    6.7099    9.0136 C   0  0  0  0  0  0  0  0  0  0  0  0
    2.1346    8.0978    9.0507 C   0  0  0  0  0  0  0  0  0  0  0  0
    1.6688    9.0366    7.9604 C   0  0  0  0  0  0  0  0  0  0  0  0
    0.2208    9.4577    8.1897 C   0  0  0  0  0  0  0  0  0  0  0  0
    2.8087    8.5803   10.1888 C   0  0  0  0  0  0  0  0  0  0  0  0
    3.2268   10.1688   10.5557 S   0  0  0  0  0  0  0  0  0  0  0  0
    1.1971    6.0157    7.9970 C   0  0  0  0  0  0  0  0  0  0  0  0
    1.0961    4.6466    8.2440 C   0  0  0  0  0  0  0  0  0  0  0  0
    1.8404    4.2958    9.7181 S   0  0  0  0  0  0  0  0  0  0  0  0
    0.4858    3.6473    7.3509 C   0  0  0  0  0  0  0  0  0  0  0  0
    0.0872    3.8608    6.0312 C   0  0  0  0  0  0  0  0  0  0  0  0
   -0.3926    2.6974    5.4044 C   0  0  0  0  0  0  0  0  0  0  0  0
   -0.8315    2.5867    4.0662 C   0  0  0  0  0  0  0  0  0  0  0  0
   -0.8398    3.7649    3.1196 C   0  0  0  0  0  0  0  0  0  0  0  0
    0.5254    3.9454    2.4640 C   0  0  0  0  0  0  0  0  0  0  0  0
   -1.1982    1.2998    3.6300 C   0  0  0  0  0  0  0  0  0  0  0  0
   -1.1816    0.1779    4.4686 C   0  0  0  0  0  0  0  0  0  0  0  0
   -0.7578    0.2917    5.8111 C   0  0  0  0  0  0  0  0  0  0  0  0
   -0.7432   -0.8889    6.7574 C   0  0  0  0  0  0  0  0  0  0  0  0
   -2.1118   -1.0792    7.4031 C   0  0  0  0  0  0  0  0  0  0  0  0
   -0.3706    1.5755    6.2424 C   0  0  0  0  0  0  0  0  0  0  0  0
    0.2389    2.0261    7.7451 S   0  0  0  0  0  0  0  0  0  0  0  0
   -1.5642   -1.0051    3.8109 C   0  0  0  0  0  0  0  0  0  0  0  0
   -1.8432   -0.8133    2.4570 C   0  0  0  0  0  0  0  0  0  0  0  0
   -1.6462    0.8198    2.0804 S   0  0  0  0  0  0  0  0  0  0  0  0
   -2.1083   -1.8760    1.4702 C   0  0  0  0  0  0  0  0  0  0  0  0
   -2.2353   -3.2379    1.7468 C   0  0  0  0  0  0  0  0  0  0  0  0
   -2.3164   -4.0314    0.5888 C   0  0  0  0  0  0  0  0  0  0  0  0
   -2.3809   -5.4429    0.5435 C   0  0  0  0  0  0  0  0  0  0  0  0
   -2.3977   -6.2901    1.7961 C   0  0  0  0  0  0  0  0  0  0  0  0
   -0.9831   -6.5322    2.3085 C   0  0  0  0  0  0  0  0  0  0  0  0
   -2.3168   -6.0330   -0.7337 C   0  0  0  0  0  0  0  0  0  0  0  0
   -2.2366   -5.2835   -1.9131 C   0  0  0  0  0  0  0  0  0  0  0  0
   -2.2453   -3.8726   -1.8708 C   0  0  0  0  0  0  0  0  0  0  0  0
   -2.1502   -3.0306   -3.1221 C   0  0  0  0  0  0  0  0  0  0  0  0
   -0.6987   -2.8531   -3.5530 C   0  0  0  0  0  0  0  0  0  0  0  0
   -2.2636   -3.2823   -0.5930 C   0  0  0  0  0  0  0  0  0  0  0  0
   -2.1150   -1.6523   -0.2029 S   0  0  0  0  0  0  0  0  0  0  0  0
   -2.0900   -6.0808   -3.0606 C   0  0  0  0  0  0  0  0  0  0  0  0
   -2.0592   -7.4464   -2.7803 C   0  0  0  0  0  0  0  0  0  0  0  0
   -2.2138   -7.6684   -1.1156 S   0  0  0  0  0  0  0  0  0  0  0  0
   -1.7810   -8.5071   -3.7643 C   0  0  0  0  0  0  0  0  0  0  0  0
   -1.2065   -8.2354   -5.3144 S   0  0  0  0  0  0  0  0  0  0  0  0
   -1.0647   -9.8456   -5.7898 C   0  0  0  0  0  0  0  0  0  0  0  0
   -1.4793  -10.6346   -4.7091 C   0  0  0  0  0  0  0  0  0  0  0  0
   -1.9021   -9.8837   -3.5875 C   0  0  0  0  0  0  0  0  0  0  0  0
   -2.4914  -10.4307   -2.4396 O   0  0  0  0  0  0  0  0  0  0  0  0
   -2.6837  -12.1408   -2.1162 S   0  0  0  0  0  0  0  0  0  0  0  0
   -3.0241  -12.5933   -3.8426 C   0  0  0  0  0  0  0  0  0  0  0  0
   -1.4651  -12.4328   -4.7537 S   0  0  0  0  0  0  0  0  0  0  0  0
   -0.5862  -10.3637   -7.1012 C   0  0  0  0  0  0  0  0  0  0  0  0
   -0.1429   -9.6344   -8.1387 C   0  0  0  0  0  0  0  0  0  0  0  0
   -0.0244   -8.1735   -8.1413 C   0  0  0  0  0  0  0  0  0  0  0  0
    1.0013   -7.4483   -7.5443 C   0  0  0  0  0  0  0  0  0  0  0  0
    0.7601   -6.0626   -7.5511 C   0  0  0  0  0  0  0  0  0  0  0  0
    1.5686   -5.0695   -6.9559 C   0  0  0  0  0  0  0  0  0  0  0  0
    2.8436   -5.4070   -6.2174 C   0  0  0  0  0  0  0  0  0  0  0  0
    2.5425   -5.8390   -4.7846 C   0  0  0  0  0  0  0  0  0  0  0  0
    1.0819   -3.7487   -7.0044 C   0  0  0  0  0  0  0  0  0  0  0  0
   -0.1262   -3.4088   -7.6263 C   0  0  0  0  0  0  0  0  0  0  0  0
   -0.9219   -4.3977   -8.2444 C   0  0  0  0  0  0  0  0  0  0  0  0
   -2.2670   -4.0805   -8.8551 C   0  0  0  0  0  0  0  0  0  0  0  0
   -3.3558   -4.0646   -7.7852 C   0  0  0  0  0  0  0  0  0  0  0  0
   -0.4461   -5.7206   -8.1766 C   0  0  0  0  0  0  0  0  0  0  0  0
   -1.2119   -7.1226   -8.7078 S   0  0  0  0  0  0  0  0  0  0  0  0
   -0.4313   -2.0407   -7.5229 C   0  0  0  0  0  0  0  0  0  0  0  0
    0.5309   -1.3180   -6.8203 C   0  0  0  0  0  0  0  0  0  0  0  0
    1.7600   -2.3634   -6.3263 S   0  0  0  0  0  0  0  0  0  0  0  0
    0.4572    0.1177   -6.5099 C   0  0  0  0  0  0  0  0  0  0  0  0
    1.3151    0.8165   -5.6618 C   0  0  0  0  0  0  0  0  0  0  0  0
    0.9814    2.1787   -5.5424 C   0  0  0  0  0  0  0  0  0  0  0  0
    1.6436    3.1401   -4.7456 C   0  0  0  0  0  0  0  0  0  0  0  0
    2.8282    2.7887   -3.8735 C   0  0  0  0  0  0  0  0  0  0  0  0
    2.3647    2.2485   -2.5237 C   0  0  0  0  0  0  0  0  0  0  0  0
    1.0952    4.4372   -4.7421 C   0  0  0  0  0  0  0  0  0  0  0  0
   -0.0248    4.7921   -5.5032 C   0  0  0  0  0  0  0  0  0  0  0  0
   -0.6610    3.8421   -6.3317 C   0  0  0  0  0  0  0  0  0  0  0  0
   -1.8871    4.1756   -7.1496 C   0  0  0  0  0  0  0  0  0  0  0  0
   -3.1553    4.0072   -6.3195 C   0  0  0  0  0  0  0  0  0  0  0  0
   -0.1362    2.5371   -6.3073 C   0  0  0  0  0  0  0  0  0  0  0  0
   -0.7105    1.1760   -7.1104 S   0  0  0  0  0  0  0  0  0  0  0  0
   -0.4063    6.1344   -5.3246 C   0  0  0  0  0  0  0  0  0  0  0  0
    0.4095    6.8245   -4.4347 C   0  0  0  0  0  0  0  0  0  0  0  0
    1.6007    5.7788   -3.8606 S   0  0  0  0  0  0  0  0  0  0  0  0
    4.4212   10.5460   12.6911 H   0  0  0  0  0  0  0  0  0  0  0  0
    4.2914    7.9963   13.1536 H   0  0  0  0  0  0  0  0  0  0  0  0
    4.4342    5.7543   12.6967 H   0  0  0  0  0  0  0  0  0  0  0  0
    3.6358    4.4006   11.8786 H   0  0  0  0  0  0  0  0  0  0  0  0
    2.7772    4.6793   14.1932 H   0  0  0  0  0  0  0  0  0  0  0  0
    2.2451    6.3616   13.8197 H   0  0  0  0  0  0  0  0  0  0  0  0
    1.4617    4.9544   12.9889 H   0  0  0  0  0  0  0  0  0  0  0  0
    2.3083    9.9428    7.9248 H   0  0  0  0  0  0  0  0  0  0  0  0
    1.7647    8.5543    6.9647 H   0  0  0  0  0  0  0  0  0  0  0  0
   -0.4536    8.5774    8.1293 H   0  0  0  0  0  0  0  0  0  0  0  0
   -0.0792   10.1907    7.4114 H   0  0  0  0  0  0  0  0  0  0  0  0
    0.1107    9.9377    9.1852 H   0  0  0  0  0  0  0  0  0  0  0  0
    0.7846    6.4843    7.1142 H   0  0  0  0  0  0  0  0  0  0  0  0
    0.1781    4.8186    5.5384 H   0  0  0  0  0  0  0  0  0  0  0  0
   -1.6068    3.6237    2.3292 H   0  0  0  0  0  0  0  0  0  0  0  0
   -1.1240    4.6958    3.6551 H   0  0  0  0  0  0  0  0  0  0  0  0
    0.4916    4.8084    1.7659 H   0  0  0  0  0  0  0  0  0  0  0  0
    1.3024    4.1397    3.2328 H   0  0  0  0  0  0  0  0  0  0  0  0
    0.7982    3.0344    1.8873 H   0  0  0  0  0  0  0  0  0  0  0  0
   -0.4476   -1.8166    6.2258 H   0  0  0  0  0  0  0  0  0  0  0  0
    0.0142   -0.7455    7.5554 H   0  0  0  0  0  0  0  0  0  0  0  0
   -2.0832   -1.9538    8.0877 H   0  0  0  0  0  0  0  0  0  0  0  0
   -2.3858   -0.1778    7.9919 H   0  0  0  0  0  0  0  0  0  0  0  0
   -2.8851   -1.2602    6.6262 H   0  0  0  0  0  0  0  0  0  0  0  0
   -1.5962   -1.9757    4.2830 H   0  0  0  0  0  0  0  0  0  0  0  0
   -2.2217   -3.6373    2.7515 H   0  0  0  0  0  0  0  0  0  0  0  0
   -3.0069   -5.8009    2.5862 H   0  0  0  0  0  0  0  0  0  0  0  0
   -2.8852   -7.2667    1.5940 H   0  0  0  0  0  0  0  0  0  0  0  0
   -0.3640   -7.0092    1.5191 H   0  0  0  0  0  0  0  0  0  0  0  0
   -1.0169   -7.2064    3.1902 H   0  0  0  0  0  0  0  0  0  0  0  0
   -0.5110   -5.5747    2.6122 H   0  0  0  0  0  0  0  0  0  0  0  0
   -2.7302   -3.4939   -3.9478 H   0  0  0  0  0  0  0  0  0  0  0  0
   -2.6005   -2.0299   -2.9520 H   0  0  0  0  0  0  0  0  0  0  0  0
   -0.1009   -2.4037   -2.7322 H   0  0  0  0  0  0  0  0  0  0  0  0
   -0.6612   -2.1741   -4.4274 H   0  0  0  0  0  0  0  0  0  0  0  0
   -0.2535   -3.8291   -3.8413 H   0  0  0  0  0  0  0  0  0  0  0  0
   -1.9733   -5.6864   -4.0599 H   0  0  0  0  0  0  0  0  0  0  0  0
   -3.8191  -11.9499   -4.2799 H   0  0  0  0  0  0  0  0  0  0  0  0
   -3.3553  -13.6528   -3.8789 H   0  0  0  0  0  0  0  0  0  0  0  0
   -0.6091  -11.4359   -7.2448 H   0  0  0  0  0  0  0  0  0  0  0  0
    0.1373  -10.1520   -9.0477 H   0  0  0  0  0  0  0  0  0  0  0  0
    1.8518   -7.9203   -7.0723 H   0  0  0  0  0  0  0  0  0  0  0  0
    3.5267   -4.5325   -6.1967 H   0  0  0  0  0  0  0  0  0  0  0  0
    3.3931   -6.2149   -6.7460 H   0  0  0  0  0  0  0  0  0  0  0  0
    3.4943   -6.0419   -4.2520 H   0  0  0  0  0  0  0  0  0  0  0  0
    1.9971   -5.0355   -4.2464 H   0  0  0  0  0  0  0  0  0  0  0  0
    1.9291   -6.7639   -4.7797 H   0  0  0  0  0  0  0  0  0  0  0  0
   -2.5312   -4.8265   -9.6331 H   0  0  0  0  0  0  0  0  0  0  0  0
   -2.2348   -3.0993   -9.3735 H   0  0  0  0  0  0  0  0  0  0  0  0
   -3.1330   -3.2971   -7.0150 H   0  0  0  0  0  0  0  0  0  0  0  0
   -3.4290   -5.0602   -7.2985 H   0  0  0  0  0  0  0  0  0  0  0  0
   -4.3314   -3.8265   -8.2555 H   0  0  0  0  0  0  0  0  0  0  0  0
   -1.3318   -1.5886   -7.9157 H   0  0  0  0  0  0  0  0  0  0  0  0
    2.1347    0.3420   -5.1388 H   0  0  0  0  0  0  0  0  0  0  0  0
    3.4683    3.6800   -3.7079 H   0  0  0  0  0  0  0  0  0  0  0  0
    3.4738    2.0382   -4.3752 H   0  0  0  0  0  0  0  0  0  0  0  0
    1.7585    3.0126   -1.9918 H   0  0  0  0  0  0  0  0  0  0  0  0
    1.7556    1.3295   -2.6609 H   0  0  0  0  0  0  0  0  0  0  0  0
    3.2483    1.9998   -1.8998 H   0  0  0  0  0  0  0  0  0  0  0  0
   -1.8287    5.2127   -7.5395 H   0  0  0  0  0  0  0  0  0  0  0  0
   -1.9488    3.5190   -8.0434 H   0  0  0  0  0  0  0  0  0  0  0  0
   -3.1461    4.7022   -5.4523 H   0  0  0  0  0  0  0  0  0  0  0  0
   -4.0432    4.2330   -6.9471 H   0  0  0  0  0  0  0  0  0  0  0  0
   -3.2378    2.9619   -5.9499 H   0  0  0  0  0  0  0  0  0  0  0  0
   -1.2525    6.6016   -5.8098 H   0  0  0  0  0  0  0  0  0  0  0  0
    0.2939    7.8628   -4.1531 H   0  0  0  0  0  0  0  0  0  0  0  0
  1  2  2  0
  2  3  1  0
  3  4  2  0
  4  5  1  0
  5  6  1  0
  4  7  1  0
  7  8  2  0
  8  9  1  0
  9 10  1  0
 10 11  1  0
  9 12  2  0
 12 13  1  0
  8 14  1  0
 14 15  2  0
 15 16  1  0
 15 17  1  0
 17 18  2  0
 18 19  1  0
 19 20  2  0
 20 21  1  0
 21 22  1  0
 20 23  1  0
 23 24  2  0
 24 25  1  0
 25 26  1  0
 26 27  1  0
 25 28  2  0
 28 29  1  0
 24 30  1  0
 30 31  2  0
 31 32  1  0
 31 33  1  0
 33 34  2  0
 34 35  1  0
 35 36  2  0
 36 37  1  0
 37 38  1  0
 36 39  1  0
 39 40  2  0
 40 41  1  0
 41 42  1  0
 42 43  1  0
 41 44  2  0
 44 45  1  0
 40 46  1  0
 46 47  2  0
 47 48  1  0
 47 49  1  0
 49 50  1  0
 50 51  1  0
 51 52  2  0
 52 53  1  0
 53 54  1  0
 54 55  1  0
 55 56  1  0
 56 57  1  0
 51 58  1  0
 58 59  2  3
 59 60  1  0
 60 61  2  0
 61 62  1  0
 62 63  2  0
 63 64  1  0
 64 65  1  0
 63 66  1  0
 66 67  2  0
 67 68  1  0
 68 69  1  0
 69 70  1  0
 68 71  2  0
 71 72  1  0
 67 73  1  0
 73 74  2  0
 74 75  1  0
 74 76  1  0
 76 77  2  0
 77 78  1  0
 78 79  2  0
 79 80  1  0
 80 81  1  0
 79 82  1  0
 82 83  2  0
 83 84  1  0
 84 85  1  0
 85 86  1  0
 84 87  2  0
 87 88  1  0
 83 89  1  0
 89 90  2  0
 90 91  1  0
 13  1  1  0
 29 17  1  0
 45 33  1  0
 53 49  2  0
 72 60  1  0
 88 76  1  0
 12  3  1  0
 28 19  1  0
 44 35  1  0
 57 52  1  0
 71 62  1  0
 87 78  1  0
 16  7  1  0
 32 23  1  0
 48 39  1  0
 75 66  1  0
 91 82  1  0
  1 92  1  0
  2 93  1  0
  5 94  1  0
  5 95  1  0
  6 96  1  0
  6 97  1  0
  6 98  1  0
 10 99  1  0
 10100  1  0
 11101  1  0
 11102  1  0
 11103  1  0
 14104  1  0
 18105  1  0
 21106  1  0
 21107  1  0
 22108  1  0
 22109  1  0
 22110  1  0
 26111  1  0
 26112  1  0
 27113  1  0
 27114  1  0
 27115  1  0
 30116  1  0
 34117  1  0
 37118  1  0
 37119  1  0
 38120  1  0
 38121  1  0
 38122  1  0
 42123  1  0
 42124  1  0
 43125  1  0
 43126  1  0
 43127  1  0
 46128  1  0
 56129  1  0
 56130  1  0
 58131  1  0
 59132  1  0
 61133  1  0
 64134  1  0
 64135  1  0
 65136  1  0
 65137  1  0
 65138  1  0
 69139  1  0
 69140  1  0
 70141  1  0
 70142  1  0
 70143  1  0
 73144  1  0
 77145  1  0
 80146  1  0
 80147  1  0
 81148  1  0
 81149  1  0
 81150  1  0
 85151  1  0
 85152  1  0
 86153  1  0
 86154  1  0
 86155  1  0
 89156  1  0
 90157  1  0
M  END

