
     RDKit          3D

234255  0  0  0  0  0  0  0  0999 V2000
    9.7786   -2.1106   -8.5613 C   0  0  0  0  0  0  0  0  0  0  0  0
   11.4127   -1.8715   -8.2515 S   0  0  0  0  0  0  0  0  0  0  0  0
   11.2327   -0.5666   -7.2135 C   0  0  0  0  0  0  0  0  0  0  0  0
    9.8699   -0.2672   -7.1181 C   0  0  0  0  0  0  0  0  0  0  0  0
    9.0608   -1.1422   -7.8590 C   0  0  0  0  0  0  0  0  0  0  0  0
    7.6633   -1.0253   -7.8771 O   0  0  0  0  0  0  0  0  0  0  0  0
    6.8035   -1.9409   -8.5416 C   0  0  0  0  0  0  0  0  0  0  0  0
    9.3355    0.8552   -6.3881 C   0  0  0  0  0  0  0  0  0  0  0  0
    8.8999    1.7568   -5.8080 N   0  0  0  0  0  0  0  0  0  0  0  0
   12.3632    0.1415   -6.5864 C   0  0  0  0  0  0  0  0  0  0  0  0
   12.4587    0.4363   -5.2796 C   0  0  0  0  0  0  0  0  0  0  0  0
   11.5173   -0.0171   -4.2380 C   0  0  0  0  0  0  0  0  0  0  0  0
   10.7796   -1.5337   -4.1950 S   0  0  0  0  0  0  0  0  0  0  0  0
   10.0967   -1.3919   -2.6674 C   0  0  0  0  0  0  0  0  0  0  0  0
   10.4402   -0.1298   -2.1591 C   0  0  0  0  0  0  0  0  0  0  0  0
   11.2301    0.6348   -3.0335 C   0  0  0  0  0  0  0  0  0  0  0  0
   11.6383    1.9321   -2.6948 O   0  0  0  0  0  0  0  0  0  0  0  0
   11.5926    3.0442   -3.5829 C   0  0  0  0  0  0  0  0  0  0  0  0
    9.9454    0.4071   -0.9182 C   0  0  0  0  0  0  0  0  0  0  0  0
    9.5466    0.8396    0.0789 N   0  0  0  0  0  0  0  0  0  0  0  0
    9.1611   -2.3817   -2.0996 C   0  0  0  0  0  0  0  0  0  0  0  0
    9.0647   -2.6016   -0.7855 C   0  0  0  0  0  0  0  0  0  0  0  0
    7.9729   -3.3759   -0.1714 C   0  0  0  0  0  0  0  0  0  0  0  0
    6.9142   -4.0286   -0.8146 C   0  0  0  0  0  0  0  0  0  0  0  0
    5.8947   -4.4213    0.0723 C   0  0  0  0  0  0  0  0  0  0  0  0
    4.6497   -4.9765   -0.2772 C   0  0  0  0  0  0  0  0  0  0  0  0
    4.3026   -5.3245   -1.6664 C   0  0  0  0  0  0  0  0  0  0  0  0
    4.1064   -4.3190   -2.6263 C   0  0  0  0  0  0  0  0  0  0  0  0
    3.7195   -4.6551   -3.9263 C   0  0  0  0  0  0  0  0  0  0  0  0
    3.5263   -5.9977   -4.2791 C   0  0  0  0  0  0  0  0  0  0  0  0
    3.0487   -6.4196   -5.9588 S   0  0  0  0  0  0  0  0  0  0  0  0
    1.2469   -6.2772   -5.6716 C   0  0  0  0  0  0  0  0  0  0  0  0
    0.6819   -7.5699   -5.0969 C   0  0  0  0  0  0  0  0  0  0  0  0
    3.7396   -7.0066   -3.3251 C   0  0  0  0  0  0  0  0  0  0  0  0
    3.5923   -8.3149   -3.6598 F   0  0  0  0  0  0  0  0  0  0  0  0
    4.1111   -6.6677   -2.0195 C   0  0  0  0  0  0  0  0  0  0  0  0
    3.7004   -5.1090    0.7505 C   0  0  0  0  0  0  0  0  0  0  0  0
    3.9630   -4.7379    2.0707 C   0  0  0  0  0  0  0  0  0  0  0  0
    5.2282   -4.2425    2.4306 C   0  0  0  0  0  0  0  0  0  0  0  0
    5.4956   -3.7456    3.7936 C   0  0  0  0  0  0  0  0  0  0  0  0
    5.5994   -4.6421    4.8659 C   0  0  0  0  0  0  0  0  0  0  0  0
    5.8219   -4.1674    6.1619 C   0  0  0  0  0  0  0  0  0  0  0  0
    5.9365   -2.7922    6.3964 C   0  0  0  0  0  0  0  0  0  0  0  0
    6.2121   -2.1894    8.0660 S   0  0  0  0  0  0  0  0  0  0  0  0
    8.0277   -2.0543    7.8973 C   0  0  0  0  0  0  0  0  0  0  0  0
    8.7003   -3.4076    8.0892 C   0  0  0  0  0  0  0  0  0  0  0  0
    5.8155   -1.8888    5.3288 C   0  0  0  0  0  0  0  0  0  0  0  0
    5.5999   -2.3659    4.0312 C   0  0  0  0  0  0  0  0  0  0  0  0
    5.9041   -0.5505    5.5443 F   0  0  0  0  0  0  0  0  0  0  0  0
    6.1705   -4.0915    1.4034 C   0  0  0  0  0  0  0  0  0  0  0  0
    7.6629   -3.3271    1.4861 S   0  0  0  0  0  0  0  0  0  0  0  0
    2.8126   -4.6926    2.8735 C   0  0  0  0  0  0  0  0  0  0  0  0
    1.6379   -4.9863    2.1854 C   0  0  0  0  0  0  0  0  0  0  0  0
    2.0406   -5.3314    0.5836 S   0  0  0  0  0  0  0  0  0  0  0  0
    0.3917   -4.2941    2.5202 C   0  0  0  0  0  0  0  0  0  0  0  0
   -0.7752   -4.8240    3.0793 C   0  0  0  0  0  0  0  0  0  0  0  0
   -1.7563   -3.8356    3.3114 C   0  0  0  0  0  0  0  0  0  0  0  0
   -3.0614   -4.0219    3.8336 C   0  0  0  0  0  0  0  0  0  0  0  0
   -3.5686   -5.3539    4.2312 C   0  0  0  0  0  0  0  0  0  0  0  0
   -2.9545   -6.0658    5.2733 C   0  0  0  0  0  0  0  0  0  0  0  0
   -3.4904   -7.2839    5.7069 C   0  0  0  0  0  0  0  0  0  0  0  0
   -4.6368   -7.8061    5.0964 C   0  0  0  0  0  0  0  0  0  0  0  0
   -5.3570   -9.3330    5.6955 S   0  0  0  0  0  0  0  0  0  0  0  0
   -4.3325  -10.4080    4.6404 C   0  0  0  0  0  0  0  0  0  0  0  0
   -4.9404  -11.8014    4.5850 C   0  0  0  0  0  0  0  0  0  0  0  0
   -5.2459   -7.1042    4.0461 C   0  0  0  0  0  0  0  0  0  0  0  0
   -6.3665   -7.5926    3.4549 F   0  0  0  0  0  0  0  0  0  0  0  0
   -4.7091   -5.8885    3.6138 C   0  0  0  0  0  0  0  0  0  0  0  0
   -3.8720   -2.8683    3.9410 C   0  0  0  0  0  0  0  0  0  0  0  0
   -3.4132   -1.6011    3.5757 C   0  0  0  0  0  0  0  0  0  0  0  0
   -2.1455   -1.4275    3.0054 C   0  0  0  0  0  0  0  0  0  0  0  0
   -1.7548   -0.1488    2.3837 C   0  0  0  0  0  0  0  0  0  0  0  0
   -1.3129    0.9190    3.1730 C   0  0  0  0  0  0  0  0  0  0  0  0
   -1.0194    2.1511    2.5817 C   0  0  0  0  0  0  0  0  0  0  0  0
   -1.1505    2.3182    1.1963 C   0  0  0  0  0  0  0  0  0  0  0  0
   -0.7189    3.8889    0.4367 S   0  0  0  0  0  0  0  0  0  0  0  0
    1.0040    3.4174    0.0423 C   0  0  0  0  0  0  0  0  0  0  0  0
    1.8908    3.4895    1.2800 C   0  0  0  0  0  0  0  0  0  0  0  0
   -1.6087    1.2547    0.4065 C   0  0  0  0  0  0  0  0  0  0  0  0
   -1.9055    0.0240    0.9996 C   0  0  0  0  0  0  0  0  0  0  0  0
   -1.7584    1.4061   -0.9348 F   0  0  0  0  0  0  0  0  0  0  0  0
   -1.3399   -2.5610    2.9003 C   0  0  0  0  0  0  0  0  0  0  0  0
    0.2124   -2.6388    2.2828 S   0  0  0  0  0  0  0  0  0  0  0  0
   -4.3666   -0.5989    3.7155 C   0  0  0  0  0  0  0  0  0  0  0  0
   -5.6074   -1.0641    4.1441 C   0  0  0  0  0  0  0  0  0  0  0  0
   -5.5083   -2.7399    4.3677 S   0  0  0  0  0  0  0  0  0  0  0  0
   -6.8167   -0.2698    3.8930 C   0  0  0  0  0  0  0  0  0  0  0  0
   -6.7799    1.0891    4.2295 C   0  0  0  0  0  0  0  0  0  0  0  0
   -7.0884    1.9435    3.1573 C   0  0  0  0  0  0  0  0  0  0  0  0
   -6.7321    3.3092    3.0720 C   0  0  0  0  0  0  0  0  0  0  0  0
   -6.2904    4.0660    4.2560 C   0  0  0  0  0  0  0  0  0  0  0  0
   -7.1706    4.9783    4.8526 C   0  0  0  0  0  0  0  0  0  0  0  0
   -6.8318    5.5926    6.0587 C   0  0  0  0  0  0  0  0  0  0  0  0
   -5.6176    5.2835    6.6889 C   0  0  0  0  0  0  0  0  0  0  0  0
   -5.2483    5.9851    8.3017 S   0  0  0  0  0  0  0  0  0  0  0  0
   -5.9153    4.5722    9.2581 C   0  0  0  0  0  0  0  0  0  0  0  0
   -7.4342    4.6431    9.3696 C   0  0  0  0  0  0  0  0  0  0  0  0
   -4.7058    4.4214    6.0615 C   0  0  0  0  0  0  0  0  0  0  0  0
   -3.5190    4.1293    6.6497 F   0  0  0  0  0  0  0  0  0  0  0  0
   -5.0408    3.8157    4.8456 C   0  0  0  0  0  0  0  0  0  0  0  0
   -6.6996    3.8787    1.7900 C   0  0  0  0  0  0  0  0  0  0  0  0
   -7.1104    3.1742    0.6555 C   0  0  0  0  0  0  0  0  0  0  0  0
   -7.6090    1.8620    0.7607 C   0  0  0  0  0  0  0  0  0  0  0  0
   -7.9368    1.0927   -0.4551 C   0  0  0  0  0  0  0  0  0  0  0  0
   -7.0314    0.1480   -0.9608 C   0  0  0  0  0  0  0  0  0  0  0  0
   -7.2754   -0.4674   -2.1925 C   0  0  0  0  0  0  0  0  0  0  0  0
   -8.4157   -0.1308   -2.9295 C   0  0  0  0  0  0  0  0  0  0  0  0
   -8.6590   -0.8559   -4.5505 S   0  0  0  0  0  0  0  0  0  0  0  0
   -7.9348    0.5525   -5.4665 C   0  0  0  0  0  0  0  0  0  0  0  0
   -6.9678    0.0391   -6.5223 C   0  0  0  0  0  0  0  0  0  0  0  0
   -9.3427    0.7856   -2.4116 C   0  0  0  0  0  0  0  0  0  0  0  0
   -9.0926    1.4071   -1.1862 C   0  0  0  0  0  0  0  0  0  0  0  0
  -10.4616    1.1056   -3.1115 F   0  0  0  0  0  0  0  0  0  0  0  0
   -7.5365    1.2571    2.0254 C   0  0  0  0  0  0  0  0  0  0  0  0
   -7.4916   -0.3877    2.3492 S   0  0  0  0  0  0  0  0  0  0  0  0
   -6.7247    3.7858   -0.5440 C   0  0  0  0  0  0  0  0  0  0  0  0
   -5.9386    4.9232   -0.3594 C   0  0  0  0  0  0  0  0  0  0  0  0
   -5.8125    5.2277    1.2990 S   0  0  0  0  0  0  0  0  0  0  0  0
   -4.9690    5.3863   -1.3676 C   0  0  0  0  0  0  0  0  0  0  0  0
   -4.1059    6.4831   -1.2667 C   0  0  0  0  0  0  0  0  0  0  0  0
   -3.0969    6.4793   -2.2555 C   0  0  0  0  0  0  0  0  0  0  0  0
   -2.0315    7.3995   -2.3782 C   0  0  0  0  0  0  0  0  0  0  0  0
   -1.9526    8.6389   -1.5690 C   0  0  0  0  0  0  0  0  0  0  0  0
   -0.7871    8.9368   -0.8444 C   0  0  0  0  0  0  0  0  0  0  0  0
   -0.6191   10.1959   -0.2631 C   0  0  0  0  0  0  0  0  0  0  0  0
   -1.6255   11.1613   -0.3726 C   0  0  0  0  0  0  0  0  0  0  0  0
   -1.3542   12.8161    0.2688 S   0  0  0  0  0  0  0  0  0  0  0  0
   -1.8845   12.4388    1.9745 C   0  0  0  0  0  0  0  0  0  0  0  0
   -0.6700   12.1722    2.8535 C   0  0  0  0  0  0  0  0  0  0  0  0
   -2.8171   10.8481   -1.0456 C   0  0  0  0  0  0  0  0  0  0  0  0
   -3.7938   11.7774   -1.1774 F   0  0  0  0  0  0  0  0  0  0  0  0
   -2.9751    9.5959   -1.6469 C   0  0  0  0  0  0  0  0  0  0  0  0
   -1.0581    7.1131   -3.3604 C   0  0  0  0  0  0  0  0  0  0  0  0
   -1.1133    5.9818   -4.1788 C   0  0  0  0  0  0  0  0  0  0  0  0
   -2.1719    5.0665   -4.0540 C   0  0  0  0  0  0  0  0  0  0  0  0
   -2.1682    3.7615   -4.7484 C   0  0  0  0  0  0  0  0  0  0  0  0
   -3.2565    3.3866   -5.5510 C   0  0  0  0  0  0  0  0  0  0  0  0
   -3.3566    2.0778   -6.0280 C   0  0  0  0  0  0  0  0  0  0  0  0
   -2.3724    1.1347   -5.7019 C   0  0  0  0  0  0  0  0  0  0  0  0
   -2.6050   -0.5854   -6.1635 S   0  0  0  0  0  0  0  0  0  0  0  0
   -3.6016   -1.0079   -4.6816 C   0  0  0  0  0  0  0  0  0  0  0  0
   -2.7089   -1.4822   -3.5437 C   0  0  0  0  0  0  0  0  0  0  0  0
   -1.2447    1.5277   -4.9687 C   0  0  0  0  0  0  0  0  0  0  0  0
   -1.1496    2.8343   -4.4862 C   0  0  0  0  0  0  0  0  0  0  0  0
   -0.2630    0.6366   -4.6797 F   0  0  0  0  0  0  0  0  0  0  0  0
   -3.1621    5.3666   -3.1022 C   0  0  0  0  0  0  0  0  0  0  0  0
   -4.4639    4.4147   -2.6500 S   0  0  0  0  0  0  0  0  0  0  0  0
   -0.0376    5.8952   -5.0797 C   0  0  0  0  0  0  0  0  0  0  0  0
    0.8558    6.9528   -4.9719 C   0  0  0  0  0  0  0  0  0  0  0  0
    0.3145    7.9974   -3.7645 S   0  0  0  0  0  0  0  0  0  0  0  0
    9.3678   -2.8827   -9.1950 H   0  0  0  0  0  0  0  0  0  0  0  0
    5.7494   -1.6632   -8.3434 H   0  0  0  0  0  0  0  0  0  0  0  0
    6.9758   -2.9712   -8.1641 H   0  0  0  0  0  0  0  0  0  0  0  0
    6.9834   -1.9054   -9.6386 H   0  0  0  0  0  0  0  0  0  0  0  0
   13.1929    0.4149   -7.2269 H   0  0  0  0  0  0  0  0  0  0  0  0
   13.3250    0.9975   -4.9526 H   0  0  0  0  0  0  0  0  0  0  0  0
   12.3518    2.9515   -4.3851 H   0  0  0  0  0  0  0  0  0  0  0  0
   10.5785    3.1346   -4.0227 H   0  0  0  0  0  0  0  0  0  0  0  0
   11.8149    3.9677   -3.0111 H   0  0  0  0  0  0  0  0  0  0  0  0
    8.5280   -2.9180   -2.7912 H   0  0  0  0  0  0  0  0  0  0  0  0
    9.7566   -2.1191   -0.1107 H   0  0  0  0  0  0  0  0  0  0  0  0
    6.8440   -4.1428   -1.8857 H   0  0  0  0  0  0  0  0  0  0  0  0
    4.2462   -3.2804   -2.3625 H   0  0  0  0  0  0  0  0  0  0  0  0
    3.5724   -3.8708   -4.6589 H   0  0  0  0  0  0  0  0  0  0  0  0
    0.7577   -6.0824   -6.6482 H   0  0  0  0  0  0  0  0  0  0  0  0
    1.0151   -5.4241   -4.9960 H   0  0  0  0  0  0  0  0  0  0  0  0
    0.9454   -8.4353   -5.7419 H   0  0  0  0  0  0  0  0  0  0  0  0
   -0.4252   -7.4973   -5.0384 H   0  0  0  0  0  0  0  0  0  0  0  0
    1.0684   -7.7442   -4.0750 H   0  0  0  0  0  0  0  0  0  0  0  0
    4.2614   -7.4508   -1.2883 H   0  0  0  0  0  0  0  0  0  0  0  0
    5.5027   -5.7062    4.6968 H   0  0  0  0  0  0  0  0  0  0  0  0
    5.8999   -4.8698    6.9815 H   0  0  0  0  0  0  0  0  0  0  0  0
    8.3018   -1.6280    6.9092 H   0  0  0  0  0  0  0  0  0  0  0  0
    8.4005   -1.3600    8.6828 H   0  0  0  0  0  0  0  0  0  0  0  0
    8.4042   -4.1048    7.2809 H   0  0  0  0  0  0  0  0  0  0  0  0
    8.4212   -3.8419    9.0718 H   0  0  0  0  0  0  0  0  0  0  0  0
    9.8034   -3.2827    8.0533 H   0  0  0  0  0  0  0  0  0  0  0  0
    5.5000   -1.6623    3.2138 H   0  0  0  0  0  0  0  0  0  0  0  0
    2.8132   -4.2796    3.8748 H   0  0  0  0  0  0  0  0  0  0  0  0
   -0.9003   -5.8745    3.3034 H   0  0  0  0  0  0  0  0  0  0  0  0
   -2.0762   -5.6663    5.7670 H   0  0  0  0  0  0  0  0  0  0  0  0
   -3.0173   -7.8176    6.5275 H   0  0  0  0  0  0  0  0  0  0  0  0
   -4.2671   -9.9941    3.6089 H   0  0  0  0  0  0  0  0  0  0  0  0
   -3.3060  -10.4773    5.0692 H   0  0  0  0  0  0  0  0  0  0  0  0
   -5.0374  -12.2223    5.6097 H   0  0  0  0  0  0  0  0  0  0  0  0
   -5.9456  -11.7555    4.1082 H   0  0  0  0  0  0  0  0  0  0  0  0
   -4.2886  -12.4656    3.9862 H   0  0  0  0  0  0  0  0  0  0  0  0
   -5.1935   -5.3569    2.8033 H   0  0  0  0  0  0  0  0  0  0  0  0
   -1.2040    0.7993    4.2426 H   0  0  0  0  0  0  0  0  0  0  0  0
   -0.6816    2.9745    3.1999 H   0  0  0  0  0  0  0  0  0  0  0  0
    1.3925    4.1359   -0.7132 H   0  0  0  0  0  0  0  0  0  0  0  0
    1.0420    2.3965   -0.3988 H   0  0  0  0  0  0  0  0  0  0  0  0
    2.9468    3.3077    0.9967 H   0  0  0  0  0  0  0  0  0  0  0  0
    1.8159    4.4944    1.7460 H   0  0  0  0  0  0  0  0  0  0  0  0
    1.5992    2.7206    2.0224 H   0  0  0  0  0  0  0  0  0  0  0  0
   -2.2704   -0.7901    0.3832 H   0  0  0  0  0  0  0  0  0  0  0  0
   -4.1992    0.4254    3.4092 H   0  0  0  0  0  0  0  0  0  0  0  0
   -6.2601    1.4290    5.1150 H   0  0  0  0  0  0  0  0  0  0  0  0
   -8.1332    5.1832    4.3974 H   0  0  0  0  0  0  0  0  0  0  0  0
   -7.5338    6.2685    6.5280 H   0  0  0  0  0  0  0  0  0  0  0  0
   -5.6110    3.6069    8.7967 H   0  0  0  0  0  0  0  0  0  0  0  0
   -5.4812    4.6126   10.2829 H   0  0  0  0  0  0  0  0  0  0  0  0
   -7.7358    5.6086    9.8246 H   0  0  0  0  0  0  0  0  0  0  0  0
   -7.9079    4.5329    8.3725 H   0  0  0  0  0  0  0  0  0  0  0  0
   -7.7892    3.8205   10.0225 H   0  0  0  0  0  0  0  0  0  0  0  0
   -4.3476    3.1221    4.3825 H   0  0  0  0  0  0  0  0  0  0  0  0
   -6.1199   -0.0822   -0.4214 H   0  0  0  0  0  0  0  0  0  0  0  0
   -6.5618   -1.1816   -2.5846 H   0  0  0  0  0  0  0  0  0  0  0  0
   -8.7610    1.1119   -5.9541 H   0  0  0  0  0  0  0  0  0  0  0  0
   -7.3859    1.2530   -4.7993 H   0  0  0  0  0  0  0  0  0  0  0  0
   -6.0828   -0.4204   -6.0351 H   0  0  0  0  0  0  0  0  0  0  0  0
   -7.4640   -0.7122   -7.1691 H   0  0  0  0  0  0  0  0  0  0  0  0
   -6.6325    0.8866   -7.1549 H   0  0  0  0  0  0  0  0  0  0  0  0
   -9.7867    2.1515   -0.8143 H   0  0  0  0  0  0  0  0  0  0  0  0
   -6.8534    3.3149   -1.5094 H   0  0  0  0  0  0  0  0  0  0  0  0
   -4.1695    7.2045   -0.4678 H   0  0  0  0  0  0  0  0  0  0  0  0
    0.0157    8.2109   -0.7732 H   0  0  0  0  0  0  0  0  0  0  0  0
    0.3121   10.4308    0.2374 H   0  0  0  0  0  0  0  0  0  0  0  0
   -2.5792   11.5714    2.0057 H   0  0  0  0  0  0  0  0  0  0  0  0
   -2.4232   13.3252    2.3696 H   0  0  0  0  0  0  0  0  0  0  0  0
   -0.0098   13.0642    2.8708 H   0  0  0  0  0  0  0  0  0  0  0  0
   -0.1009   11.2990    2.4755 H   0  0  0  0  0  0  0  0  0  0  0  0
   -1.0058   11.9560    3.8872 H   0  0  0  0  0  0  0  0  0  0  0  0
   -3.8692    9.3898   -2.2219 H   0  0  0  0  0  0  0  0  0  0  0  0
   -4.0556    4.0911   -5.7630 H   0  0  0  0  0  0  0  0  0  0  0  0
   -4.2206    1.7821   -6.6100 H   0  0  0  0  0  0  0  0  0  0  0  0
   -4.2072   -0.1405   -4.3440 H   0  0  0  0  0  0  0  0  0  0  0  0
   -4.3010   -1.8224   -4.9528 H   0  0  0  0  0  0  0  0  0  0  0  0
   -2.0277   -0.6742   -3.2166 H   0  0  0  0  0  0  0  0  0  0  0  0
   -3.3414   -1.7899   -2.6807 H   0  0  0  0  0  0  0  0  0  0  0  0
   -2.1153   -2.3597   -3.8704 H   0  0  0  0  0  0  0  0  0  0  0  0
   -0.3147    3.1106   -3.8537 H   0  0  0  0  0  0  0  0  0  0  0  0
    0.0863    5.0958   -5.7959 H   0  0  0  0  0  0  0  0  0  0  0  0
    1.7550    7.0779   -5.5599 H   0  0  0  0  0  0  0  0  0  0  0  0
  1  2  1  0
  2  3  1  0
  3  4  2  0
  4  5  1  0
  5  6  1  0
  6  7  1  0
  4  8  1  0
  8  9  3  0
  3 10  1  0
 10 11  2  3
 11 12  1  0
 12 13  1  0
 13 14  1  0
 14 15  2  0
 15 16  1  0
 16 17  1  0
 17 18  1  0
 15 19  1  0
 19 20  3  0
 14 21  1  0
 21 22  2  3
 22 23  1  0
 23 24  2  0
 24 25  1  0
 25 26  2  0
 26 27  1  0
 27 28  2  0
 28 29  1  0
 29 30  2  0
 30 31  1  0
 31 32  1  0
 32 33  1  0
 30 34  1  0
 34 35  1  0
 34 36  2  0
 26 37  1  0
 37 38  2  0
 38 39  1  0
 39 40  1  0
 40 41  2  0
 41 42  1  0
 42 43  2  0
 43 44  1  0
 44 45  1  0
 45 46  1  0
 43 47  1  0
 47 48  2  0
 47 49  1  0
 39 50  2  0
 50 51  1  0
 38 52  1  0
 52 53  2  0
 53 54  1  0
 53 55  1  0
 55 56  2  0
 56 57  1  0
 57 58  2  0
 58 59  1  0
 59 60  2  0
 60 61  1  0
 61 62  2  0
 62 63  1  0
 63 64  1  0
 64 65  1  0
 62 66  1  0
 66 67  1  0
 66 68  2  0
 58 69  1  0
 69 70  2  0
 70 71  1  0
 71 72  1  0
 72 73  2  0
 73 74  1  0
 74 75  2  0
 75 76  1  0
 76 77  1  0
 77 78  1  0
 75 79  1  0
 79 80  2  0
 79 81  1  0
 71 82  2  0
 82 83  1  0
 70 84  1  0
 84 85  2  0
 85 86  1  0
 85 87  1  0
 87 88  2  0
 88 89  1  0
 89 90  2  0
 90 91  1  0
 91 92  2  0
 92 93  1  0
 93 94  2  0
 94 95  1  0
 95 96  1  0
 96 97  1  0
 94 98  1  0
 98 99  1  0
 98100  2  0
 90101  1  0
101102  2  0
102103  1  0
103104  1  0
104105  2  0
105106  1  0
106107  2  0
107108  1  0
108109  1  0
109110  1  0
107111  1  0
111112  2  0
111113  1  0
103114  2  0
114115  1  0
102116  1  0
116117  2  0
117118  1  0
117119  1  0
119120  2  0
120121  1  0
121122  2  0
122123  1  0
123124  2  0
124125  1  0
125126  2  0
126127  1  0
127128  1  0
128129  1  0
126130  1  0
130131  1  0
130132  2  0
122133  1  0
133134  2  0
134135  1  0
135136  1  0
136137  2  0
137138  1  0
138139  2  0
139140  1  0
140141  1  0
141142  1  0
139143  1  0
143144  2  0
143145  1  0
135146  2  0
146147  1  0
134148  1  0
148149  2  0
149150  1  0
  5  1  2  0
 16 12  2  0
 51 23  1  0
 83 55  1  0
115 87  1  0
147119  1  0
 50 25  1  0
 82 57  1  0
114 89  1  0
146121  1  0
 36 27  1  0
 54 37  1  0
 68 59  1  0
 86 69  1  0
100 91  1  0
118101  1  0
132123  1  0
150133  1  0
 48 40  1  0
 80 72  1  0
112104  1  0
144136  1  0
  1151  1  0
  7152  1  0
  7153  1  0
  7154  1  0
 10155  1  0
 11156  1  0
 18157  1  0
 18158  1  0
 18159  1  0
 21160  1  0
 22161  1  0
 24162  1  0
 28163  1  0
 29164  1  0
 32165  1  0
 32166  1  0
 33167  1  0
 33168  1  0
 33169  1  0
 36170  1  0
 41171  1  0
 42172  1  0
 45173  1  0
 45174  1  0
 46175  1  0
 46176  1  0
 46177  1  0
 48178  1  0
 52179  1  0
 56180  1  0
 60181  1  0
 61182  1  0
 64183  1  0
 64184  1  0
 65185  1  0
 65186  1  0
 65187  1  0
 68188  1  0
 73189  1  0
 74190  1  0
 77191  1  0
 77192  1  0
 78193  1  0
 78194  1  0
 78195  1  0
 80196  1  0
 84197  1  0
 88198  1  0
 92199  1  0
 93200  1  0
 96201  1  0
 96202  1  0
 97203  1  0
 97204  1  0
 97205  1  0
100206  1  0
105207  1  0
106208  1  0
109209  1  0
109210  1  0
110211  1  0
110212  1  0
110213  1  0
112214  1  0
116215  1  0
120216  1  0
124217  1  0
125218  1  0
128219  1  0
128220  1  0
129221  1  0
129222  1  0
129223  1  0
132224  1  0
137225  1  0
138226  1  0
141227  1  0
141228  1  0
142229  1  0
142230  1  0
142231  1  0
144232  1  0
148233  1  0
149234  1  0
M  END

