
     RDKit          3D

182199  0  0  0  0  0  0  0  0999 V2000
   -5.4086   -0.1699   -1.4920 N   0  0  0  0  0  0  0  0  0  0  0  0
   -5.2095   -1.1485   -2.5569 C   0  0  0  0  0  0  0  0  0  0  0  0
   -4.4244   -2.2660   -2.0358 N   0  0  0  0  0  0  0  0  0  0  0  0
   -3.5965   -1.6736   -0.9860 C   0  0  2  0  0  0  0  0  0  0  0  0
   -3.3674   -2.6427    0.1964 C   0  0  0  0  0  0  0  0  0  0  0  0
   -2.7027   -1.9064    1.3813 C   0  0  1  0  0  0  0  0  0  0  0  0
   -3.4997   -0.6606    1.8250 C   0  0  1  0  0  0  0  0  0  0  0  0
   -4.6952   -0.3256    0.8967 C   0  0  0  0  0  0  0  0  0  0  0  0
   -4.2699   -0.3532   -0.5860 C   0  0  2  0  0  0  0  0  0  0  0  0
   -3.9656   -1.0041    3.1539 N   0  0  0  0  0  0  0  0  0  0  0  0
   -3.5871   -2.3474    3.5274 C   0  0  0  0  0  0  0  0  0  0  0  0
   -2.5821   -2.7794    2.5608 N   0  0  0  0  0  0  0  0  0  0  0  0
   -4.8694   -0.1836    3.8996 C   0  0  0  0  0  0  0  0  0  0  0  0
   -4.4816    1.0442    4.2786 C   0  0  0  0  0  0  0  0  0  0  0  0
   -5.4288    2.1110    4.4820 N   0  0  0  0  0  0  0  0  0  0  0  0
   -6.8256    1.9381    4.8572 C   0  0  0  0  0  0  0  0  0  0  0  0
   -7.4642    3.2529    4.7602 N   0  0  0  0  0  0  0  0  0  0  0  0
   -6.5779    4.0741    3.9271 C   0  0  2  0  0  0  0  0  0  0  0  0
   -7.0658    4.0261    2.4641 C   0  0  0  0  0  0  0  0  0  0  0  0
   -6.1489    4.8451    1.5332 C   0  0  1  0  0  0  0  0  0  0  0  0
   -4.6598    4.7674    1.9103 C   0  0  1  0  0  0  0  0  0  0  0  0
   -4.3272    3.5468    2.7811 C   0  0  0  0  0  0  0  0  0  0  0  0
   -5.1699    3.4809    4.0742 C   0  0  2  0  0  0  0  0  0  0  0  0
   -3.9910    4.6272    0.6376 N   0  0  0  0  0  0  0  0  0  0  0  0
   -4.9329    4.4408   -0.4462 C   0  0  0  0  0  0  0  0  0  0  0  0
   -6.2700    4.3655    0.1455 N   0  0  0  0  0  0  0  0  0  0  0  0
   -2.6285    5.0060    0.4459 C   0  0  0  0  0  0  0  0  0  0  0  0
   -1.6775    4.0750    0.2947 C   0  0  0  0  0  0  0  0  0  0  0  0
   -0.2802    4.4197    0.2907 N   0  0  0  0  0  0  0  0  0  0  0  0
    0.2544    5.7688    0.4456 C   0  0  0  0  0  0  0  0  0  0  0  0
    1.7115    5.6476    0.5340 N   0  0  0  0  0  0  0  0  0  0  0  0
    1.9211    4.2614    0.9617 C   0  0  2  0  0  0  0  0  0  0  0  0
    3.3450    3.7485    0.7045 C   0  0  0  0  0  0  0  0  0  0  0  0
    3.6060    3.1779   -0.6913 C   0  0  1  0  0  0  0  0  0  0  0  0
    2.4906    2.3153   -1.2594 C   0  0  1  0  0  0  0  0  0  0  0  0
    1.0884    2.9335   -1.0702 C   0  0  0  0  0  0  0  0  0  0  0  0
    0.7892    3.4383    0.3527 C   0  0  2  0  0  0  0  0  0  0  0  0
    2.8034    2.3455   -2.6773 N   0  0  0  0  0  0  0  0  0  0  0  0
    3.6044    3.5285   -2.9731 C   0  0  0  0  0  0  0  0  0  0  0  0
    3.8640    4.2075   -1.6992 N   0  0  0  0  0  0  0  0  0  0  0  0
    2.9291    1.1717   -3.4870 C   0  0  0  0  0  0  0  0  0  0  0  0
    3.9479    0.3255   -3.2933 C   0  0  0  0  0  0  0  0  0  0  0  0
    4.3380   -0.6451   -4.2830 N   0  0  0  0  0  0  0  0  0  0  0  0
    3.8023   -0.6944   -5.6361 C   0  0  0  0  0  0  0  0  0  0  0  0
    4.6751   -1.5634   -6.4301 N   0  0  0  0  0  0  0  0  0  0  0  0
    5.9141   -1.7237   -5.6524 C   0  0  2  0  0  0  0  0  0  0  0  0
    6.5537   -3.1213   -5.8394 C   0  0  0  0  0  0  0  0  0  0  0  0
    7.4902   -3.4716   -4.6604 C   0  0  1  0  0  0  0  0  0  0  0  0
    6.7276   -3.4765   -3.3184 C   0  0  1  0  0  0  0  0  0  0  0  0
    5.4213   -2.6364   -3.3263 C   0  0  0  0  0  0  0  0  0  0  0  0
    5.5857   -1.3778   -4.1946 C   0  0  2  0  0  0  0  0  0  0  0  0
    6.4554   -4.8803   -3.0982 N   0  0  0  0  0  0  0  0  0  0  0  0
    7.1606   -5.7146   -4.0592 C   0  0  0  0  0  0  0  0  0  0  0  0
    8.0430   -4.8271   -4.8156 N   0  0  0  0  0  0  0  0  0  0  0  0
    5.5887   -5.3737   -2.0674 C   0  0  0  0  0  0  0  0  0  0  0  0
    4.6826   -6.3147   -2.3372 C   0  0  0  0  0  0  0  0  0  0  0  0
    3.6313   -6.6757   -1.4229 N   0  0  0  0  0  0  0  0  0  0  0  0
    2.8632   -7.8920   -1.6317 C   0  0  0  0  0  0  0  0  0  0  0  0
    1.7674   -7.8842   -0.6626 N   0  0  0  0  0  0  0  0  0  0  0  0
    1.6042   -6.4861   -0.2465 C   0  0  2  0  0  0  0  0  0  0  0  0
    0.5264   -5.7758   -1.1076 C   0  0  0  0  0  0  0  0  0  0  0  0
    0.3759   -4.2936   -0.7150 C   0  0  1  0  0  0  0  0  0  0  0  0
    1.6749   -3.6573   -0.2161 C   0  0  1  0  0  0  0  0  0  0  0  0
    2.9024   -4.3334   -0.8401 C   0  0  0  0  0  0  0  0  0  0  0  0
    2.9871   -5.8260   -0.4249 C   0  0  2  0  0  0  0  0  0  0  0  0
    1.5709   -2.2801   -0.6619 N   0  0  0  0  0  0  0  0  0  0  0  0
    0.5211   -2.1597   -1.6606 C   0  0  0  0  0  0  0  0  0  0  0  0
   -0.0486   -3.4936   -1.8681 N   0  0  0  0  0  0  0  0  0  0  0  0
    1.8659   -1.1904    0.2206 C   0  0  0  0  0  0  0  0  0  0  0  0
    3.0250   -1.1235    0.8830 C   0  0  0  0  0  0  0  0  0  0  0  0
    3.2336   -0.1589    1.9269 N   0  0  0  0  0  0  0  0  0  0  0  0
    4.5505    0.2255    2.3770 C   0  0  0  0  0  0  0  0  0  0  0  0
    4.3946    1.0431    3.5833 N   0  0  0  0  0  0  0  0  0  0  0  0
    2.9535    1.2495    3.7970 C   0  0  2  0  0  0  0  0  0  0  0  0
    2.6074    1.0239    5.2834 C   0  0  0  0  0  0  0  0  0  0  0  0
    1.0950    0.7954    5.4681 C   0  0  1  0  0  0  0  0  0  0  0  0
    0.5683   -0.3956    4.6464 C   0  0  1  0  0  0  0  0  0  0  0  0
    1.5524   -0.8815    3.5649 C   0  0  0  0  0  0  0  0  0  0  0  0
    2.2049    0.3096    2.8352 C   0  0  2  0  0  0  0  0  0  0  0  0
    0.3368   -1.4279    5.6345 N   0  0  0  0  0  0  0  0  0  0  0  0
    0.5921   -0.9396    6.9772 C   0  0  0  0  0  0  0  0  0  0  0  0
    0.8248    0.5054    6.8826 N   0  0  0  0  0  0  0  0  0  0  0  0
   -0.1770   -2.7296    5.3068 C   0  0  0  0  0  0  0  0  0  0  0  0
   -0.2573   -3.7119    6.2048 C   0  0  0  0  0  0  0  0  0  0  0  0
   -6.3015   -0.4201   -1.0033 H   0  0  0  0  0  0  0  0  0  0  0  0
   -4.6477   -0.6713   -3.3884 H   0  0  0  0  0  0  0  0  0  0  0  0
   -6.1851   -1.5055   -2.9568 H   0  0  0  0  0  0  0  0  0  0  0  0
   -5.1060   -2.9391   -1.6092 H   0  0  0  0  0  0  0  0  0  0  0  0
   -2.6069   -1.4343   -1.4331 H   0  0  0  0  0  0  0  0  0  0  0  0
   -4.3373   -3.0793    0.5311 H   0  0  0  0  0  0  0  0  0  0  0  0
   -2.7227   -3.4844   -0.1350 H   0  0  0  0  0  0  0  0  0  0  0  0
   -1.6862   -1.5923    1.0661 H   0  0  0  0  0  0  0  0  0  0  0  0
   -2.8192    0.2185    1.8892 H   0  0  0  0  0  0  0  0  0  0  0  0
   -5.5157   -1.0579    1.0714 H   0  0  0  0  0  0  0  0  0  0  0  0
   -5.0984    0.6795    1.1410 H   0  0  0  0  0  0  0  0  0  0  0  0
   -3.5586    0.4847   -0.7530 H   0  0  0  0  0  0  0  0  0  0  0  0
   -4.4816   -3.0105    3.5003 H   0  0  0  0  0  0  0  0  0  0  0  0
   -3.1468   -2.3447    4.5450 H   0  0  0  0  0  0  0  0  0  0  0  0
   -2.7069   -3.7902    2.3291 H   0  0  0  0  0  0  0  0  0  0  0  0
   -5.9127   -0.4826    3.9508 H   0  0  0  0  0  0  0  0  0  0  0  0
   -3.4326    1.2981    4.1651 H   0  0  0  0  0  0  0  0  0  0  0  0
   -6.9025    1.5314    5.8896 H   0  0  0  0  0  0  0  0  0  0  0  0
   -7.3355    1.2486    4.1505 H   0  0  0  0  0  0  0  0  0  0  0  0
   -7.4781    3.6729    5.7182 H   0  0  0  0  0  0  0  0  0  0  0  0
   -6.5877    5.1308    4.2759 H   0  0  0  0  0  0  0  0  0  0  0  0
   -8.1019    4.4231    2.4029 H   0  0  0  0  0  0  0  0  0  0  0  0
   -7.0950    2.9685    2.1212 H   0  0  0  0  0  0  0  0  0  0  0  0
   -6.4591    5.9142    1.5872 H   0  0  0  0  0  0  0  0  0  0  0  0
   -4.3421    5.7063    2.4213 H   0  0  0  0  0  0  0  0  0  0  0  0
   -3.2480    3.5719    3.0440 H   0  0  0  0  0  0  0  0  0  0  0  0
   -4.4998    2.6419    2.1633 H   0  0  0  0  0  0  0  0  0  0  0  0
   -4.6293    4.0044    4.8918 H   0  0  0  0  0  0  0  0  0  0  0  0
   -4.8584    5.2920   -1.1542 H   0  0  0  0  0  0  0  0  0  0  0  0
   -4.7079    3.4885   -0.9766 H   0  0  0  0  0  0  0  0  0  0  0  0
   -6.9140    5.0028   -0.3801 H   0  0  0  0  0  0  0  0  0  0  0  0
   -2.3736    6.0531    0.5542 H   0  0  0  0  0  0  0  0  0  0  0  0
   -1.9642    3.0288    0.2427 H   0  0  0  0  0  0  0  0  0  0  0  0
   -0.0410    6.4035   -0.4191 H   0  0  0  0  0  0  0  0  0  0  0  0
   -0.1296    6.2159    1.3842 H   0  0  0  0  0  0  0  0  0  0  0  0
    2.0950    5.7622   -0.4305 H   0  0  0  0  0  0  0  0  0  0  0  0
    1.7841    4.2432    2.0676 H   0  0  0  0  0  0  0  0  0  0  0  0
    4.0808    4.5514    0.9264 H   0  0  0  0  0  0  0  0  0  0  0  0
    3.5452    2.9319    1.4274 H   0  0  0  0  0  0  0  0  0  0  0  0
    4.5159    2.5343   -0.6100 H   0  0  0  0  0  0  0  0  0  0  0  0
    2.5367    1.2862   -0.8434 H   0  0  0  0  0  0  0  0  0  0  0  0
    0.9712    3.7871   -1.7783 H   0  0  0  0  0  0  0  0  0  0  0  0
    0.3249    2.1756   -1.3537 H   0  0  0  0  0  0  0  0  0  0  0  0
    0.5138    2.5958    1.0222 H   0  0  0  0  0  0  0  0  0  0  0  0
    4.5624    3.2335   -3.4604 H   0  0  0  0  0  0  0  0  0  0  0  0
    3.0418    4.1991   -3.6538 H   0  0  0  0  0  0  0  0  0  0  0  0
    4.8707    4.4887   -1.6559 H   0  0  0  0  0  0  0  0  0  0  0  0
    2.3039    1.0910   -4.3664 H   0  0  0  0  0  0  0  0  0  0  0  0
    4.5750    0.4511   -2.4187 H   0  0  0  0  0  0  0  0  0  0  0  0
    3.8046    0.3216   -6.0878 H   0  0  0  0  0  0  0  0  0  0  0  0
    2.7600   -1.0875   -5.6121 H   0  0  0  0  0  0  0  0  0  0  0  0
    4.1885   -2.4853   -6.5249 H   0  0  0  0  0  0  0  0  0  0  0  0
    6.6455   -0.9670   -6.0174 H   0  0  0  0  0  0  0  0  0  0  0  0
    7.1243   -3.1293   -6.7935 H   0  0  0  0  0  0  0  0  0  0  0  0
    5.7705   -3.9082   -5.9141 H   0  0  0  0  0  0  0  0  0  0  0  0
    8.3222   -2.7354   -4.6186 H   0  0  0  0  0  0  0  0  0  0  0  0
    7.3948   -3.1064   -2.5107 H   0  0  0  0  0  0  0  0  0  0  0  0
    4.5726   -3.2435   -3.7194 H   0  0  0  0  0  0  0  0  0  0  0  0
    5.1679   -2.3378   -2.2823 H   0  0  0  0  0  0  0  0  0  0  0  0
    6.3880   -0.7291   -3.7677 H   0  0  0  0  0  0  0  0  0  0  0  0
    6.4327   -6.2073   -4.7408 H   0  0  0  0  0  0  0  0  0  0  0  0
    7.7649   -6.4794   -3.5290 H   0  0  0  0  0  0  0  0  0  0  0  0
    8.0780   -5.1237   -5.8207 H   0  0  0  0  0  0  0  0  0  0  0  0
    5.5993   -4.8839   -1.1078 H   0  0  0  0  0  0  0  0  0  0  0  0
    4.6997   -6.8041   -3.3024 H   0  0  0  0  0  0  0  0  0  0  0  0
    3.5077   -8.7811   -1.4523 H   0  0  0  0  0  0  0  0  0  0  0  0
    2.4643   -7.9175   -2.6733 H   0  0  0  0  0  0  0  0  0  0  0  0
    0.8959   -8.2595   -1.1084 H   0  0  0  0  0  0  0  0  0  0  0  0
    1.2940   -6.4544    0.8240 H   0  0  0  0  0  0  0  0  0  0  0  0
    0.8075   -5.8515   -2.1821 H   0  0  0  0  0  0  0  0  0  0  0  0
   -0.4570   -6.2822   -0.9835 H   0  0  0  0  0  0  0  0  0  0  0  0
   -0.3806   -4.2103    0.1003 H   0  0  0  0  0  0  0  0  0  0  0  0
    1.7258   -3.7177    0.8950 H   0  0  0  0  0  0  0  0  0  0  0  0
    3.8042   -3.8027   -0.4777 H   0  0  0  0  0  0  0  0  0  0  0  0
    2.8591   -4.2340   -1.9477 H   0  0  0  0  0  0  0  0  0  0  0  0
    3.5535   -5.9059    0.5292 H   0  0  0  0  0  0  0  0  0  0  0  0
    0.9556   -1.7917   -2.6149 H   0  0  0  0  0  0  0  0  0  0  0  0
   -0.2655   -1.4493   -1.3176 H   0  0  0  0  0  0  0  0  0  0  0  0
   -1.0949   -3.4339   -1.8882 H   0  0  0  0  0  0  0  0  0  0  0  0
    1.1091   -0.4324    0.3808 H   0  0  0  0  0  0  0  0  0  0  0  0
    3.8196   -1.8187    0.6542 H   0  0  0  0  0  0  0  0  0  0  0  0
    5.1445   -0.6826    2.6286 H   0  0  0  0  0  0  0  0  0  0  0  0
    5.0719    0.7933    1.5749 H   0  0  0  0  0  0  0  0  0  0  0  0
    4.8561    1.9719    3.4326 H   0  0  0  0  0  0  0  0  0  0  0  0
    2.6814    2.2966    3.5383 H   0  0  0  0  0  0  0  0  0  0  0  0
    2.9286    1.9128    5.8715 H   0  0  0  0  0  0  0  0  0  0  0  0
    3.1684    0.1438    5.6733 H   0  0  0  0  0  0  0  0  0  0  0  0
    0.5618    1.7264    5.1616 H   0  0  0  0  0  0  0  0  0  0  0  0
   -0.4021   -0.1199    4.1724 H   0  0  0  0  0  0  0  0  0  0  0  0
    2.3478   -1.5123    4.0261 H   0  0  0  0  0  0  0  0  0  0  0  0
    1.0004   -1.5197    2.8444 H   0  0  0  0  0  0  0  0  0  0  0  0
    1.4312    0.8764    2.2783 H   0  0  0  0  0  0  0  0  0  0  0  0
   -0.2767   -1.1518    7.6393 H   0  0  0  0  0  0  0  0  0  0  0  0
    1.5034   -1.4312    7.3817 H   0  0  0  0  0  0  0  0  0  0  0  0
   -0.0688    0.9884    7.1461 H   0  0  0  0  0  0  0  0  0  0  0  0
   -0.4876   -2.9324    4.2907 H   0  0  0  0  0  0  0  0  0  0  0  0
   -0.6370   -4.6817    5.9085 H   0  0  0  0  0  0  0  0  0  0  0  0
    0.0733   -3.5766    7.2278 H   0  0  0  0  0  0  0  0  0  0  0  0
  1  2  1  0
  2  3  1  0
  3  4  1  0
  4  5  1  0
  5  6  1  0
  6  7  1  0
  7  8  1  0
  8  9  1  0
  7 10  1  0
 10 11  1  0
 11 12  1  0
 10 13  1  0
 13 14  2  3
 14 15  1  0
 15 16  1  0
 16 17  1  0
 17 18  1  0
 18 19  1  0
 19 20  1  0
 20 21  1  0
 21 22  1  0
 22 23  1  0
 21 24  1  0
 24 25  1  0
 25 26  1  0
 24 27  1  0
 27 28  2  3
 28 29  1  0
 29 30  1  0
 30 31  1  0
 31 32  1  0
 32 33  1  0
 33 34  1  0
 34 35  1  0
 35 36  1  0
 36 37  1  0
 35 38  1  0
 38 39  1  0
 39 40  1  0
 38 41  1  0
 41 42  2  3
 42 43  1  0
 43 44  1  0
 44 45  1  0
 45 46  1  0
 46 47  1  0
 47 48  1  0
 48 49  1  0
 49 50  1  0
 50 51  1  0
 49 52  1  0
 52 53  1  0
 53 54  1  0
 52 55  1  0
 55 56  2  3
 56 57  1  0
 57 58  1  0
 58 59  1  0
 59 60  1  0
 60 61  1  0
 61 62  1  0
 62 63  1  0
 63 64  1  0
 64 65  1  0
 63 66  1  0
 66 67  1  0
 67 68  1  0
 66 69  1  0
 69 70  2  3
 70 71  1  0
 71 72  1  0
 72 73  1  0
 73 74  1  0
 74 75  1  0
 75 76  1  0
 76 77  1  0
 77 78  1  0
 78 79  1  0
 77 80  1  0
 80 81  1  0
 81 82  1  0
 80 83  1  0
 83 84  2  3
  9  1  1  0
 23 15  1  0
 37 29  1  0
 51 43  1  0
 65 57  1  0
 79 71  1  0
  9  4  1  0
 23 18  1  0
 37 32  1  0
 51 46  1  0
 65 60  1  0
 79 74  1  0
 12  6  1  0
 26 20  1  0
 40 34  1  0
 54 48  1  0
 68 62  1  0
 82 76  1  0
  1 85  1  0
  2 86  1  0
  2 87  1  0
  3 88  1  0
  4 89  1  6
  5 90  1  0
  5 91  1  0
  6 92  1  6
  7 93  1  1
  8 94  1  0
  8 95  1  0
  9 96  1  1
 11 97  1  0
 11 98  1  0
 12 99  1  0
 13100  1  0
 14101  1  0
 16102  1  0
 16103  1  0
 17104  1  0
 18105  1  1
 19106  1  0
 19107  1  0
 20108  1  6
 21109  1  1
 22110  1  0
 22111  1  0
 23112  1  1
 25113  1  0
 25114  1  0
 26115  1  0
 27116  1  0
 28117  1  0
 30118  1  0
 30119  1  0
 31120  1  0
 32121  1  1
 33122  1  0
 33123  1  0
 34124  1  1
 35125  1  1
 36126  1  0
 36127  1  0
 37128  1  1
 39129  1  0
 39130  1  0
 40131  1  0
 41132  1  0
 42133  1  0
 44134  1  0
 44135  1  0
 45136  1  0
 46137  1  6
 47138  1  0
 47139  1  0
 48140  1  1
 49141  1  1
 50142  1  0
 50143  1  0
 51144  1  1
 53145  1  0
 53146  1  0
 54147  1  0
 55148  1  0
 56149  1  0
 58150  1  0
 58151  1  0
 59152  1  0
 60153  1  1
 61154  1  0
 61155  1  0
 62156  1  1
 63157  1  1
 64158  1  0
 64159  1  0
 65160  1  1
 67161  1  0
 67162  1  0
 68163  1  0
 69164  1  0
 70165  1  0
 72166  1  0
 72167  1  0
 73168  1  0
 74169  1  6
 75170  1  0
 75171  1  0
 76172  1  6
 77173  1  6
 78174  1  0
 78175  1  0
 79176  1  6
 81177  1  0
 81178  1  0
 82179  1  0
 83180  1  0
 84181  1  0
 84182  1  0
M  END

