
     RDKit          3D

100113  0  0  0  0  0  0  0  0999 V2000
    3.1208   -1.5581    6.2111 C   0  0  0  0  0  0  0  0  0  0  0  0
    4.4926   -1.5262    5.9559 C   0  0  0  0  0  0  0  0  0  0  0  0
    5.4796   -1.9835    6.8234 C   0  0  0  0  0  0  0  0  0  0  0  0
    5.2802   -2.4688    7.9679 O   0  0  0  0  0  0  0  0  0  0  0  0
    6.9911   -1.7889    6.1136 S   0  0  0  0  0  0  0  0  0  0  0  0
    6.4041   -1.1041    4.6909 C   0  0  0  0  0  0  0  0  0  0  0  0
    7.1386   -0.7381    3.7354 O   0  0  0  0  0  0  0  0  0  0  0  0
    5.0052   -1.0157    4.7407 C   0  0  0  0  0  0  0  0  0  0  0  0
    4.1413   -0.4626    3.7608 C   0  0  0  0  0  0  0  0  0  0  0  0
    2.7482   -0.5776    3.9917 C   0  0  0  0  0  0  0  0  0  0  0  0
    2.2585   -1.1091    5.2102 C   0  0  0  0  0  0  0  0  0  0  0  0
    0.8740   -1.1781    5.2628 C   0  0  0  0  0  0  0  0  0  0  0  0
    0.2000   -1.6138    6.2344 O   0  0  0  0  0  0  0  0  0  0  0  0
    0.2293   -0.6254    3.8172 S   0  0  0  0  0  0  0  0  0  0  0  0
    1.7112   -0.2850    3.1028 C   0  0  0  0  0  0  0  0  0  0  0  0
    1.8431    0.1210    1.9185 O   0  0  0  0  0  0  0  0  0  0  0  0
    4.6981    0.1694    2.5371 C   0  0  0  0  0  0  0  0  0  0  0  0
    4.5404    1.4545    2.1815 C   0  0  0  0  0  0  0  0  0  0  0  0
    3.6720    2.4528    2.8635 C   0  0  0  0  0  0  0  0  0  0  0  0
    3.8340    2.8023    4.2248 C   0  0  0  0  0  0  0  0  0  0  0  0
    4.8810    2.4224    5.0677 C   0  0  0  0  0  0  0  0  0  0  0  0
    5.9247    1.8189    4.7158 O   0  0  0  0  0  0  0  0  0  0  0  0
    4.6352    3.0095    6.6176 S   0  0  0  0  0  0  0  0  0  0  0  0
    3.2321    3.8445    6.2306 C   0  0  0  0  0  0  0  0  0  0  0  0
    2.5703    4.5236    7.0604 O   0  0  0  0  0  0  0  0  0  0  0  0
    2.9374    3.6910    4.8699 C   0  0  0  0  0  0  0  0  0  0  0  0
    1.9411    4.3845    4.1420 C   0  0  0  0  0  0  0  0  0  0  0  0
    1.8979    4.1705    2.7408 C   0  0  0  0  0  0  0  0  0  0  0  0
    2.6991    3.1731    2.1263 C   0  0  0  0  0  0  0  0  0  0  0  0
    2.4424    3.0689    0.7512 C   0  0  0  0  0  0  0  0  0  0  0  0
    2.9639    2.2405   -0.0382 O   0  0  0  0  0  0  0  0  0  0  0  0
    1.3308    4.2316    0.2721 S   0  0  0  0  0  0  0  0  0  0  0  0
    1.1421    4.8884    1.8031 C   0  0  0  0  0  0  0  0  0  0  0  0
    0.4589    5.9203    2.0346 O   0  0  0  0  0  0  0  0  0  0  0  0
    1.0709    5.3792    4.8276 C   0  0  0  0  0  0  0  0  0  0  0  0
   -0.2712    5.3963    4.8051 C   0  0  0  0  0  0  0  0  0  0  0  0
   -1.1174    4.4469    4.0611 C   0  0  0  0  0  0  0  0  0  0  0  0
   -0.8928    2.7815    3.9271 S   0  0  0  0  0  0  0  0  0  0  0  0
   -2.1318    2.5269    2.8173 C   0  0  0  0  0  0  0  0  0  0  0  0
   -2.7369    3.7444    2.5261 C   0  0  0  0  0  0  0  0  0  0  0  0
   -2.1787    4.8159    3.2414 C   0  0  0  0  0  0  0  0  0  0  0  0
   -2.6130    6.1347    3.1297 O   0  0  0  0  0  0  0  0  0  0  0  0
   -4.0719    3.9228    1.3424 S   0  0  0  0  0  0  0  0  0  0  0  0
   -2.3927    1.2515    2.1455 C   0  0  0  0  0  0  0  0  0  0  0  0
   -2.1335    0.9652    0.5103 S   0  0  0  0  0  0  0  0  0  0  0  0
   -2.5899   -0.6525    0.5455 C   0  0  0  0  0  0  0  0  0  0  0  0
   -2.9615   -0.9939    1.8427 C   0  0  0  0  0  0  0  0  0  0  0  0
   -2.8410    0.0798    2.7436 C   0  0  0  0  0  0  0  0  0  0  0  0
   -3.1348   -0.0011    4.1039 O   0  0  0  0  0  0  0  0  0  0  0  0
   -3.5221   -2.6338    2.3083 S   0  0  0  0  0  0  0  0  0  0  0  0
   -2.6210   -1.5284   -0.6381 C   0  0  0  0  0  0  0  0  0  0  0  0
   -3.6712   -1.4399   -1.5743 C   0  0  0  0  0  0  0  0  0  0  0  0
   -4.8006   -0.6169   -1.4841 C   0  0  0  0  0  0  0  0  0  0  0  0
   -5.0833    0.1469   -0.5251 O   0  0  0  0  0  0  0  0  0  0  0  0
   -5.7575   -0.7902   -2.8511 S   0  0  0  0  0  0  0  0  0  0  0  0
   -4.7584   -1.9199   -3.5839 C   0  0  0  0  0  0  0  0  0  0  0  0
   -4.9959   -2.4272   -4.7102 O   0  0  0  0  0  0  0  0  0  0  0  0
   -3.6526   -2.1997   -2.7665 C   0  0  0  0  0  0  0  0  0  0  0  0
   -2.5937   -3.0952   -3.0510 C   0  0  0  0  0  0  0  0  0  0  0  0
   -1.5587   -3.2109   -2.0905 C   0  0  0  0  0  0  0  0  0  0  0  0
   -1.5713   -2.4329   -0.9067 C   0  0  0  0  0  0  0  0  0  0  0  0
   -0.4520   -2.6727   -0.1039 C   0  0  0  0  0  0  0  0  0  0  0  0
   -0.1960   -2.1048    0.9882 O   0  0  0  0  0  0  0  0  0  0  0  0
    0.5327   -3.8392   -0.8010 S   0  0  0  0  0  0  0  0  0  0  0  0
   -0.4468   -4.0629   -2.1467 C   0  0  0  0  0  0  0  0  0  0  0  0
   -0.1964   -4.8970   -3.0534 O   0  0  0  0  0  0  0  0  0  0  0  0
   -2.5501   -3.8038   -4.3494 C   0  0  0  0  0  0  0  0  0  0  0  0
   -1.5632   -3.5806   -5.2257 C   0  0  0  0  0  0  0  0  0  0  0  0
   -1.6910   -3.9654   -6.6487 C   0  0  0  0  0  0  0  0  0  0  0  0
   -1.8391   -5.3119   -7.0624 C   0  0  0  0  0  0  0  0  0  0  0  0
   -1.8060   -6.4512   -6.2450 C   0  0  0  0  0  0  0  0  0  0  0  0
   -1.6397   -6.4646   -4.9982 O   0  0  0  0  0  0  0  0  0  0  0  0
   -1.9751   -7.8418   -7.1721 S   0  0  0  0  0  0  0  0  0  0  0  0
   -2.0807   -7.0304   -8.6364 C   0  0  0  0  0  0  0  0  0  0  0  0
   -2.1932   -7.6108   -9.7484 O   0  0  0  0  0  0  0  0  0  0  0  0
   -1.9994   -5.6458   -8.4315 C   0  0  0  0  0  0  0  0  0  0  0  0
   -2.0108   -4.6448   -9.4302 C   0  0  0  0  0  0  0  0  0  0  0  0
   -1.8348   -3.3049   -9.0200 C   0  0  0  0  0  0  0  0  0  0  0  0
   -1.6817   -2.9696   -7.6537 C   0  0  0  0  0  0  0  0  0  0  0  0
   -1.5712   -1.5834   -7.4583 C   0  0  0  0  0  0  0  0  0  0  0  0
   -1.4486   -0.9976   -6.3504 O   0  0  0  0  0  0  0  0  0  0  0  0
   -1.6425   -0.7794   -8.9299 S   0  0  0  0  0  0  0  0  0  0  0  0
   -1.8285   -2.1728   -9.8476 C   0  0  0  0  0  0  0  0  0  0  0  0
   -1.9650   -2.1727  -11.0978 O   0  0  0  0  0  0  0  0  0  0  0  0
   -2.1823   -4.9730  -10.8619 C   0  0  0  0  0  0  0  0  0  0  0  0
   -3.3308   -5.4528  -11.3338 C   0  0  0  0  0  0  0  0  0  0  0  0
    2.7364   -1.9578    7.1430 H   0  0  0  0  0  0  0  0  0  0  0  0
    5.3529   -0.4391    1.9232 H   0  0  0  0  0  0  0  0  0  0  0  0
    5.0352    1.7727    1.2731 H   0  0  0  0  0  0  0  0  0  0  0  0
    1.5656    6.1506    5.4037 H   0  0  0  0  0  0  0  0  0  0  0  0
   -0.7704    6.2303    5.2833 H   0  0  0  0  0  0  0  0  0  0  0  0
   -3.3745    6.3911    2.5139 H   0  0  0  0  0  0  0  0  0  0  0  0
   -5.0527    3.7055    2.3303 H   0  0  0  0  0  0  0  0  0  0  0  0
   -3.4398   -0.8661    4.5349 H   0  0  0  0  0  0  0  0  0  0  0  0
   -4.8591   -2.3072    2.0183 H   0  0  0  0  0  0  0  0  0  0  0  0
   -3.4269   -4.3611   -4.6629 H   0  0  0  0  0  0  0  0  0  0  0  0
   -0.7366   -2.9395   -4.9377 H   0  0  0  0  0  0  0  0  0  0  0  0
   -1.3891   -4.7273  -11.5537 H   0  0  0  0  0  0  0  0  0  0  0  0
   -4.1609   -5.6661  -10.6727 H   0  0  0  0  0  0  0  0  0  0  0  0
   -3.4388   -5.6423  -12.3922 H   0  0  0  0  0  0  0  0  0  0  0  0
  1  2  2  0
  2  3  1  0
  3  4  2  0
  3  5  1  0
  5  6  1  0
  6  7  2  0
  6  8  1  0
  8  9  2  0
  9 10  1  0
 10 11  2  0
 11 12  1  0
 12 13  2  0
 12 14  1  0
 14 15  1  0
 15 16  2  0
  9 17  1  0
 17 18  2  3
 18 19  1  0
 19 20  2  0
 20 21  1  0
 21 22  2  0
 21 23  1  0
 23 24  1  0
 24 25  2  0
 24 26  1  0
 26 27  2  0
 27 28  1  0
 28 29  2  0
 29 30  1  0
 30 31  2  0
 30 32  1  0
 32 33  1  0
 33 34  2  0
 27 35  1  0
 35 36  2  3
 36 37  1  0
 37 38  1  0
 38 39  1  0
 39 40  2  0
 40 41  1  0
 41 42  1  0
 40 43  1  0
 39 44  1  0
 44 45  1  0
 45 46  1  0
 46 47  2  0
 47 48  1  0
 48 49  1  0
 47 50  1  0
 46 51  1  0
 51 52  2  0
 52 53  1  0
 53 54  2  0
 53 55  1  0
 55 56  1  0
 56 57  2  0
 56 58  1  0
 58 59  2  0
 59 60  1  0
 60 61  2  0
 61 62  1  0
 62 63  2  0
 62 64  1  0
 64 65  1  0
 65 66  2  0
 59 67  1  0
 67 68  2  3
 68 69  1  0
 69 70  2  0
 70 71  1  0
 71 72  2  0
 71 73  1  0
 73 74  1  0
 74 75  2  0
 74 76  1  0
 76 77  2  0
 77 78  1  0
 78 79  2  0
 79 80  1  0
 80 81  2  0
 80 82  1  0
 82 83  1  0
 83 84  2  0
 77 85  1  0
 85 86  2  3
 11  1  1  0
 29 19  1  0
 41 37  2  0
 48 44  2  0
 61 51  1  0
 79 69  1  0
  8  2  1  0
 15 10  1  0
 26 20  1  0
 33 28  1  0
 58 52  1  0
 65 60  1  0
 76 70  1  0
 83 78  1  0
  1 87  1  0
 17 88  1  0
 18 89  1  0
 35 90  1  0
 36 91  1  0
 42 92  1  0
 43 93  1  0
 49 94  1  0
 50 95  1  0
 67 96  1  0
 68 97  1  0
 85 98  1  0
 86 99  1  0
 86100  1  0
M  END

