
     RDKit          3D

110127  0  0  0  0  0  0  0  0999 V2000
    6.8971   -6.6772   -8.2520 C   0  0  0  0  0  0  0  0  0  0  0  0
    5.6222   -7.4810   -7.4489 S   0  0  0  0  0  0  0  0  0  0  0  0
    6.6263   -5.3060   -8.3250 C   0  0  0  0  0  0  0  0  0  0  0  0
    5.3763   -5.0093   -7.7845 C   0  0  0  0  0  0  0  0  0  0  0  0
    4.7159   -3.7640   -7.3483 C   0  0  0  0  0  0  0  0  0  0  0  0
    5.4640   -2.3197   -7.1703 S   0  0  0  0  0  0  0  0  0  0  0  0
    4.7009   -6.0936   -7.3070 C   0  0  0  0  0  0  0  0  0  0  0  0
    3.6134   -5.6218   -6.4883 C   0  0  0  0  0  0  0  0  0  0  0  0
    2.5684   -6.2178   -5.3283 S   0  0  0  0  0  0  0  0  0  0  0  0
    3.6265   -4.2607   -6.4903 C   0  0  0  0  0  0  0  0  0  0  0  0
    2.7688   -3.6750   -5.5620 C   0  0  0  0  0  0  0  0  0  0  0  0
    2.0677   -4.6604   -4.8398 C   0  0  0  0  0  0  0  0  0  0  0  0
    1.0411   -4.4370   -3.8081 C   0  0  0  0  0  0  0  0  0  0  0  0
    0.7998   -3.2405   -3.2607 C   0  0  0  0  0  0  0  0  0  0  0  0
   -0.2672   -3.0196   -2.2690 C   0  0  0  0  0  0  0  0  0  0  0  0
   -0.4359   -1.5657   -1.3935 S   0  0  0  0  0  0  0  0  0  0  0  0
   -1.3390   -3.8909   -1.9839 C   0  0  0  0  0  0  0  0  0  0  0  0
   -2.2038   -3.3216   -1.0604 C   0  0  0  0  0  0  0  0  0  0  0  0
   -3.5387   -3.6612   -0.5412 C   0  0  0  0  0  0  0  0  0  0  0  0
   -4.1246   -5.1725   -0.3317 S   0  0  0  0  0  0  0  0  0  0  0  0
   -1.8338   -2.0836   -0.6372 C   0  0  0  0  0  0  0  0  0  0  0  0
   -2.8820   -1.5598    0.2010 C   0  0  0  0  0  0  0  0  0  0  0  0
   -3.2293   -0.2116    1.1283 S   0  0  0  0  0  0  0  0  0  0  0  0
   -3.8762   -2.4853    0.2756 C   0  0  0  0  0  0  0  0  0  0  0  0
   -4.9458   -2.1146    1.0835 C   0  0  0  0  0  0  0  0  0  0  0  0
   -4.7103   -0.8619    1.6784 C   0  0  0  0  0  0  0  0  0  0  0  0
   -5.6199   -0.1467    2.5915 C   0  0  0  0  0  0  0  0  0  0  0  0
   -6.3800   -0.7082    3.5445 C   0  0  0  0  0  0  0  0  0  0  0  0
   -6.3305   -2.1217    3.9738 C   0  0  0  0  0  0  0  0  0  0  0  0
   -4.9336   -3.1125    4.0538 S   0  0  0  0  0  0  0  0  0  0  0  0
   -7.4088   -2.7777    4.5819 C   0  0  0  0  0  0  0  0  0  0  0  0
   -7.0640   -4.0729    4.9663 C   0  0  0  0  0  0  0  0  0  0  0  0
   -7.6645   -5.0572    5.8862 C   0  0  0  0  0  0  0  0  0  0  0  0
   -8.8720   -4.7281    6.9402 S   0  0  0  0  0  0  0  0  0  0  0  0
   -5.7740   -4.4134    4.6868 C   0  0  0  0  0  0  0  0  0  0  0  0
   -5.4502   -5.6011    5.4320 C   0  0  0  0  0  0  0  0  0  0  0  0
   -4.0857   -6.4308    5.9148 S   0  0  0  0  0  0  0  0  0  0  0  0
   -6.5378   -5.9716    6.1577 C   0  0  0  0  0  0  0  0  0  0  0  0
   -6.2774   -6.9508    7.1158 C   0  0  0  0  0  0  0  0  0  0  0  0
   -4.9272   -7.3393    7.0990 C   0  0  0  0  0  0  0  0  0  0  0  0
   -4.3780   -8.4040    7.9722 C   0  0  0  0  0  0  0  0  0  0  0  0
   -3.0806   -8.6291    8.2302 C   0  0  0  0  0  0  0  0  0  0  0  0
   -1.9843   -7.7659    7.7829 C   0  0  0  0  0  0  0  0  0  0  0  0
   -1.7365   -6.1675    8.3146 S   0  0  0  0  0  0  0  0  0  0  0  0
   -1.1499   -8.0555    6.6992 C   0  0  0  0  0  0  0  0  0  0  0  0
   -0.3312   -6.9679    6.3912 C   0  0  0  0  0  0  0  0  0  0  0  0
    0.2721   -6.5444    5.1143 C   0  0  0  0  0  0  0  0  0  0  0  0
    0.0651   -7.3285    3.6926 S   0  0  0  0  0  0  0  0  0  0  0  0
   -0.5026   -5.8855    7.2153 C   0  0  0  0  0  0  0  0  0  0  0  0
   -0.0916   -4.7062    6.4886 C   0  0  0  0  0  0  0  0  0  0  0  0
   -0.5907   -3.1072    6.4760 S   0  0  0  0  0  0  0  0  0  0  0  0
    0.3393   -5.0806    5.2487 C   0  0  0  0  0  0  0  0  0  0  0  0
    0.3434   -4.0544    4.3040 C   0  0  0  0  0  0  0  0  0  0  0  0
   -0.1083   -2.8478    4.8636 C   0  0  0  0  0  0  0  0  0  0  0  0
   -0.2556   -1.5538    4.1764 C   0  0  0  0  0  0  0  0  0  0  0  0
    0.3521   -1.2836    3.0142 C   0  0  0  0  0  0  0  0  0  0  0  0
    0.2983    0.0401    2.3664 C   0  0  0  0  0  0  0  0  0  0  0  0
    1.3026    0.4668    1.0484 S   0  0  0  0  0  0  0  0  0  0  0  0
   -0.5466    1.1152    2.7045 C   0  0  0  0  0  0  0  0  0  0  0  0
   -0.3184    2.2028    1.8684 C   0  0  0  0  0  0  0  0  0  0  0  0
   -0.8601    3.5673    1.7515 C   0  0  0  0  0  0  0  0  0  0  0  0
   -2.3465    4.0380    2.2339 S   0  0  0  0  0  0  0  0  0  0  0  0
    0.6490    2.0020    0.9356 C   0  0  0  0  0  0  0  0  0  0  0  0
    0.7735    3.1977    0.1423 C   0  0  0  0  0  0  0  0  0  0  0  0
    1.7661    3.8396   -1.0396 S   0  0  0  0  0  0  0  0  0  0  0  0
   -0.1166    4.1172    0.6048 C   0  0  0  0  0  0  0  0  0  0  0  0
   -0.0240    5.3641   -0.0070 C   0  0  0  0  0  0  0  0  0  0  0  0
    0.9933    5.3722   -0.9749 C   0  0  0  0  0  0  0  0  0  0  0  0
    1.4022    6.5742   -1.7244 C   0  0  0  0  0  0  0  0  0  0  0  0
    2.4025    6.5618   -2.6118 C   0  0  0  0  0  0  0  0  0  0  0  0
    2.8692    7.7825   -3.2949 C   0  0  0  0  0  0  0  0  0  0  0  0
    2.2228    9.3563   -3.1013 S   0  0  0  0  0  0  0  0  0  0  0  0
    3.8930    7.7969   -4.2538 C   0  0  0  0  0  0  0  0  0  0  0  0
    4.1294    9.0911   -4.7145 C   0  0  0  0  0  0  0  0  0  0  0  0
    4.8287    9.6395   -5.8906 C   0  0  0  0  0  0  0  0  0  0  0  0
    5.3487    8.7499   -7.1616 S   0  0  0  0  0  0  0  0  0  0  0  0
    3.3259   10.0411   -4.1573 C   0  0  0  0  0  0  0  0  0  0  0  0
    3.4212   11.2407   -4.9532 C   0  0  0  0  0  0  0  0  0  0  0  0
    2.4746   12.5900   -5.2529 S   0  0  0  0  0  0  0  0  0  0  0  0
    4.2787   11.0033   -5.9876 C   0  0  0  0  0  0  0  0  0  0  0  0
    4.2111   11.9418   -7.0140 C   0  0  0  0  0  0  0  0  0  0  0  0
    3.2650   12.9371   -6.7293 C   0  0  0  0  0  0  0  0  0  0  0  0
    2.9503   14.0490   -7.6450 C   0  0  0  0  0  0  0  0  0  0  0  0
    2.0751   15.0037   -7.3410 C   0  0  0  0  0  0  0  0  0  0  0  0
    7.8166   -7.1434   -8.5824 H   0  0  0  0  0  0  0  0  0  0  0  0
    7.3255   -4.5673   -8.6947 H   0  0  0  0  0  0  0  0  0  0  0  0
    2.6755   -2.6054   -5.4207 H   0  0  0  0  0  0  0  0  0  0  0  0
    0.4826   -5.3069   -3.4802 H   0  0  0  0  0  0  0  0  0  0  0  0
    1.4048   -2.3854   -3.5273 H   0  0  0  0  0  0  0  0  0  0  0  0
   -1.5175   -4.8441   -2.4615 H   0  0  0  0  0  0  0  0  0  0  0  0
   -5.8364   -2.7158    1.2243 H   0  0  0  0  0  0  0  0  0  0  0  0
   -5.6721    0.9267    2.4760 H   0  0  0  0  0  0  0  0  0  0  0  0
   -7.0820   -0.0679    4.0618 H   0  0  0  0  0  0  0  0  0  0  0  0
   -8.3673   -2.3222    4.7863 H   0  0  0  0  0  0  0  0  0  0  0  0
   -7.0179   -7.3294    7.8098 H   0  0  0  0  0  0  0  0  0  0  0  0
   -5.0982   -9.0738    8.4288 H   0  0  0  0  0  0  0  0  0  0  0  0
   -2.8165   -9.4918    8.8292 H   0  0  0  0  0  0  0  0  0  0  0  0
   -1.2408   -8.9420    6.0854 H   0  0  0  0  0  0  0  0  0  0  0  0
    0.5689   -4.2090    3.2572 H   0  0  0  0  0  0  0  0  0  0  0  0
   -0.8193   -0.7869    4.6910 H   0  0  0  0  0  0  0  0  0  0  0  0
    0.9697   -2.0350    2.5382 H   0  0  0  0  0  0  0  0  0  0  0  0
   -1.2784    1.1136    3.4980 H   0  0  0  0  0  0  0  0  0  0  0  0
   -0.6194    6.2234    0.2670 H   0  0  0  0  0  0  0  0  0  0  0  0
    0.8776    7.4972   -1.5157 H   0  0  0  0  0  0  0  0  0  0  0  0
    2.9239    5.6381   -2.8283 H   0  0  0  0  0  0  0  0  0  0  0  0
    4.3974    6.9157   -4.6304 H   0  0  0  0  0  0  0  0  0  0  0  0
    4.7699   11.8731   -7.9399 H   0  0  0  0  0  0  0  0  0  0  0  0
    3.4583   14.0936   -8.6001 H   0  0  0  0  0  0  0  0  0  0  0  0
    1.5482   15.0142   -6.3952 H   0  0  0  0  0  0  0  0  0  0  0  0
    1.8835   15.8031   -8.0458 H   0  0  0  0  0  0  0  0  0  0  0  0
  1  2  1  0
  1  3  2  0
  3  4  1  0
  4  5  1  0
  5  6  2  0
  4  7  2  0
  7  8  1  0
  8  9  1  0
  8 10  2  0
 10 11  1  0
 11 12  2  0
 12 13  1  0
 13 14  2  3
 14 15  1  0
 15 16  1  0
 15 17  2  0
 17 18  1  0
 18 19  1  0
 19 20  2  0
 18 21  2  0
 21 22  1  0
 22 23  1  0
 22 24  2  0
 24 25  1  0
 25 26  2  0
 26 27  1  0
 27 28  2  3
 28 29  1  0
 29 30  1  0
 29 31  2  0
 31 32  1  0
 32 33  1  0
 33 34  2  0
 32 35  2  0
 35 36  1  0
 36 37  1  0
 36 38  2  0
 38 39  1  0
 39 40  2  0
 40 41  1  0
 41 42  2  3
 42 43  1  0
 43 44  1  0
 43 45  2  0
 45 46  1  0
 46 47  1  0
 47 48  2  0
 46 49  2  0
 49 50  1  0
 50 51  1  0
 50 52  2  0
 52 53  1  0
 53 54  2  0
 54 55  1  0
 55 56  2  3
 56 57  1  0
 57 58  1  0
 57 59  2  0
 59 60  1  0
 60 61  1  0
 61 62  2  0
 60 63  2  0
 63 64  1  0
 64 65  1  0
 64 66  2  0
 66 67  1  0
 67 68  2  0
 68 69  1  0
 69 70  2  3
 70 71  1  0
 71 72  1  0
 71 73  2  0
 73 74  1  0
 74 75  1  0
 75 76  2  0
 74 77  2  0
 77 78  1  0
 78 79  1  0
 78 80  2  0
 80 81  1  0
 81 82  2  0
 82 83  1  0
 83 84  2  3
  7  2  1  0
 21 16  1  0
 35 30  1  0
 49 44  1  0
 63 58  1  0
 77 72  1  0
 10  5  1  0
 24 19  1  0
 38 33  1  0
 52 47  1  0
 66 61  1  0
 80 75  1  0
 12  9  1  0
 26 23  1  0
 40 37  1  0
 54 51  1  0
 68 65  1  0
 82 79  1  0
  1 85  1  0
  3 86  1  0
 11 87  1  0
 13 88  1  0
 14 89  1  0
 17 90  1  0
 25 91  1  0
 27 92  1  0
 28 93  1  0
 31 94  1  0
 39 95  1  0
 41 96  1  0
 42 97  1  0
 45 98  1  0
 53 99  1  0
 55100  1  0
 56101  1  0
 59102  1  0
 67103  1  0
 69104  1  0
 70105  1  0
 73106  1  0
 81107  1  0
 83108  1  0
 84109  1  0
 84110  1  0
M  END

