
     RDKit          3D

111126  0  0  0  0  0  0  0  0999 V2000
    9.4179   13.1860   -3.1209 C   0  0  0  0  0  0  0  0  0  0  0  0
    7.8461   12.5148   -3.2693 S   0  0  0  0  0  0  0  0  0  0  0  0
    8.4449   10.9760   -3.5104 C   0  0  0  0  0  0  0  0  0  0  0  0
    8.0471    9.6786   -3.6479 C   0  0  0  0  0  0  0  0  0  0  0  0
    9.1796    8.9354   -3.6838 C   0  0  0  0  0  0  0  0  0  0  0  0
   10.2984    9.6978   -3.5835 N   0  0  0  0  0  0  0  0  0  0  0  0
   11.6862    9.2572   -3.4589 C   0  0  0  0  0  0  0  0  0  0  0  0
   12.0128    8.9522   -2.0019 C   0  0  0  0  0  0  0  0  0  0  0  0
    9.7987   10.9549   -3.4692 C   0  0  0  0  0  0  0  0  0  0  0  0
   10.3986   12.1880   -3.2459 C   0  0  0  0  0  0  0  0  0  0  0  0
    8.9845    7.5602   -3.7353 C   0  0  0  0  0  0  0  0  0  0  0  0
    7.6056    7.2709   -3.7521 C   0  0  0  0  0  0  0  0  0  0  0  0
    6.6822    8.7194   -3.6778 S   0  0  0  0  0  0  0  0  0  0  0  0
    7.0257    5.9190   -3.8200 C   0  0  0  0  0  0  0  0  0  0  0  0
    5.3409    5.5953   -3.9290 S   0  0  0  0  0  0  0  0  0  0  0  0
    5.5884    3.9451   -3.9931 C   0  0  0  0  0  0  0  0  0  0  0  0
    4.9155    2.7581   -4.0465 C   0  0  0  0  0  0  0  0  0  0  0  0
    5.8625    1.7878   -4.0065 C   0  0  0  0  0  0  0  0  0  0  0  0
    7.1206    2.2936   -3.9378 N   0  0  0  0  0  0  0  0  0  0  0  0
    8.3830    1.5749   -3.7784 C   0  0  0  0  0  0  0  0  0  0  0  0
    8.6627    1.3195   -2.3025 C   0  0  0  0  0  0  0  0  0  0  0  0
    6.9060    3.6333   -3.9233 C   0  0  0  0  0  0  0  0  0  0  0  0
    7.7654    4.7192   -3.8205 C   0  0  0  0  0  0  0  0  0  0  0  0
    5.3743    0.4878   -4.0064 C   0  0  0  0  0  0  0  0  0  0  0  0
    3.9663    0.5021   -4.0553 C   0  0  0  0  0  0  0  0  0  0  0  0
    3.3718    2.1164   -4.0845 S   0  0  0  0  0  0  0  0  0  0  0  0
    3.1116   -0.6969   -4.0684 C   0  0  0  0  0  0  0  0  0  0  0  0
    1.3980   -0.6585   -4.1043 S   0  0  0  0  0  0  0  0  0  0  0  0
    1.2763   -2.3247   -4.0582 C   0  0  0  0  0  0  0  0  0  0  0  0
    0.3636   -3.2717   -3.6908 C   0  0  0  0  0  0  0  0  0  0  0  0
    1.0736   -4.3829   -3.3675 C   0  0  0  0  0  0  0  0  0  0  0  0
    2.4106   -4.1996   -3.5253 N   0  0  0  0  0  0  0  0  0  0  0  0
    3.4903   -5.0380   -3.0027 C   0  0  0  0  0  0  0  0  0  0  0  0
    3.7505   -4.7199   -1.5325 C   0  0  0  0  0  0  0  0  0  0  0  0
    2.4973   -2.9090   -3.9422 C   0  0  0  0  0  0  0  0  0  0  0  0
    3.5709   -2.0223   -3.9451 C   0  0  0  0  0  0  0  0  0  0  0  0
    0.3644   -5.3418   -2.6487 C   0  0  0  0  0  0  0  0  0  0  0  0
   -0.9594   -4.9146   -2.4258 C   0  0  0  0  0  0  0  0  0  0  0  0
   -1.1856   -3.3414   -3.0727 S   0  0  0  0  0  0  0  0  0  0  0  0
   -1.9880   -5.6268   -1.6403 C   0  0  0  0  0  0  0  0  0  0  0  0
   -3.5705   -5.0874   -1.4560 S   0  0  0  0  0  0  0  0  0  0  0  0
   -4.0895   -6.3063   -0.4194 C   0  0  0  0  0  0  0  0  0  0  0  0
   -3.0159   -7.1746   -0.1996 C   0  0  0  0  0  0  0  0  0  0  0  0
   -1.8450   -6.7939   -0.8847 C   0  0  0  0  0  0  0  0  0  0  0  0
   -0.6513   -7.5076   -0.8114 O   0  0  0  0  0  0  0  0  0  0  0  0
   -3.1144   -8.6624    0.8036 S   0  0  0  0  0  0  0  0  0  0  0  0
   -5.4321   -6.3595    0.1871 C   0  0  0  0  0  0  0  0  0  0  0  0
   -5.7558   -6.8629    1.7930 S   0  0  0  0  0  0  0  0  0  0  0  0
   -7.3689   -6.4376    1.6959 C   0  0  0  0  0  0  0  0  0  0  0  0
   -8.3455   -6.0442    2.5659 C   0  0  0  0  0  0  0  0  0  0  0  0
   -9.1840   -5.2377    1.8594 C   0  0  0  0  0  0  0  0  0  0  0  0
   -8.7906   -5.1006    0.5648 N   0  0  0  0  0  0  0  0  0  0  0  0
   -9.2418   -4.0930   -0.3956 C   0  0  0  0  0  0  0  0  0  0  0  0
   -8.5029   -2.7757   -0.1796 C   0  0  0  0  0  0  0  0  0  0  0  0
   -7.6542   -5.8440    0.5049 C   0  0  0  0  0  0  0  0  0  0  0  0
   -6.5794   -5.7755   -0.3789 C   0  0  0  0  0  0  0  0  0  0  0  0
  -10.0038   -4.4255    2.6418 C   0  0  0  0  0  0  0  0  0  0  0  0
   -9.7376   -4.6245    4.0082 C   0  0  0  0  0  0  0  0  0  0  0  0
   -8.4673   -5.7540    4.2099 S   0  0  0  0  0  0  0  0  0  0  0  0
  -10.3558   -3.8641    5.1053 C   0  0  0  0  0  0  0  0  0  0  0  0
  -11.6754   -2.7785    4.9141 S   0  0  0  0  0  0  0  0  0  0  0  0
  -11.6867   -2.3892    6.5397 C   0  0  0  0  0  0  0  0  0  0  0  0
  -12.3647   -1.6554    7.4705 C   0  0  0  0  0  0  0  0  0  0  0  0
  -11.7795   -1.9195    8.6647 C   0  0  0  0  0  0  0  0  0  0  0  0
  -10.7383   -2.7819    8.5477 N   0  0  0  0  0  0  0  0  0  0  0  0
   -9.9214   -3.3680    9.6093 C   0  0  0  0  0  0  0  0  0  0  0  0
  -10.5559   -4.6603   10.1081 C   0  0  0  0  0  0  0  0  0  0  0  0
  -10.7237   -3.0612    7.2189 C   0  0  0  0  0  0  0  0  0  0  0  0
   -9.9444   -3.9179    6.4503 C   0  0  0  0  0  0  0  0  0  0  0  0
  -12.3692   -1.2936    9.7546 C   0  0  0  0  0  0  0  0  0  0  0  0
  -13.4650   -0.5210    9.3344 C   0  0  0  0  0  0  0  0  0  0  0  0
  -13.6778   -0.6373    7.6345 S   0  0  0  0  0  0  0  0  0  0  0  0
    9.6270   14.2307   -2.9382 H   0  0  0  0  0  0  0  0  0  0  0  0
   11.8484    8.3444   -4.0725 H   0  0  0  0  0  0  0  0  0  0  0  0
   12.3711   10.0492   -3.8354 H   0  0  0  0  0  0  0  0  0  0  0  0
   11.8837    9.8662   -1.3847 H   0  0  0  0  0  0  0  0  0  0  0  0
   13.0648    8.6073   -1.9194 H   0  0  0  0  0  0  0  0  0  0  0  0
   11.3410    8.1550   -1.6163 H   0  0  0  0  0  0  0  0  0  0  0  0
   11.4640   12.3549   -3.1654 H   0  0  0  0  0  0  0  0  0  0  0  0
    9.7825    6.8300   -3.7544 H   0  0  0  0  0  0  0  0  0  0  0  0
    9.2133    2.1711   -4.2150 H   0  0  0  0  0  0  0  0  0  0  0  0
    8.3342    0.6066   -4.3219 H   0  0  0  0  0  0  0  0  0  0  0  0
    7.8494    0.7053   -1.8601 H   0  0  0  0  0  0  0  0  0  0  0  0
    9.6222    0.7716   -2.1957 H   0  0  0  0  0  0  0  0  0  0  0  0
    8.7342    2.2831   -1.7540 H   0  0  0  0  0  0  0  0  0  0  0  0
    8.8414    4.6416   -3.7474 H   0  0  0  0  0  0  0  0  0  0  0  0
    5.9930   -0.3991   -3.9651 H   0  0  0  0  0  0  0  0  0  0  0  0
    4.4194   -4.8624   -3.5873 H   0  0  0  0  0  0  0  0  0  0  0  0
    3.2178   -6.1107   -3.1099 H   0  0  0  0  0  0  0  0  0  0  0  0
    4.0392   -3.6539   -1.4162 H   0  0  0  0  0  0  0  0  0  0  0  0
    4.5745   -5.3599   -1.1520 H   0  0  0  0  0  0  0  0  0  0  0  0
    2.8383   -4.9139   -0.9300 H   0  0  0  0  0  0  0  0  0  0  0  0
    4.6013   -2.3121   -3.7835 H   0  0  0  0  0  0  0  0  0  0  0  0
    0.8107   -6.2434   -2.2600 H   0  0  0  0  0  0  0  0  0  0  0  0
   -0.5557   -8.3463   -0.2521 H   0  0  0  0  0  0  0  0  0  0  0  0
   -2.7082   -7.9750    1.9635 H   0  0  0  0  0  0  0  0  0  0  0  0
   -9.0550   -4.4560   -1.4300 H   0  0  0  0  0  0  0  0  0  0  0  0
  -10.3360   -3.9283   -0.2821 H   0  0  0  0  0  0  0  0  0  0  0  0
   -7.4118   -2.9149   -0.3405 H   0  0  0  0  0  0  0  0  0  0  0  0
   -8.6751   -2.4036    0.8519 H   0  0  0  0  0  0  0  0  0  0  0  0
   -8.8787   -2.0209   -0.9017 H   0  0  0  0  0  0  0  0  0  0  0  0
   -6.5989   -5.2522   -1.3252 H   0  0  0  0  0  0  0  0  0  0  0  0
  -10.6669   -3.6655    2.2488 H   0  0  0  0  0  0  0  0  0  0  0  0
   -8.9005   -3.5783    9.2250 H   0  0  0  0  0  0  0  0  0  0  0  0
   -9.8268   -2.6512   10.4532 H   0  0  0  0  0  0  0  0  0  0  0  0
   -9.9301   -5.0950   10.9168 H   0  0  0  0  0  0  0  0  0  0  0  0
  -10.6337   -5.3930    9.2765 H   0  0  0  0  0  0  0  0  0  0  0  0
  -11.5703   -4.4524   10.5103 H   0  0  0  0  0  0  0  0  0  0  0  0
   -9.1411   -4.5336    6.8365 H   0  0  0  0  0  0  0  0  0  0  0  0
  -12.0456   -1.3987   10.7806 H   0  0  0  0  0  0  0  0  0  0  0  0
  -14.0901    0.0658    9.9946 H   0  0  0  0  0  0  0  0  0  0  0  0
  1  2  1  0
  2  3  1  0
  3  4  1  0
  4  5  2  0
  5  6  1  0
  6  7  1  0
  7  8  1  0
  6  9  1  0
  9 10  1  0
  5 11  1  0
 11 12  2  0
 12 13  1  0
 12 14  1  0
 14 15  1  0
 15 16  1  0
 16 17  1  0
 17 18  2  0
 18 19  1  0
 19 20  1  0
 20 21  1  0
 19 22  1  0
 22 23  1  0
 18 24  1  0
 24 25  2  0
 25 26  1  0
 25 27  1  0
 27 28  1  0
 28 29  1  0
 29 30  1  0
 30 31  2  0
 31 32  1  0
 32 33  1  0
 33 34  1  0
 32 35  1  0
 35 36  1  0
 31 37  1  0
 37 38  2  0
 38 39  1  0
 38 40  1  0
 40 41  1  0
 41 42  1  0
 42 43  2  0
 43 44  1  0
 44 45  1  0
 43 46  1  0
 42 47  1  0
 47 48  1  0
 48 49  1  0
 49 50  1  0
 50 51  2  0
 51 52  1  0
 52 53  1  0
 53 54  1  0
 52 55  1  0
 55 56  1  0
 51 57  1  0
 57 58  2  0
 58 59  1  0
 58 60  1  0
 60 61  1  0
 61 62  1  0
 62 63  1  0
 63 64  2  0
 64 65  1  0
 65 66  1  0
 66 67  1  0
 65 68  1  0
 68 69  1  0
 64 70  1  0
 70 71  2  0
 71 72  1  0
 10  1  2  0
 23 14  2  0
 36 27  2  0
 44 40  2  0
 56 47  2  0
 69 60  2  0
  9  3  2  0
 22 16  2  0
 35 29  2  0
 55 49  2  0
 68 62  2  0
 13  4  1  0
 26 17  1  0
 39 30  1  0
 59 50  1  0
 72 63  1  0
  1 73  1  0
  7 74  1  0
  7 75  1  0
  8 76  1  0
  8 77  1  0
  8 78  1  0
 10 79  1  0
 11 80  1  0
 20 81  1  0
 20 82  1  0
 21 83  1  0
 21 84  1  0
 21 85  1  0
 23 86  1  0
 24 87  1  0
 33 88  1  0
 33 89  1  0
 34 90  1  0
 34 91  1  0
 34 92  1  0
 36 93  1  0
 37 94  1  0
 45 95  1  0
 46 96  1  0
 53 97  1  0
 53 98  1  0
 54 99  1  0
 54100  1  0
 54101  1  0
 56102  1  0
 57103  1  0
 66104  1  0
 66105  1  0
 67106  1  0
 67107  1  0
 67108  1  0
 69109  1  0
 70110  1  0
 71111  1  0
M  END

