
     RDKit          3D

 71 79  0  0  0  0  0  0  0  0999 V2000
    1.2310   -3.7404   10.0489 C   0  0  0  0  0  0  0  0  0  0  0  0
    2.4265   -2.7078    9.0686 S   0  0  0  0  0  0  0  0  0  0  0  0
    1.2925   -3.5108    7.9016 C   0  0  2  0  0  0  0  0  0  0  0  0
    0.9831   -4.6145    8.8456 C   0  0  2  0  0  0  0  0  0  0  0  0
   -0.2745   -5.1188    8.3424 N   0  0  0  0  0  0  0  0  0  0  0  0
    0.0569   -5.2099    6.8910 C   0  0  0  0  0  0  0  0  0  0  0  0
    1.3300   -4.3158    6.6325 C   0  0  0  0  0  0  0  0  0  0  0  0
    1.2651   -3.4277    5.4110 C   0  0  0  0  0  0  0  0  0  0  0  0
   -0.1338   -2.8369    4.6812 S   0  0  0  0  0  0  0  0  0  0  0  0
    0.6208   -1.8537    3.5391 C   0  0  0  0  0  0  0  0  0  0  0  0
    1.9952   -1.9313    3.7531 C   0  0  0  0  0  0  0  0  0  0  0  0
    2.3534   -2.7986    4.7959 C   0  0  0  0  0  0  0  0  0  0  0  0
    3.6806   -2.9812    5.1790 O   0  0  0  0  0  0  0  0  0  0  0  0
    3.2007   -0.9640    2.8416 S   0  0  0  0  0  0  0  0  0  0  0  0
   -0.0754   -0.9647    2.5346 C   0  0  0  0  0  0  0  0  0  0  0  0
   -1.9140   -1.2588    2.3950 S   0  0  0  0  0  0  0  0  0  0  0  0
   -1.0997   -2.2629    1.1193 C   0  0  2  0  0  0  0  0  0  0  0  0
    0.1086   -1.4002    1.0936 C   0  0  2  0  0  0  0  0  0  0  0  0
    1.1071   -2.2660    0.5081 N   0  0  0  0  0  0  0  0  0  0  0  0
    0.3318   -2.8039   -0.6461 C   0  0  0  0  0  0  0  0  0  0  0  0
   -1.2024   -2.6037   -0.3443 C   0  0  0  0  0  0  0  0  0  0  0  0
   -1.9135   -1.5303   -1.1426 C   0  0  0  0  0  0  0  0  0  0  0  0
   -1.2095   -0.3934   -2.1708 S   0  0  0  0  0  0  0  0  0  0  0  0
   -2.6267    0.4291   -2.5767 C   0  0  0  0  0  0  0  0  0  0  0  0
   -3.6812   -0.1932   -1.9119 C   0  0  0  0  0  0  0  0  0  0  0  0
   -3.2856   -1.2724   -1.1097 C   0  0  0  0  0  0  0  0  0  0  0  0
   -4.1965   -2.0074   -0.3515 O   0  0  0  0  0  0  0  0  0  0  0  0
   -5.3899    0.3312   -2.0531 S   0  0  0  0  0  0  0  0  0  0  0  0
   -2.7719    1.5872   -3.5360 C   0  0  0  0  0  0  0  0  0  0  0  0
   -3.1873    1.0142   -5.2554 S   0  0  0  0  0  0  0  0  0  0  0  0
   -1.3992    1.3481   -5.2169 C   0  0  2  0  0  0  0  0  0  0  0  0
   -1.4987    2.2472   -4.0388 C   0  0  2  0  0  0  0  0  0  0  0  0
   -0.1611    2.2131   -3.4920 N   0  0  0  0  0  0  0  0  0  0  0  0
    0.6280    2.4181   -4.7400 C   0  0  0  0  0  0  0  0  0  0  0  0
   -0.2816    2.0346   -5.9698 C   0  0  0  0  0  0  0  0  0  0  0  0
   -0.6917    3.2290   -6.8077 C   0  0  0  0  0  0  0  0  0  0  0  0
   -2.2615    3.6676   -7.2455 S   0  0  0  0  0  0  0  0  0  0  0  0
   -1.8470    4.9545   -8.2440 C   0  0  0  0  0  0  0  0  0  0  0  0
   -0.4618    5.0421   -8.2751 C   0  0  0  0  0  0  0  0  0  0  0  0
    0.1836    4.0776   -7.4833 C   0  0  0  0  0  0  0  0  0  0  0  0
    1.5690    3.9548   -7.3881 O   0  0  0  0  0  0  0  0  0  0  0  0
    0.3941    6.2794   -9.2472 S   0  0  0  0  0  0  0  0  0  0  0  0
    0.3288   -3.1656   10.3553 H   0  0  0  0  0  0  0  0  0  0  0  0
    1.7214   -4.2807   10.8866 H   0  0  0  0  0  0  0  0  0  0  0  0
    0.4349   -2.7928    7.8156 H   0  0  0  0  0  0  0  0  0  0  0  0
    1.7627   -5.4247    8.8532 H   0  0  0  0  0  0  0  0  0  0  0  0
   -0.4191   -6.0819    8.7232 H   0  0  0  0  0  0  0  0  0  0  0  0
    0.2768   -6.2621    6.6028 H   0  0  0  0  0  0  0  0  0  0  0  0
   -0.8266   -4.8786    6.3109 H   0  0  0  0  0  0  0  0  0  0  0  0
    2.2377   -4.9596    6.5866 H   0  0  0  0  0  0  0  0  0  0  0  0
    3.9414   -3.5600    5.9697 H   0  0  0  0  0  0  0  0  0  0  0  0
    3.1002    0.1137    3.7424 H   0  0  0  0  0  0  0  0  0  0  0  0
    0.1583    0.1088    2.6982 H   0  0  0  0  0  0  0  0  0  0  0  0
   -0.8950   -3.2346    1.6385 H   0  0  0  0  0  0  0  0  0  0  0  0
   -0.0229   -0.4793    0.4692 H   0  0  0  0  0  0  0  0  0  0  0  0
    1.8861   -1.6697    0.1453 H   0  0  0  0  0  0  0  0  0  0  0  0
    0.6440   -2.3223   -1.5976 H   0  0  0  0  0  0  0  0  0  0  0  0
    0.5514   -3.8896   -0.7394 H   0  0  0  0  0  0  0  0  0  0  0  0
   -1.7399   -3.5663   -0.4811 H   0  0  0  0  0  0  0  0  0  0  0  0
   -3.9057   -2.7824    0.2327 H   0  0  0  0  0  0  0  0  0  0  0  0
   -5.2601    1.2205   -0.9704 H   0  0  0  0  0  0  0  0  0  0  0  0
   -3.5050    2.3377   -3.1658 H   0  0  0  0  0  0  0  0  0  0  0  0
   -0.9761    0.3510   -4.9360 H   0  0  0  0  0  0  0  0  0  0  0  0
   -1.7736    3.2988   -4.3175 H   0  0  0  0  0  0  0  0  0  0  0  0
   -0.0370    3.0435   -2.8659 H   0  0  0  0  0  0  0  0  0  0  0  0
    0.9854    3.4711   -4.8070 H   0  0  0  0  0  0  0  0  0  0  0  0
    1.5176    1.7526   -4.7122 H   0  0  0  0  0  0  0  0  0  0  0  0
    0.2374    1.3039   -6.6278 H   0  0  0  0  0  0  0  0  0  0  0  0
   -2.5365    5.5846   -8.7884 H   0  0  0  0  0  0  0  0  0  0  0  0
    2.1953    4.5667   -7.8939 H   0  0  0  0  0  0  0  0  0  0  0  0
    0.3615    7.2087   -8.1930 H   0  0  0  0  0  0  0  0  0  0  0  0
  1  2  1  0
  2  3  1  0
  3  4  1  0
  4  5  1  0
  5  6  1  0
  6  7  1  0
  7  8  1  0
  8  9  1  0
  9 10  1  0
 10 11  2  0
 11 12  1  0
 12 13  1  0
 11 14  1  0
 10 15  1  0
 15 16  1  0
 16 17  1  0
 17 18  1  0
 18 19  1  0
 19 20  1  0
 20 21  1  0
 21 22  1  0
 22 23  1  0
 23 24  1  0
 24 25  2  0
 25 26  1  0
 26 27  1  0
 25 28  1  0
 24 29  1  0
 29 30  1  0
 30 31  1  0
 31 32  1  0
 32 33  1  0
 33 34  1  0
 34 35  1  0
 35 36  1  0
 36 37  1  0
 37 38  1  0
 38 39  2  0
 39 40  1  0
 40 41  1  0
 39 42  1  0
  4  1  1  0
 12  8  2  0
 18 15  1  0
 26 22  2  0
 32 29  1  0
 40 36  2  0
  7  3  1  0
 21 17  1  0
 35 31  1  0
  1 43  1  0
  1 44  1  0
  3 45  1  6
  4 46  1  6
  5 47  1  0
  6 48  1  0
  6 49  1  0
  7 50  1  0
 13 51  1  0
 14 52  1  0
 15 53  1  0
 17 54  1  1
 18 55  1  6
 19 56  1  0
 20 57  1  0
 20 58  1  0
 21 59  1  0
 27 60  1  0
 28 61  1  0
 29 62  1  0
 31 63  1  1
 32 64  1  6
 33 65  1  0
 34 66  1  0
 34 67  1  0
 35 68  1  0
 38 69  1  0
 41 70  1  0
 42 71  1  0
M  END

