
     RDKit          3D

104115  0  0  0  0  0  0  0  0999 V2000
    4.5737    0.5359    9.6522 C   0  0  0  0  0  0  0  0  0  0  0  0
    5.6941    0.6838    8.8503 C   0  0  0  0  0  0  0  0  0  0  0  0
    6.9652    0.7789    9.3094 N   0  0  0  0  0  0  0  0  0  0  0  0
    8.0059    0.8904    8.4334 C   0  0  0  0  0  0  0  0  0  0  0  0
    9.4000    0.9906    8.9759 C   0  0  0  0  0  0  0  0  0  0  0  0
    7.7452    0.8915    7.0361 C   0  0  0  0  0  0  0  0  0  0  0  0
    8.8477    1.0030    6.0254 C   0  0  0  0  0  0  0  0  0  0  0  0
    6.4584    0.7912    6.5959 N   0  0  0  0  0  0  0  0  0  0  0  0
    5.4340    0.7029    7.4783 C   0  0  0  0  0  0  0  0  0  0  0  0
    4.0854    0.5775    7.1522 C   0  0  0  0  0  0  0  0  0  0  0  0
    3.2496    0.4203    8.6128 S   0  0  0  0  0  0  0  0  0  0  0  0
    3.4595    0.5334    5.8161 C   0  0  0  0  0  0  0  0  0  0  0  0
    3.9101    1.0982    4.6242 C   0  0  0  0  0  0  0  0  0  0  0  0
    5.0364    1.8368    4.4762 N   0  0  0  0  0  0  0  0  0  0  0  0
    5.3753    2.3507    3.2592 C   0  0  0  0  0  0  0  0  0  0  0  0
    6.6413    3.1444    3.1374 C   0  0  0  0  0  0  0  0  0  0  0  0
    4.5297    2.1137    2.1434 C   0  0  0  0  0  0  0  0  0  0  0  0
    4.8485    2.6520    0.7799 C   0  0  0  0  0  0  0  0  0  0  0  0
    3.3878    1.3880    2.3134 N   0  0  0  0  0  0  0  0  0  0  0  0
    3.0669    0.8829    3.5304 C   0  0  0  0  0  0  0  0  0  0  0  0
    1.9204    0.1479    3.8218 C   0  0  0  0  0  0  0  0  0  0  0  0
    1.9850   -0.2150    5.4716 S   0  0  0  0  0  0  0  0  0  0  0  0
    0.8451   -0.2388    2.8843 C   0  0  0  0  0  0  0  0  0  0  0  0
   -0.2657   -1.0377    3.1453 C   0  0  0  0  0  0  0  0  0  0  0  0
   -0.5619   -1.6078    4.3390 N   0  0  0  0  0  0  0  0  0  0  0  0
   -1.6789   -2.3784    4.4796 C   0  0  0  0  0  0  0  0  0  0  0  0
   -1.9729   -2.9880    5.8177 C   0  0  0  0  0  0  0  0  0  0  0  0
   -2.5341   -2.5773    3.3626 C   0  0  0  0  0  0  0  0  0  0  0  0
   -3.7738   -3.4165    3.4549 C   0  0  0  0  0  0  0  0  0  0  0  0
   -2.2214   -1.9967    2.1689 N   0  0  0  0  0  0  0  0  0  0  0  0
   -1.1056   -1.2369    2.0451 C   0  0  0  0  0  0  0  0  0  0  0  0
   -0.6890   -0.5995    0.8793 C   0  0  0  0  0  0  0  0  0  0  0  0
    0.7464    0.2049    1.2572 S   0  0  0  0  0  0  0  0  0  0  0  0
   -1.3439   -0.6272   -0.4445 C   0  0  0  0  0  0  0  0  0  0  0  0
   -0.9705    0.0750   -1.5878 C   0  0  0  0  0  0  0  0  0  0  0  0
    0.0682    0.9419   -1.6735 N   0  0  0  0  0  0  0  0  0  0  0  0
    0.3420    1.5811   -2.8469 C   0  0  0  0  0  0  0  0  0  0  0  0
    1.4980    2.5348   -2.8967 C   0  0  0  0  0  0  0  0  0  0  0  0
   -0.4763    1.3347   -3.9817 C   0  0  0  0  0  0  0  0  0  0  0  0
   -0.2298    2.0128   -5.2963 C   0  0  0  0  0  0  0  0  0  0  0  0
   -1.5184    0.4606   -3.8781 N   0  0  0  0  0  0  0  0  0  0  0  0
   -1.7738   -0.1698   -2.7050 C   0  0  0  0  0  0  0  0  0  0  0  0
   -2.8090   -1.0750   -2.4823 C   0  0  0  0  0  0  0  0  0  0  0  0
   -2.6920   -1.5542   -0.8657 S   0  0  0  0  0  0  0  0  0  0  0  0
   -3.8087   -1.5538   -3.4592 C   0  0  0  0  0  0  0  0  0  0  0  0
   -4.8741   -2.4194   -3.2247 C   0  0  0  0  0  0  0  0  0  0  0  0
   -5.1898   -2.9698   -2.0265 N   0  0  0  0  0  0  0  0  0  0  0  0
   -6.2579   -3.8099   -1.9108 C   0  0  0  0  0  0  0  0  0  0  0  0
   -6.5705   -4.4014   -0.5681 C   0  0  0  0  0  0  0  0  0  0  0  0
   -7.0396   -4.1053   -3.0597 C   0  0  0  0  0  0  0  0  0  0  0  0
   -8.2235   -5.0234   -2.9937 C   0  0  0  0  0  0  0  0  0  0  0  0
   -6.7085   -3.5430   -4.2579 N   0  0  0  0  0  0  0  0  0  0  0  0
   -5.6437   -2.7093   -4.3554 C   0  0  0  0  0  0  0  0  0  0  0  0
   -5.2108   -2.0831   -5.5224 C   0  0  0  0  0  0  0  0  0  0  0  0
   -3.8547   -1.1662   -5.1029 S   0  0  0  0  0  0  0  0  0  0  0  0
   -5.7961   -2.1932   -6.8753 C   0  0  0  0  0  0  0  0  0  0  0  0
   -5.3327   -1.6001   -8.0471 C   0  0  0  0  0  0  0  0  0  0  0  0
   -4.2471   -0.7947   -8.1488 N   0  0  0  0  0  0  0  0  0  0  0  0
   -3.8848   -0.2719   -9.3556 C   0  0  0  0  0  0  0  0  0  0  0  0
   -2.6759    0.6130   -9.4252 C   0  0  0  0  0  0  0  0  0  0  0  0
   -4.6559   -0.5804  -10.5095 C   0  0  0  0  0  0  0  0  0  0  0  0
   -4.3025   -0.0383  -11.8626 C   0  0  0  0  0  0  0  0  0  0  0  0
   -5.7473   -1.3916  -10.3893 N   0  0  0  0  0  0  0  0  0  0  0  0
   -6.0896   -1.9005   -9.1809 C   0  0  0  0  0  0  0  0  0  0  0  0
   -7.1724   -2.7340   -8.9516 C   0  0  0  0  0  0  0  0  0  0  0  0
   -7.1646   -3.0908   -7.3023 S   0  0  0  0  0  0  0  0  0  0  0  0
    4.5547    0.4887   10.7326 H   0  0  0  0  0  0  0  0  0  0  0  0
    9.8756    1.9311    8.6281 H   0  0  0  0  0  0  0  0  0  0  0  0
   10.0008    0.1216    8.6358 H   0  0  0  0  0  0  0  0  0  0  0  0
    9.3856    0.9954   10.0864 H   0  0  0  0  0  0  0  0  0  0  0  0
    8.4354    0.9650    4.9948 H   0  0  0  0  0  0  0  0  0  0  0  0
    9.3819    1.9671    6.1532 H   0  0  0  0  0  0  0  0  0  0  0  0
    9.5622    0.1625    6.1485 H   0  0  0  0  0  0  0  0  0  0  0  0
    7.1388    3.2351    4.1263 H   0  0  0  0  0  0  0  0  0  0  0  0
    6.4170    4.1653    2.7640 H   0  0  0  0  0  0  0  0  0  0  0  0
    7.3388    2.6361    2.4390 H   0  0  0  0  0  0  0  0  0  0  0  0
    4.8677    3.7613    0.8074 H   0  0  0  0  0  0  0  0  0  0  0  0
    4.0793    2.3320    0.0450 H   0  0  0  0  0  0  0  0  0  0  0  0
    5.8349    2.2717    0.4413 H   0  0  0  0  0  0  0  0  0  0  0  0
   -1.1695   -2.7377    6.5438 H   0  0  0  0  0  0  0  0  0  0  0  0
   -2.0304   -4.0932    5.7270 H   0  0  0  0  0  0  0  0  0  0  0  0
   -2.9356   -2.5965    6.2079 H   0  0  0  0  0  0  0  0  0  0  0  0
   -3.5048   -4.4610    3.7155 H   0  0  0  0  0  0  0  0  0  0  0  0
   -4.4545   -3.0035    4.2289 H   0  0  0  0  0  0  0  0  0  0  0  0
   -4.3120   -3.4243    2.4828 H   0  0  0  0  0  0  0  0  0  0  0  0
    2.2274    2.2060   -3.6658 H   0  0  0  0  0  0  0  0  0  0  0  0
    1.1347    3.5558   -3.1383 H   0  0  0  0  0  0  0  0  0  0  0  0
    2.0159    2.5699   -1.9144 H   0  0  0  0  0  0  0  0  0  0  0  0
    0.7772    1.7441   -5.6771 H   0  0  0  0  0  0  0  0  0  0  0  0
   -0.9850    1.6946   -6.0461 H   0  0  0  0  0  0  0  0  0  0  0  0
   -0.2992    3.1138   -5.1727 H   0  0  0  0  0  0  0  0  0  0  0  0
   -7.5893   -4.0987   -0.2489 H   0  0  0  0  0  0  0  0  0  0  0  0
   -5.8445   -4.0457    0.1941 H   0  0  0  0  0  0  0  0  0  0  0  0
   -6.5101   -5.5094   -0.6193 H   0  0  0  0  0  0  0  0  0  0  0  0
   -7.9005   -6.0338   -2.6669 H   0  0  0  0  0  0  0  0  0  0  0  0
   -8.7024   -5.1133   -3.9924 H   0  0  0  0  0  0  0  0  0  0  0  0
   -8.9738   -4.6237   -2.2788 H   0  0  0  0  0  0  0  0  0  0  0  0
   -2.9613    1.6155   -9.8063 H   0  0  0  0  0  0  0  0  0  0  0  0
   -1.9154    0.1624  -10.0961 H   0  0  0  0  0  0  0  0  0  0  0  0
   -2.2261    0.7365   -8.4173 H   0  0  0  0  0  0  0  0  0  0  0  0
   -4.3309    1.0713  -11.8472 H   0  0  0  0  0  0  0  0  0  0  0  0
   -3.2864   -0.3793  -12.1523 H   0  0  0  0  0  0  0  0  0  0  0  0
   -5.0252   -0.3968  -12.6267 H   0  0  0  0  0  0  0  0  0  0  0  0
   -7.8812   -3.0895   -9.6874 H   0  0  0  0  0  0  0  0  0  0  0  0
  1  2  2  0
  2  3  1  0
  3  4  2  0
  4  5  1  0
  4  6  1  0
  6  7  1  0
  6  8  2  0
  8  9  1  0
  9 10  2  0
 10 11  1  0
 10 12  1  0
 12 13  2  0
 13 14  1  0
 14 15  2  0
 15 16  1  0
 15 17  1  0
 17 18  1  0
 17 19  2  0
 19 20  1  0
 20 21  2  0
 21 22  1  0
 21 23  1  0
 23 24  2  0
 24 25  1  0
 25 26  2  0
 26 27  1  0
 26 28  1  0
 28 29  1  0
 28 30  2  0
 30 31  1  0
 31 32  2  0
 32 33  1  0
 32 34  1  0
 34 35  2  0
 35 36  1  0
 36 37  2  0
 37 38  1  0
 37 39  1  0
 39 40  1  0
 39 41  2  0
 41 42  1  0
 42 43  2  0
 43 44  1  0
 43 45  1  0
 45 46  2  0
 46 47  1  0
 47 48  2  0
 48 49  1  0
 48 50  1  0
 50 51  1  0
 50 52  2  0
 52 53  1  0
 53 54  2  0
 54 55  1  0
 54 56  1  0
 56 57  2  0
 57 58  1  0
 58 59  2  0
 59 60  1  0
 59 61  1  0
 61 62  1  0
 61 63  2  0
 63 64  1  0
 64 65  2  0
 65 66  1  0
 11  1  1  0
 22 12  1  0
 33 23  1  0
 44 34  1  0
 55 45  1  0
 66 56  1  0
  9  2  1  0
 20 13  1  0
 31 24  1  0
 42 35  1  0
 53 46  1  0
 64 57  1  0
  1 67  1  0
  5 68  1  0
  5 69  1  0
  5 70  1  0
  7 71  1  0
  7 72  1  0
  7 73  1  0
 16 74  1  0
 16 75  1  0
 16 76  1  0
 18 77  1  0
 18 78  1  0
 18 79  1  0
 27 80  1  0
 27 81  1  0
 27 82  1  0
 29 83  1  0
 29 84  1  0
 29 85  1  0
 38 86  1  0
 38 87  1  0
 38 88  1  0
 40 89  1  0
 40 90  1  0
 40 91  1  0
 49 92  1  0
 49 93  1  0
 49 94  1  0
 51 95  1  0
 51 96  1  0
 51 97  1  0
 60 98  1  0
 60 99  1  0
 60100  1  0
 62101  1  0
 62102  1  0
 62103  1  0
 65104  1  0
M  END

