
     RDKit          3D

 86 94  0  0  0  0  0  0  0  0999 V2000
    0.4127    3.3752    5.8417 C   0  0  0  0  0  0  0  0  0  0  0  0
    1.4910    2.5411    5.5323 C   0  0  0  0  0  0  0  0  0  0  0  0
    1.2670    1.2783    4.9713 C   0  0  0  0  0  0  0  0  0  0  0  0
   -0.0388    0.8285    4.7127 C   0  0  0  0  0  0  0  0  0  0  0  0
   -1.1351    1.6566    5.0570 C   0  0  0  0  0  0  0  0  0  0  0  0
   -0.9022    2.9380    5.6171 C   0  0  0  0  0  0  0  0  0  0  0  0
   -1.9996    3.7426    5.9574 C   0  0  0  0  0  0  0  0  0  0  0  0
   -3.2955    3.2625    5.7631 C   0  0  0  0  0  0  0  0  0  0  0  0
   -3.4862    1.9830    5.2358 C   0  0  0  0  0  0  0  0  0  0  0  0
   -2.4163    1.2185    4.8966 N   0  0  0  0  0  0  0  0  0  0  0  0
   -0.2170   -0.5178    4.1193 C   0  0  0  0  0  0  0  0  0  0  0  0
   -1.0838   -0.7439    3.1244 C   0  0  0  0  0  0  0  0  0  0  0  0
   -1.3159   -2.0845    2.5288 C   0  0  0  0  0  0  0  0  0  0  0  0
   -0.2278   -2.9475    2.3011 C   0  0  0  0  0  0  0  0  0  0  0  0
   -0.4090   -4.1858    1.6803 C   0  0  0  0  0  0  0  0  0  0  0  0
   -1.6735   -4.5707    1.2184 C   0  0  0  0  0  0  0  0  0  0  0  0
   -2.7810   -3.7346    1.4523 C   0  0  0  0  0  0  0  0  0  0  0  0
   -2.6114   -2.4955    2.1216 C   0  0  0  0  0  0  0  0  0  0  0  0
   -3.7637   -1.7237    2.3762 C   0  0  0  0  0  0  0  0  0  0  0  0
   -5.0151   -2.1539    1.9474 C   0  0  0  0  0  0  0  0  0  0  0  0
   -5.1238   -3.3590    1.2577 C   0  0  0  0  0  0  0  0  0  0  0  0
   -4.0210   -4.1164    1.0358 N   0  0  0  0  0  0  0  0  0  0  0  0
   -1.8678   -5.8913    0.5854 C   0  0  0  0  0  0  0  0  0  0  0  0
   -1.2779   -6.3149   -0.5402 C   0  0  0  0  0  0  0  0  0  0  0  0
   -0.3824   -5.5298   -1.4295 C   0  0  0  0  0  0  0  0  0  0  0  0
   -0.2035   -3.8480   -1.4768 S   0  0  0  0  0  0  0  0  0  0  0  0
    0.8526   -3.7953   -2.7805 C   0  0  0  0  0  0  0  0  0  0  0  0
    1.0697   -5.0919   -3.2253 C   0  0  0  0  0  0  0  0  0  0  0  0
    0.3843   -6.0583   -2.4786 C   0  0  0  0  0  0  0  0  0  0  0  0
    0.4868   -7.4180   -2.7742 O   0  0  0  0  0  0  0  0  0  0  0  0
    2.1482   -5.5027   -4.6030 S   0  0  0  0  0  0  0  0  0  0  0  0
    1.5296   -2.5882   -3.2786 C   0  0  0  0  0  0  0  0  0  0  0  0
    1.0366   -1.9686   -4.4362 C   0  0  0  0  0  0  0  0  0  0  0  0
    1.6982   -0.8730   -4.9930 C   0  0  0  0  0  0  0  0  0  0  0  0
    2.8703   -0.3808   -4.4030 C   0  0  0  0  0  0  0  0  0  0  0  0
    3.3743   -0.9884   -3.2383 C   0  0  0  0  0  0  0  0  0  0  0  0
    2.6960   -2.0899   -2.6613 C   0  0  0  0  0  0  0  0  0  0  0  0
    3.2332   -2.6701   -1.4971 C   0  0  0  0  0  0  0  0  0  0  0  0
    4.3923   -2.1515   -0.9247 C   0  0  0  0  0  0  0  0  0  0  0  0
    5.0223   -1.0622   -1.5209 C   0  0  0  0  0  0  0  0  0  0  0  0
    4.5065   -0.5134   -2.6528 N   0  0  0  0  0  0  0  0  0  0  0  0
    3.6088    0.7185   -5.0487 C   0  0  0  0  0  0  0  0  0  0  0  0
    3.2604    2.0141   -5.0045 C   0  0  0  0  0  0  0  0  0  0  0  0
    2.1385    2.5937   -4.2245 C   0  0  0  0  0  0  0  0  0  0  0  0
    1.3464    1.8986   -2.9071 S   0  0  0  0  0  0  0  0  0  0  0  0
    0.3697    3.2162   -2.5229 C   0  0  0  0  0  0  0  0  0  0  0  0
    0.6613    4.2389   -3.4253 C   0  0  0  0  0  0  0  0  0  0  0  0
    1.6362    3.8910   -4.3706 C   0  0  0  0  0  0  0  0  0  0  0  0
    2.0251    4.7763   -5.3798 O   0  0  0  0  0  0  0  0  0  0  0  0
   -0.1834    5.8248   -3.4831 S   0  0  0  0  0  0  0  0  0  0  0  0
   -0.6096    3.2454   -1.4177 C   0  0  0  0  0  0  0  0  0  0  0  0
   -1.0317    4.5979   -0.4984 S   0  0  0  0  0  0  0  0  0  0  0  0
   -2.1934    3.8460    0.4544 C   0  0  0  0  0  0  0  0  0  0  0  0
   -2.2642    2.5178    0.0692 C   0  0  0  0  0  0  0  0  0  0  0  0
   -1.3750    2.1734   -0.9638 C   0  0  0  0  0  0  0  0  0  0  0  0
   -1.2814    0.8936   -1.5089 O   0  0  0  0  0  0  0  0  0  0  0  0
   -3.4473    1.3848    0.7857 S   0  0  0  0  0  0  0  0  0  0  0  0
    0.6098    4.3490    6.2766 H   0  0  0  0  0  0  0  0  0  0  0  0
    2.5096    2.8753    5.7258 H   0  0  0  0  0  0  0  0  0  0  0  0
    2.1170    0.6526    4.7196 H   0  0  0  0  0  0  0  0  0  0  0  0
   -1.8566    4.7299    6.3859 H   0  0  0  0  0  0  0  0  0  0  0  0
   -4.1469    3.8745    6.0299 H   0  0  0  0  0  0  0  0  0  0  0  0
   -4.4863    1.5972    5.0974 H   0  0  0  0  0  0  0  0  0  0  0  0
    0.4042   -1.3264    4.4945 H   0  0  0  0  0  0  0  0  0  0  0  0
   -1.6529    0.0864    2.7310 H   0  0  0  0  0  0  0  0  0  0  0  0
    0.7757   -2.6606    2.5850 H   0  0  0  0  0  0  0  0  0  0  0  0
    0.4443   -4.8453    1.5474 H   0  0  0  0  0  0  0  0  0  0  0  0
   -3.7121   -0.7907    2.9194 H   0  0  0  0  0  0  0  0  0  0  0  0
   -5.8975   -1.5583    2.1517 H   0  0  0  0  0  0  0  0  0  0  0  0
   -6.0884   -3.6981    0.9077 H   0  0  0  0  0  0  0  0  0  0  0  0
   -2.5747   -6.5674    1.0604 H   0  0  0  0  0  0  0  0  0  0  0  0
   -1.5179   -7.3243   -0.8437 H   0  0  0  0  0  0  0  0  0  0  0  0
    0.0387   -8.1342   -2.2194 H   0  0  0  0  0  0  0  0  0  0  0  0
    3.2681   -5.6529   -3.7650 H   0  0  0  0  0  0  0  0  0  0  0  0
    0.1468   -2.3510   -4.9149 H   0  0  0  0  0  0  0  0  0  0  0  0
    1.3122   -0.4229   -5.8994 H   0  0  0  0  0  0  0  0  0  0  0  0
    2.7631   -3.5206   -1.0192 H   0  0  0  0  0  0  0  0  0  0  0  0
    4.8013   -2.5972   -0.0237 H   0  0  0  0  0  0  0  0  0  0  0  0
    5.9313   -0.6591   -1.0887 H   0  0  0  0  0  0  0  0  0  0  0  0
    4.4862    0.4418   -5.6202 H   0  0  0  0  0  0  0  0  0  0  0  0
    3.8895    2.7002   -5.5606 H   0  0  0  0  0  0  0  0  0  0  0  0
    2.6703    4.5147   -6.1142 H   0  0  0  0  0  0  0  0  0  0  0  0
   -1.1710    5.3298   -4.3537 H   0  0  0  0  0  0  0  0  0  0  0  0
   -2.8006    4.3243    1.2177 H   0  0  0  0  0  0  0  0  0  0  0  0
   -1.8457    0.1237   -1.1626 H   0  0  0  0  0  0  0  0  0  0  0  0
   -4.4137    1.6961   -0.1907 H   0  0  0  0  0  0  0  0  0  0  0  0
  1  2  2  0
  2  3  1  0
  3  4  2  0
  4  5  1  0
  5  6  2  0
  6  7  1  0
  7  8  2  0
  8  9  1  0
  9 10  2  0
  4 11  1  0
 11 12  2  3
 12 13  1  0
 13 14  2  0
 14 15  1  0
 15 16  2  0
 16 17  1  0
 17 18  2  0
 18 19  1  0
 19 20  2  0
 20 21  1  0
 21 22  2  0
 16 23  1  0
 23 24  2  3
 24 25  1  0
 25 26  1  0
 26 27  1  0
 27 28  2  0
 28 29  1  0
 29 30  1  0
 28 31  1  0
 27 32  1  0
 32 33  2  0
 33 34  1  0
 34 35  2  0
 35 36  1  0
 36 37  2  0
 37 38  1  0
 38 39  2  0
 39 40  1  0
 40 41  2  0
 35 42  1  0
 42 43  2  3
 43 44  1  0
 44 45  1  0
 45 46  1  0
 46 47  2  0
 47 48  1  0
 48 49  1  0
 47 50  1  0
 46 51  1  0
 51 52  1  0
 52 53  1  0
 53 54  2  0
 54 55  1  0
 55 56  1  0
 54 57  1  0
  6  1  1  0
 18 13  1  0
 29 25  2  0
 37 32  1  0
 48 44  2  0
 55 51  2  0
 10  5  1  0
 22 17  1  0
 41 36  1  0
  1 58  1  0
  2 59  1  0
  3 60  1  0
  7 61  1  0
  8 62  1  0
  9 63  1  0
 11 64  1  0
 12 65  1  0
 14 66  1  0
 15 67  1  0
 19 68  1  0
 20 69  1  0
 21 70  1  0
 23 71  1  0
 24 72  1  0
 30 73  1  0
 31 74  1  0
 33 75  1  0
 34 76  1  0
 38 77  1  0
 39 78  1  0
 40 79  1  0
 42 80  1  0
 43 81  1  0
 49 82  1  0
 50 83  1  0
 53 84  1  0
 56 85  1  0
 57 86  1  0
M  END

