
     RDKit          3D

238261  0  0  0  0  0  0  0  0999 V2000
    9.1035   -2.7377    2.1348 C   0  0  0  0  0  0  0  0  0  0  0  0
    8.1048   -3.7036    2.1121 C   0  0  0  0  0  0  0  0  0  0  0  0
    7.0525   -3.4370    3.0035 C   0  0  0  0  0  0  0  0  0  0  0  0
    5.8950   -4.2223    3.1765 C   0  0  0  0  0  0  0  0  0  0  0  0
    5.6761   -5.4758    2.4200 C   0  0  0  0  0  0  0  0  0  0  0  0
    6.5511   -6.5639    2.5763 C   0  0  0  0  0  0  0  0  0  0  0  0
    6.3406   -7.7464    1.8615 C   0  0  0  0  0  0  0  0  0  0  0  0
    5.2566   -7.8568    0.9853 C   0  0  0  0  0  0  0  0  0  0  0  0
    4.9704   -9.3857    0.0871 S   0  0  0  0  0  0  0  0  0  0  0  0
    5.8883   -8.8687   -1.4099 C   0  0  0  0  0  0  0  0  0  0  0  0
    5.1522   -9.3548   -2.6530 C   0  0  0  0  0  0  0  0  0  0  0  0
    4.3802   -6.7727    0.8243 C   0  0  0  0  0  0  0  0  0  0  0  0
    3.3317   -6.8604   -0.0366 F   0  0  0  0  0  0  0  0  0  0  0  0
    4.5910   -5.5890    1.5357 C   0  0  0  0  0  0  0  0  0  0  0  0
    4.9246   -3.7258    4.0624 C   0  0  0  0  0  0  0  0  0  0  0  0
    5.0631   -2.5172    4.7538 C   0  0  0  0  0  0  0  0  0  0  0  0
    6.2403   -1.7410    4.5999 C   0  0  0  0  0  0  0  0  0  0  0  0
    6.4095   -0.4273    5.2731 C   0  0  0  0  0  0  0  0  0  0  0  0
    6.7041    0.7247    4.5241 C   0  0  0  0  0  0  0  0  0  0  0  0
    6.7317    1.9796    5.1370 C   0  0  0  0  0  0  0  0  0  0  0  0
    6.4770    2.0975    6.5065 C   0  0  0  0  0  0  0  0  0  0  0  0
    6.3968    3.7246    7.2653 S   0  0  0  0  0  0  0  0  0  0  0  0
    4.6085    3.9633    6.9430 C   0  0  0  0  0  0  0  0  0  0  0  0
    4.4109    4.9855    5.8292 C   0  0  0  0  0  0  0  0  0  0  0  0
    6.2479    0.9478    7.2751 C   0  0  0  0  0  0  0  0  0  0  0  0
    6.2199   -0.3087    6.6605 C   0  0  0  0  0  0  0  0  0  0  0  0
    6.0211    1.0444    8.6076 F   0  0  0  0  0  0  0  0  0  0  0  0
    7.2139   -2.2405    3.7058 C   0  0  0  0  0  0  0  0  0  0  0  0
    8.6784   -1.5474    3.2501 S   0  0  0  0  0  0  0  0  0  0  0  0
    3.8991   -2.1663    5.4784 C   0  0  0  0  0  0  0  0  0  0  0  0
    2.8816   -3.1242    5.3818 C   0  0  0  0  0  0  0  0  0  0  0  0
    3.4069   -4.3696    4.3769 S   0  0  0  0  0  0  0  0  0  0  0  0
    1.4739   -2.9594    5.7848 C   0  0  0  0  0  0  0  0  0  0  0  0
    0.1912   -3.4293    4.8059 S   0  0  0  0  0  0  0  0  0  0  0  0
   -1.0559   -2.8142    5.7515 C   0  0  0  0  0  0  0  0  0  0  0  0
   -0.4751   -2.1842    6.8552 C   0  0  0  0  0  0  0  0  0  0  0  0
    0.9332   -2.2856    6.8893 C   0  0  0  0  0  0  0  0  0  0  0  0
    1.6558   -1.7451    7.9620 C   0  0  0  0  0  0  0  0  0  0  0  0
    0.9679   -1.0751    8.9878 C   0  0  0  0  0  0  0  0  0  0  0  0
    1.7031   -0.5602   10.1151 C   0  0  0  0  0  0  0  0  0  0  0  0
    2.2952   -0.1502   11.0194 N   0  0  0  0  0  0  0  0  0  0  0  0
   -0.4363   -0.9172    8.9299 C   0  0  0  0  0  0  0  0  0  0  0  0
   -1.0886   -0.2284    9.9702 O   0  0  0  0  0  0  0  0  0  0  0  0
   -2.5019   -0.0728   10.0661 C   0  0  0  0  0  0  0  0  0  0  0  0
   -1.1544   -1.4579    7.8432 C   0  0  0  0  0  0  0  0  0  0  0  0
   -2.4463   -2.7226    5.2747 C   0  0  0  0  0  0  0  0  0  0  0  0
   -2.8343   -2.2550    3.7057 S   0  0  0  0  0  0  0  0  0  0  0  0
   -4.5041   -2.2825    3.8835 C   0  0  0  0  0  0  0  0  0  0  0  0
   -4.7920   -2.6708    5.1894 C   0  0  0  0  0  0  0  0  0  0  0  0
   -3.6471   -2.9364    5.9669 C   0  0  0  0  0  0  0  0  0  0  0  0
   -3.7819   -3.4321    7.2661 C   0  0  0  0  0  0  0  0  0  0  0  0
   -5.0683   -3.5975    7.8108 C   0  0  0  0  0  0  0  0  0  0  0  0
   -5.2060   -4.1497    9.1335 C   0  0  0  0  0  0  0  0  0  0  0  0
   -5.3039   -4.6158   10.1838 N   0  0  0  0  0  0  0  0  0  0  0  0
   -6.2173   -3.2708    7.0571 C   0  0  0  0  0  0  0  0  0  0  0  0
   -7.4836   -3.3947    7.6568 O   0  0  0  0  0  0  0  0  0  0  0  0
   -8.7151   -3.0530    7.0099 C   0  0  0  0  0  0  0  0  0  0  0  0
   -6.0691   -2.8220    5.7261 C   0  0  0  0  0  0  0  0  0  0  0  0
   -5.4218   -1.8308    2.8329 C   0  0  0  0  0  0  0  0  0  0  0  0
   -5.2316   -2.1491    1.4925 C   0  0  0  0  0  0  0  0  0  0  0  0
   -5.8015   -1.2154    0.6174 C   0  0  0  0  0  0  0  0  0  0  0  0
   -5.6062   -1.1802   -0.7758 C   0  0  0  0  0  0  0  0  0  0  0  0
   -5.0137   -2.3349   -1.4990 C   0  0  0  0  0  0  0  0  0  0  0  0
   -3.8442   -2.1986   -2.2636 C   0  0  0  0  0  0  0  0  0  0  0  0
   -3.3175   -3.2959   -2.9528 C   0  0  0  0  0  0  0  0  0  0  0  0
   -3.9478   -4.5466   -2.8705 C   0  0  0  0  0  0  0  0  0  0  0  0
   -3.2750   -5.9527   -3.7570 S   0  0  0  0  0  0  0  0  0  0  0  0
   -4.4059   -5.8170   -5.1897 C   0  0  0  0  0  0  0  0  0  0  0  0
   -4.9712   -7.1902   -5.5256 C   0  0  0  0  0  0  0  0  0  0  0  0
   -5.0936   -4.6947   -2.0802 C   0  0  0  0  0  0  0  0  0  0  0  0
   -5.7273   -5.8949   -2.0130 F   0  0  0  0  0  0  0  0  0  0  0  0
   -5.6289   -3.5939   -1.4066 C   0  0  0  0  0  0  0  0  0  0  0  0
   -5.9470    0.0202   -1.4247 C   0  0  0  0  0  0  0  0  0  0  0  0
   -6.5083    1.1088   -0.7517 C   0  0  0  0  0  0  0  0  0  0  0  0
   -6.8595    0.9966    0.6075 C   0  0  0  0  0  0  0  0  0  0  0  0
   -7.6802    2.0099    1.2897 C   0  0  0  0  0  0  0  0  0  0  0  0
   -7.1264    3.2034    1.7764 C   0  0  0  0  0  0  0  0  0  0  0  0
   -7.9440    4.1481    2.4046 C   0  0  0  0  0  0  0  0  0  0  0  0
   -9.3200    3.9055    2.5489 C   0  0  0  0  0  0  0  0  0  0  0  0
  -10.3836    5.1490    3.2892 S   0  0  0  0  0  0  0  0  0  0  0  0
  -10.1625    4.5919    5.0161 C   0  0  0  0  0  0  0  0  0  0  0  0
  -10.8760    3.2671    5.2800 C   0  0  0  0  0  0  0  0  0  0  0  0
   -9.8750    2.7207    2.0479 C   0  0  0  0  0  0  0  0  0  0  0  0
   -9.0574    1.7792    1.4261 C   0  0  0  0  0  0  0  0  0  0  0  0
  -11.2092    2.4849    2.1437 F   0  0  0  0  0  0  0  0  0  0  0  0
   -6.4431   -0.1651    1.2756 C   0  0  0  0  0  0  0  0  0  0  0  0
   -6.3239   -0.4016    2.9375 S   0  0  0  0  0  0  0  0  0  0  0  0
   -6.5073    2.2948   -1.5093 C   0  0  0  0  0  0  0  0  0  0  0  0
   -5.9248    2.1380   -2.7711 C   0  0  0  0  0  0  0  0  0  0  0  0
   -5.5017    0.5133   -2.9613 S   0  0  0  0  0  0  0  0  0  0  0  0
   -5.1390    3.1839   -3.4431 C   0  0  0  0  0  0  0  0  0  0  0  0
   -4.2795    4.0224   -2.7230 C   0  0  0  0  0  0  0  0  0  0  0  0
   -3.1114    4.3652   -3.4273 C   0  0  0  0  0  0  0  0  0  0  0  0
   -1.9576    4.9340   -2.8576 C   0  0  0  0  0  0  0  0  0  0  0  0
   -1.8816    5.2930   -1.4246 C   0  0  0  0  0  0  0  0  0  0  0  0
   -1.2893    4.3974   -0.5171 C   0  0  0  0  0  0  0  0  0  0  0  0
   -1.0428    4.7937    0.8011 C   0  0  0  0  0  0  0  0  0  0  0  0
   -1.3927    6.0787    1.2263 C   0  0  0  0  0  0  0  0  0  0  0  0
   -0.8409    6.6472    2.8406 S   0  0  0  0  0  0  0  0  0  0  0  0
   -2.4271    6.3601    3.6902 C   0  0  0  0  0  0  0  0  0  0  0  0
   -2.1909    6.2967    5.1960 C   0  0  0  0  0  0  0  0  0  0  0  0
   -2.0508    6.9530    0.3440 C   0  0  0  0  0  0  0  0  0  0  0  0
   -2.3959    8.2035    0.7406 F   0  0  0  0  0  0  0  0  0  0  0  0
   -2.3057    6.5493   -0.9763 C   0  0  0  0  0  0  0  0  0  0  0  0
   -0.7839    4.9026   -3.6344 C   0  0  0  0  0  0  0  0  0  0  0  0
   -0.7292    4.3253   -4.9060 C   0  0  0  0  0  0  0  0  0  0  0  0
   -1.9009    3.8175   -5.4992 C   0  0  0  0  0  0  0  0  0  0  0  0
   -1.8775    3.1349   -6.8049 C   0  0  0  0  0  0  0  0  0  0  0  0
   -1.8957    1.7342   -6.8732 C   0  0  0  0  0  0  0  0  0  0  0  0
   -1.9984    1.0947   -8.1099 C   0  0  0  0  0  0  0  0  0  0  0  0
   -2.0885    1.8489   -9.2864 C   0  0  0  0  0  0  0  0  0  0  0  0
   -2.3652    1.0280  -10.8573 S   0  0  0  0  0  0  0  0  0  0  0  0
   -4.1796    1.0236  -10.6518 C   0  0  0  0  0  0  0  0  0  0  0  0
   -4.8438    0.4252  -11.8796 C   0  0  0  0  0  0  0  0  0  0  0  0
   -2.0229    3.2492   -9.2244 C   0  0  0  0  0  0  0  0  0  0  0  0
   -1.9162    3.8887   -7.9852 C   0  0  0  0  0  0  0  0  0  0  0  0
   -2.1016    3.9932  -10.3559 F   0  0  0  0  0  0  0  0  0  0  0  0
   -3.0754    3.8410   -4.7222 C   0  0  0  0  0  0  0  0  0  0  0  0
   -4.4744    2.9468   -4.9793 S   0  0  0  0  0  0  0  0  0  0  0  0
    0.5882    4.1110   -5.3602 C   0  0  0  0  0  0  0  0  0  0  0  0
    1.5540    4.4941   -4.4282 C   0  0  0  0  0  0  0  0  0  0  0  0
    0.7760    5.1527   -3.0834 S   0  0  0  0  0  0  0  0  0  0  0  0
    2.8974    3.9098   -4.3225 C   0  0  0  0  0  0  0  0  0  0  0  0
    3.7470    3.5003   -5.3574 C   0  0  0  0  0  0  0  0  0  0  0  0
    4.8731    2.7861   -4.8846 C   0  0  0  0  0  0  0  0  0  0  0  0
    5.9055    2.2186   -5.6612 C   0  0  0  0  0  0  0  0  0  0  0  0
    5.9107    2.2720   -7.1385 C   0  0  0  0  0  0  0  0  0  0  0  0
    4.9390    1.5737   -7.8674 C   0  0  0  0  0  0  0  0  0  0  0  0
    5.0283    1.4932   -9.2620 C   0  0  0  0  0  0  0  0  0  0  0  0
    6.0866    2.1130   -9.9364 C   0  0  0  0  0  0  0  0  0  0  0  0
    6.2095    1.9726  -11.7247 S   0  0  0  0  0  0  0  0  0  0  0  0
    7.3915    0.5717  -11.7117 C   0  0  0  0  0  0  0  0  0  0  0  0
    6.7140   -0.7338  -11.3061 C   0  0  0  0  0  0  0  0  0  0  0  0
    7.0408    2.8431   -9.2146 C   0  0  0  0  0  0  0  0  0  0  0  0
    8.0666    3.4606   -9.8547 F   0  0  0  0  0  0  0  0  0  0  0  0
    6.9528    2.9181   -7.8196 C   0  0  0  0  0  0  0  0  0  0  0  0
    6.9057    1.5092   -4.9655 C   0  0  0  0  0  0  0  0  0  0  0  0
    6.8748    1.3146   -3.5800 C   0  0  0  0  0  0  0  0  0  0  0  0
    5.8269    1.8543   -2.8082 C   0  0  0  0  0  0  0  0  0  0  0  0
    5.5973    1.4646   -1.3918 C   0  0  0  0  0  0  0  0  0  0  0  0
    5.4114    0.1116   -1.0649 C   0  0  0  0  0  0  0  0  0  0  0  0
    4.9622   -0.2522    0.2070 C   0  0  0  0  0  0  0  0  0  0  0  0
    4.6697    0.7310    1.1595 C   0  0  0  0  0  0  0  0  0  0  0  0
    4.0161    0.2607    2.7637 S   0  0  0  0  0  0  0  0  0  0  0  0
    2.2600    0.2254    2.2783 C   0  0  0  0  0  0  0  0  0  0  0  0
    1.8677   -1.1654    1.7984 C   0  0  0  0  0  0  0  0  0  0  0  0
    4.9082    2.0801    0.8585 C   0  0  0  0  0  0  0  0  0  0  0  0
    5.3811    2.4444   -0.4055 C   0  0  0  0  0  0  0  0  0  0  0  0
    4.6717    3.0393    1.7882 F   0  0  0  0  0  0  0  0  0  0  0  0
    4.8748    2.6282   -3.4935 C   0  0  0  0  0  0  0  0  0  0  0  0
    3.5172    3.3633   -2.8576 S   0  0  0  0  0  0  0  0  0  0  0  0
    7.9426    0.5305   -3.1113 C   0  0  0  0  0  0  0  0  0  0  0  0
    8.8014    0.1082   -4.1221 C   0  0  0  0  0  0  0  0  0  0  0  0
    8.2363    0.6958   -5.5995 S   0  0  0  0  0  0  0  0  0  0  0  0
    9.9940   -2.7395    1.5228 H   0  0  0  0  0  0  0  0  0  0  0  0
    8.1430   -4.5595    1.4535 H   0  0  0  0  0  0  0  0  0  0  0  0
    7.3915   -6.4954    3.2592 H   0  0  0  0  0  0  0  0  0  0  0  0
    7.0177   -8.5786    1.9960 H   0  0  0  0  0  0  0  0  0  0  0  0
    5.9907   -7.7603   -1.4757 H   0  0  0  0  0  0  0  0  0  0  0  0
    6.9030   -9.3251   -1.3874 H   0  0  0  0  0  0  0  0  0  0  0  0
    4.1503   -8.8725   -2.7095 H   0  0  0  0  0  0  0  0  0  0  0  0
    5.0297  -10.4598   -2.6150 H   0  0  0  0  0  0  0  0  0  0  0  0
    5.7394   -9.0979   -3.5578 H   0  0  0  0  0  0  0  0  0  0  0  0
    3.9117   -4.7569    1.3944 H   0  0  0  0  0  0  0  0  0  0  0  0
    6.8564    0.6663    3.4525 H   0  0  0  0  0  0  0  0  0  0  0  0
    6.9048    2.8627    4.5373 H   0  0  0  0  0  0  0  0  0  0  0  0
    4.0999    3.0151    6.6511 H   0  0  0  0  0  0  0  0  0  0  0  0
    4.1265    4.3427    7.8720 H   0  0  0  0  0  0  0  0  0  0  0  0
    4.8818    4.6182    4.8900 H   0  0  0  0  0  0  0  0  0  0  0  0
    4.8670    5.9590    6.1204 H   0  0  0  0  0  0  0  0  0  0  0  0
    3.3233    5.1383    5.6657 H   0  0  0  0  0  0  0  0  0  0  0  0
    6.0188   -1.1863    7.2630 H   0  0  0  0  0  0  0  0  0  0  0  0
    3.7644   -1.2172    5.9803 H   0  0  0  0  0  0  0  0  0  0  0  0
    2.7277   -1.8666    8.0198 H   0  0  0  0  0  0  0  0  0  0  0  0
   -2.9971   -1.0653   10.0856 H   0  0  0  0  0  0  0  0  0  0  0  0
   -2.8841    0.5265    9.2131 H   0  0  0  0  0  0  0  0  0  0  0  0
   -2.7441    0.4588   11.0087 H   0  0  0  0  0  0  0  0  0  0  0  0
   -2.2158   -1.3061    7.7667 H   0  0  0  0  0  0  0  0  0  0  0  0
   -2.9068   -3.7100    7.8414 H   0  0  0  0  0  0  0  0  0  0  0  0
   -8.6751   -2.0128    6.6101 H   0  0  0  0  0  0  0  0  0  0  0  0
   -9.5408   -3.1173    7.7456 H   0  0  0  0  0  0  0  0  0  0  0  0
   -8.9225   -3.7646    6.1778 H   0  0  0  0  0  0  0  0  0  0  0  0
   -6.9332   -2.6141    5.1090 H   0  0  0  0  0  0  0  0  0  0  0  0
   -4.5727   -2.9443    1.1725 H   0  0  0  0  0  0  0  0  0  0  0  0
   -3.3291   -1.2502   -2.3197 H   0  0  0  0  0  0  0  0  0  0  0  0
   -2.4153   -3.1817   -3.5416 H   0  0  0  0  0  0  0  0  0  0  0  0
   -3.8402   -5.4256   -6.0660 H   0  0  0  0  0  0  0  0  0  0  0  0
   -5.2539   -5.1231   -4.9881 H   0  0  0  0  0  0  0  0  0  0  0  0
   -5.6447   -7.1079   -6.4019 H   0  0  0  0  0  0  0  0  0  0  0  0
   -5.5360   -7.5856   -4.6518 H   0  0  0  0  0  0  0  0  0  0  0  0
   -4.1444   -7.8920   -5.7741 H   0  0  0  0  0  0  0  0  0  0  0  0
   -6.5271   -3.7213   -0.8199 H   0  0  0  0  0  0  0  0  0  0  0  0
   -6.0625    3.4026    1.6674 H   0  0  0  0  0  0  0  0  0  0  0  0
   -7.5090    5.0595    2.7864 H   0  0  0  0  0  0  0  0  0  0  0  0
  -10.6058    5.3669    5.6772 H   0  0  0  0  0  0  0  0  0  0  0  0
   -9.0800    4.4986    5.2558 H   0  0  0  0  0  0  0  0  0  0  0  0
  -11.9216    3.3106    4.9066 H   0  0  0  0  0  0  0  0  0  0  0  0
  -10.3385    2.4298    4.7930 H   0  0  0  0  0  0  0  0  0  0  0  0
  -10.9030    3.0739    6.3713 H   0  0  0  0  0  0  0  0  0  0  0  0
   -9.4951    0.8675    1.0363 H   0  0  0  0  0  0  0  0  0  0  0  0
   -6.7688    3.2604   -1.0952 H   0  0  0  0  0  0  0  0  0  0  0  0
   -4.3989    4.2076   -1.6635 H   0  0  0  0  0  0  0  0  0  0  0  0
   -0.9535    3.4241   -0.8473 H   0  0  0  0  0  0  0  0  0  0  0  0
   -0.5328    4.1189    1.4791 H   0  0  0  0  0  0  0  0  0  0  0  0
   -3.1149    7.2065    3.4634 H   0  0  0  0  0  0  0  0  0  0  0  0
   -2.8977    5.4072    3.3541 H   0  0  0  0  0  0  0  0  0  0  0  0
   -1.6286    5.3735    5.4537 H   0  0  0  0  0  0  0  0  0  0  0  0
   -1.6090    7.1828    5.5352 H   0  0  0  0  0  0  0  0  0  0  0  0
   -3.1650    6.2973    5.7229 H   0  0  0  0  0  0  0  0  0  0  0  0
   -2.7782    7.2429   -1.6618 H   0  0  0  0  0  0  0  0  0  0  0  0
   -1.8581    1.1390   -5.9668 H   0  0  0  0  0  0  0  0  0  0  0  0
   -2.0510    0.0139   -8.1528 H   0  0  0  0  0  0  0  0  0  0  0  0
   -4.4508    0.4221   -9.7569 H   0  0  0  0  0  0  0  0  0  0  0  0
   -4.5453    2.0640  -10.5085 H   0  0  0  0  0  0  0  0  0  0  0  0
   -4.6261    1.0461  -12.7743 H   0  0  0  0  0  0  0  0  0  0  0  0
   -4.4787   -0.6105  -12.0491 H   0  0  0  0  0  0  0  0  0  0  0  0
   -5.9449    0.3956  -11.7284 H   0  0  0  0  0  0  0  0  0  0  0  0
   -1.9079    4.9711   -7.9408 H   0  0  0  0  0  0  0  0  0  0  0  0
    0.8247    3.5442   -6.2557 H   0  0  0  0  0  0  0  0  0  0  0  0
    3.5420    3.6853   -6.4047 H   0  0  0  0  0  0  0  0  0  0  0  0
    4.1283    1.0613   -7.3614 H   0  0  0  0  0  0  0  0  0  0  0  0
    4.2868    0.9337   -9.8165 H   0  0  0  0  0  0  0  0  0  0  0  0
    8.2410    0.7852  -11.0282 H   0  0  0  0  0  0  0  0  0  0  0  0
    7.8007    0.4555  -12.7405 H   0  0  0  0  0  0  0  0  0  0  0  0
    7.4062   -1.5819  -11.4959 H   0  0  0  0  0  0  0  0  0  0  0  0
    5.7870   -0.8895  -11.9025 H   0  0  0  0  0  0  0  0  0  0  0  0
    6.4647   -0.7230  -10.2250 H   0  0  0  0  0  0  0  0  0  0  0  0
    7.7100    3.4591   -7.2681 H   0  0  0  0  0  0  0  0  0  0  0  0
    5.5589   -0.6591   -1.8116 H   0  0  0  0  0  0  0  0  0  0  0  0
    4.8021   -1.2957    0.4385 H   0  0  0  0  0  0  0  0  0  0  0  0
    1.6584    0.4738    3.1776 H   0  0  0  0  0  0  0  0  0  0  0  0
    2.0419    0.9840    1.4943 H   0  0  0  0  0  0  0  0  0  0  0  0
    0.7636   -1.2332    1.7376 H   0  0  0  0  0  0  0  0  0  0  0  0
    2.2255   -1.9386    2.5128 H   0  0  0  0  0  0  0  0  0  0  0  0
    2.2946   -1.3665    0.7958 H   0  0  0  0  0  0  0  0  0  0  0  0
    5.5325    3.4920   -0.6336 H   0  0  0  0  0  0  0  0  0  0  0  0
    8.0973    0.2777   -2.0699 H   0  0  0  0  0  0  0  0  0  0  0  0
    9.6793   -0.5064   -3.9836 H   0  0  0  0  0  0  0  0  0  0  0  0
  1  2  2  0
  2  3  1  0
  3  4  2  0
  4  5  1  0
  5  6  2  0
  6  7  1  0
  7  8  2  0
  8  9  1  0
  9 10  1  0
 10 11  1  0
  8 12  1  0
 12 13  1  0
 12 14  2  0
  4 15  1  0
 15 16  2  0
 16 17  1  0
 17 18  1  0
 18 19  2  0
 19 20  1  0
 20 21  2  0
 21 22  1  0
 22 23  1  0
 23 24  1  0
 21 25  1  0
 25 26  2  0
 25 27  1  0
 17 28  2  0
 28 29  1  0
 16 30  1  0
 30 31  2  0
 31 32  1  0
 31 33  1  0
 33 34  1  0
 34 35  1  0
 35 36  2  0
 36 37  1  0
 37 38  1  0
 38 39  2  0
 39 40  1  0
 40 41  3  0
 39 42  1  0
 42 43  1  0
 43 44  1  0
 42 45  2  0
 35 46  1  0
 46 47  1  0
 47 48  1  0
 48 49  2  0
 49 50  1  0
 50 51  1  0
 51 52  2  0
 52 53  1  0
 53 54  3  0
 52 55  1  0
 55 56  1  0
 56 57  1  0
 55 58  2  0
 48 59  1  0
 59 60  2  0
 60 61  1  0
 61 62  2  0
 62 63  1  0
 63 64  2  0
 64 65  1  0
 65 66  2  0
 66 67  1  0
 67 68  1  0
 68 69  1  0
 66 70  1  0
 70 71  1  0
 70 72  2  0
 62 73  1  0
 73 74  2  0
 74 75  1  0
 75 76  1  0
 76 77  2  0
 77 78  1  0
 78 79  2  0
 79 80  1  0
 80 81  1  0
 81 82  1  0
 79 83  1  0
 83 84  2  0
 83 85  1  0
 75 86  2  0
 86 87  1  0
 74 88  1  0
 88 89  2  0
 89 90  1  0
 89 91  1  0
 91 92  2  0
 92 93  1  0
 93 94  2  0
 94 95  1  0
 95 96  2  0
 96 97  1  0
 97 98  2  0
 98 99  1  0
 99100  1  0
100101  1  0
 98102  1  0
102103  1  0
102104  2  0
 94105  1  0
105106  2  0
106107  1  0
107108  1  0
108109  2  0
109110  1  0
110111  2  0
111112  1  0
112113  1  0
113114  1  0
111115  1  0
115116  2  0
115117  1  0
107118  2  0
118119  1  0
106120  1  0
120121  2  0
121122  1  0
121123  1  0
123124  2  0
124125  1  0
125126  2  0
126127  1  0
127128  2  0
128129  1  0
129130  2  0
130131  1  0
131132  1  0
132133  1  0
130134  1  0
134135  1  0
134136  2  0
126137  1  0
137138  2  0
138139  1  0
139140  1  0
140141  2  0
141142  1  0
142143  2  0
143144  1  0
144145  1  0
145146  1  0
143147  1  0
147148  2  0
147149  1  0
139150  2  0
150151  1  0
138152  1  0
152153  2  0
153154  1  0
 29  1  1  0
 37 33  2  0
 50 46  2  0
 87 59  1  0
119 91  1  0
151123  1  0
 28  3  1  0
 45 36  1  0
 58 49  1  0
 86 61  1  0
118 93  1  0
150125  1  0
 14  5  1  0
 32 15  1  0
 72 63  1  0
 90 73  1  0
104 95  1  0
122105  1  0
136127  1  0
154137  1  0
 26 18  1  0
 84 76  1  0
116108  1  0
148140  1  0
  1155  1  0
  2156  1  0
  6157  1  0
  7158  1  0
 10159  1  0
 10160  1  0
 11161  1  0
 11162  1  0
 11163  1  0
 14164  1  0
 19165  1  0
 20166  1  0
 23167  1  0
 23168  1  0
 24169  1  0
 24170  1  0
 24171  1  0
 26172  1  0
 30173  1  0
 38174  1  0
 44175  1  0
 44176  1  0
 44177  1  0
 45178  1  0
 51179  1  0
 57180  1  0
 57181  1  0
 57182  1  0
 58183  1  0
 60184  1  0
 64185  1  0
 65186  1  0
 68187  1  0
 68188  1  0
 69189  1  0
 69190  1  0
 69191  1  0
 72192  1  0
 77193  1  0
 78194  1  0
 81195  1  0
 81196  1  0
 82197  1  0
 82198  1  0
 82199  1  0
 84200  1  0
 88201  1  0
 92202  1  0
 96203  1  0
 97204  1  0
100205  1  0
100206  1  0
101207  1  0
101208  1  0
101209  1  0
104210  1  0
109211  1  0
110212  1  0
113213  1  0
113214  1  0
114215  1  0
114216  1  0
114217  1  0
116218  1  0
120219  1  0
124220  1  0
128221  1  0
129222  1  0
132223  1  0
132224  1  0
133225  1  0
133226  1  0
133227  1  0
136228  1  0
141229  1  0
142230  1  0
145231  1  0
145232  1  0
146233  1  0
146234  1  0
146235  1  0
148236  1  0
152237  1  0
153238  1  0
M  END

