
     RDKit          3D

272298  0  0  0  0  0  0  0  0999 V2000
   -3.0092   -7.9241   11.4477 C   0  0  0  0  0  0  0  0  0  0  0  0
   -3.1877   -6.6865   10.8359 C   0  0  0  0  0  0  0  0  0  0  0  0
   -3.8233   -6.7754    9.5857 C   0  0  0  0  0  0  0  0  0  0  0  0
   -4.1075   -5.7039    8.7169 C   0  0  0  0  0  0  0  0  0  0  0  0
   -3.6987   -4.3173    9.0185 C   0  0  0  0  0  0  0  0  0  0  0  0
   -4.3335   -3.5879   10.0343 C   0  0  0  0  0  0  0  0  0  0  0  0
   -3.9842   -2.2548   10.2695 C   0  0  0  0  0  0  0  0  0  0  0  0
   -2.9827   -1.6433    9.4994 C   0  0  0  0  0  0  0  0  0  0  0  0
   -2.5702    0.0865    9.7655 S   0  0  0  0  0  0  0  0  0  0  0  0
   -1.1934   -0.2457   10.9194 C   0  0  0  0  0  0  0  0  0  0  0  0
   -1.7075   -0.3029   12.3499 C   0  0  0  0  0  0  0  0  0  0  0  0
   -2.3399   -2.3718    8.4920 C   0  0  0  0  0  0  0  0  0  0  0  0
   -1.3729   -1.7918    7.7369 F   0  0  0  0  0  0  0  0  0  0  0  0
   -2.6909   -3.7032    8.2562 C   0  0  0  0  0  0  0  0  0  0  0  0
   -4.7112   -6.0244    7.4916 C   0  0  0  0  0  0  0  0  0  0  0  0
   -4.9977   -7.3399    7.1030 C   0  0  0  0  0  0  0  0  0  0  0  0
   -4.7111   -8.4156    7.9723 C   0  0  0  0  0  0  0  0  0  0  0  0
   -4.9541   -9.8229    7.5848 C   0  0  0  0  0  0  0  0  0  0  0  0
   -3.8883  -10.7383    7.5501 C   0  0  0  0  0  0  0  0  0  0  0  0
   -4.1089  -12.0649    7.1793 C   0  0  0  0  0  0  0  0  0  0  0  0
   -5.3957  -12.4967    6.8353 C   0  0  0  0  0  0  0  0  0  0  0  0
   -5.6616  -14.2126    6.3580 S   0  0  0  0  0  0  0  0  0  0  0  0
   -5.5228  -13.9171    4.5588 C   0  0  0  0  0  0  0  0  0  0  0  0
   -4.0653  -13.8646    4.1155 C   0  0  0  0  0  0  0  0  0  0  0  0
   -6.4676  -11.5946    6.8870 C   0  0  0  0  0  0  0  0  0  0  0  0
   -6.2475  -10.2606    7.2557 C   0  0  0  0  0  0  0  0  0  0  0  0
   -7.7278  -12.0078    6.5892 F   0  0  0  0  0  0  0  0  0  0  0  0
   -4.1238   -8.0904    9.2106 C   0  0  0  0  0  0  0  0  0  0  0  0
   -3.6231   -9.1287   10.4369 S   0  0  0  0  0  0  0  0  0  0  0  0
   -5.4624   -7.4317    5.7738 C   0  0  0  0  0  0  0  0  0  0  0  0
   -5.5521   -6.1874    5.1502 C   0  0  0  0  0  0  0  0  0  0  0  0
   -5.0556   -4.9837    6.2213 S   0  0  0  0  0  0  0  0  0  0  0  0
   -5.6679   -5.9671    3.7077 C   0  0  0  0  0  0  0  0  0  0  0  0
   -7.1123   -5.9399    2.8377 S   0  0  0  0  0  0  0  0  0  0  0  0
   -6.4772   -5.2811    1.4175 C   0  0  0  0  0  0  0  0  0  0  0  0
   -5.1172   -5.0105    1.6418 C   0  0  0  0  0  0  0  0  0  0  0  0
   -4.6698   -5.4177    2.9077 C   0  0  0  0  0  0  0  0  0  0  0  0
   -3.3422   -5.2044    3.2972 C   0  0  0  0  0  0  0  0  0  0  0  0
   -2.4617   -4.5319    2.4316 C   0  0  0  0  0  0  0  0  0  0  0  0
   -1.0499   -4.2555    2.8762 C   0  0  0  0  0  0  0  0  0  0  0  0
   -2.9246   -4.0475    1.1879 C   0  0  0  0  0  0  0  0  0  0  0  0
   -2.0435   -3.3077    0.3785 O   0  0  0  0  0  0  0  0  0  0  0  0
   -2.3921   -2.7167   -0.8699 C   0  0  0  0  0  0  0  0  0  0  0  0
   -4.2544   -4.3023    0.7889 C   0  0  0  0  0  0  0  0  0  0  0  0
   -7.2749   -4.8050    0.2750 C   0  0  0  0  0  0  0  0  0  0  0  0
   -8.1783   -3.7461    0.3739 C   0  0  0  0  0  0  0  0  0  0  0  0
   -8.3339   -3.0390   -0.8337 C   0  0  0  0  0  0  0  0  0  0  0  0
   -8.9654   -1.7828   -0.9897 C   0  0  0  0  0  0  0  0  0  0  0  0
   -9.7799   -1.1554    0.0678 C   0  0  0  0  0  0  0  0  0  0  0  0
   -9.2143   -0.7798    1.2980 C   0  0  0  0  0  0  0  0  0  0  0  0
   -9.9885   -0.1161    2.2534 C   0  0  0  0  0  0  0  0  0  0  0  0
  -11.3282    0.1911    1.9819 C   0  0  0  0  0  0  0  0  0  0  0  0
  -12.3125    1.0675    3.2007 S   0  0  0  0  0  0  0  0  0  0  0  0
  -13.0256   -0.4584    3.9007 C   0  0  0  0  0  0  0  0  0  0  0  0
  -14.0777   -0.1047    4.9404 C   0  0  0  0  0  0  0  0  0  0  0  0
  -11.8930   -0.1766    0.7535 C   0  0  0  0  0  0  0  0  0  0  0  0
  -13.1887    0.1200    0.4742 F   0  0  0  0  0  0  0  0  0  0  0  0
  -11.1241   -0.8498   -0.1961 C   0  0  0  0  0  0  0  0  0  0  0  0
   -8.6842   -1.0729   -2.1686 C   0  0  0  0  0  0  0  0  0  0  0  0
   -7.8725   -1.5901   -3.1825 C   0  0  0  0  0  0  0  0  0  0  0  0
   -7.3504   -2.8953   -3.0857 C   0  0  0  0  0  0  0  0  0  0  0  0
   -6.3316   -3.3808   -4.0297 C   0  0  0  0  0  0  0  0  0  0  0  0
   -4.9754   -3.1206   -3.7835 C   0  0  0  0  0  0  0  0  0  0  0  0
   -4.0000   -3.5925   -4.6651 C   0  0  0  0  0  0  0  0  0  0  0  0
   -4.3741   -4.3159   -5.8050 C   0  0  0  0  0  0  0  0  0  0  0  0
   -3.1087   -4.9418   -6.9206 S   0  0  0  0  0  0  0  0  0  0  0  0
   -3.1270   -3.4635   -7.9904 C   0  0  0  0  0  0  0  0  0  0  0  0
   -2.0089   -3.5541   -9.0224 C   0  0  0  0  0  0  0  0  0  0  0  0
   -5.7304   -4.5725   -6.0547 C   0  0  0  0  0  0  0  0  0  0  0  0
   -6.7099   -4.1016   -5.1731 C   0  0  0  0  0  0  0  0  0  0  0  0
   -6.1073   -5.2787   -7.1500 F   0  0  0  0  0  0  0  0  0  0  0  0
   -7.5895   -3.5878   -1.8860 C   0  0  0  0  0  0  0  0  0  0  0  0
   -6.7603   -4.9344   -1.3259 S   0  0  0  0  0  0  0  0  0  0  0  0
   -7.4373   -0.6144   -4.0938 C   0  0  0  0  0  0  0  0  0  0  0  0
   -7.8301    0.6828   -3.7554 C   0  0  0  0  0  0  0  0  0  0  0  0
   -8.8175    0.5881   -2.3854 S   0  0  0  0  0  0  0  0  0  0  0  0
   -6.9647    1.8411   -4.0343 C   0  0  0  0  0  0  0  0  0  0  0  0
   -6.4089    2.6002   -3.0004 C   0  0  0  0  0  0  0  0  0  0  0  0
   -5.1348    3.1096   -3.3019 C   0  0  0  0  0  0  0  0  0  0  0  0
   -4.2200    3.6489   -2.3676 C   0  0  0  0  0  0  0  0  0  0  0  0
   -4.5860    3.8498   -0.9509 C   0  0  0  0  0  0  0  0  0  0  0  0
   -4.6957    5.1443   -0.4299 C   0  0  0  0  0  0  0  0  0  0  0  0
   -5.1189    5.3394    0.8882 C   0  0  0  0  0  0  0  0  0  0  0  0
   -5.4310    4.2362    1.6967 C   0  0  0  0  0  0  0  0  0  0  0  0
   -6.0268    4.4988    3.3720 S   0  0  0  0  0  0  0  0  0  0  0  0
   -7.7841    4.6821    2.8956 C   0  0  0  0  0  0  0  0  0  0  0  0
   -8.4439    3.3244    2.6803 C   0  0  0  0  0  0  0  0  0  0  0  0
   -5.2771    2.9354    1.1925 C   0  0  0  0  0  0  0  0  0  0  0  0
   -5.5374    1.8563    1.9765 F   0  0  0  0  0  0  0  0  0  0  0  0
   -4.8585    2.7436   -0.1287 C   0  0  0  0  0  0  0  0  0  0  0  0
   -2.8988    3.8355   -2.8095 C   0  0  0  0  0  0  0  0  0  0  0  0
   -2.4914    3.5243   -4.1129 C   0  0  0  0  0  0  0  0  0  0  0  0
   -3.4192    3.0451   -5.0580 C   0  0  0  0  0  0  0  0  0  0  0  0
   -3.0063    2.6067   -6.4025 C   0  0  0  0  0  0  0  0  0  0  0  0
   -2.2209    1.4558   -6.5598 C   0  0  0  0  0  0  0  0  0  0  0  0
   -1.8614    1.0190   -7.8374 C   0  0  0  0  0  0  0  0  0  0  0  0
   -2.2625    1.7442   -8.9684 C   0  0  0  0  0  0  0  0  0  0  0  0
   -1.8288    1.1514  -10.6108 S   0  0  0  0  0  0  0  0  0  0  0  0
   -0.3167    2.1682  -10.7706 C   0  0  0  0  0  0  0  0  0  0  0  0
    0.8855    1.4449  -10.1776 C   0  0  0  0  0  0  0  0  0  0  0  0
   -3.0498    2.8950   -8.8127 C   0  0  0  0  0  0  0  0  0  0  0  0
   -3.4206    3.3244   -7.5344 C   0  0  0  0  0  0  0  0  0  0  0  0
   -3.4553    3.5995   -9.8998 F   0  0  0  0  0  0  0  0  0  0  0  0
   -4.7304    2.8318   -4.6097 C   0  0  0  0  0  0  0  0  0  0  0  0
   -5.9147    1.9037   -5.3583 S   0  0  0  0  0  0  0  0  0  0  0  0
   -1.1024    3.6112   -4.2939 C   0  0  0  0  0  0  0  0  0  0  0  0
   -0.4193    3.9545   -3.1284 C   0  0  0  0  0  0  0  0  0  0  0  0
   -1.5403    4.1954   -1.8849 S   0  0  0  0  0  0  0  0  0  0  0  0
    1.0396    3.9131   -2.9492 C   0  0  0  0  0  0  0  0  0  0  0  0
    1.9591    3.3948   -3.8628 C   0  0  0  0  0  0  0  0  0  0  0  0
    3.2781    3.3872   -3.3726 C   0  0  0  0  0  0  0  0  0  0  0  0
    4.4201    2.8788   -4.0367 C   0  0  0  0  0  0  0  0  0  0  0  0
    4.3173    2.1253   -5.3145 C   0  0  0  0  0  0  0  0  0  0  0  0
    3.4564    1.0165   -5.4082 C   0  0  0  0  0  0  0  0  0  0  0  0
    3.3552    0.2962   -6.6021 C   0  0  0  0  0  0  0  0  0  0  0  0
    4.1398    0.6457   -7.7054 C   0  0  0  0  0  0  0  0  0  0  0  0
    3.9673   -0.2622   -9.2503 S   0  0  0  0  0  0  0  0  0  0  0  0
    5.0024   -1.6852   -8.7526 C   0  0  0  0  0  0  0  0  0  0  0  0
    6.4834   -1.3446   -8.8457 C   0  0  0  0  0  0  0  0  0  0  0  0
    5.0116    1.7434   -7.6172 C   0  0  0  0  0  0  0  0  0  0  0  0
    5.7703    2.1010   -8.6806 F   0  0  0  0  0  0  0  0  0  0  0  0
    5.0996    2.4766   -6.4275 C   0  0  0  0  0  0  0  0  0  0  0  0
    5.6564    3.0536   -3.3786 C   0  0  0  0  0  0  0  0  0  0  0  0
    5.7590    3.6330   -2.1080 C   0  0  0  0  0  0  0  0  0  0  0  0
    4.6084    4.0424   -1.4029 C   0  0  0  0  0  0  0  0  0  0  0  0
    4.6706    4.4724    0.0180 C   0  0  0  0  0  0  0  0  0  0  0  0
    5.2435    3.6154    0.9820 C   0  0  0  0  0  0  0  0  0  0  0  0
    5.3160    4.0088    2.3210 C   0  0  0  0  0  0  0  0  0  0  0  0
    4.7713    5.2285    2.7297 C   0  0  0  0  0  0  0  0  0  0  0  0
    4.9388    5.7581    4.4421 S   0  0  0  0  0  0  0  0  0  0  0  0
    3.6065    4.6950    5.1060 C   0  0  0  0  0  0  0  0  0  0  0  0
    2.2269    5.2485    4.7723 C   0  0  0  0  0  0  0  0  0  0  0  0
    4.1739    6.0798    1.7819 C   0  0  0  0  0  0  0  0  0  0  0  0
    4.1228    5.6949    0.4345 C   0  0  0  0  0  0  0  0  0  0  0  0
    3.6390    7.2654    2.1631 F   0  0  0  0  0  0  0  0  0  0  0  0
    3.3844    3.9353   -2.0885 C   0  0  0  0  0  0  0  0  0  0  0  0
    1.8527    4.3660   -1.5416 S   0  0  0  0  0  0  0  0  0  0  0  0
    7.0844    3.7430   -1.6556 C   0  0  0  0  0  0  0  0  0  0  0  0
    8.0180    3.2281   -2.5518 C   0  0  0  0  0  0  0  0  0  0  0  0
    7.2036    2.6265   -3.9026 S   0  0  0  0  0  0  0  0  0  0  0  0
    9.4745    3.2226   -2.3460 C   0  0  0  0  0  0  0  0  0  0  0  0
   10.1471    3.9337   -1.3520 C   0  0  0  0  0  0  0  0  0  0  0  0
   11.5288    3.6862   -1.3361 C   0  0  0  0  0  0  0  0  0  0  0  0
   12.4610    4.2212   -0.4195 C   0  0  0  0  0  0  0  0  0  0  0  0
   12.0699    5.2211    0.5974 C   0  0  0  0  0  0  0  0  0  0  0  0
   11.5213    6.4529    0.2045 C   0  0  0  0  0  0  0  0  0  0  0  0
   11.1271    7.3880    1.1646 C   0  0  0  0  0  0  0  0  0  0  0  0
   11.2678    7.0980    2.5275 C   0  0  0  0  0  0  0  0  0  0  0  0
   10.7667    8.3121    3.7560 S   0  0  0  0  0  0  0  0  0  0  0  0
    9.0970    7.6166    4.0261 C   0  0  0  0  0  0  0  0  0  0  0  0
    8.1302    8.0625    2.9376 C   0  0  0  0  0  0  0  0  0  0  0  0
   11.8326    5.8769    2.9260 C   0  0  0  0  0  0  0  0  0  0  0  0
   11.9942    5.5919    4.2415 F   0  0  0  0  0  0  0  0  0  0  0  0
   12.2251    4.9396    1.9630 C   0  0  0  0  0  0  0  0  0  0  0  0
   13.7806    3.7481   -0.5114 C   0  0  0  0  0  0  0  0  0  0  0  0
   14.1853    2.8193   -1.4766 C   0  0  0  0  0  0  0  0  0  0  0  0
   13.2634    2.3187   -2.4218 C   0  0  0  0  0  0  0  0  0  0  0  0
   13.6621    1.3511   -3.4649 C   0  0  0  0  0  0  0  0  0  0  0  0
   13.5907    1.7063   -4.8200 C   0  0  0  0  0  0  0  0  0  0  0  0
   14.0100    0.8066   -5.8071 C   0  0  0  0  0  0  0  0  0  0  0  0
   14.4936   -0.4567   -5.4459 C   0  0  0  0  0  0  0  0  0  0  0  0
   15.0630   -1.5941   -6.7185 S   0  0  0  0  0  0  0  0  0  0  0  0
   13.4659   -2.4668   -6.8964 C   0  0  0  0  0  0  0  0  0  0  0  0
   12.5530   -1.7391   -7.8745 C   0  0  0  0  0  0  0  0  0  0  0  0
   14.5638   -0.8164   -4.0920 C   0  0  0  0  0  0  0  0  0  0  0  0
   14.1466    0.0837   -3.1071 C   0  0  0  0  0  0  0  0  0  0  0  0
   15.0502   -2.0301   -3.7285 F   0  0  0  0  0  0  0  0  0  0  0  0
   11.9368    2.7744   -2.3160 C   0  0  0  0  0  0  0  0  0  0  0  0
   10.5880    2.2916   -3.2066 S   0  0  0  0  0  0  0  0  0  0  0  0
   15.5518    2.4966   -1.3903 C   0  0  0  0  0  0  0  0  0  0  0  0
   16.2095    3.1629   -0.3605 C   0  0  0  0  0  0  0  0  0  0  0  0
   15.1095    4.1635    0.4360 S   0  0  0  0  0  0  0  0  0  0  0  0
   -2.5329   -8.0908   12.4032 H   0  0  0  0  0  0  0  0  0  0  0  0
   -2.8529   -5.7608   11.2826 H   0  0  0  0  0  0  0  0  0  0  0  0
   -5.1120   -4.0463   10.6323 H   0  0  0  0  0  0  0  0  0  0  0  0
   -4.4874   -1.6989   11.0482 H   0  0  0  0  0  0  0  0  0  0  0  0
   -0.6695   -1.1904   10.6628 H   0  0  0  0  0  0  0  0  0  0  0  0
   -0.4602    0.5828   10.8309 H   0  0  0  0  0  0  0  0  0  0  0  0
   -0.8577   -0.4795   13.0422 H   0  0  0  0  0  0  0  0  0  0  0  0
   -2.4383   -1.1303   12.4660 H   0  0  0  0  0  0  0  0  0  0  0  0
   -2.1936    0.6605   12.6177 H   0  0  0  0  0  0  0  0  0  0  0  0
   -2.1937   -4.2511    7.4657 H   0  0  0  0  0  0  0  0  0  0  0  0
   -2.8848  -10.4231    7.8098 H   0  0  0  0  0  0  0  0  0  0  0  0
   -3.2799  -12.7624    7.1640 H   0  0  0  0  0  0  0  0  0  0  0  0
   -6.0391  -12.9773    4.2733 H   0  0  0  0  0  0  0  0  0  0  0  0
   -6.0238  -14.7570    4.0342 H   0  0  0  0  0  0  0  0  0  0  0  0
   -3.5394  -13.0110    4.5905 H   0  0  0  0  0  0  0  0  0  0  0  0
   -4.0182  -13.7364    3.0130 H   0  0  0  0  0  0  0  0  0  0  0  0
   -3.5478  -14.8101    4.3820 H   0  0  0  0  0  0  0  0  0  0  0  0
   -7.0822   -9.5740    7.2927 H   0  0  0  0  0  0  0  0  0  0  0  0
   -5.6426   -8.3647    5.2558 H   0  0  0  0  0  0  0  0  0  0  0  0
   -2.9977   -5.5416    4.2642 H   0  0  0  0  0  0  0  0  0  0  0  0
   -0.7724   -4.8843    3.7483 H   0  0  0  0  0  0  0  0  0  0  0  0
   -0.9512   -3.1883    3.1639 H   0  0  0  0  0  0  0  0  0  0  0  0
   -0.3357   -4.4785    2.0538 H   0  0  0  0  0  0  0  0  0  0  0  0
   -2.7059   -3.5035   -1.5895 H   0  0  0  0  0  0  0  0  0  0  0  0
   -1.5062   -2.1900   -1.2806 H   0  0  0  0  0  0  0  0  0  0  0  0
   -3.2115   -1.9806   -0.7273 H   0  0  0  0  0  0  0  0  0  0  0  0
   -4.6076   -3.9176   -0.1483 H   0  0  0  0  0  0  0  0  0  0  0  0
   -8.5701   -3.4096    1.3243 H   0  0  0  0  0  0  0  0  0  0  0  0
   -8.1705   -0.9790    1.5057 H   0  0  0  0  0  0  0  0  0  0  0  0
   -9.5416    0.1708    3.1975 H   0  0  0  0  0  0  0  0  0  0  0  0
  -13.4999   -1.0576    3.0944 H   0  0  0  0  0  0  0  0  0  0  0  0
  -12.2208   -1.0607    4.3738 H   0  0  0  0  0  0  0  0  0  0  0  0
  -14.5104   -1.0347    5.3640 H   0  0  0  0  0  0  0  0  0  0  0  0
  -13.6217    0.4883    5.7606 H   0  0  0  0  0  0  0  0  0  0  0  0
  -14.8951    0.4813    4.4732 H   0  0  0  0  0  0  0  0  0  0  0  0
  -11.5675   -1.1192   -1.1458 H   0  0  0  0  0  0  0  0  0  0  0  0
   -4.6799   -2.5592   -2.9062 H   0  0  0  0  0  0  0  0  0  0  0  0
   -2.9543   -3.4010   -4.4535 H   0  0  0  0  0  0  0  0  0  0  0  0
   -2.9833   -2.5457   -7.3808 H   0  0  0  0  0  0  0  0  0  0  0  0
   -4.1054   -3.4035   -8.5139 H   0  0  0  0  0  0  0  0  0  0  0  0
   -2.1623   -4.4358   -9.6822 H   0  0  0  0  0  0  0  0  0  0  0  0
   -1.0268   -3.6439   -8.5106 H   0  0  0  0  0  0  0  0  0  0  0  0
   -1.9975   -2.6341   -9.6439 H   0  0  0  0  0  0  0  0  0  0  0  0
   -7.7547   -4.2951   -5.3721 H   0  0  0  0  0  0  0  0  0  0  0  0
   -6.6922   -0.8184   -4.8491 H   0  0  0  0  0  0  0  0  0  0  0  0
   -6.8356    2.6331   -2.0066 H   0  0  0  0  0  0  0  0  0  0  0  0
   -4.4827    6.0065   -1.0515 H   0  0  0  0  0  0  0  0  0  0  0  0
   -5.2195    6.3455    1.2787 H   0  0  0  0  0  0  0  0  0  0  0  0
   -7.8791    5.2989    1.9794 H   0  0  0  0  0  0  0  0  0  0  0  0
   -8.3081    5.2083    3.7198 H   0  0  0  0  0  0  0  0  0  0  0  0
   -9.5379    3.4591    2.5488 H   0  0  0  0  0  0  0  0  0  0  0  0
   -8.0445    2.8364    1.7693 H   0  0  0  0  0  0  0  0  0  0  0  0
   -8.2706    2.6682    3.5589 H   0  0  0  0  0  0  0  0  0  0  0  0
   -4.7687    1.7378   -0.5156 H   0  0  0  0  0  0  0  0  0  0  0  0
   -1.8973    0.8897   -5.6943 H   0  0  0  0  0  0  0  0  0  0  0  0
   -1.2622    0.1255   -7.9491 H   0  0  0  0  0  0  0  0  0  0  0  0
   -0.1323    2.3385  -11.8515 H   0  0  0  0  0  0  0  0  0  0  0  0
   -0.4456    3.1573  -10.2826 H   0  0  0  0  0  0  0  0  0  0  0  0
    1.8025    2.0457  -10.3587 H   0  0  0  0  0  0  0  0  0  0  0  0
    0.7612    1.3111   -9.0838 H   0  0  0  0  0  0  0  0  0  0  0  0
    1.0069    0.4514  -10.6589 H   0  0  0  0  0  0  0  0  0  0  0  0
   -4.0436    4.2024   -7.4217 H   0  0  0  0  0  0  0  0  0  0  0  0
   -0.6063    3.3697   -5.2225 H   0  0  0  0  0  0  0  0  0  0  0  0
    1.6813    3.0190   -4.8385 H   0  0  0  0  0  0  0  0  0  0  0  0
    2.8563    0.7141   -4.5592 H   0  0  0  0  0  0  0  0  0  0  0  0
    2.6798   -0.5502   -6.6619 H   0  0  0  0  0  0  0  0  0  0  0  0
    4.7872   -2.5276   -9.4447 H   0  0  0  0  0  0  0  0  0  0  0  0
    4.7469   -2.0152   -7.7224 H   0  0  0  0  0  0  0  0  0  0  0  0
    6.7550   -0.5917   -8.0771 H   0  0  0  0  0  0  0  0  0  0  0  0
    6.7215   -0.9455   -9.8546 H   0  0  0  0  0  0  0  0  0  0  0  0
    7.0882   -2.2603   -8.6771 H   0  0  0  0  0  0  0  0  0  0  0  0
    5.7647    3.3295   -6.3817 H   0  0  0  0  0  0  0  0  0  0  0  0
    5.6571    2.6601    0.6871 H   0  0  0  0  0  0  0  0  0  0  0  0
    5.7828    3.3456    3.0445 H   0  0  0  0  0  0  0  0  0  0  0  0
    3.7217    4.6690    6.2101 H   0  0  0  0  0  0  0  0  0  0  0  0
    3.7016    3.6555    4.7250 H   0  0  0  0  0  0  0  0  0  0  0  0
    2.0109    5.1180    3.6924 H   0  0  0  0  0  0  0  0  0  0  0  0
    1.4602    4.7036    5.3588 H   0  0  0  0  0  0  0  0  0  0  0  0
    2.1715    6.3250    5.0391 H   0  0  0  0  0  0  0  0  0  0  0  0
    3.6757    6.3686   -0.2894 H   0  0  0  0  0  0  0  0  0  0  0  0
    7.3550    4.1909   -0.7100 H   0  0  0  0  0  0  0  0  0  0  0  0
    9.6513    4.5879   -0.6530 H   0  0  0  0  0  0  0  0  0  0  0  0
   11.4003    6.6879   -0.8464 H   0  0  0  0  0  0  0  0  0  0  0  0
   10.7039    8.3354    0.8510 H   0  0  0  0  0  0  0  0  0  0  0  0
    8.7270    7.9907    5.0033 H   0  0  0  0  0  0  0  0  0  0  0  0
    9.1370    6.5082    4.0762 H   0  0  0  0  0  0  0  0  0  0  0  0
    8.1407    9.1702    2.8412 H   0  0  0  0  0  0  0  0  0  0  0  0
    8.3998    7.6033    1.9649 H   0  0  0  0  0  0  0  0  0  0  0  0
    7.1005    7.7394    3.2011 H   0  0  0  0  0  0  0  0  0  0  0  0
   12.6387    3.9931    2.2821 H   0  0  0  0  0  0  0  0  0  0  0  0
   13.2285    2.6843   -5.1138 H   0  0  0  0  0  0  0  0  0  0  0  0
   13.9707    1.0977   -6.8490 H   0  0  0  0  0  0  0  0  0  0  0  0
   12.9638   -2.5752   -5.9135 H   0  0  0  0  0  0  0  0  0  0  0  0
   13.6691   -3.4848   -7.2898 H   0  0  0  0  0  0  0  0  0  0  0  0
   13.0401   -1.6668   -8.8705 H   0  0  0  0  0  0  0  0  0  0  0  0
   11.6012   -2.3006   -7.9817 H   0  0  0  0  0  0  0  0  0  0  0  0
   12.3202   -0.7198   -7.5065 H   0  0  0  0  0  0  0  0  0  0  0  0
   14.2069   -0.2036   -2.0635 H   0  0  0  0  0  0  0  0  0  0  0  0
   16.0555    1.8056   -2.0491 H   0  0  0  0  0  0  0  0  0  0  0  0
   17.2580    3.0582   -0.1149 H   0  0  0  0  0  0  0  0  0  0  0  0
  1  2  2  0
  2  3  1  0
  3  4  2  0
  4  5  1  0
  5  6  2  0
  6  7  1  0
  7  8  2  0
  8  9  1  0
  9 10  1  0
 10 11  1  0
  8 12  1  0
 12 13  1  0
 12 14  2  0
  4 15  1  0
 15 16  2  0
 16 17  1  0
 17 18  1  0
 18 19  2  0
 19 20  1  0
 20 21  2  0
 21 22  1  0
 22 23  1  0
 23 24  1  0
 21 25  1  0
 25 26  2  0
 25 27  1  0
 17 28  2  0
 28 29  1  0
 16 30  1  0
 30 31  2  0
 31 32  1  0
 31 33  1  0
 33 34  1  0
 34 35  1  0
 35 36  2  0
 36 37  1  0
 37 38  1  0
 38 39  2  0
 39 40  1  0
 39 41  1  0
 41 42  1  0
 42 43  1  0
 41 44  2  0
 35 45  1  0
 45 46  2  0
 46 47  1  0
 47 48  2  0
 48 49  1  0
 49 50  2  0
 50 51  1  0
 51 52  2  0
 52 53  1  0
 53 54  1  0
 54 55  1  0
 52 56  1  0
 56 57  1  0
 56 58  2  0
 48 59  1  0
 59 60  2  0
 60 61  1  0
 61 62  1  0
 62 63  2  0
 63 64  1  0
 64 65  2  0
 65 66  1  0
 66 67  1  0
 67 68  1  0
 65 69  1  0
 69 70  2  0
 69 71  1  0
 61 72  2  0
 72 73  1  0
 60 74  1  0
 74 75  2  0
 75 76  1  0
 75 77  1  0
 77 78  2  0
 78 79  1  0
 79 80  2  0
 80 81  1  0
 81 82  2  0
 82 83  1  0
 83 84  2  0
 84 85  1  0
 85 86  1  0
 86 87  1  0
 84 88  1  0
 88 89  1  0
 88 90  2  0
 80 91  1  0
 91 92  2  0
 92 93  1  0
 93 94  1  0
 94 95  2  0
 95 96  1  0
 96 97  2  0
 97 98  1  0
 98 99  1  0
 99100  1  0
 97101  1  0
101102  2  0
101103  1  0
 93104  2  0
104105  1  0
 92106  1  0
106107  2  0
107108  1  0
107109  1  0
109110  2  0
110111  1  0
111112  2  0
112113  1  0
113114  2  0
114115  1  0
115116  2  0
116117  1  0
117118  1  0
118119  1  0
116120  1  0
120121  1  0
120122  2  0
112123  1  0
123124  2  0
124125  1  0
125126  1  0
126127  2  0
127128  1  0
128129  2  0
129130  1  0
130131  1  0
131132  1  0
129133  1  0
133134  2  0
133135  1  0
125136  2  0
136137  1  0
124138  1  0
138139  2  0
139140  1  0
139141  1  0
141142  2  0
142143  1  0
143144  2  0
144145  1  0
145146  2  0
146147  1  0
147148  2  0
148149  1  0
149150  1  0
150151  1  0
148152  1  0
152153  1  0
152154  2  0
144155  1  0
155156  2  0
156157  1  0
157158  1  0
158159  2  0
159160  1  0
160161  2  0
161162  1  0
162163  1  0
163164  1  0
161165  1  0
165166  2  0
165167  1  0
157168  2  0
168169  1  0
156170  1  0
170171  2  0
171172  1  0
 29  1  1  0
 37 33  2  0
 73 45  1  0
105 77  1  0
137109  1  0
169141  1  0
 28  3  1  0
 44 36  1  0
 72 47  1  0
104 79  1  0
136111  1  0
168143  1  0
 14  5  1  0
 32 15  1  0
 58 49  1  0
 76 59  1  0
 90 81  1  0
108 91  1  0
122113  1  0
140123  1  0
154145  1  0
172155  1  0
 26 18  1  0
 70 62  1  0
102 94  1  0
134126  1  0
166158  1  0
  1173  1  0
  2174  1  0
  6175  1  0
  7176  1  0
 10177  1  0
 10178  1  0
 11179  1  0
 11180  1  0
 11181  1  0
 14182  1  0
 19183  1  0
 20184  1  0
 23185  1  0
 23186  1  0
 24187  1  0
 24188  1  0
 24189  1  0
 26190  1  0
 30191  1  0
 38192  1  0
 40193  1  0
 40194  1  0
 40195  1  0
 43196  1  0
 43197  1  0
 43198  1  0
 44199  1  0
 46200  1  0
 50201  1  0
 51202  1  0
 54203  1  0
 54204  1  0
 55205  1  0
 55206  1  0
 55207  1  0
 58208  1  0
 63209  1  0
 64210  1  0
 67211  1  0
 67212  1  0
 68213  1  0
 68214  1  0
 68215  1  0
 70216  1  0
 74217  1  0
 78218  1  0
 82219  1  0
 83220  1  0
 86221  1  0
 86222  1  0
 87223  1  0
 87224  1  0
 87225  1  0
 90226  1  0
 95227  1  0
 96228  1  0
 99229  1  0
 99230  1  0
100231  1  0
100232  1  0
100233  1  0
102234  1  0
106235  1  0
110236  1  0
114237  1  0
115238  1  0
118239  1  0
118240  1  0
119241  1  0
119242  1  0
119243  1  0
122244  1  0
127245  1  0
128246  1  0
131247  1  0
131248  1  0
132249  1  0
132250  1  0
132251  1  0
134252  1  0
138253  1  0
142254  1  0
146255  1  0
147256  1  0
150257  1  0
150258  1  0
151259  1  0
151260  1  0
151261  1  0
154262  1  0
159263  1  0
160264  1  0
163265  1  0
163266  1  0
164267  1  0
164268  1  0
164269  1  0
166270  1  0
170271  1  0
171272  1  0
M  END

