
     RDKit          3D

 98113  0  0  0  0  0  0  0  0999 V2000
   13.2824    3.3674   12.2565 C   0  0  0  0  0  0  0  0  0  0  0  0
   12.1380    2.7247   12.6123 N   0  0  0  0  0  0  0  0  0  0  0  0
   11.4931    2.5634   11.4540 C   0  0  0  0  0  0  0  0  0  0  0  0
   10.2781    1.9778   11.2492 N   0  0  0  0  0  0  0  0  0  0  0  0
    9.8637    1.9679    9.9491 C   0  0  0  0  0  0  0  0  0  0  0  0
    8.7108    1.4998    9.4625 N   0  0  0  0  0  0  0  0  0  0  0  0
    8.7893    1.7867    8.1335 C   0  0  0  0  0  0  0  0  0  0  0  0
    9.9427    2.4163    7.7648 N   0  0  0  0  0  0  0  0  0  0  0  0
   10.6022    2.5142    8.9297 C   0  0  0  0  0  0  0  0  0  0  0  0
   11.8151    3.1022    9.1411 N   0  0  0  0  0  0  0  0  0  0  0  0
   12.2391    3.1024   10.4384 C   0  0  0  0  0  0  0  0  0  0  0  0
   13.3814    3.6219   10.9192 N   0  0  0  0  0  0  0  0  0  0  0  0
    7.7055    1.4997    7.1843 C   0  0  0  0  0  0  0  0  0  0  0  0
    7.7330    1.9062    5.8856 N   0  0  0  0  0  0  0  0  0  0  0  0
    6.5509    1.5074    5.4120 C   0  0  0  0  0  0  0  0  0  0  0  0
    6.0313    1.7421    4.1743 N   0  0  0  0  0  0  0  0  0  0  0  0
    4.7656    1.2746    3.9897 C   0  0  0  0  0  0  0  0  0  0  0  0
    4.0065    1.3967    2.9004 N   0  0  0  0  0  0  0  0  0  0  0  0
    2.8361    0.8042    3.2644 C   0  0  0  0  0  0  0  0  0  0  0  0
    2.8339    0.3039    4.5348 N   0  0  0  0  0  0  0  0  0  0  0  0
    4.0641    0.6209    4.9700 C   0  0  0  0  0  0  0  0  0  0  0  0
    4.5797    0.4057    6.2158 N   0  0  0  0  0  0  0  0  0  0  0  0
    5.8504    0.8676    6.4026 C   0  0  0  0  0  0  0  0  0  0  0  0
    6.5612    0.8464    7.5425 N   0  0  0  0  0  0  0  0  0  0  0  0
    1.6777    0.6870    2.3684 C   0  0  0  0  0  0  0  0  0  0  0  0
    0.7451   -0.7048    2.2038 S   0  0  0  0  0  0  0  0  0  0  0  0
   -0.2721   -0.1283    0.9877 C   0  0  0  0  0  0  0  0  0  0  0  0
    0.1104    1.1850    0.6989 C   0  0  0  0  0  0  0  0  0  0  0  0
    1.1924    1.6407    1.4715 C   0  0  0  0  0  0  0  0  0  0  0  0
    1.6479    2.9562    1.3423 C   0  0  0  0  0  0  0  0  0  0  0  0
    1.0406    3.8145    0.4086 C   0  0  0  0  0  0  0  0  0  0  0  0
    1.5150    5.2356    0.2822 C   0  0  0  0  0  0  0  0  0  0  0  0
   -0.0455    3.3607   -0.3729 C   0  0  0  0  0  0  0  0  0  0  0  0
   -0.6381    4.2515   -1.2852 O   0  0  0  0  0  0  0  0  0  0  0  0
   -1.7282    3.9257   -2.1420 C   0  0  0  0  0  0  0  0  0  0  0  0
   -0.5160    2.0405   -0.2145 C   0  0  0  0  0  0  0  0  0  0  0  0
   -1.2766   -0.9355    0.2712 C   0  0  0  0  0  0  0  0  0  0  0  0
   -1.3841   -1.0444   -1.4052 S   0  0  0  0  0  0  0  0  0  0  0  0
   -2.6598   -2.1377   -1.4662 C   0  0  0  0  0  0  0  0  0  0  0  0
   -3.0081   -2.4649   -0.1506 C   0  0  0  0  0  0  0  0  0  0  0  0
   -2.2377   -1.7904    0.8170 C   0  0  0  0  0  0  0  0  0  0  0  0
   -2.4802   -1.9887    2.1809 C   0  0  0  0  0  0  0  0  0  0  0  0
   -3.4755   -2.8959    2.5850 C   0  0  0  0  0  0  0  0  0  0  0  0
   -3.7382   -3.1134    4.0507 C   0  0  0  0  0  0  0  0  0  0  0  0
   -4.2209   -3.6104    1.6182 C   0  0  0  0  0  0  0  0  0  0  0  0
   -5.1929   -4.5246    2.0590 O   0  0  0  0  0  0  0  0  0  0  0  0
   -5.9900   -5.3348    1.2039 C   0  0  0  0  0  0  0  0  0  0  0  0
   -3.9785   -3.3926    0.2445 C   0  0  0  0  0  0  0  0  0  0  0  0
   -3.2873   -2.5738   -2.7224 C   0  0  0  0  0  0  0  0  0  0  0  0
   -4.6280   -2.7624   -2.8719 N   0  0  0  0  0  0  0  0  0  0  0  0
   -4.7607   -3.0149   -4.1773 C   0  0  0  0  0  0  0  0  0  0  0  0
   -5.9192   -3.2032   -4.8723 N   0  0  0  0  0  0  0  0  0  0  0  0
   -5.7543   -3.3644   -6.2162 C   0  0  0  0  0  0  0  0  0  0  0  0
   -6.7048   -3.5255   -7.1400 N   0  0  0  0  0  0  0  0  0  0  0  0
   -6.0056   -3.5685   -8.3068 C   0  0  0  0  0  0  0  0  0  0  0  0
   -4.6554   -3.4434   -8.1534 N   0  0  0  0  0  0  0  0  0  0  0  0
   -4.5260   -3.3200   -6.8246 C   0  0  0  0  0  0  0  0  0  0  0  0
   -3.3729   -3.1130   -6.1275 N   0  0  0  0  0  0  0  0  0  0  0  0
   -3.5303   -2.9698   -4.7818 C   0  0  0  0  0  0  0  0  0  0  0  0
   -2.5774   -2.6786   -3.8843 N   0  0  0  0  0  0  0  0  0  0  0  0
   -6.6466   -3.6752   -9.6257 C   0  0  0  0  0  0  0  0  0  0  0  0
   -5.9496   -3.6530  -10.7971 N   0  0  0  0  0  0  0  0  0  0  0  0
   -6.9053   -3.7117  -11.7282 C   0  0  0  0  0  0  0  0  0  0  0  0
   -6.7512   -3.6582  -13.0836 N   0  0  0  0  0  0  0  0  0  0  0  0
   -7.9201   -3.6815  -13.7887 C   0  0  0  0  0  0  0  0  0  0  0  0
   -8.0761   -3.6111  -15.1133 N   0  0  0  0  0  0  0  0  0  0  0  0
   -9.4261   -3.6376  -15.2760 C   0  0  0  0  0  0  0  0  0  0  0  0
  -10.1280   -3.7160  -14.1072 N   0  0  0  0  0  0  0  0  0  0  0  0
   -9.1505   -3.7451  -13.1863 C   0  0  0  0  0  0  0  0  0  0  0  0
   -9.2989   -3.7834  -11.8299 N   0  0  0  0  0  0  0  0  0  0  0  0
   -8.1351   -3.7706  -11.1202 C   0  0  0  0  0  0  0  0  0  0  0  0
   -8.0005   -3.7450   -9.7834 N   0  0  0  0  0  0  0  0  0  0  0  0
   14.0445    3.6571   12.9706 H   0  0  0  0  0  0  0  0  0  0  0  0
   11.8359    2.4263   13.5648 H   0  0  0  0  0  0  0  0  0  0  0  0
    7.9300    1.0464    9.9848 H   0  0  0  0  0  0  0  0  0  0  0  0
    8.4792    2.4401    5.3861 H   0  0  0  0  0  0  0  0  0  0  0  0
    4.2671    1.8239    1.9847 H   0  0  0  0  0  0  0  0  0  0  0  0
    2.4423    3.3251    1.9764 H   0  0  0  0  0  0  0  0  0  0  0  0
    2.4342    5.4158    0.8779 H   0  0  0  0  0  0  0  0  0  0  0  0
    1.7435    5.4631   -0.7800 H   0  0  0  0  0  0  0  0  0  0  0  0
    0.7234    5.9256    0.6432 H   0  0  0  0  0  0  0  0  0  0  0  0
   -2.6191    3.6558   -1.5374 H   0  0  0  0  0  0  0  0  0  0  0  0
   -1.9775    4.8090   -2.7659 H   0  0  0  0  0  0  0  0  0  0  0  0
   -1.4522    3.0816   -2.8096 H   0  0  0  0  0  0  0  0  0  0  0  0
   -1.3709    1.6946   -0.7744 H   0  0  0  0  0  0  0  0  0  0  0  0
   -1.9161   -1.4426    2.9260 H   0  0  0  0  0  0  0  0  0  0  0  0
   -4.7722   -2.7940    4.2977 H   0  0  0  0  0  0  0  0  0  0  0  0
   -3.6236   -4.1892    4.3024 H   0  0  0  0  0  0  0  0  0  0  0  0
   -3.0346   -2.5316    4.6824 H   0  0  0  0  0  0  0  0  0  0  0  0
   -6.6086   -4.6954    0.5383 H   0  0  0  0  0  0  0  0  0  0  0  0
   -6.6651   -5.9591    1.8249 H   0  0  0  0  0  0  0  0  0  0  0  0
   -5.3417   -6.0081    0.6034 H   0  0  0  0  0  0  0  0  0  0  0  0
   -4.5186   -3.9570   -0.4984 H   0  0  0  0  0  0  0  0  0  0  0  0
   -5.3892   -2.6547   -2.1653 H   0  0  0  0  0  0  0  0  0  0  0  0
   -7.7389   -3.5762   -6.9973 H   0  0  0  0  0  0  0  0  0  0  0  0
   -4.9190   -3.5710  -10.9400 H   0  0  0  0  0  0  0  0  0  0  0  0
   -7.3379   -3.5419  -15.8500 H   0  0  0  0  0  0  0  0  0  0  0  0
   -9.9052   -3.5924  -16.2458 H   0  0  0  0  0  0  0  0  0  0  0  0
  1  2  1  0
  2  3  1  0
  3  4  2  0
  4  5  1  0
  5  6  1  0
  6  7  1  0
  7  8  2  0
  8  9  1  0
  9 10  1  0
 10 11  2  0
 11 12  1  0
  7 13  1  0
 13 14  1  0
 14 15  1  0
 15 16  2  0
 16 17  1  0
 17 18  1  0
 18 19  1  0
 19 20  2  0
 20 21  1  0
 21 22  1  0
 22 23  2  0
 23 24  1  0
 19 25  1  0
 25 26  1  0
 26 27  1  0
 27 28  2  0
 28 29  1  0
 29 30  1  0
 30 31  2  0
 31 32  1  0
 31 33  1  0
 33 34  1  0
 34 35  1  0
 33 36  2  0
 27 37  1  0
 37 38  1  0
 38 39  1  0
 39 40  2  0
 40 41  1  0
 41 42  1  0
 42 43  2  0
 43 44  1  0
 43 45  1  0
 45 46  1  0
 46 47  1  0
 45 48  2  0
 39 49  1  0
 49 50  1  0
 50 51  1  0
 51 52  2  0
 52 53  1  0
 53 54  1  0
 54 55  1  0
 55 56  2  0
 56 57  1  0
 57 58  1  0
 58 59  2  0
 59 60  1  0
 55 61  1  0
 61 62  1  0
 62 63  1  0
 63 64  2  0
 64 65  1  0
 65 66  1  0
 66 67  1  0
 67 68  2  0
 68 69  1  0
 69 70  1  0
 70 71  2  0
 71 72  1  0
 12  1  2  0
 24 13  2  0
 29 25  2  0
 41 37  2  0
 60 49  2  0
 72 61  2  0
 11  3  1  0
 23 15  1  0
 36 28  1  0
 48 40  1  0
 59 51  1  0
 71 63  1  0
  9  5  2  0
 21 17  2  0
 57 53  2  0
 69 65  2  0
  1 73  1  0
  2 74  1  0
  6 75  1  0
 14 76  1  0
 18 77  1  0
 30 78  1  0
 32 79  1  0
 32 80  1  0
 32 81  1  0
 35 82  1  0
 35 83  1  0
 35 84  1  0
 36 85  1  0
 42 86  1  0
 44 87  1  0
 44 88  1  0
 44 89  1  0
 47 90  1  0
 47 91  1  0
 47 92  1  0
 48 93  1  0
 50 94  1  0
 54 95  1  0
 62 96  1  0
 66 97  1  0
 67 98  1  0
M  END

