
     RDKit          3D

106117  0  0  0  0  0  0  0  0999 V2000
    7.4135   -1.0995    1.9550 C   0  0  0  0  0  0  0  0  0  0  0  0
    7.2956    0.1838    3.0207 S   0  0  0  0  0  0  0  0  0  0  0  0
    7.0064    1.3812    1.8672 C   0  0  0  0  0  0  0  0  0  0  0  0
    7.0271    0.7963    0.6011 C   0  0  0  0  0  0  0  0  0  0  0  0
    7.2655   -0.6056    0.6595 C   0  0  0  0  0  0  0  0  0  0  0  0
    7.3489   -1.4685   -0.5257 C   0  0  0  0  0  0  0  0  0  0  0  0
    7.2408   -0.7679   -1.9819 S   0  0  0  0  0  3  0  0  0  0  0  0
    6.9991    1.0013   -1.8807 C   0  0  0  0  0  0  0  0  0  0  0  0
    6.9343    1.5751   -0.6726 C   0  0  0  0  0  0  0  0  0  0  0  0
    6.8324    2.8114    2.1802 C   0  0  0  0  0  0  0  0  0  0  0  0
    5.7889    3.5518    1.7781 C   0  0  0  0  0  0  0  0  0  0  0  0
    4.5732    3.0048    1.1364 C   0  0  0  0  0  0  0  0  0  0  0  0
    3.7902    1.5794    1.5795 S   0  0  0  0  0  0  0  0  0  0  0  0
    2.4576    1.7371    0.5630 C   0  0  0  0  0  0  0  0  0  0  0  0
    2.5839    2.9577   -0.1114 C   0  0  0  0  0  0  0  0  0  0  0  0
    3.7566    3.6635    0.2220 C   0  0  0  0  0  0  0  0  0  0  0  0
    4.0379    4.8936   -0.3756 C   0  0  0  0  0  0  0  0  0  0  0  0
    3.1280    5.4461   -1.2913 C   0  0  0  0  0  0  0  0  0  0  0  0
    3.4305    6.7759   -1.9288 C   0  0  0  0  0  0  0  0  0  0  0  0
    1.9154    4.7765   -1.5710 C   0  0  0  0  0  0  0  0  0  0  0  0
    0.9996    5.3898   -2.4361 O   0  0  0  0  0  0  0  0  0  0  0  0
   -0.2013    4.7894   -2.8986 C   0  0  0  0  0  0  0  0  0  0  0  0
    1.6451    3.5211   -0.9801 C   0  0  0  0  0  0  0  0  0  0  0  0
    1.3775    0.7328    0.5006 C   0  0  0  0  0  0  0  0  0  0  0  0
    0.8051   -0.0876    1.8393 S   0  0  0  0  0  0  0  0  0  0  0  0
   -0.1031   -1.2878    1.0878 C   0  0  0  0  0  0  0  0  0  0  0  0
    0.0343   -1.0316   -0.3058 C   0  0  0  0  0  0  0  0  0  0  0  0
    0.8747    0.0690   -0.6115 C   0  0  0  0  0  0  0  0  0  0  0  0
    1.2296    0.3547   -1.9384 C   0  0  0  0  0  0  0  0  0  0  0  0
    0.6581   -0.3755   -2.9883 C   0  0  0  0  0  0  0  0  0  0  0  0
    1.0033   -0.0312   -4.4155 C   0  0  0  0  0  0  0  0  0  0  0  0
   -0.2237   -1.4388   -2.7081 C   0  0  0  0  0  0  0  0  0  0  0  0
   -0.7747   -2.1731   -3.7719 O   0  0  0  0  0  0  0  0  0  0  0  0
   -1.8155   -3.1408   -3.6438 C   0  0  0  0  0  0  0  0  0  0  0  0
   -0.5158   -1.7675   -1.3692 C   0  0  0  0  0  0  0  0  0  0  0  0
   -0.7925   -2.4182    1.8114 C   0  0  0  0  0  0  0  0  0  0  0  0
   -1.7376   -3.5825    1.0599 S   0  0  0  0  0  0  0  0  0  0  0  0
   -2.1836   -4.4914    2.3924 C   0  0  0  0  0  0  0  0  0  0  0  0
   -1.5822   -3.9149    3.5118 C   0  0  0  0  0  0  0  0  0  0  0  0
   -0.7871   -2.7648    3.1958 C   0  0  0  0  0  0  0  0  0  0  0  0
    0.0145   -2.0903    4.2427 C   0  0  0  0  0  0  0  0  0  0  0  0
   -0.0933   -2.5996    5.7728 S   0  0  0  0  0  3  0  0  0  0  0  0
   -1.1903   -3.9994    5.9676 C   0  0  0  0  0  0  0  0  0  0  0  0
   -1.7890   -4.4830    4.8831 C   0  0  0  0  0  0  0  0  0  0  0  0
   -2.7894   -5.8461    2.3311 C   0  0  0  0  0  0  0  0  0  0  0  0
   -3.5823   -6.3000    1.3432 C   0  0  0  0  0  0  0  0  0  0  0  0
   -4.2174   -5.4489    0.3131 C   0  0  0  0  0  0  0  0  0  0  0  0
   -5.1101   -4.0662    0.6483 S   0  0  0  0  0  0  0  0  0  0  0  0
   -5.7297   -3.8354   -0.9013 C   0  0  0  0  0  0  0  0  0  0  0  0
   -5.2914   -4.8922   -1.7100 C   0  0  0  0  0  0  0  0  0  0  0  0
   -4.4491   -5.8080   -1.0150 C   0  0  0  0  0  0  0  0  0  0  0  0
   -3.9107   -7.0377   -1.6148 C   0  0  0  0  0  0  0  0  0  0  0  0
   -4.3055   -7.3613   -3.1578 S   0  0  0  0  0  3  0  0  0  0  0  0
   -5.3320   -6.0988   -3.8950 C   0  0  0  0  0  0  0  0  0  0  0  0
   -5.6869   -5.0477   -3.1492 C   0  0  0  0  0  0  0  0  0  0  0  0
   -6.7656   -2.8524   -1.2661 C   0  0  0  0  0  0  0  0  0  0  0  0
   -6.8740   -1.6162   -0.7621 C   0  0  0  0  0  0  0  0  0  0  0  0
   -5.8843   -1.0026    0.1463 C   0  0  0  0  0  0  0  0  0  0  0  0
   -6.0208   -1.0321    1.8177 S   0  0  0  0  0  0  0  0  0  0  0  0
   -4.8526    0.1494    2.1581 C   0  0  0  0  0  0  0  0  0  0  0  0
   -4.3424    0.6210    0.9312 C   0  0  0  0  0  0  0  0  0  0  0  0
   -4.9461   -0.0215   -0.1996 C   0  0  0  0  0  0  0  0  0  0  0  0
   -4.6404    0.3342   -1.6070 C   0  0  0  0  0  0  0  0  0  0  0  0
   -3.5734    1.5454   -1.8666 S   0  0  0  0  0  3  0  0  0  0  0  0
   -2.9103    2.2033   -0.3500 C   0  0  0  0  0  0  0  0  0  0  0  0
   -3.2953    1.6835    0.8206 C   0  0  0  0  0  0  0  0  0  0  0  0
   -4.5098    0.6381    3.5127 C   0  0  0  0  0  0  0  0  0  0  0  0
   -5.0621    0.1239    4.6051 C   0  0  0  0  0  0  0  0  0  0  0  0
    7.6001   -2.1282    2.2338 H   0  0  0  0  0  0  0  0  0  0  0  0
    7.4891   -2.5401   -0.4512 H   0  0  0  0  0  0  0  0  0  0  0  0
    6.9487    1.5931   -2.7858 H   0  0  0  0  0  0  0  0  0  0  0  0
    6.8137    2.6581   -0.6297 H   0  0  0  0  0  0  0  0  0  0  0  0
    7.6101    3.2893    2.7627 H   0  0  0  0  0  0  0  0  0  0  0  0
    5.8208    4.6149    1.9744 H   0  0  0  0  0  0  0  0  0  0  0  0
    4.9543    5.4207   -0.1405 H   0  0  0  0  0  0  0  0  0  0  0  0
    2.8689    7.5724   -1.4070 H   0  0  0  0  0  0  0  0  0  0  0  0
    3.1391    6.7634   -3.0014 H   0  0  0  0  0  0  0  0  0  0  0  0
    4.5173    7.0103   -1.8732 H   0  0  0  0  0  0  0  0  0  0  0  0
   -0.7561    5.5243   -3.5251 H   0  0  0  0  0  0  0  0  0  0  0  0
    0.0448    3.8854   -3.5061 H   0  0  0  0  0  0  0  0  0  0  0  0
   -0.8531    4.5150   -2.0411 H   0  0  0  0  0  0  0  0  0  0  0  0
    0.7068    3.0031   -1.1574 H   0  0  0  0  0  0  0  0  0  0  0  0
    1.9727    1.1166   -2.1648 H   0  0  0  0  0  0  0  0  0  0  0  0
    0.0789    0.2086   -4.9761 H   0  0  0  0  0  0  0  0  0  0  0  0
    1.4833   -0.9010   -4.9015 H   0  0  0  0  0  0  0  0  0  0  0  0
    1.6834    0.8403   -4.4719 H   0  0  0  0  0  0  0  0  0  0  0  0
   -2.7165   -2.6972   -3.1840 H   0  0  0  0  0  0  0  0  0  0  0  0
   -2.0946   -3.5050   -4.6480 H   0  0  0  0  0  0  0  0  0  0  0  0
   -1.4658   -3.9956   -3.0414 H   0  0  0  0  0  0  0  0  0  0  0  0
   -1.1343   -2.6165   -1.1838 H   0  0  0  0  0  0  0  0  0  0  0  0
    0.7274   -1.3247    4.0458 H   0  0  0  0  0  0  0  0  0  0  0  0
   -1.3558   -4.4364    6.9420 H   0  0  0  0  0  0  0  0  0  0  0  0
   -2.4727   -5.3150    5.0135 H   0  0  0  0  0  0  0  0  0  0  0  0
   -2.4820   -6.5622    3.0865 H   0  0  0  0  0  0  0  0  0  0  0  0
   -3.8329   -7.3628    1.3392 H   0  0  0  0  0  0  0  0  0  0  0  0
   -3.2800   -7.7180   -1.0546 H   0  0  0  0  0  0  0  0  0  0  0  0
   -5.6672   -6.1956   -4.9167 H   0  0  0  0  0  0  0  0  0  0  0  0
   -6.2755   -4.2724   -3.6208 H   0  0  0  0  0  0  0  0  0  0  0  0
   -7.4899   -3.1321   -2.0165 H   0  0  0  0  0  0  0  0  0  0  0  0
   -7.6705   -0.9839   -1.1323 H   0  0  0  0  0  0  0  0  0  0  0  0
   -5.1357   -0.1456   -2.4440 H   0  0  0  0  0  0  0  0  0  0  0  0
   -2.1773    2.9972   -0.3688 H   0  0  0  0  0  0  0  0  0  0  0  0
   -2.8846    2.1069    1.7216 H   0  0  0  0  0  0  0  0  0  0  0  0
   -3.8061    1.4568    3.6367 H   0  0  0  0  0  0  0  0  0  0  0  0
   -4.8280    0.5428    5.5715 H   0  0  0  0  0  0  0  0  0  0  0  0
   -5.7479   -0.7096    4.5596 H   0  0  0  0  0  0  0  0  0  0  0  0
  1  2  1  0
  2  3  1  0
  3  4  2  0
  4  5  1  0
  5  6  1  0
  6  7  2  0
  7  8  1  0
  8  9  2  0
  3 10  1  0
 10 11  2  3
 11 12  1  0
 12 13  1  0
 13 14  1  0
 14 15  2  0
 15 16  1  0
 16 17  1  0
 17 18  2  0
 18 19  1  0
 18 20  1  0
 20 21  1  0
 21 22  1  0
 20 23  2  0
 14 24  1  0
 24 25  1  0
 25 26  1  0
 26 27  2  0
 27 28  1  0
 28 29  1  0
 29 30  2  0
 30 31  1  0
 30 32  1  0
 32 33  1  0
 33 34  1  0
 32 35  2  0
 26 36  1  0
 36 37  1  0
 37 38  1  0
 38 39  2  0
 39 40  1  0
 40 41  1  0
 41 42  2  0
 42 43  1  0
 43 44  2  0
 38 45  1  0
 45 46  2  3
 46 47  1  0
 47 48  1  0
 48 49  1  0
 49 50  2  0
 50 51  1  0
 51 52  1  0
 52 53  2  0
 53 54  1  0
 54 55  2  0
 49 56  1  0
 56 57  2  3
 57 58  1  0
 58 59  1  0
 59 60  1  0
 60 61  2  0
 61 62  1  0
 62 63  1  0
 63 64  2  0
 64 65  1  0
 65 66  2  0
 60 67  1  0
 67 68  2  3
  5  1  2  0
 16 12  2  0
 28 24  2  0
 40 36  2  0
 51 47  2  0
 62 58  2  0
  9  4  1  0
 23 15  1  0
 35 27  1  0
 44 39  1  0
 55 50  1  0
 66 61  1  0
  1 69  1  0
  6 70  1  0
  8 71  1  0
  9 72  1  0
 10 73  1  0
 11 74  1  0
 17 75  1  0
 19 76  1  0
 19 77  1  0
 19 78  1  0
 22 79  1  0
 22 80  1  0
 22 81  1  0
 23 82  1  0
 29 83  1  0
 31 84  1  0
 31 85  1  0
 31 86  1  0
 34 87  1  0
 34 88  1  0
 34 89  1  0
 35 90  1  0
 41 91  1  0
 43 92  1  0
 44 93  1  0
 45 94  1  0
 46 95  1  0
 52 96  1  0
 54 97  1  0
 55 98  1  0
 56 99  1  0
 57100  1  0
 63101  1  0
 65102  1  0
 66103  1  0
 67104  1  0
 68105  1  0
 68106  1  0
M  RAD  4   7   2  42   2  53   2  64   2
M  END

