
     RDKit          3D

118133  0  0  0  0  0  0  0  0999 V2000
    6.3022    3.7437   -5.2725 C   0  0  0  0  0  0  0  0  0  0  0  0
    6.6362    2.9504   -4.1652 C   0  0  0  0  0  0  0  0  0  0  0  0
    5.7649    1.8720   -4.0369 C   0  0  0  0  0  0  0  0  0  0  0  0
    4.8052    1.8300   -4.9950 C   0  0  0  0  0  0  0  0  0  0  0  0
    4.9294    3.1090   -6.0655 S   0  0  0  0  0  0  0  0  0  0  0  0
    3.9277    0.7382   -4.7100 C   0  0  0  0  0  0  0  0  0  0  0  0
    4.3626    0.1142   -3.5860 C   0  0  0  0  0  0  0  0  0  0  0  0
    5.6006    0.7691   -3.0202 C   0  0  0  0  0  0  0  0  0  0  0  0
    3.5565   -0.9456   -3.1807 C   0  0  0  0  0  0  0  0  0  0  0  0
    2.4629   -1.1048   -4.0553 C   0  0  0  0  0  0  0  0  0  0  0  0
    2.5124    0.0711   -5.2920 S   0  0  0  0  0  0  0  0  0  0  0  0
    1.4100   -2.1320   -3.9836 C   0  0  0  0  0  0  0  0  0  0  0  0
    1.4871   -3.2111   -3.1945 C   0  0  0  0  0  0  0  0  0  0  0  0
    0.4808   -4.2887   -3.2320 C   0  0  0  0  0  0  0  0  0  0  0  0
   -0.7821   -4.2357   -3.8481 C   0  0  0  0  0  0  0  0  0  0  0  0
   -1.4576   -5.4450   -3.7254 C   0  0  0  0  0  0  0  0  0  0  0  0
   -0.7639   -6.4074   -3.0538 C   0  0  0  0  0  0  0  0  0  0  0  0
    0.6902   -5.8009   -2.4780 S   0  0  0  0  0  0  0  0  0  0  0  0
   -1.6886   -7.4186   -2.6189 C   0  0  0  0  0  0  0  0  0  0  0  0
   -2.9426   -7.0381   -3.0122 C   0  0  0  0  0  0  0  0  0  0  0  0
   -2.9242   -5.7625   -3.8125 C   0  0  0  0  0  0  0  0  0  0  0  0
   -3.9675   -7.5983   -2.2523 C   0  0  0  0  0  0  0  0  0  0  0  0
   -3.4582   -8.4293   -1.2507 C   0  0  0  0  0  0  0  0  0  0  0  0
   -1.7562   -8.4206   -1.2759 S   0  0  0  0  0  0  0  0  0  0  0  0
   -4.2693   -9.0557   -0.2041 C   0  0  0  0  0  0  0  0  0  0  0  0
   -4.6237   -8.4684    0.9518 C   0  0  0  0  0  0  0  0  0  0  0  0
   -4.2314   -7.1078    1.4193 C   0  0  0  0  0  0  0  0  0  0  0  0
   -3.1368   -6.0513    0.6854 S   0  0  0  0  0  0  0  0  0  0  0  0
   -3.1655   -4.8393    1.8414 C   0  0  0  0  0  0  0  0  0  0  0  0
   -4.0401   -5.2392    2.8484 C   0  0  0  0  0  0  0  0  0  0  0  0
   -4.6323   -6.4970    2.6180 C   0  0  0  0  0  0  0  0  0  0  0  0
   -5.5066   -7.0385    3.5681 C   0  0  0  0  0  0  0  0  0  0  0  0
   -5.7892   -6.3222    4.7467 C   0  0  0  0  0  0  0  0  0  0  0  0
   -6.7100   -6.9187    5.7764 C   0  0  0  0  0  0  0  0  0  0  0  0
   -5.1843   -5.0677    4.9830 C   0  0  0  0  0  0  0  0  0  0  0  0
   -5.4789   -4.3901    6.1775 O   0  0  0  0  0  0  0  0  0  0  0  0
   -4.9684   -3.1078    6.5259 C   0  0  0  0  0  0  0  0  0  0  0  0
   -4.3007   -4.5285    4.0238 C   0  0  0  0  0  0  0  0  0  0  0  0
   -2.2910   -3.6583    1.8355 C   0  0  0  0  0  0  0  0  0  0  0  0
   -2.8167   -2.0587    1.8514 S   0  0  0  0  0  0  0  0  0  0  0  0
   -1.2911   -1.3421    1.8856 C   0  0  0  0  0  0  0  0  0  0  0  0
   -0.3383   -2.3678    1.9211 C   0  0  0  0  0  0  0  0  0  0  0  0
   -0.8987   -3.6556    1.8759 C   0  0  0  0  0  0  0  0  0  0  0  0
   -0.0829   -4.7893    1.9372 C   0  0  0  0  0  0  0  0  0  0  0  0
    1.3073   -4.6376    2.0715 C   0  0  0  0  0  0  0  0  0  0  0  0
    2.1894   -5.8517    2.1361 C   0  0  0  0  0  0  0  0  0  0  0  0
    1.8756   -3.3477    2.1607 C   0  0  0  0  0  0  0  0  0  0  0  0
    3.2647   -3.2329    2.3385 O   0  0  0  0  0  0  0  0  0  0  0  0
    3.9598   -1.9997    2.4946 C   0  0  0  0  0  0  0  0  0  0  0  0
    1.0442   -2.2108    2.0842 C   0  0  0  0  0  0  0  0  0  0  0  0
   -1.0619    0.1143    1.8734 C   0  0  0  0  0  0  0  0  0  0  0  0
   -0.0029    0.7727    1.2216 C   0  0  0  0  0  0  0  0  0  0  0  0
   -0.0922    2.1484    1.3869 C   0  0  0  0  0  0  0  0  0  0  0  0
   -1.1747    2.5463    2.1025 C   0  0  0  0  0  0  0  0  0  0  0  0
   -2.1073    1.2520    2.6082 S   0  0  0  0  0  0  0  0  0  0  0  0
   -1.1401    3.9749    2.2199 C   0  0  0  0  0  0  0  0  0  0  0  0
   -0.0222    4.4306    1.5957 C   0  0  0  0  0  0  0  0  0  0  0  0
    0.7776    3.3116    0.9747 C   0  0  0  0  0  0  0  0  0  0  0  0
    0.2010    5.7938    1.7665 C   0  0  0  0  0  0  0  0  0  0  0  0
   -0.8369    6.3826    2.5080 C   0  0  0  0  0  0  0  0  0  0  0  0
   -1.9412    5.1935    3.0336 S   0  0  0  0  0  0  0  0  0  0  0  0
   -0.8788    7.7762    2.9732 C   0  0  0  0  0  0  0  0  0  0  0  0
   -0.7569    8.8760    2.2127 C   0  0  0  0  0  0  0  0  0  0  0  0
   -0.6947    8.9502    0.7342 C   0  0  0  0  0  0  0  0  0  0  0  0
   -0.3497   10.1251    0.0481 C   0  0  0  0  0  0  0  0  0  0  0  0
   -0.3382    9.9447   -1.3338 C   0  0  0  0  0  0  0  0  0  0  0  0
   -0.6627    8.6777   -1.7305 C   0  0  0  0  0  0  0  0  0  0  0  0
   -0.9300    7.6977   -0.4022 S   0  0  0  0  0  0  0  0  0  0  0  0
   -0.0828    8.4471   -3.0265 C   0  0  0  0  0  0  0  0  0  0  0  0
    0.5705    9.5848   -3.4111 C   0  0  0  0  0  0  0  0  0  0  0  0
    0.4226   10.6897   -2.3992 C   0  0  0  0  0  0  0  0  0  0  0  0
    1.5575    9.3780   -4.3726 C   0  0  0  0  0  0  0  0  0  0  0  0
    1.6652    8.0262   -4.7183 C   0  0  0  0  0  0  0  0  0  0  0  0
    0.5891    7.1030   -3.7688 S   0  0  0  0  0  0  0  0  0  0  0  0
    2.6725    7.4975   -5.6528 C   0  0  0  0  0  0  0  0  0  0  0  0
    2.8201    6.1956   -5.8919 C   0  0  0  0  0  0  0  0  0  0  0  0
    6.8283    4.6405   -5.5715 H   0  0  0  0  0  0  0  0  0  0  0  0
    7.4523    3.1624   -3.4876 H   0  0  0  0  0  0  0  0  0  0  0  0
    5.4094    1.1827   -2.0071 H   0  0  0  0  0  0  0  0  0  0  0  0
    6.4677    0.0743   -3.0348 H   0  0  0  0  0  0  0  0  0  0  0  0
    3.7468   -1.5423   -2.2990 H   0  0  0  0  0  0  0  0  0  0  0  0
    0.5824   -2.0203   -4.6672 H   0  0  0  0  0  0  0  0  0  0  0  0
    2.3459   -3.3593   -2.5556 H   0  0  0  0  0  0  0  0  0  0  0  0
   -1.2233   -3.3520   -4.2892 H   0  0  0  0  0  0  0  0  0  0  0  0
   -3.2391   -5.9361   -4.8625 H   0  0  0  0  0  0  0  0  0  0  0  0
   -3.5279   -4.9751   -3.3167 H   0  0  0  0  0  0  0  0  0  0  0  0
   -5.0096   -7.3268   -2.3444 H   0  0  0  0  0  0  0  0  0  0  0  0
   -4.6352  -10.0556   -0.4039 H   0  0  0  0  0  0  0  0  0  0  0  0
   -5.2530   -9.0590    1.6010 H   0  0  0  0  0  0  0  0  0  0  0  0
   -5.9642   -8.0058    3.4115 H   0  0  0  0  0  0  0  0  0  0  0  0
   -7.4836   -6.1750    6.0688 H   0  0  0  0  0  0  0  0  0  0  0  0
   -6.1263   -7.2116    6.6751 H   0  0  0  0  0  0  0  0  0  0  0  0
   -7.2322   -7.8189    5.3869 H   0  0  0  0  0  0  0  0  0  0  0  0
   -5.3880   -2.8062    7.5088 H   0  0  0  0  0  0  0  0  0  0  0  0
   -3.8620   -3.1489    6.6090 H   0  0  0  0  0  0  0  0  0  0  0  0
   -5.2687   -2.3549    5.7671 H   0  0  0  0  0  0  0  0  0  0  0  0
   -3.8144   -3.5777    4.1930 H   0  0  0  0  0  0  0  0  0  0  0  0
   -0.5177   -5.7791    1.9072 H   0  0  0  0  0  0  0  0  0  0  0  0
    2.8049   -5.8214    3.0597 H   0  0  0  0  0  0  0  0  0  0  0  0
    1.5957   -6.7905    2.1478 H   0  0  0  0  0  0  0  0  0  0  0  0
    2.8598   -5.8741    1.2499 H   0  0  0  0  0  0  0  0  0  0  0  0
    3.5761   -1.4554    3.3823 H   0  0  0  0  0  0  0  0  0  0  0  0
    3.8410   -1.3776    1.5832 H   0  0  0  0  0  0  0  0  0  0  0  0
    5.0384   -2.2070    2.6464 H   0  0  0  0  0  0  0  0  0  0  0  0
    1.4653   -1.2255    2.2046 H   0  0  0  0  0  0  0  0  0  0  0  0
    0.7704    0.2871    0.6421 H   0  0  0  0  0  0  0  0  0  0  0  0
    0.8142    3.4119   -0.1331 H   0  0  0  0  0  0  0  0  0  0  0  0
    1.7873    3.2370    1.4280 H   0  0  0  0  0  0  0  0  0  0  0  0
    1.0731    6.3189    1.3936 H   0  0  0  0  0  0  0  0  0  0  0  0
   -1.0170    7.9156    4.0341 H   0  0  0  0  0  0  0  0  0  0  0  0
   -0.7520    9.8256    2.7335 H   0  0  0  0  0  0  0  0  0  0  0  0
   -0.0259   11.0351    0.5360 H   0  0  0  0  0  0  0  0  0  0  0  0
   -0.1786   11.5301   -2.8068 H   0  0  0  0  0  0  0  0  0  0  0  0
    1.4145   11.0223   -2.0222 H   0  0  0  0  0  0  0  0  0  0  0  0
    2.2209   10.1577   -4.7324 H   0  0  0  0  0  0  0  0  0  0  0  0
    3.3199    8.1957   -6.1710 H   0  0  0  0  0  0  0  0  0  0  0  0
    2.2070    5.4513   -5.4040 H   0  0  0  0  0  0  0  0  0  0  0  0
    3.5761    5.8624   -6.5914 H   0  0  0  0  0  0  0  0  0  0  0  0
  1  2  2  0
  2  3  1  0
  3  4  2  0
  4  5  1  0
  4  6  1  0
  6  7  2  0
  7  8  1  0
  7  9  1  0
  9 10  2  0
 10 11  1  0
 10 12  1  0
 12 13  2  3
 13 14  1  0
 14 15  2  0
 15 16  1  0
 16 17  2  0
 17 18  1  0
 17 19  1  0
 19 20  2  0
 20 21  1  0
 20 22  1  0
 22 23  2  0
 23 24  1  0
 23 25  1  0
 25 26  2  3
 26 27  1  0
 27 28  1  0
 28 29  1  0
 29 30  2  0
 30 31  1  0
 31 32  1  0
 32 33  2  0
 33 34  1  0
 33 35  1  0
 35 36  1  0
 36 37  1  0
 35 38  2  0
 29 39  1  0
 39 40  1  0
 40 41  1  0
 41 42  2  0
 42 43  1  0
 43 44  1  0
 44 45  2  0
 45 46  1  0
 45 47  1  0
 47 48  1  0
 48 49  1  0
 47 50  2  0
 41 51  1  0
 51 52  2  0
 52 53  1  0
 53 54  2  0
 54 55  1  0
 54 56  1  0
 56 57  2  0
 57 58  1  0
 57 59  1  0
 59 60  2  0
 60 61  1  0
 60 62  1  0
 62 63  2  3
 63 64  1  0
 64 65  2  0
 65 66  1  0
 66 67  2  0
 67 68  1  0
 67 69  1  0
 69 70  2  0
 70 71  1  0
 70 72  1  0
 72 73  2  0
 73 74  1  0
 73 75  1  0
 75 76  2  3
  5  1  1  0
 11  6  1  0
 18 14  1  0
 24 19  1  0
 31 27  2  0
 43 39  2  0
 55 51  1  0
 61 56  1  0
 68 64  1  0
 74 69  1  0
  8  3  1  0
 21 16  1  0
 38 30  1  0
 50 42  1  0
 58 53  1  0
 71 66  1  0
  1 77  1  0
  2 78  1  0
  8 79  1  0
  8 80  1  0
  9 81  1  0
 12 82  1  0
 13 83  1  0
 15 84  1  0
 21 85  1  0
 21 86  1  0
 22 87  1  0
 25 88  1  0
 26 89  1  0
 32 90  1  0
 34 91  1  0
 34 92  1  0
 34 93  1  0
 37 94  1  0
 37 95  1  0
 37 96  1  0
 38 97  1  0
 44 98  1  0
 46 99  1  0
 46100  1  0
 46101  1  0
 49102  1  0
 49103  1  0
 49104  1  0
 50105  1  0
 52106  1  0
 58107  1  0
 58108  1  0
 59109  1  0
 62110  1  0
 63111  1  0
 65112  1  0
 71113  1  0
 71114  1  0
 72115  1  0
 75116  1  0
 76117  1  0
 76118  1  0
M  END

