
     RDKit          3D

242265  0  0  0  0  0  0  0  0999 V2000
   -2.5055   -1.9243   12.6444 C   0  0  0  0  0  0  0  0  0  0  0  0
   -3.5459   -2.6472   11.5316 S   0  0  0  0  0  0  0  0  0  0  0  0
   -3.1521   -1.6878   10.2034 C   0  0  0  0  0  0  0  0  0  0  0  0
   -2.2017   -0.7503   10.6307 C   0  0  0  0  0  0  0  0  0  0  0  0
   -1.8430   -0.8991   11.9819 C   0  0  0  0  0  0  0  0  0  0  0  0
   -0.9069   -0.0539   12.5720 C   0  0  0  0  0  0  0  0  0  0  0  0
   -0.3161    0.9653   11.8041 C   0  0  0  0  0  0  0  0  0  0  0  0
    0.6825    1.8949   12.4407 C   0  0  0  0  0  0  0  0  0  0  0  0
   -0.6954    1.1484   10.4534 C   0  0  0  0  0  0  0  0  0  0  0  0
   -0.1006    2.1898    9.7256 O   0  0  0  0  0  0  0  0  0  0  0  0
   -0.3964    2.5025    8.3627 C   0  0  0  0  0  0  0  0  0  0  0  0
   -1.6566    0.2948    9.8735 C   0  0  0  0  0  0  0  0  0  0  0  0
   -3.7110   -1.8768    8.8502 C   0  0  0  0  0  0  0  0  0  0  0  0
   -3.0380   -1.6660    7.6461 C   0  0  0  0  0  0  0  0  0  0  0  0
   -3.8372   -1.9135    6.5209 C   0  0  0  0  0  0  0  0  0  0  0  0
   -3.4565   -1.7241    5.1799 C   0  0  0  0  0  0  0  0  0  0  0  0
   -2.1365   -1.1875    4.7983 C   0  0  0  0  0  0  0  0  0  0  0  0
   -2.0251    0.1373    4.3489 C   0  0  0  0  0  0  0  0  0  0  0  0
   -0.7974    0.6231    3.8949 C   0  0  0  0  0  0  0  0  0  0  0  0
    0.3302   -0.2074    3.8890 C   0  0  0  0  0  0  0  0  0  0  0  0
    1.8884    0.4163    3.2512 S   0  0  0  0  0  0  0  0  0  0  0  0
    2.4109    1.2020    4.8178 C   0  0  0  0  0  0  0  0  0  0  0  0
    3.0215    0.1740    5.7631 C   0  0  0  0  0  0  0  0  0  0  0  0
    0.2229   -1.5321    4.3394 C   0  0  0  0  0  0  0  0  0  0  0  0
    1.2998   -2.3579    4.3101 F   0  0  0  0  0  0  0  0  0  0  0  0
   -1.0060   -2.0165    4.8013 C   0  0  0  0  0  0  0  0  0  0  0  0
   -4.4307   -1.9759    4.2077 C   0  0  0  0  0  0  0  0  0  0  0  0
   -5.7217   -2.4031    4.5090 C   0  0  0  0  0  0  0  0  0  0  0  0
   -6.0993   -2.6170    5.8544 C   0  0  0  0  0  0  0  0  0  0  0  0
   -7.4728   -3.0332    6.2072 C   0  0  0  0  0  0  0  0  0  0  0  0
   -8.3286   -2.1502    6.8821 C   0  0  0  0  0  0  0  0  0  0  0  0
   -9.6649   -2.4993    7.1026 C   0  0  0  0  0  0  0  0  0  0  0  0
  -10.1525   -3.7341    6.6566 C   0  0  0  0  0  0  0  0  0  0  0  0
  -11.8888   -4.1450    6.8837 S   0  0  0  0  0  0  0  0  0  0  0  0
  -11.6680   -4.9509    8.5104 C   0  0  0  0  0  0  0  0  0  0  0  0
  -12.1190   -6.4039    8.4402 C   0  0  0  0  0  0  0  0  0  0  0  0
   -9.2922   -4.6283    6.0055 C   0  0  0  0  0  0  0  0  0  0  0  0
   -7.9561   -4.2839    5.7908 C   0  0  0  0  0  0  0  0  0  0  0  0
   -9.7517   -5.8266    5.5682 F   0  0  0  0  0  0  0  0  0  0  0  0
   -5.1275   -2.3516    6.8384 C   0  0  0  0  0  0  0  0  0  0  0  0
   -5.2742   -2.4326    8.5144 S   0  0  0  0  0  0  0  0  0  0  0  0
   -6.5565   -2.4915    3.3722 C   0  0  0  0  0  0  0  0  0  0  0  0
   -5.9114   -2.1337    2.1807 C   0  0  0  0  0  0  0  0  0  0  0  0
   -4.3105   -1.7397    2.5583 S   0  0  0  0  0  0  0  0  0  0  0  0
   -6.4530   -1.9284    0.8105 C   0  0  0  0  0  0  0  0  0  0  0  0
   -5.4399   -1.3946   -0.4222 S   0  0  0  0  0  0  0  0  0  0  0  0
   -6.5936   -1.0951   -1.5884 C   0  0  0  0  0  0  0  0  0  0  0  0
   -7.8327   -1.3994   -1.0392 C   0  0  0  0  0  0  0  0  0  0  0  0
   -7.7693   -1.8811    0.2913 C   0  0  0  0  0  0  0  0  0  0  0  0
   -8.9574   -2.2275    0.9455 C   0  0  0  0  0  0  0  0  0  0  0  0
  -10.1933   -2.0725    0.2937 C   0  0  0  0  0  0  0  0  0  0  0  0
  -11.4590   -2.4661    1.0005 C   0  0  0  0  0  0  0  0  0  0  0  0
  -10.2425   -1.6096   -1.0410 C   0  0  0  0  0  0  0  0  0  0  0  0
  -11.4904   -1.5308   -1.6839 O   0  0  0  0  0  0  0  0  0  0  0  0
  -11.6637   -1.2021   -3.0596 C   0  0  0  0  0  0  0  0  0  0  0  0
   -9.0493   -1.2536   -1.7004 C   0  0  0  0  0  0  0  0  0  0  0  0
   -6.2961   -0.2995   -2.7786 C   0  0  0  0  0  0  0  0  0  0  0  0
   -5.9766    1.0509   -2.6675 C   0  0  0  0  0  0  0  0  0  0  0  0
   -5.0666    1.4930   -3.6409 C   0  0  0  0  0  0  0  0  0  0  0  0
   -4.3810    2.7286   -3.6255 C   0  0  0  0  0  0  0  0  0  0  0  0
   -4.7300    3.7859   -2.6433 C   0  0  0  0  0  0  0  0  0  0  0  0
   -6.0405    4.2849   -2.5913 C   0  0  0  0  0  0  0  0  0  0  0  0
   -6.3862    5.2644   -1.6523 C   0  0  0  0  0  0  0  0  0  0  0  0
   -5.4199    5.7746   -0.7786 C   0  0  0  0  0  0  0  0  0  0  0  0
   -5.8618    7.0637    0.3890 S   0  0  0  0  0  0  0  0  0  0  0  0
   -6.0218    5.9452    1.8296 C   0  0  0  0  0  0  0  0  0  0  0  0
   -7.3339    5.1684    1.7796 C   0  0  0  0  0  0  0  0  0  0  0  0
   -4.1010    5.2990   -0.8422 C   0  0  0  0  0  0  0  0  0  0  0  0
   -3.1385    5.8216   -0.0461 F   0  0  0  0  0  0  0  0  0  0  0  0
   -3.7670    4.2902   -1.7558 C   0  0  0  0  0  0  0  0  0  0  0  0
   -3.2793    2.8493   -4.4945 C   0  0  0  0  0  0  0  0  0  0  0  0
   -2.8836    1.8248   -5.3587 C   0  0  0  0  0  0  0  0  0  0  0  0
   -3.6240    0.6235   -5.4282 C   0  0  0  0  0  0  0  0  0  0  0  0
   -3.2371   -0.5037   -6.3047 C   0  0  0  0  0  0  0  0  0  0  0  0
   -4.1231   -0.9454   -7.2983 C   0  0  0  0  0  0  0  0  0  0  0  0
   -3.7826   -2.0274   -8.1115 C   0  0  0  0  0  0  0  0  0  0  0  0
   -2.5528   -2.6772   -7.9399 C   0  0  0  0  0  0  0  0  0  0  0  0
   -2.1177   -4.0542   -9.0131 S   0  0  0  0  0  0  0  0  0  0  0  0
   -1.4845   -3.0066  -10.3729 C   0  0  0  0  0  0  0  0  0  0  0  0
   -0.0845   -2.4879  -10.0662 C   0  0  0  0  0  0  0  0  0  0  0  0
   -1.6797   -2.2597   -6.9249 C   0  0  0  0  0  0  0  0  0  0  0  0
   -2.0210   -1.1791   -6.1103 C   0  0  0  0  0  0  0  0  0  0  0  0
   -0.5000   -2.9010   -6.7280 F   0  0  0  0  0  0  0  0  0  0  0  0
   -4.6949    0.4865   -4.5366 C   0  0  0  0  0  0  0  0  0  0  0  0
   -5.4648   -0.9413   -4.0948 S   0  0  0  0  0  0  0  0  0  0  0  0
   -1.6370    2.0653   -5.9665 C   0  0  0  0  0  0  0  0  0  0  0  0
   -1.0224    3.2417   -5.5315 C   0  0  0  0  0  0  0  0  0  0  0  0
   -2.0789    4.0287   -4.4798 S   0  0  0  0  0  0  0  0  0  0  0  0
    0.4410    3.3934   -5.4441 C   0  0  0  0  0  0  0  0  0  0  0  0
    1.3586    2.7034   -6.2399 C   0  0  0  0  0  0  0  0  0  0  0  0
    2.6054    2.5188   -5.6133 C   0  0  0  0  0  0  0  0  0  0  0  0
    3.6458    1.6940   -6.0812 C   0  0  0  0  0  0  0  0  0  0  0  0
    3.6144    1.1096   -7.4322 C   0  0  0  0  0  0  0  0  0  0  0  0
    3.0320   -0.1478   -7.6484 C   0  0  0  0  0  0  0  0  0  0  0  0
    2.9683   -0.6769   -8.9402 C   0  0  0  0  0  0  0  0  0  0  0  0
    3.4734    0.0499  -10.0273 C   0  0  0  0  0  0  0  0  0  0  0  0
    3.3449   -0.6219  -11.6844 S   0  0  0  0  0  0  0  0  0  0  0  0
    4.9679   -1.4492  -11.6080 C   0  0  0  0  0  0  0  0  0  0  0  0
    5.2412   -2.1706  -12.9193 C   0  0  0  0  0  0  0  0  0  0  0  0
    4.0536    1.3098   -9.8125 C   0  0  0  0  0  0  0  0  0  0  0  0
    4.5391    2.0282  -10.8552 F   0  0  0  0  0  0  0  0  0  0  0  0
    4.1271    1.8340   -8.5194 C   0  0  0  0  0  0  0  0  0  0  0  0
    4.6733    1.3905   -5.1756 C   0  0  0  0  0  0  0  0  0  0  0  0
    4.7146    1.9148   -3.8792 C   0  0  0  0  0  0  0  0  0  0  0  0
    3.7182    2.8084   -3.4402 C   0  0  0  0  0  0  0  0  0  0  0  0
    3.6580    3.2727   -2.0424 C   0  0  0  0  0  0  0  0  0  0  0  0
    3.0972    2.4458   -1.0588 C   0  0  0  0  0  0  0  0  0  0  0  0
    3.0497    2.8704    0.2709 C   0  0  0  0  0  0  0  0  0  0  0  0
    3.5618    4.1228    0.6301 C   0  0  0  0  0  0  0  0  0  0  0  0
    3.5423    4.6309    2.3527 S   0  0  0  0  0  0  0  0  0  0  0  0
    1.9855    5.5834    2.2364 C   0  0  0  0  0  0  0  0  0  0  0  0
    0.7735    4.6665    2.3298 C   0  0  0  0  0  0  0  0  0  0  0  0
    4.1213    4.9537   -0.3520 C   0  0  0  0  0  0  0  0  0  0  0  0
    4.1639    4.5313   -1.6866 C   0  0  0  0  0  0  0  0  0  0  0  0
    4.6291    6.1646   -0.0186 F   0  0  0  0  0  0  0  0  0  0  0  0
    2.6735    3.0854   -4.3379 C   0  0  0  0  0  0  0  0  0  0  0  0
    1.2036    3.8131   -3.9916 S   0  0  0  0  0  0  0  0  0  0  0  0
    5.7308    1.3548   -3.0856 C   0  0  0  0  0  0  0  0  0  0  0  0
    6.4639    0.3738   -3.7542 C   0  0  0  0  0  0  0  0  0  0  0  0
    5.8730    0.2289   -5.3330 S   0  0  0  0  0  0  0  0  0  0  0  0
    7.4343   -0.5460   -3.1366 C   0  0  0  0  0  0  0  0  0  0  0  0
    7.8619   -1.7408   -3.7104 C   0  0  0  0  0  0  0  0  0  0  0  0
    8.6877   -2.4921   -2.8640 C   0  0  0  0  0  0  0  0  0  0  0  0
    9.2267   -3.7583   -3.1568 C   0  0  0  0  0  0  0  0  0  0  0  0
    8.8531   -4.4875   -4.3834 C   0  0  0  0  0  0  0  0  0  0  0  0
    7.5746   -5.0582   -4.4863 C   0  0  0  0  0  0  0  0  0  0  0  0
    7.1918   -5.7133   -5.6583 C   0  0  0  0  0  0  0  0  0  0  0  0
    8.0695   -5.7817   -6.7479 C   0  0  0  0  0  0  0  0  0  0  0  0
    7.5579   -6.6223   -8.2498 S   0  0  0  0  0  0  0  0  0  0  0  0
    6.8638   -5.1325   -9.0560 C   0  0  0  0  0  0  0  0  0  0  0  0
    5.4594   -4.8279   -8.5471 C   0  0  0  0  0  0  0  0  0  0  0  0
    9.3551   -5.2281   -6.6407 C   0  0  0  0  0  0  0  0  0  0  0  0
   10.2233   -5.3060   -7.6822 F   0  0  0  0  0  0  0  0  0  0  0  0
    9.7453   -4.5828   -5.4609 C   0  0  0  0  0  0  0  0  0  0  0  0
   10.0329   -4.3465   -2.1761 C   0  0  0  0  0  0  0  0  0  0  0  0
   10.2768   -3.7472   -0.9381 C   0  0  0  0  0  0  0  0  0  0  0  0
    9.7099   -2.4898   -0.6237 C   0  0  0  0  0  0  0  0  0  0  0  0
    9.8853   -1.8702    0.7115 C   0  0  0  0  0  0  0  0  0  0  0  0
    8.7700   -1.6329    1.5319 C   0  0  0  0  0  0  0  0  0  0  0  0
    8.9421   -1.1373    2.8293 C   0  0  0  0  0  0  0  0  0  0  0  0
   10.2307   -0.8785    3.3193 C   0  0  0  0  0  0  0  0  0  0  0  0
   10.4455   -0.3116    5.0116 S   0  0  0  0  0  0  0  0  0  0  0  0
   10.1490    1.4549    4.6429 C   0  0  0  0  0  0  0  0  0  0  0  0
   11.3661    2.1014    3.9937 C   0  0  0  0  0  0  0  0  0  0  0  0
   11.3450   -1.1057    2.5004 C   0  0  0  0  0  0  0  0  0  0  0  0
   11.1731   -1.5907    1.2006 C   0  0  0  0  0  0  0  0  0  0  0  0
   12.5991   -0.8821    2.9674 F   0  0  0  0  0  0  0  0  0  0  0  0
    8.9195   -1.8848   -1.6239 C   0  0  0  0  0  0  0  0  0  0  0  0
    8.0818   -0.4202   -1.5773 S   0  0  0  0  0  0  0  0  0  0  0  0
   11.0535   -4.5534   -0.0886 C   0  0  0  0  0  0  0  0  0  0  0  0
   11.4280   -5.7630   -0.6648 C   0  0  0  0  0  0  0  0  0  0  0  0
   10.7795   -5.8534   -2.2199 S   0  0  0  0  0  0  0  0  0  0  0  0
   -2.3876   -2.2033   13.6815 H   0  0  0  0  0  0  0  0  0  0  0  0
   -0.6378   -0.1838   13.6146 H   0  0  0  0  0  0  0  0  0  0  0  0
    1.6051    1.9419   11.8253 H   0  0  0  0  0  0  0  0  0  0  0  0
    0.2413    2.9117   12.5137 H   0  0  0  0  0  0  0  0  0  0  0  0
    0.9633    1.5574   13.4590 H   0  0  0  0  0  0  0  0  0  0  0  0
   -1.4535    2.8225    8.2724 H   0  0  0  0  0  0  0  0  0  0  0  0
    0.2600    3.3302    8.0284 H   0  0  0  0  0  0  0  0  0  0  0  0
   -0.2086    1.6183    7.7182 H   0  0  0  0  0  0  0  0  0  0  0  0
   -1.9932    0.4730    8.8664 H   0  0  0  0  0  0  0  0  0  0  0  0
   -2.0024   -1.3587    7.5787 H   0  0  0  0  0  0  0  0  0  0  0  0
   -2.8931    0.7829    4.3347 H   0  0  0  0  0  0  0  0  0  0  0  0
   -0.7199    1.6432    3.5429 H   0  0  0  0  0  0  0  0  0  0  0  0
    1.5555    1.7135    5.3113 H   0  0  0  0  0  0  0  0  0  0  0  0
    3.1746    1.9724    4.5780 H   0  0  0  0  0  0  0  0  0  0  0  0
    3.8745   -0.3403    5.2715 H   0  0  0  0  0  0  0  0  0  0  0  0
    3.3828    0.6849    6.6781 H   0  0  0  0  0  0  0  0  0  0  0  0
    2.2612   -0.5742    6.0632 H   0  0  0  0  0  0  0  0  0  0  0  0
   -1.0854   -3.0462    5.1298 H   0  0  0  0  0  0  0  0  0  0  0  0
   -7.9714   -1.1747    7.1970 H   0  0  0  0  0  0  0  0  0  0  0  0
  -10.3265   -1.8004    7.5982 H   0  0  0  0  0  0  0  0  0  0  0  0
  -10.6105   -4.9175    8.8592 H   0  0  0  0  0  0  0  0  0  0  0  0
  -12.2922   -4.4118    9.2542 H   0  0  0  0  0  0  0  0  0  0  0  0
  -13.1784   -6.4617    8.1073 H   0  0  0  0  0  0  0  0  0  0  0  0
  -11.4774   -6.9651    7.7272 H   0  0  0  0  0  0  0  0  0  0  0  0
  -12.0342   -6.8663    9.4475 H   0  0  0  0  0  0  0  0  0  0  0  0
   -7.3046   -4.9718    5.2668 H   0  0  0  0  0  0  0  0  0  0  0  0
   -7.5867   -2.7793    3.4608 H   0  0  0  0  0  0  0  0  0  0  0  0
   -8.9582   -2.6389    1.9319 H   0  0  0  0  0  0  0  0  0  0  0  0
  -11.2972   -2.5674    2.0952 H   0  0  0  0  0  0  0  0  0  0  0  0
  -11.8225   -3.4339    0.6012 H   0  0  0  0  0  0  0  0  0  0  0  0
  -12.2430   -1.6914    0.8457 H   0  0  0  0  0  0  0  0  0  0  0  0
  -11.1135   -1.9320   -3.6950 H   0  0  0  0  0  0  0  0  0  0  0  0
  -12.7414   -1.2580   -3.3140 H   0  0  0  0  0  0  0  0  0  0  0  0
  -11.2980   -0.1723   -3.2578 H   0  0  0  0  0  0  0  0  0  0  0  0
   -9.0628   -0.8883   -2.7186 H   0  0  0  0  0  0  0  0  0  0  0  0
   -6.2479    1.6375   -1.7987 H   0  0  0  0  0  0  0  0  0  0  0  0
   -6.8002    3.9123   -3.2673 H   0  0  0  0  0  0  0  0  0  0  0  0
   -7.4050    5.6333   -1.6158 H   0  0  0  0  0  0  0  0  0  0  0  0
   -5.9974    6.5667    2.7485 H   0  0  0  0  0  0  0  0  0  0  0  0
   -5.1624    5.2420    1.8745 H   0  0  0  0  0  0  0  0  0  0  0  0
   -7.3024    4.4136    0.9642 H   0  0  0  0  0  0  0  0  0  0  0  0
   -7.4985    4.6433    2.7419 H   0  0  0  0  0  0  0  0  0  0  0  0
   -8.1844    5.8625    1.6052 H   0  0  0  0  0  0  0  0  0  0  0  0
   -2.7584    3.9034   -1.7568 H   0  0  0  0  0  0  0  0  0  0  0  0
   -5.0763   -0.4496   -7.4419 H   0  0  0  0  0  0  0  0  0  0  0  0
   -4.4703   -2.3574   -8.8794 H   0  0  0  0  0  0  0  0  0  0  0  0
   -1.4443   -3.6212  -11.2952 H   0  0  0  0  0  0  0  0  0  0  0  0
   -2.1729   -2.1549  -10.5623 H   0  0  0  0  0  0  0  0  0  0  0  0
   -0.1132   -1.7792   -9.2127 H   0  0  0  0  0  0  0  0  0  0  0  0
    0.5929   -3.3341   -9.8220 H   0  0  0  0  0  0  0  0  0  0  0  0
    0.3167   -1.9479  -10.9498 H   0  0  0  0  0  0  0  0  0  0  0  0
   -1.3464   -0.8706   -5.3219 H   0  0  0  0  0  0  0  0  0  0  0  0
   -1.1199    1.3332   -6.5731 H   0  0  0  0  0  0  0  0  0  0  0  0
    1.0917    2.2346   -7.1760 H   0  0  0  0  0  0  0  0  0  0  0  0
    2.6266   -0.7105   -6.8152 H   0  0  0  0  0  0  0  0  0  0  0  0
    2.5192   -1.6495   -9.0971 H   0  0  0  0  0  0  0  0  0  0  0  0
    5.7635   -0.6944  -11.4312 H   0  0  0  0  0  0  0  0  0  0  0  0
    4.9741   -2.1854  -10.7774 H   0  0  0  0  0  0  0  0  0  0  0  0
    6.2183   -2.6964  -12.8642 H   0  0  0  0  0  0  0  0  0  0  0  0
    4.4403   -2.9141  -13.1252 H   0  0  0  0  0  0  0  0  0  0  0  0
    5.2794   -1.4371  -13.7536 H   0  0  0  0  0  0  0  0  0  0  0  0
    4.5756    2.8084   -8.3600 H   0  0  0  0  0  0  0  0  0  0  0  0
    2.7017    1.4720   -1.3254 H   0  0  0  0  0  0  0  0  0  0  0  0
    2.6251    2.2186    1.0198 H   0  0  0  0  0  0  0  0  0  0  0  0
    1.9525    6.1713    1.2933 H   0  0  0  0  0  0  0  0  0  0  0  0
    1.9579    6.3012    3.0838 H   0  0  0  0  0  0  0  0  0  0  0  0
   -0.1530    5.2790    2.3513 H   0  0  0  0  0  0  0  0  0  0  0  0
    0.7301    3.9919    1.4496 H   0  0  0  0  0  0  0  0  0  0  0  0
    0.8248    4.0589    3.2588 H   0  0  0  0  0  0  0  0  0  0  0  0
    4.5990    5.1760   -2.4420 H   0  0  0  0  0  0  0  0  0  0  0  0
    5.8744    1.5936   -2.0369 H   0  0  0  0  0  0  0  0  0  0  0  0
    7.5541   -2.0724   -4.6967 H   0  0  0  0  0  0  0  0  0  0  0  0
    6.8800   -4.9959   -3.6582 H   0  0  0  0  0  0  0  0  0  0  0  0
    6.2041   -6.1548   -5.7252 H   0  0  0  0  0  0  0  0  0  0  0  0
    7.5242   -4.2523   -8.8976 H   0  0  0  0  0  0  0  0  0  0  0  0
    6.8093   -5.3301  -10.1466 H   0  0  0  0  0  0  0  0  0  0  0  0
    5.4981   -4.4622   -7.5004 H   0  0  0  0  0  0  0  0  0  0  0  0
    4.9921   -4.0381   -9.1739 H   0  0  0  0  0  0  0  0  0  0  0  0
    4.8274   -5.7406   -8.5969 H   0  0  0  0  0  0  0  0  0  0  0  0
   10.7321   -4.1418   -5.3864 H   0  0  0  0  0  0  0  0  0  0  0  0
    7.7729   -1.8571    1.1791 H   0  0  0  0  0  0  0  0  0  0  0  0
    8.0792   -0.9719    3.4612 H   0  0  0  0  0  0  0  0  0  0  0  0
    9.9342    1.9800    5.5973 H   0  0  0  0  0  0  0  0  0  0  0  0
    9.2599    1.5665    3.9852 H   0  0  0  0  0  0  0  0  0  0  0  0
   11.5627    1.6508    2.9995 H   0  0  0  0  0  0  0  0  0  0  0  0
   11.1789    3.1880    3.8538 H   0  0  0  0  0  0  0  0  0  0  0  0
   12.2613    1.9724    4.6403 H   0  0  0  0  0  0  0  0  0  0  0  0
   12.0413   -1.7784    0.5834 H   0  0  0  0  0  0  0  0  0  0  0  0
   11.3217   -4.2882    0.9247 H   0  0  0  0  0  0  0  0  0  0  0  0
   12.0236   -6.5268   -0.1864 H   0  0  0  0  0  0  0  0  0  0  0  0
  1  2  1  0
  2  3  1  0
  3  4  2  0
  4  5  1  0
  5  6  1  0
  6  7  2  0
  7  8  1  0
  7  9  1  0
  9 10  1  0
 10 11  1  0
  9 12  2  0
  3 13  1  0
 13 14  2  0
 14 15  1  0
 15 16  2  0
 16 17  1  0
 17 18  2  0
 18 19  1  0
 19 20  2  0
 20 21  1  0
 21 22  1  0
 22 23  1  0
 20 24  1  0
 24 25  1  0
 24 26  2  0
 16 27  1  0
 27 28  2  0
 28 29  1  0
 29 30  1  0
 30 31  2  0
 31 32  1  0
 32 33  2  0
 33 34  1  0
 34 35  1  0
 35 36  1  0
 33 37  1  0
 37 38  2  0
 37 39  1  0
 29 40  2  0
 40 41  1  0
 28 42  1  0
 42 43  2  0
 43 44  1  0
 43 45  1  0
 45 46  1  0
 46 47  1  0
 47 48  2  0
 48 49  1  0
 49 50  1  0
 50 51  2  0
 51 52  1  0
 51 53  1  0
 53 54  1  0
 54 55  1  0
 53 56  2  0
 47 57  1  0
 57 58  2  0
 58 59  1  0
 59 60  2  0
 60 61  1  0
 61 62  2  0
 62 63  1  0
 63 64  2  0
 64 65  1  0
 65 66  1  0
 66 67  1  0
 64 68  1  0
 68 69  1  0
 68 70  2  0
 60 71  1  0
 71 72  2  0
 72 73  1  0
 73 74  1  0
 74 75  2  0
 75 76  1  0
 76 77  2  0
 77 78  1  0
 78 79  1  0
 79 80  1  0
 77 81  1  0
 81 82  2  0
 81 83  1  0
 73 84  2  0
 84 85  1  0
 72 86  1  0
 86 87  2  0
 87 88  1  0
 87 89  1  0
 89 90  2  0
 90 91  1  0
 91 92  2  0
 92 93  1  0
 93 94  2  0
 94 95  1  0
 95 96  2  0
 96 97  1  0
 97 98  1  0
 98 99  1  0
 96100  1  0
100101  1  0
100102  2  0
 92103  1  0
103104  2  0
104105  1  0
105106  1  0
106107  2  0
107108  1  0
108109  2  0
109110  1  0
110111  1  0
111112  1  0
109113  1  0
113114  2  0
113115  1  0
105116  2  0
116117  1  0
104118  1  0
118119  2  0
119120  1  0
119121  1  0
121122  2  0
122123  1  0
123124  2  0
124125  1  0
125126  2  0
126127  1  0
127128  2  0
128129  1  0
129130  1  0
130131  1  0
128132  1  0
132133  1  0
132134  2  0
124135  1  0
135136  2  0
136137  1  0
137138  1  0
138139  2  0
139140  1  0
140141  2  0
141142  1  0
142143  1  0
143144  1  0
141145  1  0
145146  2  0
145147  1  0
137148  2  0
148149  1  0
136150  1  0
150151  2  0
151152  1  0
  5  1  2  0
 41 13  1  0
 49 45  2  0
 85 57  1  0
117 89  1  0
149121  1  0
 12  4  1  0
 40 15  1  0
 56 48  1  0
 84 59  1  0
116 91  1  0
148123  1  0
 26 17  1  0
 44 27  1  0
 70 61  1  0
 88 71  1  0
102 93  1  0
120103  1  0
134125  1  0
152135  1  0
 38 30  1  0
 82 74  1  0
114106  1  0
146138  1  0
  1153  1  0
  6154  1  0
  8155  1  0
  8156  1  0
  8157  1  0
 11158  1  0
 11159  1  0
 11160  1  0
 12161  1  0
 14162  1  0
 18163  1  0
 19164  1  0
 22165  1  0
 22166  1  0
 23167  1  0
 23168  1  0
 23169  1  0
 26170  1  0
 31171  1  0
 32172  1  0
 35173  1  0
 35174  1  0
 36175  1  0
 36176  1  0
 36177  1  0
 38178  1  0
 42179  1  0
 50180  1  0
 52181  1  0
 52182  1  0
 52183  1  0
 55184  1  0
 55185  1  0
 55186  1  0
 56187  1  0
 58188  1  0
 62189  1  0
 63190  1  0
 66191  1  0
 66192  1  0
 67193  1  0
 67194  1  0
 67195  1  0
 70196  1  0
 75197  1  0
 76198  1  0
 79199  1  0
 79200  1  0
 80201  1  0
 80202  1  0
 80203  1  0
 82204  1  0
 86205  1  0
 90206  1  0
 94207  1  0
 95208  1  0
 98209  1  0
 98210  1  0
 99211  1  0
 99212  1  0
 99213  1  0
102214  1  0
107215  1  0
108216  1  0
111217  1  0
111218  1  0
112219  1  0
112220  1  0
112221  1  0
114222  1  0
118223  1  0
122224  1  0
126225  1  0
127226  1  0
130227  1  0
130228  1  0
131229  1  0
131230  1  0
131231  1  0
134232  1  0
139233  1  0
140234  1  0
143235  1  0
143236  1  0
144237  1  0
144238  1  0
144239  1  0
146240  1  0
150241  1  0
151242  1  0
M  END

