
     RDKit          3D

102113  0  0  0  0  0  0  0  0999 V2000
    6.0650   -1.6145   -0.5902 C   0  0  0  0  0  0  0  0  0  0  0  0
    6.5054   -2.3059    0.4491 C   0  0  0  0  0  0  0  0  0  0  0  0
    7.2011   -3.4809    0.3676 F   0  0  0  0  0  0  0  0  0  0  0  0
    6.2896   -1.5520    1.6738 C   0  0  0  0  0  0  0  0  0  0  0  0
    5.7360   -0.3853    1.3514 C   0  0  0  0  0  0  0  0  0  0  0  0
    5.5015   -0.3382   -0.0912 C   0  0  0  0  0  0  0  0  0  0  0  0
    5.1101    0.7183   -0.8008 C   0  0  0  0  0  0  0  0  0  0  0  0
    4.8863    0.7640   -2.2731 C   0  0  0  0  0  0  0  0  0  0  0  0
    5.5900    1.8387   -2.6617 C   0  0  0  0  0  0  0  0  0  0  0  0
    6.0607    2.6588   -1.5434 C   0  0  0  0  0  0  0  0  0  0  0  0
    5.7224    2.0104   -0.4450 C   0  0  0  0  0  0  0  0  0  0  0  0
    7.3223    3.1278   -1.6554 F   0  0  0  0  0  0  0  0  0  0  0  0
    4.6000   -0.3925   -3.1245 C   0  0  0  0  0  0  0  0  0  0  0  0
    5.1736   -0.7234   -4.2789 C   0  0  0  0  0  0  0  0  0  0  0  0
    6.1891   -0.0640   -4.8767 F   0  0  0  0  0  0  0  0  0  0  0  0
    4.8912   -2.1497   -4.5437 C   0  0  0  0  0  0  0  0  0  0  0  0
    4.1573   -2.6651   -3.5569 C   0  0  0  0  0  0  0  0  0  0  0  0
    3.8152   -1.5662   -2.6721 C   0  0  0  0  0  0  0  0  0  0  0  0
    2.9950   -1.6726   -1.6068 C   0  0  0  0  0  0  0  0  0  0  0  0
    2.3914   -0.6023   -0.8159 C   0  0  0  0  0  0  0  0  0  0  0  0
    2.0503   -1.1293    0.3499 C   0  0  0  0  0  0  0  0  0  0  0  0
    2.2678   -2.5749    0.3068 C   0  0  0  0  0  0  0  0  0  0  0  0
    2.7617   -2.9164   -0.8632 C   0  0  0  0  0  0  0  0  0  0  0  0
    1.9338   -3.4366    1.3049 F   0  0  0  0  0  0  0  0  0  0  0  0
    1.7438    0.6414   -1.3147 C   0  0  0  0  0  0  0  0  0  0  0  0
    1.3963    1.9209   -0.2646 S   0  0  0  0  0  0  0  0  0  0  0  0
   -0.0274    2.4436   -0.9758 C   0  0  0  0  0  0  0  0  0  0  0  0
   -0.2263    1.6506   -2.0951 C   0  0  0  0  0  0  0  0  0  0  0  0
    0.7771    0.6837   -2.3188 C   0  0  0  0  0  0  0  0  0  0  0  0
    0.6934   -0.1741   -3.4149 C   0  0  0  0  0  0  0  0  0  0  0  0
   -0.4300   -0.1353   -4.2621 C   0  0  0  0  0  0  0  0  0  0  0  0
   -0.5650   -1.1262   -5.3656 C   0  0  0  0  0  0  0  0  0  0  0  0
   -1.4601    0.7958   -4.0104 C   0  0  0  0  0  0  0  0  0  0  0  0
   -2.6222    0.7482   -4.7905 O   0  0  0  0  0  0  0  0  0  0  0  0
   -3.7840    1.5253   -4.5154 C   0  0  0  0  0  0  0  0  0  0  0  0
   -1.3232    1.7099   -2.9503 C   0  0  0  0  0  0  0  0  0  0  0  0
   -0.8991    3.5444   -0.5327 C   0  0  0  0  0  0  0  0  0  0  0  0
   -0.7795    4.7355   -1.1172 C   0  0  0  0  0  0  0  0  0  0  0  0
    0.2520    5.1021   -1.9098 F   0  0  0  0  0  0  0  0  0  0  0  0
   -2.0447    5.4602   -1.0775 C   0  0  0  0  0  0  0  0  0  0  0  0
   -2.9348    4.6963   -0.4815 C   0  0  0  0  0  0  0  0  0  0  0  0
   -2.3040    3.4480   -0.0404 C   0  0  0  0  0  0  0  0  0  0  0  0
   -2.9166    2.5583    0.7813 C   0  0  0  0  0  0  0  0  0  0  0  0
   -2.3664    1.5305    1.6973 C   0  0  0  0  0  0  0  0  0  0  0  0
   -3.3965    0.9853    2.3522 C   0  0  0  0  0  0  0  0  0  0  0  0
   -4.6361    1.5149    1.8054 C   0  0  0  0  0  0  0  0  0  0  0  0
   -4.3692    2.4628    0.9312 C   0  0  0  0  0  0  0  0  0  0  0  0
   -5.8734    1.1296    2.1756 F   0  0  0  0  0  0  0  0  0  0  0  0
   -0.9836    1.3684    2.1610 C   0  0  0  0  0  0  0  0  0  0  0  0
   -0.1729    2.3855    2.4464 C   0  0  0  0  0  0  0  0  0  0  0  0
   -0.4134    3.6894    2.2073 F   0  0  0  0  0  0  0  0  0  0  0  0
    1.0017    1.9451    3.1875 C   0  0  0  0  0  0  0  0  0  0  0  0
    0.8668    0.6655    3.4379 C   0  0  0  0  0  0  0  0  0  0  0  0
   -0.3600    0.1767    2.7774 C   0  0  0  0  0  0  0  0  0  0  0  0
   -0.7127   -1.1204    2.7546 C   0  0  0  0  0  0  0  0  0  0  0  0
   -1.7640   -1.8516    2.0018 C   0  0  0  0  0  0  0  0  0  0  0  0
   -1.8078   -3.0944    2.4791 C   0  0  0  0  0  0  0  0  0  0  0  0
   -0.8021   -3.2580    3.5124 C   0  0  0  0  0  0  0  0  0  0  0  0
   -0.1202   -2.1370    3.6424 C   0  0  0  0  0  0  0  0  0  0  0  0
   -0.5446   -4.4024    4.1894 F   0  0  0  0  0  0  0  0  0  0  0  0
   -2.5996   -1.4257    0.8624 C   0  0  0  0  0  0  0  0  0  0  0  0
   -2.1296   -0.9693   -0.2858 C   0  0  0  0  0  0  0  0  0  0  0  0
   -0.8257   -0.7143   -0.5168 F   0  0  0  0  0  0  0  0  0  0  0  0
   -3.1799   -1.0007   -1.3112 C   0  0  0  0  0  0  0  0  0  0  0  0
   -4.2878   -1.4892   -0.7661 C   0  0  0  0  0  0  0  0  0  0  0  0
   -4.0120   -1.7871    0.6411 C   0  0  0  0  0  0  0  0  0  0  0  0
   -4.9548   -2.1109    1.5417 C   0  0  0  0  0  0  0  0  0  0  0  0
   -4.8054   -2.1757    3.0116 C   0  0  0  0  0  0  0  0  0  0  0  0
   -6.0088   -2.4096    3.5110 C   0  0  0  0  0  0  0  0  0  0  0  0
   -6.9708   -2.5492    2.4128 C   0  0  0  0  0  0  0  0  0  0  0  0
   -6.3542   -2.3981    1.2552 C   0  0  0  0  0  0  0  0  0  0  0  0
   -8.2869   -2.7589    2.5634 F   0  0  0  0  0  0  0  0  0  0  0  0
    6.2764   -1.9095   -1.6123 H   0  0  0  0  0  0  0  0  0  0  0  0
    6.5660   -1.8542    2.6743 H   0  0  0  0  0  0  0  0  0  0  0  0
    5.4817    0.4020    2.0407 H   0  0  0  0  0  0  0  0  0  0  0  0
    5.8630    2.0523   -3.6690 H   0  0  0  0  0  0  0  0  0  0  0  0
    6.2510    2.2216    0.4786 H   0  0  0  0  0  0  0  0  0  0  0  0
    5.3302   -2.7591   -5.3267 H   0  0  0  0  0  0  0  0  0  0  0  0
    3.8660   -3.7084   -3.4612 H   0  0  0  0  0  0  0  0  0  0  0  0
    1.4571   -0.6368    1.0967 H   0  0  0  0  0  0  0  0  0  0  0  0
    3.1037   -3.8993   -1.1323 H   0  0  0  0  0  0  0  0  0  0  0  0
    1.4870   -0.8784   -3.6114 H   0  0  0  0  0  0  0  0  0  0  0  0
   -0.4406   -0.6167   -6.3403 H   0  0  0  0  0  0  0  0  0  0  0  0
   -1.5842   -1.5603   -5.3275 H   0  0  0  0  0  0  0  0  0  0  0  0
    0.1573   -1.9622   -5.2820 H   0  0  0  0  0  0  0  0  0  0  0  0
   -4.1062    1.3559   -3.4741 H   0  0  0  0  0  0  0  0  0  0  0  0
   -3.5572    2.5956   -4.6762 H   0  0  0  0  0  0  0  0  0  0  0  0
   -4.5930    1.2021   -5.1899 H   0  0  0  0  0  0  0  0  0  0  0  0
   -2.0838    2.4484   -2.7453 H   0  0  0  0  0  0  0  0  0  0  0  0
   -2.2162    6.4517   -1.4407 H   0  0  0  0  0  0  0  0  0  0  0  0
   -3.9509    5.0166   -0.2796 H   0  0  0  0  0  0  0  0  0  0  0  0
   -3.3294    0.2241    3.1230 H   0  0  0  0  0  0  0  0  0  0  0  0
   -5.1181    3.0164    0.3893 H   0  0  0  0  0  0  0  0  0  0  0  0
    1.8541    2.5268    3.5207 H   0  0  0  0  0  0  0  0  0  0  0  0
    1.6007    0.0656    3.9736 H   0  0  0  0  0  0  0  0  0  0  0  0
   -2.4911   -3.8649    2.1523 H   0  0  0  0  0  0  0  0  0  0  0  0
    0.6721   -1.9904    4.3666 H   0  0  0  0  0  0  0  0  0  0  0  0
   -3.0722   -0.7368   -2.3489 H   0  0  0  0  0  0  0  0  0  0  0  0
   -5.2123   -1.6696   -1.3057 H   0  0  0  0  0  0  0  0  0  0  0  0
   -3.9337   -2.0036    3.6068 H   0  0  0  0  0  0  0  0  0  0  0  0
   -6.2384   -2.4915    4.5619 H   0  0  0  0  0  0  0  0  0  0  0  0
   -6.8210   -2.4440    0.2853 H   0  0  0  0  0  0  0  0  0  0  0  0
  1  2  2  0
  2  3  1  0
  2  4  1  0
  4  5  2  0
  5  6  1  0
  6  7  2  0
  7  8  1  0
  8  9  2  0
  9 10  1  0
 10 11  2  0
 10 12  1  0
  8 13  1  0
 13 14  2  0
 14 15  1  0
 14 16  1  0
 16 17  2  0
 17 18  1  0
 18 19  2  0
 19 20  1  0
 20 21  2  0
 21 22  1  0
 22 23  2  0
 22 24  1  0
 20 25  1  0
 25 26  1  0
 26 27  1  0
 27 28  2  0
 28 29  1  0
 29 30  1  0
 30 31  2  0
 31 32  1  0
 31 33  1  0
 33 34  1  0
 34 35  1  0
 33 36  2  0
 27 37  1  0
 37 38  2  0
 38 39  1  0
 38 40  1  0
 40 41  2  0
 41 42  1  0
 42 43  2  0
 43 44  1  0
 44 45  2  0
 45 46  1  0
 46 47  2  0
 46 48  1  0
 44 49  1  0
 49 50  2  0
 50 51  1  0
 50 52  1  0
 52 53  2  0
 53 54  1  0
 54 55  2  0
 55 56  1  0
 56 57  2  0
 57 58  1  0
 58 59  2  0
 58 60  1  0
 56 61  1  0
 61 62  2  0
 62 63  1  0
 62 64  1  0
 64 65  2  0
 65 66  1  0
 66 67  2  0
 67 68  1  0
 68 69  2  0
 69 70  1  0
 70 71  2  0
 70 72  1  0
  6  1  1  0
 11  7  1  0
 18 13  1  0
 23 19  1  0
 29 25  2  0
 42 37  1  0
 47 43  1  0
 54 49  1  0
 59 55  1  0
 66 61  1  0
 71 67  1  0
 36 28  1  0
  1 73  1  0
  4 74  1  0
  5 75  1  0
  9 76  1  0
 11 77  1  0
 16 78  1  0
 17 79  1  0
 21 80  1  0
 23 81  1  0
 30 82  1  0
 32 83  1  0
 32 84  1  0
 32 85  1  0
 35 86  1  0
 35 87  1  0
 35 88  1  0
 36 89  1  0
 40 90  1  0
 41 91  1  0
 45 92  1  0
 47 93  1  0
 52 94  1  0
 53 95  1  0
 57 96  1  0
 59 97  1  0
 64 98  1  0
 65 99  1  0
 68100  1  0
 69101  1  0
 71102  1  0
M  END

