
     RDKit          3D

182199  0  0  0  0  0  0  0  0999 V2000
   12.7248   -4.3826   -0.3914 C   0  0  0  0  0  0  0  0  0  0  0  0
   11.7091   -5.4546    0.4215 S   0  0  0  0  0  0  0  0  0  0  0  0
   10.2652   -4.9466   -0.2768 C   0  0  0  0  0  0  0  0  0  0  0  0
   10.5592   -3.8914   -1.1435 C   0  0  0  0  0  0  0  0  0  0  0  0
   11.9283   -3.5918   -1.2102 C   0  0  0  0  0  0  0  0  0  0  0  0
   12.3927   -2.5564   -2.0219 C   0  0  0  0  0  0  0  0  0  0  0  0
   11.4735   -1.8036   -2.7779 C   0  0  0  0  0  0  0  0  0  0  0  0
   11.9667   -0.6733   -3.6378 C   0  0  0  0  0  0  0  0  0  0  0  0
   10.0869   -2.0759   -2.6895 C   0  0  0  0  0  0  0  0  0  0  0  0
    9.1924   -1.2831   -3.4303 O   0  0  0  0  0  0  0  0  0  0  0  0
    7.7789   -1.4560   -3.4452 C   0  0  0  0  0  0  0  0  0  0  0  0
    9.6331   -3.1258   -1.8614 C   0  0  0  0  0  0  0  0  0  0  0  0
    8.9373   -5.4829    0.0531 C   0  0  0  0  0  0  0  0  0  0  0  0
    8.2581   -5.4403    1.5907 S   0  0  0  0  0  0  0  0  0  0  0  0
    6.7231   -5.9905    1.1592 C   0  0  0  0  0  0  0  0  0  0  0  0
    6.7289   -6.2110   -0.2234 C   0  0  0  0  0  0  0  0  0  0  0  0
    7.9607   -5.9286   -0.8368 C   0  0  0  0  0  0  0  0  0  0  0  0
    8.1181   -6.0834   -2.2179 C   0  0  0  0  0  0  0  0  0  0  0  0
    7.0231   -6.4943   -3.0001 C   0  0  0  0  0  0  0  0  0  0  0  0
    7.1749   -6.6244   -4.4889 C   0  0  0  0  0  0  0  0  0  0  0  0
    5.7826   -6.7851   -2.3888 C   0  0  0  0  0  0  0  0  0  0  0  0
    4.7114   -7.1945   -3.2002 O   0  0  0  0  0  0  0  0  0  0  0  0
    3.4019   -7.4885   -2.7228 C   0  0  0  0  0  0  0  0  0  0  0  0
    5.6440   -6.6549   -0.9904 C   0  0  0  0  0  0  0  0  0  0  0  0
    5.5301   -5.8521    2.0182 C   0  0  0  0  0  0  0  0  0  0  0  0
    4.1327   -5.0625    1.5226 S   0  0  0  0  0  0  0  0  0  0  0  0
    3.3721   -4.9878    3.0164 C   0  0  0  0  0  0  0  0  0  0  0  0
    4.2349   -5.5519    3.9580 C   0  0  0  0  0  0  0  0  0  0  0  0
    5.4306   -6.0452    3.4009 C   0  0  0  0  0  0  0  0  0  0  0  0
    6.3951   -6.6426    4.2166 C   0  0  0  0  0  0  0  0  0  0  0  0
    6.1713   -6.7406    5.6030 C   0  0  0  0  0  0  0  0  0  0  0  0
    7.2036   -7.3874    6.4817 C   0  0  0  0  0  0  0  0  0  0  0  0
    4.9943   -6.1969    6.1731 C   0  0  0  0  0  0  0  0  0  0  0  0
    4.8164   -6.2809    7.5649 O   0  0  0  0  0  0  0  0  0  0  0  0
    3.6516   -5.8393    8.2574 C   0  0  0  0  0  0  0  0  0  0  0  0
    4.0321   -5.5853    5.3401 C   0  0  0  0  0  0  0  0  0  0  0  0
    2.1029   -4.2792    3.2262 C   0  0  0  0  0  0  0  0  0  0  0  0
    1.7253   -2.8711    2.4033 S   0  0  0  0  0  0  0  0  0  0  0  0
    0.1071   -2.7748    2.8406 C   0  0  0  0  0  0  0  0  0  0  0  0
   -0.1791   -3.8864    3.6432 C   0  0  0  0  0  0  0  0  0  0  0  0
    0.9336   -4.7335    3.8449 C   0  0  0  0  0  0  0  0  0  0  0  0
    0.7794   -5.9551    4.5077 C   0  0  0  0  0  0  0  0  0  0  0  0
   -0.4720   -6.3045    5.0438 C   0  0  0  0  0  0  0  0  0  0  0  0
   -0.6306   -7.6103    5.7710 C   0  0  0  0  0  0  0  0  0  0  0  0
   -1.5871   -5.4544    4.8590 C   0  0  0  0  0  0  0  0  0  0  0  0
   -2.8269   -5.8465    5.3912 O   0  0  0  0  0  0  0  0  0  0  0  0
   -4.0290   -5.0879    5.2917 C   0  0  0  0  0  0  0  0  0  0  0  0
   -1.4378   -4.2503    4.1354 C   0  0  0  0  0  0  0  0  0  0  0  0
   -0.8188   -1.8393    2.1844 C   0  0  0  0  0  0  0  0  0  0  0  0
   -1.9246   -1.1871    2.7348 C   0  0  0  0  0  0  0  0  0  0  0  0
   -2.5266   -0.2835    1.8334 C   0  0  0  0  0  0  0  0  0  0  0  0
   -3.6575    0.5339    2.0728 C   0  0  0  0  0  0  0  0  0  0  0  0
   -4.3989    0.4848    3.3533 C   0  0  0  0  0  0  0  0  0  0  0  0
   -5.7421    0.0730    3.3688 C   0  0  0  0  0  0  0  0  0  0  0  0
   -6.4136   -0.0933    4.5829 C   0  0  0  0  0  0  0  0  0  0  0  0
   -5.7498    0.1406    5.7919 C   0  0  0  0  0  0  0  0  0  0  0  0
   -6.6051   -0.1369    7.3466 S   0  0  0  0  0  0  0  0  0  0  0  0
   -5.9602   -1.8305    7.5963 C   0  0  0  0  0  0  0  0  0  0  0  0
   -6.7118   -2.8414    6.7386 C   0  0  0  0  0  0  0  0  0  0  0  0
   -4.4254    0.5977    5.7815 C   0  0  0  0  0  0  0  0  0  0  0  0
   -3.7752    0.8482    6.9451 F   0  0  0  0  0  0  0  0  0  0  0  0
   -3.7528    0.7696    4.5671 C   0  0  0  0  0  0  0  0  0  0  0  0
   -4.0818    1.3554    1.0061 C   0  0  0  0  0  0  0  0  0  0  0  0
   -3.4455    1.3517   -0.2419 C   0  0  0  0  0  0  0  0  0  0  0  0
   -2.3224    0.5405   -0.4763 C   0  0  0  0  0  0  0  0  0  0  0  0
   -1.6074    0.5404   -1.7699 C   0  0  0  0  0  0  0  0  0  0  0  0
   -0.2809    0.9900   -1.8434 C   0  0  0  0  0  0  0  0  0  0  0  0
    0.4016    0.9719   -3.0630 C   0  0  0  0  0  0  0  0  0  0  0  0
   -0.2310    0.4916   -4.2145 C   0  0  0  0  0  0  0  0  0  0  0  0
    0.6591    0.4580   -5.7753 S   0  0  0  0  0  0  0  0  0  0  0  0
    1.2249   -1.2733   -5.6091 C   0  0  0  0  0  0  0  0  0  0  0  0
    2.4493   -1.3732   -4.7077 C   0  0  0  0  0  0  0  0  0  0  0  0
   -1.5620    0.0553   -4.1491 C   0  0  0  0  0  0  0  0  0  0  0  0
   -2.2459    0.0760   -2.9300 C   0  0  0  0  0  0  0  0  0  0  0  0
   -2.1917   -0.4069   -5.2580 F   0  0  0  0  0  0  0  0  0  0  0  0
   -1.8874   -0.2548    0.5896 C   0  0  0  0  0  0  0  0  0  0  0  0
   -0.5918   -1.3110    0.6021 S   0  0  0  0  0  0  0  0  0  0  0  0
   -3.9944    2.2588   -1.1530 C   0  0  0  0  0  0  0  0  0  0  0  0
   -5.0429    2.9990   -0.6200 C   0  0  0  0  0  0  0  0  0  0  0  0
   -5.2996    2.5277    0.9852 S   0  0  0  0  0  0  0  0  0  0  0  0
   -5.6960    4.1074   -1.3261 C   0  0  0  0  0  0  0  0  0  0  0  0
   -5.7902    4.2136   -2.7127 C   0  0  0  0  0  0  0  0  0  0  0  0
   -6.2318    5.4737   -3.1395 C   0  0  0  0  0  0  0  0  0  0  0  0
   -6.3811    5.8921   -4.4784 C   0  0  0  0  0  0  0  0  0  0  0  0
   -6.1613    4.9707   -5.6143 C   0  0  0  0  0  0  0  0  0  0  0  0
   -6.9589    3.8238   -5.7567 C   0  0  0  0  0  0  0  0  0  0  0  0
   -6.7464    2.9455   -6.8225 C   0  0  0  0  0  0  0  0  0  0  0  0
   -5.7317    3.1993   -7.7523 C   0  0  0  0  0  0  0  0  0  0  0  0
   -5.4814    2.0720   -9.1302 S   0  0  0  0  0  0  0  0  0  0  0  0
   -4.3986    0.9178   -8.2147 C   0  0  0  0  0  0  0  0  0  0  0  0
   -2.9546    1.4011   -8.2196 C   0  0  0  0  0  0  0  0  0  0  0  0
   -4.9417    4.3510   -7.6244 C   0  0  0  0  0  0  0  0  0  0  0  0
   -3.9750    4.6265   -8.5348 F   0  0  0  0  0  0  0  0  0  0  0  0
   -5.1525    5.2285   -6.5563 C   0  0  0  0  0  0  0  0  0  0  0  0
   -6.7355    7.2361   -4.6830 C   0  0  0  0  0  0  0  0  0  0  0  0
   -6.9401    8.1324   -3.6289 C   0  0  0  0  0  0  0  0  0  0  0  0
   -6.8002    7.7099   -2.2893 C   0  0  0  0  0  0  0  0  0  0  0  0
   -6.9107    8.6572   -1.1603 C   0  0  0  0  0  0  0  0  0  0  0  0
   -8.1182    9.3259   -0.9083 C   0  0  0  0  0  0  0  0  0  0  0  0
   -8.1962   10.2752    0.1152 C   0  0  0  0  0  0  0  0  0  0  0  0
   -7.0657   10.5728    0.8860 C   0  0  0  0  0  0  0  0  0  0  0  0
   -7.1572   11.8405    2.1549 S   0  0  0  0  0  0  0  0  0  0  0  0
   -6.5396   13.1876    1.0817 C   0  0  0  0  0  0  0  0  0  0  0  0
   -7.6406   13.7180    0.1704 C   0  0  0  0  0  0  0  0  0  0  0  0
   -5.8673    9.8826    0.6612 C   0  0  0  0  0  0  0  0  0  0  0  0
   -5.7889    8.9337   -0.3634 C   0  0  0  0  0  0  0  0  0  0  0  0
   -4.7676   10.1518    1.4095 F   0  0  0  0  0  0  0  0  0  0  0  0
   -6.4543    6.3619   -2.0825 C   0  0  0  0  0  0  0  0  0  0  0  0
   -6.1466    5.5726   -0.6233 S   0  0  0  0  0  0  0  0  0  0  0  0
   -7.2427    9.4327   -4.0683 C   0  0  0  0  0  0  0  0  0  0  0  0
   -7.2957    9.5475   -5.4540 C   0  0  0  0  0  0  0  0  0  0  0  0
   -6.9587    8.0463   -6.1412 S   0  0  0  0  0  0  0  0  0  0  0  0
   13.7983   -4.3117   -0.2766 H   0  0  0  0  0  0  0  0  0  0  0  0
   13.4515   -2.3351   -2.0595 H   0  0  0  0  0  0  0  0  0  0  0  0
   13.0682   -0.7146   -3.7704 H   0  0  0  0  0  0  0  0  0  0  0  0
   11.4987   -0.7273   -4.6426 H   0  0  0  0  0  0  0  0  0  0  0  0
   11.6998    0.2948   -3.1652 H   0  0  0  0  0  0  0  0  0  0  0  0
    7.3298   -0.7002   -4.1227 H   0  0  0  0  0  0  0  0  0  0  0  0
    7.3638   -1.3074   -2.4252 H   0  0  0  0  0  0  0  0  0  0  0  0
    7.5208   -2.4687   -3.8229 H   0  0  0  0  0  0  0  0  0  0  0  0
    8.5762   -3.3324   -1.7640 H   0  0  0  0  0  0  0  0  0  0  0  0
    9.0733   -5.8760   -2.6819 H   0  0  0  0  0  0  0  0  0  0  0  0
    6.9988   -7.6782   -4.7933 H   0  0  0  0  0  0  0  0  0  0  0  0
    6.4355   -5.9710   -4.9980 H   0  0  0  0  0  0  0  0  0  0  0  0
    8.1907   -6.3238   -4.8241 H   0  0  0  0  0  0  0  0  0  0  0  0
    2.7547   -7.7542   -3.5839 H   0  0  0  0  0  0  0  0  0  0  0  0
    3.4370   -8.3515   -2.0254 H   0  0  0  0  0  0  0  0  0  0  0  0
    2.9713   -6.5995   -2.2148 H   0  0  0  0  0  0  0  0  0  0  0  0
    4.7115   -6.9069   -0.5066 H   0  0  0  0  0  0  0  0  0  0  0  0
    7.3008   -7.0453    3.7830 H   0  0  0  0  0  0  0  0  0  0  0  0
    7.9646   -7.9311    5.8836 H   0  0  0  0  0  0  0  0  0  0  0  0
    6.7179   -8.1176    7.1643 H   0  0  0  0  0  0  0  0  0  0  0  0
    7.7152   -6.6096    7.0855 H   0  0  0  0  0  0  0  0  0  0  0  0
    2.7557   -6.3836    7.8856 H   0  0  0  0  0  0  0  0  0  0  0  0
    3.7727   -6.0491    9.3401 H   0  0  0  0  0  0  0  0  0  0  0  0
    3.5180   -4.7444    8.1235 H   0  0  0  0  0  0  0  0  0  0  0  0
    3.1456   -5.1346    5.7624 H   0  0  0  0  0  0  0  0  0  0  0  0
    1.6134   -6.6384    4.5930 H   0  0  0  0  0  0  0  0  0  0  0  0
    0.3460   -8.1183    5.9200 H   0  0  0  0  0  0  0  0  0  0  0  0
   -1.0794   -7.4318    6.7708 H   0  0  0  0  0  0  0  0  0  0  0  0
   -1.2943   -8.2821    5.1868 H   0  0  0  0  0  0  0  0  0  0  0  0
   -4.3118   -4.9575    4.2262 H   0  0  0  0  0  0  0  0  0  0  0  0
   -4.8443   -5.6349    5.8096 H   0  0  0  0  0  0  0  0  0  0  0  0
   -3.8984   -4.0986    5.7790 H   0  0  0  0  0  0  0  0  0  0  0  0
   -2.2926   -3.6212    3.9484 H   0  0  0  0  0  0  0  0  0  0  0  0
   -2.2503   -1.3345    3.7546 H   0  0  0  0  0  0  0  0  0  0  0  0
   -6.2579   -0.1487    2.4421 H   0  0  0  0  0  0  0  0  0  0  0  0
   -7.4408   -0.4332    4.5829 H   0  0  0  0  0  0  0  0  0  0  0  0
   -6.1002   -2.0960    8.6669 H   0  0  0  0  0  0  0  0  0  0  0  0
   -4.8732   -1.8761    7.3708 H   0  0  0  0  0  0  0  0  0  0  0  0
   -6.4799   -2.6891    5.6627 H   0  0  0  0  0  0  0  0  0  0  0  0
   -7.8077   -2.7479    6.8994 H   0  0  0  0  0  0  0  0  0  0  0  0
   -6.3987   -3.8698    7.0185 H   0  0  0  0  0  0  0  0  0  0  0  0
   -2.7209    1.1021    4.5729 H   0  0  0  0  0  0  0  0  0  0  0  0
    0.2255    1.3526   -0.9573 H   0  0  0  0  0  0  0  0  0  0  0  0
    1.4238    1.3237   -3.1089 H   0  0  0  0  0  0  0  0  0  0  0  0
    0.4113   -1.9191   -5.2164 H   0  0  0  0  0  0  0  0  0  0  0  0
    1.4972   -1.6438   -6.6210 H   0  0  0  0  0  0  0  0  0  0  0  0
    2.8352   -2.4158   -4.7282 H   0  0  0  0  0  0  0  0  0  0  0  0
    3.2508   -0.6909   -5.0629 H   0  0  0  0  0  0  0  0  0  0  0  0
    2.1829   -1.1210   -3.6582 H   0  0  0  0  0  0  0  0  0  0  0  0
   -3.2684   -0.2789   -2.8855 H   0  0  0  0  0  0  0  0  0  0  0  0
   -3.6036    2.4212   -2.1500 H   0  0  0  0  0  0  0  0  0  0  0  0
   -5.4991    3.4172   -3.3876 H   0  0  0  0  0  0  0  0  0  0  0  0
   -7.7472    3.6142   -5.0430 H   0  0  0  0  0  0  0  0  0  0  0  0
   -7.3691    2.0646   -6.9226 H   0  0  0  0  0  0  0  0  0  0  0  0
   -4.7517    0.7813   -7.1691 H   0  0  0  0  0  0  0  0  0  0  0  0
   -4.4452   -0.0689   -8.7228 H   0  0  0  0  0  0  0  0  0  0  0  0
   -2.6222    1.6153   -9.2580 H   0  0  0  0  0  0  0  0  0  0  0  0
   -2.2951    0.6163   -7.7903 H   0  0  0  0  0  0  0  0  0  0  0  0
   -2.8530    2.3188   -7.6025 H   0  0  0  0  0  0  0  0  0  0  0  0
   -4.5271    6.1077   -6.4598 H   0  0  0  0  0  0  0  0  0  0  0  0
   -8.9940    9.1226   -1.5117 H   0  0  0  0  0  0  0  0  0  0  0  0
   -9.1287   10.7963    0.2920 H   0  0  0  0  0  0  0  0  0  0  0  0
   -5.6775   12.8430    0.4704 H   0  0  0  0  0  0  0  0  0  0  0  0
   -6.1864   14.0118    1.7349 H   0  0  0  0  0  0  0  0  0  0  0  0
   -8.5418   13.9737    0.7660 H   0  0  0  0  0  0  0  0  0  0  0  0
   -7.9073   12.9650   -0.5990 H   0  0  0  0  0  0  0  0  0  0  0  0
   -7.2860   14.6338   -0.3479 H   0  0  0  0  0  0  0  0  0  0  0  0
   -4.8465    8.4328   -0.5518 H   0  0  0  0  0  0  0  0  0  0  0  0
   -7.4110   10.2753   -3.4111 H   0  0  0  0  0  0  0  0  0  0  0  0
   -7.5087   10.4564   -5.9992 H   0  0  0  0  0  0  0  0  0  0  0  0
  1  2  1  0
  2  3  1  0
  3  4  2  0
  4  5  1  0
  5  6  1  0
  6  7  2  0
  7  8  1  0
  7  9  1  0
  9 10  1  0
 10 11  1  0
  9 12  2  0
  3 13  1  0
 13 14  1  0
 14 15  1  0
 15 16  2  0
 16 17  1  0
 17 18  1  0
 18 19  2  0
 19 20  1  0
 19 21  1  0
 21 22  1  0
 22 23  1  0
 21 24  2  0
 15 25  1  0
 25 26  1  0
 26 27  1  0
 27 28  2  0
 28 29  1  0
 29 30  1  0
 30 31  2  0
 31 32  1  0
 31 33  1  0
 33 34  1  0
 34 35  1  0
 33 36  2  0
 27 37  1  0
 37 38  1  0
 38 39  1  0
 39 40  2  0
 40 41  1  0
 41 42  1  0
 42 43  2  0
 43 44  1  0
 43 45  1  0
 45 46  1  0
 46 47  1  0
 45 48  2  0
 39 49  1  0
 49 50  2  0
 50 51  1  0
 51 52  2  0
 52 53  1  0
 53 54  2  0
 54 55  1  0
 55 56  2  0
 56 57  1  0
 57 58  1  0
 58 59  1  0
 56 60  1  0
 60 61  1  0
 60 62  2  0
 52 63  1  0
 63 64  2  0
 64 65  1  0
 65 66  1  0
 66 67  2  0
 67 68  1  0
 68 69  2  0
 69 70  1  0
 70 71  1  0
 71 72  1  0
 69 73  1  0
 73 74  2  0
 73 75  1  0
 65 76  2  0
 76 77  1  0
 64 78  1  0
 78 79  2  0
 79 80  1  0
 79 81  1  0
 81 82  2  0
 82 83  1  0
 83 84  2  0
 84 85  1  0
 85 86  2  0
 86 87  1  0
 87 88  2  0
 88 89  1  0
 89 90  1  0
 90 91  1  0
 88 92  1  0
 92 93  1  0
 92 94  2  0
 84 95  1  0
 95 96  2  0
 96 97  1  0
 97 98  1  0
 98 99  2  0
 99100  1  0
100101  2  0
101102  1  0
102103  1  0
103104  1  0
101105  1  0
105106  2  0
105107  1  0
 97108  2  0
108109  1  0
 96110  1  0
110111  2  0
111112  1  0
  5  1  2  0
 17 13  2  0
 29 25  2  0
 41 37  2  0
 77 49  1  0
109 81  1  0
 12  4  1  0
 24 16  1  0
 36 28  1  0
 48 40  1  0
 76 51  1  0
108 83  1  0
 62 53  1  0
 80 63  1  0
 94 85  1  0
112 95  1  0
 74 66  1  0
106 98  1  0
  1113  1  0
  6114  1  0
  8115  1  0
  8116  1  0
  8117  1  0
 11118  1  0
 11119  1  0
 11120  1  0
 12121  1  0
 18122  1  0
 20123  1  0
 20124  1  0
 20125  1  0
 23126  1  0
 23127  1  0
 23128  1  0
 24129  1  0
 30130  1  0
 32131  1  0
 32132  1  0
 32133  1  0
 35134  1  0
 35135  1  0
 35136  1  0
 36137  1  0
 42138  1  0
 44139  1  0
 44140  1  0
 44141  1  0
 47142  1  0
 47143  1  0
 47144  1  0
 48145  1  0
 50146  1  0
 54147  1  0
 55148  1  0
 58149  1  0
 58150  1  0
 59151  1  0
 59152  1  0
 59153  1  0
 62154  1  0
 67155  1  0
 68156  1  0
 71157  1  0
 71158  1  0
 72159  1  0
 72160  1  0
 72161  1  0
 74162  1  0
 78163  1  0
 82164  1  0
 86165  1  0
 87166  1  0
 90167  1  0
 90168  1  0
 91169  1  0
 91170  1  0
 91171  1  0
 94172  1  0
 99173  1  0
100174  1  0
103175  1  0
103176  1  0
104177  1  0
104178  1  0
104179  1  0
106180  1  0
110181  1  0
111182  1  0
M  END

