
     RDKit          3D

242265  0  0  0  0  0  0  0  0999 V2000
    3.5225    0.6528   10.9242 C   0  0  0  0  0  0  0  0  0  0  0  0
    2.9825    1.5268    9.9865 C   0  0  0  0  0  0  0  0  0  0  0  0
    1.9870    0.9414    9.1873 C   0  0  0  0  0  0  0  0  0  0  0  0
    1.2568    1.5722    8.1541 C   0  0  0  0  0  0  0  0  0  0  0  0
    1.5595    2.9488    7.6967 C   0  0  0  0  0  0  0  0  0  0  0  0
    2.8511    3.2721    7.2500 C   0  0  0  0  0  0  0  0  0  0  0  0
    3.1246    4.5453    6.7429 C   0  0  0  0  0  0  0  0  0  0  0  0
    2.1098    5.5055    6.6661 C   0  0  0  0  0  0  0  0  0  0  0  0
    2.4587    7.1202    5.9558 S   0  0  0  0  0  0  0  0  0  0  0  0
    2.0345    6.6477    4.2383 C   0  0  0  0  0  0  0  0  0  0  0  0
    3.2041    6.9541    3.3156 C   0  0  0  0  0  0  0  0  0  0  0  0
    0.8220    5.1954    7.1186 C   0  0  0  0  0  0  0  0  0  0  0  0
   -0.1741    6.1106    7.0399 F   0  0  0  0  0  0  0  0  0  0  0  0
    0.5498    3.9236    7.6372 C   0  0  0  0  0  0  0  0  0  0  0  0
    0.2736    0.7931    7.5092 C   0  0  0  0  0  0  0  0  0  0  0  0
    0.0477   -0.5535    7.8213 C   0  0  0  0  0  0  0  0  0  0  0  0
    0.7807   -1.1795    8.8529 C   0  0  0  0  0  0  0  0  0  0  0  0
    0.5320   -2.5776    9.2608 C   0  0  0  0  0  0  0  0  0  0  0  0
    0.7979   -3.6380    8.3834 C   0  0  0  0  0  0  0  0  0  0  0  0
    0.5782   -4.9581    8.7900 C   0  0  0  0  0  0  0  0  0  0  0  0
    0.1142   -5.2301   10.0826 C   0  0  0  0  0  0  0  0  0  0  0  0
   -0.1423   -6.9310   10.6064 S   0  0  0  0  0  0  0  0  0  0  0  0
    1.6009   -7.2343   11.0598 C   0  0  0  0  0  0  0  0  0  0  0  0
    1.9283   -6.6561   12.4358 C   0  0  0  0  0  0  0  0  0  0  0  0
   -0.1605   -4.1714   10.9595 C   0  0  0  0  0  0  0  0  0  0  0  0
    0.0460   -2.8524   10.5498 C   0  0  0  0  0  0  0  0  0  0  0  0
   -0.6360   -4.4157   12.2054 F   0  0  0  0  0  0  0  0  0  0  0  0
    1.7394   -0.3943    9.5183 C   0  0  0  0  0  0  0  0  0  0  0  0
    2.7688   -0.8446   10.7730 S   0  0  0  0  0  0  0  0  0  0  0  0
   -0.9458   -1.1503    7.0216 C   0  0  0  0  0  0  0  0  0  0  0  0
   -1.5022   -0.2621    6.1041 C   0  0  0  0  0  0  0  0  0  0  0  0
   -0.7591    1.2426    6.2583 S   0  0  0  0  0  0  0  0  0  0  0  0
   -2.4900   -0.5922    5.0754 C   0  0  0  0  0  0  0  0  0  0  0  0
   -3.5532    0.2205    4.6908 C   0  0  0  0  0  0  0  0  0  0  0  0
   -4.2103   -0.2396    3.5334 C   0  0  0  0  0  0  0  0  0  0  0  0
   -5.2675    0.4136    2.8620 C   0  0  0  0  0  0  0  0  0  0  0  0
   -5.9731    1.5769    3.4666 C   0  0  0  0  0  0  0  0  0  0  0  0
   -6.5084    1.4749    4.7646 C   0  0  0  0  0  0  0  0  0  0  0  0
   -7.1469    2.5674    5.3556 C   0  0  0  0  0  0  0  0  0  0  0  0
   -7.3018    3.7617    4.6459 C   0  0  0  0  0  0  0  0  0  0  0  0
   -8.1041    5.1730    5.4249 S   0  0  0  0  0  0  0  0  0  0  0  0
   -9.8120    4.6612    5.0174 C   0  0  0  0  0  0  0  0  0  0  0  0
  -10.4585    3.9913    6.2231 C   0  0  0  0  0  0  0  0  0  0  0  0
   -6.7856    3.8698    3.3479 C   0  0  0  0  0  0  0  0  0  0  0  0
   -6.9174    5.0272    2.6519 F   0  0  0  0  0  0  0  0  0  0  0  0
   -6.1125    2.7877    2.7670 C   0  0  0  0  0  0  0  0  0  0  0  0
   -5.6213   -0.1042    1.5971 C   0  0  0  0  0  0  0  0  0  0  0  0
   -4.9993   -1.2284    1.0385 C   0  0  0  0  0  0  0  0  0  0  0  0
   -3.9840   -1.9132    1.7434 C   0  0  0  0  0  0  0  0  0  0  0  0
   -3.2068   -3.0212    1.1390 C   0  0  0  0  0  0  0  0  0  0  0  0
   -2.4646   -2.8127   -0.0348 C   0  0  0  0  0  0  0  0  0  0  0  0
   -1.6703   -3.8353   -0.5609 C   0  0  0  0  0  0  0  0  0  0  0  0
   -1.5936   -5.0721    0.0868 C   0  0  0  0  0  0  0  0  0  0  0  0
   -0.4839   -6.3381   -0.5401 S   0  0  0  0  0  0  0  0  0  0  0  0
   -1.7511   -7.2261   -1.5096 C   0  0  0  0  0  0  0  0  0  0  0  0
   -2.0155   -6.5363   -2.8394 C   0  0  0  0  0  0  0  0  0  0  0  0
   -2.3351   -5.2914    1.2574 C   0  0  0  0  0  0  0  0  0  0  0  0
   -3.1421   -4.2714    1.7785 C   0  0  0  0  0  0  0  0  0  0  0  0
   -2.2657   -6.4843    1.9014 F   0  0  0  0  0  0  0  0  0  0  0  0
   -3.6218   -1.3900    2.9978 C   0  0  0  0  0  0  0  0  0  0  0  0
   -2.3337   -1.8595    3.9774 S   0  0  0  0  0  0  0  0  0  0  0  0
   -5.4149   -1.4950   -0.2777 C   0  0  0  0  0  0  0  0  0  0  0  0
   -6.3086   -0.5496   -0.7837 C   0  0  0  0  0  0  0  0  0  0  0  0
   -6.6487    0.5630    0.4445 S   0  0  0  0  0  0  0  0  0  0  0  0
   -6.4312   -0.2542   -2.2256 C   0  0  0  0  0  0  0  0  0  0  0  0
   -6.3424    1.0470   -2.7274 C   0  0  0  0  0  0  0  0  0  0  0  0
   -5.8023    1.1089   -4.0239 C   0  0  0  0  0  0  0  0  0  0  0  0
   -5.2836    2.2734   -4.6277 C   0  0  0  0  0  0  0  0  0  0  0  0
   -5.4312    3.5952   -3.9960 C   0  0  0  0  0  0  0  0  0  0  0  0
   -6.4943    4.4325   -4.3586 C   0  0  0  0  0  0  0  0  0  0  0  0
   -6.6487    5.6760   -3.7345 C   0  0  0  0  0  0  0  0  0  0  0  0
   -5.7419    6.0871   -2.7501 C   0  0  0  0  0  0  0  0  0  0  0  0
   -5.9628    7.6728   -1.9355 S   0  0  0  0  0  0  0  0  0  0  0  0
   -4.8947    8.6074   -3.0871 C   0  0  0  0  0  0  0  0  0  0  0  0
   -5.6626    9.0128   -4.3387 C   0  0  0  0  0  0  0  0  0  0  0  0
   -4.6844    5.2441   -2.3814 C   0  0  0  0  0  0  0  0  0  0  0  0
   -3.8157    5.6146   -1.4089 F   0  0  0  0  0  0  0  0  0  0  0  0
   -4.5249    4.0048   -3.0067 C   0  0  0  0  0  0  0  0  0  0  0  0
   -4.4074    2.0884   -5.7103 C   0  0  0  0  0  0  0  0  0  0  0  0
   -4.1369    0.8283   -6.2490 C   0  0  0  0  0  0  0  0  0  0  0  0
   -4.7665   -0.3207   -5.7276 C   0  0  0  0  0  0  0  0  0  0  0  0
   -4.4324   -1.6608   -6.2425 C   0  0  0  0  0  0  0  0  0  0  0  0
   -3.4172   -2.4201   -5.6413 C   0  0  0  0  0  0  0  0  0  0  0  0
   -3.0122   -3.6277   -6.2163 C   0  0  0  0  0  0  0  0  0  0  0  0
   -3.6181   -4.0870   -7.3956 C   0  0  0  0  0  0  0  0  0  0  0  0
   -3.0291   -5.5923   -8.1799 S   0  0  0  0  0  0  0  0  0  0  0  0
   -4.3114   -6.6756   -7.4557 C   0  0  0  0  0  0  0  0  0  0  0  0
   -3.9648   -7.0448   -6.0205 C   0  0  0  0  0  0  0  0  0  0  0  0
   -4.6407   -3.3326   -7.9899 C   0  0  0  0  0  0  0  0  0  0  0  0
   -5.0454   -2.1252   -7.4154 C   0  0  0  0  0  0  0  0  0  0  0  0
   -5.2272   -3.7582   -9.1353 F   0  0  0  0  0  0  0  0  0  0  0  0
   -5.5497   -0.1498   -4.5755 C   0  0  0  0  0  0  0  0  0  0  0  0
   -5.9386   -1.3252   -3.4386 S   0  0  0  0  0  0  0  0  0  0  0  0
   -3.0053    0.8118   -7.0840 C   0  0  0  0  0  0  0  0  0  0  0  0
   -2.3203    2.0293   -7.1185 C   0  0  0  0  0  0  0  0  0  0  0  0
   -3.2149    3.1531   -6.2243 S   0  0  0  0  0  0  0  0  0  0  0  0
   -0.8481    2.0799   -7.2120 C   0  0  0  0  0  0  0  0  0  0  0  0
   -0.0724    2.6836   -6.2209 C   0  0  0  0  0  0  0  0  0  0  0  0
    1.1798    2.0775   -6.0361 C   0  0  0  0  0  0  0  0  0  0  0  0
    2.0521    2.2993   -4.9481 C   0  0  0  0  0  0  0  0  0  0  0  0
    1.7935    3.3229   -3.9097 C   0  0  0  0  0  0  0  0  0  0  0  0
    0.6455    3.2564   -3.1040 C   0  0  0  0  0  0  0  0  0  0  0  0
    0.4231    4.2186   -2.1154 C   0  0  0  0  0  0  0  0  0  0  0  0
    1.3510    5.2465   -1.9120 C   0  0  0  0  0  0  0  0  0  0  0  0
    1.0473    6.4859   -0.6496 S   0  0  0  0  0  0  0  0  0  0  0  0
    0.2949    7.6987   -1.7924 C   0  0  0  0  0  0  0  0  0  0  0  0
   -1.1710    7.3791   -2.0463 C   0  0  0  0  0  0  0  0  0  0  0  0
    2.5185    5.2955   -2.6871 C   0  0  0  0  0  0  0  0  0  0  0  0
    3.4352    6.2735   -2.4848 F   0  0  0  0  0  0  0  0  0  0  0  0
    2.7375    4.3383   -3.6823 C   0  0  0  0  0  0  0  0  0  0  0  0
    3.1267    1.4082   -4.8109 C   0  0  0  0  0  0  0  0  0  0  0  0
    3.3917    0.3884   -5.7285 C   0  0  0  0  0  0  0  0  0  0  0  0
    2.5651    0.2166   -6.8590 C   0  0  0  0  0  0  0  0  0  0  0  0
    2.8154   -0.8655   -7.8348 C   0  0  0  0  0  0  0  0  0  0  0  0
    3.9975   -0.8613   -8.5924 C   0  0  0  0  0  0  0  0  0  0  0  0
    4.2490   -1.8834   -9.5104 C   0  0  0  0  0  0  0  0  0  0  0  0
    3.3224   -2.9192   -9.6817 C   0  0  0  0  0  0  0  0  0  0  0  0
    3.6577   -4.2382  -10.8577 S   0  0  0  0  0  0  0  0  0  0  0  0
    2.7315   -3.4751  -12.2391 C   0  0  0  0  0  0  0  0  0  0  0  0
    3.5847   -2.4469  -12.9712 C   0  0  0  0  0  0  0  0  0  0  0  0
    2.1501   -2.9393   -8.9117 C   0  0  0  0  0  0  0  0  0  0  0  0
    1.8990   -1.9161   -7.9920 C   0  0  0  0  0  0  0  0  0  0  0  0
    1.2551   -3.9501   -9.0446 F   0  0  0  0  0  0  0  0  0  0  0  0
    1.4370    1.0549   -6.9534 C   0  0  0  0  0  0  0  0  0  0  0  0
    0.0860    0.8750   -7.9434 S   0  0  0  0  0  0  0  0  0  0  0  0
    4.3901   -0.5016   -5.2891 C   0  0  0  0  0  0  0  0  0  0  0  0
    4.8359   -0.2224   -3.9948 C   0  0  0  0  0  0  0  0  0  0  0  0
    4.0840    1.1848   -3.4493 S   0  0  0  0  0  0  0  0  0  0  0  0
    5.6062   -1.1072   -3.0953 C   0  0  0  0  0  0  0  0  0  0  0  0
    6.4499   -0.5293   -1.7566 S   0  0  0  0  0  0  0  0  0  0  0  0
    6.7600   -2.0049   -1.0143 C   0  0  0  0  0  0  0  0  0  0  0  0
    6.1479   -2.9961   -1.7900 C   0  0  0  0  0  0  0  0  0  0  0  0
    5.5050   -2.5017   -2.9472 C   0  0  0  0  0  0  0  0  0  0  0  0
    4.7419   -3.3721   -3.7390 C   0  0  0  0  0  0  0  0  0  0  0  0
    4.6837   -4.7418   -3.4249 C   0  0  0  0  0  0  0  0  0  0  0  0
    3.8740   -5.6687   -4.2873 C   0  0  0  0  0  0  0  0  0  0  0  0
    5.3267   -5.2346   -2.2680 C   0  0  0  0  0  0  0  0  0  0  0  0
    5.2335   -6.6056   -1.9729 O   0  0  0  0  0  0  0  0  0  0  0  0
    5.8624   -7.2395   -0.8649 C   0  0  0  0  0  0  0  0  0  0  0  0
    6.0314   -4.3455   -1.4352 C   0  0  0  0  0  0  0  0  0  0  0  0
    7.2667   -2.1345    0.3632 C   0  0  0  0  0  0  0  0  0  0  0  0
    6.6880   -1.2317    1.6622 S   0  0  0  0  0  0  0  0  0  0  0  0
    7.5687   -2.0027    2.8695 C   0  0  0  0  0  0  0  0  0  0  0  0
    8.3362   -2.9859    2.2616 C   0  0  0  0  0  0  0  0  0  0  0  0
    8.1873   -3.0549    0.8690 C   0  0  0  0  0  0  0  0  0  0  0  0
    8.9434   -3.9652    0.1242 C   0  0  0  0  0  0  0  0  0  0  0  0
    9.8035   -4.8590    0.7919 C   0  0  0  0  0  0  0  0  0  0  0  0
   10.5790   -5.8784    0.0050 C   0  0  0  0  0  0  0  0  0  0  0  0
    9.9148   -4.8220    2.2041 C   0  0  0  0  0  0  0  0  0  0  0  0
   10.7513   -5.7546    2.8401 O   0  0  0  0  0  0  0  0  0  0  0  0
   10.9568   -5.8277    4.2494 C   0  0  0  0  0  0  0  0  0  0  0  0
    9.1876   -3.8588    2.9350 C   0  0  0  0  0  0  0  0  0  0  0  0
    4.2981    0.8936   11.6376 H   0  0  0  0  0  0  0  0  0  0  0  0
    3.3022    2.5565    9.9046 H   0  0  0  0  0  0  0  0  0  0  0  0
    3.6391    2.5281    7.2691 H   0  0  0  0  0  0  0  0  0  0  0  0
    4.1240    4.7782    6.3942 H   0  0  0  0  0  0  0  0  0  0  0  0
    1.1517    7.2398    3.9176 H   0  0  0  0  0  0  0  0  0  0  0  0
    1.7751    5.5695    4.1489 H   0  0  0  0  0  0  0  0  0  0  0  0
    4.1000    6.3781    3.6347 H   0  0  0  0  0  0  0  0  0  0  0  0
    3.4414    8.0406    3.3439 H   0  0  0  0  0  0  0  0  0  0  0  0
    2.9510    6.6732    2.2707 H   0  0  0  0  0  0  0  0  0  0  0  0
   -0.4526    3.6934    7.9723 H   0  0  0  0  0  0  0  0  0  0  0  0
    1.1764   -3.4436    7.3855 H   0  0  0  0  0  0  0  0  0  0  0  0
    0.7790   -5.7697    8.1012 H   0  0  0  0  0  0  0  0  0  0  0  0
    2.2850   -6.8022   10.3003 H   0  0  0  0  0  0  0  0  0  0  0  0
    1.7662   -8.3307   11.0838 H   0  0  0  0  0  0  0  0  0  0  0  0
    1.2835   -7.1238   13.2086 H   0  0  0  0  0  0  0  0  0  0  0  0
    1.7809   -5.5594   12.4471 H   0  0  0  0  0  0  0  0  0  0  0  0
    2.9888   -6.8682   12.6763 H   0  0  0  0  0  0  0  0  0  0  0  0
   -0.1670   -2.0401   11.2345 H   0  0  0  0  0  0  0  0  0  0  0  0
   -1.2482   -2.1880    7.1019 H   0  0  0  0  0  0  0  0  0  0  0  0
   -3.7982    1.1433    5.1980 H   0  0  0  0  0  0  0  0  0  0  0  0
   -6.4207    0.5528    5.3227 H   0  0  0  0  0  0  0  0  0  0  0  0
   -7.5279    2.4800    6.3641 H   0  0  0  0  0  0  0  0  0  0  0  0
   -9.8434    3.9761    4.1429 H   0  0  0  0  0  0  0  0  0  0  0  0
  -10.3979    5.5688    4.7635 H   0  0  0  0  0  0  0  0  0  0  0  0
   -9.8890    3.0818    6.5085 H   0  0  0  0  0  0  0  0  0  0  0  0
  -10.4795    4.6942    7.0856 H   0  0  0  0  0  0  0  0  0  0  0  0
  -11.5020    3.6965    5.9806 H   0  0  0  0  0  0  0  0  0  0  0  0
   -5.6809    2.9051    1.7823 H   0  0  0  0  0  0  0  0  0  0  0  0
   -2.4869   -1.8516   -0.5346 H   0  0  0  0  0  0  0  0  0  0  0  0
   -1.0998   -3.6571   -1.4639 H   0  0  0  0  0  0  0  0  0  0  0  0
   -2.6946   -7.3207   -0.9297 H   0  0  0  0  0  0  0  0  0  0  0  0
   -1.3693   -8.2493   -1.7103 H   0  0  0  0  0  0  0  0  0  0  0  0
   -2.5395   -5.5717   -2.6827 H   0  0  0  0  0  0  0  0  0  0  0  0
   -2.6585   -7.1901   -3.4614 H   0  0  0  0  0  0  0  0  0  0  0  0
   -1.0633   -6.3560   -3.3802 H   0  0  0  0  0  0  0  0  0  0  0  0
   -3.7050   -4.4497    2.6861 H   0  0  0  0  0  0  0  0  0  0  0  0
   -4.9774   -2.2680   -0.8928 H   0  0  0  0  0  0  0  0  0  0  0  0
   -6.4720    1.9252   -2.1080 H   0  0  0  0  0  0  0  0  0  0  0  0
   -7.2052    4.1223   -5.1135 H   0  0  0  0  0  0  0  0  0  0  0  0
   -7.4757    6.3138   -4.0174 H   0  0  0  0  0  0  0  0  0  0  0  0
   -3.9994    8.0130   -3.3660 H   0  0  0  0  0  0  0  0  0  0  0  0
   -4.5515    9.5253   -2.5648 H   0  0  0  0  0  0  0  0  0  0  0  0
   -5.9001    8.1202   -4.9524 H   0  0  0  0  0  0  0  0  0  0  0  0
   -5.0420    9.7041   -4.9477 H   0  0  0  0  0  0  0  0  0  0  0  0
   -6.6044    9.5315   -4.0592 H   0  0  0  0  0  0  0  0  0  0  0  0
   -3.7043    3.3576   -2.7170 H   0  0  0  0  0  0  0  0  0  0  0  0
   -2.9201   -2.0610   -4.7479 H   0  0  0  0  0  0  0  0  0  0  0  0
   -2.2080   -4.1921   -5.7603 H   0  0  0  0  0  0  0  0  0  0  0  0
   -4.3589   -7.6046   -8.0629 H   0  0  0  0  0  0  0  0  0  0  0  0
   -5.3090   -6.1860   -7.4941 H   0  0  0  0  0  0  0  0  0  0  0  0
   -4.6991   -7.7842   -5.6364 H   0  0  0  0  0  0  0  0  0  0  0  0
   -2.9490   -7.4926   -5.9747 H   0  0  0  0  0  0  0  0  0  0  0  0
   -4.0021   -6.1453   -5.3740 H   0  0  0  0  0  0  0  0  0  0  0  0
   -5.8198   -1.5383   -7.8940 H   0  0  0  0  0  0  0  0  0  0  0  0
   -2.5769   -0.1084   -7.4601 H   0  0  0  0  0  0  0  0  0  0  0  0
   -0.4731    3.4254   -5.5427 H   0  0  0  0  0  0  0  0  0  0  0  0
   -0.0751    2.4575   -3.2425 H   0  0  0  0  0  0  0  0  0  0  0  0
   -0.4743    4.1641   -1.5135 H   0  0  0  0  0  0  0  0  0  0  0  0
    0.8498    7.7311   -2.7537 H   0  0  0  0  0  0  0  0  0  0  0  0
    0.3646    8.7049   -1.3278 H   0  0  0  0  0  0  0  0  0  0  0  0
   -1.6283    8.1916   -2.6461 H   0  0  0  0  0  0  0  0  0  0  0  0
   -1.2724    6.4303   -2.6088 H   0  0  0  0  0  0  0  0  0  0  0  0
   -1.7177    7.2960   -1.0853 H   0  0  0  0  0  0  0  0  0  0  0  0
    3.6406    4.3896   -4.2797 H   0  0  0  0  0  0  0  0  0  0  0  0
    4.7236   -0.0659   -8.4716 H   0  0  0  0  0  0  0  0  0  0  0  0
    5.1647   -1.8731  -10.0858 H   0  0  0  0  0  0  0  0  0  0  0  0
    2.4543   -4.2826  -12.9508 H   0  0  0  0  0  0  0  0  0  0  0  0
    1.7935   -3.0023  -11.8725 H   0  0  0  0  0  0  0  0  0  0  0  0
    3.8117   -1.5881  -12.3055 H   0  0  0  0  0  0  0  0  0  0  0  0
    4.5354   -2.9111  -13.3141 H   0  0  0  0  0  0  0  0  0  0  0  0
    3.0299   -2.0694  -13.8588 H   0  0  0  0  0  0  0  0  0  0  0  0
    0.9951   -1.9446   -7.3960 H   0  0  0  0  0  0  0  0  0  0  0  0
    4.7221   -1.3514   -5.8674 H   0  0  0  0  0  0  0  0  0  0  0  0
    4.1633   -3.0084   -4.5713 H   0  0  0  0  0  0  0  0  0  0  0  0
    4.4653   -6.5766   -4.5317 H   0  0  0  0  0  0  0  0  0  0  0  0
    3.5807   -5.1870   -5.2418 H   0  0  0  0  0  0  0  0  0  0  0  0
    2.9536   -5.9651   -3.7403 H   0  0  0  0  0  0  0  0  0  0  0  0
    5.4489   -6.8483    0.0879 H   0  0  0  0  0  0  0  0  0  0  0  0
    6.9619   -7.0760   -0.9003 H   0  0  0  0  0  0  0  0  0  0  0  0
    5.6647   -8.3292   -0.9149 H   0  0  0  0  0  0  0  0  0  0  0  0
    6.4566   -4.6983   -0.5091 H   0  0  0  0  0  0  0  0  0  0  0  0
    7.5278   -1.7722    3.9263 H   0  0  0  0  0  0  0  0  0  0  0  0
    8.8615   -3.9919   -0.9554 H   0  0  0  0  0  0  0  0  0  0  0  0
   10.5006   -5.6950   -1.0878 H   0  0  0  0  0  0  0  0  0  0  0  0
   10.1846   -6.8919    0.2210 H   0  0  0  0  0  0  0  0  0  0  0  0
   11.6547   -5.8396    0.2843 H   0  0  0  0  0  0  0  0  0  0  0  0
   11.6468   -6.6665    4.4746 H   0  0  0  0  0  0  0  0  0  0  0  0
    9.9935   -6.0150    4.7673 H   0  0  0  0  0  0  0  0  0  0  0  0
   11.4141   -4.8855    4.6141 H   0  0  0  0  0  0  0  0  0  0  0  0
    9.2680   -3.7914    4.0134 H   0  0  0  0  0  0  0  0  0  0  0  0
  1  2  2  0
  2  3  1  0
  3  4  2  0
  4  5  1  0
  5  6  2  0
  6  7  1  0
  7  8  2  0
  8  9  1  0
  9 10  1  0
 10 11  1  0
  8 12  1  0
 12 13  1  0
 12 14  2  0
  4 15  1  0
 15 16  2  0
 16 17  1  0
 17 18  1  0
 18 19  2  0
 19 20  1  0
 20 21  2  0
 21 22  1  0
 22 23  1  0
 23 24  1  0
 21 25  1  0
 25 26  2  0
 25 27  1  0
 17 28  2  0
 28 29  1  0
 16 30  1  0
 30 31  2  0
 31 32  1  0
 31 33  1  0
 33 34  2  0
 34 35  1  0
 35 36  2  0
 36 37  1  0
 37 38  2  0
 38 39  1  0
 39 40  2  0
 40 41  1  0
 41 42  1  0
 42 43  1  0
 40 44  1  0
 44 45  1  0
 44 46  2  0
 36 47  1  0
 47 48  2  0
 48 49  1  0
 49 50  1  0
 50 51  2  0
 51 52  1  0
 52 53  2  0
 53 54  1  0
 54 55  1  0
 55 56  1  0
 53 57  1  0
 57 58  2  0
 57 59  1  0
 49 60  2  0
 60 61  1  0
 48 62  1  0
 62 63  2  0
 63 64  1  0
 63 65  1  0
 65 66  2  0
 66 67  1  0
 67 68  2  0
 68 69  1  0
 69 70  2  0
 70 71  1  0
 71 72  2  0
 72 73  1  0
 73 74  1  0
 74 75  1  0
 72 76  1  0
 76 77  1  0
 76 78  2  0
 68 79  1  0
 79 80  2  0
 80 81  1  0
 81 82  1  0
 82 83  2  0
 83 84  1  0
 84 85  2  0
 85 86  1  0
 86 87  1  0
 87 88  1  0
 85 89  1  0
 89 90  2  0
 89 91  1  0
 81 92  2  0
 92 93  1  0
 80 94  1  0
 94 95  2  0
 95 96  1  0
 95 97  1  0
 97 98  2  0
 98 99  1  0
 99100  2  0
100101  1  0
101102  2  0
102103  1  0
103104  2  0
104105  1  0
105106  1  0
106107  1  0
104108  1  0
108109  1  0
108110  2  0
100111  1  0
111112  2  0
112113  1  0
113114  1  0
114115  2  0
115116  1  0
116117  2  0
117118  1  0
118119  1  0
119120  1  0
117121  1  0
121122  2  0
121123  1  0
113124  2  0
124125  1  0
112126  1  0
126127  2  0
127128  1  0
127129  1  0
129130  1  0
130131  1  0
131132  2  0
132133  1  0
133134  1  0
134135  2  0
135136  1  0
135137  1  0
137138  1  0
138139  1  0
137140  2  0
131141  1  0
141142  1  0
142143  1  0
143144  2  0
144145  1  0
145146  1  0
146147  2  0
147148  1  0
147149  1  0
149150  1  0
150151  1  0
149152  2  0
 29  1  1  0
 61 33  1  0
 93 65  1  0
125 97  1  0
133129  2  0
145141  2  0
 28  3  1  0
 60 35  1  0
 92 67  1  0
124 99  1  0
140132  1  0
152144  1  0
 14  5  1  0
 32 15  1  0
 46 37  1  0
 64 47  1  0
 78 69  1  0
 96 79  1  0
110101  1  0
128111  1  0
 26 18  1  0
 58 50  1  0
 90 82  1  0
122114  1  0
  1153  1  0
  2154  1  0
  6155  1  0
  7156  1  0
 10157  1  0
 10158  1  0
 11159  1  0
 11160  1  0
 11161  1  0
 14162  1  0
 19163  1  0
 20164  1  0
 23165  1  0
 23166  1  0
 24167  1  0
 24168  1  0
 24169  1  0
 26170  1  0
 30171  1  0
 34172  1  0
 38173  1  0
 39174  1  0
 42175  1  0
 42176  1  0
 43177  1  0
 43178  1  0
 43179  1  0
 46180  1  0
 51181  1  0
 52182  1  0
 55183  1  0
 55184  1  0
 56185  1  0
 56186  1  0
 56187  1  0
 58188  1  0
 62189  1  0
 66190  1  0
 70191  1  0
 71192  1  0
 74193  1  0
 74194  1  0
 75195  1  0
 75196  1  0
 75197  1  0
 78198  1  0
 83199  1  0
 84200  1  0
 87201  1  0
 87202  1  0
 88203  1  0
 88204  1  0
 88205  1  0
 90206  1  0
 94207  1  0
 98208  1  0
102209  1  0
103210  1  0
106211  1  0
106212  1  0
107213  1  0
107214  1  0
107215  1  0
110216  1  0
115217  1  0
116218  1  0
119219  1  0
119220  1  0
120221  1  0
120222  1  0
120223  1  0
122224  1  0
126225  1  0
134226  1  0
136227  1  0
136228  1  0
136229  1  0
139230  1  0
139231  1  0
139232  1  0
140233  1  0
143234  1  0
146235  1  0
148236  1  0
148237  1  0
148238  1  0
151239  1  0
151240  1  0
151241  1  0
152242  1  0
M  END

