
     RDKit          3D

 90 97  0  0  0  0  0  0  0  0999 V2000
    4.1336    2.1766    8.2001 C   0  0  0  0  0  0  0  0  0  0  0  0
    3.9435    1.0664    7.5205 O   0  0  0  0  0  0  0  0  0  0  0  0
    3.0903    1.3007    6.5492 C   0  0  0  0  0  0  0  0  0  0  0  0
    2.6658    2.6236    6.6000 C   0  0  0  0  0  0  0  0  0  0  0  0
    3.3632    3.1827    7.6567 C   0  0  0  0  0  0  0  0  0  0  0  0
    3.3747    4.5133    8.1034 O   0  0  0  0  0  0  0  0  0  0  0  0
    2.2844    5.4046    7.8886 C   0  0  0  0  0  0  0  0  0  0  0  0
    1.8306    3.2964    5.6260 C   0  0  0  0  0  0  0  0  0  0  0  0
    1.1940    3.8381    4.8268 N   0  0  0  0  0  0  0  0  0  0  0  0
    2.6982    0.2913    5.5510 C   0  0  0  0  0  0  0  0  0  0  0  0
    1.7520    0.4638    4.6617 O   0  0  0  0  0  0  0  0  0  0  0  0
    1.6611   -0.6195    3.9243 C   0  0  0  0  0  0  0  0  0  0  0  0
    2.6111   -1.5368    4.3348 C   0  0  0  0  0  0  0  0  0  0  0  0
    3.2786   -0.9520    5.3871 C   0  0  0  0  0  0  0  0  0  0  0  0
    4.3083   -1.4773    6.1665 O   0  0  0  0  0  0  0  0  0  0  0  0
    5.4325   -2.1618    5.5962 C   0  0  0  0  0  0  0  0  0  0  0  0
    2.8036   -2.8634    3.7988 C   0  0  0  0  0  0  0  0  0  0  0  0
    2.9621   -3.9212    3.3508 N   0  0  0  0  0  0  0  0  0  0  0  0
    0.6302   -0.8359    2.8966 C   0  0  0  0  0  0  0  0  0  0  0  0
    0.3645    0.1548    1.5762 S   0  0  0  0  0  0  0  0  0  0  0  0
   -0.8749   -0.7272    0.8200 C   0  0  0  0  0  0  0  0  0  0  0  0
   -1.0744   -1.8878    1.6398 C   0  0  0  0  0  0  0  0  0  0  0  0
   -0.2592   -1.9164    2.8013 C   0  0  0  0  0  0  0  0  0  0  0  0
   -0.3415   -2.9663    3.7162 C   0  0  0  0  0  0  0  0  0  0  0  0
   -1.1942   -4.0462    3.4532 C   0  0  0  0  0  0  0  0  0  0  0  0
   -1.3289   -5.1429    4.4651 C   0  0  0  0  0  0  0  0  0  0  0  0
   -1.9541   -4.0833    2.2708 C   0  0  0  0  0  0  0  0  0  0  0  0
   -2.7288   -5.2169    2.0005 O   0  0  0  0  0  0  0  0  0  0  0  0
   -3.4399   -5.4612    0.7869 C   0  0  0  0  0  0  0  0  0  0  0  0
   -1.9086   -2.9924    1.3775 C   0  0  0  0  0  0  0  0  0  0  0  0
   -1.4473   -0.3900   -0.5371 C   0  0  0  0  0  0  0  0  0  0  0  0
   -2.4158   -1.4053   -1.4666 S   0  0  0  0  0  0  0  0  0  0  0  0
   -2.4833   -0.5416   -2.8799 C   0  0  0  0  0  0  0  0  0  0  0  0
   -1.7044    0.5879   -2.6900 C   0  0  0  0  0  0  0  0  0  0  0  0
   -1.1939    0.7253   -1.3757 C   0  0  0  0  0  0  0  0  0  0  0  0
   -0.5121    1.9005   -1.0283 C   0  0  0  0  0  0  0  0  0  0  0  0
   -0.2708    2.8896   -2.0101 C   0  0  0  0  0  0  0  0  0  0  0  0
    0.3837    4.1684   -1.5894 C   0  0  0  0  0  0  0  0  0  0  0  0
   -0.6793    2.6710   -3.3466 C   0  0  0  0  0  0  0  0  0  0  0  0
   -0.3594    3.5581   -4.3816 O   0  0  0  0  0  0  0  0  0  0  0  0
    0.9807    3.9742   -4.6702 C   0  0  0  0  0  0  0  0  0  0  0  0
   -1.4411    1.5457   -3.6758 C   0  0  0  0  0  0  0  0  0  0  0  0
   -2.9655   -1.0806   -4.1498 C   0  0  0  0  0  0  0  0  0  0  0  0
   -2.1690   -1.3801   -5.1550 O   0  0  0  0  0  0  0  0  0  0  0  0
   -2.8832   -1.9403   -6.1098 C   0  0  0  0  0  0  0  0  0  0  0  0
   -4.2120   -2.0194   -5.7151 C   0  0  0  0  0  0  0  0  0  0  0  0
   -4.2609   -1.4671   -4.4548 C   0  0  0  0  0  0  0  0  0  0  0  0
   -5.4046   -1.3317   -3.6788 O   0  0  0  0  0  0  0  0  0  0  0  0
   -5.6938   -0.1199   -2.9767 C   0  0  0  0  0  0  0  0  0  0  0  0
   -5.2881   -2.6610   -6.4158 C   0  0  0  0  0  0  0  0  0  0  0  0
   -6.1704   -3.1835   -6.9648 N   0  0  0  0  0  0  0  0  0  0  0  0
   -2.2940   -2.3964   -7.3784 C   0  0  0  0  0  0  0  0  0  0  0  0
   -2.9522   -2.4687   -8.5231 O   0  0  0  0  0  0  0  0  0  0  0  0
   -2.1076   -2.8411   -9.4738 C   0  0  0  0  0  0  0  0  0  0  0  0
   -0.8535   -3.0056   -8.9235 C   0  0  0  0  0  0  0  0  0  0  0  0
   -0.9725   -2.7349   -7.5670 C   0  0  0  0  0  0  0  0  0  0  0  0
    0.0022   -2.7974   -6.5633 O   0  0  0  0  0  0  0  0  0  0  0  0
    1.4019   -2.6669   -6.8026 C   0  0  0  0  0  0  0  0  0  0  0  0
    0.3356   -3.2868   -9.6751 C   0  0  0  0  0  0  0  0  0  0  0  0
    1.3000   -3.5097  -10.2718 N   0  0  0  0  0  0  0  0  0  0  0  0
    4.7941    2.2722    9.0579 H   0  0  0  0  0  0  0  0  0  0  0  0
    1.3279    4.9229    8.1775 H   0  0  0  0  0  0  0  0  0  0  0  0
    2.2355    5.7065    6.8319 H   0  0  0  0  0  0  0  0  0  0  0  0
    2.4353    6.3052    8.5306 H   0  0  0  0  0  0  0  0  0  0  0  0
    6.1071   -2.4694    6.4219 H   0  0  0  0  0  0  0  0  0  0  0  0
    5.0954   -3.0792    5.0546 H   0  0  0  0  0  0  0  0  0  0  0  0
    5.9926   -1.4797    4.8984 H   0  0  0  0  0  0  0  0  0  0  0  0
    0.2270   -2.9396    4.6380 H   0  0  0  0  0  0  0  0  0  0  0  0
   -0.5878   -5.0552    5.2864 H   0  0  0  0  0  0  0  0  0  0  0  0
   -1.1908   -6.1317    3.9706 H   0  0  0  0  0  0  0  0  0  0  0  0
   -2.3434   -5.0796    4.9400 H   0  0  0  0  0  0  0  0  0  0  0  0
   -3.9029   -6.4674    0.8533 H   0  0  0  0  0  0  0  0  0  0  0  0
   -4.2414   -4.7252    0.6398 H   0  0  0  0  0  0  0  0  0  0  0  0
   -2.7585   -5.4810   -0.0766 H   0  0  0  0  0  0  0  0  0  0  0  0
   -2.5380   -3.0346    0.5147 H   0  0  0  0  0  0  0  0  0  0  0  0
   -0.2280    2.1030   -0.0108 H   0  0  0  0  0  0  0  0  0  0  0  0
   -0.0086    5.0388   -2.1852 H   0  0  0  0  0  0  0  0  0  0  0  0
    1.4813    4.0982   -1.7408 H   0  0  0  0  0  0  0  0  0  0  0  0
    0.1881    4.3781   -0.5123 H   0  0  0  0  0  0  0  0  0  0  0  0
    1.1999    3.7269   -5.7347 H   0  0  0  0  0  0  0  0  0  0  0  0
    1.0731    5.0826   -4.5250 H   0  0  0  0  0  0  0  0  0  0  0  0
    1.7036    3.4292   -4.0195 H   0  0  0  0  0  0  0  0  0  0  0  0
   -1.8254    1.4180   -4.6774 H   0  0  0  0  0  0  0  0  0  0  0  0
   -5.6166    0.7511   -3.6648 H   0  0  0  0  0  0  0  0  0  0  0  0
   -4.9724    0.0357   -2.1374 H   0  0  0  0  0  0  0  0  0  0  0  0
   -6.7251   -0.1681   -2.5675 H   0  0  0  0  0  0  0  0  0  0  0  0
   -2.3679   -2.9529  -10.5165 H   0  0  0  0  0  0  0  0  0  0  0  0
    1.7577   -3.4896   -7.4545 H   0  0  0  0  0  0  0  0  0  0  0  0
    1.6079   -1.6856   -7.2963 H   0  0  0  0  0  0  0  0  0  0  0  0
    1.9396   -2.7210   -5.8433 H   0  0  0  0  0  0  0  0  0  0  0  0
  1  2  1  0
  2  3  1  0
  3  4  2  0
  4  5  1  0
  5  6  1  0
  6  7  1  0
  4  8  1  0
  8  9  3  0
  3 10  1  0
 10 11  1  0
 11 12  1  0
 12 13  2  0
 13 14  1  0
 14 15  1  0
 15 16  1  0
 13 17  1  0
 17 18  3  0
 12 19  1  0
 19 20  1  0
 20 21  1  0
 21 22  2  0
 22 23  1  0
 23 24  1  0
 24 25  2  0
 25 26  1  0
 25 27  1  0
 27 28  1  0
 28 29  1  0
 27 30  2  0
 21 31  1  0
 31 32  1  0
 32 33  1  0
 33 34  2  0
 34 35  1  0
 35 36  1  0
 36 37  2  0
 37 38  1  0
 37 39  1  0
 39 40  1  0
 40 41  1  0
 39 42  2  0
 33 43  1  0
 43 44  1  0
 44 45  1  0
 45 46  2  0
 46 47  1  0
 47 48  1  0
 48 49  1  0
 46 50  1  0
 50 51  3  0
 45 52  1  0
 52 53  1  0
 53 54  1  0
 54 55  2  0
 55 56  1  0
 56 57  1  0
 57 58  1  0
 55 59  1  0
 59 60  3  0
  5  1  2  0
 14 10  2  0
 23 19  2  0
 35 31  2  0
 47 43  2  0
 56 52  2  0
 30 22  1  0
 42 34  1  0
  1 61  1  0
  7 62  1  0
  7 63  1  0
  7 64  1  0
 16 65  1  0
 16 66  1  0
 16 67  1  0
 24 68  1  0
 26 69  1  0
 26 70  1  0
 26 71  1  0
 29 72  1  0
 29 73  1  0
 29 74  1  0
 30 75  1  0
 36 76  1  0
 38 77  1  0
 38 78  1  0
 38 79  1  0
 41 80  1  0
 41 81  1  0
 41 82  1  0
 42 83  1  0
 49 84  1  0
 49 85  1  0
 49 86  1  0
 54 87  1  0
 58 88  1  0
 58 89  1  0
 58 90  1  0
M  END

