
     RDKit          3D

232258  0  0  0  0  0  0  0  0999 V2000
    3.1612   -9.0358   10.8347 C   0  0  0  0  0  0  0  0  0  0  0  0
    3.8222   -7.8188   10.9854 C   0  0  0  0  0  0  0  0  0  0  0  0
    3.4029   -6.8459   10.0649 C   0  0  0  0  0  0  0  0  0  0  0  0
    3.8897   -5.5263    9.9594 C   0  0  0  0  0  0  0  0  0  0  0  0
    4.9802   -5.0238   10.8137 C   0  0  0  0  0  0  0  0  0  0  0  0
    4.8342   -3.7759   11.9329 S   0  0  0  0  0  0  0  0  0  0  0  0
    6.4360   -3.8111   12.4500 C   0  0  0  0  0  0  0  0  0  0  0  0
    7.0223   -2.8736   13.4613 C   0  0  0  0  0  0  0  0  0  0  0  0
    7.4929   -1.5827   12.8017 C   0  0  0  0  0  0  0  0  0  0  0  0
    7.1190   -4.7864   11.7218 C   0  0  0  0  0  0  0  0  0  0  0  0
    8.8377   -5.1066   11.9016 Cl  0  0  0  0  0  0  0  0  0  0  0  0
    6.3004   -5.4717   10.8110 C   0  0  0  0  0  0  0  0  0  0  0  0
    6.8996   -6.7158    9.7214 Cl  0  0  0  0  0  0  0  0  0  0  0  0
    3.3032   -4.7114    8.9776 C   0  0  0  0  0  0  0  0  0  0  0  0
    2.3044   -5.1765    8.1166 C   0  0  0  0  0  0  0  0  0  0  0  0
    1.8288   -6.4972    8.2111 C   0  0  0  0  0  0  0  0  0  0  0  0
    0.7893   -7.0074    7.3030 C   0  0  0  0  0  0  0  0  0  0  0  0
    0.9903   -7.2314    5.6465 S   0  0  0  0  0  0  0  0  0  0  0  0
   -0.6136   -7.6204    5.3190 C   0  0  0  0  0  0  0  0  0  0  0  0
   -1.1624   -7.8730    3.9468 C   0  0  0  0  0  0  0  0  0  0  0  0
   -1.2804   -6.5718    3.1612 C   0  0  0  0  0  0  0  0  0  0  0  0
   -1.3374   -7.5577    6.5112 C   0  0  0  0  0  0  0  0  0  0  0  0
   -0.5488   -7.2177    7.6222 C   0  0  0  0  0  0  0  0  0  0  0  0
   -1.1986   -7.0060    9.2437 Cl  0  0  0  0  0  0  0  0  0  0  0  0
   -3.0740   -7.8172    6.6104 Cl  0  0  0  0  0  0  0  0  0  0  0  0
    2.3963   -7.3045    9.2085 C   0  0  0  0  0  0  0  0  0  0  0  0
    2.0492   -8.9076    9.5714 S   0  0  0  0  0  0  0  0  0  0  0  0
    1.8745   -4.2106    7.1984 C   0  0  0  0  0  0  0  0  0  0  0  0
    2.5458   -2.9991    7.3270 C   0  0  0  0  0  0  0  0  0  0  0  0
    3.6686   -3.1118    8.5851 S   0  0  0  0  0  0  0  0  0  0  0  0
    2.3431   -1.8385    6.4555 C   0  0  0  0  0  0  0  0  0  0  0  0
    2.9477   -0.5883    6.5841 C   0  0  0  0  0  0  0  0  0  0  0  0
    2.5843    0.2981    5.5549 C   0  0  0  0  0  0  0  0  0  0  0  0
    3.0049    1.6379    5.4123 C   0  0  0  0  0  0  0  0  0  0  0  0
    3.8086    2.3154    6.4443 C   0  0  0  0  0  0  0  0  0  0  0  0
    5.3633    2.9248    6.2241 S   0  0  0  0  0  0  0  0  0  0  0  0
    5.5483    3.5034    7.7957 C   0  0  0  0  0  0  0  0  0  0  0  0
    6.7974    4.1348    8.3313 C   0  0  0  0  0  0  0  0  0  0  0  0
    7.6363    3.1145    9.0926 C   0  0  0  0  0  0  0  0  0  0  0  0
    4.3913    3.2173    8.5194 C   0  0  0  0  0  0  0  0  0  0  0  0
    4.1720    3.6377   10.2131 Cl  0  0  0  0  0  0  0  0  0  0  0  0
    3.4150    2.5563    7.7607 C   0  0  0  0  0  0  0  0  0  0  0  0
    1.8340    2.1149    8.3979 Cl  0  0  0  0  0  0  0  0  0  0  0  0
    2.5763    2.3193    4.2590 C   0  0  0  0  0  0  0  0  0  0  0  0
    1.7372    1.7256    3.3078 C   0  0  0  0  0  0  0  0  0  0  0  0
    1.2523    0.4172    3.4899 C   0  0  0  0  0  0  0  0  0  0  0  0
    0.2638   -0.1960    2.5781 C   0  0  0  0  0  0  0  0  0  0  0  0
    0.4744   -1.6592    1.7719 S   0  0  0  0  0  0  0  0  0  0  0  0
   -1.0678   -1.7340    1.1109 C   0  0  0  0  0  0  0  0  0  0  0  0
   -1.5551   -2.8308    0.2135 C   0  0  0  0  0  0  0  0  0  0  0  0
   -1.3972   -2.4388   -1.2489 C   0  0  0  0  0  0  0  0  0  0  0  0
   -1.7769   -0.6015    1.5099 C   0  0  0  0  0  0  0  0  0  0  0  0
   -1.0355    0.2533    2.3425 C   0  0  0  0  0  0  0  0  0  0  0  0
   -1.7199    1.6940    3.0885 Cl  0  0  0  0  0  0  0  0  0  0  0  0
   -3.4439   -0.2882    1.0453 Cl  0  0  0  0  0  0  0  0  0  0  0  0
    1.7231   -0.2764    4.6146 C   0  0  0  0  0  0  0  0  0  0  0  0
    1.3726   -1.8500    5.0775 S   0  0  0  0  0  0  0  0  0  0  0  0
    1.4438    2.5681    2.2296 C   0  0  0  0  0  0  0  0  0  0  0  0
    2.0222    3.8259    2.3580 C   0  0  0  0  0  0  0  0  0  0  0  0
    2.8960    3.9133    3.7994 S   0  0  0  0  0  0  0  0  0  0  0  0
    1.7494    4.9275    1.4403 C   0  0  0  0  0  0  0  0  0  0  0  0
    0.6637    5.7826    1.6102 C   0  0  0  0  0  0  0  0  0  0  0  0
    0.1688    6.2957    0.3996 C   0  0  0  0  0  0  0  0  0  0  0  0
   -1.0380    7.0034    0.2403 C   0  0  0  0  0  0  0  0  0  0  0  0
   -1.8860    7.3462    1.3898 C   0  0  0  0  0  0  0  0  0  0  0  0
   -1.9722    8.8699    2.0915 S   0  0  0  0  0  0  0  0  0  0  0  0
   -3.1172    8.4594    3.2564 C   0  0  0  0  0  0  0  0  0  0  0  0
   -3.7145    9.4252    4.2332 C   0  0  0  0  0  0  0  0  0  0  0  0
   -4.8482   10.2121    3.5865 C   0  0  0  0  0  0  0  0  0  0  0  0
   -3.4669    7.1185    3.0877 C   0  0  0  0  0  0  0  0  0  0  0  0
   -4.6722    6.2954    4.0684 Cl  0  0  0  0  0  0  0  0  0  0  0  0
   -2.7715    6.4939    2.0429 C   0  0  0  0  0  0  0  0  0  0  0  0
   -3.0121    4.8120    1.5843 Cl  0  0  0  0  0  0  0  0  0  0  0  0
   -1.5086    7.1805   -1.0698 C   0  0  0  0  0  0  0  0  0  0  0  0
   -0.8047    6.7262   -2.1874 C   0  0  0  0  0  0  0  0  0  0  0  0
    0.4489    6.0902   -2.0401 C   0  0  0  0  0  0  0  0  0  0  0  0
    1.1696    5.5202   -3.2019 C   0  0  0  0  0  0  0  0  0  0  0  0
    1.5770    3.8953   -3.3937 S   0  0  0  0  0  0  0  0  0  0  0  0
    2.2524    4.0491   -4.9251 C   0  0  0  0  0  0  0  0  0  0  0  0
    2.9018    2.9332   -5.6883 C   0  0  0  0  0  0  0  0  0  0  0  0
    4.4202    2.9860   -5.5420 C   0  0  0  0  0  0  0  0  0  0  0  0
    2.1707    5.3863   -5.3123 C   0  0  0  0  0  0  0  0  0  0  0  0
    1.5609    6.2083   -4.3508 C   0  0  0  0  0  0  0  0  0  0  0  0
    1.3665    7.9443   -4.5609 Cl  0  0  0  0  0  0  0  0  0  0  0  0
    2.7660    5.9867   -6.8538 Cl  0  0  0  0  0  0  0  0  0  0  0  0
    0.8892    5.8646   -0.7209 C   0  0  0  0  0  0  0  0  0  0  0  0
    2.1105    4.8324   -0.2027 S   0  0  0  0  0  0  0  0  0  0  0  0
   -1.5814    6.7184   -3.3569 C   0  0  0  0  0  0  0  0  0  0  0  0
   -2.9104    7.1023   -3.1548 C   0  0  0  0  0  0  0  0  0  0  0  0
   -3.0843    7.5391   -1.5303 S   0  0  0  0  0  0  0  0  0  0  0  0
   -4.0043    6.4876   -3.9266 C   0  0  0  0  0  0  0  0  0  0  0  0
   -3.8459    6.0304   -5.2384 C   0  0  0  0  0  0  0  0  0  0  0  0
   -4.5591    4.8485   -5.5111 C   0  0  0  0  0  0  0  0  0  0  0  0
   -4.3763    4.0323   -6.6475 C   0  0  0  0  0  0  0  0  0  0  0  0
   -3.5897    4.5014   -7.8105 C   0  0  0  0  0  0  0  0  0  0  0  0
   -2.1883    3.7754   -8.4008 S   0  0  0  0  0  0  0  0  0  0  0  0
   -1.9061    4.8895   -9.6289 C   0  0  0  0  0  0  0  0  0  0  0  0
   -0.8056    4.7773  -10.6400 C   0  0  0  0  0  0  0  0  0  0  0  0
   -1.2766    3.9986  -11.8624 C   0  0  0  0  0  0  0  0  0  0  0  0
   -2.9222    5.8439   -9.6055 C   0  0  0  0  0  0  0  0  0  0  0  0
   -3.0309    7.1695  -10.7543 Cl  0  0  0  0  0  0  0  0  0  0  0  0
   -3.8578    5.6336   -8.5803 C   0  0  0  0  0  0  0  0  0  0  0  0
   -5.2608    6.6683   -8.3323 Cl  0  0  0  0  0  0  0  0  0  0  0  0
   -4.8399    2.7063   -6.5506 C   0  0  0  0  0  0  0  0  0  0  0  0
   -5.5041    2.2229   -5.4188 C   0  0  0  0  0  0  0  0  0  0  0  0
   -5.8122    3.0815   -4.3431 C   0  0  0  0  0  0  0  0  0  0  0  0
   -6.4549    2.5696   -3.1123 C   0  0  0  0  0  0  0  0  0  0  0  0
   -5.7620    2.5765   -1.5749 S   0  0  0  0  0  0  0  0  0  0  0  0
   -7.0288    1.7915   -0.7951 C   0  0  0  0  0  0  0  0  0  0  0  0
   -7.0923    1.5483    0.6830 C   0  0  0  0  0  0  0  0  0  0  0  0
   -7.6441    2.7705    1.4076 C   0  0  0  0  0  0  0  0  0  0  0  0
   -8.0266    1.5180   -1.7319 C   0  0  0  0  0  0  0  0  0  0  0  0
   -7.6998    1.9408   -3.0311 C   0  0  0  0  0  0  0  0  0  0  0  0
   -8.7774    1.7375   -4.4072 Cl  0  0  0  0  0  0  0  0  0  0  0  0
   -9.5443    0.7330   -1.3267 Cl  0  0  0  0  0  0  0  0  0  0  0  0
   -5.3026    4.3910   -4.4184 C   0  0  0  0  0  0  0  0  0  0  0  0
   -5.1104    5.4736   -3.1537 S   0  0  0  0  0  0  0  0  0  0  0  0
   -5.5894    0.8211   -5.3849 C   0  0  0  0  0  0  0  0  0  0  0  0
   -5.0029    0.2021   -6.4843 C   0  0  0  0  0  0  0  0  0  0  0  0
   -4.4067    1.3976   -7.5124 S   0  0  0  0  0  0  0  0  0  0  0  0
   -4.3316   -1.0954   -6.3726 C   0  0  0  0  0  0  0  0  0  0  0  0
   -3.1981   -1.4020   -5.1706 S   0  0  0  0  0  0  0  0  0  0  0  0
   -2.4973   -2.7614   -5.8649 C   0  0  0  0  0  0  0  0  0  0  0  0
   -3.1416   -2.9913   -7.0893 C   0  0  0  0  0  0  0  0  0  0  0  0
   -4.1560   -2.0530   -7.3707 C   0  0  0  0  0  0  0  0  0  0  0  0
   -4.8669   -2.1093   -8.5704 C   0  0  0  0  0  0  0  0  0  0  0  0
   -4.5716   -3.1179   -9.5055 C   0  0  0  0  0  0  0  0  0  0  0  0
   -5.3567   -3.2050  -10.7846 C   0  0  0  0  0  0  0  0  0  0  0  0
   -3.5377   -4.0487   -9.2428 C   0  0  0  0  0  0  0  0  0  0  0  0
   -3.2601   -5.0355  -10.2043 O   0  0  0  0  0  0  0  0  0  0  0  0
   -2.2095   -5.9886  -10.1031 C   0  0  0  0  0  0  0  0  0  0  0  0
   -2.8139   -3.9717   -8.0333 C   0  0  0  0  0  0  0  0  0  0  0  0
   -1.2896   -3.3988   -5.3184 C   0  0  0  0  0  0  0  0  0  0  0  0
   -0.9709   -4.7549   -5.3245 C   0  0  0  0  0  0  0  0  0  0  0  0
    0.2370   -5.0327   -4.6577 C   0  0  0  0  0  0  0  0  0  0  0  0
    0.8136   -6.3039   -4.4750 C   0  0  0  0  0  0  0  0  0  0  0  0
    0.1981   -7.5235   -5.0256 C   0  0  0  0  0  0  0  0  0  0  0  0
   -0.0003   -7.8439   -6.6639 S   0  0  0  0  0  0  0  0  0  0  0  0
   -0.7474   -9.3396   -6.4638 C   0  0  0  0  0  0  0  0  0  0  0  0
   -1.2694  -10.1842   -7.5857 C   0  0  0  0  0  0  0  0  0  0  0  0
   -2.7176   -9.8260   -7.8964 C   0  0  0  0  0  0  0  0  0  0  0  0
   -0.8809   -9.5929   -5.0998 C   0  0  0  0  0  0  0  0  0  0  0  0
   -1.6757  -11.0181   -4.4518 Cl  0  0  0  0  0  0  0  0  0  0  0  0
   -0.3420   -8.5787   -4.2927 C   0  0  0  0  0  0  0  0  0  0  0  0
   -0.4042   -8.6080   -2.5326 Cl  0  0  0  0  0  0  0  0  0  0  0  0
    2.0213   -6.3590   -3.7588 C   0  0  0  0  0  0  0  0  0  0  0  0
    2.6281   -5.2225   -3.2139 C   0  0  0  0  0  0  0  0  0  0  0  0
    2.0285   -3.9527   -3.3499 C   0  0  0  0  0  0  0  0  0  0  0  0
    2.5770   -2.7445   -2.6936 C   0  0  0  0  0  0  0  0  0  0  0  0
    2.9488   -1.2988   -3.4804 S   0  0  0  0  0  0  0  0  0  0  0  0
    3.4250   -0.4562   -2.1037 C   0  0  0  0  0  0  0  0  0  0  0  0
    3.9338    0.9533   -2.1017 C   0  0  0  0  0  0  0  0  0  0  0  0
    5.4504    0.9815   -2.2533 C   0  0  0  0  0  0  0  0  0  0  0  0
    3.3126   -1.3006   -1.0007 C   0  0  0  0  0  0  0  0  0  0  0  0
    2.8229   -2.5775   -1.3268 C   0  0  0  0  0  0  0  0  0  0  0  0
    2.4886   -3.8115   -0.1185 Cl  0  0  0  0  0  0  0  0  0  0  0  0
    3.7433   -0.8136    0.6349 Cl  0  0  0  0  0  0  0  0  0  0  0  0
    0.8451   -3.8947   -4.1108 C   0  0  0  0  0  0  0  0  0  0  0  0
   -0.1051   -2.5557   -4.4614 S   0  0  0  0  0  0  0  0  0  0  0  0
    3.8545   -5.5054   -2.5877 C   0  0  0  0  0  0  0  0  0  0  0  0
    4.1935   -6.8552   -2.6226 C   0  0  0  0  0  0  0  0  0  0  0  0
    2.9874   -7.7014   -3.4473 S   0  0  0  0  0  0  0  0  0  0  0  0
    3.3334   -9.9206   11.4313 H   0  0  0  0  0  0  0  0  0  0  0  0
    4.5835   -7.6551   11.7352 H   0  0  0  0  0  0  0  0  0  0  0  0
    6.2531   -2.6359   14.2267 H   0  0  0  0  0  0  0  0  0  0  0  0
    7.8787   -3.3567   13.9772 H   0  0  0  0  0  0  0  0  0  0  0  0
    8.2833   -1.7998   12.0519 H   0  0  0  0  0  0  0  0  0  0  0  0
    6.6436   -1.0743   12.2957 H   0  0  0  0  0  0  0  0  0  0  0  0
    7.9071   -0.9050   13.5746 H   0  0  0  0  0  0  0  0  0  0  0  0
   -0.4877   -8.5699    3.4096 H   0  0  0  0  0  0  0  0  0  0  0  0
   -2.1611   -8.3556    4.0089 H   0  0  0  0  0  0  0  0  0  0  0  0
   -0.2762   -6.1255    3.0004 H   0  0  0  0  0  0  0  0  0  0  0  0
   -1.7398   -6.7762    2.1716 H   0  0  0  0  0  0  0  0  0  0  0  0
   -1.9150   -5.8424    3.7067 H   0  0  0  0  0  0  0  0  0  0  0  0
    1.1046   -4.3867    6.4585 H   0  0  0  0  0  0  0  0  0  0  0  0
    3.6265   -0.3379    7.3876 H   0  0  0  0  0  0  0  0  0  0  0  0
    6.5340    4.9773    9.0047 H   0  0  0  0  0  0  0  0  0  0  0  0
    7.3932    4.5466    7.4897 H   0  0  0  0  0  0  0  0  0  0  0  0
    7.8567    2.2363    8.4488 H   0  0  0  0  0  0  0  0  0  0  0  0
    8.5960    3.5775    9.4006 H   0  0  0  0  0  0  0  0  0  0  0  0
    7.0984    2.7764   10.0027 H   0  0  0  0  0  0  0  0  0  0  0  0
   -2.6219   -3.0530    0.4285 H   0  0  0  0  0  0  0  0  0  0  0  0
   -0.9697   -3.7543    0.4089 H   0  0  0  0  0  0  0  0  0  0  0  0
   -2.0480   -1.5714   -1.4871 H   0  0  0  0  0  0  0  0  0  0  0  0
   -1.6907   -3.2932   -1.8955 H   0  0  0  0  0  0  0  0  0  0  0  0
   -0.3407   -2.1748   -1.4629 H   0  0  0  0  0  0  0  0  0  0  0  0
    0.8096    2.2900    1.3980 H   0  0  0  0  0  0  0  0  0  0  0  0
    0.1566    5.8982    2.5594 H   0  0  0  0  0  0  0  0  0  0  0  0
   -2.9289   10.1298    4.5787 H   0  0  0  0  0  0  0  0  0  0  0  0
   -4.1006    8.8819    5.1218 H   0  0  0  0  0  0  0  0  0  0  0  0
   -5.3009   10.8957    4.3350 H   0  0  0  0  0  0  0  0  0  0  0  0
   -4.4590   10.8184    2.7406 H   0  0  0  0  0  0  0  0  0  0  0  0
   -5.6342    9.5212    3.2133 H   0  0  0  0  0  0  0  0  0  0  0  0
    2.5340    1.9580   -5.3038 H   0  0  0  0  0  0  0  0  0  0  0  0
    2.6250    3.0035   -6.7623 H   0  0  0  0  0  0  0  0  0  0  0  0
    4.8761    2.1294   -6.0817 H   0  0  0  0  0  0  0  0  0  0  0  0
    4.7090    2.9305   -4.4731 H   0  0  0  0  0  0  0  0  0  0  0  0
    4.8167    3.9285   -5.9723 H   0  0  0  0  0  0  0  0  0  0  0  0
   -1.2499    6.2435   -4.2707 H   0  0  0  0  0  0  0  0  0  0  0  0
   -3.0882    6.4268   -5.9022 H   0  0  0  0  0  0  0  0  0  0  0  0
    0.0603    4.2529  -10.1819 H   0  0  0  0  0  0  0  0  0  0  0  0
   -0.4677    5.7870  -10.9510 H   0  0  0  0  0  0  0  0  0  0  0  0
   -0.4378    3.8910  -12.5819 H   0  0  0  0  0  0  0  0  0  0  0  0
   -2.1087    4.5382  -12.3620 H   0  0  0  0  0  0  0  0  0  0  0  0
   -1.6228    2.9875  -11.5653 H   0  0  0  0  0  0  0  0  0  0  0  0
   -7.7308    0.6666    0.8996 H   0  0  0  0  0  0  0  0  0  0  0  0
   -6.0722    1.3301    1.0611 H   0  0  0  0  0  0  0  0  0  0  0  0
   -8.6770    2.9933    1.0659 H   0  0  0  0  0  0  0  0  0  0  0  0
   -7.6600    2.5765    2.4992 H   0  0  0  0  0  0  0  0  0  0  0  0
   -6.9990    3.6550    1.2157 H   0  0  0  0  0  0  0  0  0  0  0  0
   -5.9078    0.2666   -4.5119 H   0  0  0  0  0  0  0  0  0  0  0  0
   -5.6496   -1.3869   -8.7733 H   0  0  0  0  0  0  0  0  0  0  0  0
   -4.6690   -3.1627  -11.6538 H   0  0  0  0  0  0  0  0  0  0  0  0
   -5.9147   -4.1632  -10.8092 H   0  0  0  0  0  0  0  0  0  0  0  0
   -6.0865   -2.3703  -10.8747 H   0  0  0  0  0  0  0  0  0  0  0  0
   -2.2394   -6.6554  -10.9902 H   0  0  0  0  0  0  0  0  0  0  0  0
   -2.3405   -6.6087   -9.1926 H   0  0  0  0  0  0  0  0  0  0  0  0
   -1.2268   -5.4714  -10.0745 H   0  0  0  0  0  0  0  0  0  0  0  0
   -2.0002   -4.6503   -7.8435 H   0  0  0  0  0  0  0  0  0  0  0  0
   -1.6090   -5.5173   -5.7491 H   0  0  0  0  0  0  0  0  0  0  0  0
   -1.2008  -11.2592   -7.3167 H   0  0  0  0  0  0  0  0  0  0  0  0
   -0.6464  -10.0193   -8.4893 H   0  0  0  0  0  0  0  0  0  0  0  0
   -3.0826  -10.4475   -8.7408 H   0  0  0  0  0  0  0  0  0  0  0  0
   -2.7995   -8.7573   -8.1806 H   0  0  0  0  0  0  0  0  0  0  0  0
   -3.3628  -10.0118   -7.0125 H   0  0  0  0  0  0  0  0  0  0  0  0
    3.4691    1.5073   -2.9408 H   0  0  0  0  0  0  0  0  0  0  0  0
    3.6434    1.4632   -1.1590 H   0  0  0  0  0  0  0  0  0  0  0  0
    5.9333    0.4340   -1.4165 H   0  0  0  0  0  0  0  0  0  0  0  0
    5.7476    0.5113   -3.2148 H   0  0  0  0  0  0  0  0  0  0  0  0
    5.8056    2.0311   -2.2442 H   0  0  0  0  0  0  0  0  0  0  0  0
    4.4898   -4.7598   -2.1296 H   0  0  0  0  0  0  0  0  0  0  0  0
    5.0910   -7.2900   -2.1993 H   0  0  0  0  0  0  0  0  0  0  0  0
  1  2  2  0
  2  3  1  0
  3  4  2  0
  4  5  1  0
  5  6  1  0
  6  7  1  0
  7  8  1  0
  8  9  1  0
  7 10  2  0
 10 11  1  0
 10 12  1  0
 12 13  1  0
  4 14  1  0
 14 15  2  0
 15 16  1  0
 16 17  1  0
 17 18  1  0
 18 19  1  0
 19 20  1  0
 20 21  1  0
 19 22  2  0
 22 23  1  0
 23 24  1  0
 22 25  1  0
 16 26  2  0
 26 27  1  0
 15 28  1  0
 28 29  2  0
 29 30  1  0
 29 31  1  0
 31 32  2  0
 32 33  1  0
 33 34  2  0
 34 35  1  0
 35 36  1  0
 36 37  1  0
 37 38  1  0
 38 39  1  0
 37 40  2  0
 40 41  1  0
 40 42  1  0
 42 43  1  0
 34 44  1  0
 44 45  2  0
 45 46  1  0
 46 47  1  0
 47 48  1  0
 48 49  1  0
 49 50  1  0
 50 51  1  0
 49 52  2  0
 52 53  1  0
 53 54  1  0
 52 55  1  0
 46 56  2  0
 56 57  1  0
 45 58  1  0
 58 59  2  0
 59 60  1  0
 59 61  1  0
 61 62  2  0
 62 63  1  0
 63 64  2  0
 64 65  1  0
 65 66  1  0
 66 67  1  0
 67 68  1  0
 68 69  1  0
 67 70  2  0
 70 71  1  0
 70 72  1  0
 72 73  1  0
 64 74  1  0
 74 75  2  0
 75 76  1  0
 76 77  1  0
 77 78  1  0
 78 79  1  0
 79 80  1  0
 80 81  1  0
 79 82  2  0
 82 83  1  0
 83 84  1  0
 82 85  1  0
 76 86  2  0
 86 87  1  0
 75 88  1  0
 88 89  2  0
 89 90  1  0
 89 91  1  0
 91 92  2  0
 92 93  1  0
 93 94  2  0
 94 95  1  0
 95 96  1  0
 96 97  1  0
 97 98  1  0
 98 99  1  0
 97100  2  0
100101  1  0
100102  1  0
102103  1  0
 94104  1  0
104105  2  0
105106  1  0
106107  1  0
107108  1  0
108109  1  0
109110  1  0
110111  1  0
109112  2  0
112113  1  0
113114  1  0
112115  1  0
106116  2  0
116117  1  0
105118  1  0
118119  2  0
119120  1  0
119121  1  0
121122  1  0
122123  1  0
123124  2  0
124125  1  0
125126  1  0
126127  2  0
127128  1  0
127129  1  0
129130  1  0
130131  1  0
129132  2  0
123133  1  0
133134  2  0
134135  1  0
135136  2  0
136137  1  0
137138  1  0
138139  1  0
139140  1  0
140141  1  0
139142  2  0
142143  1  0
142144  1  0
144145  1  0
136146  1  0
146147  2  0
147148  1  0
148149  1  0
149150  1  0
150151  1  0
151152  1  0
152153  1  0
151154  2  0
154155  1  0
155156  1  0
154157  1  0
148158  2  0
158159  1  0
147160  1  0
160161  2  0
161162  1  0
 27  1  1  0
 57 31  1  0
 87 61  1  0
117 91  1  0
125121  2  0
159133  1  0
 26  3  1  0
 56 33  1  0
 86 63  1  0
116 93  1  0
132124  1  0
158135  1  0
 12  5  2  0
 30 14  1  0
 42 35  2  0
 60 44  1  0
 72 65  2  0
 90 74  1  0
102 95  2  0
120104  1  0
144137  2  0
162146  1  0
 23 17  2  0
 53 47  2  0
 83 77  2  0
113107  2  0
155149  2  0
  1163  1  0
  2164  1  0
  8165  1  0
  8166  1  0
  9167  1  0
  9168  1  0
  9169  1  0
 20170  1  0
 20171  1  0
 21172  1  0
 21173  1  0
 21174  1  0
 28175  1  0
 32176  1  0
 38177  1  0
 38178  1  0
 39179  1  0
 39180  1  0
 39181  1  0
 50182  1  0
 50183  1  0
 51184  1  0
 51185  1  0
 51186  1  0
 58187  1  0
 62188  1  0
 68189  1  0
 68190  1  0
 69191  1  0
 69192  1  0
 69193  1  0
 80194  1  0
 80195  1  0
 81196  1  0
 81197  1  0
 81198  1  0
 88199  1  0
 92200  1  0
 98201  1  0
 98202  1  0
 99203  1  0
 99204  1  0
 99205  1  0
110206  1  0
110207  1  0
111208  1  0
111209  1  0
111210  1  0
118211  1  0
126212  1  0
128213  1  0
128214  1  0
128215  1  0
131216  1  0
131217  1  0
131218  1  0
132219  1  0
134220  1  0
140221  1  0
140222  1  0
141223  1  0
141224  1  0
141225  1  0
152226  1  0
152227  1  0
153228  1  0
153229  1  0
153230  1  0
160231  1  0
161232  1  0
M  END

