
     RDKit          3D

152166  0  0  0  0  0  0  0  0999 V2000
   -3.9433    5.8333    6.6699 C   0  0  0  0  0  0  0  0  0  0  0  0
   -3.3807    4.5701    6.5138 C   0  0  0  0  0  0  0  0  0  0  0  0
   -3.6476    3.9993    5.2606 C   0  0  0  0  0  0  0  0  0  0  0  0
   -3.1945    2.7494    4.8053 C   0  0  0  0  0  0  0  0  0  0  0  0
   -2.3286    1.8783    5.6168 C   0  0  0  0  0  0  0  0  0  0  0  0
   -2.8660    0.7478    6.2480 C   0  0  0  0  0  0  0  0  0  0  0  0
   -2.0267   -0.1383    6.9304 C   0  0  0  0  0  0  0  0  0  0  0  0
   -0.6469    0.0902    6.9719 C   0  0  0  0  0  0  0  0  0  0  0  0
    0.4342   -1.0963    7.7811 S   0  0  0  0  0  0  0  0  0  0  0  0
    0.7821   -2.0601    6.2642 C   0  0  0  0  0  0  0  0  0  0  0  0
   -0.2698   -3.1413    6.0503 C   0  0  0  0  0  0  0  0  0  0  0  0
   -0.1116    1.2378    6.3681 C   0  0  0  0  0  0  0  0  0  0  0  0
    1.2237    1.4745    6.4083 F   0  0  0  0  0  0  0  0  0  0  0  0
   -0.9518    2.1320    5.6970 C   0  0  0  0  0  0  0  0  0  0  0  0
   -3.5704    2.3723    3.5081 C   0  0  0  0  0  0  0  0  0  0  0  0
   -4.3499    3.1814    2.6741 C   0  0  0  0  0  0  0  0  0  0  0  0
   -4.7899    4.4462    3.1212 C   0  0  0  0  0  0  0  0  0  0  0  0
   -5.5349    5.3758    2.2447 C   0  0  0  0  0  0  0  0  0  0  0  0
   -6.8050    5.8397    2.6195 C   0  0  0  0  0  0  0  0  0  0  0  0
   -7.4866    6.7533    1.8101 C   0  0  0  0  0  0  0  0  0  0  0  0
   -6.9125    7.2026    0.6158 C   0  0  0  0  0  0  0  0  0  0  0  0
   -7.7825    8.4039   -0.4004 S   0  0  0  0  0  0  0  0  0  0  0  0
   -8.5918    7.1655   -1.4753 C   0  0  0  0  0  0  0  0  0  0  0  0
   -9.8649    6.6351   -0.8309 C   0  0  0  0  0  0  0  0  0  0  0  0
   -5.6416    6.7477    0.2409 C   0  0  0  0  0  0  0  0  0  0  0  0
   -4.9553    5.8394    1.0525 C   0  0  0  0  0  0  0  0  0  0  0  0
   -5.0642    7.1910   -0.9039 F   0  0  0  0  0  0  0  0  0  0  0  0
   -4.4279    4.8149    4.4337 C   0  0  0  0  0  0  0  0  0  0  0  0
   -4.7658    6.2447    5.2547 S   0  0  0  0  0  0  0  0  0  0  0  0
   -4.5781    2.6062    1.4095 C   0  0  0  0  0  0  0  0  0  0  0  0
   -3.9507    1.3694    1.2613 C   0  0  0  0  0  0  0  0  0  0  0  0
   -3.1259    0.9845    2.6802 S   0  0  0  0  0  0  0  0  0  0  0  0
   -3.8094    0.6001    0.0196 C   0  0  0  0  0  0  0  0  0  0  0  0
   -2.3533   -0.0764   -0.4650 S   0  0  0  0  0  0  0  0  0  0  0  0
   -2.9261   -0.8443   -1.8424 C   0  0  0  0  0  0  0  0  0  0  0  0
   -4.2949   -0.5989   -1.9367 C   0  0  0  0  0  0  0  0  0  0  0  0
   -4.7888    0.2215   -0.9021 C   0  0  0  0  0  0  0  0  0  0  0  0
   -6.1493    0.5272   -0.8344 C   0  0  0  0  0  0  0  0  0  0  0  0
   -7.0233    0.0235   -1.8185 C   0  0  0  0  0  0  0  0  0  0  0  0
   -8.4922    0.3312   -1.7350 C   0  0  0  0  0  0  0  0  0  0  0  0
   -6.5298   -0.8074   -2.8542 C   0  0  0  0  0  0  0  0  0  0  0  0
   -7.4376   -1.3206   -3.7992 O   0  0  0  0  0  0  0  0  0  0  0  0
   -7.0768   -2.1313   -4.9104 C   0  0  0  0  0  0  0  0  0  0  0  0
   -5.1520   -1.1123   -2.9125 C   0  0  0  0  0  0  0  0  0  0  0  0
   -2.0742   -1.6988   -2.6750 C   0  0  0  0  0  0  0  0  0  0  0  0
   -0.5849   -1.1431   -3.2153 S   0  0  0  0  0  0  0  0  0  0  0  0
    0.2251   -2.6126   -3.2874 C   0  0  0  0  0  0  0  0  0  0  0  0
   -0.6696   -3.5860   -2.8260 C   0  0  0  0  0  0  0  0  0  0  0  0
   -1.9463   -3.0794   -2.5033 C   0  0  0  0  0  0  0  0  0  0  0  0
   -2.9081   -3.9075   -1.9141 C   0  0  0  0  0  0  0  0  0  0  0  0
   -2.6058   -5.2573   -1.6615 C   0  0  0  0  0  0  0  0  0  0  0  0
   -3.6320   -6.1354   -1.0034 C   0  0  0  0  0  0  0  0  0  0  0  0
   -1.3129   -5.7594   -1.9383 C   0  0  0  0  0  0  0  0  0  0  0  0
   -1.0191   -7.0922   -1.6064 O   0  0  0  0  0  0  0  0  0  0  0  0
    0.2437   -7.7190   -1.8150 C   0  0  0  0  0  0  0  0  0  0  0  0
   -0.3453   -4.9134   -2.5181 C   0  0  0  0  0  0  0  0  0  0  0  0
    1.6937   -2.6850   -3.2466 C   0  0  0  0  0  0  0  0  0  0  0  0
    2.6159   -1.7131   -2.2335 S   0  0  0  0  0  0  0  0  0  0  0  0
    4.1045   -2.4214   -2.5475 C   0  0  0  0  0  0  0  0  0  0  0  0
    3.8964   -3.4662   -3.4521 C   0  0  0  0  0  0  0  0  0  0  0  0
    2.5527   -3.6017   -3.8553 C   0  0  0  0  0  0  0  0  0  0  0  0
    2.1836   -4.5882   -4.7717 C   0  0  0  0  0  0  0  0  0  0  0  0
    3.1548   -5.4835   -5.2548 C   0  0  0  0  0  0  0  0  0  0  0  0
    2.7506   -6.5783   -6.2000 C   0  0  0  0  0  0  0  0  0  0  0  0
    4.4951   -5.3910   -4.8061 C   0  0  0  0  0  0  0  0  0  0  0  0
    5.4304   -6.3260   -5.2780 O   0  0  0  0  0  0  0  0  0  0  0  0
    6.8059   -6.3518   -4.9044 C   0  0  0  0  0  0  0  0  0  0  0  0
    4.8617   -4.3713   -3.9002 C   0  0  0  0  0  0  0  0  0  0  0  0
    5.3376   -2.0292   -1.8491 C   0  0  0  0  0  0  0  0  0  0  0  0
    5.3818   -1.6699   -0.2060 S   0  0  0  0  0  0  0  0  0  0  0  0
    6.9401   -1.0438   -0.1656 C   0  0  0  0  0  0  0  0  0  0  0  0
    7.4507   -1.0827   -1.4637 C   0  0  0  0  0  0  0  0  0  0  0  0
    6.5526   -1.6191   -2.4062 C   0  0  0  0  0  0  0  0  0  0  0  0
    6.8753   -1.6166   -3.7665 C   0  0  0  0  0  0  0  0  0  0  0  0
    8.1148   -1.1019   -4.1873 C   0  0  0  0  0  0  0  0  0  0  0  0
    8.4670   -1.0975   -5.6487 C   0  0  0  0  0  0  0  0  0  0  0  0
    9.0193   -0.5633   -3.2434 C   0  0  0  0  0  0  0  0  0  0  0  0
   10.2327   -0.0261   -3.7039 O   0  0  0  0  0  0  0  0  0  0  0  0
   11.1940    0.6200   -2.8748 C   0  0  0  0  0  0  0  0  0  0  0  0
    8.6802   -0.5580   -1.8733 C   0  0  0  0  0  0  0  0  0  0  0  0
    7.5625   -0.4438    1.0256 C   0  0  0  0  0  0  0  0  0  0  0  0
    9.0446   -0.9034    1.6800 S   0  0  0  0  0  0  0  0  0  0  0  0
    8.9852    0.0920    3.0417 C   0  0  0  0  0  0  0  0  0  0  0  0
    7.7890    0.7975    2.9940 C   0  0  0  0  0  0  0  0  0  0  0  0
    6.9935    0.5033    1.8780 C   0  0  0  0  0  0  0  0  0  0  0  0
    5.7779    1.1665    1.6840 C   0  0  0  0  0  0  0  0  0  0  0  0
    5.3359    2.1046    2.6370 C   0  0  0  0  0  0  0  0  0  0  0  0
    4.0474    2.8433    2.4062 C   0  0  0  0  0  0  0  0  0  0  0  0
    6.1357    2.3961    3.7692 C   0  0  0  0  0  0  0  0  0  0  0  0
    5.6709    3.3493    4.6909 O   0  0  0  0  0  0  0  0  0  0  0  0
    6.3741    3.7503    5.8624 C   0  0  0  0  0  0  0  0  0  0  0  0
    7.3702    1.7316    3.9440 C   0  0  0  0  0  0  0  0  0  0  0  0
   -3.8610    6.4490    7.5538 H   0  0  0  0  0  0  0  0  0  0  0  0
   -2.7937    4.0891    7.2856 H   0  0  0  0  0  0  0  0  0  0  0  0
   -3.9285    0.5437    6.1929 H   0  0  0  0  0  0  0  0  0  0  0  0
   -2.4509   -1.0118    7.4099 H   0  0  0  0  0  0  0  0  0  0  0  0
    1.7740   -2.5458    6.3815 H   0  0  0  0  0  0  0  0  0  0  0  0
    0.8318   -1.3974    5.3739 H   0  0  0  0  0  0  0  0  0  0  0  0
   -0.0216   -3.7223    5.1391 H   0  0  0  0  0  0  0  0  0  0  0  0
   -1.2752   -2.6922    5.9193 H   0  0  0  0  0  0  0  0  0  0  0  0
   -0.2834   -3.8312    6.9198 H   0  0  0  0  0  0  0  0  0  0  0  0
   -0.5281    2.9979    5.2039 H   0  0  0  0  0  0  0  0  0  0  0  0
   -7.2646    5.4982    3.5381 H   0  0  0  0  0  0  0  0  0  0  0  0
   -8.4607    7.1144    2.1161 H   0  0  0  0  0  0  0  0  0  0  0  0
   -8.8554    7.6620   -2.4317 H   0  0  0  0  0  0  0  0  0  0  0  0
   -7.9000    6.3242   -1.7046 H   0  0  0  0  0  0  0  0  0  0  0  0
  -10.3913    5.9643   -1.5439 H   0  0  0  0  0  0  0  0  0  0  0  0
   -9.6271    6.0556    0.0859 H   0  0  0  0  0  0  0  0  0  0  0  0
  -10.5407    7.4764   -0.5686 H   0  0  0  0  0  0  0  0  0  0  0  0
   -3.9669    5.5062    0.7588 H   0  0  0  0  0  0  0  0  0  0  0  0
   -5.1232    3.0903    0.6123 H   0  0  0  0  0  0  0  0  0  0  0  0
   -6.5339    1.1306   -0.0232 H   0  0  0  0  0  0  0  0  0  0  0  0
   -9.0450   -0.5827   -1.4295 H   0  0  0  0  0  0  0  0  0  0  0  0
   -8.8678    0.6699   -2.7244 H   0  0  0  0  0  0  0  0  0  0  0  0
   -8.6997    1.1359   -0.9974 H   0  0  0  0  0  0  0  0  0  0  0  0
   -7.9902   -2.3813   -5.4869 H   0  0  0  0  0  0  0  0  0  0  0  0
   -6.3782   -1.5815   -5.5753 H   0  0  0  0  0  0  0  0  0  0  0  0
   -6.6095   -3.0765   -4.5616 H   0  0  0  0  0  0  0  0  0  0  0  0
   -4.7530   -1.7470   -3.6916 H   0  0  0  0  0  0  0  0  0  0  0  0
   -3.8767   -3.5075   -1.6420 H   0  0  0  0  0  0  0  0  0  0  0  0
   -3.6425   -7.1404   -1.4796 H   0  0  0  0  0  0  0  0  0  0  0  0
   -3.3859   -6.2449    0.0736 H   0  0  0  0  0  0  0  0  0  0  0  0
   -4.6519   -5.7040   -1.0958 H   0  0  0  0  0  0  0  0  0  0  0  0
    0.1965   -8.7644   -1.4477 H   0  0  0  0  0  0  0  0  0  0  0  0
    1.0331   -7.1805   -1.2487 H   0  0  0  0  0  0  0  0  0  0  0  0
    0.4903   -7.7312   -2.8977 H   0  0  0  0  0  0  0  0  0  0  0  0
    0.6540   -5.2752   -2.6894 H   0  0  0  0  0  0  0  0  0  0  0  0
    1.1538   -4.6691   -5.0966 H   0  0  0  0  0  0  0  0  0  0  0  0
    3.4568   -6.6231   -7.0559 H   0  0  0  0  0  0  0  0  0  0  0  0
    1.7301   -6.4090   -6.6075 H   0  0  0  0  0  0  0  0  0  0  0  0
    2.7616   -7.5522   -5.6665 H   0  0  0  0  0  0  0  0  0  0  0  0
    7.3028   -7.1993   -5.4168 H   0  0  0  0  0  0  0  0  0  0  0  0
    6.8991   -6.4965   -3.8074 H   0  0  0  0  0  0  0  0  0  0  0  0
    7.3023   -5.4065   -5.2103 H   0  0  0  0  0  0  0  0  0  0  0  0
    5.8770   -4.2929   -3.5391 H   0  0  0  0  0  0  0  0  0  0  0  0
    6.1667   -1.9841   -4.4968 H   0  0  0  0  0  0  0  0  0  0  0  0
    9.3941   -1.6883   -5.8103 H   0  0  0  0  0  0  0  0  0  0  0  0
    7.6569   -1.5427   -6.2671 H   0  0  0  0  0  0  0  0  0  0  0  0
    8.6358   -0.0541   -5.9911 H   0  0  0  0  0  0  0  0  0  0  0  0
   11.5975   -0.0971   -2.1299 H   0  0  0  0  0  0  0  0  0  0  0  0
   10.7302    1.4863   -2.3590 H   0  0  0  0  0  0  0  0  0  0  0  0
   12.0276    0.9881   -3.5046 H   0  0  0  0  0  0  0  0  0  0  0  0
    9.3500   -0.1310   -1.1404 H   0  0  0  0  0  0  0  0  0  0  0  0
    9.7418    0.1654    3.8120 H   0  0  0  0  0  0  0  0  0  0  0  0
    5.1843    0.9743    0.7987 H   0  0  0  0  0  0  0  0  0  0  0  0
    3.4608    2.9001    3.3462 H   0  0  0  0  0  0  0  0  0  0  0  0
    4.2733    3.8719    2.0549 H   0  0  0  0  0  0  0  0  0  0  0  0
    3.4217    2.3331    1.6431 H   0  0  0  0  0  0  0  0  0  0  0  0
    6.5417    2.8764    6.5265 H   0  0  0  0  0  0  0  0  0  0  0  0
    7.3457    4.2101    5.5833 H   0  0  0  0  0  0  0  0  0  0  0  0
    5.7694    4.5028    6.4091 H   0  0  0  0  0  0  0  0  0  0  0  0
    8.0008    1.9387    4.7978 H   0  0  0  0  0  0  0  0  0  0  0  0
  1  2  2  0
  2  3  1  0
  3  4  2  0
  4  5  1  0
  5  6  2  0
  6  7  1  0
  7  8  2  0
  8  9  1  0
  9 10  1  0
 10 11  1  0
  8 12  1  0
 12 13  1  0
 12 14  2  0
  4 15  1  0
 15 16  2  0
 16 17  1  0
 17 18  1  0
 18 19  2  0
 19 20  1  0
 20 21  2  0
 21 22  1  0
 22 23  1  0
 23 24  1  0
 21 25  1  0
 25 26  2  0
 25 27  1  0
 17 28  2  0
 28 29  1  0
 16 30  1  0
 30 31  2  0
 31 32  1  0
 31 33  1  0
 33 34  1  0
 34 35  1  0
 35 36  2  0
 36 37  1  0
 37 38  1  0
 38 39  2  0
 39 40  1  0
 39 41  1  0
 41 42  1  0
 42 43  1  0
 41 44  2  0
 35 45  1  0
 45 46  1  0
 46 47  1  0
 47 48  2  0
 48 49  1  0
 49 50  1  0
 50 51  2  0
 51 52  1  0
 51 53  1  0
 53 54  1  0
 54 55  1  0
 53 56  2  0
 47 57  1  0
 57 58  1  0
 58 59  1  0
 59 60  2  0
 60 61  1  0
 61 62  1  0
 62 63  2  0
 63 64  1  0
 63 65  1  0
 65 66  1  0
 66 67  1  0
 65 68  2  0
 59 69  1  0
 69 70  1  0
 70 71  1  0
 71 72  2  0
 72 73  1  0
 73 74  1  0
 74 75  2  0
 75 76  1  0
 75 77  1  0
 77 78  1  0
 78 79  1  0
 77 80  2  0
 71 81  1  0
 81 82  1  0
 82 83  1  0
 83 84  2  0
 84 85  1  0
 85 86  1  0
 86 87  2  0
 87 88  1  0
 87 89  1  0
 89 90  1  0
 90 91  1  0
 89 92  2  0
 29  1  1  0
 37 33  2  0
 49 45  2  0
 61 57  2  0
 73 69  2  0
 85 81  2  0
 28  3  1  0
 44 36  1  0
 56 48  1  0
 68 60  1  0
 80 72  1  0
 92 84  1  0
 14  5  1  0
 32 15  1  0
 26 18  1  0
  1 93  1  0
  2 94  1  0
  6 95  1  0
  7 96  1  0
 10 97  1  0
 10 98  1  0
 11 99  1  0
 11100  1  0
 11101  1  0
 14102  1  0
 19103  1  0
 20104  1  0
 23105  1  0
 23106  1  0
 24107  1  0
 24108  1  0
 24109  1  0
 26110  1  0
 30111  1  0
 38112  1  0
 40113  1  0
 40114  1  0
 40115  1  0
 43116  1  0
 43117  1  0
 43118  1  0
 44119  1  0
 50120  1  0
 52121  1  0
 52122  1  0
 52123  1  0
 55124  1  0
 55125  1  0
 55126  1  0
 56127  1  0
 62128  1  0
 64129  1  0
 64130  1  0
 64131  1  0
 67132  1  0
 67133  1  0
 67134  1  0
 68135  1  0
 74136  1  0
 76137  1  0
 76138  1  0
 76139  1  0
 79140  1  0
 79141  1  0
 79142  1  0
 80143  1  0
 83144  1  0
 86145  1  0
 88146  1  0
 88147  1  0
 88148  1  0
 91149  1  0
 91150  1  0
 91151  1  0
 92152  1  0
M  END

