
     RDKit          3D

110117  0  0  0  0  0  0  0  0999 V2000
    7.6544   -0.3842   -0.0295 C   0  0  0  0  0  0  0  0  0  0  0  0
    7.4914   -2.0327   -0.3103 S   0  0  0  0  0  0  0  0  0  0  0  0
    6.8106   -1.8971   -1.8432 C   0  0  0  0  0  0  0  0  0  0  0  0
    6.4078   -3.0268   -2.6861 C   0  0  0  0  0  0  0  0  0  0  0  0
    5.9278   -2.8178   -3.8347 O   0  0  0  0  0  0  0  0  0  0  0  0
    6.5477   -4.3316   -2.2023 O   0  0  0  0  0  0  0  0  0  0  0  0
    6.2104   -5.4842   -2.9647 C   0  0  0  0  0  0  0  0  0  0  0  0
    6.6994   -0.5487   -2.1615 C   0  0  0  0  0  0  0  0  0  0  0  0
    7.1512    0.2953   -1.1361 C   0  0  0  0  0  0  0  0  0  0  0  0
    7.1465    1.7614   -1.2303 C   0  0  0  0  0  0  0  0  0  0  0  0
    6.0835    2.5497   -1.0017 C   0  0  0  0  0  0  0  0  0  0  0  0
    4.7181    2.1074   -0.6060 C   0  0  0  0  0  0  0  0  0  0  0  0
    4.1598    0.5212   -0.4802 S   0  0  0  0  0  0  0  0  0  0  0  0
    2.5742    0.8580   -0.0458 C   0  0  0  0  0  0  0  0  0  0  0  0
    2.4534    2.2431    0.0479 C   0  0  0  0  0  0  0  0  0  0  0  0
    3.6375    2.9386   -0.2706 C   0  0  0  0  0  0  0  0  0  0  0  0
    3.6558    4.3374   -0.2282 C   0  0  0  0  0  0  0  0  0  0  0  0
    2.4916    5.0431    0.1335 C   0  0  0  0  0  0  0  0  0  0  0  0
    2.5132    6.5458    0.1913 C   0  0  0  0  0  0  0  0  0  0  0  0
    1.3031    4.3464    0.4471 C   0  0  0  0  0  0  0  0  0  0  0  0
    0.1628    5.0854    0.8103 O   0  0  0  0  0  0  0  0  0  0  0  0
   -1.0818    4.5143    1.1926 C   0  0  0  0  0  0  0  0  0  0  0  0
    1.2880    2.9373    0.3900 C   0  0  0  0  0  0  0  0  0  0  0  0
    1.5721   -0.1673    0.2948 C   0  0  0  0  0  0  0  0  0  0  0  0
    0.6922   -0.1956    1.7338 S   0  0  0  0  0  0  0  0  0  0  0  0
    0.0254   -1.7280    1.5402 C   0  0  0  0  0  0  0  0  0  0  0  0
    0.5261   -2.2680    0.3509 C   0  0  0  0  0  0  0  0  0  0  0  0
    1.3786   -1.3951   -0.3484 C   0  0  0  0  0  0  0  0  0  0  0  0
    1.9433   -1.7844   -1.5692 C   0  0  0  0  0  0  0  0  0  0  0  0
    1.6989   -3.0755   -2.0691 C   0  0  0  0  0  0  0  0  0  0  0  0
    2.3206   -3.5043   -3.3671 C   0  0  0  0  0  0  0  0  0  0  0  0
    0.8933   -3.9769   -1.3362 C   0  0  0  0  0  0  0  0  0  0  0  0
    0.6982   -5.2679   -1.8473 O   0  0  0  0  0  0  0  0  0  0  0  0
   -0.0267   -6.2993   -1.1858 C   0  0  0  0  0  0  0  0  0  0  0  0
    0.3081   -3.5682   -0.1191 C   0  0  0  0  0  0  0  0  0  0  0  0
   -0.8169   -2.3871    2.5504 C   0  0  0  0  0  0  0  0  0  0  0  0
   -0.4049   -2.4586    4.1785 S   0  0  0  0  0  0  0  0  0  0  0  0
   -1.6857   -3.4391    4.6487 C   0  0  0  0  0  0  0  0  0  0  0  0
   -1.9228   -3.9174    6.0148 C   0  0  0  0  0  0  0  0  0  0  0  0
   -2.9108   -4.6624    6.2579 O   0  0  0  0  0  0  0  0  0  0  0  0
   -1.0429   -3.5481    7.0380 O   0  0  0  0  0  0  0  0  0  0  0  0
   -1.2227   -3.9592    8.3859 C   0  0  0  0  0  0  0  0  0  0  0  0
   -2.4663   -3.7192    3.5347 C   0  0  0  0  0  0  0  0  0  0  0  0
   -2.0012   -3.1129    2.3559 C   0  0  0  0  0  0  0  0  0  0  0  0
   -2.7505   -3.2406    1.0883 C   0  0  0  0  0  0  0  0  0  0  0  0
   -2.8535   -2.2455    0.2011 C   0  0  0  0  0  0  0  0  0  0  0  0
   -3.6896   -2.3781   -1.0051 C   0  0  0  0  0  0  0  0  0  0  0  0
   -3.9511   -3.8270   -1.8265 S   0  0  0  0  0  0  0  0  0  0  0  0
   -4.8610   -3.1735   -3.0782 C   0  0  0  0  0  0  0  0  0  0  0  0
   -5.4511   -3.9328   -4.1890 C   0  0  0  0  0  0  0  0  0  0  0  0
   -5.2366   -5.1726   -4.2820 O   0  0  0  0  0  0  0  0  0  0  0  0
   -6.2563   -3.2830   -5.1300 O   0  0  0  0  0  0  0  0  0  0  0  0
   -6.8239   -3.9558   -6.2493 C   0  0  0  0  0  0  0  0  0  0  0  0
   -4.9679   -1.8045   -2.8821 C   0  0  0  0  0  0  0  0  0  0  0  0
   -4.3294   -1.3485   -1.7165 C   0  0  0  0  0  0  0  0  0  0  0  0
   -4.4013    0.0810   -1.3365 C   0  0  0  0  0  0  0  0  0  0  0  0
   -4.3946    0.5063   -0.0685 C   0  0  0  0  0  0  0  0  0  0  0  0
   -4.5318    1.9207    0.3273 C   0  0  0  0  0  0  0  0  0  0  0  0
   -5.1288    2.3687    1.8348 S   0  0  0  0  0  0  0  0  0  0  0  0
   -4.9966    4.0247    1.6152 C   0  0  0  0  0  0  0  0  0  0  0  0
   -5.3086    5.0353    2.6310 C   0  0  0  0  0  0  0  0  0  0  0  0
   -5.1883    6.2608    2.3614 O   0  0  0  0  0  0  0  0  0  0  0  0
   -5.7389    4.6272    3.9007 O   0  0  0  0  0  0  0  0  0  0  0  0
   -6.0107    5.5482    4.9520 C   0  0  0  0  0  0  0  0  0  0  0  0
   -4.4677    4.2669    0.3538 C   0  0  0  0  0  0  0  0  0  0  0  0
   -4.1837    3.0910   -0.3752 C   0  0  0  0  0  0  0  0  0  0  0  0
   -3.4484    3.1103   -1.6624 C   0  0  0  0  0  0  0  0  0  0  0  0
   -3.5212    4.1318   -2.5191 C   0  0  0  0  0  0  0  0  0  0  0  0
    8.0669    0.0689    0.8629 H   0  0  0  0  0  0  0  0  0  0  0  0
    6.7938   -5.4969   -3.9111 H   0  0  0  0  0  0  0  0  0  0  0  0
    5.1241   -5.4824   -3.1952 H   0  0  0  0  0  0  0  0  0  0  0  0
    6.4546   -6.3976   -2.3763 H   0  0  0  0  0  0  0  0  0  0  0  0
    6.2797   -0.1840   -3.0890 H   0  0  0  0  0  0  0  0  0  0  0  0
    8.0909    2.2415   -1.4499 H   0  0  0  0  0  0  0  0  0  0  0  0
    6.2564    3.6127   -1.1023 H   0  0  0  0  0  0  0  0  0  0  0  0
    4.5605    4.8826   -0.4499 H   0  0  0  0  0  0  0  0  0  0  0  0
    3.4947    6.9562   -0.1279 H   0  0  0  0  0  0  0  0  0  0  0  0
    2.3100    6.8913    1.2269 H   0  0  0  0  0  0  0  0  0  0  0  0
    1.7274    6.9539   -0.4787 H   0  0  0  0  0  0  0  0  0  0  0  0
   -1.4743    3.8895    0.3674 H   0  0  0  0  0  0  0  0  0  0  0  0
   -0.9577    3.9087    2.1148 H   0  0  0  0  0  0  0  0  0  0  0  0
   -1.8077    5.3253    1.3958 H   0  0  0  0  0  0  0  0  0  0  0  0
    0.3817    2.3897    0.6008 H   0  0  0  0  0  0  0  0  0  0  0  0
    2.5621   -1.0941   -2.1230 H   0  0  0  0  0  0  0  0  0  0  0  0
    3.0224   -4.3339   -3.1758 H   0  0  0  0  0  0  0  0  0  0  0  0
    1.5360   -3.8450   -4.0667 H   0  0  0  0  0  0  0  0  0  0  0  0
    2.8749   -2.6745   -3.8532 H   0  0  0  0  0  0  0  0  0  0  0  0
   -1.0864   -6.0005   -1.0489 H   0  0  0  0  0  0  0  0  0  0  0  0
    0.0081   -7.2178   -1.8117 H   0  0  0  0  0  0  0  0  0  0  0  0
    0.4327   -6.5165   -0.1972 H   0  0  0  0  0  0  0  0  0  0  0  0
   -0.2914   -4.2556    0.4620 H   0  0  0  0  0  0  0  0  0  0  0  0
   -2.1948   -3.5843    8.7700 H   0  0  0  0  0  0  0  0  0  0  0  0
   -1.1906   -5.0678    8.4541 H   0  0  0  0  0  0  0  0  0  0  0  0
   -0.4058   -3.5388    9.0067 H   0  0  0  0  0  0  0  0  0  0  0  0
   -3.3617   -4.3290    3.5772 H   0  0  0  0  0  0  0  0  0  0  0  0
   -3.3269   -4.1445    0.9374 H   0  0  0  0  0  0  0  0  0  0  0  0
   -2.3639   -1.3009    0.3883 H   0  0  0  0  0  0  0  0  0  0  0  0
   -7.4561   -4.8007   -5.9066 H   0  0  0  0  0  0  0  0  0  0  0  0
   -6.0193   -4.3331   -6.9118 H   0  0  0  0  0  0  0  0  0  0  0  0
   -7.4562   -3.2467   -6.8204 H   0  0  0  0  0  0  0  0  0  0  0  0
   -5.5129   -1.1548   -3.5565 H   0  0  0  0  0  0  0  0  0  0  0  0
   -4.5931    0.7884   -2.1317 H   0  0  0  0  0  0  0  0  0  0  0  0
   -4.4057   -0.2123    0.7334 H   0  0  0  0  0  0  0  0  0  0  0  0
   -6.8228    6.2398    4.6402 H   0  0  0  0  0  0  0  0  0  0  0  0
   -5.0940    6.1254    5.1917 H   0  0  0  0  0  0  0  0  0  0  0  0
   -6.3381    4.9886    5.8541 H   0  0  0  0  0  0  0  0  0  0  0  0
   -4.2360    5.2710    0.0114 H   0  0  0  0  0  0  0  0  0  0  0  0
   -2.8184    2.2671   -1.9214 H   0  0  0  0  0  0  0  0  0  0  0  0
   -4.1465    4.9951   -2.3216 H   0  0  0  0  0  0  0  0  0  0  0  0
   -2.9434    4.1062   -3.4408 H   0  0  0  0  0  0  0  0  0  0  0  0
  1  2  1  0
  2  3  1  0
  3  4  1  0
  4  5  2  0
  4  6  1  0
  6  7  1  0
  3  8  2  0
  8  9  1  0
  9 10  1  0
 10 11  2  3
 11 12  1  0
 12 13  1  0
 13 14  1  0
 14 15  2  0
 15 16  1  0
 16 17  1  0
 17 18  2  0
 18 19  1  0
 18 20  1  0
 20 21  1  0
 21 22  1  0
 20 23  2  0
 14 24  1  0
 24 25  1  0
 25 26  1  0
 26 27  2  0
 27 28  1  0
 28 29  1  0
 29 30  2  0
 30 31  1  0
 30 32  1  0
 32 33  1  0
 33 34  1  0
 32 35  2  0
 26 36  1  0
 36 37  1  0
 37 38  1  0
 38 39  1  0
 39 40  2  0
 39 41  1  0
 41 42  1  0
 38 43  2  0
 43 44  1  0
 44 45  1  0
 45 46  2  3
 46 47  1  0
 47 48  1  0
 48 49  1  0
 49 50  1  0
 50 51  2  0
 50 52  1  0
 52 53  1  0
 49 54  2  0
 54 55  1  0
 55 56  1  0
 56 57  2  3
 57 58  1  0
 58 59  1  0
 59 60  1  0
 60 61  1  0
 61 62  2  0
 61 63  1  0
 63 64  1  0
 60 65  2  0
 65 66  1  0
 66 67  1  0
 67 68  2  3
  9  1  2  0
 16 12  2  0
 28 24  2  0
 44 36  2  0
 55 47  2  0
 66 58  2  0
 23 15  1  0
 35 27  1  0
  1 69  1  0
  7 70  1  0
  7 71  1  0
  7 72  1  0
  8 73  1  0
 10 74  1  0
 11 75  1  0
 17 76  1  0
 19 77  1  0
 19 78  1  0
 19 79  1  0
 22 80  1  0
 22 81  1  0
 22 82  1  0
 23 83  1  0
 29 84  1  0
 31 85  1  0
 31 86  1  0
 31 87  1  0
 34 88  1  0
 34 89  1  0
 34 90  1  0
 35 91  1  0
 42 92  1  0
 42 93  1  0
 42 94  1  0
 43 95  1  0
 45 96  1  0
 46 97  1  0
 53 98  1  0
 53 99  1  0
 53100  1  0
 54101  1  0
 56102  1  0
 57103  1  0
 64104  1  0
 64105  1  0
 64106  1  0
 65107  1  0
 67108  1  0
 68109  1  0
 68110  1  0
M  END

