
     RDKit          3D

242265  0  0  0  0  0  0  0  0999 V2000
   -1.3732   -0.4402   14.6116 C   0  0  0  0  0  0  0  0  0  0  0  0
   -1.1779    0.5432   13.6459 C   0  0  0  0  0  0  0  0  0  0  0  0
   -1.6231    0.1600   12.3710 C   0  0  0  0  0  0  0  0  0  0  0  0
   -1.5565    0.9326   11.1987 C   0  0  0  0  0  0  0  0  0  0  0  0
   -0.9519    2.2736   11.1747 C   0  0  0  0  0  0  0  0  0  0  0  0
    0.4282    2.4171   10.9786 C   0  0  0  0  0  0  0  0  0  0  0  0
    0.9890    3.6910   10.8474 C   0  0  0  0  0  0  0  0  0  0  0  0
    0.1744    4.8279   10.9127 C   0  0  0  0  0  0  0  0  0  0  0  0
    0.8957    6.4561   10.6901 S   0  0  0  0  0  0  0  0  0  0  0  0
    0.5704    6.4881    8.8951 C   0  0  0  0  0  0  0  0  0  0  0  0
    0.9963    7.8268    8.3149 C   0  0  0  0  0  0  0  0  0  0  0  0
   -1.2026    4.6858   11.1387 C   0  0  0  0  0  0  0  0  0  0  0  0
   -2.0016    5.7759   11.2137 F   0  0  0  0  0  0  0  0  0  0  0  0
   -1.7641    3.4118   11.2667 C   0  0  0  0  0  0  0  0  0  0  0  0
   -2.0681    0.3597   10.0282 C   0  0  0  0  0  0  0  0  0  0  0  0
   -2.6196   -0.9227    9.9831 C   0  0  0  0  0  0  0  0  0  0  0  0
   -2.6764   -1.7086   11.1576 C   0  0  0  0  0  0  0  0  0  0  0  0
   -3.2146   -3.0824   11.1688 C   0  0  0  0  0  0  0  0  0  0  0  0
   -4.3601   -3.3888   11.9184 C   0  0  0  0  0  0  0  0  0  0  0  0
   -4.8164   -4.7076   12.0019 C   0  0  0  0  0  0  0  0  0  0  0  0
   -4.1201   -5.7365   11.3552 C   0  0  0  0  0  0  0  0  0  0  0  0
   -4.7141   -7.4300   11.4679 S   0  0  0  0  0  0  0  0  0  0  0  0
   -4.0420   -7.7585   13.1362 C   0  0  0  0  0  0  0  0  0  0  0  0
   -2.5259   -7.9077   13.1129 C   0  0  0  0  0  0  0  0  0  0  0  0
   -2.9805   -5.4343   10.5961 C   0  0  0  0  0  0  0  0  0  0  0  0
   -2.5311   -4.1100   10.5016 C   0  0  0  0  0  0  0  0  0  0  0  0
   -2.3021   -6.4174    9.9535 F   0  0  0  0  0  0  0  0  0  0  0  0
   -2.1736   -1.1238   12.3381 C   0  0  0  0  0  0  0  0  0  0  0  0
   -2.0906   -1.7837   13.8856 S   0  0  0  0  0  0  0  0  0  0  0  0
   -3.0832   -1.2732    8.6986 C   0  0  0  0  0  0  0  0  0  0  0  0
   -2.8958   -0.2621    7.7435 C   0  0  0  0  0  0  0  0  0  0  0  0
   -2.1386    1.0399    8.5036 S   0  0  0  0  0  0  0  0  0  0  0  0
   -3.2733   -0.3512    6.3064 C   0  0  0  0  0  0  0  0  0  0  0  0
   -3.8369   -1.7780    5.5845 S   0  0  0  0  0  0  0  0  0  0  0  0
   -3.9913   -1.1849    4.0230 C   0  0  0  0  0  0  0  0  0  0  0  0
   -3.5717    0.1424    4.0245 C   0  0  0  0  0  0  0  0  0  0  0  0
   -3.1844    0.6262    5.2871 C   0  0  0  0  0  0  0  0  0  0  0  0
   -2.7406    1.9570    5.4013 C   0  0  0  0  0  0  0  0  0  0  0  0
   -2.6451    2.7737    4.2546 C   0  0  0  0  0  0  0  0  0  0  0  0
   -2.1139    4.1767    4.3712 C   0  0  0  0  0  0  0  0  0  0  0  0
   -2.9935    2.2609    2.9884 C   0  0  0  0  0  0  0  0  0  0  0  0
   -2.8337    3.0782    1.8557 O   0  0  0  0  0  0  0  0  0  0  0  0
   -3.0125    2.6426    0.5126 C   0  0  0  0  0  0  0  0  0  0  0  0
   -3.4804    0.9465    2.8833 C   0  0  0  0  0  0  0  0  0  0  0  0
   -4.2542   -1.9728    2.8161 C   0  0  0  0  0  0  0  0  0  0  0  0
   -5.4450   -1.8832    2.0892 C   0  0  0  0  0  0  0  0  0  0  0  0
   -5.2834   -2.1583    0.7152 C   0  0  0  0  0  0  0  0  0  0  0  0
   -6.2487   -1.9360   -0.2976 C   0  0  0  0  0  0  0  0  0  0  0  0
   -7.6306   -1.5209    0.0262 C   0  0  0  0  0  0  0  0  0  0  0  0
   -8.4481   -2.3480    0.8112 C   0  0  0  0  0  0  0  0  0  0  0  0
   -9.7631   -1.9696    1.0999 C   0  0  0  0  0  0  0  0  0  0  0  0
  -10.2756   -0.7674    0.5975 C   0  0  0  0  0  0  0  0  0  0  0  0
  -11.9809   -0.3145    0.9453 S   0  0  0  0  0  0  0  0  0  0  0  0
  -12.6644   -1.0087   -0.6028 C   0  0  0  0  0  0  0  0  0  0  0  0
  -12.7528   -2.5287   -0.5416 C   0  0  0  0  0  0  0  0  0  0  0  0
   -9.4535    0.0771   -0.1600 C   0  0  0  0  0  0  0  0  0  0  0  0
   -9.9301    1.2551   -0.6363 F   0  0  0  0  0  0  0  0  0  0  0  0
   -8.1361   -0.2971   -0.4391 C   0  0  0  0  0  0  0  0  0  0  0  0
   -5.7982   -2.0177   -1.6316 C   0  0  0  0  0  0  0  0  0  0  0  0
   -4.4733   -2.3055   -1.9560 C   0  0  0  0  0  0  0  0  0  0  0  0
   -3.5075   -2.5004   -0.9514 C   0  0  0  0  0  0  0  0  0  0  0  0
   -2.0681   -2.3843   -1.2646 C   0  0  0  0  0  0  0  0  0  0  0  0
   -1.5790   -1.1697   -1.7762 C   0  0  0  0  0  0  0  0  0  0  0  0
   -0.2379   -1.0479   -2.1368 C   0  0  0  0  0  0  0  0  0  0  0  0
    0.6348   -2.1241   -1.9656 C   0  0  0  0  0  0  0  0  0  0  0  0
    2.3492   -1.9491   -2.4723 S   0  0  0  0  0  0  0  0  0  0  0  0
    2.9731   -1.4903   -0.8183 C   0  0  0  0  0  0  0  0  0  0  0  0
    2.7002   -0.0306   -0.4857 C   0  0  0  0  0  0  0  0  0  0  0  0
    0.1578   -3.3347   -1.4378 C   0  0  0  0  0  0  0  0  0  0  0  0
   -1.1921   -3.4647   -1.0873 C   0  0  0  0  0  0  0  0  0  0  0  0
    0.9977   -4.3875   -1.2744 F   0  0  0  0  0  0  0  0  0  0  0  0
   -3.9571   -2.4552    0.3766 C   0  0  0  0  0  0  0  0  0  0  0  0
   -3.0066   -2.3721    1.7579 S   0  0  0  0  0  0  0  0  0  0  0  0
   -4.1976   -2.1896   -3.3244 C   0  0  0  0  0  0  0  0  0  0  0  0
   -5.2690   -1.7197   -4.0858 C   0  0  0  0  0  0  0  0  0  0  0  0
   -6.5945   -1.5539   -3.0458 S   0  0  0  0  0  0  0  0  0  0  0  0
   -5.0563   -1.0666   -5.4039 C   0  0  0  0  0  0  0  0  0  0  0  0
   -3.6147   -1.3170   -6.2452 S   0  0  0  0  0  0  0  0  0  0  0  0
   -3.4884    0.1644   -7.0131 C   0  0  0  0  0  0  0  0  0  0  0  0
   -4.6211    0.8897   -6.6573 C   0  0  0  0  0  0  0  0  0  0  0  0
   -5.5057    0.2108   -5.7909 C   0  0  0  0  0  0  0  0  0  0  0  0
   -6.6602    0.8612   -5.3386 C   0  0  0  0  0  0  0  0  0  0  0  0
   -6.9246    2.1849   -5.7371 C   0  0  0  0  0  0  0  0  0  0  0  0
   -8.1847    2.8631   -5.2773 C   0  0  0  0  0  0  0  0  0  0  0  0
   -6.0327    2.8603   -6.6023 C   0  0  0  0  0  0  0  0  0  0  0  0
   -6.3399    4.1715   -7.0035 O   0  0  0  0  0  0  0  0  0  0  0  0
   -5.5260    4.9598   -7.8665 C   0  0  0  0  0  0  0  0  0  0  0  0
   -4.8678    2.2067   -7.0481 C   0  0  0  0  0  0  0  0  0  0  0  0
   -2.1651    0.7411   -7.2673 C   0  0  0  0  0  0  0  0  0  0  0  0
   -1.1669    0.0895   -7.9861 C   0  0  0  0  0  0  0  0  0  0  0  0
    0.1345    0.4621   -7.6016 C   0  0  0  0  0  0  0  0  0  0  0  0
    1.3272   -0.1413   -8.0514 C   0  0  0  0  0  0  0  0  0  0  0  0
    1.3259   -1.0509   -9.2179 C   0  0  0  0  0  0  0  0  0  0  0  0
    0.8009   -0.6010  -10.4396 C   0  0  0  0  0  0  0  0  0  0  0  0
    0.7507   -1.4528  -11.5435 C   0  0  0  0  0  0  0  0  0  0  0  0
    1.2440   -2.7578  -11.4466 C   0  0  0  0  0  0  0  0  0  0  0  0
    1.2160   -3.8230  -12.8966 S   0  0  0  0  0  0  0  0  0  0  0  0
    2.7391   -3.1352  -13.6420 C   0  0  0  0  0  0  0  0  0  0  0  0
    3.9846   -3.7174  -12.9865 C   0  0  0  0  0  0  0  0  0  0  0  0
    1.7548   -3.2198  -10.2247 C   0  0  0  0  0  0  0  0  0  0  0  0
    2.2141   -4.4907  -10.1128 F   0  0  0  0  0  0  0  0  0  0  0  0
    1.7903   -2.3711   -9.1141 C   0  0  0  0  0  0  0  0  0  0  0  0
    2.4976    0.1555   -7.3229 C   0  0  0  0  0  0  0  0  0  0  0  0
    2.5069    1.0451   -6.2408 C   0  0  0  0  0  0  0  0  0  0  0  0
    1.3255    1.7248   -5.8580 C   0  0  0  0  0  0  0  0  0  0  0  0
    1.2935    2.6874   -4.7299 C   0  0  0  0  0  0  0  0  0  0  0  0
    1.7273    2.3072   -3.4508 C   0  0  0  0  0  0  0  0  0  0  0  0
    1.8132    3.2525   -2.4256 C   0  0  0  0  0  0  0  0  0  0  0  0
    1.4219    4.5757   -2.6546 C   0  0  0  0  0  0  0  0  0  0  0  0
    1.6425    5.8132   -1.3679 S   0  0  0  0  0  0  0  0  0  0  0  0
    0.0553    5.4918   -0.5218 C   0  0  0  0  0  0  0  0  0  0  0  0
    0.2646    4.5379    0.6466 C   0  0  0  0  0  0  0  0  0  0  0  0
    0.9225    4.9456   -3.9134 C   0  0  0  0  0  0  0  0  0  0  0  0
    0.8631    4.0069   -4.9469 C   0  0  0  0  0  0  0  0  0  0  0  0
    0.5388    6.2263   -4.1489 F   0  0  0  0  0  0  0  0  0  0  0  0
    0.1544    1.3975   -6.5632 C   0  0  0  0  0  0  0  0  0  0  0  0
   -1.4303    1.7741   -6.1493 S   0  0  0  0  0  0  0  0  0  0  0  0
    3.7435    1.0786   -5.5706 C   0  0  0  0  0  0  0  0  0  0  0  0
    4.6880    0.2071   -6.1030 C   0  0  0  0  0  0  0  0  0  0  0  0
    4.0118   -0.5749   -7.4361 S   0  0  0  0  0  0  0  0  0  0  0  0
    5.7839   -0.3711   -5.3147 C   0  0  0  0  0  0  0  0  0  0  0  0
    7.0264   -0.7832   -5.7968 C   0  0  0  0  0  0  0  0  0  0  0  0
    7.7302   -1.5952   -4.8806 C   0  0  0  0  0  0  0  0  0  0  0  0
    9.0043   -2.1874   -5.0625 C   0  0  0  0  0  0  0  0  0  0  0  0
    9.8882   -1.8621   -6.2079 C   0  0  0  0  0  0  0  0  0  0  0  0
    9.4712   -2.0660   -7.5326 C   0  0  0  0  0  0  0  0  0  0  0  0
   10.3360   -1.7840   -8.5958 C   0  0  0  0  0  0  0  0  0  0  0  0
   11.6371   -1.3277   -8.3458 C   0  0  0  0  0  0  0  0  0  0  0  0
   12.7698   -1.0686   -9.7183 S   0  0  0  0  0  0  0  0  0  0  0  0
   12.6546    0.7564   -9.7253 C   0  0  0  0  0  0  0  0  0  0  0  0
   11.3110    1.2337  -10.2623 C   0  0  0  0  0  0  0  0  0  0  0  0
   12.0665   -1.1380   -7.0267 C   0  0  0  0  0  0  0  0  0  0  0  0
   13.3295   -0.7214   -6.7651 F   0  0  0  0  0  0  0  0  0  0  0  0
   11.1893   -1.3866   -5.9662 C   0  0  0  0  0  0  0  0  0  0  0  0
    9.4425   -3.0567   -4.0417 C   0  0  0  0  0  0  0  0  0  0  0  0
    8.7038   -3.3018   -2.8812 C   0  0  0  0  0  0  0  0  0  0  0  0
    7.4744   -2.6582   -2.6704 C   0  0  0  0  0  0  0  0  0  0  0  0
    6.6847   -2.9000   -1.4485 C   0  0  0  0  0  0  0  0  0  0  0  0
    5.7810   -3.9706   -1.3972 C   0  0  0  0  0  0  0  0  0  0  0  0
    5.0993   -4.2568   -0.2104 C   0  0  0  0  0  0  0  0  0  0  0  0
    5.3111   -3.4732    0.9296 C   0  0  0  0  0  0  0  0  0  0  0  0
    4.4284   -3.8524    2.4461 S   0  0  0  0  0  0  0  0  0  0  0  0
    5.7719   -4.8927    3.1081 C   0  0  0  0  0  0  0  0  0  0  0  0
    5.3638   -5.4861    4.4495 C   0  0  0  0  0  0  0  0  0  0  0  0
    6.1964   -2.3859    0.8742 C   0  0  0  0  0  0  0  0  0  0  0  0
    6.8831   -2.1038   -0.3111 C   0  0  0  0  0  0  0  0  0  0  0  0
    6.3958   -1.6095    1.9671 F   0  0  0  0  0  0  0  0  0  0  0  0
    7.0146   -1.8163   -3.6940 C   0  0  0  0  0  0  0  0  0  0  0  0
    5.5535   -0.9989   -3.7654 S   0  0  0  0  0  0  0  0  0  0  0  0
    9.3103   -4.2313   -2.0207 C   0  0  0  0  0  0  0  0  0  0  0  0
   10.5183   -4.7196   -2.5065 C   0  0  0  0  0  0  0  0  0  0  0  0
   10.8357   -4.0012   -3.9979 S   0  0  0  0  0  0  0  0  0  0  0  0
   -1.1102   -0.3527   15.6566 H   0  0  0  0  0  0  0  0  0  0  0  0
   -0.7310    1.5052   13.8682 H   0  0  0  0  0  0  0  0  0  0  0  0
    1.0633    1.5418   10.9025 H   0  0  0  0  0  0  0  0  0  0  0  0
    2.0542    3.7911   10.6849 H   0  0  0  0  0  0  0  0  0  0  0  0
   -0.5154    6.3433    8.7085 H   0  0  0  0  0  0  0  0  0  0  0  0
    1.1383    5.6740    8.3946 H   0  0  0  0  0  0  0  0  0  0  0  0
    0.7341    7.8650    7.2356 H   0  0  0  0  0  0  0  0  0  0  0  0
    2.0945    7.9592    8.4226 H   0  0  0  0  0  0  0  0  0  0  0  0
    0.4729    8.6556    8.8402 H   0  0  0  0  0  0  0  0  0  0  0  0
   -2.8316    3.3085   11.4201 H   0  0  0  0  0  0  0  0  0  0  0  0
   -4.8939   -2.6076   12.4468 H   0  0  0  0  0  0  0  0  0  0  0  0
   -5.6960   -4.9342   12.5873 H   0  0  0  0  0  0  0  0  0  0  0  0
   -4.3343   -6.9487   13.8383 H   0  0  0  0  0  0  0  0  0  0  0  0
   -4.4890   -8.7059   13.5013 H   0  0  0  0  0  0  0  0  0  0  0  0
   -2.0431   -6.9321   12.9005 H   0  0  0  0  0  0  0  0  0  0  0  0
   -2.2209   -8.6473   12.3437 H   0  0  0  0  0  0  0  0  0  0  0  0
   -2.1751   -8.2615   14.1052 H   0  0  0  0  0  0  0  0  0  0  0  0
   -1.6390   -3.8900    9.9286 H   0  0  0  0  0  0  0  0  0  0  0  0
   -3.5469   -2.2247    8.4719 H   0  0  0  0  0  0  0  0  0  0  0  0
   -2.4570    2.3820    6.3442 H   0  0  0  0  0  0  0  0  0  0  0  0
   -2.0094    4.4917    5.4304 H   0  0  0  0  0  0  0  0  0  0  0  0
   -1.1173    4.2337    3.8822 H   0  0  0  0  0  0  0  0  0  0  0  0
   -2.8052    4.8855    3.8675 H   0  0  0  0  0  0  0  0  0  0  0  0
   -4.0683    2.3467    0.3432 H   0  0  0  0  0  0  0  0  0  0  0  0
   -2.3340    1.7895    0.2941 H   0  0  0  0  0  0  0  0  0  0  0  0
   -2.7618    3.4763   -0.1761 H   0  0  0  0  0  0  0  0  0  0  0  0
   -3.7704    0.5494    1.9191 H   0  0  0  0  0  0  0  0  0  0  0  0
   -6.3545   -1.4804    2.5154 H   0  0  0  0  0  0  0  0  0  0  0  0
   -8.0733   -3.2916    1.1875 H   0  0  0  0  0  0  0  0  0  0  0  0
  -10.3850   -2.6160    1.7059 H   0  0  0  0  0  0  0  0  0  0  0  0
  -12.0502   -0.6936   -1.4738 H   0  0  0  0  0  0  0  0  0  0  0  0
  -13.6868   -0.5978   -0.7387 H   0  0  0  0  0  0  0  0  0  0  0  0
  -13.3303   -2.9038   -1.4125 H   0  0  0  0  0  0  0  0  0  0  0  0
  -11.7405   -2.9800   -0.5818 H   0  0  0  0  0  0  0  0  0  0  0  0
  -13.2655   -2.8523    0.3893 H   0  0  0  0  0  0  0  0  0  0  0  0
   -7.5094    0.3662   -1.0193 H   0  0  0  0  0  0  0  0  0  0  0  0
   -2.2409   -0.3228   -1.9092 H   0  0  0  0  0  0  0  0  0  0  0  0
    0.1167   -0.1164   -2.5586 H   0  0  0  0  0  0  0  0  0  0  0  0
    2.5423   -2.1505   -0.0346 H   0  0  0  0  0  0  0  0  0  0  0  0
    4.0690   -1.6329   -0.8322 H   0  0  0  0  0  0  0  0  0  0  0  0
    1.6099    0.1697   -0.4486 H   0  0  0  0  0  0  0  0  0  0  0  0
    3.1787    0.6251   -1.2405 H   0  0  0  0  0  0  0  0  0  0  0  0
    3.1311    0.2074    0.5097 H   0  0  0  0  0  0  0  0  0  0  0  0
   -1.5584   -4.4034   -0.6922 H   0  0  0  0  0  0  0  0  0  0  0  0
   -3.2030   -2.3232   -3.7253 H   0  0  0  0  0  0  0  0  0  0  0  0
   -7.3745    0.3495   -4.7138 H   0  0  0  0  0  0  0  0  0  0  0  0
   -8.9146    2.8947   -6.1148 H   0  0  0  0  0  0  0  0  0  0  0  0
   -8.6453    2.3290   -4.4199 H   0  0  0  0  0  0  0  0  0  0  0  0
   -7.9631    3.9035   -4.9503 H   0  0  0  0  0  0  0  0  0  0  0  0
   -5.4251    4.4641   -8.8544 H   0  0  0  0  0  0  0  0  0  0  0  0
   -6.0061    5.9483   -8.0141 H   0  0  0  0  0  0  0  0  0  0  0  0
   -4.5246    5.1176   -7.4098 H   0  0  0  0  0  0  0  0  0  0  0  0
   -4.1690    2.7012   -7.7112 H   0  0  0  0  0  0  0  0  0  0  0  0
   -1.3804   -0.7295   -8.6624 H   0  0  0  0  0  0  0  0  0  0  0  0
    0.4308    0.4116  -10.5372 H   0  0  0  0  0  0  0  0  0  0  0  0
    0.3383   -1.0930  -12.4779 H   0  0  0  0  0  0  0  0  0  0  0  0
    2.7513   -2.0266  -13.5624 H   0  0  0  0  0  0  0  0  0  0  0  0
    2.7465   -3.3993  -14.7208 H   0  0  0  0  0  0  0  0  0  0  0  0
    4.0201   -3.4448  -11.9118 H   0  0  0  0  0  0  0  0  0  0  0  0
    3.9902   -4.8228  -13.0868 H   0  0  0  0  0  0  0  0  0  0  0  0
    4.8904   -3.3083  -13.4800 H   0  0  0  0  0  0  0  0  0  0  0  0
    2.1739   -2.7454   -8.1747 H   0  0  0  0  0  0  0  0  0  0  0  0
    2.0394    1.2897   -3.2579 H   0  0  0  0  0  0  0  0  0  0  0  0
    2.2070    2.9602   -1.4599 H   0  0  0  0  0  0  0  0  0  0  0  0
   -0.7086    5.0821   -1.2194 H   0  0  0  0  0  0  0  0  0  0  0  0
   -0.3232    6.4583   -0.1263 H   0  0  0  0  0  0  0  0  0  0  0  0
   -0.6798    4.4356    1.2198 H   0  0  0  0  0  0  0  0  0  0  0  0
    0.5694    3.5349    0.2779 H   0  0  0  0  0  0  0  0  0  0  0  0
    1.0456    4.9341    1.3303 H   0  0  0  0  0  0  0  0  0  0  0  0
    0.5133    4.3141   -5.9254 H   0  0  0  0  0  0  0  0  0  0  0  0
    3.9331    1.6433   -4.6705 H   0  0  0  0  0  0  0  0  0  0  0  0
    7.3765   -0.5312   -6.7890 H   0  0  0  0  0  0  0  0  0  0  0  0
    8.4838   -2.4607   -7.7404 H   0  0  0  0  0  0  0  0  0  0  0  0
   10.0009   -1.9456   -9.6125 H   0  0  0  0  0  0  0  0  0  0  0  0
   13.4598    1.1435  -10.3844 H   0  0  0  0  0  0  0  0  0  0  0  0
   12.8265    1.1629   -8.7048 H   0  0  0  0  0  0  0  0  0  0  0  0
   11.1076    0.7796  -11.2567 H   0  0  0  0  0  0  0  0  0  0  0  0
   10.4932    0.9770   -9.5561 H   0  0  0  0  0  0  0  0  0  0  0  0
   11.3361    2.3393  -10.3759 H   0  0  0  0  0  0  0  0  0  0  0  0
   11.5365   -1.2297   -4.9531 H   0  0  0  0  0  0  0  0  0  0  0  0
    5.6192   -4.5891   -2.2714 H   0  0  0  0  0  0  0  0  0  0  0  0
    4.4081   -5.0891   -0.1804 H   0  0  0  0  0  0  0  0  0  0  0  0
    5.9899   -5.7185    2.3972 H   0  0  0  0  0  0  0  0  0  0  0  0
    6.6880   -4.2771    3.2415 H   0  0  0  0  0  0  0  0  0  0  0  0
    5.1094   -4.6760    5.1676 H   0  0  0  0  0  0  0  0  0  0  0  0
    4.4847   -6.1531    4.3186 H   0  0  0  0  0  0  0  0  0  0  0  0
    6.2056   -6.0807    4.8686 H   0  0  0  0  0  0  0  0  0  0  0  0
    7.5770   -1.2737   -0.3406 H   0  0  0  0  0  0  0  0  0  0  0  0
    8.8836   -4.5458   -1.0771 H   0  0  0  0  0  0  0  0  0  0  0  0
   11.1425   -5.4501   -2.0077 H   0  0  0  0  0  0  0  0  0  0  0  0
  1  2  2  0
  2  3  1  0
  3  4  2  0
  4  5  1  0
  5  6  2  0
  6  7  1  0
  7  8  2  0
  8  9  1  0
  9 10  1  0
 10 11  1  0
  8 12  1  0
 12 13  1  0
 12 14  2  0
  4 15  1  0
 15 16  2  0
 16 17  1  0
 17 18  1  0
 18 19  2  0
 19 20  1  0
 20 21  2  0
 21 22  1  0
 22 23  1  0
 23 24  1  0
 21 25  1  0
 25 26  2  0
 25 27  1  0
 17 28  2  0
 28 29  1  0
 16 30  1  0
 30 31  2  0
 31 32  1  0
 31 33  1  0
 33 34  1  0
 34 35  1  0
 35 36  2  0
 36 37  1  0
 37 38  1  0
 38 39  2  0
 39 40  1  0
 39 41  1  0
 41 42  1  0
 42 43  1  0
 41 44  2  0
 35 45  1  0
 45 46  2  0
 46 47  1  0
 47 48  2  0
 48 49  1  0
 49 50  2  0
 50 51  1  0
 51 52  2  0
 52 53  1  0
 53 54  1  0
 54 55  1  0
 52 56  1  0
 56 57  1  0
 56 58  2  0
 48 59  1  0
 59 60  2  0
 60 61  1  0
 61 62  1  0
 62 63  2  0
 63 64  1  0
 64 65  2  0
 65 66  1  0
 66 67  1  0
 67 68  1  0
 65 69  1  0
 69 70  2  0
 69 71  1  0
 61 72  2  0
 72 73  1  0
 60 74  1  0
 74 75  2  0
 75 76  1  0
 75 77  1  0
 77 78  1  0
 78 79  1  0
 79 80  2  0
 80 81  1  0
 81 82  1  0
 82 83  2  0
 83 84  1  0
 83 85  1  0
 85 86  1  0
 86 87  1  0
 85 88  2  0
 79 89  1  0
 89 90  2  0
 90 91  1  0
 91 92  2  0
 92 93  1  0
 93 94  2  0
 94 95  1  0
 95 96  2  0
 96 97  1  0
 97 98  1  0
 98 99  1  0
 96100  1  0
100101  1  0
100102  2  0
 92103  1  0
103104  2  0
104105  1  0
105106  1  0
106107  2  0
107108  1  0
108109  2  0
109110  1  0
110111  1  0
111112  1  0
109113  1  0
113114  2  0
113115  1  0
105116  2  0
116117  1  0
104118  1  0
118119  2  0
119120  1  0
119121  1  0
121122  2  0
122123  1  0
123124  2  0
124125  1  0
125126  2  0
126127  1  0
127128  2  0
128129  1  0
129130  1  0
130131  1  0
128132  1  0
132133  1  0
132134  2  0
124135  1  0
135136  2  0
136137  1  0
137138  1  0
138139  2  0
139140  1  0
140141  2  0
141142  1  0
142143  1  0
143144  1  0
141145  1  0
145146  2  0
145147  1  0
137148  2  0
148149  1  0
136150  1  0
150151  2  0
151152  1  0
 29  1  1  0
 37 33  2  0
 73 45  1  0
 81 77  2  0
117 89  1  0
149121  1  0
 28  3  1  0
 44 36  1  0
 72 47  1  0
 88 80  1  0
116 91  1  0
148123  1  0
 14  5  1  0
 32 15  1  0
 58 49  1  0
 76 59  1  0
102 93  1  0
120103  1  0
134125  1  0
152135  1  0
 26 18  1  0
 70 62  1  0
114106  1  0
146138  1  0
  1153  1  0
  2154  1  0
  6155  1  0
  7156  1  0
 10157  1  0
 10158  1  0
 11159  1  0
 11160  1  0
 11161  1  0
 14162  1  0
 19163  1  0
 20164  1  0
 23165  1  0
 23166  1  0
 24167  1  0
 24168  1  0
 24169  1  0
 26170  1  0
 30171  1  0
 38172  1  0
 40173  1  0
 40174  1  0
 40175  1  0
 43176  1  0
 43177  1  0
 43178  1  0
 44179  1  0
 46180  1  0
 50181  1  0
 51182  1  0
 54183  1  0
 54184  1  0
 55185  1  0
 55186  1  0
 55187  1  0
 58188  1  0
 63189  1  0
 64190  1  0
 67191  1  0
 67192  1  0
 68193  1  0
 68194  1  0
 68195  1  0
 70196  1  0
 74197  1  0
 82198  1  0
 84199  1  0
 84200  1  0
 84201  1  0
 87202  1  0
 87203  1  0
 87204  1  0
 88205  1  0
 90206  1  0
 94207  1  0
 95208  1  0
 98209  1  0
 98210  1  0
 99211  1  0
 99212  1  0
 99213  1  0
102214  1  0
107215  1  0
108216  1  0
111217  1  0
111218  1  0
112219  1  0
112220  1  0
112221  1  0
114222  1  0
118223  1  0
122224  1  0
126225  1  0
127226  1  0
130227  1  0
130228  1  0
131229  1  0
131230  1  0
131231  1  0
134232  1  0
139233  1  0
140234  1  0
143235  1  0
143236  1  0
144237  1  0
144238  1  0
144239  1  0
146240  1  0
150241  1  0
151242  1  0
M  END

