
     RDKit          3D

110117  0  0  0  0  0  0  0  0999 V2000
    7.5979   -5.2662    6.1986 C   0  0  0  0  0  0  0  0  0  0  0  0
    7.5878   -4.2288    5.3448 N   0  0  0  0  0  0  0  0  0  0  0  0
    6.3163   -3.7752    5.2733 C   0  0  0  0  0  0  0  0  0  0  0  0
    5.5025   -4.5452    6.1066 C   0  0  0  0  0  0  0  0  0  0  0  0
    6.3317   -5.4869    6.6910 C   0  0  0  0  0  0  0  0  0  0  0  0
    4.0472   -4.4233    6.3654 C   0  0  0  0  0  0  0  0  0  0  0  0
    3.4068   -3.4165    5.9625 O   0  0  0  0  0  0  0  0  0  0  0  0
    3.3226   -5.4690    7.1566 C   0  0  0  0  0  0  0  0  0  0  0  0
    5.8747   -2.6611    4.3956 C   0  0  0  0  0  0  0  0  0  0  0  0
    6.7323   -1.8893    3.7152 C   0  0  0  0  0  0  0  0  0  0  0  0
    6.2887   -0.8062    2.8197 C   0  0  0  0  0  0  0  0  0  0  0  0
    5.0645   -0.2368    2.8248 N   0  0  0  0  0  0  0  0  0  0  0  0
    5.0583    0.6696    1.8287 C   0  0  0  0  0  0  0  0  0  0  0  0
    6.2973    0.6978    1.1920 C   0  0  0  0  0  0  0  0  0  0  0  0
    7.0803   -0.2438    1.8364 C   0  0  0  0  0  0  0  0  0  0  0  0
    6.7130    1.5425    0.0535 C   0  0  0  0  0  0  0  0  0  0  0  0
    5.8889    2.3373   -0.4754 O   0  0  0  0  0  0  0  0  0  0  0  0
    8.0957    1.4451   -0.5121 C   0  0  0  0  0  0  0  0  0  0  0  0
    3.8865    1.5016    1.5078 C   0  0  0  0  0  0  0  0  0  0  0  0
    3.0602    1.2780    0.4737 C   0  0  0  0  0  0  0  0  0  0  0  0
    3.1104    0.1060   -0.4285 C   0  0  0  0  0  0  0  0  0  0  0  0
    2.6213    0.1309   -1.6835 N   0  0  0  0  0  0  0  0  0  0  0  0
    2.7906   -1.1040   -2.1977 C   0  0  0  0  0  0  0  0  0  0  0  0
    3.4010   -1.9309   -1.2604 C   0  0  0  0  0  0  0  0  0  0  0  0
    3.5872   -1.1602   -0.1294 C   0  0  0  0  0  0  0  0  0  0  0  0
    3.7728   -3.3560   -1.4008 C   0  0  0  0  0  0  0  0  0  0  0  0
    3.4547   -4.0003   -2.4396 O   0  0  0  0  0  0  0  0  0  0  0  0
    4.5256   -4.0580   -0.3131 C   0  0  0  0  0  0  0  0  0  0  0  0
    2.5366   -1.4528   -3.6066 C   0  0  0  0  0  0  0  0  0  0  0  0
    1.4922   -1.0531   -4.3427 C   0  0  0  0  0  0  0  0  0  0  0  0
    0.2767   -0.3536   -3.8579 C   0  0  0  0  0  0  0  0  0  0  0  0
   -0.4036   -0.4558   -2.3125 S   0  0  0  0  0  0  0  0  0  0  0  0
   -1.8636    0.3229   -2.6573 C   0  0  0  0  0  0  0  0  0  0  0  0
   -1.8481    0.6507   -4.0179 C   0  0  0  0  0  0  0  0  0  0  0  0
   -0.6644    0.2788   -4.6808 C   0  0  0  0  0  0  0  0  0  0  0  0
   -0.5140    0.5288   -6.0530 C   0  0  0  0  0  0  0  0  0  0  0  0
   -1.5633    1.1239   -6.7745 C   0  0  0  0  0  0  0  0  0  0  0  0
   -1.4003    1.4075   -8.2428 C   0  0  0  0  0  0  0  0  0  0  0  0
   -2.7668    1.4670   -6.1204 C   0  0  0  0  0  0  0  0  0  0  0  0
   -3.8029    2.0481   -6.8741 O   0  0  0  0  0  0  0  0  0  0  0  0
   -5.0513    2.4817   -6.3354 C   0  0  0  0  0  0  0  0  0  0  0  0
   -2.9060    1.2188   -4.7381 C   0  0  0  0  0  0  0  0  0  0  0  0
   -2.9609    0.5800   -1.6958 C   0  0  0  0  0  0  0  0  0  0  0  0
   -3.8444    2.0154   -1.6181 S   0  0  0  0  0  0  0  0  0  0  0  0
   -5.0052    1.4984   -0.5229 C   0  0  0  0  0  0  0  0  0  0  0  0
   -4.7214    0.1748   -0.1977 C   0  0  0  0  0  0  0  0  0  0  0  0
   -3.5734   -0.3340   -0.8318 C   0  0  0  0  0  0  0  0  0  0  0  0
   -3.1880   -1.6614   -0.6199 C   0  0  0  0  0  0  0  0  0  0  0  0
   -3.9327   -2.4739    0.2539 C   0  0  0  0  0  0  0  0  0  0  0  0
   -3.4900   -3.8861    0.5251 C   0  0  0  0  0  0  0  0  0  0  0  0
   -5.0876   -1.9617    0.8914 C   0  0  0  0  0  0  0  0  0  0  0  0
   -5.8100   -2.8010    1.7586 O   0  0  0  0  0  0  0  0  0  0  0  0
   -7.0130   -2.4362    2.4287 C   0  0  0  0  0  0  0  0  0  0  0  0
   -5.4889   -0.6322    0.6472 C   0  0  0  0  0  0  0  0  0  0  0  0
   -6.2634    2.2048   -0.2659 C   0  0  0  0  0  0  0  0  0  0  0  0
   -7.3796    2.0076   -0.9860 N   0  0  0  0  0  0  0  0  0  0  0  0
   -8.3026    2.8755   -0.5311 C   0  0  0  0  0  0  0  0  0  0  0  0
   -7.7638    3.6228    0.5138 C   0  0  0  0  0  0  0  0  0  0  0  0
   -6.4565    3.1985    0.6702 C   0  0  0  0  0  0  0  0  0  0  0  0
   -8.4426    4.6164    1.3718 C   0  0  0  0  0  0  0  0  0  0  0  0
   -9.6712    4.4764    1.6492 O   0  0  0  0  0  0  0  0  0  0  0  0
   -7.6813    5.7610    1.9679 C   0  0  0  0  0  0  0  0  0  0  0  0
   -9.6321    3.0010   -1.1702 C   0  0  0  0  0  0  0  0  0  0  0  0
  -10.2900    4.1502   -1.3177 C   0  0  0  0  0  0  0  0  0  0  0  0
    8.4828   -5.8338    6.4541 H   0  0  0  0  0  0  0  0  0  0  0  0
    8.4230   -3.8841    4.8231 H   0  0  0  0  0  0  0  0  0  0  0  0
    6.0489   -6.2537    7.3977 H   0  0  0  0  0  0  0  0  0  0  0  0
    3.6046   -6.4824    6.7969 H   0  0  0  0  0  0  0  0  0  0  0  0
    3.5915   -5.3728    8.2292 H   0  0  0  0  0  0  0  0  0  0  0  0
    2.2223   -5.3496    7.0435 H   0  0  0  0  0  0  0  0  0  0  0  0
    4.8170   -2.4894    4.2742 H   0  0  0  0  0  0  0  0  0  0  0  0
    7.7973   -2.0622    3.7755 H   0  0  0  0  0  0  0  0  0  0  0  0
    4.2656   -0.4473    3.4650 H   0  0  0  0  0  0  0  0  0  0  0  0
    8.1004   -0.5175    1.6005 H   0  0  0  0  0  0  0  0  0  0  0  0
    8.2945    2.2970   -1.1967 H   0  0  0  0  0  0  0  0  0  0  0  0
    8.8472    1.4715    0.3057 H   0  0  0  0  0  0  0  0  0  0  0  0
    8.1994    0.4931   -1.0788 H   0  0  0  0  0  0  0  0  0  0  0  0
    3.7241    2.3793    2.1182 H   0  0  0  0  0  0  0  0  0  0  0  0
    2.3014    2.0233    0.2669 H   0  0  0  0  0  0  0  0  0  0  0  0
    2.2320    0.9654   -2.1786 H   0  0  0  0  0  0  0  0  0  0  0  0
    3.9934   -1.5058    0.8089 H   0  0  0  0  0  0  0  0  0  0  0  0
    3.9618   -3.9870    0.6391 H   0  0  0  0  0  0  0  0  0  0  0  0
    4.6663   -5.1299   -0.5619 H   0  0  0  0  0  0  0  0  0  0  0  0
    5.5231   -3.5846   -0.1837 H   0  0  0  0  0  0  0  0  0  0  0  0
    3.2859   -2.0527   -4.1058 H   0  0  0  0  0  0  0  0  0  0  0  0
    1.5084   -1.3347   -5.3916 H   0  0  0  0  0  0  0  0  0  0  0  0
    0.4064    0.2716   -6.5601 H   0  0  0  0  0  0  0  0  0  0  0  0
   -0.4421    1.0003   -8.6318 H   0  0  0  0  0  0  0  0  0  0  0  0
   -1.4083    2.5046   -8.4129 H   0  0  0  0  0  0  0  0  0  0  0  0
   -2.2339    0.9418   -8.8082 H   0  0  0  0  0  0  0  0  0  0  0  0
   -4.8797    3.2796   -5.5815 H   0  0  0  0  0  0  0  0  0  0  0  0
   -5.5873    1.6261   -5.8729 H   0  0  0  0  0  0  0  0  0  0  0  0
   -5.6778    2.8894   -7.1541 H   0  0  0  0  0  0  0  0  0  0  0  0
   -3.8395    1.4357   -4.2468 H   0  0  0  0  0  0  0  0  0  0  0  0
   -2.3234   -2.0715   -1.1208 H   0  0  0  0  0  0  0  0  0  0  0  0
   -2.6280   -4.1739   -0.1131 H   0  0  0  0  0  0  0  0  0  0  0  0
   -4.3292   -4.5870    0.3154 H   0  0  0  0  0  0  0  0  0  0  0  0
   -3.1927   -3.9881    1.5902 H   0  0  0  0  0  0  0  0  0  0  0  0
   -6.8464   -1.5380    3.0649 H   0  0  0  0  0  0  0  0  0  0  0  0
   -7.3282   -3.2731    3.0807 H   0  0  0  0  0  0  0  0  0  0  0  0
   -7.8132   -2.2246    1.6872 H   0  0  0  0  0  0  0  0  0  0  0  0
   -6.3790   -0.2261    1.1090 H   0  0  0  0  0  0  0  0  0  0  0  0
   -7.4870    1.3483   -1.7892 H   0  0  0  0  0  0  0  0  0  0  0  0
   -5.7408    3.5504    1.3998 H   0  0  0  0  0  0  0  0  0  0  0  0
   -7.2820    5.4696    2.9674 H   0  0  0  0  0  0  0  0  0  0  0  0
   -8.3477    6.6433    2.0733 H   0  0  0  0  0  0  0  0  0  0  0  0
   -6.8377    6.0477    1.3035 H   0  0  0  0  0  0  0  0  0  0  0  0
  -10.0499    2.1158   -1.6348 H   0  0  0  0  0  0  0  0  0  0  0  0
   -9.8955    5.0798   -0.9288 H   0  0  0  0  0  0  0  0  0  0  0  0
   -9.9431    5.1043   -0.9536 H   0  0  0  0  0  0  0  0  0  0  0  0
  1  2  1  0
  2  3  1  0
  3  4  2  0
  4  5  1  0
  4  6  1  0
  6  7  2  0
  6  8  1  0
  3  9  1  0
  9 10  2  3
 10 11  1  0
 11 12  1  0
 12 13  1  0
 13 14  2  0
 14 15  1  0
 14 16  1  0
 16 17  2  0
 16 18  1  0
 13 19  1  0
 19 20  2  3
 20 21  1  0
 21 22  1  0
 22 23  1  0
 23 24  2  0
 24 25  1  0
 24 26  1  0
 26 27  2  0
 26 28  1  0
 23 29  1  0
 29 30  2  3
 30 31  1  0
 31 32  1  0
 32 33  1  0
 33 34  2  0
 34 35  1  0
 35 36  1  0
 36 37  2  0
 37 38  1  0
 37 39  1  0
 39 40  1  0
 40 41  1  0
 39 42  2  0
 33 43  1  0
 43 44  1  0
 44 45  1  0
 45 46  2  0
 46 47  1  0
 47 48  1  0
 48 49  2  0
 49 50  1  0
 49 51  1  0
 51 52  1  0
 52 53  1  0
 51 54  2  0
 45 55  1  0
 55 56  1  0
 56 57  1  0
 57 58  2  0
 58 59  1  0
 58 60  1  0
 60 61  2  0
 60 62  1  0
 57 63  1  0
 63 64  2  3
  5  1  2  0
 15 11  2  0
 25 21  2  0
 35 31  2  0
 47 43  2  0
 59 55  2  0
 42 34  1  0
 54 46  1  0
  1 65  1  0
  2 66  1  0
  5 67  1  0
  8 68  1  0
  8 69  1  0
  8 70  1  0
  9 71  1  0
 10 72  1  0
 12 73  1  0
 15 74  1  0
 18 75  1  0
 18 76  1  0
 18 77  1  0
 19 78  1  0
 20 79  1  0
 22 80  1  0
 25 81  1  0
 28 82  1  0
 28 83  1  0
 28 84  1  0
 29 85  1  0
 30 86  1  0
 36 87  1  0
 38 88  1  0
 38 89  1  0
 38 90  1  0
 41 91  1  0
 41 92  1  0
 41 93  1  0
 42 94  1  0
 48 95  1  0
 50 96  1  0
 50 97  1  0
 50 98  1  0
 53 99  1  0
 53100  1  0
 53101  1  0
 54102  1  0
 56103  1  0
 59104  1  0
 62105  1  0
 62106  1  0
 62107  1  0
 63108  1  0
 64109  1  0
 64110  1  0
M  END

