
     RDKit          3D

182199  0  0  0  0  0  0  0  0999 V2000
   -8.9221   -5.8605  -10.1417 C   0  0  0  0  0  0  0  0  0  0  0  0
   -7.3822   -5.1849  -10.2568 S   0  0  0  0  0  0  0  0  0  0  0  0
   -7.2971   -4.5974   -8.6839 C   0  0  0  0  0  0  0  0  0  0  0  0
   -8.4808   -4.9455   -8.0320 C   0  0  0  0  0  0  0  0  0  0  0  0
   -9.3766   -5.6503   -8.8472 C   0  0  0  0  0  0  0  0  0  0  0  0
  -10.5999   -6.0965   -8.3456 C   0  0  0  0  0  0  0  0  0  0  0  0
  -10.9288   -5.8434   -7.0001 C   0  0  0  0  0  0  0  0  0  0  0  0
  -12.2402   -6.3229   -6.4463 C   0  0  0  0  0  0  0  0  0  0  0  0
  -10.0208   -5.1454   -6.1642 C   0  0  0  0  0  0  0  0  0  0  0  0
  -10.3744   -4.9162   -4.8235 O   0  0  0  0  0  0  0  0  0  0  0  0
   -9.5318   -4.3006   -3.8541 C   0  0  0  0  0  0  0  0  0  0  0  0
   -8.7856   -4.7005   -6.6894 C   0  0  0  0  0  0  0  0  0  0  0  0
   -6.1582   -3.8741   -8.1119 C   0  0  0  0  0  0  0  0  0  0  0  0
   -6.2265   -2.6346   -7.4833 C   0  0  0  0  0  0  0  0  0  0  0  0
   -5.0203   -2.2783   -6.8569 C   0  0  0  0  0  0  0  0  0  0  0  0
   -4.8052   -1.1311   -6.0688 C   0  0  0  0  0  0  0  0  0  0  0  0
   -5.8656   -0.1317   -5.8641 C   0  0  0  0  0  0  0  0  0  0  0  0
   -6.7727   -0.2780   -4.8064 C   0  0  0  0  0  0  0  0  0  0  0  0
   -7.8044    0.6457   -4.6309 C   0  0  0  0  0  0  0  0  0  0  0  0
   -7.9303    1.7290   -5.5097 C   0  0  0  0  0  0  0  0  0  0  0  0
   -9.2389    2.9281   -5.2496 S   0  0  0  0  0  0  0  0  0  0  0  0
   -8.1816    4.0534   -4.2828 C   0  0  0  0  0  0  0  0  0  0  0  0
   -9.0111    5.2000   -3.7195 C   0  0  0  0  0  0  0  0  0  0  0  0
   -7.0276    1.8771   -6.5730 C   0  0  0  0  0  0  0  0  0  0  0  0
   -7.1383    2.9238   -7.4294 F   0  0  0  0  0  0  0  0  0  0  0  0
   -5.9986    0.9489   -6.7496 C   0  0  0  0  0  0  0  0  0  0  0  0
   -3.5772   -1.0410   -5.3983 C   0  0  0  0  0  0  0  0  0  0  0  0
   -2.6001   -2.0341   -5.4897 C   0  0  0  0  0  0  0  0  0  0  0  0
   -2.7928   -3.1612   -6.3188 C   0  0  0  0  0  0  0  0  0  0  0  0
   -1.8015   -4.2549   -6.4002 C   0  0  0  0  0  0  0  0  0  0  0  0
   -1.5018   -5.0239   -5.2623 C   0  0  0  0  0  0  0  0  0  0  0  0
   -0.5566   -6.0525   -5.3381 C   0  0  0  0  0  0  0  0  0  0  0  0
    0.0892   -6.3276   -6.5466 C   0  0  0  0  0  0  0  0  0  0  0  0
    1.2824   -7.6640   -6.6299 S   0  0  0  0  0  0  0  0  0  0  0  0
    2.6862   -6.5845   -6.1977 C   0  0  0  0  0  0  0  0  0  0  0  0
    3.9823   -7.3840   -6.2096 C   0  0  0  0  0  0  0  0  0  0  0  0
   -0.2234   -5.5779   -7.6897 C   0  0  0  0  0  0  0  0  0  0  0  0
   -1.1632   -4.5417   -7.6165 C   0  0  0  0  0  0  0  0  0  0  0  0
    0.3827   -5.8439   -8.8728 F   0  0  0  0  0  0  0  0  0  0  0  0
   -4.0196   -3.2440   -6.9981 C   0  0  0  0  0  0  0  0  0  0  0  0
   -4.6199   -4.5311   -7.9059 S   0  0  0  0  0  0  0  0  0  0  0  0
   -1.5132   -1.8142   -4.6300 C   0  0  0  0  0  0  0  0  0  0  0  0
   -1.6260   -0.6423   -3.8759 C   0  0  0  0  0  0  0  0  0  0  0  0
   -3.0926    0.1032   -4.2676 S   0  0  0  0  0  0  0  0  0  0  0  0
   -0.7918   -0.2666   -2.7160 C   0  0  0  0  0  0  0  0  0  0  0  0
   -1.3666    0.6459   -1.4167 S   0  0  0  0  0  0  0  0  0  0  0  0
   -0.0808    0.3693   -0.3736 C   0  0  0  0  0  0  0  0  0  0  0  0
    0.8462   -0.4325   -1.0373 C   0  0  0  0  0  0  0  0  0  0  0  0
    0.4737   -0.7572   -2.3563 C   0  0  0  0  0  0  0  0  0  0  0  0
    1.3760   -1.4424   -3.1834 C   0  0  0  0  0  0  0  0  0  0  0  0
    2.5965   -1.9040   -2.6537 C   0  0  0  0  0  0  0  0  0  0  0  0
    3.5345   -2.6969   -3.5207 C   0  0  0  0  0  0  0  0  0  0  0  0
    2.9326   -1.6458   -1.3062 C   0  0  0  0  0  0  0  0  0  0  0  0
    4.1358   -2.1643   -0.8006 O   0  0  0  0  0  0  0  0  0  0  0  0
    4.5519   -2.0626    0.5598 C   0  0  0  0  0  0  0  0  0  0  0  0
    2.0638   -0.8754   -0.5075 C   0  0  0  0  0  0  0  0  0  0  0  0
    0.0772    0.9769    0.9518 C   0  0  0  0  0  0  0  0  0  0  0  0
    0.3775    0.2756    2.1165 C   0  0  0  0  0  0  0  0  0  0  0  0
    0.8456    1.1026    3.1493 C   0  0  0  0  0  0  0  0  0  0  0  0
    1.3628    0.6790    4.3955 C   0  0  0  0  0  0  0  0  0  0  0  0
    1.3887   -0.7453    4.7971 C   0  0  0  0  0  0  0  0  0  0  0  0
    2.0842   -1.6907    4.0273 C   0  0  0  0  0  0  0  0  0  0  0  0
    2.0762   -3.0410    4.3928 C   0  0  0  0  0  0  0  0  0  0  0  0
    1.3795   -3.4564    5.5324 C   0  0  0  0  0  0  0  0  0  0  0  0
    1.3890   -5.1959    5.9960 S   0  0  0  0  0  0  0  0  0  0  0  0
   -0.0261   -5.6693    4.9368 C   0  0  0  0  0  0  0  0  0  0  0  0
   -1.3502   -5.3965    5.6377 C   0  0  0  0  0  0  0  0  0  0  0  0
    0.7201   -2.5100    6.3284 C   0  0  0  0  0  0  0  0  0  0  0  0
    0.0786   -2.8916    7.4597 F   0  0  0  0  0  0  0  0  0  0  0  0
    0.7192   -1.1602    5.9587 C   0  0  0  0  0  0  0  0  0  0  0  0
    1.9385    1.6719    5.2083 C   0  0  0  0  0  0  0  0  0  0  0  0
    1.9995    3.0177    4.8264 C   0  0  0  0  0  0  0  0  0  0  0  0
    1.4517    3.4419    3.6029 C   0  0  0  0  0  0  0  0  0  0  0  0
    1.6153    4.8249    3.1192 C   0  0  0  0  0  0  0  0  0  0  0  0
    2.8527    5.2525    2.6125 C   0  0  0  0  0  0  0  0  0  0  0  0
    3.0013    6.5546    2.1259 C   0  0  0  0  0  0  0  0  0  0  0  0
    1.9116    7.4338    2.1341 C   0  0  0  0  0  0  0  0  0  0  0  0
    2.1118    9.1038    1.4896 S   0  0  0  0  0  0  0  0  0  0  0  0
    1.7957    8.6484   -0.2526 C   0  0  0  0  0  0  0  0  0  0  0  0
    0.3031    8.6081   -0.5509 C   0  0  0  0  0  0  0  0  0  0  0  0
    0.6804    7.0141    2.6603 C   0  0  0  0  0  0  0  0  0  0  0  0
    0.5298    5.7096    3.1375 C   0  0  0  0  0  0  0  0  0  0  0  0
   -0.3745    7.8705    2.7095 F   0  0  0  0  0  0  0  0  0  0  0  0
    0.8815    2.4554    2.7858 C   0  0  0  0  0  0  0  0  0  0  0  0
    0.3646    2.6197    1.1931 S   0  0  0  0  0  0  0  0  0  0  0  0
    2.7870    3.7996    5.6845 C   0  0  0  0  0  0  0  0  0  0  0  0
    3.3808    3.0591    6.7098 C   0  0  0  0  0  0  0  0  0  0  0  0
    2.8894    1.4531    6.5827 S   0  0  0  0  0  0  0  0  0  0  0  0
    4.5865    3.4693    7.4387 C   0  0  0  0  0  0  0  0  0  0  0  0
    4.8603    3.1741    9.0694 S   0  0  0  0  0  0  0  0  0  0  0  0
    6.5107    3.5228    9.0699 C   0  0  0  0  0  0  0  0  0  0  0  0
    6.8850    3.8129    7.7599 C   0  0  0  0  0  0  0  0  0  0  0  0
    5.8151    3.7877    6.8515 C   0  0  0  0  0  0  0  0  0  0  0  0
    6.0558    3.9222    5.4785 C   0  0  0  0  0  0  0  0  0  0  0  0
    7.3679    4.1060    5.0134 C   0  0  0  0  0  0  0  0  0  0  0  0
    7.6060    4.1751    3.5274 C   0  0  0  0  0  0  0  0  0  0  0  0
    8.4533    4.1062    5.9231 C   0  0  0  0  0  0  0  0  0  0  0  0
    9.7597    4.2144    5.4165 O   0  0  0  0  0  0  0  0  0  0  0  0
   10.9432    4.2064    6.2135 C   0  0  0  0  0  0  0  0  0  0  0  0
    8.2003    3.9787    7.3061 C   0  0  0  0  0  0  0  0  0  0  0  0
    7.4262    3.1051   10.1359 C   0  0  0  0  0  0  0  0  0  0  0  0
    8.3569    4.1331   11.0894 S   0  0  0  0  0  0  0  0  0  0  0  0
    9.2576    2.9332   11.8643 C   0  0  0  0  0  0  0  0  0  0  0  0
    8.8551    1.7072   11.3448 C   0  0  0  0  0  0  0  0  0  0  0  0
    7.8367    1.7999   10.3849 C   0  0  0  0  0  0  0  0  0  0  0  0
    7.3645    0.6548    9.7376 C   0  0  0  0  0  0  0  0  0  0  0  0
    7.9171   -0.5955   10.0578 C   0  0  0  0  0  0  0  0  0  0  0  0
    7.3958   -1.8318    9.3778 C   0  0  0  0  0  0  0  0  0  0  0  0
    8.9446   -0.6957   11.0267 C   0  0  0  0  0  0  0  0  0  0  0  0
    9.4847   -1.9628   11.3017 O   0  0  0  0  0  0  0  0  0  0  0  0
   10.4811   -2.2266   12.2866 C   0  0  0  0  0  0  0  0  0  0  0  0
    9.4080    0.4714   11.6791 C   0  0  0  0  0  0  0  0  0  0  0  0
   -9.4444   -6.3921  -10.9263 H   0  0  0  0  0  0  0  0  0  0  0  0
  -11.2899   -6.6290   -8.9875 H   0  0  0  0  0  0  0  0  0  0  0  0
  -12.8560   -5.4519   -6.1335 H   0  0  0  0  0  0  0  0  0  0  0  0
  -12.8139   -6.9024   -7.1999 H   0  0  0  0  0  0  0  0  0  0  0  0
  -12.0578   -6.9790   -5.5657 H   0  0  0  0  0  0  0  0  0  0  0  0
   -8.5951   -4.8873   -3.7330 H   0  0  0  0  0  0  0  0  0  0  0  0
   -9.2928   -3.2605   -4.1555 H   0  0  0  0  0  0  0  0  0  0  0  0
  -10.0627   -4.2739   -2.8798 H   0  0  0  0  0  0  0  0  0  0  0  0
   -8.0786   -4.1725   -6.0657 H   0  0  0  0  0  0  0  0  0  0  0  0
   -7.1307   -2.0406   -7.4391 H   0  0  0  0  0  0  0  0  0  0  0  0
   -6.6837   -1.1157   -4.1226 H   0  0  0  0  0  0  0  0  0  0  0  0
   -8.5033    0.5212   -3.8132 H   0  0  0  0  0  0  0  0  0  0  0  0
   -7.3898    4.4695   -4.9382 H   0  0  0  0  0  0  0  0  0  0  0  0
   -7.7047    3.5046   -3.4436 H   0  0  0  0  0  0  0  0  0  0  0  0
   -8.3556    5.8974   -3.1576 H   0  0  0  0  0  0  0  0  0  0  0  0
   -9.5018    5.7574   -4.5455 H   0  0  0  0  0  0  0  0  0  0  0  0
   -9.7880    4.8049   -3.0315 H   0  0  0  0  0  0  0  0  0  0  0  0
   -5.3047    1.0710   -7.5708 H   0  0  0  0  0  0  0  0  0  0  0  0
   -1.9960   -4.8236   -4.3192 H   0  0  0  0  0  0  0  0  0  0  0  0
   -0.3280   -6.6309   -4.4497 H   0  0  0  0  0  0  0  0  0  0  0  0
    2.5270   -6.1517   -5.1865 H   0  0  0  0  0  0  0  0  0  0  0  0
    2.7644   -5.7570   -6.9404 H   0  0  0  0  0  0  0  0  0  0  0  0
    4.1218   -7.8758   -7.1954 H   0  0  0  0  0  0  0  0  0  0  0  0
    3.9592   -8.1591   -5.4096 H   0  0  0  0  0  0  0  0  0  0  0  0
    4.8417   -6.7078   -6.0228 H   0  0  0  0  0  0  0  0  0  0  0  0
   -1.3872   -3.9629   -8.5016 H   0  0  0  0  0  0  0  0  0  0  0  0
   -0.7364   -2.5449   -4.4891 H   0  0  0  0  0  0  0  0  0  0  0  0
    1.1722   -1.5784   -4.2336 H   0  0  0  0  0  0  0  0  0  0  0  0
    4.5584   -2.2664   -3.4676 H   0  0  0  0  0  0  0  0  0  0  0  0
    3.5610   -3.7517   -3.1732 H   0  0  0  0  0  0  0  0  0  0  0  0
    3.2144   -2.6940   -4.5882 H   0  0  0  0  0  0  0  0  0  0  0  0
    3.7772   -2.4991    1.2269 H   0  0  0  0  0  0  0  0  0  0  0  0
    5.4905   -2.6364    0.6908 H   0  0  0  0  0  0  0  0  0  0  0  0
    4.7410   -1.0022    0.8237 H   0  0  0  0  0  0  0  0  0  0  0  0
    2.3271   -0.6269    0.5079 H   0  0  0  0  0  0  0  0  0  0  0  0
    0.3273   -0.8018    2.1712 H   0  0  0  0  0  0  0  0  0  0  0  0
    2.6277   -1.3833    3.1403 H   0  0  0  0  0  0  0  0  0  0  0  0
    2.6081   -3.7625    3.7851 H   0  0  0  0  0  0  0  0  0  0  0  0
    0.0470   -6.7587    4.7288 H   0  0  0  0  0  0  0  0  0  0  0  0
    0.0069   -5.1328    3.9678 H   0  0  0  0  0  0  0  0  0  0  0  0
   -1.4880   -4.3080    5.7905 H   0  0  0  0  0  0  0  0  0  0  0  0
   -2.1888   -5.7744    5.0147 H   0  0  0  0  0  0  0  0  0  0  0  0
   -1.3796   -5.9089    6.6238 H   0  0  0  0  0  0  0  0  0  0  0  0
    0.1915   -0.4404    6.5726 H   0  0  0  0  0  0  0  0  0  0  0  0
    3.6970    4.5773    2.5893 H   0  0  0  0  0  0  0  0  0  0  0  0
    3.9574    6.8740    1.7336 H   0  0  0  0  0  0  0  0  0  0  0  0
    2.2614    7.6706   -0.4990 H   0  0  0  0  0  0  0  0  0  0  0  0
    2.2679    9.4145   -0.9011 H   0  0  0  0  0  0  0  0  0  0  0  0
   -0.1629    9.5824   -0.2910 H   0  0  0  0  0  0  0  0  0  0  0  0
   -0.1879    7.8005    0.0293 H   0  0  0  0  0  0  0  0  0  0  0  0
    0.1420    8.4150   -1.6336 H   0  0  0  0  0  0  0  0  0  0  0  0
   -0.4283    5.3910    3.5324 H   0  0  0  0  0  0  0  0  0  0  0  0
    3.0216    4.8412    5.5063 H   0  0  0  0  0  0  0  0  0  0  0  0
    5.2446    3.8633    4.7653 H   0  0  0  0  0  0  0  0  0  0  0  0
    8.5061    4.7823    3.2933 H   0  0  0  0  0  0  0  0  0  0  0  0
    6.7395    4.6405    3.0110 H   0  0  0  0  0  0  0  0  0  0  0  0
    7.7385    3.1466    3.1314 H   0  0  0  0  0  0  0  0  0  0  0  0
   11.8264    4.2748    5.5476 H   0  0  0  0  0  0  0  0  0  0  0  0
   10.9429    5.0794    6.8984 H   0  0  0  0  0  0  0  0  0  0  0  0
   11.0091    3.2629    6.7941 H   0  0  0  0  0  0  0  0  0  0  0  0
    9.0150    3.9668    8.0206 H   0  0  0  0  0  0  0  0  0  0  0  0
   10.0369    3.0951   12.5961 H   0  0  0  0  0  0  0  0  0  0  0  0
    6.5865    0.7324    8.9876 H   0  0  0  0  0  0  0  0  0  0  0  0
    6.6017   -1.5907    8.6371 H   0  0  0  0  0  0  0  0  0  0  0  0
    6.9633   -2.5143   10.1390 H   0  0  0  0  0  0  0  0  0  0  0  0
    8.2248   -2.3426    8.8454 H   0  0  0  0  0  0  0  0  0  0  0  0
   10.0598   -2.0421   13.2959 H   0  0  0  0  0  0  0  0  0  0  0  0
   11.3742   -1.5885   12.1179 H   0  0  0  0  0  0  0  0  0  0  0  0
   10.7875   -3.2895   12.2093 H   0  0  0  0  0  0  0  0  0  0  0  0
   10.1948    0.4251   12.4218 H   0  0  0  0  0  0  0  0  0  0  0  0
  1  2  1  0
  2  3  1  0
  3  4  2  0
  4  5  1  0
  5  6  1  0
  6  7  2  0
  7  8  1  0
  7  9  1  0
  9 10  1  0
 10 11  1  0
  9 12  2  0
  3 13  1  0
 13 14  2  0
 14 15  1  0
 15 16  2  0
 16 17  1  0
 17 18  2  0
 18 19  1  0
 19 20  2  0
 20 21  1  0
 21 22  1  0
 22 23  1  0
 20 24  1  0
 24 25  1  0
 24 26  2  0
 16 27  1  0
 27 28  2  0
 28 29  1  0
 29 30  1  0
 30 31  2  0
 31 32  1  0
 32 33  2  0
 33 34  1  0
 34 35  1  0
 35 36  1  0
 33 37  1  0
 37 38  2  0
 37 39  1  0
 29 40  2  0
 40 41  1  0
 28 42  1  0
 42 43  2  0
 43 44  1  0
 43 45  1  0
 45 46  1  0
 46 47  1  0
 47 48  2  0
 48 49  1  0
 49 50  1  0
 50 51  2  0
 51 52  1  0
 51 53  1  0
 53 54  1  0
 54 55  1  0
 53 56  2  0
 47 57  1  0
 57 58  2  0
 58 59  1  0
 59 60  2  0
 60 61  1  0
 61 62  2  0
 62 63  1  0
 63 64  2  0
 64 65  1  0
 65 66  1  0
 66 67  1  0
 64 68  1  0
 68 69  1  0
 68 70  2  0
 60 71  1  0
 71 72  2  0
 72 73  1  0
 73 74  1  0
 74 75  2  0
 75 76  1  0
 76 77  2  0
 77 78  1  0
 78 79  1  0
 79 80  1  0
 77 81  1  0
 81 82  2  0
 81 83  1  0
 73 84  2  0
 84 85  1  0
 72 86  1  0
 86 87  2  0
 87 88  1  0
 87 89  1  0
 89 90  1  0
 90 91  1  0
 91 92  2  0
 92 93  1  0
 93 94  1  0
 94 95  2  0
 95 96  1  0
 95 97  1  0
 97 98  1  0
 98 99  1  0
 97100  2  0
 91101  1  0
101102  1  0
102103  1  0
103104  2  0
104105  1  0
105106  1  0
106107  2  0
107108  1  0
107109  1  0
109110  1  0
110111  1  0
109112  2  0
  5  1  2  0
 41 13  1  0
 49 45  2  0
 85 57  1  0
 93 89  2  0
105101  2  0
 12  4  1  0
 40 15  1  0
 56 48  1  0
 84 59  1  0
100 92  1  0
112104  1  0
 26 17  1  0
 44 27  1  0
 70 61  1  0
 88 71  1  0
 38 30  1  0
 82 74  1  0
  1113  1  0
  6114  1  0
  8115  1  0
  8116  1  0
  8117  1  0
 11118  1  0
 11119  1  0
 11120  1  0
 12121  1  0
 14122  1  0
 18123  1  0
 19124  1  0
 22125  1  0
 22126  1  0
 23127  1  0
 23128  1  0
 23129  1  0
 26130  1  0
 31131  1  0
 32132  1  0
 35133  1  0
 35134  1  0
 36135  1  0
 36136  1  0
 36137  1  0
 38138  1  0
 42139  1  0
 50140  1  0
 52141  1  0
 52142  1  0
 52143  1  0
 55144  1  0
 55145  1  0
 55146  1  0
 56147  1  0
 58148  1  0
 62149  1  0
 63150  1  0
 66151  1  0
 66152  1  0
 67153  1  0
 67154  1  0
 67155  1  0
 70156  1  0
 75157  1  0
 76158  1  0
 79159  1  0
 79160  1  0
 80161  1  0
 80162  1  0
 80163  1  0
 82164  1  0
 86165  1  0
 94166  1  0
 96167  1  0
 96168  1  0
 96169  1  0
 99170  1  0
 99171  1  0
 99172  1  0
100173  1  0
103174  1  0
106175  1  0
108176  1  0
108177  1  0
108178  1  0
111179  1  0
111180  1  0
111181  1  0
112182  1  0
M  END

