
     RDKit          3D

182199  0  0  0  0  0  0  0  0999 V2000
    9.7833   -0.4109   10.2879 C   0  0  0  0  0  0  0  0  0  0  0  0
    8.2474   -1.0257    9.9774 S   0  0  0  0  0  0  0  0  0  0  0  0
    8.3510   -1.0256    8.2948 C   0  0  0  0  0  0  0  0  0  0  0  0
    9.6069   -0.5126    7.9481 C   0  0  0  0  0  0  0  0  0  0  0  0
   10.3946   -0.1777    9.0617 C   0  0  0  0  0  0  0  0  0  0  0  0
   11.6654    0.3741    8.9010 C   0  0  0  0  0  0  0  0  0  0  0  0
   12.1610    0.6050    7.6038 C   0  0  0  0  0  0  0  0  0  0  0  0
   13.5155    1.2321    7.4229 C   0  0  0  0  0  0  0  0  0  0  0  0
   11.3655    0.2985    6.4746 C   0  0  0  0  0  0  0  0  0  0  0  0
   11.8760    0.5723    5.1944 O   0  0  0  0  0  0  0  0  0  0  0  0
   11.1854    0.3186    3.9751 C   0  0  0  0  0  0  0  0  0  0  0  0
   10.0811   -0.2601    6.6553 C   0  0  0  0  0  0  0  0  0  0  0  0
    7.2694   -1.4696    7.3994 C   0  0  0  0  0  0  0  0  0  0  0  0
    5.9074   -1.2679    7.6209 C   0  0  0  0  0  0  0  0  0  0  0  0
    5.1028   -1.7468    6.5712 C   0  0  0  0  0  0  0  0  0  0  0  0
    3.7004   -1.6228    6.4643 C   0  0  0  0  0  0  0  0  0  0  0  0
    2.8905   -0.9707    7.5170 C   0  0  0  0  0  0  0  0  0  0  0  0
    2.8284   -1.5196    8.8082 C   0  0  0  0  0  0  0  0  0  0  0  0
    2.0596   -0.9042    9.7997 C   0  0  0  0  0  0  0  0  0  0  0  0
    1.3414    0.2623    9.5109 C   0  0  0  0  0  0  0  0  0  0  0  0
    0.3719    1.0567   10.7991 S   0  0  0  0  0  0  0  0  0  0  0  0
   -1.1102    0.0076   10.5779 C   0  0  0  0  0  0  0  0  0  0  0  0
   -1.9224    0.4391    9.3623 C   0  0  0  0  0  0  0  0  0  0  0  0
    1.4108    0.8229    8.2281 C   0  0  0  0  0  0  0  0  0  0  0  0
    0.7427    1.9678    7.9405 F   0  0  0  0  0  0  0  0  0  0  0  0
    2.1785    0.2054    7.2352 C   0  0  0  0  0  0  0  0  0  0  0  0
    3.1116   -2.0982    5.2772 C   0  0  0  0  0  0  0  0  0  0  0  0
    3.8572   -2.6786    4.2450 C   0  0  0  0  0  0  0  0  0  0  0  0
    5.2542   -2.8255    4.3613 C   0  0  0  0  0  0  0  0  0  0  0  0
    6.0728   -3.4290    3.2851 C   0  0  0  0  0  0  0  0  0  0  0  0
    5.8385   -4.7512    2.8748 C   0  0  0  0  0  0  0  0  0  0  0  0
    6.6232   -5.3273    1.8735 C   0  0  0  0  0  0  0  0  0  0  0  0
    7.6523   -4.5926    1.2760 C   0  0  0  0  0  0  0  0  0  0  0  0
    8.6719   -5.3540    0.0112 S   0  0  0  0  0  0  0  0  0  0  0  0
    9.8919   -5.9838    1.2119 C   0  0  0  0  0  0  0  0  0  0  0  0
   10.9933   -6.7441    0.4891 C   0  0  0  0  0  0  0  0  0  0  0  0
    7.8858   -3.2693    1.6726 C   0  0  0  0  0  0  0  0  0  0  0  0
    7.0968   -2.6887    2.6721 C   0  0  0  0  0  0  0  0  0  0  0  0
    8.8780   -2.5435    1.0977 F   0  0  0  0  0  0  0  0  0  0  0  0
    5.8429   -2.3386    5.5412 C   0  0  0  0  0  0  0  0  0  0  0  0
    7.4741   -2.2874    5.9375 S   0  0  0  0  0  0  0  0  0  0  0  0
    3.0833   -3.0029    3.1202 C   0  0  0  0  0  0  0  0  0  0  0  0
    1.7325   -2.6925    3.2762 C   0  0  0  0  0  0  0  0  0  0  0  0
    1.4961   -2.0179    4.8054 S   0  0  0  0  0  0  0  0  0  0  0  0
    0.7085   -2.7828    2.2230 C   0  0  0  0  0  0  0  0  0  0  0  0
    0.9521   -3.1018    0.8874 C   0  0  0  0  0  0  0  0  0  0  0  0
   -0.1764   -2.9441    0.0709 C   0  0  0  0  0  0  0  0  0  0  0  0
   -0.2113   -3.0949   -1.3284 C   0  0  0  0  0  0  0  0  0  0  0  0
    0.9768   -3.5054   -2.1002 C   0  0  0  0  0  0  0  0  0  0  0  0
    2.0463   -2.6177   -2.2786 C   0  0  0  0  0  0  0  0  0  0  0  0
    3.1791   -3.0197   -2.9934 C   0  0  0  0  0  0  0  0  0  0  0  0
    3.2501   -4.3104   -3.5324 C   0  0  0  0  0  0  0  0  0  0  0  0
    4.7256   -4.8275   -4.4178 S   0  0  0  0  0  0  0  0  0  0  0  0
    4.1967   -4.1704   -6.0402 C   0  0  0  0  0  0  0  0  0  0  0  0
    3.2235   -5.1187   -6.7308 C   0  0  0  0  0  0  0  0  0  0  0  0
    2.1848   -5.2026   -3.3467 C   0  0  0  0  0  0  0  0  0  0  0  0
    2.2518   -6.4662   -3.8368 F   0  0  0  0  0  0  0  0  0  0  0  0
    1.0482   -4.7958   -2.6430 C   0  0  0  0  0  0  0  0  0  0  0  0
   -1.4222   -2.7958   -1.9681 C   0  0  0  0  0  0  0  0  0  0  0  0
   -2.5637   -2.3885   -1.2739 C   0  0  0  0  0  0  0  0  0  0  0  0
   -2.5379   -2.2527    0.1332 C   0  0  0  0  0  0  0  0  0  0  0  0
   -3.7153   -1.7874    0.8999 C   0  0  0  0  0  0  0  0  0  0  0  0
   -4.2753   -0.5234    0.6515 C   0  0  0  0  0  0  0  0  0  0  0  0
   -5.4223   -0.1155    1.3360 C   0  0  0  0  0  0  0  0  0  0  0  0
   -6.0101   -0.9585    2.2872 C   0  0  0  0  0  0  0  0  0  0  0  0
   -7.5270   -0.4599    3.1147 S   0  0  0  0  0  0  0  0  0  0  0  0
   -6.7058    0.4758    4.4541 C   0  0  0  0  0  0  0  0  0  0  0  0
   -6.9574    1.9663    4.2737 C   0  0  0  0  0  0  0  0  0  0  0  0
   -5.4415   -2.2099    2.5576 C   0  0  0  0  0  0  0  0  0  0  0  0
   -4.2968   -2.6210    1.8682 C   0  0  0  0  0  0  0  0  0  0  0  0
   -6.0052   -3.0366    3.4743 F   0  0  0  0  0  0  0  0  0  0  0  0
   -1.3153   -2.5351    0.7724 C   0  0  0  0  0  0  0  0  0  0  0  0
   -0.9126   -2.3341    2.3963 S   0  0  0  0  0  0  0  0  0  0  0  0
   -3.6367   -2.0749   -2.1253 C   0  0  0  0  0  0  0  0  0  0  0  0
   -3.3203   -2.1723   -3.4842 C   0  0  0  0  0  0  0  0  0  0  0  0
   -1.7194   -2.6983   -3.6161 S   0  0  0  0  0  0  0  0  0  0  0  0
   -4.1459   -1.5869   -4.5673 C   0  0  0  0  0  0  0  0  0  0  0  0
   -5.4461   -0.5668   -4.2468 S   0  0  0  0  0  0  0  0  0  0  0  0
   -5.6615    0.0497   -5.7914 C   0  0  0  0  0  0  0  0  0  0  0  0
   -4.6713   -0.5152   -6.6030 C   0  0  0  0  0  0  0  0  0  0  0  0
   -3.8589   -1.4606   -5.9374 C   0  0  0  0  0  0  0  0  0  0  0  0
   -2.8607   -2.1410   -6.6456 C   0  0  0  0  0  0  0  0  0  0  0  0
   -2.6159   -1.8240   -7.9930 C   0  0  0  0  0  0  0  0  0  0  0  0
   -1.5412   -2.5538   -8.7508 C   0  0  0  0  0  0  0  0  0  0  0  0
   -3.3737   -0.8202   -8.6359 C   0  0  0  0  0  0  0  0  0  0  0  0
   -3.0899   -0.5159   -9.9777 O   0  0  0  0  0  0  0  0  0  0  0  0
   -3.8009    0.4417  -10.7564 C   0  0  0  0  0  0  0  0  0  0  0  0
   -4.3923   -0.1532   -7.9258 C   0  0  0  0  0  0  0  0  0  0  0  0
   -6.5804    1.1661   -6.0828 C   0  0  0  0  0  0  0  0  0  0  0  0
   -6.8458    2.4318   -5.0073 S   0  0  0  0  0  0  0  0  0  0  0  0
   -7.9651    3.2830   -5.9276 C   0  0  0  0  0  0  0  0  0  0  0  0
   -8.1752    2.5576   -7.1046 C   0  0  0  0  0  0  0  0  0  0  0  0
   -7.4216    1.3676   -7.1828 C   0  0  0  0  0  0  0  0  0  0  0  0
   -7.5999    0.4937   -8.2601 C   0  0  0  0  0  0  0  0  0  0  0  0
   -8.4552    0.8555   -9.3173 C   0  0  0  0  0  0  0  0  0  0  0  0
   -8.5911   -0.0479  -10.5118 C   0  0  0  0  0  0  0  0  0  0  0  0
   -9.1559    2.0830   -9.2779 C   0  0  0  0  0  0  0  0  0  0  0  0
   -9.9687    2.4322  -10.3702 O   0  0  0  0  0  0  0  0  0  0  0  0
  -10.7142    3.6419  -10.4686 C   0  0  0  0  0  0  0  0  0  0  0  0
   -9.0242    2.9270   -8.1535 C   0  0  0  0  0  0  0  0  0  0  0  0
   -8.7283    4.4439   -5.4298 C   0  0  0  0  0  0  0  0  0  0  0  0
  -10.4077    4.5828   -5.5029 S   0  0  0  0  0  0  0  0  0  0  0  0
  -10.5578    5.9471   -4.5311 C   0  0  0  0  0  0  0  0  0  0  0  0
   -9.2812    6.3033   -4.1154 C   0  0  0  0  0  0  0  0  0  0  0  0
   -8.2607    5.4754   -4.6088 C   0  0  0  0  0  0  0  0  0  0  0  0
   -6.9251    5.7331   -4.2790 C   0  0  0  0  0  0  0  0  0  0  0  0
   -6.6151    6.8073   -3.4215 C   0  0  0  0  0  0  0  0  0  0  0  0
   -5.1831    7.0936   -3.0689 C   0  0  0  0  0  0  0  0  0  0  0  0
   -7.6477    7.6253   -2.9035 C   0  0  0  0  0  0  0  0  0  0  0  0
   -7.3024    8.6788   -2.0412 O   0  0  0  0  0  0  0  0  0  0  0  0
   -8.2356    9.5758   -1.4463 C   0  0  0  0  0  0  0  0  0  0  0  0
   -8.9892    7.3689   -3.2622 C   0  0  0  0  0  0  0  0  0  0  0  0
   10.2066   -0.2142   11.2632 H   0  0  0  0  0  0  0  0  0  0  0  0
   12.2554    0.6359    9.7718 H   0  0  0  0  0  0  0  0  0  0  0  0
   14.1111    0.6475    6.6902 H   0  0  0  0  0  0  0  0  0  0  0  0
   13.3953    2.2706    7.0478 H   0  0  0  0  0  0  0  0  0  0  0  0
   14.0816    1.2636    8.3780 H   0  0  0  0  0  0  0  0  0  0  0  0
   11.8238    0.6360    3.1245 H   0  0  0  0  0  0  0  0  0  0  0  0
   10.2394    0.9003    3.9420 H   0  0  0  0  0  0  0  0  0  0  0  0
   10.9726   -0.7677    3.8732 H   0  0  0  0  0  0  0  0  0  0  0  0
    9.4575   -0.4672    5.8008 H   0  0  0  0  0  0  0  0  0  0  0  0
    5.5240   -0.7500    8.4906 H   0  0  0  0  0  0  0  0  0  0  0  0
    3.3718   -2.4276    9.0426 H   0  0  0  0  0  0  0  0  0  0  0  0
    2.0183   -1.3359   10.7923 H   0  0  0  0  0  0  0  0  0  0  0  0
   -1.7422    0.1121   11.4841 H   0  0  0  0  0  0  0  0  0  0  0  0
   -0.8213   -1.0610   10.4854 H   0  0  0  0  0  0  0  0  0  0  0  0
   -2.8741   -0.1340    9.3285 H   0  0  0  0  0  0  0  0  0  0  0  0
   -2.1600    1.5225    9.4259 H   0  0  0  0  0  0  0  0  0  0  0  0
   -1.3601    0.2384    8.4284 H   0  0  0  0  0  0  0  0  0  0  0  0
    2.2263    0.6491    6.2495 H   0  0  0  0  0  0  0  0  0  0  0  0
    5.0522   -5.3346    3.3367 H   0  0  0  0  0  0  0  0  0  0  0  0
    6.4350   -6.3498    1.5683 H   0  0  0  0  0  0  0  0  0  0  0  0
    9.3894   -6.6639    1.9322 H   0  0  0  0  0  0  0  0  0  0  0  0
   10.3421   -5.1313    1.7678 H   0  0  0  0  0  0  0  0  0  0  0  0
   11.5127   -6.0758   -0.2294 H   0  0  0  0  0  0  0  0  0  0  0  0
   10.5642   -7.6114   -0.0579 H   0  0  0  0  0  0  0  0  0  0  0  0
   11.7321   -7.1185    1.2289 H   0  0  0  0  0  0  0  0  0  0  0  0
    7.2844   -1.6642    2.9666 H   0  0  0  0  0  0  0  0  0  0  0  0
    3.4982   -3.4106    2.2092 H   0  0  0  0  0  0  0  0  0  0  0  0
    1.9236   -3.3863    0.5074 H   0  0  0  0  0  0  0  0  0  0  0  0
    2.0016   -1.6171   -1.8670 H   0  0  0  0  0  0  0  0  0  0  0  0
    4.0018   -2.3288   -3.1279 H   0  0  0  0  0  0  0  0  0  0  0  0
    3.7376   -3.1648   -5.9278 H   0  0  0  0  0  0  0  0  0  0  0  0
    5.1010   -4.0632   -6.6762 H   0  0  0  0  0  0  0  0  0  0  0  0
    3.6497   -6.1440   -6.7701 H   0  0  0  0  0  0  0  0  0  0  0  0
    3.0372   -4.7682   -7.7682 H   0  0  0  0  0  0  0  0  0  0  0  0
    2.2551   -5.1420   -6.1896 H   0  0  0  0  0  0  0  0  0  0  0  0
    0.2286   -5.4905   -2.5060 H   0  0  0  0  0  0  0  0  0  0  0  0
   -3.8315    0.1359   -0.0824 H   0  0  0  0  0  0  0  0  0  0  0  0
   -5.8576    0.8531    1.1246 H   0  0  0  0  0  0  0  0  0  0  0  0
   -7.1386    0.1476    5.4229 H   0  0  0  0  0  0  0  0  0  0  0  0
   -5.6097    0.2859    4.4915 H   0  0  0  0  0  0  0  0  0  0  0  0
   -6.5071    2.5244    5.1203 H   0  0  0  0  0  0  0  0  0  0  0  0
   -8.0499    2.1702    4.2563 H   0  0  0  0  0  0  0  0  0  0  0  0
   -6.5001    2.3227    3.3269 H   0  0  0  0  0  0  0  0  0  0  0  0
   -3.8786   -3.6000    2.0679 H   0  0  0  0  0  0  0  0  0  0  0  0
   -4.5931   -1.7203   -1.7698 H   0  0  0  0  0  0  0  0  0  0  0  0
   -2.2904   -2.9288   -6.1808 H   0  0  0  0  0  0  0  0  0  0  0  0
   -0.8073   -1.8242   -9.1539 H   0  0  0  0  0  0  0  0  0  0  0  0
   -1.9954   -3.1184   -9.5929 H   0  0  0  0  0  0  0  0  0  0  0  0
   -0.9949   -3.2710   -8.1011 H   0  0  0  0  0  0  0  0  0  0  0  0
   -3.3846    0.4533  -11.7840 H   0  0  0  0  0  0  0  0  0  0  0  0
   -3.6850    1.4539  -10.3141 H   0  0  0  0  0  0  0  0  0  0  0  0
   -4.8766    0.1676  -10.8094 H   0  0  0  0  0  0  0  0  0  0  0  0
   -4.9438    0.6483   -8.3925 H   0  0  0  0  0  0  0  0  0  0  0  0
   -7.0842   -0.4570   -8.2831 H   0  0  0  0  0  0  0  0  0  0  0  0
   -8.1596    0.4515  -11.4054 H   0  0  0  0  0  0  0  0  0  0  0  0
   -8.0639   -1.0130  -10.3576 H   0  0  0  0  0  0  0  0  0  0  0  0
   -9.6636   -0.2664  -10.6986 H   0  0  0  0  0  0  0  0  0  0  0  0
  -11.4584    3.6999   -9.6468 H   0  0  0  0  0  0  0  0  0  0  0  0
  -11.2538    3.6575  -11.4375 H   0  0  0  0  0  0  0  0  0  0  0  0
  -10.0309    4.5162  -10.4306 H   0  0  0  0  0  0  0  0  0  0  0  0
   -9.5542    3.8666   -8.1058 H   0  0  0  0  0  0  0  0  0  0  0  0
  -11.4833    6.4418   -4.2644 H   0  0  0  0  0  0  0  0  0  0  0  0
   -6.1321    5.1242   -4.6928 H   0  0  0  0  0  0  0  0  0  0  0  0
   -5.0455    7.0177   -1.9694 H   0  0  0  0  0  0  0  0  0  0  0  0
   -4.4884    6.3775   -3.5568 H   0  0  0  0  0  0  0  0  0  0  0  0
   -4.9141    8.1193   -3.3988 H   0  0  0  0  0  0  0  0  0  0  0  0
   -7.6864   10.3015   -0.8117 H   0  0  0  0  0  0  0  0  0  0  0  0
   -8.7838   10.1344   -2.2335 H   0  0  0  0  0  0  0  0  0  0  0  0
   -8.9485    9.0146   -0.8067 H   0  0  0  0  0  0  0  0  0  0  0  0
   -9.7972    7.9815   -2.8858 H   0  0  0  0  0  0  0  0  0  0  0  0
  1  2  1  0
  2  3  1  0
  3  4  2  0
  4  5  1  0
  5  6  1  0
  6  7  2  0
  7  8  1  0
  7  9  1  0
  9 10  1  0
 10 11  1  0
  9 12  2  0
  3 13  1  0
 13 14  2  0
 14 15  1  0
 15 16  2  0
 16 17  1  0
 17 18  2  0
 18 19  1  0
 19 20  2  0
 20 21  1  0
 21 22  1  0
 22 23  1  0
 20 24  1  0
 24 25  1  0
 24 26  2  0
 16 27  1  0
 27 28  2  0
 28 29  1  0
 29 30  1  0
 30 31  2  0
 31 32  1  0
 32 33  2  0
 33 34  1  0
 34 35  1  0
 35 36  1  0
 33 37  1  0
 37 38  2  0
 37 39  1  0
 29 40  2  0
 40 41  1  0
 28 42  1  0
 42 43  2  0
 43 44  1  0
 43 45  1  0
 45 46  2  0
 46 47  1  0
 47 48  2  0
 48 49  1  0
 49 50  2  0
 50 51  1  0
 51 52  2  0
 52 53  1  0
 53 54  1  0
 54 55  1  0
 52 56  1  0
 56 57  1  0
 56 58  2  0
 48 59  1  0
 59 60  2  0
 60 61  1  0
 61 62  1  0
 62 63  2  0
 63 64  1  0
 64 65  2  0
 65 66  1  0
 66 67  1  0
 67 68  1  0
 65 69  1  0
 69 70  2  0
 69 71  1  0
 61 72  2  0
 72 73  1  0
 60 74  1  0
 74 75  2  0
 75 76  1  0
 75 77  1  0
 77 78  1  0
 78 79  1  0
 79 80  2  0
 80 81  1  0
 81 82  1  0
 82 83  2  0
 83 84  1  0
 83 85  1  0
 85 86  1  0
 86 87  1  0
 85 88  2  0
 79 89  1  0
 89 90  1  0
 90 91  1  0
 91 92  2  0
 92 93  1  0
 93 94  1  0
 94 95  2  0
 95 96  1  0
 95 97  1  0
 97 98  1  0
 98 99  1  0
 97100  2  0
 91101  1  0
101102  1  0
102103  1  0
103104  2  0
104105  1  0
105106  1  0
106107  2  0
107108  1  0
107109  1  0
109110  1  0
110111  1  0
109112  2  0
  5  1  2  0
 41 13  1  0
 73 45  1  0
 81 77  2  0
 93 89  2  0
105101  2  0
 12  4  1  0
 40 15  1  0
 72 47  1  0
 88 80  1  0
100 92  1  0
112104  1  0
 26 17  1  0
 44 27  1  0
 58 49  1  0
 76 59  1  0
 38 30  1  0
 70 62  1  0
  1113  1  0
  6114  1  0
  8115  1  0
  8116  1  0
  8117  1  0
 11118  1  0
 11119  1  0
 11120  1  0
 12121  1  0
 14122  1  0
 18123  1  0
 19124  1  0
 22125  1  0
 22126  1  0
 23127  1  0
 23128  1  0
 23129  1  0
 26130  1  0
 31131  1  0
 32132  1  0
 35133  1  0
 35134  1  0
 36135  1  0
 36136  1  0
 36137  1  0
 38138  1  0
 42139  1  0
 46140  1  0
 50141  1  0
 51142  1  0
 54143  1  0
 54144  1  0
 55145  1  0
 55146  1  0
 55147  1  0
 58148  1  0
 63149  1  0
 64150  1  0
 67151  1  0
 67152  1  0
 68153  1  0
 68154  1  0
 68155  1  0
 70156  1  0
 74157  1  0
 82158  1  0
 84159  1  0
 84160  1  0
 84161  1  0
 87162  1  0
 87163  1  0
 87164  1  0
 88165  1  0
 94166  1  0
 96167  1  0
 96168  1  0
 96169  1  0
 99170  1  0
 99171  1  0
 99172  1  0
100173  1  0
103174  1  0
106175  1  0
108176  1  0
108177  1  0
108178  1  0
111179  1  0
111180  1  0
111181  1  0
112182  1  0
M  END

