
     RDKit          3D

 98109  0  0  0  0  0  0  0  0999 V2000
    6.1175    4.1867    6.7247 C   0  0  0  0  0  0  0  0  0  0  0  0
    6.9221    4.0674    5.6739 C   0  0  0  0  0  0  0  0  0  0  0  0
    8.2046    4.5996    5.5282 C   0  0  0  0  0  0  0  0  0  0  0  0
    8.8821    4.3889    4.3170 C   0  0  0  0  0  0  0  0  0  0  0  0
    8.2704    3.6687    3.2734 C   0  0  0  0  0  0  0  0  0  0  0  0
    6.9789    3.1411    3.4319 C   0  0  0  0  0  0  0  0  0  0  0  0
    6.3249    3.3321    4.6549 C   0  0  0  0  0  0  0  0  0  0  0  0
    5.1067    2.9309    5.0228 C   0  0  0  0  0  0  0  0  0  0  0  0
    4.9022    3.4743    6.3592 C   0  0  0  0  0  0  0  0  0  0  0  0
    3.8715    3.3482    7.0716 O   0  0  0  0  0  0  0  0  0  0  0  0
    4.1333    2.1461    4.2427 C   0  0  0  0  0  0  0  0  0  0  0  0
    2.5200    2.5806    4.0265 S   0  0  0  0  0  0  0  0  0  0  0  0
    2.0758    1.2499    3.0919 C   0  0  0  0  0  0  0  0  0  0  0  0
    3.1953    0.4264    2.9536 C   0  0  0  0  0  0  0  0  0  0  0  0
    4.3389    0.9189    3.6062 C   0  0  0  0  0  0  0  0  0  0  0  0
    5.5143    0.1611    3.6400 C   0  0  0  0  0  0  0  0  0  0  0  0
    5.5634   -1.0767    2.9728 C   0  0  0  0  0  0  0  0  0  0  0  0
    6.8236   -1.8944    3.0067 C   0  0  0  0  0  0  0  0  0  0  0  0
    4.4192   -1.5706    2.3034 C   0  0  0  0  0  0  0  0  0  0  0  0
    4.4988   -2.8176    1.6597 O   0  0  0  0  0  0  0  0  0  0  0  0
    3.4276   -3.4283    0.9458 C   0  0  0  0  0  0  0  0  0  0  0  0
    3.2265   -0.8141    2.3066 C   0  0  0  0  0  0  0  0  0  0  0  0
    0.7283    1.0137    2.5441 C   0  0  0  0  0  0  0  0  0  0  0  0
   -0.4275    0.9962    3.2127 C   0  0  0  0  0  0  0  0  0  0  0  0
   -0.6468    1.2027    4.5801 C   0  0  0  0  0  0  0  0  0  0  0  0
   -1.9611    1.1122    5.0671 C   0  0  0  0  0  0  0  0  0  0  0  0
   -3.0295    0.8152    4.1991 C   0  0  0  0  0  0  0  0  0  0  0  0
   -2.7959    0.5974    2.8327 C   0  0  0  0  0  0  0  0  0  0  0  0
   -1.4839    0.6894    2.3583 C   0  0  0  0  0  0  0  0  0  0  0  0
   -1.0478    0.5088    1.1142 C   0  0  0  0  0  0  0  0  0  0  0  0
    0.3923    0.7096    1.1569 C   0  0  0  0  0  0  0  0  0  0  0  0
    1.1869    0.6601    0.1806 O   0  0  0  0  0  0  0  0  0  0  0  0
   -1.8490    0.1466   -0.0606 C   0  0  0  0  0  0  0  0  0  0  0  0
   -2.4139   -1.4038   -0.3963 S   0  0  0  0  0  0  0  0  0  0  0  0
   -3.1875   -1.0149   -1.8422 C   0  0  0  0  0  0  0  0  0  0  0  0
   -2.9836    0.3444   -2.0946 C   0  0  0  0  0  0  0  0  0  0  0  0
   -2.2421    0.9921   -1.0943 C   0  0  0  0  0  0  0  0  0  0  0  0
   -1.9497    2.3543   -1.1925 C   0  0  0  0  0  0  0  0  0  0  0  0
   -2.4013    3.0790   -2.3117 C   0  0  0  0  0  0  0  0  0  0  0  0
   -2.0927    4.5449   -2.4245 C   0  0  0  0  0  0  0  0  0  0  0  0
   -3.1294    2.4273   -3.3364 C   0  0  0  0  0  0  0  0  0  0  0  0
   -3.5538    3.1764   -4.4471 O   0  0  0  0  0  0  0  0  0  0  0  0
   -4.2999    2.6484   -5.5397 C   0  0  0  0  0  0  0  0  0  0  0  0
   -3.4107    1.0480   -3.2251 C   0  0  0  0  0  0  0  0  0  0  0  0
   -3.8793   -1.9906   -2.6991 C   0  0  0  0  0  0  0  0  0  0  0  0
   -5.1255   -1.9305   -3.1713 C   0  0  0  0  0  0  0  0  0  0  0  0
   -6.1008   -0.9570   -2.9246 C   0  0  0  0  0  0  0  0  0  0  0  0
   -7.3632   -1.1061   -3.5204 C   0  0  0  0  0  0  0  0  0  0  0  0
   -7.6400   -2.2186   -4.3374 C   0  0  0  0  0  0  0  0  0  0  0  0
   -6.6610   -3.1999   -4.5615 C   0  0  0  0  0  0  0  0  0  0  0  0
   -5.4025   -3.0368   -3.9715 C   0  0  0  0  0  0  0  0  0  0  0  0
   -4.3491   -3.8546   -4.0290 C   0  0  0  0  0  0  0  0  0  0  0  0
   -3.3164   -3.2306   -3.2112 C   0  0  0  0  0  0  0  0  0  0  0  0
   -2.1397   -3.6454   -3.0389 O   0  0  0  0  0  0  0  0  0  0  0  0
   -4.2126   -5.0886   -4.8257 C   0  0  0  0  0  0  0  0  0  0  0  0
   -3.7122   -6.2593   -4.4309 C   0  0  0  0  0  0  0  0  0  0  0  0
   -3.2828   -6.6416   -3.1547 C   0  0  0  0  0  0  0  0  0  0  0  0
   -2.7958   -7.9470   -2.9753 C   0  0  0  0  0  0  0  0  0  0  0  0
   -2.7458   -8.8471   -4.0572 C   0  0  0  0  0  0  0  0  0  0  0  0
   -3.1874   -8.4538   -5.3302 C   0  0  0  0  0  0  0  0  0  0  0  0
   -3.6718   -7.1552   -5.4937 C   0  0  0  0  0  0  0  0  0  0  0  0
   -4.1364   -6.6070   -6.6102 C   0  0  0  0  0  0  0  0  0  0  0  0
   -4.5065   -5.2475   -6.2461 C   0  0  0  0  0  0  0  0  0  0  0  0
   -4.9473   -4.3637   -7.0265 O   0  0  0  0  0  0  0  0  0  0  0  0
    6.3256    4.7127    7.6478 H   0  0  0  0  0  0  0  0  0  0  0  0
    8.6695    5.1643    6.3257 H   0  0  0  0  0  0  0  0  0  0  0  0
    9.8781    4.7889    4.1810 H   0  0  0  0  0  0  0  0  0  0  0  0
    8.7982    3.5221    2.3405 H   0  0  0  0  0  0  0  0  0  0  0  0
    6.5101    2.6016    2.6188 H   0  0  0  0  0  0  0  0  0  0  0  0
    6.3777    0.5160    4.1888 H   0  0  0  0  0  0  0  0  0  0  0  0
    7.1284   -2.1537    1.9708 H   0  0  0  0  0  0  0  0  0  0  0  0
    7.6588   -1.3397    3.4840 H   0  0  0  0  0  0  0  0  0  0  0  0
    6.6475   -2.8287    3.5815 H   0  0  0  0  0  0  0  0  0  0  0  0
    3.7740   -4.3975    0.5317 H   0  0  0  0  0  0  0  0  0  0  0  0
    3.1069   -2.7757    0.1043 H   0  0  0  0  0  0  0  0  0  0  0  0
    2.5734   -3.6207    1.6303 H   0  0  0  0  0  0  0  0  0  0  0  0
    2.3331   -1.1931    1.8302 H   0  0  0  0  0  0  0  0  0  0  0  0
    0.1693    1.4081    5.2616 H   0  0  0  0  0  0  0  0  0  0  0  0
   -2.1543    1.2662    6.1198 H   0  0  0  0  0  0  0  0  0  0  0  0
   -4.0370    0.7438    4.5908 H   0  0  0  0  0  0  0  0  0  0  0  0
   -3.6169    0.3568    2.1688 H   0  0  0  0  0  0  0  0  0  0  0  0
   -1.3753    2.8428   -0.4138 H   0  0  0  0  0  0  0  0  0  0  0  0
   -1.5611    4.9238   -1.5258 H   0  0  0  0  0  0  0  0  0  0  0  0
   -3.0350    5.1215   -2.5339 H   0  0  0  0  0  0  0  0  0  0  0  0
   -1.4523    4.7221   -3.3136 H   0  0  0  0  0  0  0  0  0  0  0  0
   -4.5100    3.4616   -6.2628 H   0  0  0  0  0  0  0  0  0  0  0  0
   -3.7187    1.8567   -6.0579 H   0  0  0  0  0  0  0  0  0  0  0  0
   -5.2659    2.2378   -5.1784 H   0  0  0  0  0  0  0  0  0  0  0  0
   -3.9431    0.5280   -4.0087 H   0  0  0  0  0  0  0  0  0  0  0  0
   -5.9014   -0.1103   -2.2809 H   0  0  0  0  0  0  0  0  0  0  0  0
   -8.1332   -0.3650   -3.3454 H   0  0  0  0  0  0  0  0  0  0  0  0
   -8.6196   -2.3269   -4.7860 H   0  0  0  0  0  0  0  0  0  0  0  0
   -6.8933   -4.0679   -5.1647 H   0  0  0  0  0  0  0  0  0  0  0  0
   -3.3312   -5.9614   -2.3152 H   0  0  0  0  0  0  0  0  0  0  0  0
   -2.4656   -8.2675   -1.9947 H   0  0  0  0  0  0  0  0  0  0  0  0
   -2.3710   -9.8517   -3.9052 H   0  0  0  0  0  0  0  0  0  0  0  0
   -3.1549   -9.1461   -6.1618 H   0  0  0  0  0  0  0  0  0  0  0  0
   -4.2136   -7.0788   -7.5808 H   0  0  0  0  0  0  0  0  0  0  0  0
  1  2  2  0
  2  3  1  0
  3  4  2  0
  4  5  1  0
  5  6  2  0
  6  7  1  0
  7  8  2  0
  8  9  1  0
  9 10  2  0
  8 11  1  0
 11 12  1  0
 12 13  1  0
 13 14  2  0
 14 15  1  0
 15 16  1  0
 16 17  2  0
 17 18  1  0
 17 19  1  0
 19 20  1  0
 20 21  1  0
 19 22  2  0
 13 23  1  0
 23 24  2  0
 24 25  1  0
 25 26  2  0
 26 27  1  0
 27 28  2  0
 28 29  1  0
 29 30  2  0
 30 31  1  0
 31 32  2  0
 30 33  1  0
 33 34  1  0
 34 35  1  0
 35 36  2  0
 36 37  1  0
 37 38  1  0
 38 39  2  0
 39 40  1  0
 39 41  1  0
 41 42  1  0
 42 43  1  0
 41 44  2  0
 35 45  1  0
 45 46  2  0
 46 47  1  0
 47 48  2  0
 48 49  1  0
 49 50  2  0
 50 51  1  0
 51 52  2  0
 52 53  1  0
 53 54  2  0
 52 55  1  0
 55 56  2  0
 56 57  1  0
 57 58  2  0
 58 59  1  0
 59 60  2  0
 60 61  1  0
 61 62  2  0
 62 63  1  0
 63 64  2  0
  9  1  1  0
 15 11  2  0
 31 23  1  0
 37 33  2  0
 53 45  1  0
 63 55  1  0
  7  2  1  0
 22 14  1  0
 29 24  1  0
 44 36  1  0
 51 46  1  0
 61 56  1  0
  1 65  1  0
  3 66  1  0
  4 67  1  0
  5 68  1  0
  6 69  1  0
 16 70  1  0
 18 71  1  0
 18 72  1  0
 18 73  1  0
 21 74  1  0
 21 75  1  0
 21 76  1  0
 22 77  1  0
 25 78  1  0
 26 79  1  0
 27 80  1  0
 28 81  1  0
 38 82  1  0
 40 83  1  0
 40 84  1  0
 40 85  1  0
 43 86  1  0
 43 87  1  0
 43 88  1  0
 44 89  1  0
 47 90  1  0
 48 91  1  0
 49 92  1  0
 50 93  1  0
 57 94  1  0
 58 95  1  0
 59 96  1  0
 60 97  1  0
 62 98  1  0
M  END

