
     RDKit          3D

138149  0  0  0  0  0  0  0  0999 V2000
    3.0812    3.8715    2.9451 C   0  0  0  0  0  0  0  0  0  0  0  0
    2.9718    2.6017    2.5765 C   0  0  0  0  0  0  0  0  0  0  0  0
    3.9695    1.8578    1.8640 N   0  0  0  0  0  4  0  0  0  0  0  0
    3.7261    0.5501    1.5078 O   0  0  0  0  0  1  0  0  0  0  0  0
    5.1232    2.3194    1.7213 O   0  0  0  0  0  0  0  0  0  0  0  0
    1.6951    2.0586    3.0310 C   0  0  0  0  0  0  0  0  0  0  0  0
    1.0413    3.0030    3.6903 C   0  0  0  0  0  0  0  0  0  0  0  0
    1.8764    4.2092    3.7044 C   0  0  0  0  0  0  0  0  0  0  0  0
    1.6359    5.3907    4.3075 C   0  0  0  0  0  0  0  0  0  0  0  0
    2.4300    6.6046    4.1209 C   0  0  0  0  0  0  0  0  0  0  0  0
    1.9055    7.5692    4.8554 C   0  0  0  0  0  0  0  0  0  0  0  0
    0.7629    7.0376    5.5940 C   0  0  0  0  0  0  0  0  0  0  0  0
    0.0809    7.7773    6.6182 N   0  0  0  0  0  4  0  0  0  0  0  0
    0.1631    9.1516    6.6258 O   0  0  0  0  0  1  0  0  0  0  0  0
   -0.4053    7.2002    7.6107 O   0  0  0  0  0  0  0  0  0  0  0  0
    0.5690    5.7549    5.2622 C   0  0  0  0  0  0  0  0  0  0  0  0
   -0.4055    4.8153    5.8632 C   0  0  0  0  0  0  0  0  0  0  0  0
   -1.6878    5.1331    6.0827 C   0  0  0  0  0  0  0  0  0  0  0  0
   -2.7151    4.1439    6.5007 C   0  0  0  0  0  0  0  0  0  0  0  0
   -4.0323    4.3116    6.3205 C   0  0  0  0  0  0  0  0  0  0  0  0
   -4.7131    5.5486    6.0590 N   0  0  0  0  0  4  0  0  0  0  0  0
   -6.0238    5.5195    5.6335 O   0  0  0  0  0  1  0  0  0  0  0  0
   -4.2387    6.6311    6.4572 O   0  0  0  0  0  0  0  0  0  0  0  0
   -4.7076    3.0096    6.3254 C   0  0  0  0  0  0  0  0  0  0  0  0
   -3.8115    2.0621    6.5259 C   0  0  0  0  0  0  0  0  0  0  0  0
   -2.5084    2.6994    6.7177 C   0  0  0  0  0  0  0  0  0  0  0  0
   -1.4594    2.0913    7.3024 C   0  0  0  0  0  0  0  0  0  0  0  0
   -0.5826    2.7099    8.2928 C   0  0  0  0  0  0  0  0  0  0  0  0
    0.0977    1.7507    8.8977 C   0  0  0  0  0  0  0  0  0  0  0  0
   -0.2720    0.4597    8.3156 C   0  0  0  0  0  0  0  0  0  0  0  0
    0.3368   -0.7836    8.6802 N   0  0  0  0  0  4  0  0  0  0  0  0
    1.5309   -0.7694    9.3624 O   0  0  0  0  0  1  0  0  0  0  0  0
   -0.3337   -1.8340    8.6670 O   0  0  0  0  0  0  0  0  0  0  0  0
   -1.1731    0.6434    7.3444 C   0  0  0  0  0  0  0  0  0  0  0  0
   -1.4679   -0.3514    6.2759 C   0  0  0  0  0  0  0  0  0  0  0  0
   -1.8237    0.0191    5.0418 C   0  0  0  0  0  0  0  0  0  0  0  0
   -2.0022   -0.9497    3.9603 C   0  0  0  0  0  0  0  0  0  0  0  0
   -0.7255   -1.6625    3.1231 S   0  0  0  0  0  0  0  0  0  0  0  0
   -1.6447   -2.2635    1.8404 C   0  0  0  0  0  0  0  0  0  0  0  0
   -2.9617   -1.8545    2.0250 C   0  0  0  0  0  0  0  0  0  0  0  0
   -3.1588   -1.1120    3.1979 C   0  0  0  0  0  0  0  0  0  0  0  0
   -4.4088   -0.5513    3.4765 C   0  0  0  0  0  0  0  0  0  0  0  0
   -5.4750   -0.7395    2.5761 C   0  0  0  0  0  0  0  0  0  0  0  0
   -6.8138   -0.1222    2.8637 C   0  0  0  0  0  0  0  0  0  0  0  0
   -5.2810   -1.4910    1.3937 C   0  0  0  0  0  0  0  0  0  0  0  0
   -6.3622   -1.6643    0.5148 O   0  0  0  0  0  0  0  0  0  0  0  0
   -6.3086   -2.4208   -0.6918 C   0  0  0  0  0  0  0  0  0  0  0  0
   -4.0108   -2.0399    1.1166 C   0  0  0  0  0  0  0  0  0  0  0  0
   -1.0764   -2.7430    0.5757 C   0  0  0  0  0  0  0  0  0  0  0  0
   -0.2760   -1.7331   -0.5075 S   0  0  0  0  0  0  0  0  0  0  0  0
   -0.2713   -2.7992   -1.8080 C   0  0  0  0  0  0  0  0  0  0  0  0
   -0.9580   -3.9506   -1.4248 C   0  0  0  0  0  0  0  0  0  0  0  0
   -1.4088   -3.9170   -0.0968 C   0  0  0  0  0  0  0  0  0  0  0  0
   -2.1840   -4.9587    0.4187 C   0  0  0  0  0  0  0  0  0  0  0  0
   -2.5306   -6.0386   -0.4120 C   0  0  0  0  0  0  0  0  0  0  0  0
   -3.3794   -7.1542    0.1292 C   0  0  0  0  0  0  0  0  0  0  0  0
   -2.0840   -6.0780   -1.7559 C   0  0  0  0  0  0  0  0  0  0  0  0
   -2.4554   -7.1712   -2.5559 O   0  0  0  0  0  0  0  0  0  0  0  0
   -2.1503   -7.3032   -3.9391 C   0  0  0  0  0  0  0  0  0  0  0  0
   -1.2866   -5.0250   -2.2605 C   0  0  0  0  0  0  0  0  0  0  0  0
    0.0850   -2.4025   -3.1785 C   0  0  0  0  0  0  0  0  0  0  0  0
   -0.7825   -1.8429   -4.0281 C   0  0  0  0  0  0  0  0  0  0  0  0
   -2.1535   -1.5372   -3.7410 N   0  0  0  0  0  4  0  0  0  0  0  0
   -2.9396   -2.4050   -3.0204 O   0  0  0  0  0  1  0  0  0  0  0  0
   -2.5789   -0.3849   -3.9766 O   0  0  0  0  0  0  0  0  0  0  0  0
   -0.0726   -1.3229   -5.1830 C   0  0  0  0  0  0  0  0  0  0  0  0
    1.2183   -1.5499   -5.0264 C   0  0  0  0  0  0  0  0  0  0  0  0
    1.4429   -2.2336   -3.7456 C   0  0  0  0  0  0  0  0  0  0  0  0
    2.6458   -2.4516   -3.1521 C   0  0  0  0  0  0  0  0  0  0  0  0
    2.8532   -2.6732   -1.7160 C   0  0  0  0  0  0  0  0  0  0  0  0
    4.0758   -2.2830   -1.3924 C   0  0  0  0  0  0  0  0  0  0  0  0
    4.7759   -1.8826   -2.6103 C   0  0  0  0  0  0  0  0  0  0  0  0
    6.0931   -1.3165   -2.6384 N   0  0  0  0  0  4  0  0  0  0  0  0
    6.6362   -0.7974   -1.4842 O   0  0  0  0  0  1  0  0  0  0  0  0
    6.7974   -1.3898   -3.6657 O   0  0  0  0  0  0  0  0  0  0  0  0
    3.9911   -2.1031   -3.6732 C   0  0  0  0  0  0  0  0  0  0  0  0
    4.3206   -1.6823   -5.0345 C   0  0  0  0  0  0  0  0  0  0  0  0
    4.8328   -2.5710   -5.8956 C   0  0  0  0  0  0  0  0  0  0  0  0
    4.9835   -2.2493   -7.3181 C   0  0  0  0  0  0  0  0  0  0  0  0
    6.0936   -1.7725   -7.8774 C   0  0  0  0  0  0  0  0  0  0  0  0
    7.3769   -1.7029   -7.2455 N   0  0  0  0  0  4  0  0  0  0  0  0
    8.2918   -0.7621   -7.6533 O   0  0  0  0  0  1  0  0  0  0  0  0
    7.7276   -2.5787   -6.4315 O   0  0  0  0  0  0  0  0  0  0  0  0
    5.7777   -1.2161   -9.1914 C   0  0  0  0  0  0  0  0  0  0  0  0
    4.4791   -1.3645   -9.4208 C   0  0  0  0  0  0  0  0  0  0  0  0
    3.8805   -2.0414   -8.2653 C   0  0  0  0  0  0  0  0  0  0  0  0
    2.6137   -2.4967   -8.1552 C   0  0  0  0  0  0  0  0  0  0  0  0
    2.1643   -3.5469   -7.2373 C   0  0  0  0  0  0  0  0  0  0  0  0
    0.8826   -3.7960   -7.4771 C   0  0  0  0  0  0  0  0  0  0  0  0
    0.4207   -2.9216   -8.5507 C   0  0  0  0  0  0  0  0  0  0  0  0
   -0.9462   -2.8479   -8.9850 N   0  0  0  0  0  4  0  0  0  0  0  0
   -1.4206   -1.7426   -9.6516 O   0  0  0  0  0  1  0  0  0  0  0  0
   -1.7486   -3.7441   -8.6539 O   0  0  0  0  0  0  0  0  0  0  0  0
    1.4287   -2.1472   -8.9669 C   0  0  0  0  0  0  0  0  0  0  0  0
    1.3168   -1.0869   -9.9807 C   0  0  0  0  0  0  0  0  0  0  0  0
    1.6935    0.1634   -9.7304 C   0  0  0  0  0  0  0  0  0  0  0  0
    3.9323    4.5101    2.7570 H   0  0  0  0  0  0  0  0  0  0  0  0
    1.3086    1.0639    2.8387 H   0  0  0  0  0  0  0  0  0  0  0  0
    0.0356    2.8820    4.0624 H   0  0  0  0  0  0  0  0  0  0  0  0
    3.2897    6.7233    3.4776 H   0  0  0  0  0  0  0  0  0  0  0  0
    2.2865    8.5805    4.9133 H   0  0  0  0  0  0  0  0  0  0  0  0
   -0.0532    3.8139    6.0254 H   0  0  0  0  0  0  0  0  0  0  0  0
   -2.0037    6.1302    5.8079 H   0  0  0  0  0  0  0  0  0  0  0  0
   -5.7635    2.8339    6.1828 H   0  0  0  0  0  0  0  0  0  0  0  0
   -4.0357    1.0091    6.6251 H   0  0  0  0  0  0  0  0  0  0  0  0
   -0.5425    3.7578    8.5583 H   0  0  0  0  0  0  0  0  0  0  0  0
    0.8068    1.9082    9.7006 H   0  0  0  0  0  0  0  0  0  0  0  0
   -1.3358   -1.4020    6.4769 H   0  0  0  0  0  0  0  0  0  0  0  0
   -1.9253    1.0626    4.7787 H   0  0  0  0  0  0  0  0  0  0  0  0
   -4.5502    0.0356    4.3770 H   0  0  0  0  0  0  0  0  0  0  0  0
   -7.0987    0.5585    2.0321 H   0  0  0  0  0  0  0  0  0  0  0  0
   -7.5810   -0.9202    2.9533 H   0  0  0  0  0  0  0  0  0  0  0  0
   -6.8029    0.4610    3.8081 H   0  0  0  0  0  0  0  0  0  0  0  0
   -6.0403   -3.4751   -0.4702 H   0  0  0  0  0  0  0  0  0  0  0  0
   -7.3036   -2.3942   -1.1789 H   0  0  0  0  0  0  0  0  0  0  0  0
   -5.5614   -1.9770   -1.3875 H   0  0  0  0  0  0  0  0  0  0  0  0
   -3.8374   -2.5875    0.1983 H   0  0  0  0  0  0  0  0  0  0  0  0
   -2.5366   -4.9198    1.4436 H   0  0  0  0  0  0  0  0  0  0  0  0
   -2.7901   -8.0980    0.1327 H   0  0  0  0  0  0  0  0  0  0  0  0
   -3.7200   -6.9458    1.1645 H   0  0  0  0  0  0  0  0  0  0  0  0
   -4.2798   -7.2878   -0.5068 H   0  0  0  0  0  0  0  0  0  0  0  0
   -2.5977   -6.4617   -4.5085 H   0  0  0  0  0  0  0  0  0  0  0  0
   -2.5852   -8.2537   -4.3121 H   0  0  0  0  0  0  0  0  0  0  0  0
   -1.0519   -7.3323   -4.0902 H   0  0  0  0  0  0  0  0  0  0  0  0
   -0.9449   -5.0304   -3.2871 H   0  0  0  0  0  0  0  0  0  0  0  0
   -0.5065   -0.7893   -6.0213 H   0  0  0  0  0  0  0  0  0  0  0  0
    1.9523   -1.2159   -5.7375 H   0  0  0  0  0  0  0  0  0  0  0  0
    2.1482   -3.0532   -0.9990 H   0  0  0  0  0  0  0  0  0  0  0  0
    4.4803   -2.2935   -0.3926 H   0  0  0  0  0  0  0  0  0  0  0  0
    4.1164   -0.6672   -5.3533 H   0  0  0  0  0  0  0  0  0  0  0  0
    5.0834   -3.5748   -5.5667 H   0  0  0  0  0  0  0  0  0  0  0  0
    6.4817   -0.7795   -9.8865 H   0  0  0  0  0  0  0  0  0  0  0  0
    3.9939   -1.1005  -10.3485 H   0  0  0  0  0  0  0  0  0  0  0  0
    2.7489   -4.0655   -6.4921 H   0  0  0  0  0  0  0  0  0  0  0  0
    0.2820   -4.5198   -6.9389 H   0  0  0  0  0  0  0  0  0  0  0  0
    0.8312   -1.3151  -10.9222 H   0  0  0  0  0  0  0  0  0  0  0  0
    1.5631    0.9232  -10.4874 H   0  0  0  0  0  0  0  0  0  0  0  0
    2.1146    0.4435   -8.7753 H   0  0  0  0  0  0  0  0  0  0  0  0
  1  2  2  0
  2  3  1  0
  3  4  1  0
  3  5  2  0
  2  6  1  0
  6  7  2  0
  7  8  1  0
  8  9  2  0
  9 10  1  0
 10 11  2  0
 11 12  1  0
 12 13  1  0
 13 14  1  0
 13 15  2  0
 12 16  2  0
 16 17  1  0
 17 18  2  3
 18 19  1  0
 19 20  2  0
 20 21  1  0
 21 22  1  0
 21 23  2  0
 20 24  1  0
 24 25  2  0
 25 26  1  0
 26 27  2  0
 27 28  1  0
 28 29  2  0
 29 30  1  0
 30 31  1  0
 31 32  1  0
 31 33  2  0
 30 34  2  0
 34 35  1  0
 35 36  2  3
 36 37  1  0
 37 38  1  0
 38 39  1  0
 39 40  2  0
 40 41  1  0
 41 42  1  0
 42 43  2  0
 43 44  1  0
 43 45  1  0
 45 46  1  0
 46 47  1  0
 45 48  2  0
 39 49  1  0
 49 50  1  0
 50 51  1  0
 51 52  2  0
 52 53  1  0
 53 54  1  0
 54 55  2  0
 55 56  1  0
 55 57  1  0
 57 58  1  0
 58 59  1  0
 57 60  2  0
 51 61  1  0
 61 62  2  0
 62 63  1  0
 63 64  1  0
 63 65  2  0
 62 66  1  0
 66 67  2  0
 67 68  1  0
 68 69  2  0
 69 70  1  0
 70 71  2  0
 71 72  1  0
 72 73  1  0
 73 74  1  0
 73 75  2  0
 72 76  2  0
 76 77  1  0
 77 78  2  3
 78 79  1  0
 79 80  2  0
 80 81  1  0
 81 82  1  0
 81 83  2  0
 80 84  1  0
 84 85  2  0
 85 86  1  0
 86 87  2  0
 87 88  1  0
 88 89  2  0
 89 90  1  0
 90 91  1  0
 91 92  1  0
 91 93  2  0
 90 94  2  0
 94 95  1  0
 95 96  2  3
  8  1  1  0
 16  9  1  0
 26 19  1  0
 34 27  1  0
 41 37  2  0
 53 49  2  0
 68 61  1  0
 76 69  1  0
 86 79  1  0
 94 87  1  0
 48 40  1  0
 60 52  1  0
  1 97  1  0
  6 98  1  0
  7 99  1  0
 10100  1  0
 11101  1  0
 17102  1  0
 18103  1  0
 24104  1  0
 25105  1  0
 28106  1  0
 29107  1  0
 35108  1  0
 36109  1  0
 42110  1  0
 44111  1  0
 44112  1  0
 44113  1  0
 47114  1  0
 47115  1  0
 47116  1  0
 48117  1  0
 54118  1  0
 56119  1  0
 56120  1  0
 56121  1  0
 59122  1  0
 59123  1  0
 59124  1  0
 60125  1  0
 66126  1  0
 67127  1  0
 70128  1  0
 71129  1  0
 77130  1  0
 78131  1  0
 84132  1  0
 85133  1  0
 88134  1  0
 89135  1  0
 95136  1  0
 96137  1  0
 96138  1  0
M  CHG  8   3   1   4  -1  13   1  14  -1  21   1  22  -1  31   1  32  -1
M  CHG  8  63   1  64  -1  73   1  74  -1  81   1  82  -1  91   1  92  -1
M  END

