
     RDKit          3D

242265  0  0  0  0  0  0  0  0999 V2000
   -2.6556    0.4873   12.0101 C   0  0  0  0  0  0  0  0  0  0  0  0
   -2.5757    1.4174   10.9768 C   0  0  0  0  0  0  0  0  0  0  0  0
   -3.2328    1.0000    9.8095 C   0  0  0  0  0  0  0  0  0  0  0  0
   -3.3299    1.7168    8.6022 C   0  0  0  0  0  0  0  0  0  0  0  0
   -2.6435    3.0044    8.3911 C   0  0  0  0  0  0  0  0  0  0  0  0
   -3.2854    4.2094    8.7005 C   0  0  0  0  0  0  0  0  0  0  0  0
   -2.6650    5.4286    8.4111 C   0  0  0  0  0  0  0  0  0  0  0  0
   -1.3990    5.4491    7.8139 C   0  0  0  0  0  0  0  0  0  0  0  0
   -0.6347    7.0202    7.4005 S   0  0  0  0  0  0  0  0  0  0  0  0
    0.2196    7.1723    9.0031 C   0  0  0  0  0  0  0  0  0  0  0  0
    1.0534    8.4439    9.0265 C   0  0  0  0  0  0  0  0  0  0  0  0
   -0.7505    4.2424    7.5096 C   0  0  0  0  0  0  0  0  0  0  0  0
    0.4718    4.2487    6.9204 F   0  0  0  0  0  0  0  0  0  0  0  0
   -1.3713    3.0240    7.7991 C   0  0  0  0  0  0  0  0  0  0  0  0
   -4.0587    1.1196    7.5643 C   0  0  0  0  0  0  0  0  0  0  0  0
   -4.6432   -0.1427    7.6793 C   0  0  0  0  0  0  0  0  0  0  0  0
   -4.5298   -0.8727    8.8786 C   0  0  0  0  0  0  0  0  0  0  0  0
   -5.0897   -2.2271    9.0203 C   0  0  0  0  0  0  0  0  0  0  0  0
   -6.4552   -2.4032    9.2852 C   0  0  0  0  0  0  0  0  0  0  0  0
   -6.9803   -3.6908    9.4291 C   0  0  0  0  0  0  0  0  0  0  0  0
   -6.1467   -4.8104    9.3077 C   0  0  0  0  0  0  0  0  0  0  0  0
   -6.8351   -6.4604    9.4857 S   0  0  0  0  0  0  0  0  0  0  0  0
   -6.6933   -6.5070   11.3085 C   0  0  0  0  0  0  0  0  0  0  0  0
   -5.2649   -6.8063   11.7473 C   0  0  0  0  0  0  0  0  0  0  0  0
   -4.7851   -4.6345    9.0182 C   0  0  0  0  0  0  0  0  0  0  0  0
   -4.2579   -3.3473    8.8831 C   0  0  0  0  0  0  0  0  0  0  0  0
   -3.9710   -5.7092    8.8643 F   0  0  0  0  0  0  0  0  0  0  0  0
   -3.8219   -0.2629    9.9301 C   0  0  0  0  0  0  0  0  0  0  0  0
   -3.5310   -0.8548   11.4774 S   0  0  0  0  0  0  0  0  0  0  0  0
   -5.2882   -0.5623    6.5025 C   0  0  0  0  0  0  0  0  0  0  0  0
   -5.2033    0.3716    5.4657 C   0  0  0  0  0  0  0  0  0  0  0  0
   -4.3538    1.7203    6.0278 S   0  0  0  0  0  0  0  0  0  0  0  0
   -5.7953    0.1962    4.1199 C   0  0  0  0  0  0  0  0  0  0  0  0
   -6.9802   -0.9606    3.7657 S   0  0  0  0  0  0  0  0  0  0  0  0
   -7.1241   -0.6187    2.1302 C   0  0  0  0  0  0  0  0  0  0  0  0
   -6.2038    0.3797    1.8163 C   0  0  0  0  0  0  0  0  0  0  0  0
   -5.4587    0.8407    2.9145 C   0  0  0  0  0  0  0  0  0  0  0  0
   -4.4334    1.7762    2.7075 C   0  0  0  0  0  0  0  0  0  0  0  0
   -4.1636    2.2535    1.4108 C   0  0  0  0  0  0  0  0  0  0  0  0
   -3.0608    3.2519    1.1921 C   0  0  0  0  0  0  0  0  0  0  0  0
   -4.9222    1.7936    0.3135 C   0  0  0  0  0  0  0  0  0  0  0  0
   -4.6206    2.2808   -0.9696 O   0  0  0  0  0  0  0  0  0  0  0  0
   -5.2314    1.8245   -2.1723 C   0  0  0  0  0  0  0  0  0  0  0  0
   -5.9472    0.8529    0.5231 C   0  0  0  0  0  0  0  0  0  0  0  0
   -7.7711   -1.4839    1.1397 C   0  0  0  0  0  0  0  0  0  0  0  0
   -6.8442   -2.4940    0.1741 S   0  0  0  0  0  0  0  0  0  0  0  0
   -7.8218   -2.5037   -1.1941 C   0  0  0  0  0  0  0  0  0  0  0  0
   -8.9341   -1.7089   -0.8950 C   0  0  0  0  0  0  0  0  0  0  0  0
   -8.8916   -1.1292    0.3874 C   0  0  0  0  0  0  0  0  0  0  0  0
   -9.8671   -0.2075    0.7828 C   0  0  0  0  0  0  0  0  0  0  0  0
  -10.9237    0.0998   -0.0946 C   0  0  0  0  0  0  0  0  0  0  0  0
  -11.9924    1.0671    0.3368 C   0  0  0  0  0  0  0  0  0  0  0  0
  -11.0070   -0.5299   -1.3589 C   0  0  0  0  0  0  0  0  0  0  0  0
  -12.1097   -0.2465   -2.1817 O   0  0  0  0  0  0  0  0  0  0  0  0
  -12.3796   -0.8913   -3.4192 C   0  0  0  0  0  0  0  0  0  0  0  0
   -9.9877   -1.4184   -1.7669 C   0  0  0  0  0  0  0  0  0  0  0  0
   -7.2349   -2.7353   -2.5252 C   0  0  0  0  0  0  0  0  0  0  0  0
   -6.0888   -3.5104   -2.7018 C   0  0  0  0  0  0  0  0  0  0  0  0
   -5.2745   -3.0841   -3.7628 C   0  0  0  0  0  0  0  0  0  0  0  0
   -3.9493   -3.5051   -4.0005 C   0  0  0  0  0  0  0  0  0  0  0  0
   -3.2423   -4.4330   -3.0873 C   0  0  0  0  0  0  0  0  0  0  0  0
   -3.0416   -4.0740   -1.7440 C   0  0  0  0  0  0  0  0  0  0  0  0
   -2.2732   -4.8841   -0.9041 C   0  0  0  0  0  0  0  0  0  0  0  0
   -1.6745   -6.0464   -1.4039 C   0  0  0  0  0  0  0  0  0  0  0  0
   -0.6379   -7.0467   -0.3302 S   0  0  0  0  0  0  0  0  0  0  0  0
    0.8550   -6.0031   -0.5117 C   0  0  0  0  0  0  0  0  0  0  0  0
    1.5508   -6.2487   -1.8444 C   0  0  0  0  0  0  0  0  0  0  0  0
   -1.8882   -6.4215   -2.7395 C   0  0  0  0  0  0  0  0  0  0  0  0
   -1.3340   -7.5609   -3.2285 F   0  0  0  0  0  0  0  0  0  0  0  0
   -2.6673   -5.6149   -3.5786 C   0  0  0  0  0  0  0  0  0  0  0  0
   -3.2268   -2.7958   -4.9736 C   0  0  0  0  0  0  0  0  0  0  0  0
   -3.7494   -1.6856   -5.6472 C   0  0  0  0  0  0  0  0  0  0  0  0
   -5.0874   -1.2870   -5.4334 C   0  0  0  0  0  0  0  0  0  0  0  0
   -5.6593   -0.0742   -6.0582 C   0  0  0  0  0  0  0  0  0  0  0  0
   -5.1119    1.1883   -5.7871 C   0  0  0  0  0  0  0  0  0  0  0  0
   -5.6548    2.3324   -6.3759 C   0  0  0  0  0  0  0  0  0  0  0  0
   -6.7446    2.2266   -7.2455 C   0  0  0  0  0  0  0  0  0  0  0  0
   -7.4289    3.7098   -7.9988 S   0  0  0  0  0  0  0  0  0  0  0  0
   -6.4382    3.5971   -9.5328 C   0  0  0  0  0  0  0  0  0  0  0  0
   -5.0147    4.0995   -9.3162 C   0  0  0  0  0  0  0  0  0  0  0  0
   -7.3119    0.9705   -7.5013 C   0  0  0  0  0  0  0  0  0  0  0  0
   -6.7705   -0.1758   -6.9091 C   0  0  0  0  0  0  0  0  0  0  0  0
   -8.3775    0.8540   -8.3328 F   0  0  0  0  0  0  0  0  0  0  0  0
   -5.8213   -2.0168   -4.4792 C   0  0  0  0  0  0  0  0  0  0  0  0
   -7.2688   -1.5673   -3.7500 S   0  0  0  0  0  0  0  0  0  0  0  0
   -2.7700   -0.9674   -6.3624 C   0  0  0  0  0  0  0  0  0  0  0  0
   -1.4916   -1.5099   -6.2394 C   0  0  0  0  0  0  0  0  0  0  0  0
   -1.5760   -2.8776   -5.2592 S   0  0  0  0  0  0  0  0  0  0  0  0
   -0.2558   -0.7338   -6.3134 C   0  0  0  0  0  0  0  0  0  0  0  0
    0.9679   -1.2973   -6.6704 C   0  0  0  0  0  0  0  0  0  0  0  0
    2.0636   -0.6966   -6.0287 C   0  0  0  0  0  0  0  0  0  0  0  0
    3.3914   -1.1578   -6.0747 C   0  0  0  0  0  0  0  0  0  0  0  0
    3.8135   -2.2411   -6.9856 C   0  0  0  0  0  0  0  0  0  0  0  0
    3.8484   -2.0227   -8.3694 C   0  0  0  0  0  0  0  0  0  0  0  0
    4.3271   -3.0172   -9.2255 C   0  0  0  0  0  0  0  0  0  0  0  0
    4.7762   -4.2378   -8.7051 C   0  0  0  0  0  0  0  0  0  0  0  0
    5.4511   -5.4890   -9.8062 S   0  0  0  0  0  0  0  0  0  0  0  0
    7.2002   -5.0276   -9.5307 C   0  0  0  0  0  0  0  0  0  0  0  0
    7.5806   -3.7931  -10.3367 C   0  0  0  0  0  0  0  0  0  0  0  0
    4.6945   -4.4792   -7.3269 C   0  0  0  0  0  0  0  0  0  0  0  0
    5.0983   -5.6684   -6.8139 F   0  0  0  0  0  0  0  0  0  0  0  0
    4.2200   -3.4819   -6.4699 C   0  0  0  0  0  0  0  0  0  0  0  0
    4.2901   -0.5949   -5.1554 C   0  0  0  0  0  0  0  0  0  0  0  0
    3.9132    0.3893   -4.2348 C   0  0  0  0  0  0  0  0  0  0  0  0
    2.5981    0.9028   -4.2307 C   0  0  0  0  0  0  0  0  0  0  0  0
    2.1600    1.8991   -3.2257 C   0  0  0  0  0  0  0  0  0  0  0  0
    1.1617    1.5757   -2.2901 C   0  0  0  0  0  0  0  0  0  0  0  0
    0.7871    2.5015   -1.3118 C   0  0  0  0  0  0  0  0  0  0  0  0
    1.4242    3.7456   -1.2392 C   0  0  0  0  0  0  0  0  0  0  0  0
    0.9524    4.9074    0.0477 S   0  0  0  0  0  0  0  0  0  0  0  0
    2.0230    4.1703    1.3362 C   0  0  0  0  0  0  0  0  0  0  0  0
    3.4329    4.7406    1.2654 C   0  0  0  0  0  0  0  0  0  0  0  0
    2.4146    4.0789   -2.1747 C   0  0  0  0  0  0  0  0  0  0  0  0
    2.7808    3.1587   -3.1636 C   0  0  0  0  0  0  0  0  0  0  0  0
    3.0281    5.2880   -2.1240 F   0  0  0  0  0  0  0  0  0  0  0  0
    1.6978    0.3309   -5.1522 C   0  0  0  0  0  0  0  0  0  0  0  0
    0.0308    0.5190   -5.2171 S   0  0  0  0  0  0  0  0  0  0  0  0
    4.9190    0.6702   -3.2924 C   0  0  0  0  0  0  0  0  0  0  0  0
    6.0764   -0.0810   -3.4929 C   0  0  0  0  0  0  0  0  0  0  0  0
    5.8665   -1.0785   -4.8367 S   0  0  0  0  0  0  0  0  0  0  0  0
    7.1997   -0.1937   -2.5549 C   0  0  0  0  0  0  0  0  0  0  0  0
    8.3449   -0.9533   -2.7763 C   0  0  0  0  0  0  0  0  0  0  0  0
    9.1694   -1.0411   -1.6454 C   0  0  0  0  0  0  0  0  0  0  0  0
   10.3754   -1.7625   -1.5521 C   0  0  0  0  0  0  0  0  0  0  0  0
   10.8565   -2.6068   -2.6654 C   0  0  0  0  0  0  0  0  0  0  0  0
   10.1038   -3.7176   -3.0728 C   0  0  0  0  0  0  0  0  0  0  0  0
   10.5282   -4.5018   -4.1463 C   0  0  0  0  0  0  0  0  0  0  0  0
   11.7000   -4.1735   -4.8375 C   0  0  0  0  0  0  0  0  0  0  0  0
   12.2428   -5.2060   -6.2064 S   0  0  0  0  0  0  0  0  0  0  0  0
   11.1195   -4.4658   -7.4464 C   0  0  0  0  0  0  0  0  0  0  0  0
   11.6640   -3.1421   -7.9643 C   0  0  0  0  0  0  0  0  0  0  0  0
   12.4650   -3.0711   -4.4263 C   0  0  0  0  0  0  0  0  0  0  0  0
   13.6140   -2.7523   -5.0735 F   0  0  0  0  0  0  0  0  0  0  0  0
   12.0445   -2.2914   -3.3413 C   0  0  0  0  0  0  0  0  0  0  0  0
   11.0463   -1.7153   -0.3191 C   0  0  0  0  0  0  0  0  0  0  0  0
   10.5412   -1.0278    0.7902 C   0  0  0  0  0  0  0  0  0  0  0  0
    9.3140   -0.3327    0.7056 C   0  0  0  0  0  0  0  0  0  0  0  0
    8.6835    0.2992    1.8847 C   0  0  0  0  0  0  0  0  0  0  0  0
    9.2907    1.3898    2.5258 C   0  0  0  0  0  0  0  0  0  0  0  0
    8.6889    1.9692    3.6483 C   0  0  0  0  0  0  0  0  0  0  0  0
    7.4798    1.4637    4.1393 C   0  0  0  0  0  0  0  0  0  0  0  0
    6.7488    2.1702    5.6215 S   0  0  0  0  0  0  0  0  0  0  0  0
    5.6199    3.3063    4.7416 C   0  0  0  0  0  0  0  0  0  0  0  0
    6.3396    4.5821    4.3272 C   0  0  0  0  0  0  0  0  0  0  0  0
    6.8731    0.3709    3.5051 C   0  0  0  0  0  0  0  0  0  0  0  0
    7.4698   -0.2051    2.3805 C   0  0  0  0  0  0  0  0  0  0  0  0
    5.7087   -0.1399    3.9797 F   0  0  0  0  0  0  0  0  0  0  0  0
    8.6662   -0.3461   -0.5409 C   0  0  0  0  0  0  0  0  0  0  0  0
    7.2033    0.3750   -0.9639 S   0  0  0  0  0  0  0  0  0  0  0  0
   11.3379   -1.1772    1.9376 C   0  0  0  0  0  0  0  0  0  0  0  0
   12.4648   -1.9661    1.7236 C   0  0  0  0  0  0  0  0  0  0  0  0
   12.4693   -2.4954    0.1228 S   0  0  0  0  0  0  0  0  0  0  0  0
   -2.2284    0.6107   12.9958 H   0  0  0  0  0  0  0  0  0  0  0  0
   -2.0637    2.3660   11.0763 H   0  0  0  0  0  0  0  0  0  0  0  0
   -4.2740    4.2043    9.1467 H   0  0  0  0  0  0  0  0  0  0  0  0
   -3.1731    6.3556    8.6427 H   0  0  0  0  0  0  0  0  0  0  0  0
    0.8870    6.2977    9.1580 H   0  0  0  0  0  0  0  0  0  0  0  0
   -0.5289    7.2078    9.8245 H   0  0  0  0  0  0  0  0  0  0  0  0
    1.5750    8.5313   10.0020 H   0  0  0  0  0  0  0  0  0  0  0  0
    1.8124    8.4138    8.2170 H   0  0  0  0  0  0  0  0  0  0  0  0
    0.4022    9.3328    8.8844 H   0  0  0  0  0  0  0  0  0  0  0  0
   -0.8738    2.0944    7.5448 H   0  0  0  0  0  0  0  0  0  0  0  0
   -7.1071   -1.5424    9.3849 H   0  0  0  0  0  0  0  0  0  0  0  0
   -8.0342   -3.8172    9.6412 H   0  0  0  0  0  0  0  0  0  0  0  0
   -7.0342   -5.5480   11.7558 H   0  0  0  0  0  0  0  0  0  0  0  0
   -7.3553   -7.3163   11.6842 H   0  0  0  0  0  0  0  0  0  0  0  0
   -4.5985   -5.9500   11.5136 H   0  0  0  0  0  0  0  0  0  0  0  0
   -5.2424   -6.9745   12.8431 H   0  0  0  0  0  0  0  0  0  0  0  0
   -4.8880   -7.7184   11.2386 H   0  0  0  0  0  0  0  0  0  0  0  0
   -3.2040   -3.2204    8.6620 H   0  0  0  0  0  0  0  0  0  0  0  0
   -5.7863   -1.5178    6.4009 H   0  0  0  0  0  0  0  0  0  0  0  0
   -3.8118    2.1176    3.5159 H   0  0  0  0  0  0  0  0  0  0  0  0
   -3.4972    4.2172    0.8625 H   0  0  0  0  0  0  0  0  0  0  0  0
   -2.4726    3.4271    2.1187 H   0  0  0  0  0  0  0  0  0  0  0  0
   -2.3658    2.8771    0.4110 H   0  0  0  0  0  0  0  0  0  0  0  0
   -6.3243    2.0255   -2.1512 H   0  0  0  0  0  0  0  0  0  0  0  0
   -4.7852    2.3678   -3.0273 H   0  0  0  0  0  0  0  0  0  0  0  0
   -5.0443    0.7371   -2.3015 H   0  0  0  0  0  0  0  0  0  0  0  0
   -6.5285    0.4809   -0.3096 H   0  0  0  0  0  0  0  0  0  0  0  0
   -9.8076    0.2614    1.7562 H   0  0  0  0  0  0  0  0  0  0  0  0
  -12.9348    0.5177    0.5385 H   0  0  0  0  0  0  0  0  0  0  0  0
  -12.1727    1.8160   -0.4638 H   0  0  0  0  0  0  0  0  0  0  0  0
  -11.6985    1.6174    1.2557 H   0  0  0  0  0  0  0  0  0  0  0  0
  -12.4803   -1.9867   -3.2645 H   0  0  0  0  0  0  0  0  0  0  0  0
  -13.3363   -0.5051   -3.8299 H   0  0  0  0  0  0  0  0  0  0  0  0
  -11.5704   -0.6783   -4.1475 H   0  0  0  0  0  0  0  0  0  0  0  0
  -10.0194   -1.8923   -2.7362 H   0  0  0  0  0  0  0  0  0  0  0  0
   -5.7795   -4.2568   -1.9819 H   0  0  0  0  0  0  0  0  0  0  0  0
   -3.4587   -3.1520   -1.3549 H   0  0  0  0  0  0  0  0  0  0  0  0
   -2.1169   -4.5891    0.1260 H   0  0  0  0  0  0  0  0  0  0  0  0
    1.5562   -6.2631    0.3085 H   0  0  0  0  0  0  0  0  0  0  0  0
    0.5983   -4.9266   -0.4118 H   0  0  0  0  0  0  0  0  0  0  0  0
    0.9088   -5.9168   -2.6855 H   0  0  0  0  0  0  0  0  0  0  0  0
    2.4980   -5.6689   -1.8769 H   0  0  0  0  0  0  0  0  0  0  0  0
    1.7832   -7.3283   -1.9610 H   0  0  0  0  0  0  0  0  0  0  0  0
   -2.8050   -5.9015   -4.6142 H   0  0  0  0  0  0  0  0  0  0  0  0
   -4.2624    1.2856   -5.1227 H   0  0  0  0  0  0  0  0  0  0  0  0
   -5.2195    3.3005   -6.1634 H   0  0  0  0  0  0  0  0  0  0  0  0
   -6.4193    2.5513   -9.9105 H   0  0  0  0  0  0  0  0  0  0  0  0
   -6.9261    4.2315  -10.3024 H   0  0  0  0  0  0  0  0  0  0  0  0
   -4.4534    3.4061   -8.6586 H   0  0  0  0  0  0  0  0  0  0  0  0
   -4.4902    4.1585  -10.2918 H   0  0  0  0  0  0  0  0  0  0  0  0
   -5.0295    5.1095   -8.8570 H   0  0  0  0  0  0  0  0  0  0  0  0
   -7.2087   -1.1456   -7.1216 H   0  0  0  0  0  0  0  0  0  0  0  0
   -2.9497   -0.0187   -6.8525 H   0  0  0  0  0  0  0  0  0  0  0  0
    1.0455   -2.2080   -7.2517 H   0  0  0  0  0  0  0  0  0  0  0  0
    3.5306   -1.0716   -8.7802 H   0  0  0  0  0  0  0  0  0  0  0  0
    4.3684   -2.8314  -10.2905 H   0  0  0  0  0  0  0  0  0  0  0  0
    7.8351   -5.8767   -9.8584 H   0  0  0  0  0  0  0  0  0  0  0  0
    7.3974   -4.8540   -8.4515 H   0  0  0  0  0  0  0  0  0  0  0  0
    7.3545   -3.9550  -11.4117 H   0  0  0  0  0  0  0  0  0  0  0  0
    7.0251   -2.9051   -9.9713 H   0  0  0  0  0  0  0  0  0  0  0  0
    8.6680   -3.5986  -10.2217 H   0  0  0  0  0  0  0  0  0  0  0  0
    4.1812   -3.6704   -5.4030 H   0  0  0  0  0  0  0  0  0  0  0  0
    0.6892    0.5995   -2.3040 H   0  0  0  0  0  0  0  0  0  0  0  0
    0.0188    2.2385   -0.5940 H   0  0  0  0  0  0  0  0  0  0  0  0
    2.0520    3.0616    1.2479 H   0  0  0  0  0  0  0  0  0  0  0  0
    1.5898    4.4166    2.3280 H   0  0  0  0  0  0  0  0  0  0  0  0
    4.0481    4.3217    2.0868 H   0  0  0  0  0  0  0  0  0  0  0  0
    3.9136    4.4803    0.3009 H   0  0  0  0  0  0  0  0  0  0  0  0
    3.3999    5.8446    1.3714 H   0  0  0  0  0  0  0  0  0  0  0  0
    3.5564    3.4199   -3.8737 H   0  0  0  0  0  0  0  0  0  0  0  0
    4.7908    1.3435   -2.4552 H   0  0  0  0  0  0  0  0  0  0  0  0
    8.5569   -1.4463   -3.7173 H   0  0  0  0  0  0  0  0  0  0  0  0
    9.1841   -3.9736   -2.5585 H   0  0  0  0  0  0  0  0  0  0  0  0
    9.9389   -5.3572   -4.4510 H   0  0  0  0  0  0  0  0  0  0  0  0
   11.0341   -5.1722   -8.2998 H   0  0  0  0  0  0  0  0  0  0  0  0
   10.1014   -4.3202   -7.0237 H   0  0  0  0  0  0  0  0  0  0  0  0
   11.6883   -2.3883   -7.1509 H   0  0  0  0  0  0  0  0  0  0  0  0
   12.6874   -3.2818   -8.3721 H   0  0  0  0  0  0  0  0  0  0  0  0
   11.0055   -2.7643   -8.7754 H   0  0  0  0  0  0  0  0  0  0  0  0
   12.6350   -1.4339   -3.0383 H   0  0  0  0  0  0  0  0  0  0  0  0
   10.2281    1.7875    2.1568 H   0  0  0  0  0  0  0  0  0  0  0  0
    9.1694    2.8044    4.1407 H   0  0  0  0  0  0  0  0  0  0  0  0
    5.1763    2.8105    3.8521 H   0  0  0  0  0  0  0  0  0  0  0  0
    4.7926    3.5716    5.4337 H   0  0  0  0  0  0  0  0  0  0  0  0
    5.6048    5.3045    3.9137 H   0  0  0  0  0  0  0  0  0  0  0  0
    6.8371    5.0440    5.2061 H   0  0  0  0  0  0  0  0  0  0  0  0
    7.0978    4.3632    3.5474 H   0  0  0  0  0  0  0  0  0  0  0  0
    6.9963   -1.0540    1.9032 H   0  0  0  0  0  0  0  0  0  0  0  0
   11.1064   -0.7421    2.8988 H   0  0  0  0  0  0  0  0  0  0  0  0
   13.2057   -2.2162    2.4720 H   0  0  0  0  0  0  0  0  0  0  0  0
  1  2  2  0
  2  3  1  0
  3  4  2  0
  4  5  1  0
  5  6  2  0
  6  7  1  0
  7  8  2  0
  8  9  1  0
  9 10  1  0
 10 11  1  0
  8 12  1  0
 12 13  1  0
 12 14  2  0
  4 15  1  0
 15 16  2  0
 16 17  1  0
 17 18  1  0
 18 19  2  0
 19 20  1  0
 20 21  2  0
 21 22  1  0
 22 23  1  0
 23 24  1  0
 21 25  1  0
 25 26  2  0
 25 27  1  0
 17 28  2  0
 28 29  1  0
 16 30  1  0
 30 31  2  0
 31 32  1  0
 31 33  1  0
 33 34  1  0
 34 35  1  0
 35 36  2  0
 36 37  1  0
 37 38  1  0
 38 39  2  0
 39 40  1  0
 39 41  1  0
 41 42  1  0
 42 43  1  0
 41 44  2  0
 35 45  1  0
 45 46  1  0
 46 47  1  0
 47 48  2  0
 48 49  1  0
 49 50  1  0
 50 51  2  0
 51 52  1  0
 51 53  1  0
 53 54  1  0
 54 55  1  0
 53 56  2  0
 47 57  1  0
 57 58  2  0
 58 59  1  0
 59 60  2  0
 60 61  1  0
 61 62  2  0
 62 63  1  0
 63 64  2  0
 64 65  1  0
 65 66  1  0
 66 67  1  0
 64 68  1  0
 68 69  1  0
 68 70  2  0
 60 71  1  0
 71 72  2  0
 72 73  1  0
 73 74  1  0
 74 75  2  0
 75 76  1  0
 76 77  2  0
 77 78  1  0
 78 79  1  0
 79 80  1  0
 77 81  1  0
 81 82  2  0
 81 83  1  0
 73 84  2  0
 84 85  1  0
 72 86  1  0
 86 87  2  0
 87 88  1  0
 87 89  1  0
 89 90  2  0
 90 91  1  0
 91 92  2  0
 92 93  1  0
 93 94  2  0
 94 95  1  0
 95 96  2  0
 96 97  1  0
 97 98  1  0
 98 99  1  0
 96100  1  0
100101  1  0
100102  2  0
 92103  1  0
103104  2  0
104105  1  0
105106  1  0
106107  2  0
107108  1  0
108109  2  0
109110  1  0
110111  1  0
111112  1  0
109113  1  0
113114  2  0
113115  1  0
105116  2  0
116117  1  0
104118  1  0
118119  2  0
119120  1  0
119121  1  0
121122  2  0
122123  1  0
123124  2  0
124125  1  0
125126  2  0
126127  1  0
127128  2  0
128129  1  0
129130  1  0
130131  1  0
128132  1  0
132133  1  0
132134  2  0
124135  1  0
135136  2  0
136137  1  0
137138  1  0
138139  2  0
139140  1  0
140141  2  0
141142  1  0
142143  1  0
143144  1  0
141145  1  0
145146  2  0
145147  1  0
137148  2  0
148149  1  0
136150  1  0
150151  2  0
151152  1  0
 29  1  1  0
 37 33  2  0
 49 45  2  0
 85 57  1  0
117 89  1  0
149121  1  0
 28  3  1  0
 44 36  1  0
 56 48  1  0
 84 59  1  0
116 91  1  0
148123  1  0
 14  5  1  0
 32 15  1  0
 70 61  1  0
 88 71  1  0
102 93  1  0
120103  1  0
134125  1  0
152135  1  0
 26 18  1  0
 82 74  1  0
114106  1  0
146138  1  0
  1153  1  0
  2154  1  0
  6155  1  0
  7156  1  0
 10157  1  0
 10158  1  0
 11159  1  0
 11160  1  0
 11161  1  0
 14162  1  0
 19163  1  0
 20164  1  0
 23165  1  0
 23166  1  0
 24167  1  0
 24168  1  0
 24169  1  0
 26170  1  0
 30171  1  0
 38172  1  0
 40173  1  0
 40174  1  0
 40175  1  0
 43176  1  0
 43177  1  0
 43178  1  0
 44179  1  0
 50180  1  0
 52181  1  0
 52182  1  0
 52183  1  0
 55184  1  0
 55185  1  0
 55186  1  0
 56187  1  0
 58188  1  0
 62189  1  0
 63190  1  0
 66191  1  0
 66192  1  0
 67193  1  0
 67194  1  0
 67195  1  0
 70196  1  0
 75197  1  0
 76198  1  0
 79199  1  0
 79200  1  0
 80201  1  0
 80202  1  0
 80203  1  0
 82204  1  0
 86205  1  0
 90206  1  0
 94207  1  0
 95208  1  0
 98209  1  0
 98210  1  0
 99211  1  0
 99212  1  0
 99213  1  0
102214  1  0
107215  1  0
108216  1  0
111217  1  0
111218  1  0
112219  1  0
112220  1  0
112221  1  0
114222  1  0
118223  1  0
122224  1  0
126225  1  0
127226  1  0
130227  1  0
130228  1  0
131229  1  0
131230  1  0
131231  1  0
134232  1  0
139233  1  0
140234  1  0
143235  1  0
143236  1  0
144237  1  0
144238  1  0
144239  1  0
146240  1  0
150241  1  0
151242  1  0
M  END

