
     RDKit          3D

 94101  0  0  0  0  0  0  0  0999 V2000
    7.2314    1.1782    3.1969 C   0  0  0  0  0  0  0  0  0  0  0  0
    7.2993    2.0552    2.2191 O   0  0  0  0  0  0  0  0  0  0  0  0
    6.1821    2.7480    2.1817 C   0  0  0  0  0  0  0  0  0  0  0  0
    5.3402    2.3211    3.1967 C   0  0  0  0  0  0  0  0  0  0  0  0
    6.0185    1.3067    3.8394 C   0  0  0  0  0  0  0  0  0  0  0  0
    5.5820    0.5593    4.9878 C   0  0  0  0  0  0  0  0  0  0  0  0
    5.2296   -0.0370    5.9145 N   0  0  0  0  0  0  0  0  0  0  0  0
    4.0619    2.8791    3.5720 C   0  0  0  0  0  0  0  0  0  0  0  0
    3.0349    3.3197    3.8734 N   0  0  0  0  0  0  0  0  0  0  0  0
    5.9479    3.8419    1.2218 C   0  0  0  0  0  0  0  0  0  0  0  0
    4.8195    4.0295    0.5243 C   0  0  0  0  0  0  0  0  0  0  0  0
    3.7056    3.0623    0.4305 C   0  0  0  0  0  0  0  0  0  0  0  0
    3.8507    1.3839    0.4076 S   0  0  0  0  0  0  0  0  0  0  0  0
    2.2269    1.0246    0.1318 C   0  0  0  0  0  0  0  0  0  0  0  0
    1.5371    2.2400    0.0395 C   0  0  0  0  0  0  0  0  0  0  0  0
    2.3633    3.3690    0.2036 C   0  0  0  0  0  0  0  0  0  0  0  0
    1.8233    4.6568    0.1501 C   0  0  0  0  0  0  0  0  0  0  0  0
    0.4480    4.8261   -0.0772 C   0  0  0  0  0  0  0  0  0  0  0  0
   -0.1315    6.2129   -0.1468 C   0  0  0  0  0  0  0  0  0  0  0  0
   -0.3803    3.7001   -0.2857 C   0  0  0  0  0  0  0  0  0  0  0  0
   -1.7411    3.9127   -0.5512 O   0  0  0  0  0  0  0  0  0  0  0  0
   -2.6633    2.8891   -0.9056 C   0  0  0  0  0  0  0  0  0  0  0  0
    0.1709    2.3994   -0.2209 C   0  0  0  0  0  0  0  0  0  0  0  0
    1.6713   -0.3458    0.1452 C   0  0  0  0  0  0  0  0  0  0  0  0
    0.2978   -0.8183    1.0076 S   0  0  0  0  0  0  0  0  0  0  0  0
    0.4796   -2.4790    0.8010 C   0  0  0  0  0  0  0  0  0  0  0  0
    1.6238   -2.6952    0.0321 C   0  0  0  0  0  0  0  0  0  0  0  0
    2.2899   -1.5108   -0.3269 C   0  0  0  0  0  0  0  0  0  0  0  0
    3.4429   -1.5696   -1.1180 C   0  0  0  0  0  0  0  0  0  0  0  0
    3.9460   -2.8164   -1.5335 C   0  0  0  0  0  0  0  0  0  0  0  0
    5.2077   -2.8800   -2.3501 C   0  0  0  0  0  0  0  0  0  0  0  0
    3.2846   -4.0092   -1.1621 C   0  0  0  0  0  0  0  0  0  0  0  0
    3.8189   -5.2388   -1.5837 O   0  0  0  0  0  0  0  0  0  0  0  0
    3.2639   -6.5100   -1.2608 C   0  0  0  0  0  0  0  0  0  0  0  0
    2.1058   -3.9397   -0.3901 C   0  0  0  0  0  0  0  0  0  0  0  0
   -0.3963   -3.4980    1.3980 C   0  0  0  0  0  0  0  0  0  0  0  0
   -1.7008   -3.5217    1.2371 O   0  0  0  0  0  0  0  0  0  0  0  0
   -2.1888   -4.5800    1.8459 C   0  0  0  0  0  0  0  0  0  0  0  0
   -1.1599   -5.2595    2.4746 C   0  0  0  0  0  0  0  0  0  0  0  0
   -0.0060   -4.5674    2.1836 C   0  0  0  0  0  0  0  0  0  0  0  0
    1.3216   -4.8728    2.6521 C   0  0  0  0  0  0  0  0  0  0  0  0
    2.3885   -5.1178    3.0244 N   0  0  0  0  0  0  0  0  0  0  0  0
   -1.2652   -6.4660    3.2554 C   0  0  0  0  0  0  0  0  0  0  0  0
   -1.3530   -7.4355    3.8811 N   0  0  0  0  0  0  0  0  0  0  0  0
   -3.6098   -4.9862    1.8772 C   0  0  0  0  0  0  0  0  0  0  0  0
   -4.5556   -4.7060    0.9650 C   0  0  0  0  0  0  0  0  0  0  0  0
   -4.3957   -3.9251   -0.2805 C   0  0  0  0  0  0  0  0  0  0  0  0
   -3.3310   -3.2387   -0.6262 O   0  0  0  0  0  0  0  0  0  0  0  0
   -3.5521   -2.6311   -1.7678 C   0  0  0  0  0  0  0  0  0  0  0  0
   -4.8193   -2.9566   -2.2229 C   0  0  0  0  0  0  0  0  0  0  0  0
   -5.3604   -3.7837   -1.2621 C   0  0  0  0  0  0  0  0  0  0  0  0
   -6.6666   -4.3902   -1.2871 C   0  0  0  0  0  0  0  0  0  0  0  0
   -7.7163   -4.8757   -1.3104 N   0  0  0  0  0  0  0  0  0  0  0  0
   -5.4289   -2.5797   -3.4711 C   0  0  0  0  0  0  0  0  0  0  0  0
   -5.9192   -2.2837   -4.4751 N   0  0  0  0  0  0  0  0  0  0  0  0
   -2.5626   -1.7407   -2.3991 C   0  0  0  0  0  0  0  0  0  0  0  0
   -2.8335   -0.5099   -2.8516 C   0  0  0  0  0  0  0  0  0  0  0  0
   -4.1167    0.1921   -2.6623 C   0  0  0  0  0  0  0  0  0  0  0  0
   -4.7136    0.8518   -3.6306 O   0  0  0  0  0  0  0  0  0  0  0  0
   -5.8233    1.3901   -3.1733 C   0  0  0  0  0  0  0  0  0  0  0  0
   -5.9645    1.0735   -1.8257 C   0  0  0  0  0  0  0  0  0  0  0  0
   -4.8631    0.3100   -1.4982 C   0  0  0  0  0  0  0  0  0  0  0  0
   -4.5191   -0.1623   -0.1805 C   0  0  0  0  0  0  0  0  0  0  0  0
   -4.2469   -0.5391    0.8792 N   0  0  0  0  0  0  0  0  0  0  0  0
   -7.0591    1.3890   -0.9419 C   0  0  0  0  0  0  0  0  0  0  0  0
   -7.9346    1.6358   -0.2259 N   0  0  0  0  0  0  0  0  0  0  0  0
   -6.7183    2.1773   -4.0438 C   0  0  0  0  0  0  0  0  0  0  0  0
   -7.6090    3.0616   -3.6022 C   0  0  0  0  0  0  0  0  0  0  0  0
    8.0176    0.4760    3.4430 H   0  0  0  0  0  0  0  0  0  0  0  0
    6.7527    4.5519    1.0820 H   0  0  0  0  0  0  0  0  0  0  0  0
    4.7413    4.9343   -0.0685 H   0  0  0  0  0  0  0  0  0  0  0  0
    2.4571    5.5211    0.2951 H   0  0  0  0  0  0  0  0  0  0  0  0
   -0.4116    6.4443   -1.1938 H   0  0  0  0  0  0  0  0  0  0  0  0
   -1.0328    6.2818    0.4959 H   0  0  0  0  0  0  0  0  0  0  0  0
    0.5917    6.9793    0.2010 H   0  0  0  0  0  0  0  0  0  0  0  0
   -2.7571    2.1583   -0.0729 H   0  0  0  0  0  0  0  0  0  0  0  0
   -3.6548    3.3483   -1.0922 H   0  0  0  0  0  0  0  0  0  0  0  0
   -2.3244    2.3784   -1.8330 H   0  0  0  0  0  0  0  0  0  0  0  0
   -0.4481    1.5295   -0.3880 H   0  0  0  0  0  0  0  0  0  0  0  0
    3.9377   -0.6633   -1.4337 H   0  0  0  0  0  0  0  0  0  0  0  0
    5.0559   -3.5273   -3.2423 H   0  0  0  0  0  0  0  0  0  0  0  0
    5.5114   -1.8744   -2.7097 H   0  0  0  0  0  0  0  0  0  0  0  0
    6.0292   -3.2928   -1.7274 H   0  0  0  0  0  0  0  0  0  0  0  0
    2.2343   -6.5897   -1.6679 H   0  0  0  0  0  0  0  0  0  0  0  0
    3.8881   -7.3064   -1.7137 H   0  0  0  0  0  0  0  0  0  0  0  0
    3.2491   -6.6503   -0.1596 H   0  0  0  0  0  0  0  0  0  0  0  0
    1.5665   -4.8385   -0.1318 H   0  0  0  0  0  0  0  0  0  0  0  0
   -3.9057   -5.6306    2.6982 H   0  0  0  0  0  0  0  0  0  0  0  0
   -5.5375   -5.1308    1.1373 H   0  0  0  0  0  0  0  0  0  0  0  0
   -1.5435   -2.0991   -2.4819 H   0  0  0  0  0  0  0  0  0  0  0  0
   -2.0598    0.0132   -3.3983 H   0  0  0  0  0  0  0  0  0  0  0  0
   -6.6019    2.0603   -5.1115 H   0  0  0  0  0  0  0  0  0  0  0  0
   -7.7374    3.2800   -2.5540 H   0  0  0  0  0  0  0  0  0  0  0  0
   -8.2098    3.6177   -4.3104 H   0  0  0  0  0  0  0  0  0  0  0  0
  1  2  1  0
  2  3  1  0
  3  4  2  0
  4  5  1  0
  5  6  1  0
  6  7  3  0
  4  8  1  0
  8  9  3  0
  3 10  1  0
 10 11  2  3
 11 12  1  0
 12 13  1  0
 13 14  1  0
 14 15  2  0
 15 16  1  0
 16 17  1  0
 17 18  2  0
 18 19  1  0
 18 20  1  0
 20 21  1  0
 21 22  1  0
 20 23  2  0
 14 24  1  0
 24 25  1  0
 25 26  1  0
 26 27  2  0
 27 28  1  0
 28 29  1  0
 29 30  2  0
 30 31  1  0
 30 32  1  0
 32 33  1  0
 33 34  1  0
 32 35  2  0
 26 36  1  0
 36 37  1  0
 37 38  1  0
 38 39  2  0
 39 40  1  0
 40 41  1  0
 41 42  3  0
 39 43  1  0
 43 44  3  0
 38 45  1  0
 45 46  2  3
 46 47  1  0
 47 48  1  0
 48 49  1  0
 49 50  2  0
 50 51  1  0
 51 52  1  0
 52 53  3  0
 50 54  1  0
 54 55  3  0
 49 56  1  0
 56 57  2  3
 57 58  1  0
 58 59  1  0
 59 60  1  0
 60 61  2  0
 61 62  1  0
 62 63  1  0
 63 64  3  0
 61 65  1  0
 65 66  3  0
 60 67  1  0
 67 68  2  3
  5  1  2  0
 16 12  2  0
 28 24  2  0
 40 36  2  0
 51 47  2  0
 62 58  2  0
 23 15  1  0
 35 27  1  0
  1 69  1  0
 10 70  1  0
 11 71  1  0
 17 72  1  0
 19 73  1  0
 19 74  1  0
 19 75  1  0
 22 76  1  0
 22 77  1  0
 22 78  1  0
 23 79  1  0
 29 80  1  0
 31 81  1  0
 31 82  1  0
 31 83  1  0
 34 84  1  0
 34 85  1  0
 34 86  1  0
 35 87  1  0
 45 88  1  0
 46 89  1  0
 56 90  1  0
 57 91  1  0
 67 92  1  0
 68 93  1  0
 68 94  1  0
M  END

