
     RDKit          3D

182199  0  0  0  0  0  0  0  0999 V2000
   -1.1102  -12.3590    0.0806 C   0  0  0  0  0  0  0  0  0  0  0  0
    0.0751  -11.1939   -0.1984 S   0  0  0  0  0  0  0  0  0  0  0  0
   -0.7283  -10.3595   -1.4265 C   0  0  0  0  0  0  0  0  0  0  0  0
   -1.9577  -10.9923   -1.6293 C   0  0  0  0  0  0  0  0  0  0  0  0
   -2.1604  -12.0996   -0.7893 C   0  0  0  0  0  0  0  0  0  0  0  0
   -3.3371  -12.8424   -0.8604 C   0  0  0  0  0  0  0  0  0  0  0  0
   -4.3264  -12.4840   -1.7941 C   0  0  0  0  0  0  0  0  0  0  0  0
   -5.6027  -13.2721   -1.8725 C   0  0  0  0  0  0  0  0  0  0  0  0
   -4.1207  -11.3875   -2.6644 C   0  0  0  0  0  0  0  0  0  0  0  0
   -5.1177  -11.0767   -3.6048 O   0  0  0  0  0  0  0  0  0  0  0  0
   -5.0054  -10.0566   -4.5901 C   0  0  0  0  0  0  0  0  0  0  0  0
   -2.9261  -10.6395   -2.5771 C   0  0  0  0  0  0  0  0  0  0  0  0
   -0.2505   -9.1120   -2.0500 C   0  0  0  0  0  0  0  0  0  0  0  0
   -1.1802   -7.7207   -2.2206 S   0  0  0  0  0  0  0  0  0  0  0  0
    0.0153   -6.7362   -2.8811 C   0  0  0  0  0  0  0  0  0  0  0  0
    1.1826   -7.5025   -2.9892 C   0  0  0  0  0  0  0  0  0  0  0  0
    1.0359   -8.8216   -2.5156 C   0  0  0  0  0  0  0  0  0  0  0  0
    2.1062   -9.7195   -2.5810 C   0  0  0  0  0  0  0  0  0  0  0  0
    3.3338   -9.3032   -3.1214 C   0  0  0  0  0  0  0  0  0  0  0  0
    4.4838  -10.2738   -3.1372 C   0  0  0  0  0  0  0  0  0  0  0  0
    3.4925   -7.9765   -3.5892 C   0  0  0  0  0  0  0  0  0  0  0  0
    4.7433   -7.5711   -4.0867 O   0  0  0  0  0  0  0  0  0  0  0  0
    5.0581   -6.2467   -4.5127 C   0  0  0  0  0  0  0  0  0  0  0  0
    2.3962   -7.0881   -3.5485 C   0  0  0  0  0  0  0  0  0  0  0  0
   -0.1899   -5.3132   -3.2050 C   0  0  0  0  0  0  0  0  0  0  0  0
    0.7391   -4.2855   -3.0476 C   0  0  0  0  0  0  0  0  0  0  0  0
    0.2028   -3.0132   -3.3040 C   0  0  0  0  0  0  0  0  0  0  0  0
    0.8810   -1.7821   -3.1758 C   0  0  0  0  0  0  0  0  0  0  0  0
    2.2805   -1.7195   -2.6927 C   0  0  0  0  0  0  0  0  0  0  0  0
    3.3182   -2.3058   -3.4342 C   0  0  0  0  0  0  0  0  0  0  0  0
    4.6233   -2.3198   -2.9308 C   0  0  0  0  0  0  0  0  0  0  0  0
    4.9069   -1.7410   -1.6883 C   0  0  0  0  0  0  0  0  0  0  0  0
    6.5748   -1.8205   -1.0265 S   0  0  0  0  0  0  0  0  0  0  0  0
    7.1757   -0.3097   -1.8591 C   0  0  0  0  0  0  0  0  0  0  0  0
    6.8168    0.9347   -1.0595 C   0  0  0  0  0  0  0  0  0  0  0  0
    3.8761   -1.1494   -0.9462 C   0  0  0  0  0  0  0  0  0  0  0  0
    4.1273   -0.6136    0.2729 F   0  0  0  0  0  0  0  0  0  0  0  0
    2.5708   -1.1379   -1.4495 C   0  0  0  0  0  0  0  0  0  0  0  0
    0.1132   -0.6169   -3.3615 C   0  0  0  0  0  0  0  0  0  0  0  0
   -1.2634   -0.6494   -3.6070 C   0  0  0  0  0  0  0  0  0  0  0  0
   -1.9347   -1.8799   -3.7493 C   0  0  0  0  0  0  0  0  0  0  0  0
   -3.4003   -1.9447   -3.9159 C   0  0  0  0  0  0  0  0  0  0  0  0
   -4.0122   -1.4074   -5.0585 C   0  0  0  0  0  0  0  0  0  0  0  0
   -5.4015   -1.4708   -5.2085 C   0  0  0  0  0  0  0  0  0  0  0  0
   -6.1882   -2.0620   -4.2141 C   0  0  0  0  0  0  0  0  0  0  0  0
   -7.9658   -2.1596   -4.4243 S   0  0  0  0  0  0  0  0  0  0  0  0
   -7.8995   -3.8011   -5.2169 C   0  0  0  0  0  0  0  0  0  0  0  0
   -9.3021   -4.2759   -5.5534 C   0  0  0  0  0  0  0  0  0  0  0  0
   -5.5839   -2.5782   -3.0599 C   0  0  0  0  0  0  0  0  0  0  0  0
   -4.1963   -2.5209   -2.9139 C   0  0  0  0  0  0  0  0  0  0  0  0
   -6.3377   -3.1392   -2.0792 F   0  0  0  0  0  0  0  0  0  0  0  0
   -1.1622   -3.0450   -3.6088 C   0  0  0  0  0  0  0  0  0  0  0  0
   -1.6856   -4.6424   -3.6011 S   0  0  0  0  0  0  0  0  0  0  0  0
   -1.8719    0.6144   -3.5090 C   0  0  0  0  0  0  0  0  0  0  0  0
   -0.9728    1.6375   -3.2136 C   0  0  0  0  0  0  0  0  0  0  0  0
    0.5713    0.9705   -3.0752 S   0  0  0  0  0  0  0  0  0  0  0  0
   -1.3407    2.8148   -2.4301 C   0  0  0  0  0  0  0  0  0  0  0  0
   -1.9099    2.6669   -1.1676 C   0  0  0  0  0  0  0  0  0  0  0  0
   -1.5873    3.7043   -0.2848 C   0  0  0  0  0  0  0  0  0  0  0  0
   -1.7681    3.6583    1.1108 C   0  0  0  0  0  0  0  0  0  0  0  0
   -2.4574    2.5212    1.7504 C   0  0  0  0  0  0  0  0  0  0  0  0
   -1.7227    1.5361    2.4338 C   0  0  0  0  0  0  0  0  0  0  0  0
   -2.3708    0.4111    2.9506 C   0  0  0  0  0  0  0  0  0  0  0  0
   -3.7524    0.2557    2.7871 C   0  0  0  0  0  0  0  0  0  0  0  0
   -4.5775   -1.1919    3.4561 S   0  0  0  0  0  0  0  0  0  0  0  0
   -5.0056   -0.3683    5.0245 C   0  0  0  0  0  0  0  0  0  0  0  0
   -5.9308   -1.2546    5.8412 C   0  0  0  0  0  0  0  0  0  0  0  0
   -4.4851    1.2322    2.0949 C   0  0  0  0  0  0  0  0  0  0  0  0
   -5.8248    1.0918    1.9242 F   0  0  0  0  0  0  0  0  0  0  0  0
   -3.8380    2.3571    1.5794 C   0  0  0  0  0  0  0  0  0  0  0  0
   -1.1087    4.6422    1.8615 C   0  0  0  0  0  0  0  0  0  0  0  0
   -0.3725    5.6751    1.2696 C   0  0  0  0  0  0  0  0  0  0  0  0
   -0.2331    5.7496   -0.1302 C   0  0  0  0  0  0  0  0  0  0  0  0
    0.6610    6.7453   -0.7571 C   0  0  0  0  0  0  0  0  0  0  0  0
    1.8862    6.3469   -1.3104 C   0  0  0  0  0  0  0  0  0  0  0  0
    2.7663    7.3014   -1.8260 C   0  0  0  0  0  0  0  0  0  0  0  0
    2.4349    8.6590   -1.7861 C   0  0  0  0  0  0  0  0  0  0  0  0
    3.6109    9.8822   -2.3773 S   0  0  0  0  0  0  0  0  0  0  0  0
    2.9937    9.8381   -4.0927 C   0  0  0  0  0  0  0  0  0  0  0  0
    3.7683   10.8305   -4.9451 C   0  0  0  0  0  0  0  0  0  0  0  0
    1.2076    9.0613   -1.2405 C   0  0  0  0  0  0  0  0  0  0  0  0
    0.3242    8.1074   -0.7279 C   0  0  0  0  0  0  0  0  0  0  0  0
    0.8775   10.3764   -1.1847 F   0  0  0  0  0  0  0  0  0  0  0  0
   -0.8199    4.7134   -0.8768 C   0  0  0  0  0  0  0  0  0  0  0  0
   -0.4849    4.2708   -2.4679 S   0  0  0  0  0  0  0  0  0  0  0  0
    0.3380    6.4495    2.1999 C   0  0  0  0  0  0  0  0  0  0  0  0
    0.2402    5.9616    3.5022 C   0  0  0  0  0  0  0  0  0  0  0  0
   -0.8336    4.6579    3.5227 S   0  0  0  0  0  0  0  0  0  0  0  0
    1.1106    6.3226    4.6379 C   0  0  0  0  0  0  0  0  0  0  0  0
    0.6632    6.1331    6.2531 S   0  0  0  0  0  0  0  0  0  0  0  0
    2.1595    6.4854    6.9353 C   0  0  0  0  0  0  0  0  0  0  0  0
    3.0603    6.7117    5.8966 C   0  0  0  0  0  0  0  0  0  0  0  0
    2.4876    6.6070    4.6146 C   0  0  0  0  0  0  0  0  0  0  0  0
    3.3133    6.6634    3.4819 C   0  0  0  0  0  0  0  0  0  0  0  0
    4.6914    6.9022    3.6291 C   0  0  0  0  0  0  0  0  0  0  0  0
    5.5622    7.0153    2.4042 C   0  0  0  0  0  0  0  0  0  0  0  0
    5.2572    7.0392    4.9151 C   0  0  0  0  0  0  0  0  0  0  0  0
    6.6393    7.2697    5.0199 O   0  0  0  0  0  0  0  0  0  0  0  0
    7.3491    7.4081    6.2488 C   0  0  0  0  0  0  0  0  0  0  0  0
    4.4331    6.9285    6.0541 C   0  0  0  0  0  0  0  0  0  0  0  0
    2.5050    6.2089    8.3331 C   0  0  0  0  0  0  0  0  0  0  0  0
    2.9395    7.3608    9.4854 S   0  0  0  0  0  0  0  0  0  0  0  0
    3.2481    6.2781   10.7432 C   0  0  0  0  0  0  0  0  0  0  0  0
    3.0283    4.9918   10.2566 C   0  0  0  0  0  0  0  0  0  0  0  0
    2.6205    4.9506    8.9164 C   0  0  0  0  0  0  0  0  0  0  0  0
    2.4113    3.7257    8.2769 C   0  0  0  0  0  0  0  0  0  0  0  0
    2.6118    2.5297    8.9893 C   0  0  0  0  0  0  0  0  0  0  0  0
    2.3848    1.2096    8.3028 C   0  0  0  0  0  0  0  0  0  0  0  0
    2.9995    2.5672   10.3513 C   0  0  0  0  0  0  0  0  0  0  0  0
    3.1712    1.3516   11.0342 O   0  0  0  0  0  0  0  0  0  0  0  0
    3.5954    1.2369   12.3909 C   0  0  0  0  0  0  0  0  0  0  0  0
    3.2128    3.8138   10.9853 C   0  0  0  0  0  0  0  0  0  0  0  0
   -1.0613  -13.1584    0.8068 H   0  0  0  0  0  0  0  0  0  0  0  0
   -3.4824  -13.6894   -0.1991 H   0  0  0  0  0  0  0  0  0  0  0  0
   -5.7356  -13.6768   -2.9000 H   0  0  0  0  0  0  0  0  0  0  0  0
   -5.6048  -14.1198   -1.1577 H   0  0  0  0  0  0  0  0  0  0  0  0
   -6.4601  -12.6079   -1.6296 H   0  0  0  0  0  0  0  0  0  0  0  0
   -4.1269  -10.2490   -5.2407 H   0  0  0  0  0  0  0  0  0  0  0  0
   -4.9137   -9.0618   -4.1054 H   0  0  0  0  0  0  0  0  0  0  0  0
   -5.9176  -10.0603   -5.2207 H   0  0  0  0  0  0  0  0  0  0  0  0
   -2.7521   -9.8091   -3.2448 H   0  0  0  0  0  0  0  0  0  0  0  0
    1.9887  -10.7401   -2.2366 H   0  0  0  0  0  0  0  0  0  0  0  0
    4.9573  -10.3023   -2.1321 H   0  0  0  0  0  0  0  0  0  0  0  0
    4.1260  -11.2950   -3.3925 H   0  0  0  0  0  0  0  0  0  0  0  0
    5.2487   -9.9949   -3.8902 H   0  0  0  0  0  0  0  0  0  0  0  0
    6.1239   -6.2103   -4.8186 H   0  0  0  0  0  0  0  0  0  0  0  0
    4.9052   -5.5305   -3.6793 H   0  0  0  0  0  0  0  0  0  0  0  0
    4.4319   -5.9636   -5.3852 H   0  0  0  0  0  0  0  0  0  0  0  0
    2.4869   -6.1033   -3.9769 H   0  0  0  0  0  0  0  0  0  0  0  0
    1.7413   -4.4446   -2.6771 H   0  0  0  0  0  0  0  0  0  0  0  0
    3.1134   -2.7699   -4.3901 H   0  0  0  0  0  0  0  0  0  0  0  0
    5.4125   -2.7917   -3.5035 H   0  0  0  0  0  0  0  0  0  0  0  0
    8.2816   -0.3773   -1.9346 H   0  0  0  0  0  0  0  0  0  0  0  0
    6.7655   -0.2347   -2.8860 H   0  0  0  0  0  0  0  0  0  0  0  0
    7.1926    0.8448   -0.0157 H   0  0  0  0  0  0  0  0  0  0  0  0
    7.2796    1.8268   -1.5298 H   0  0  0  0  0  0  0  0  0  0  0  0
    5.7168    1.0803   -1.0393 H   0  0  0  0  0  0  0  0  0  0  0  0
    1.7788   -0.7059   -0.8487 H   0  0  0  0  0  0  0  0  0  0  0  0
   -3.4124   -0.9486   -5.8341 H   0  0  0  0  0  0  0  0  0  0  0  0
   -5.8630   -1.0653   -6.1018 H   0  0  0  0  0  0  0  0  0  0  0  0
   -7.4241   -4.5313   -4.5262 H   0  0  0  0  0  0  0  0  0  0  0  0
   -7.2971   -3.7435   -6.1484 H   0  0  0  0  0  0  0  0  0  0  0  0
   -9.2530   -5.2582   -6.0686 H   0  0  0  0  0  0  0  0  0  0  0  0
   -9.8995   -4.3876   -4.6249 H   0  0  0  0  0  0  0  0  0  0  0  0
   -9.8003   -3.5447   -6.2254 H   0  0  0  0  0  0  0  0  0  0  0  0
   -3.7397   -2.9153   -2.0153 H   0  0  0  0  0  0  0  0  0  0  0  0
   -2.9429    0.7634   -3.5076 H   0  0  0  0  0  0  0  0  0  0  0  0
   -2.3742    1.7412   -0.8466 H   0  0  0  0  0  0  0  0  0  0  0  0
   -0.6501    1.6274    2.5448 H   0  0  0  0  0  0  0  0  0  0  0  0
   -1.7997   -0.3536    3.4662 H   0  0  0  0  0  0  0  0  0  0  0  0
   -4.0799   -0.1629    5.6052 H   0  0  0  0  0  0  0  0  0  0  0  0
   -5.5195    0.5954    4.8119 H   0  0  0  0  0  0  0  0  0  0  0  0
   -6.8677   -1.4557    5.2750 H   0  0  0  0  0  0  0  0  0  0  0  0
   -6.1897   -0.7492    6.7968 H   0  0  0  0  0  0  0  0  0  0  0  0
   -5.4288   -2.2218    6.0710 H   0  0  0  0  0  0  0  0  0  0  0  0
   -4.4104    3.0967    1.0339 H   0  0  0  0  0  0  0  0  0  0  0  0
    2.1686    5.3020   -1.3218 H   0  0  0  0  0  0  0  0  0  0  0  0
    3.7157    6.9847   -2.2396 H   0  0  0  0  0  0  0  0  0  0  0  0
    1.9142   10.1041   -4.1119 H   0  0  0  0  0  0  0  0  0  0  0  0
    3.1247    8.8153   -4.5122 H   0  0  0  0  0  0  0  0  0  0  0  0
    4.8493   10.5701   -4.9505 H   0  0  0  0  0  0  0  0  0  0  0  0
    3.6404   11.8610   -4.5440 H   0  0  0  0  0  0  0  0  0  0  0  0
    3.3897   10.8044   -5.9892 H   0  0  0  0  0  0  0  0  0  0  0  0
   -0.6153    8.4268   -0.2921 H   0  0  0  0  0  0  0  0  0  0  0  0
    0.9635    7.2853    1.9240 H   0  0  0  0  0  0  0  0  0  0  0  0
    2.9182    6.4944    2.4937 H   0  0  0  0  0  0  0  0  0  0  0  0
    6.3921    6.2779    2.4583 H   0  0  0  0  0  0  0  0  0  0  0  0
    5.9922    8.0374    2.3439 H   0  0  0  0  0  0  0  0  0  0  0  0
    4.9895    6.8240    1.4732 H   0  0  0  0  0  0  0  0  0  0  0  0
    6.9587    8.2754    6.8200 H   0  0  0  0  0  0  0  0  0  0  0  0
    8.4234    7.5832    6.0281 H   0  0  0  0  0  0  0  0  0  0  0  0
    7.2564    6.4794    6.8478 H   0  0  0  0  0  0  0  0  0  0  0  0
    4.8561    6.9914    7.0491 H   0  0  0  0  0  0  0  0  0  0  0  0
    3.5620    6.5399   11.7429 H   0  0  0  0  0  0  0  0  0  0  0  0
    2.1113    3.6981    7.2354 H   0  0  0  0  0  0  0  0  0  0  0  0
    2.2008    1.3404    7.2158 H   0  0  0  0  0  0  0  0  0  0  0  0
    3.2810    0.5630    8.4264 H   0  0  0  0  0  0  0  0  0  0  0  0
    1.5027    0.7051    8.7502 H   0  0  0  0  0  0  0  0  0  0  0  0
    3.6740    0.1631   12.6554 H   0  0  0  0  0  0  0  0  0  0  0  0
    2.8518    1.7127   13.0636 H   0  0  0  0  0  0  0  0  0  0  0  0
    4.5900    1.7094   12.5203 H   0  0  0  0  0  0  0  0  0  0  0  0
    3.5238    3.8737   12.0199 H   0  0  0  0  0  0  0  0  0  0  0  0
  1  2  1  0
  2  3  1  0
  3  4  2  0
  4  5  1  0
  5  6  1  0
  6  7  2  0
  7  8  1  0
  7  9  1  0
  9 10  1  0
 10 11  1  0
  9 12  2  0
  3 13  1  0
 13 14  1  0
 14 15  1  0
 15 16  2  0
 16 17  1  0
 17 18  1  0
 18 19  2  0
 19 20  1  0
 19 21  1  0
 21 22  1  0
 22 23  1  0
 21 24  2  0
 15 25  1  0
 25 26  2  0
 26 27  1  0
 27 28  2  0
 28 29  1  0
 29 30  2  0
 30 31  1  0
 31 32  2  0
 32 33  1  0
 33 34  1  0
 34 35  1  0
 32 36  1  0
 36 37  1  0
 36 38  2  0
 28 39  1  0
 39 40  2  0
 40 41  1  0
 41 42  1  0
 42 43  2  0
 43 44  1  0
 44 45  2  0
 45 46  1  0
 46 47  1  0
 47 48  1  0
 45 49  1  0
 49 50  2  0
 49 51  1  0
 41 52  2  0
 52 53  1  0
 40 54  1  0
 54 55  2  0
 55 56  1  0
 55 57  1  0
 57 58  2  0
 58 59  1  0
 59 60  2  0
 60 61  1  0
 61 62  2  0
 62 63  1  0
 63 64  2  0
 64 65  1  0
 65 66  1  0
 66 67  1  0
 64 68  1  0
 68 69  1  0
 68 70  2  0
 60 71  1  0
 71 72  2  0
 72 73  1  0
 73 74  1  0
 74 75  2  0
 75 76  1  0
 76 77  2  0
 77 78  1  0
 78 79  1  0
 79 80  1  0
 77 81  1  0
 81 82  2  0
 81 83  1  0
 73 84  2  0
 84 85  1  0
 72 86  1  0
 86 87  2  0
 87 88  1  0
 87 89  1  0
 89 90  1  0
 90 91  1  0
 91 92  2  0
 92 93  1  0
 93 94  1  0
 94 95  2  0
 95 96  1  0
 95 97  1  0
 97 98  1  0
 98 99  1  0
 97100  2  0
 91101  1  0
101102  1  0
102103  1  0
103104  2  0
104105  1  0
105106  1  0
106107  2  0
107108  1  0
107109  1  0
109110  1  0
110111  1  0
109112  2  0
  5  1  2  0
 17 13  2  0
 53 25  1  0
 85 57  1  0
 93 89  2  0
105101  2  0
 12  4  1  0
 24 16  1  0
 52 27  1  0
 84 59  1  0
100 92  1  0
112104  1  0
 38 29  1  0
 56 39  1  0
 70 61  1  0
 88 71  1  0
 50 42  1  0
 82 74  1  0
  1113  1  0
  6114  1  0
  8115  1  0
  8116  1  0
  8117  1  0
 11118  1  0
 11119  1  0
 11120  1  0
 12121  1  0
 18122  1  0
 20123  1  0
 20124  1  0
 20125  1  0
 23126  1  0
 23127  1  0
 23128  1  0
 24129  1  0
 26130  1  0
 30131  1  0
 31132  1  0
 34133  1  0
 34134  1  0
 35135  1  0
 35136  1  0
 35137  1  0
 38138  1  0
 43139  1  0
 44140  1  0
 47141  1  0
 47142  1  0
 48143  1  0
 48144  1  0
 48145  1  0
 50146  1  0
 54147  1  0
 58148  1  0
 62149  1  0
 63150  1  0
 66151  1  0
 66152  1  0
 67153  1  0
 67154  1  0
 67155  1  0
 70156  1  0
 75157  1  0
 76158  1  0
 79159  1  0
 79160  1  0
 80161  1  0
 80162  1  0
 80163  1  0
 82164  1  0
 86165  1  0
 94166  1  0
 96167  1  0
 96168  1  0
 96169  1  0
 99170  1  0
 99171  1  0
 99172  1  0
100173  1  0
103174  1  0
106175  1  0
108176  1  0
108177  1  0
108178  1  0
111179  1  0
111180  1  0
111181  1  0
112182  1  0
M  END

