
     RDKit          3D

188208  0  0  0  0  0  0  0  0999 V2000
    7.2816  -12.4016   10.2142 C   0  0  0  0  0  0  0  0  0  0  0  0
    8.0041  -11.2154   10.1193 C   0  0  0  0  0  0  0  0  0  0  0  0
    7.3197  -10.2064    9.4210 C   0  0  0  0  0  0  0  0  0  0  0  0
    7.7834   -8.8987    9.1651 C   0  0  0  0  0  0  0  0  0  0  0  0
    9.1065   -8.4376    9.6220 C   0  0  0  0  0  0  0  0  0  0  0  0
   10.5773   -9.0562    9.0871 S   0  0  0  0  0  0  0  0  0  0  0  0
   11.5473   -8.0492   10.0257 C   0  0  0  0  0  0  0  0  0  0  0  0
   13.0472   -8.0469   10.0074 C   0  0  0  0  0  0  0  0  0  0  0  0
   13.5774   -6.9837    9.0521 C   0  0  0  0  0  0  0  0  0  0  0  0
   10.7239   -7.1975   10.7614 C   0  0  0  0  0  0  0  0  0  0  0  0
   11.3360   -5.9756   11.8668 Cl  0  0  0  0  0  0  0  0  0  0  0  0
    9.3559   -7.4202   10.5406 C   0  0  0  0  0  0  0  0  0  0  0  0
    8.0860   -6.5371   11.3798 Cl  0  0  0  0  0  0  0  0  0  0  0  0
    6.9167   -8.0439    8.4626 C   0  0  0  0  0  0  0  0  0  0  0  0
    5.6511   -8.4462    8.0332 C   0  0  0  0  0  0  0  0  0  0  0  0
    5.1888   -9.7534    8.2824 C   0  0  0  0  0  0  0  0  0  0  0  0
    3.8689  -10.2095    7.8095 C   0  0  0  0  0  0  0  0  0  0  0  0
    3.4282  -10.3286    6.1901 S   0  0  0  0  0  0  0  0  0  0  0  0
    1.8226  -10.7449    6.4687 C   0  0  0  0  0  0  0  0  0  0  0  0
    0.7886  -10.8974    5.3925 C   0  0  0  0  0  0  0  0  0  0  0  0
    0.2063   -9.5410    5.0084 C   0  0  0  0  0  0  0  0  0  0  0  0
    1.6033  -10.7744    7.8472 C   0  0  0  0  0  0  0  0  0  0  0  0
    2.7540  -10.4792    8.5985 C   0  0  0  0  0  0  0  0  0  0  0  0
    2.7597  -10.3557   10.3513 Cl  0  0  0  0  0  0  0  0  0  0  0  0
    0.0314  -11.0766    8.5717 Cl  0  0  0  0  0  0  0  0  0  0  0  0
    6.0521  -10.6080    8.9867 C   0  0  0  0  0  0  0  0  0  0  0  0
    5.7941  -12.2041    9.4434 S   0  0  0  0  0  0  0  0  0  0  0  0
    4.9394   -7.4293    7.3818 C   0  0  0  0  0  0  0  0  0  0  0  0
    5.6431   -6.2290    7.2872 C   0  0  0  0  0  0  0  0  0  0  0  0
    7.1624   -6.4445    7.9992 S   0  0  0  0  0  0  0  0  0  0  0  0
    5.1059   -5.0099    6.6429 C   0  0  0  0  0  0  0  0  0  0  0  0
    3.7876   -5.0470    5.6019 S   0  0  0  0  0  0  0  0  0  0  0  0
    3.6401   -3.3972    5.3377 C   0  0  0  0  0  0  0  0  0  0  0  0
    4.6592   -2.7699    6.0599 C   0  0  0  0  0  0  0  0  0  0  0  0
    5.4755   -3.6623    6.7912 C   0  0  0  0  0  0  0  0  0  0  0  0
    6.5081   -3.1608    7.5957 C   0  0  0  0  0  0  0  0  0  0  0  0
    6.7437   -1.7761    7.6538 C   0  0  0  0  0  0  0  0  0  0  0  0
    7.8786   -1.2448    8.4861 C   0  0  0  0  0  0  0  0  0  0  0  0
    5.9280   -0.8838    6.9231 C   0  0  0  0  0  0  0  0  0  0  0  0
    6.1898    0.4935    7.0115 O   0  0  0  0  0  0  0  0  0  0  0  0
    5.4359    1.5036    6.3485 C   0  0  0  0  0  0  0  0  0  0  0  0
    4.8731   -1.3881    6.1350 C   0  0  0  0  0  0  0  0  0  0  0  0
    2.6496   -2.7884    4.4274 C   0  0  0  0  0  0  0  0  0  0  0  0
    2.9962   -1.5899    3.2869 S   0  0  0  0  0  0  0  0  0  0  0  0
    1.5092   -1.6228    2.5012 C   0  0  0  0  0  0  0  0  0  0  0  0
    0.7113   -2.5830    3.1167 C   0  0  0  0  0  0  0  0  0  0  0  0
    1.3384   -3.2279    4.1959 C   0  0  0  0  0  0  0  0  0  0  0  0
    0.6367   -4.1810    4.9445 C   0  0  0  0  0  0  0  0  0  0  0  0
   -0.6802   -4.5207    4.5835 C   0  0  0  0  0  0  0  0  0  0  0  0
   -1.4267   -5.5587    5.3740 C   0  0  0  0  0  0  0  0  0  0  0  0
   -1.2983   -3.8970    3.4765 C   0  0  0  0  0  0  0  0  0  0  0  0
   -2.6026   -4.2849    3.1245 O   0  0  0  0  0  0  0  0  0  0  0  0
   -3.3228   -3.7748    2.0065 C   0  0  0  0  0  0  0  0  0  0  0  0
   -0.5992   -2.9093    2.7526 C   0  0  0  0  0  0  0  0  0  0  0  0
    1.1422   -0.7985    1.3494 C   0  0  0  0  0  0  0  0  0  0  0  0
    0.8745    0.5657    1.3962 C   0  0  0  0  0  0  0  0  0  0  0  0
    0.3379    1.0530    0.1923 C   0  0  0  0  0  0  0  0  0  0  0  0
   -0.1028    2.3708   -0.0577 C   0  0  0  0  0  0  0  0  0  0  0  0
    0.0431    3.4429    0.9455 C   0  0  0  0  0  0  0  0  0  0  0  0
   -1.2295    4.3176    1.6149 S   0  0  0  0  0  0  0  0  0  0  0  0
   -0.2822    5.2881    2.6090 C   0  0  0  0  0  0  0  0  0  0  0  0
   -0.8104    6.3912    3.4731 C   0  0  0  0  0  0  0  0  0  0  0  0
   -0.8458    7.7071    2.7069 C   0  0  0  0  0  0  0  0  0  0  0  0
    1.0571    4.9531    2.4093 C   0  0  0  0  0  0  0  0  0  0  0  0
    2.3911    5.7668    3.2189 Cl  0  0  0  0  0  0  0  0  0  0  0  0
    1.2402    3.9165    1.4813 C   0  0  0  0  0  0  0  0  0  0  0  0
    2.8240    3.3371    0.9849 Cl  0  0  0  0  0  0  0  0  0  0  0  0
   -0.7291    2.6057   -1.2961 C   0  0  0  0  0  0  0  0  0  0  0  0
   -0.8747    1.6092   -2.2646 C   0  0  0  0  0  0  0  0  0  0  0  0
   -0.3863    0.3083   -2.0365 C   0  0  0  0  0  0  0  0  0  0  0  0
   -0.4889   -0.7509   -3.0585 C   0  0  0  0  0  0  0  0  0  0  0  0
   -1.3123   -2.2061   -2.8628 S   0  0  0  0  0  0  0  0  0  0  0  0
   -0.9463   -2.8237   -4.3855 C   0  0  0  0  0  0  0  0  0  0  0  0
   -1.3186   -4.1969   -4.8551 C   0  0  0  0  0  0  0  0  0  0  0  0
   -0.2408   -5.2043   -4.4695 C   0  0  0  0  0  0  0  0  0  0  0  0
   -0.1530   -1.8993   -5.0629 C   0  0  0  0  0  0  0  0  0  0  0  0
    0.1002   -0.7357   -4.3211 C   0  0  0  0  0  0  0  0  0  0  0  0
    1.1255    0.5714   -4.8988 Cl  0  0  0  0  0  0  0  0  0  0  0  0
    0.4992   -2.1768   -6.6724 Cl  0  0  0  0  0  0  0  0  0  0  0  0
    0.1912    0.0588   -0.7819 C   0  0  0  0  0  0  0  0  0  0  0  0
    0.7292   -1.4107   -0.1640 S   0  0  0  0  0  0  0  0  0  0  0  0
   -1.5814    2.0348   -3.3979 C   0  0  0  0  0  0  0  0  0  0  0  0
   -1.9782    3.3685   -3.3258 C   0  0  0  0  0  0  0  0  0  0  0  0
   -1.4522    4.0194   -1.8577 S   0  0  0  0  0  0  0  0  0  0  0  0
   -2.7938    4.0685   -4.3314 C   0  0  0  0  0  0  0  0  0  0  0  0
   -3.2671    3.5116   -5.5186 C   0  0  0  0  0  0  0  0  0  0  0  0
   -4.0793    4.3893   -6.2506 C   0  0  0  0  0  0  0  0  0  0  0  0
   -4.7246    4.1028   -7.4716 C   0  0  0  0  0  0  0  0  0  0  0  0
   -4.6575    2.7676   -8.0951 C   0  0  0  0  0  0  0  0  0  0  0  0
   -4.0110    2.4426   -9.6145 S   0  0  0  0  0  0  0  0  0  0  0  0
   -4.3003    0.7863   -9.5813 C   0  0  0  0  0  0  0  0  0  0  0  0
   -4.0098   -0.1525  -10.7107 C   0  0  0  0  0  0  0  0  0  0  0  0
   -5.2254   -0.2959  -11.6196 C   0  0  0  0  0  0  0  0  0  0  0  0
   -4.9357    0.4673   -8.3822 C   0  0  0  0  0  0  0  0  0  0  0  0
   -5.4661   -1.1569   -7.9679 Cl  0  0  0  0  0  0  0  0  0  0  0  0
   -5.1341    1.5780   -7.5478 C   0  0  0  0  0  0  0  0  0  0  0  0
   -5.9723    1.4851   -6.0047 Cl  0  0  0  0  0  0  0  0  0  0  0  0
   -5.4698    5.1423   -8.0513 C   0  0  0  0  0  0  0  0  0  0  0  0
   -5.6172    6.3940   -7.4475 C   0  0  0  0  0  0  0  0  0  0  0  0
   -4.9952    6.6686   -6.2122 C   0  0  0  0  0  0  0  0  0  0  0  0
   -5.1599    7.9610   -5.5267 C   0  0  0  0  0  0  0  0  0  0  0  0
   -3.9176    9.0543   -5.2257 S   0  0  0  0  0  0  0  0  0  0  0  0
   -4.8721   10.1925   -4.4354 C   0  0  0  0  0  0  0  0  0  0  0  0
   -4.3484   11.4467   -3.8039 C   0  0  0  0  0  0  0  0  0  0  0  0
   -3.8967   11.1777   -2.3735 C   0  0  0  0  0  0  0  0  0  0  0  0
   -6.1806    9.7134   -4.3720 C   0  0  0  0  0  0  0  0  0  0  0  0
   -6.3431    8.4660   -4.9915 C   0  0  0  0  0  0  0  0  0  0  0  0
   -7.8711    7.5957   -5.0257 Cl  0  0  0  0  0  0  0  0  0  0  0  0
   -7.4889   10.5650   -3.5662 Cl  0  0  0  0  0  0  0  0  0  0  0  0
   -4.2167    5.6434   -5.6484 C   0  0  0  0  0  0  0  0  0  0  0  0
   -3.3651    5.6529   -4.1964 S   0  0  0  0  0  0  0  0  0  0  0  0
   -6.4054    7.2807   -8.1986 C   0  0  0  0  0  0  0  0  0  0  0  0
   -6.8955    6.7215   -9.3804 C   0  0  0  0  0  0  0  0  0  0  0  0
   -6.3226    5.1355   -9.4981 S   0  0  0  0  0  0  0  0  0  0  0  0
   -7.6926    7.4611  -10.3865 C   0  0  0  0  0  0  0  0  0  0  0  0
   -7.8271    9.1429  -10.4020 S   0  0  0  0  0  0  0  0  0  0  0  0
   -8.7548    9.2914  -11.7931 C   0  0  0  0  0  0  0  0  0  0  0  0
   -8.9794    8.0106  -12.2741 C   0  0  0  0  0  0  0  0  0  0  0  0
   -8.4064    6.9832  -11.4996 C   0  0  0  0  0  0  0  0  0  0  0  0
   -8.6119    5.6456  -11.8704 C   0  0  0  0  0  0  0  0  0  0  0  0
   -9.3434    5.3447  -13.0349 C   0  0  0  0  0  0  0  0  0  0  0  0
   -9.5574    3.9113  -13.4354 C   0  0  0  0  0  0  0  0  0  0  0  0
   -9.8881    6.3830  -13.8234 C   0  0  0  0  0  0  0  0  0  0  0  0
  -10.5980    6.0456  -14.9874 O   0  0  0  0  0  0  0  0  0  0  0  0
  -11.1619    6.9889  -15.8911 C   0  0  0  0  0  0  0  0  0  0  0  0
   -9.7104    7.7240  -13.4281 C   0  0  0  0  0  0  0  0  0  0  0  0
    7.6183  -13.3029   10.7108 H   0  0  0  0  0  0  0  0  0  0  0  0
    8.9868  -11.0963   10.5526 H   0  0  0  0  0  0  0  0  0  0  0  0
   13.4352   -7.8590   11.0304 H   0  0  0  0  0  0  0  0  0  0  0  0
   13.4136   -9.0422    9.6822 H   0  0  0  0  0  0  0  0  0  0  0  0
   14.6884   -6.9978    9.0622 H   0  0  0  0  0  0  0  0  0  0  0  0
   13.2317   -5.9734    9.3605 H   0  0  0  0  0  0  0  0  0  0  0  0
   13.2292   -7.1872    8.0170 H   0  0  0  0  0  0  0  0  0  0  0  0
    1.2588  -11.3619    4.5001 H   0  0  0  0  0  0  0  0  0  0  0  0
   -0.0265  -11.5670    5.7351 H   0  0  0  0  0  0  0  0  0  0  0  0
   -0.3163   -9.0877    5.8791 H   0  0  0  0  0  0  0  0  0  0  0  0
   -0.5266   -9.6722    4.1855 H   0  0  0  0  0  0  0  0  0  0  0  0
    1.0077   -8.8525    4.6636 H   0  0  0  0  0  0  0  0  0  0  0  0
    3.9314   -7.5535    7.0081 H   0  0  0  0  0  0  0  0  0  0  0  0
    7.1287   -3.8163    8.1830 H   0  0  0  0  0  0  0  0  0  0  0  0
    8.3421   -2.0432    9.1046 H   0  0  0  0  0  0  0  0  0  0  0  0
    7.5094   -0.4518    9.1699 H   0  0  0  0  0  0  0  0  0  0  0  0
    8.6589   -0.8199    7.8201 H   0  0  0  0  0  0  0  0  0  0  0  0
    5.8592    2.4963    6.6037 H   0  0  0  0  0  0  0  0  0  0  0  0
    4.3774    1.4708    6.6836 H   0  0  0  0  0  0  0  0  0  0  0  0
    5.4934    1.3638    5.2483 H   0  0  0  0  0  0  0  0  0  0  0  0
    4.2202   -0.7122    5.6070 H   0  0  0  0  0  0  0  0  0  0  0  0
    1.0878   -4.6388    5.8113 H   0  0  0  0  0  0  0  0  0  0  0  0
   -2.3872   -5.1356    5.7365 H   0  0  0  0  0  0  0  0  0  0  0  0
   -1.6341   -6.4382    4.7292 H   0  0  0  0  0  0  0  0  0  0  0  0
   -0.8442   -5.9025    6.2559 H   0  0  0  0  0  0  0  0  0  0  0  0
   -2.7585   -3.9641    1.0676 H   0  0  0  0  0  0  0  0  0  0  0  0
   -4.3033   -4.2907    1.9409 H   0  0  0  0  0  0  0  0  0  0  0  0
   -3.5007   -2.6854    2.1326 H   0  0  0  0  0  0  0  0  0  0  0  0
   -1.0677   -2.4023    1.9213 H   0  0  0  0  0  0  0  0  0  0  0  0
    1.0054    1.1611    2.2907 H   0  0  0  0  0  0  0  0  0  0  0  0
   -1.8360    6.1325    3.8113 H   0  0  0  0  0  0  0  0  0  0  0  0
   -0.1745    6.5043    4.3782 H   0  0  0  0  0  0  0  0  0  0  0  0
    0.1806    8.0002    2.3996 H   0  0  0  0  0  0  0  0  0  0  0  0
   -1.4847    7.6089    1.8024 H   0  0  0  0  0  0  0  0  0  0  0  0
   -1.2658    8.5044    3.3546 H   0  0  0  0  0  0  0  0  0  0  0  0
   -1.4525   -4.1985   -5.9575 H   0  0  0  0  0  0  0  0  0  0  0  0
   -2.2834   -4.4954   -4.3945 H   0  0  0  0  0  0  0  0  0  0  0  0
    0.7265   -4.9364   -4.9469 H   0  0  0  0  0  0  0  0  0  0  0  0
   -0.1104   -5.2252   -3.3648 H   0  0  0  0  0  0  0  0  0  0  0  0
   -0.5400   -6.2171   -4.8117 H   0  0  0  0  0  0  0  0  0  0  0  0
   -1.8246    1.3831   -4.2252 H   0  0  0  0  0  0  0  0  0  0  0  0
   -3.0416    2.5038   -5.8377 H   0  0  0  0  0  0  0  0  0  0  0  0
   -3.7254   -1.1516  -10.3116 H   0  0  0  0  0  0  0  0  0  0  0  0
   -3.1498    0.2325  -11.3022 H   0  0  0  0  0  0  0  0  0  0  0  0
   -5.4898    0.6871  -12.0657 H   0  0  0  0  0  0  0  0  0  0  0  0
   -6.0940   -0.6817  -11.0453 H   0  0  0  0  0  0  0  0  0  0  0  0
   -4.9965   -1.0104  -12.4388 H   0  0  0  0  0  0  0  0  0  0  0  0
   -3.4886   11.8259   -4.3959 H   0  0  0  0  0  0  0  0  0  0  0  0
   -5.1338   12.2317   -3.8060 H   0  0  0  0  0  0  0  0  0  0  0  0
   -4.7528   10.8269   -1.7586 H   0  0  0  0  0  0  0  0  0  0  0  0
   -3.4945   12.1116   -1.9278 H   0  0  0  0  0  0  0  0  0  0  0  0
   -3.0977   10.4034   -2.3582 H   0  0  0  0  0  0  0  0  0  0  0  0
   -6.6063    8.3004   -7.8960 H   0  0  0  0  0  0  0  0  0  0  0  0
   -9.1084   10.2165  -12.2294 H   0  0  0  0  0  0  0  0  0  0  0  0
   -8.2375    4.8345  -11.2688 H   0  0  0  0  0  0  0  0  0  0  0  0
  -10.6431    3.6792  -13.4182 H   0  0  0  0  0  0  0  0  0  0  0  0
   -9.0388    3.2084  -12.7482 H   0  0  0  0  0  0  0  0  0  0  0  0
   -9.1664    3.7455  -14.4622 H   0  0  0  0  0  0  0  0  0  0  0  0
  -10.3664    7.6495  -16.2973 H   0  0  0  0  0  0  0  0  0  0  0  0
  -11.6351    6.4449  -16.7339 H   0  0  0  0  0  0  0  0  0  0  0  0
  -11.9385    7.5943  -15.3762 H   0  0  0  0  0  0  0  0  0  0  0  0
  -10.1295    8.5377  -14.0046 H   0  0  0  0  0  0  0  0  0  0  0  0
  1  2  2  0
  2  3  1  0
  3  4  2  0
  4  5  1  0
  5  6  1  0
  6  7  1  0
  7  8  1  0
  8  9  1  0
  7 10  2  0
 10 11  1  0
 10 12  1  0
 12 13  1  0
  4 14  1  0
 14 15  2  0
 15 16  1  0
 16 17  1  0
 17 18  1  0
 18 19  1  0
 19 20  1  0
 20 21  1  0
 19 22  2  0
 22 23  1  0
 23 24  1  0
 22 25  1  0
 16 26  2  0
 26 27  1  0
 15 28  1  0
 28 29  2  0
 29 30  1  0
 29 31  1  0
 31 32  1  0
 32 33  1  0
 33 34  2  0
 34 35  1  0
 35 36  1  0
 36 37  2  0
 37 38  1  0
 37 39  1  0
 39 40  1  0
 40 41  1  0
 39 42  2  0
 33 43  1  0
 43 44  1  0
 44 45  1  0
 45 46  2  0
 46 47  1  0
 47 48  1  0
 48 49  2  0
 49 50  1  0
 49 51  1  0
 51 52  1  0
 52 53  1  0
 51 54  2  0
 45 55  1  0
 55 56  2  0
 56 57  1  0
 57 58  2  0
 58 59  1  0
 59 60  1  0
 60 61  1  0
 61 62  1  0
 62 63  1  0
 61 64  2  0
 64 65  1  0
 64 66  1  0
 66 67  1  0
 58 68  1  0
 68 69  2  0
 69 70  1  0
 70 71  1  0
 71 72  1  0
 72 73  1  0
 73 74  1  0
 74 75  1  0
 73 76  2  0
 76 77  1  0
 77 78  1  0
 76 79  1  0
 70 80  2  0
 80 81  1  0
 69 82  1  0
 82 83  2  0
 83 84  1  0
 83 85  1  0
 85 86  2  0
 86 87  1  0
 87 88  2  0
 88 89  1  0
 89 90  1  0
 90 91  1  0
 91 92  1  0
 92 93  1  0
 91 94  2  0
 94 95  1  0
 94 96  1  0
 96 97  1  0
 88 98  1  0
 98 99  2  0
 99100  1  0
100101  1  0
101102  1  0
102103  1  0
103104  1  0
104105  1  0
103106  2  0
106107  1  0
107108  1  0
106109  1  0
100110  2  0
110111  1  0
 99112  1  0
112113  2  0
113114  1  0
113115  1  0
115116  1  0
116117  1  0
117118  2  0
118119  1  0
119120  1  0
120121  2  0
121122  1  0
121123  1  0
123124  1  0
124125  1  0
123126  2  0
 27  1  1  0
 35 31  2  0
 47 43  2  0
 81 55  1  0
111 85  1  0
119115  2  0
 26  3  1  0
 42 34  1  0
 54 46  1  0
 80 57  1  0
110 87  1  0
126118  1  0
 12  5  2  0
 30 14  1  0
 66 59  2  0
 84 68  1  0
 96 89  2  0
114 98  1  0
 23 17  2  0
 77 71  2  0
107101  2  0
  1127  1  0
  2128  1  0
  8129  1  0
  8130  1  0
  9131  1  0
  9132  1  0
  9133  1  0
 20134  1  0
 20135  1  0
 21136  1  0
 21137  1  0
 21138  1  0
 28139  1  0
 36140  1  0
 38141  1  0
 38142  1  0
 38143  1  0
 41144  1  0
 41145  1  0
 41146  1  0
 42147  1  0
 48148  1  0
 50149  1  0
 50150  1  0
 50151  1  0
 53152  1  0
 53153  1  0
 53154  1  0
 54155  1  0
 56156  1  0
 62157  1  0
 62158  1  0
 63159  1  0
 63160  1  0
 63161  1  0
 74162  1  0
 74163  1  0
 75164  1  0
 75165  1  0
 75166  1  0
 82167  1  0
 86168  1  0
 92169  1  0
 92170  1  0
 93171  1  0
 93172  1  0
 93173  1  0
104174  1  0
104175  1  0
105176  1  0
105177  1  0
105178  1  0
112179  1  0
117180  1  0
120181  1  0
122182  1  0
122183  1  0
122184  1  0
125185  1  0
125186  1  0
125187  1  0
126188  1  0
M  END

