
     RDKit          3D

272298  0  0  0  0  0  0  0  0999 V2000
   -0.5589   -6.3070   10.0270 C   0  0  0  0  0  0  0  0  0  0  0  0
   -1.4988   -5.3287    9.7169 C   0  0  0  0  0  0  0  0  0  0  0  0
   -2.4763   -5.7679    8.8069 C   0  0  0  0  0  0  0  0  0  0  0  0
   -3.5266   -4.9989    8.2630 C   0  0  0  0  0  0  0  0  0  0  0  0
   -3.6608   -3.5540    8.5493 C   0  0  0  0  0  0  0  0  0  0  0  0
   -3.4480   -2.6160    7.5290 C   0  0  0  0  0  0  0  0  0  0  0  0
   -3.5743   -1.2500    7.7837 C   0  0  0  0  0  0  0  0  0  0  0  0
   -3.9080   -0.8043    9.0712 C   0  0  0  0  0  0  0  0  0  0  0  0
   -4.0858    0.9598    9.3773 S   0  0  0  0  0  0  0  0  0  0  0  0
   -2.3197    1.2258    9.7243 C   0  0  0  0  0  0  0  0  0  0  0  0
   -2.0220    2.7162    9.8057 C   0  0  0  0  0  0  0  0  0  0  0  0
   -4.1209   -1.7342   10.0962 C   0  0  0  0  0  0  0  0  0  0  0  0
   -4.4531   -1.3131   11.3478 F   0  0  0  0  0  0  0  0  0  0  0  0
   -4.0023   -3.1062    9.8344 C   0  0  0  0  0  0  0  0  0  0  0  0
   -4.3724   -5.6355    7.3351 C   0  0  0  0  0  0  0  0  0  0  0  0
   -4.1749   -6.9574    6.9290 C   0  0  0  0  0  0  0  0  0  0  0  0
   -3.0994   -7.7233    7.4372 C   0  0  0  0  0  0  0  0  0  0  0  0
   -2.8100   -9.0860    6.9454 C   0  0  0  0  0  0  0  0  0  0  0  0
   -2.5657   -9.3083    5.5826 C   0  0  0  0  0  0  0  0  0  0  0  0
   -2.4457  -10.6129    5.0891 C   0  0  0  0  0  0  0  0  0  0  0  0
   -2.5227  -11.7018    5.9630 C   0  0  0  0  0  0  0  0  0  0  0  0
   -2.4832  -13.3774    5.3118 S   0  0  0  0  0  0  0  0  0  0  0  0
   -0.6603  -13.4961    5.1878 C   0  0  0  0  0  0  0  0  0  0  0  0
   -0.2455  -13.5994    3.7270 C   0  0  0  0  0  0  0  0  0  0  0  0
   -2.7109  -11.4834    7.3363 C   0  0  0  0  0  0  0  0  0  0  0  0
   -2.8706  -10.1830    7.8234 C   0  0  0  0  0  0  0  0  0  0  0  0
   -2.7758  -12.5276    8.1939 F   0  0  0  0  0  0  0  0  0  0  0  0
   -2.2888   -7.0977    8.4035 C   0  0  0  0  0  0  0  0  0  0  0  0
   -0.9243   -7.7117    9.1676 S   0  0  0  0  0  0  0  0  0  0  0  0
   -5.0869   -7.3756    5.9528 C   0  0  0  0  0  0  0  0  0  0  0  0
   -5.9807   -6.3769    5.5639 C   0  0  0  0  0  0  0  0  0  0  0  0
   -5.6560   -4.9778    6.4590 S   0  0  0  0  0  0  0  0  0  0  0  0
   -6.7524   -6.4199    4.3126 C   0  0  0  0  0  0  0  0  0  0  0  0
   -6.2805   -7.0447    3.1657 C   0  0  0  0  0  0  0  0  0  0  0  0
   -7.0464   -6.7706    2.0280 C   0  0  0  0  0  0  0  0  0  0  0  0
   -6.7305   -7.1717    0.7123 C   0  0  0  0  0  0  0  0  0  0  0  0
   -5.4890   -7.9387    0.4168 C   0  0  0  0  0  0  0  0  0  0  0  0
   -5.2748   -9.2089    0.9904 C   0  0  0  0  0  0  0  0  0  0  0  0
   -4.0874   -9.9031    0.7448 C   0  0  0  0  0  0  0  0  0  0  0  0
   -3.1177   -9.3686   -0.1141 C   0  0  0  0  0  0  0  0  0  0  0  0
   -1.6630  -10.3435   -0.5357 S   0  0  0  0  0  0  0  0  0  0  0  0
   -0.4617   -9.3648    0.4406 C   0  0  0  0  0  0  0  0  0  0  0  0
   -0.6762   -9.5399    1.9389 C   0  0  0  0  0  0  0  0  0  0  0  0
   -3.3332   -8.1175   -0.7069 C   0  0  0  0  0  0  0  0  0  0  0  0
   -2.4151   -7.5971   -1.5586 F   0  0  0  0  0  0  0  0  0  0  0  0
   -4.4910   -7.3906   -0.4104 C   0  0  0  0  0  0  0  0  0  0  0  0
   -7.5367   -6.6387   -0.3059 C   0  0  0  0  0  0  0  0  0  0  0  0
   -8.5668   -5.7235   -0.0652 C   0  0  0  0  0  0  0  0  0  0  0  0
   -8.9262   -5.3844    1.2472 C   0  0  0  0  0  0  0  0  0  0  0  0
  -10.1133   -4.5304    1.5170 C   0  0  0  0  0  0  0  0  0  0  0  0
  -10.0239   -3.3625    2.2902 C   0  0  0  0  0  0  0  0  0  0  0  0
  -11.1593   -2.5711    2.5012 C   0  0  0  0  0  0  0  0  0  0  0  0
  -12.3839   -2.9248    1.9197 C   0  0  0  0  0  0  0  0  0  0  0  0
  -13.8200   -1.8787    2.1509 S   0  0  0  0  0  0  0  0  0  0  0  0
  -14.4889   -2.8100    3.5742 C   0  0  0  0  0  0  0  0  0  0  0  0
  -13.6878   -2.5265    4.8414 C   0  0  0  0  0  0  0  0  0  0  0  0
  -12.4686   -4.0673    1.1229 C   0  0  0  0  0  0  0  0  0  0  0  0
  -11.3445   -4.8751    0.9368 C   0  0  0  0  0  0  0  0  0  0  0  0
  -13.6333   -4.3926    0.5071 F   0  0  0  0  0  0  0  0  0  0  0  0
   -8.1231   -5.9109    2.2849 C   0  0  0  0  0  0  0  0  0  0  0  0
   -8.1209   -5.5123    3.9290 S   0  0  0  0  0  0  0  0  0  0  0  0
   -9.0059   -5.0746   -1.2362 C   0  0  0  0  0  0  0  0  0  0  0  0
   -8.3235   -5.4747   -2.3913 C   0  0  0  0  0  0  0  0  0  0  0  0
   -7.2523   -6.6973   -1.9565 S   0  0  0  0  0  0  0  0  0  0  0  0
   -7.9863   -4.5503   -3.4996 C   0  0  0  0  0  0  0  0  0  0  0  0
   -6.8857   -4.7994   -4.3226 C   0  0  0  0  0  0  0  0  0  0  0  0
   -6.1277   -3.6599   -4.6165 C   0  0  0  0  0  0  0  0  0  0  0  0
   -4.7987   -3.6890   -5.0827 C   0  0  0  0  0  0  0  0  0  0  0  0
   -4.1559   -4.9477   -5.5072 C   0  0  0  0  0  0  0  0  0  0  0  0
   -4.6363   -5.6326   -6.6258 C   0  0  0  0  0  0  0  0  0  0  0  0
   -4.0227   -6.8147   -7.0504 C   0  0  0  0  0  0  0  0  0  0  0  0
   -2.9075   -7.3098   -6.3652 C   0  0  0  0  0  0  0  0  0  0  0  0
   -2.0922   -8.8008   -6.9536 S   0  0  0  0  0  0  0  0  0  0  0  0
   -1.0743   -7.9609   -8.2178 C   0  0  0  0  0  0  0  0  0  0  0  0
    0.1276   -7.2673   -7.5914 C   0  0  0  0  0  0  0  0  0  0  0  0
   -2.4407   -6.6498   -5.2194 C   0  0  0  0  0  0  0  0  0  0  0  0
   -1.3774   -7.1317   -4.5283 F   0  0  0  0  0  0  0  0  0  0  0  0
   -3.0676   -5.4760   -4.7865 C   0  0  0  0  0  0  0  0  0  0  0  0
   -4.0704   -2.4963   -4.9740 C   0  0  0  0  0  0  0  0  0  0  0  0
   -4.6351   -1.3076   -4.4899 C   0  0  0  0  0  0  0  0  0  0  0  0
   -5.9960   -1.2469   -4.1244 C   0  0  0  0  0  0  0  0  0  0  0  0
   -6.6155    0.0449   -3.7233 C   0  0  0  0  0  0  0  0  0  0  0  0
   -6.4497    1.1628   -4.5559 C   0  0  0  0  0  0  0  0  0  0  0  0
   -6.9090    2.4180   -4.1625 C   0  0  0  0  0  0  0  0  0  0  0  0
   -7.5955    2.5636   -2.9514 C   0  0  0  0  0  0  0  0  0  0  0  0
   -8.1659    4.1921   -2.4351 S   0  0  0  0  0  0  0  0  0  0  0  0
   -9.5490    4.3068   -3.6306 C   0  0  0  0  0  0  0  0  0  0  0  0
  -10.6396    3.2771   -3.3574 C   0  0  0  0  0  0  0  0  0  0  0  0
   -7.7981    1.4473   -2.1271 C   0  0  0  0  0  0  0  0  0  0  0  0
   -7.2858    0.1989   -2.4970 C   0  0  0  0  0  0  0  0  0  0  0  0
   -8.4382    1.5803   -0.9363 F   0  0  0  0  0  0  0  0  0  0  0  0
   -6.7007   -2.4726   -4.1474 C   0  0  0  0  0  0  0  0  0  0  0  0
   -8.1157   -2.8663   -3.3297 S   0  0  0  0  0  0  0  0  0  0  0  0
   -3.6774   -0.3002   -4.2805 C   0  0  0  0  0  0  0  0  0  0  0  0
   -2.3845   -0.6917   -4.6148 C   0  0  0  0  0  0  0  0  0  0  0  0
   -2.4152   -2.2773   -5.1798 S   0  0  0  0  0  0  0  0  0  0  0  0
   -1.1588    0.0516   -4.2931 C   0  0  0  0  0  0  0  0  0  0  0  0
   -1.1052    1.3101   -3.7024 C   0  0  0  0  0  0  0  0  0  0  0  0
    0.2049    1.7187   -3.4064 C   0  0  0  0  0  0  0  0  0  0  0  0
    0.5858    2.9314   -2.8017 C   0  0  0  0  0  0  0  0  0  0  0  0
   -0.4081    3.8991   -2.2783 C   0  0  0  0  0  0  0  0  0  0  0  0
   -0.4333    5.2256   -2.7450 C   0  0  0  0  0  0  0  0  0  0  0  0
   -1.3657    6.1331   -2.2316 C   0  0  0  0  0  0  0  0  0  0  0  0
   -2.2940    5.7302   -1.2704 C   0  0  0  0  0  0  0  0  0  0  0  0
   -3.5087    6.8969   -0.6451 S   0  0  0  0  0  0  0  0  0  0  0  0
   -2.6408    7.2478    0.9254 C   0  0  0  0  0  0  0  0  0  0  0  0
   -1.5256    8.2689    0.7312 C   0  0  0  0  0  0  0  0  0  0  0  0
   -2.2882    4.4004   -0.8181 C   0  0  0  0  0  0  0  0  0  0  0  0
   -3.1946    3.9915    0.1040 F   0  0  0  0  0  0  0  0  0  0  0  0
   -1.3396    3.5003   -1.3041 C   0  0  0  0  0  0  0  0  0  0  0  0
    1.9674    3.1467   -2.6426 C   0  0  0  0  0  0  0  0  0  0  0  0
    2.9293    2.1944   -3.0077 C   0  0  0  0  0  0  0  0  0  0  0  0
    2.5436    0.9723   -3.5874 C   0  0  0  0  0  0  0  0  0  0  0  0
    3.5153   -0.0711   -3.9551 C   0  0  0  0  0  0  0  0  0  0  0  0
    4.2268    0.0065   -5.1619 C   0  0  0  0  0  0  0  0  0  0  0  0
    5.0891   -1.0269   -5.5382 C   0  0  0  0  0  0  0  0  0  0  0  0
    5.2451   -2.1494   -4.7101 C   0  0  0  0  0  0  0  0  0  0  0  0
    6.3274   -3.4905   -5.2189 S   0  0  0  0  0  0  0  0  0  0  0  0
    5.0796   -4.3602   -6.2397 C   0  0  0  0  0  0  0  0  0  0  0  0
    4.0996   -5.1482   -5.3806 C   0  0  0  0  0  0  0  0  0  0  0  0
    4.5606   -2.2153   -3.4911 C   0  0  0  0  0  0  0  0  0  0  0  0
    3.6864   -1.1833   -3.1186 C   0  0  0  0  0  0  0  0  0  0  0  0
    4.7239   -3.2779   -2.6629 F   0  0  0  0  0  0  0  0  0  0  0  0
    1.1711    0.7751   -3.7800 C   0  0  0  0  0  0  0  0  0  0  0  0
    0.4025   -0.5594   -4.4615 S   0  0  0  0  0  0  0  0  0  0  0  0
    4.2460    2.6013   -2.7360 C   0  0  0  0  0  0  0  0  0  0  0  0
    4.2988    3.8820   -2.1783 C   0  0  0  0  0  0  0  0  0  0  0  0
    2.7418    4.4965   -2.0149 S   0  0  0  0  0  0  0  0  0  0  0  0
    5.5071    4.6577   -1.9498 C   0  0  0  0  0  0  0  0  0  0  0  0
    6.6983    4.1923   -1.3885 C   0  0  0  0  0  0  0  0  0  0  0  0
    7.6978    5.1801   -1.3652 C   0  0  0  0  0  0  0  0  0  0  0  0
    9.0018    5.0367   -0.8559 C   0  0  0  0  0  0  0  0  0  0  0  0
    9.4841    3.7865   -0.2474 C   0  0  0  0  0  0  0  0  0  0  0  0
    9.7785    2.6798   -1.0573 C   0  0  0  0  0  0  0  0  0  0  0  0
   10.4037    1.5552   -0.5050 C   0  0  0  0  0  0  0  0  0  0  0  0
   10.7309    1.5297    0.8637 C   0  0  0  0  0  0  0  0  0  0  0  0
   11.6673    0.1506    1.5255 S   0  0  0  0  0  0  0  0  0  0  0  0
   10.1896   -0.8334    1.9302 C   0  0  0  0  0  0  0  0  0  0  0  0
   10.6049   -2.1619    2.5370 C   0  0  0  0  0  0  0  0  0  0  0  0
   10.3976    2.6183    1.6768 C   0  0  0  0  0  0  0  0  0  0  0  0
   10.7179    2.6123    3.0001 F   0  0  0  0  0  0  0  0  0  0  0  0
    9.7801    3.7470    1.1238 C   0  0  0  0  0  0  0  0  0  0  0  0
    9.8553    6.1508   -0.9716 C   0  0  0  0  0  0  0  0  0  0  0  0
    9.4508    7.3539   -1.5738 C   0  0  0  0  0  0  0  0  0  0  0  0
    8.1363    7.5037   -2.0617 C   0  0  0  0  0  0  0  0  0  0  0  0
    7.6824    8.7247   -2.7497 C   0  0  0  0  0  0  0  0  0  0  0  0
    8.2444    9.0912   -3.9840 C   0  0  0  0  0  0  0  0  0  0  0  0
    7.7561   10.1974   -4.6793 C   0  0  0  0  0  0  0  0  0  0  0  0
    6.6958   10.9485   -4.1567 C   0  0  0  0  0  0  0  0  0  0  0  0
    6.0496   12.3457   -5.0827 S   0  0  0  0  0  0  0  0  0  0  0  0
    4.8371   11.3362   -6.0021 C   0  0  0  0  0  0  0  0  0  0  0  0
    4.1374   12.1863   -7.0493 C   0  0  0  0  0  0  0  0  0  0  0  0
    6.1385   10.5992   -2.9122 C   0  0  0  0  0  0  0  0  0  0  0  0
    6.6332    9.4926   -2.2140 C   0  0  0  0  0  0  0  0  0  0  0  0
    5.1113   11.3130   -2.3972 F   0  0  0  0  0  0  0  0  0  0  0  0
    7.2854    6.3970   -1.9205 C   0  0  0  0  0  0  0  0  0  0  0  0
    5.6895    6.2649   -2.4221 S   0  0  0  0  0  0  0  0  0  0  0  0
   10.4781    8.3030   -1.6345 C   0  0  0  0  0  0  0  0  0  0  0  0
   11.6709    7.8559   -1.0632 C   0  0  0  0  0  0  0  0  0  0  0  0
   11.4669    6.2743   -0.5190 S   0  0  0  0  0  0  0  0  0  0  0  0
   12.9495    8.5858   -1.0300 C   0  0  0  0  0  0  0  0  0  0  0  0
   14.4623    7.8482   -1.1555 S   0  0  0  0  0  0  0  0  0  0  0  0
   15.3960    9.2479   -1.1163 C   0  0  0  0  0  0  0  0  0  0  0  0
   14.5188   10.3233   -0.9860 C   0  0  0  0  0  0  0  0  0  0  0  0
   13.1601    9.9626   -0.9297 C   0  0  0  0  0  0  0  0  0  0  0  0
   12.1834   10.9391   -0.7345 C   0  0  0  0  0  0  0  0  0  0  0  0
   12.5566   12.2913   -0.6542 C   0  0  0  0  0  0  0  0  0  0  0  0
   11.4980   13.3429   -0.4991 C   0  0  0  0  0  0  0  0  0  0  0  0
   13.9208   12.6592   -0.7425 C   0  0  0  0  0  0  0  0  0  0  0  0
   14.2591   14.0227   -0.6641 O   0  0  0  0  0  0  0  0  0  0  0  0
   15.5803   14.5309   -0.8110 C   0  0  0  0  0  0  0  0  0  0  0  0
   14.9091   11.6574   -0.9023 C   0  0  0  0  0  0  0  0  0  0  0  0
    0.2811   -6.1873   10.7010 H   0  0  0  0  0  0  0  0  0  0  0  0
   -1.4626   -4.3350   10.1346 H   0  0  0  0  0  0  0  0  0  0  0  0
   -3.1799   -2.9491    6.5296 H   0  0  0  0  0  0  0  0  0  0  0  0
   -3.4111   -0.5331    6.9853 H   0  0  0  0  0  0  0  0  0  0  0  0
   -2.0666    0.7514   10.6935 H   0  0  0  0  0  0  0  0  0  0  0  0
   -1.7009    0.7689    8.9266 H   0  0  0  0  0  0  0  0  0  0  0  0
   -0.9596    2.8791   10.0875 H   0  0  0  0  0  0  0  0  0  0  0  0
   -2.6705    3.1986   10.5708 H   0  0  0  0  0  0  0  0  0  0  0  0
   -2.2091    3.2000    8.8201 H   0  0  0  0  0  0  0  0  0  0  0  0
   -4.1813   -3.8198   10.6320 H   0  0  0  0  0  0  0  0  0  0  0  0
   -2.5256   -8.4828    4.8851 H   0  0  0  0  0  0  0  0  0  0  0  0
   -2.3384  -10.7772    4.0309 H   0  0  0  0  0  0  0  0  0  0  0  0
   -0.3297  -14.4148    5.7210 H   0  0  0  0  0  0  0  0  0  0  0  0
   -0.1442  -12.6258    5.6589 H   0  0  0  0  0  0  0  0  0  0  0  0
    0.8563  -13.7138    3.6618 H   0  0  0  0  0  0  0  0  0  0  0  0
   -0.5489  -12.6872    3.1742 H   0  0  0  0  0  0  0  0  0  0  0  0
   -0.7250  -14.4845    3.2548 H   0  0  0  0  0  0  0  0  0  0  0  0
   -3.0584  -10.0272    8.8745 H   0  0  0  0  0  0  0  0  0  0  0  0
   -5.0761   -8.3515    5.4926 H   0  0  0  0  0  0  0  0  0  0  0  0
   -5.3494   -7.5888    3.1466 H   0  0  0  0  0  0  0  0  0  0  0  0
   -6.0233   -9.6502    1.6331 H   0  0  0  0  0  0  0  0  0  0  0  0
   -3.9304  -10.8779    1.1929 H   0  0  0  0  0  0  0  0  0  0  0  0
   -0.5326   -8.2886    0.1727 H   0  0  0  0  0  0  0  0  0  0  0  0
    0.5591   -9.7222    0.1811 H   0  0  0  0  0  0  0  0  0  0  0  0
   -1.5989   -9.0147    2.2582 H   0  0  0  0  0  0  0  0  0  0  0  0
   -0.7737  -10.6133    2.1780 H   0  0  0  0  0  0  0  0  0  0  0  0
    0.1882   -9.1193    2.4961 H   0  0  0  0  0  0  0  0  0  0  0  0
   -4.6138   -6.4041   -0.8342 H   0  0  0  0  0  0  0  0  0  0  0  0
   -9.0770   -3.0599    2.7198 H   0  0  0  0  0  0  0  0  0  0  0  0
  -11.0823   -1.6719    3.1059 H   0  0  0  0  0  0  0  0  0  0  0  0
  -14.4984   -3.9008    3.3539 H   0  0  0  0  0  0  0  0  0  0  0  0
  -15.5376   -2.4780    3.7356 H   0  0  0  0  0  0  0  0  0  0  0  0
  -14.2535   -2.8683    5.7327 H   0  0  0  0  0  0  0  0  0  0  0  0
  -13.5012   -1.4376    4.9468 H   0  0  0  0  0  0  0  0  0  0  0  0
  -12.7186   -3.0672    4.8091 H   0  0  0  0  0  0  0  0  0  0  0  0
  -11.4261   -5.7612    0.3137 H   0  0  0  0  0  0  0  0  0  0  0  0
   -9.6650   -4.2180   -1.2167 H   0  0  0  0  0  0  0  0  0  0  0  0
   -6.5153   -5.8012   -4.4971 H   0  0  0  0  0  0  0  0  0  0  0  0
   -5.4878   -5.2496   -7.1744 H   0  0  0  0  0  0  0  0  0  0  0  0
   -4.4018   -7.3363   -7.9200 H   0  0  0  0  0  0  0  0  0  0  0  0
   -0.7114   -8.7246   -8.9371 H   0  0  0  0  0  0  0  0  0  0  0  0
   -1.6864   -7.2266   -8.7856 H   0  0  0  0  0  0  0  0  0  0  0  0
    0.7066   -7.9828   -6.9763 H   0  0  0  0  0  0  0  0  0  0  0  0
    0.7881   -6.8689   -8.3882 H   0  0  0  0  0  0  0  0  0  0  0  0
   -0.2037   -6.4186   -6.9626 H   0  0  0  0  0  0  0  0  0  0  0  0
   -2.7120   -4.9811   -3.8943 H   0  0  0  0  0  0  0  0  0  0  0  0
   -5.9186    1.0754   -5.4943 H   0  0  0  0  0  0  0  0  0  0  0  0
   -6.7157    3.2755   -4.7852 H   0  0  0  0  0  0  0  0  0  0  0  0
   -9.9755    5.3294   -3.5538 H   0  0  0  0  0  0  0  0  0  0  0  0
   -9.1585    4.1807   -4.6668 H   0  0  0  0  0  0  0  0  0  0  0  0
  -10.9314    3.3010   -2.2887 H   0  0  0  0  0  0  0  0  0  0  0  0
  -10.2799    2.2634   -3.6185 H   0  0  0  0  0  0  0  0  0  0  0  0
  -11.5327    3.5053   -3.9774 H   0  0  0  0  0  0  0  0  0  0  0  0
   -7.3819   -0.6268   -1.8077 H   0  0  0  0  0  0  0  0  0  0  0  0
   -3.9031    0.6444   -3.8122 H   0  0  0  0  0  0  0  0  0  0  0  0
   -1.9775    1.9074   -3.4891 H   0  0  0  0  0  0  0  0  0  0  0  0
    0.2664    5.5487   -3.5038 H   0  0  0  0  0  0  0  0  0  0  0  0
   -1.3745    7.1570   -2.5927 H   0  0  0  0  0  0  0  0  0  0  0  0
   -3.3863    7.6591    1.6401 H   0  0  0  0  0  0  0  0  0  0  0  0
   -2.2309    6.3141    1.3601 H   0  0  0  0  0  0  0  0  0  0  0  0
   -1.0376    8.4813    1.7034 H   0  0  0  0  0  0  0  0  0  0  0  0
   -0.7639    7.8808    0.0296 H   0  0  0  0  0  0  0  0  0  0  0  0
   -1.9466    9.2121    0.3262 H   0  0  0  0  0  0  0  0  0  0  0  0
   -1.3331    2.4836   -0.9317 H   0  0  0  0  0  0  0  0  0  0  0  0
    4.0913    0.8535   -5.8246 H   0  0  0  0  0  0  0  0  0  0  0  0
    5.6249   -0.9675   -6.4758 H   0  0  0  0  0  0  0  0  0  0  0  0
    5.6130   -5.0664   -6.9078 H   0  0  0  0  0  0  0  0  0  0  0  0
    4.5312   -3.6382   -6.8794 H   0  0  0  0  0  0  0  0  0  0  0  0
    3.4378   -5.7497   -6.0361 H   0  0  0  0  0  0  0  0  0  0  0  0
    3.4630   -4.4618   -4.7878 H   0  0  0  0  0  0  0  0  0  0  0  0
    4.6429   -5.8330   -4.6998 H   0  0  0  0  0  0  0  0  0  0  0  0
    3.1381   -1.2573   -2.1907 H   0  0  0  0  0  0  0  0  0  0  0  0
    5.1236    2.0236   -2.9795 H   0  0  0  0  0  0  0  0  0  0  0  0
    6.8265    3.1923   -1.0027 H   0  0  0  0  0  0  0  0  0  0  0  0
    9.5764    2.7095   -2.1175 H   0  0  0  0  0  0  0  0  0  0  0  0
   10.6646    0.7236   -1.1420 H   0  0  0  0  0  0  0  0  0  0  0  0
    9.6050   -1.0240    1.0040 H   0  0  0  0  0  0  0  0  0  0  0  0
    9.5499   -0.2806    2.6532 H   0  0  0  0  0  0  0  0  0  0  0  0
   11.2872   -2.7068    1.8451 H   0  0  0  0  0  0  0  0  0  0  0  0
   11.1316   -1.9911    3.5015 H   0  0  0  0  0  0  0  0  0  0  0  0
    9.7051   -2.7840    2.7275 H   0  0  0  0  0  0  0  0  0  0  0  0
    9.5709    4.6035    1.7526 H   0  0  0  0  0  0  0  0  0  0  0  0
    9.0421    8.4993   -4.4128 H   0  0  0  0  0  0  0  0  0  0  0  0
    8.1940   10.4671   -5.6318 H   0  0  0  0  0  0  0  0  0  0  0  0
    5.3565   10.4950   -6.5125 H   0  0  0  0  0  0  0  0  0  0  0  0
    4.0826   10.9265   -5.2956 H   0  0  0  0  0  0  0  0  0  0  0  0
    4.8826   12.5893   -7.7713 H   0  0  0  0  0  0  0  0  0  0  0  0
    3.5993   13.0292   -6.5672 H   0  0  0  0  0  0  0  0  0  0  0  0
    3.4045   11.5618   -7.6053 H   0  0  0  0  0  0  0  0  0  0  0  0
    6.1848    9.2190   -1.2667 H   0  0  0  0  0  0  0  0  0  0  0  0
   10.3666    9.2574   -2.1274 H   0  0  0  0  0  0  0  0  0  0  0  0
   16.4716    9.3041   -1.1751 H   0  0  0  0  0  0  0  0  0  0  0  0
   11.1456   10.6666   -0.6076 H   0  0  0  0  0  0  0  0  0  0  0  0
   11.6919   13.9392    0.4213 H   0  0  0  0  0  0  0  0  0  0  0  0
   10.4833   12.8993   -0.4404 H   0  0  0  0  0  0  0  0  0  0  0  0
   11.5221   14.0268   -1.3718 H   0  0  0  0  0  0  0  0  0  0  0  0
   15.5475   15.6320   -0.6983 H   0  0  0  0  0  0  0  0  0  0  0  0
   15.9684   14.2798   -1.8196 H   0  0  0  0  0  0  0  0  0  0  0  0
   16.2469   14.1126   -0.0272 H   0  0  0  0  0  0  0  0  0  0  0  0
   15.9561   11.9044   -0.9678 H   0  0  0  0  0  0  0  0  0  0  0  0
  1  2  2  0
  2  3  1  0
  3  4  2  0
  4  5  1  0
  5  6  2  0
  6  7  1  0
  7  8  2  0
  8  9  1  0
  9 10  1  0
 10 11  1  0
  8 12  1  0
 12 13  1  0
 12 14  2  0
  4 15  1  0
 15 16  2  0
 16 17  1  0
 17 18  1  0
 18 19  2  0
 19 20  1  0
 20 21  2  0
 21 22  1  0
 22 23  1  0
 23 24  1  0
 21 25  1  0
 25 26  2  0
 25 27  1  0
 17 28  2  0
 28 29  1  0
 16 30  1  0
 30 31  2  0
 31 32  1  0
 31 33  1  0
 33 34  2  0
 34 35  1  0
 35 36  2  0
 36 37  1  0
 37 38  2  0
 38 39  1  0
 39 40  2  0
 40 41  1  0
 41 42  1  0
 42 43  1  0
 40 44  1  0
 44 45  1  0
 44 46  2  0
 36 47  1  0
 47 48  2  0
 48 49  1  0
 49 50  1  0
 50 51  2  0
 51 52  1  0
 52 53  2  0
 53 54  1  0
 54 55  1  0
 55 56  1  0
 53 57  1  0
 57 58  2  0
 57 59  1  0
 49 60  2  0
 60 61  1  0
 48 62  1  0
 62 63  2  0
 63 64  1  0
 63 65  1  0
 65 66  2  0
 66 67  1  0
 67 68  2  0
 68 69  1  0
 69 70  2  0
 70 71  1  0
 71 72  2  0
 72 73  1  0
 73 74  1  0
 74 75  1  0
 72 76  1  0
 76 77  1  0
 76 78  2  0
 68 79  1  0
 79 80  2  0
 80 81  1  0
 81 82  1  0
 82 83  2  0
 83 84  1  0
 84 85  2  0
 85 86  1  0
 86 87  1  0
 87 88  1  0
 85 89  1  0
 89 90  2  0
 89 91  1  0
 81 92  2  0
 92 93  1  0
 80 94  1  0
 94 95  2  0
 95 96  1  0
 95 97  1  0
 97 98  2  0
 98 99  1  0
 99100  2  0
100101  1  0
101102  2  0
102103  1  0
103104  2  0
104105  1  0
105106  1  0
106107  1  0
104108  1  0
108109  1  0
108110  2  0
100111  1  0
111112  2  0
112113  1  0
113114  1  0
114115  2  0
115116  1  0
116117  2  0
117118  1  0
118119  1  0
119120  1  0
117121  1  0
121122  2  0
121123  1  0
113124  2  0
124125  1  0
112126  1  0
126127  2  0
127128  1  0
127129  1  0
129130  2  0
130131  1  0
131132  2  0
132133  1  0
133134  2  0
134135  1  0
135136  2  0
136137  1  0
137138  1  0
138139  1  0
136140  1  0
140141  1  0
140142  2  0
132143  1  0
143144  2  0
144145  1  0
145146  1  0
146147  2  0
147148  1  0
148149  2  0
149150  1  0
150151  1  0
151152  1  0
149153  1  0
153154  2  0
153155  1  0
145156  2  0
156157  1  0
144158  1  0
158159  2  0
159160  1  0
159161  1  0
161162  1  0
162163  1  0
163164  2  0
164165  1  0
165166  1  0
166167  2  0
167168  1  0
167169  1  0
169170  1  0
170171  1  0
169172  2  0
 29  1  1  0
 61 33  1  0
 93 65  1  0
125 97  1  0
157129  1  0
165161  2  0
 28  3  1  0
 60 35  1  0
 92 67  1  0
124 99  1  0
156131  1  0
172164  1  0
 14  5  1  0
 32 15  1  0
 46 37  1  0
 64 47  1  0
 78 69  1  0
 96 79  1  0
110101  1  0
128111  1  0
142133  1  0
160143  1  0
 26 18  1  0
 58 50  1  0
 90 82  1  0
122114  1  0
154146  1  0
  1173  1  0
  2174  1  0
  6175  1  0
  7176  1  0
 10177  1  0
 10178  1  0
 11179  1  0
 11180  1  0
 11181  1  0
 14182  1  0
 19183  1  0
 20184  1  0
 23185  1  0
 23186  1  0
 24187  1  0
 24188  1  0
 24189  1  0
 26190  1  0
 30191  1  0
 34192  1  0
 38193  1  0
 39194  1  0
 42195  1  0
 42196  1  0
 43197  1  0
 43198  1  0
 43199  1  0
 46200  1  0
 51201  1  0
 52202  1  0
 55203  1  0
 55204  1  0
 56205  1  0
 56206  1  0
 56207  1  0
 58208  1  0
 62209  1  0
 66210  1  0
 70211  1  0
 71212  1  0
 74213  1  0
 74214  1  0
 75215  1  0
 75216  1  0
 75217  1  0
 78218  1  0
 83219  1  0
 84220  1  0
 87221  1  0
 87222  1  0
 88223  1  0
 88224  1  0
 88225  1  0
 90226  1  0
 94227  1  0
 98228  1  0
102229  1  0
103230  1  0
106231  1  0
106232  1  0
107233  1  0
107234  1  0
107235  1  0
110236  1  0
115237  1  0
116238  1  0
119239  1  0
119240  1  0
120241  1  0
120242  1  0
120243  1  0
122244  1  0
126245  1  0
130246  1  0
134247  1  0
135248  1  0
138249  1  0
138250  1  0
139251  1  0
139252  1  0
139253  1  0
142254  1  0
147255  1  0
148256  1  0
151257  1  0
151258  1  0
152259  1  0
152260  1  0
152261  1  0
154262  1  0
158263  1  0
163264  1  0
166265  1  0
168266  1  0
168267  1  0
168268  1  0
171269  1  0
171270  1  0
171271  1  0
172272  1  0
M  END

