
     RDKit          3D

114125  0  0  0  0  0  0  0  0999 V2000
    7.9642   -3.4854    3.2893 C   0  0  0  0  0  0  0  0  0  0  0  0
    8.2572   -3.2197    1.6486 S   0  0  0  0  0  0  0  0  0  0  0  0
    6.7163   -2.6627    1.2615 C   0  0  0  0  0  0  0  0  0  0  0  0
    5.9477   -2.6656    2.4238 C   0  0  0  0  0  0  0  0  0  0  0  0
    6.6433   -3.1364    3.5440 C   0  0  0  0  0  0  0  0  0  0  0  0
    6.0137   -3.2281    4.7843 C   0  0  0  0  0  0  0  0  0  0  0  0
    4.6648   -2.8376    4.9057 C   0  0  0  0  0  0  0  0  0  0  0  0
    3.9745   -2.9677    6.2362 C   0  0  0  0  0  0  0  0  0  0  0  0
    3.9605   -2.3500    3.7796 C   0  0  0  0  0  0  0  0  0  0  0  0
    2.6093   -1.9992    3.9252 O   0  0  0  0  0  0  0  0  0  0  0  0
    1.9774   -0.9378    3.2109 C   0  0  0  0  0  0  0  0  0  0  0  0
    4.6154   -2.2480    2.5357 C   0  0  0  0  0  0  0  0  0  0  0  0
    6.2559   -2.2871   -0.0792 C   0  0  0  0  0  0  0  0  0  0  0  0
    4.9520   -3.0295   -0.8298 S   0  0  0  0  0  0  0  0  0  0  0  0
    4.5671   -1.8007   -1.9131 C   0  0  0  0  0  0  0  0  0  0  0  0
    5.4514   -0.7446   -1.6571 C   0  0  0  0  0  0  0  0  0  0  0  0
    6.3970   -1.0229   -0.6500 C   0  0  0  0  0  0  0  0  0  0  0  0
    7.2735   -0.0278   -0.2036 C   0  0  0  0  0  0  0  0  0  0  0  0
    7.2056    1.2547   -0.7704 C   0  0  0  0  0  0  0  0  0  0  0  0
    8.1194    2.2741   -0.3172 C   0  0  0  0  0  0  0  0  0  0  0  0
    8.8570    3.0900    0.0483 N   0  0  0  0  0  0  0  0  0  0  0  0
    6.2393    1.5535   -1.7554 C   0  0  0  0  0  0  0  0  0  0  0  0
    6.1665    2.8627   -2.2605 O   0  0  0  0  0  0  0  0  0  0  0  0
    5.2067    3.3123   -3.2142 C   0  0  0  0  0  0  0  0  0  0  0  0
    5.3616    0.5439   -2.1972 C   0  0  0  0  0  0  0  0  0  0  0  0
    3.1983   -1.6387   -2.4211 C   0  0  0  0  0  0  0  0  0  0  0  0
    1.8851   -1.6396   -1.3844 S   0  0  0  0  0  0  0  0  0  0  0  0
    0.7495   -1.0525   -2.4713 C   0  0  0  0  0  0  0  0  0  0  0  0
    1.4000   -0.8131   -3.6835 C   0  0  0  0  0  0  0  0  0  0  0  0
    2.7682   -1.1525   -3.6577 C   0  0  0  0  0  0  0  0  0  0  0  0
    3.5699   -0.9623   -4.7850 C   0  0  0  0  0  0  0  0  0  0  0  0
    3.0059   -0.3867   -5.9356 C   0  0  0  0  0  0  0  0  0  0  0  0
    3.8287   -0.2057   -7.1066 C   0  0  0  0  0  0  0  0  0  0  0  0
    4.4849   -0.0699   -8.0472 N   0  0  0  0  0  0  0  0  0  0  0  0
    1.6470    0.0029   -5.9548 C   0  0  0  0  0  0  0  0  0  0  0  0
    1.1337    0.6094   -7.1150 O   0  0  0  0  0  0  0  0  0  0  0  0
   -0.2152    1.0429   -7.2674 C   0  0  0  0  0  0  0  0  0  0  0  0
    0.8438   -0.2079   -4.8131 C   0  0  0  0  0  0  0  0  0  0  0  0
   -0.5989   -0.6496   -2.0579 C   0  0  0  0  0  0  0  0  0  0  0  0
   -0.8906    0.1288   -0.5990 S   0  0  0  0  0  0  0  0  0  0  0  0
   -2.5555   -0.0371   -0.5924 C   0  0  0  0  0  0  0  0  0  0  0  0
   -2.9199   -0.7385   -1.7442 C   0  0  0  0  0  0  0  0  0  0  0  0
   -1.8252   -1.0858   -2.5607 C   0  0  0  0  0  0  0  0  0  0  0  0
   -2.0148   -1.8606   -3.7088 C   0  0  0  0  0  0  0  0  0  0  0  0
   -3.3174   -2.2493   -4.0712 C   0  0  0  0  0  0  0  0  0  0  0  0
   -3.5275   -3.0731   -5.3146 C   0  0  0  0  0  0  0  0  0  0  0  0
   -4.4237   -1.8894   -3.2611 C   0  0  0  0  0  0  0  0  0  0  0  0
   -5.7072   -2.3075   -3.6473 O   0  0  0  0  0  0  0  0  0  0  0  0
   -6.9056   -1.9621   -2.9628 C   0  0  0  0  0  0  0  0  0  0  0  0
   -4.2154   -1.1273   -2.0918 C   0  0  0  0  0  0  0  0  0  0  0  0
   -3.3649    0.2691    0.5913 C   0  0  0  0  0  0  0  0  0  0  0  0
   -3.2355    1.7355    1.4077 S   0  0  0  0  0  0  0  0  0  0  0  0
   -3.8652    1.2223    2.8796 C   0  0  0  0  0  0  0  0  0  0  0  0
   -4.1409   -0.1377    2.7737 C   0  0  0  0  0  0  0  0  0  0  0  0
   -3.8554   -0.6715    1.5015 C   0  0  0  0  0  0  0  0  0  0  0  0
   -3.9688   -2.0483    1.2734 C   0  0  0  0  0  0  0  0  0  0  0  0
   -4.3896   -2.8864    2.3141 C   0  0  0  0  0  0  0  0  0  0  0  0
   -4.5160   -4.3008    2.0680 C   0  0  0  0  0  0  0  0  0  0  0  0
   -4.6275   -5.4362    1.8702 N   0  0  0  0  0  0  0  0  0  0  0  0
   -4.6600   -2.3643    3.5984 C   0  0  0  0  0  0  0  0  0  0  0  0
   -5.0246   -3.2510    4.6227 O   0  0  0  0  0  0  0  0  0  0  0  0
   -5.3180   -2.8652    5.9601 C   0  0  0  0  0  0  0  0  0  0  0  0
   -4.5338   -0.9734    3.8241 C   0  0  0  0  0  0  0  0  0  0  0  0
   -3.8740    2.0349    4.1051 C   0  0  0  0  0  0  0  0  0  0  0  0
   -5.2529    2.4698    4.9662 S   0  0  0  0  0  0  0  0  0  0  0  0
   -4.4898    3.4774    6.0853 C   0  0  0  0  0  0  0  0  0  0  0  0
   -3.1311    3.4733    5.7886 C   0  0  0  0  0  0  0  0  0  0  0  0
   -2.7844    2.6736    4.6904 C   0  0  0  0  0  0  0  0  0  0  0  0
   -1.4526    2.5647    4.2807 C   0  0  0  0  0  0  0  0  0  0  0  0
   -0.4642    3.2850    4.9683 C   0  0  0  0  0  0  0  0  0  0  0  0
    0.9045    3.1809    4.5328 C   0  0  0  0  0  0  0  0  0  0  0  0
    2.0029    3.1019    4.1737 N   0  0  0  0  0  0  0  0  0  0  0  0
   -0.8093    4.1224    6.0538 C   0  0  0  0  0  0  0  0  0  0  0  0
    0.2080    4.8645    6.6809 O   0  0  0  0  0  0  0  0  0  0  0  0
   -0.0035    5.8064    7.7295 C   0  0  0  0  0  0  0  0  0  0  0  0
   -2.1575    4.2077    6.4681 C   0  0  0  0  0  0  0  0  0  0  0  0
    8.6766   -3.8609    4.0128 H   0  0  0  0  0  0  0  0  0  0  0  0
    6.5597   -3.6018    5.6441 H   0  0  0  0  0  0  0  0  0  0  0  0
    3.3062   -2.0992    6.4181 H   0  0  0  0  0  0  0  0  0  0  0  0
    4.7151   -3.0010    7.0655 H   0  0  0  0  0  0  0  0  0  0  0  0
    3.3737   -3.9010    6.2521 H   0  0  0  0  0  0  0  0  0  0  0  0
    2.0449   -1.0830    2.1083 H   0  0  0  0  0  0  0  0  0  0  0  0
    2.4523    0.0310    3.4994 H   0  0  0  0  0  0  0  0  0  0  0  0
    0.8984   -0.8963    3.4941 H   0  0  0  0  0  0  0  0  0  0  0  0
    4.0947   -1.8731    1.6683 H   0  0  0  0  0  0  0  0  0  0  0  0
    7.9873   -0.2393    0.5839 H   0  0  0  0  0  0  0  0  0  0  0  0
    4.1822    3.1577   -2.8227 H   0  0  0  0  0  0  0  0  0  0  0  0
    5.3364    2.7651   -4.1712 H   0  0  0  0  0  0  0  0  0  0  0  0
    5.3582    4.3955   -3.3974 H   0  0  0  0  0  0  0  0  0  0  0  0
    4.5992    0.7679   -2.9279 H   0  0  0  0  0  0  0  0  0  0  0  0
    4.6196   -1.2425   -4.7670 H   0  0  0  0  0  0  0  0  0  0  0  0
   -0.3370    1.4996   -8.2698 H   0  0  0  0  0  0  0  0  0  0  0  0
   -0.9086    0.1789   -7.1795 H   0  0  0  0  0  0  0  0  0  0  0  0
   -0.4623    1.8064   -6.4966 H   0  0  0  0  0  0  0  0  0  0  0  0
   -0.1904    0.1024   -4.7967 H   0  0  0  0  0  0  0  0  0  0  0  0
   -1.1643   -2.1663   -4.3064 H   0  0  0  0  0  0  0  0  0  0  0  0
   -2.6072   -3.1112   -5.9377 H   0  0  0  0  0  0  0  0  0  0  0  0
   -4.3368   -2.6310   -5.9342 H   0  0  0  0  0  0  0  0  0  0  0  0
   -3.8075   -4.1080   -5.0282 H   0  0  0  0  0  0  0  0  0  0  0  0
   -7.7715   -2.3857   -3.5083 H   0  0  0  0  0  0  0  0  0  0  0  0
   -7.0162   -0.8596   -2.9176 H   0  0  0  0  0  0  0  0  0  0  0  0
   -6.8879   -2.3854   -1.9359 H   0  0  0  0  0  0  0  0  0  0  0  0
   -5.0406   -0.8458   -1.4564 H   0  0  0  0  0  0  0  0  0  0  0  0
   -3.7284   -2.4666    0.3037 H   0  0  0  0  0  0  0  0  0  0  0  0
   -4.4432   -2.3541    6.4152 H   0  0  0  0  0  0  0  0  0  0  0  0
   -5.5492   -3.7738    6.5571 H   0  0  0  0  0  0  0  0  0  0  0  0
   -6.2050   -2.1987    5.9739 H   0  0  0  0  0  0  0  0  0  0  0  0
   -4.7170   -0.5524    4.8048 H   0  0  0  0  0  0  0  0  0  0  0  0
   -4.9757    4.0418    6.8663 H   0  0  0  0  0  0  0  0  0  0  0  0
   -1.1777    1.9214    3.4513 H   0  0  0  0  0  0  0  0  0  0  0  0
   -0.3685    5.2819    8.6344 H   0  0  0  0  0  0  0  0  0  0  0  0
    0.9605    6.3011    7.9722 H   0  0  0  0  0  0  0  0  0  0  0  0
   -0.7300    6.5804    7.4067 H   0  0  0  0  0  0  0  0  0  0  0  0
   -2.4433    4.8360    7.3022 H   0  0  0  0  0  0  0  0  0  0  0  0
  1  2  1  0
  2  3  1  0
  3  4  2  0
  4  5  1  0
  5  6  1  0
  6  7  2  0
  7  8  1  0
  7  9  1  0
  9 10  1  0
 10 11  1  0
  9 12  2  0
  3 13  1  0
 13 14  1  0
 14 15  1  0
 15 16  2  0
 16 17  1  0
 17 18  1  0
 18 19  2  0
 19 20  1  0
 20 21  3  0
 19 22  1  0
 22 23  1  0
 23 24  1  0
 22 25  2  0
 15 26  1  0
 26 27  1  0
 27 28  1  0
 28 29  2  0
 29 30  1  0
 30 31  1  0
 31 32  2  0
 32 33  1  0
 33 34  3  0
 32 35  1  0
 35 36  1  0
 36 37  1  0
 35 38  2  0
 28 39  1  0
 39 40  1  0
 40 41  1  0
 41 42  2  0
 42 43  1  0
 43 44  1  0
 44 45  2  0
 45 46  1  0
 45 47  1  0
 47 48  1  0
 48 49  1  0
 47 50  2  0
 41 51  1  0
 51 52  1  0
 52 53  1  0
 53 54  2  0
 54 55  1  0
 55 56  1  0
 56 57  2  0
 57 58  1  0
 58 59  3  0
 57 60  1  0
 60 61  1  0
 61 62  1  0
 60 63  2  0
 53 64  1  0
 64 65  1  0
 65 66  1  0
 66 67  2  0
 67 68  1  0
 68 69  1  0
 69 70  2  0
 70 71  1  0
 71 72  3  0
 70 73  1  0
 73 74  1  0
 74 75  1  0
 73 76  2  0
  5  1  2  0
 17 13  2  0
 30 26  2  0
 43 39  2  0
 55 51  2  0
 68 64  2  0
 12  4  1  0
 25 16  1  0
 38 29  1  0
 50 42  1  0
 63 54  1  0
 76 67  1  0
  1 77  1  0
  6 78  1  0
  8 79  1  0
  8 80  1  0
  8 81  1  0
 11 82  1  0
 11 83  1  0
 11 84  1  0
 12 85  1  0
 18 86  1  0
 24 87  1  0
 24 88  1  0
 24 89  1  0
 25 90  1  0
 31 91  1  0
 37 92  1  0
 37 93  1  0
 37 94  1  0
 38 95  1  0
 44 96  1  0
 46 97  1  0
 46 98  1  0
 46 99  1  0
 49100  1  0
 49101  1  0
 49102  1  0
 50103  1  0
 56104  1  0
 62105  1  0
 62106  1  0
 62107  1  0
 63108  1  0
 66109  1  0
 69110  1  0
 75111  1  0
 75112  1  0
 75113  1  0
 76114  1  0
M  END

