
     RDKit          3D

182199  0  0  0  0  0  0  0  0999 V2000
   11.5335    0.8209    6.5540 C   0  0  0  0  0  0  0  0  0  0  0  0
   11.2498    1.9606    5.3475 S   0  0  0  0  0  0  0  0  0  0  0  0
    9.9026    1.2178    4.6579 C   0  0  0  0  0  0  0  0  0  0  0  0
    9.6607    0.0414    5.3730 C   0  0  0  0  0  0  0  0  0  0  0  0
   10.5680   -0.1696    6.4240 C   0  0  0  0  0  0  0  0  0  0  0  0
   10.4652   -1.2943    7.2413 C   0  0  0  0  0  0  0  0  0  0  0  0
    9.4243   -2.2170    7.0238 C   0  0  0  0  0  0  0  0  0  0  0  0
    9.3358   -3.4457    7.8835 C   0  0  0  0  0  0  0  0  0  0  0  0
    8.5055   -2.0141    5.9673 C   0  0  0  0  0  0  0  0  0  0  0  0
    7.4881   -2.9630    5.7650 O   0  0  0  0  0  0  0  0  0  0  0  0
    6.5264   -2.9065    4.7146 C   0  0  0  0  0  0  0  0  0  0  0  0
    8.6249   -0.8714    5.1458 C   0  0  0  0  0  0  0  0  0  0  0  0
    9.1925    1.7044    3.4576 C   0  0  0  0  0  0  0  0  0  0  0  0
    8.7626    0.7485    2.1372 S   0  0  0  0  0  0  0  0  0  0  0  0
    8.0266    1.9561    1.2220 C   0  0  0  0  0  0  0  0  0  0  0  0
    8.1339    3.1531    1.9437 C   0  0  0  0  0  0  0  0  0  0  0  0
    8.7640    3.0080    3.1936 C   0  0  0  0  0  0  0  0  0  0  0  0
    8.8553    4.0977    4.0669 C   0  0  0  0  0  0  0  0  0  0  0  0
    8.3280    5.3447    3.6855 C   0  0  0  0  0  0  0  0  0  0  0  0
    8.4109    6.5105    4.6304 C   0  0  0  0  0  0  0  0  0  0  0  0
    7.7460    5.5078    2.4076 C   0  0  0  0  0  0  0  0  0  0  0  0
    7.2368    6.7672    2.0506 O   0  0  0  0  0  0  0  0  0  0  0  0
    6.5894    7.0531    0.8161 C   0  0  0  0  0  0  0  0  0  0  0  0
    7.6779    4.4081    1.5272 C   0  0  0  0  0  0  0  0  0  0  0  0
    7.1647    1.6779    0.0557 C   0  0  0  0  0  0  0  0  0  0  0  0
    5.9535    2.3172   -0.2133 C   0  0  0  0  0  0  0  0  0  0  0  0
    5.1973    1.6755   -1.1999 C   0  0  0  0  0  0  0  0  0  0  0  0
    3.9007    2.0406   -1.5994 C   0  0  0  0  0  0  0  0  0  0  0  0
    3.2358    3.2335   -1.0417 C   0  0  0  0  0  0  0  0  0  0  0  0
    2.2795    3.0923   -0.0257 C   0  0  0  0  0  0  0  0  0  0  0  0
    1.7158    4.2233    0.5699 C   0  0  0  0  0  0  0  0  0  0  0  0
    2.1065    5.5055    0.1625 C   0  0  0  0  0  0  0  0  0  0  0  0
    1.3692    6.9474    0.9445 S   0  0  0  0  0  0  0  0  0  0  0  0
    2.7397    7.2391    2.1199 C   0  0  0  0  0  0  0  0  0  0  0  0
    2.7103    6.2478    3.2766 C   0  0  0  0  0  0  0  0  0  0  0  0
    3.0473    5.6502   -0.8689 C   0  0  0  0  0  0  0  0  0  0  0  0
    3.4252    6.8850   -1.2851 F   0  0  0  0  0  0  0  0  0  0  0  0
    3.6181    4.5170   -1.4603 C   0  0  0  0  0  0  0  0  0  0  0  0
    3.2301    1.1550   -2.4541 C   0  0  0  0  0  0  0  0  0  0  0  0
    3.7958   -0.0421   -2.9011 C   0  0  0  0  0  0  0  0  0  0  0  0
    5.1270   -0.3686   -2.5597 C   0  0  0  0  0  0  0  0  0  0  0  0
    5.7951   -1.5768   -3.0777 C   0  0  0  0  0  0  0  0  0  0  0  0
    5.4599   -2.8471   -2.5862 C   0  0  0  0  0  0  0  0  0  0  0  0
    6.0936   -3.9856   -3.0937 C   0  0  0  0  0  0  0  0  0  0  0  0
    7.0662   -3.8622   -4.0945 C   0  0  0  0  0  0  0  0  0  0  0  0
    7.8522   -5.3321   -4.7697 S   0  0  0  0  0  0  0  0  0  0  0  0
    9.3041   -5.2637   -3.6620 C   0  0  0  0  0  0  0  0  0  0  0  0
    9.0248   -6.0023   -2.3609 C   0  0  0  0  0  0  0  0  0  0  0  0
    7.3980   -2.5932   -4.5911 C   0  0  0  0  0  0  0  0  0  0  0  0
    6.7716   -1.4545   -4.0762 C   0  0  0  0  0  0  0  0  0  0  0  0
    8.3310   -2.4571   -5.5673 F   0  0  0  0  0  0  0  0  0  0  0  0
    5.7972    0.5149   -1.6954 C   0  0  0  0  0  0  0  0  0  0  0  0
    7.2736    0.2945   -0.9181 S   0  0  0  0  0  0  0  0  0  0  0  0
    2.8868   -0.8534   -3.6080 C   0  0  0  0  0  0  0  0  0  0  0  0
    1.6156   -0.2724   -3.7401 C   0  0  0  0  0  0  0  0  0  0  0  0
    1.6397    1.2297   -2.9661 S   0  0  0  0  0  0  0  0  0  0  0  0
    0.3461   -0.9233   -4.1456 C   0  0  0  0  0  0  0  0  0  0  0  0
   -1.1421   -0.3392   -3.6209 S   0  0  0  0  0  0  0  0  0  0  0  0
   -2.0997   -1.6261   -4.1053 C   0  0  0  0  0  0  0  0  0  0  0  0
   -1.2562   -2.5634   -4.7116 C   0  0  0  0  0  0  0  0  0  0  0  0
    0.1013   -2.1641   -4.7613 C   0  0  0  0  0  0  0  0  0  0  0  0
    1.0387   -2.9706   -5.4176 C   0  0  0  0  0  0  0  0  0  0  0  0
    0.6479   -4.2161   -5.9428 C   0  0  0  0  0  0  0  0  0  0  0  0
    1.6616   -5.0862   -6.6326 C   0  0  0  0  0  0  0  0  0  0  0  0
   -0.7018   -4.6279   -5.8686 C   0  0  0  0  0  0  0  0  0  0  0  0
   -1.0583   -5.8733   -6.4134 O   0  0  0  0  0  0  0  0  0  0  0  0
   -2.3638   -6.4393   -6.3551 C   0  0  0  0  0  0  0  0  0  0  0  0
   -1.6575   -3.7843   -5.2638 C   0  0  0  0  0  0  0  0  0  0  0  0
   -3.5212   -1.7370   -3.7306 C   0  0  0  0  0  0  0  0  0  0  0  0
   -4.3316   -0.6356   -3.4564 C   0  0  0  0  0  0  0  0  0  0  0  0
   -5.5045   -0.9674   -2.7631 C   0  0  0  0  0  0  0  0  0  0  0  0
   -6.4525   -0.0520   -2.2597 C   0  0  0  0  0  0  0  0  0  0  0  0
   -6.3701    1.3945   -2.5507 C   0  0  0  0  0  0  0  0  0  0  0  0
   -6.5856    1.8629   -3.8555 C   0  0  0  0  0  0  0  0  0  0  0  0
   -6.5123    3.2291   -4.1344 C   0  0  0  0  0  0  0  0  0  0  0  0
   -6.1964    4.1368   -3.1153 C   0  0  0  0  0  0  0  0  0  0  0  0
   -6.0920    5.8927   -3.4810 S   0  0  0  0  0  0  0  0  0  0  0  0
   -4.3727    5.7985   -4.0811 C   0  0  0  0  0  0  0  0  0  0  0  0
   -3.7837    7.1948   -4.1937 C   0  0  0  0  0  0  0  0  0  0  0  0
   -5.9720    3.6728   -1.8138 C   0  0  0  0  0  0  0  0  0  0  0  0
   -5.6565    4.5440   -0.8204 F   0  0  0  0  0  0  0  0  0  0  0  0
   -6.0566    2.3069   -1.5304 C   0  0  0  0  0  0  0  0  0  0  0  0
   -7.4675   -0.5758   -1.4408 C   0  0  0  0  0  0  0  0  0  0  0  0
   -7.5797   -1.9395   -1.1621 C   0  0  0  0  0  0  0  0  0  0  0  0
   -6.6659   -2.8643   -1.7144 C   0  0  0  0  0  0  0  0  0  0  0  0
   -6.7926   -4.3161   -1.4638 C   0  0  0  0  0  0  0  0  0  0  0  0
   -5.7832   -5.0183   -0.7877 C   0  0  0  0  0  0  0  0  0  0  0  0
   -5.9346   -6.3806   -0.5204 C   0  0  0  0  0  0  0  0  0  0  0  0
   -7.1003   -7.0511   -0.9099 C   0  0  0  0  0  0  0  0  0  0  0  0
   -7.2913   -8.8006   -0.5483 S   0  0  0  0  0  0  0  0  0  0  0  0
   -8.2230   -8.5490    1.0040 C   0  0  0  0  0  0  0  0  0  0  0  0
   -7.2788   -8.3009    2.1730 C   0  0  0  0  0  0  0  0  0  0  0  0
   -8.1043   -6.3585   -1.6009 C   0  0  0  0  0  0  0  0  0  0  0  0
   -7.9515   -4.9953   -1.8719 C   0  0  0  0  0  0  0  0  0  0  0  0
   -9.2347   -6.9976   -1.9959 F   0  0  0  0  0  0  0  0  0  0  0  0
   -5.6198   -2.3353   -2.4943 C   0  0  0  0  0  0  0  0  0  0  0  0
   -4.2708   -3.1255   -3.1212 S   0  0  0  0  0  0  0  0  0  0  0  0
   -8.6182   -2.2334   -0.2616 C   0  0  0  0  0  0  0  0  0  0  0  0
   -9.3153   -1.1027    0.1717 C   0  0  0  0  0  0  0  0  0  0  0  0
   -8.6591    0.2538   -0.5944 S   0  0  0  0  0  0  0  0  0  0  0  0
  -10.4370   -1.1342    1.1396 C   0  0  0  0  0  0  0  0  0  0  0  0
  -11.2929   -2.5435    1.5083 S   0  0  0  0  0  0  0  0  0  0  0  0
  -12.3423   -1.8884    2.6419 C   0  0  0  0  0  0  0  0  0  0  0  0
  -12.0296   -0.5430    2.7643 C   0  0  0  0  0  0  0  0  0  0  0  0
  -10.9736   -0.1071    1.9374 C   0  0  0  0  0  0  0  0  0  0  0  0
  -10.5454    1.2265    2.0137 C   0  0  0  0  0  0  0  0  0  0  0  0
  -11.1993    2.1243    2.8811 C   0  0  0  0  0  0  0  0  0  0  0  0
  -10.7355    3.5539    2.9626 C   0  0  0  0  0  0  0  0  0  0  0  0
  -12.2530    1.6753    3.7114 C   0  0  0  0  0  0  0  0  0  0  0  0
  -12.8617    2.5893    4.5894 O   0  0  0  0  0  0  0  0  0  0  0  0
  -13.9036    2.2601    5.5029 C   0  0  0  0  0  0  0  0  0  0  0  0
  -12.6652    0.3289    3.6460 C   0  0  0  0  0  0  0  0  0  0  0  0
   12.3270    0.8519    7.2884 H   0  0  0  0  0  0  0  0  0  0  0  0
   11.1820   -1.4484    8.0391 H   0  0  0  0  0  0  0  0  0  0  0  0
    8.2746   -3.6861    8.1091 H   0  0  0  0  0  0  0  0  0  0  0  0
    9.8019   -4.3033    7.3532 H   0  0  0  0  0  0  0  0  0  0  0  0
    9.8568   -3.2919    8.8512 H   0  0  0  0  0  0  0  0  0  0  0  0
    5.8321   -3.7635    4.8179 H   0  0  0  0  0  0  0  0  0  0  0  0
    5.9391   -1.9676    4.7843 H   0  0  0  0  0  0  0  0  0  0  0  0
    7.0326   -2.9700    3.7290 H   0  0  0  0  0  0  0  0  0  0  0  0
    7.9112   -0.6888    4.3573 H   0  0  0  0  0  0  0  0  0  0  0  0
    9.3032    3.9783    5.0423 H   0  0  0  0  0  0  0  0  0  0  0  0
    8.7214    6.1890    5.6471 H   0  0  0  0  0  0  0  0  0  0  0  0
    9.1502    7.2433    4.2446 H   0  0  0  0  0  0  0  0  0  0  0  0
    7.4188    7.0028    4.7194 H   0  0  0  0  0  0  0  0  0  0  0  0
    6.2095    8.0954    0.8406 H   0  0  0  0  0  0  0  0  0  0  0  0
    7.3085    6.9529   -0.0246 H   0  0  0  0  0  0  0  0  0  0  0  0
    5.7333    6.3629    0.6638 H   0  0  0  0  0  0  0  0  0  0  0  0
    7.2972    4.5378    0.5272 H   0  0  0  0  0  0  0  0  0  0  0  0
    5.5663    3.1416    0.3660 H   0  0  0  0  0  0  0  0  0  0  0  0
    1.9899    2.1072    0.3190 H   0  0  0  0  0  0  0  0  0  0  0  0
    0.9835    4.1034    1.3575 H   0  0  0  0  0  0  0  0  0  0  0  0
    3.7138    7.1832    1.5958 H   0  0  0  0  0  0  0  0  0  0  0  0
    2.6282    8.2667    2.5263 H   0  0  0  0  0  0  0  0  0  0  0  0
    3.4957    6.5166    4.0136 H   0  0  0  0  0  0  0  0  0  0  0  0
    2.9126    5.2198    2.9157 H   0  0  0  0  0  0  0  0  0  0  0  0
    1.7227    6.2741    3.7817 H   0  0  0  0  0  0  0  0  0  0  0  0
    4.3631    4.6373   -2.2389 H   0  0  0  0  0  0  0  0  0  0  0  0
    4.7076   -2.9541   -1.8129 H   0  0  0  0  0  0  0  0  0  0  0  0
    5.8254   -4.9628   -2.7125 H   0  0  0  0  0  0  0  0  0  0  0  0
   10.1553   -5.7545   -4.1790 H   0  0  0  0  0  0  0  0  0  0  0  0
    9.5994   -4.2142   -3.4498 H   0  0  0  0  0  0  0  0  0  0  0  0
    8.1861   -5.5254   -1.8155 H   0  0  0  0  0  0  0  0  0  0  0  0
    9.9281   -5.9741   -1.7166 H   0  0  0  0  0  0  0  0  0  0  0  0
    8.7705   -7.0625   -2.5709 H   0  0  0  0  0  0  0  0  0  0  0  0
    7.0343   -0.4773   -4.4660 H   0  0  0  0  0  0  0  0  0  0  0  0
    3.1366   -1.8585   -3.9044 H   0  0  0  0  0  0  0  0  0  0  0  0
    2.0469   -2.6298   -5.5734 H   0  0  0  0  0  0  0  0  0  0  0  0
    2.6976   -4.7165   -6.4753 H   0  0  0  0  0  0  0  0  0  0  0  0
    1.6079   -6.1219   -6.2321 H   0  0  0  0  0  0  0  0  0  0  0  0
    1.4545   -5.1080   -7.7239 H   0  0  0  0  0  0  0  0  0  0  0  0
   -2.6835   -6.5543   -5.2978 H   0  0  0  0  0  0  0  0  0  0  0  0
   -3.0820   -5.7965   -6.9064 H   0  0  0  0  0  0  0  0  0  0  0  0
   -2.3466   -7.4399   -6.8353 H   0  0  0  0  0  0  0  0  0  0  0  0
   -2.6993   -4.0665   -5.2412 H   0  0  0  0  0  0  0  0  0  0  0  0
   -4.0363    0.3822   -3.6765 H   0  0  0  0  0  0  0  0  0  0  0  0
   -6.8304    1.1691   -4.6529 H   0  0  0  0  0  0  0  0  0  0  0  0
   -6.6959    3.5826   -5.1415 H   0  0  0  0  0  0  0  0  0  0  0  0
   -3.7509    5.1968   -3.3828 H   0  0  0  0  0  0  0  0  0  0  0  0
   -4.3626    5.3141   -5.0796 H   0  0  0  0  0  0  0  0  0  0  0  0
   -2.7775    7.1364   -4.6610 H   0  0  0  0  0  0  0  0  0  0  0  0
   -4.4327    7.8391   -4.8219 H   0  0  0  0  0  0  0  0  0  0  0  0
   -3.6869    7.6444   -3.1829 H   0  0  0  0  0  0  0  0  0  0  0  0
   -5.8720    1.9564   -0.5235 H   0  0  0  0  0  0  0  0  0  0  0  0
   -4.8907   -4.5050   -0.4513 H   0  0  0  0  0  0  0  0  0  0  0  0
   -5.1498   -6.9130    0.0024 H   0  0  0  0  0  0  0  0  0  0  0  0
   -8.9377   -7.7047    0.9045 H   0  0  0  0  0  0  0  0  0  0  0  0
   -8.8089   -9.4713    1.2047 H   0  0  0  0  0  0  0  0  0  0  0  0
   -6.7255   -7.3514    2.0326 H   0  0  0  0  0  0  0  0  0  0  0  0
   -7.8637   -8.2302    3.1130 H   0  0  0  0  0  0  0  0  0  0  0  0
   -6.5553   -9.1379    2.2651 H   0  0  0  0  0  0  0  0  0  0  0  0
   -8.7400   -4.4679   -2.3947 H   0  0  0  0  0  0  0  0  0  0  0  0
   -8.8315   -3.2301    0.0987 H   0  0  0  0  0  0  0  0  0  0  0  0
  -13.1061   -2.4264    3.1887 H   0  0  0  0  0  0  0  0  0  0  0  0
   -9.7109    1.5795    1.4306 H   0  0  0  0  0  0  0  0  0  0  0  0
  -10.1871    3.7093    3.9161 H   0  0  0  0  0  0  0  0  0  0  0  0
  -10.0626    3.8150    2.1199 H   0  0  0  0  0  0  0  0  0  0  0  0
  -11.6098    4.2379    2.9249 H   0  0  0  0  0  0  0  0  0  0  0  0
  -13.5435    1.5053    6.2340 H   0  0  0  0  0  0  0  0  0  0  0  0
  -14.7877    1.8722    4.9540 H   0  0  0  0  0  0  0  0  0  0  0  0
  -14.2072    3.1726    6.0549 H   0  0  0  0  0  0  0  0  0  0  0  0
  -13.4611   -0.0448    4.2752 H   0  0  0  0  0  0  0  0  0  0  0  0
  1  2  1  0
  2  3  1  0
  3  4  2  0
  4  5  1  0
  5  6  1  0
  6  7  2  0
  7  8  1  0
  7  9  1  0
  9 10  1  0
 10 11  1  0
  9 12  2  0
  3 13  1  0
 13 14  1  0
 14 15  1  0
 15 16  2  0
 16 17  1  0
 17 18  1  0
 18 19  2  0
 19 20  1  0
 19 21  1  0
 21 22  1  0
 22 23  1  0
 21 24  2  0
 15 25  1  0
 25 26  2  0
 26 27  1  0
 27 28  2  0
 28 29  1  0
 29 30  2  0
 30 31  1  0
 31 32  2  0
 32 33  1  0
 33 34  1  0
 34 35  1  0
 32 36  1  0
 36 37  1  0
 36 38  2  0
 28 39  1  0
 39 40  2  0
 40 41  1  0
 41 42  1  0
 42 43  2  0
 43 44  1  0
 44 45  2  0
 45 46  1  0
 46 47  1  0
 47 48  1  0
 45 49  1  0
 49 50  2  0
 49 51  1  0
 41 52  2  0
 52 53  1  0
 40 54  1  0
 54 55  2  0
 55 56  1  0
 55 57  1  0
 57 58  1  0
 58 59  1  0
 59 60  2  0
 60 61  1  0
 61 62  1  0
 62 63  2  0
 63 64  1  0
 63 65  1  0
 65 66  1  0
 66 67  1  0
 65 68  2  0
 59 69  1  0
 69 70  2  0
 70 71  1  0
 71 72  2  0
 72 73  1  0
 73 74  2  0
 74 75  1  0
 75 76  2  0
 76 77  1  0
 77 78  1  0
 78 79  1  0
 76 80  1  0
 80 81  1  0
 80 82  2  0
 72 83  1  0
 83 84  2  0
 84 85  1  0
 85 86  1  0
 86 87  2  0
 87 88  1  0
 88 89  2  0
 89 90  1  0
 90 91  1  0
 91 92  1  0
 89 93  1  0
 93 94  2  0
 93 95  1  0
 85 96  2  0
 96 97  1  0
 84 98  1  0
 98 99  2  0
 99100  1  0
 99101  1  0
101102  1  0
102103  1  0
103104  2  0
104105  1  0
105106  1  0
106107  2  0
107108  1  0
107109  1  0
109110  1  0
110111  1  0
109112  2  0
  5  1  2  0
 17 13  2  0
 53 25  1  0
 61 57  2  0
 97 69  1  0
105101  2  0
 12  4  1  0
 24 16  1  0
 52 27  1  0
 68 60  1  0
 96 71  1  0
112104  1  0
 38 29  1  0
 56 39  1  0
 82 73  1  0
100 83  1  0
 50 42  1  0
 94 86  1  0
  1113  1  0
  6114  1  0
  8115  1  0
  8116  1  0
  8117  1  0
 11118  1  0
 11119  1  0
 11120  1  0
 12121  1  0
 18122  1  0
 20123  1  0
 20124  1  0
 20125  1  0
 23126  1  0
 23127  1  0
 23128  1  0
 24129  1  0
 26130  1  0
 30131  1  0
 31132  1  0
 34133  1  0
 34134  1  0
 35135  1  0
 35136  1  0
 35137  1  0
 38138  1  0
 43139  1  0
 44140  1  0
 47141  1  0
 47142  1  0
 48143  1  0
 48144  1  0
 48145  1  0
 50146  1  0
 54147  1  0
 62148  1  0
 64149  1  0
 64150  1  0
 64151  1  0
 67152  1  0
 67153  1  0
 67154  1  0
 68155  1  0
 70156  1  0
 74157  1  0
 75158  1  0
 78159  1  0
 78160  1  0
 79161  1  0
 79162  1  0
 79163  1  0
 82164  1  0
 87165  1  0
 88166  1  0
 91167  1  0
 91168  1  0
 92169  1  0
 92170  1  0
 92171  1  0
 94172  1  0
 98173  1  0
103174  1  0
106175  1  0
108176  1  0
108177  1  0
108178  1  0
111179  1  0
111180  1  0
111181  1  0
112182  1  0
M  END

