
     RDKit          3D

152166  0  0  0  0  0  0  0  0999 V2000
    4.4562    5.6012    5.0265 C   0  0  0  0  0  0  0  0  0  0  0  0
    3.0701    4.9527    4.3253 S   0  0  0  0  0  0  0  0  0  0  0  0
    2.8043    3.7286    5.4574 C   0  0  0  0  0  0  0  0  0  0  0  0
    3.8278    3.8084    6.4041 C   0  0  0  0  0  0  0  0  0  0  0  0
    4.7389    4.8482    6.1600 C   0  0  0  0  0  0  0  0  0  0  0  0
    5.8238    5.0625    7.0102 C   0  0  0  0  0  0  0  0  0  0  0  0
    5.9987    4.2284    8.1291 C   0  0  0  0  0  0  0  0  0  0  0  0
    7.1843    4.4290    9.0329 C   0  0  0  0  0  0  0  0  0  0  0  0
    5.0794    3.1828    8.3901 C   0  0  0  0  0  0  0  0  0  0  0  0
    5.2899    2.3605    9.5114 O   0  0  0  0  0  0  0  0  0  0  0  0
    4.4475    1.2745    9.8857 C   0  0  0  0  0  0  0  0  0  0  0  0
    3.9793    2.9875    7.5256 C   0  0  0  0  0  0  0  0  0  0  0  0
    1.7844    2.6700    5.3344 C   0  0  0  0  0  0  0  0  0  0  0  0
    2.1050    1.0234    5.4626 S   0  0  0  0  0  0  0  0  0  0  0  0
    0.5651    0.4574    5.0814 C   0  0  0  0  0  0  0  0  0  0  0  0
   -0.2305    1.5789    4.8151 C   0  0  0  0  0  0  0  0  0  0  0  0
    0.4489    2.8061    4.9476 C   0  0  0  0  0  0  0  0  0  0  0  0
   -0.2148    4.0124    4.6980 C   0  0  0  0  0  0  0  0  0  0  0  0
   -1.5656    3.9970    4.3031 C   0  0  0  0  0  0  0  0  0  0  0  0
   -2.2672    5.2878    3.9875 C   0  0  0  0  0  0  0  0  0  0  0  0
   -2.2532    2.7665    4.1771 C   0  0  0  0  0  0  0  0  0  0  0  0
   -3.6023    2.7868    3.7814 O   0  0  0  0  0  0  0  0  0  0  0  0
   -4.4205    1.6296    3.6424 C   0  0  0  0  0  0  0  0  0  0  0  0
   -1.5810    1.5570    4.4515 C   0  0  0  0  0  0  0  0  0  0  0  0
    0.2608   -0.9548    4.7652 C   0  0  0  0  0  0  0  0  0  0  0  0
   -0.5540   -1.4365    3.3765 S   0  0  0  0  0  0  0  0  0  0  0  0
   -0.2042   -3.0753    3.4549 C   0  0  0  0  0  0  0  0  0  0  0  0
    0.6135   -3.2766    4.5623 C   0  0  0  0  0  0  0  0  0  0  0  0
    0.8578   -2.1023    5.3046 C   0  0  0  0  0  0  0  0  0  0  0  0
    1.6544   -2.1537    6.4534 C   0  0  0  0  0  0  0  0  0  0  0  0
    2.2254   -3.3750    6.8498 C   0  0  0  0  0  0  0  0  0  0  0  0
    3.1034   -3.4191    8.0696 C   0  0  0  0  0  0  0  0  0  0  0  0
    2.0201   -4.5432    6.0764 C   0  0  0  0  0  0  0  0  0  0  0  0
    2.6515   -5.7324    6.4750 O   0  0  0  0  0  0  0  0  0  0  0  0
    2.5676   -6.9700    5.7771 C   0  0  0  0  0  0  0  0  0  0  0  0
    1.1996   -4.4890    4.9292 C   0  0  0  0  0  0  0  0  0  0  0  0
   -0.4032   -3.9629    2.3065 C   0  0  0  0  0  0  0  0  0  0  0  0
    0.6066   -3.8419    0.9784 S   0  0  0  0  0  0  0  0  0  0  0  0
   -0.4997   -4.2126   -0.2358 C   0  0  0  0  0  0  0  0  0  0  0  0
   -1.7217   -4.4628    0.4123 C   0  0  0  0  0  0  0  0  0  0  0  0
   -1.6593   -4.3165    1.8148 C   0  0  0  0  0  0  0  0  0  0  0  0
   -2.8138   -4.4108    2.5925 C   0  0  0  0  0  0  0  0  0  0  0  0
   -4.0466   -4.7004    1.9790 C   0  0  0  0  0  0  0  0  0  0  0  0
   -5.2877   -4.8443    2.8161 C   0  0  0  0  0  0  0  0  0  0  0  0
   -4.1219   -4.8509    0.5796 C   0  0  0  0  0  0  0  0  0  0  0  0
   -5.3695   -5.1431    0.0032 O   0  0  0  0  0  0  0  0  0  0  0  0
   -5.5948   -5.3040   -1.3934 C   0  0  0  0  0  0  0  0  0  0  0  0
   -2.9555   -4.7072   -0.2039 C   0  0  0  0  0  0  0  0  0  0  0  0
   -0.3170   -3.6694   -1.5979 C   0  0  0  0  0  0  0  0  0  0  0  0
   -0.9681   -4.0366   -2.7824 C   0  0  0  0  0  0  0  0  0  0  0  0
   -0.7869   -3.1000   -3.8207 C   0  0  0  0  0  0  0  0  0  0  0  0
   -1.3979   -3.1106   -5.0982 C   0  0  0  0  0  0  0  0  0  0  0  0
   -2.3713   -4.1521   -5.5002 C   0  0  0  0  0  0  0  0  0  0  0  0
   -2.1587   -4.9073   -6.6660 C   0  0  0  0  0  0  0  0  0  0  0  0
   -3.1057   -5.8509   -7.0739 C   0  0  0  0  0  0  0  0  0  0  0  0
   -4.2586   -6.0683   -6.3135 C   0  0  0  0  0  0  0  0  0  0  0  0
   -5.4914   -7.2546   -6.8732 S   0  0  0  0  0  0  0  0  0  0  0  0
   -4.6621   -8.7195   -6.1575 C   0  0  0  0  0  0  0  0  0  0  0  0
   -5.0229   -8.8894   -4.6859 C   0  0  0  0  0  0  0  0  0  0  0  0
   -4.4817   -5.3100   -5.1542 C   0  0  0  0  0  0  0  0  0  0  0  0
   -5.6148   -5.4847   -4.4333 F   0  0  0  0  0  0  0  0  0  0  0  0
   -3.5334   -4.3672   -4.7430 C   0  0  0  0  0  0  0  0  0  0  0  0
   -1.1143   -2.0129   -5.9424 C   0  0  0  0  0  0  0  0  0  0  0  0
   -0.2811   -0.9544   -5.5540 C   0  0  0  0  0  0  0  0  0  0  0  0
    0.3278   -0.9550   -4.2895 C   0  0  0  0  0  0  0  0  0  0  0  0
    1.1429    0.1705   -3.8053 C   0  0  0  0  0  0  0  0  0  0  0  0
    0.5290    1.2495   -3.1522 C   0  0  0  0  0  0  0  0  0  0  0  0
    1.3122    2.2368   -2.5475 C   0  0  0  0  0  0  0  0  0  0  0  0
    2.7091    2.1494   -2.5872 C   0  0  0  0  0  0  0  0  0  0  0  0
    3.7069    3.3633   -1.7136 S   0  0  0  0  0  0  0  0  0  0  0  0
    3.6023    2.5278   -0.0866 C   0  0  0  0  0  0  0  0  0  0  0  0
    4.5542    1.3395   -0.0066 C   0  0  0  0  0  0  0  0  0  0  0  0
    3.3222    1.1003   -3.2884 C   0  0  0  0  0  0  0  0  0  0  0  0
    2.5405    0.1081   -3.8860 C   0  0  0  0  0  0  0  0  0  0  0  0
    4.6741    1.0226   -3.3602 F   0  0  0  0  0  0  0  0  0  0  0  0
    0.0536   -2.0428   -3.4560 C   0  0  0  0  0  0  0  0  0  0  0  0
    0.5277   -2.2354   -1.8659 S   0  0  0  0  0  0  0  0  0  0  0  0
   -0.1903    0.0689   -6.5065 C   0  0  0  0  0  0  0  0  0  0  0  0
   -0.9784   -0.1688   -7.6299 C   0  0  0  0  0  0  0  0  0  0  0  0
   -1.7500   -1.6626   -7.4648 S   0  0  0  0  0  0  0  0  0  0  0  0
   -1.1220    0.7370   -8.7806 C   0  0  0  0  0  0  0  0  0  0  0  0
   -1.2127    0.2272  -10.3857 S   0  0  0  0  0  0  0  0  0  0  0  0
   -1.2826    1.7546  -11.0910 C   0  0  0  0  0  0  0  0  0  0  0  0
   -1.2498    2.6906  -10.0650 C   0  0  0  0  0  0  0  0  0  0  0  0
   -1.1679    2.1359   -8.7778 C   0  0  0  0  0  0  0  0  0  0  0  0
   -1.1932    2.9678   -7.6531 C   0  0  0  0  0  0  0  0  0  0  0  0
   -1.2485    4.3637   -7.8201 C   0  0  0  0  0  0  0  0  0  0  0  0
   -1.2702    5.2639   -6.6151 C   0  0  0  0  0  0  0  0  0  0  0  0
   -1.3084    4.9237   -9.1181 C   0  0  0  0  0  0  0  0  0  0  0  0
   -1.3699    6.3213   -9.2475 O   0  0  0  0  0  0  0  0  0  0  0  0
   -1.4818    7.0141  -10.4849 C   0  0  0  0  0  0  0  0  0  0  0  0
   -1.3138    4.0719  -10.2469 C   0  0  0  0  0  0  0  0  0  0  0  0
    5.0266    6.4405    4.6542 H   0  0  0  0  0  0  0  0  0  0  0  0
    6.5225    5.8629    6.7993 H   0  0  0  0  0  0  0  0  0  0  0  0
    7.8404    3.5342    8.9891 H   0  0  0  0  0  0  0  0  0  0  0  0
    7.7805    5.3167    8.7346 H   0  0  0  0  0  0  0  0  0  0  0  0
    6.8416    4.5767   10.0801 H   0  0  0  0  0  0  0  0  0  0  0  0
    4.8558    0.7997   10.7995 H   0  0  0  0  0  0  0  0  0  0  0  0
    4.4155    0.5160    9.0746 H   0  0  0  0  0  0  0  0  0  0  0  0
    3.4228    1.6448   10.1014 H   0  0  0  0  0  0  0  0  0  0  0  0
    3.2601    2.2118    7.7272 H   0  0  0  0  0  0  0  0  0  0  0  0
    0.3015    4.9554    4.8131 H   0  0  0  0  0  0  0  0  0  0  0  0
   -1.6648    6.1672    4.3041 H   0  0  0  0  0  0  0  0  0  0  0  0
   -2.4494    5.3563    2.8943 H   0  0  0  0  0  0  0  0  0  0  0  0
   -3.2402    5.3302    4.5218 H   0  0  0  0  0  0  0  0  0  0  0  0
   -4.4963    1.0982    4.6148 H   0  0  0  0  0  0  0  0  0  0  0  0
   -5.4376    1.9447    3.3307 H   0  0  0  0  0  0  0  0  0  0  0  0
   -4.0020    0.9580    2.8636 H   0  0  0  0  0  0  0  0  0  0  0  0
   -2.1064    0.6161    4.3946 H   0  0  0  0  0  0  0  0  0  0  0  0
    1.8159   -1.2650    7.0456 H   0  0  0  0  0  0  0  0  0  0  0  0
    4.1679   -3.4819    7.7581 H   0  0  0  0  0  0  0  0  0  0  0  0
    2.8515   -4.3031    8.6943 H   0  0  0  0  0  0  0  0  0  0  0  0
    2.9709   -2.5118    8.6978 H   0  0  0  0  0  0  0  0  0  0  0  0
    3.2148   -7.7181    6.2834 H   0  0  0  0  0  0  0  0  0  0  0  0
    1.5186   -7.3394    5.7875 H   0  0  0  0  0  0  0  0  0  0  0  0
    2.9188   -6.8481    4.7291 H   0  0  0  0  0  0  0  0  0  0  0  0
    1.0139   -5.3730    4.3315 H   0  0  0  0  0  0  0  0  0  0  0  0
   -2.7581   -4.2726    3.6652 H   0  0  0  0  0  0  0  0  0  0  0  0
   -6.0350   -4.0853    2.5038 H   0  0  0  0  0  0  0  0  0  0  0  0
   -5.7189   -5.8581    2.6780 H   0  0  0  0  0  0  0  0  0  0  0  0
   -5.0694   -4.7018    3.8973 H   0  0  0  0  0  0  0  0  0  0  0  0
   -5.3390   -4.3658   -1.9281 H   0  0  0  0  0  0  0  0  0  0  0  0
   -4.9860   -6.1464   -1.7851 H   0  0  0  0  0  0  0  0  0  0  0  0
   -6.6657   -5.5302   -1.5649 H   0  0  0  0  0  0  0  0  0  0  0  0
   -3.0243   -4.7962   -1.2729 H   0  0  0  0  0  0  0  0  0  0  0  0
   -1.5596   -4.9343   -2.8872 H   0  0  0  0  0  0  0  0  0  0  0  0
   -1.2756   -4.7480   -7.2699 H   0  0  0  0  0  0  0  0  0  0  0  0
   -2.9421   -6.4122   -7.9840 H   0  0  0  0  0  0  0  0  0  0  0  0
   -3.5598   -8.6507   -6.2747 H   0  0  0  0  0  0  0  0  0  0  0  0
   -5.0098   -9.6158   -6.7144 H   0  0  0  0  0  0  0  0  0  0  0  0
   -4.5685   -9.8294   -4.3008 H   0  0  0  0  0  0  0  0  0  0  0  0
   -4.6407   -8.0343   -4.0878 H   0  0  0  0  0  0  0  0  0  0  0  0
   -6.1257   -8.9550   -4.5714 H   0  0  0  0  0  0  0  0  0  0  0  0
   -3.7254   -3.7765   -3.8555 H   0  0  0  0  0  0  0  0  0  0  0  0
   -0.5478    1.2996   -3.0769 H   0  0  0  0  0  0  0  0  0  0  0  0
    0.8329    3.0496   -2.0139 H   0  0  0  0  0  0  0  0  0  0  0  0
    2.5620    2.1945    0.1162 H   0  0  0  0  0  0  0  0  0  0  0  0
    3.8824    3.2629    0.6978 H   0  0  0  0  0  0  0  0  0  0  0  0
    4.2378    0.5384   -0.7069 H   0  0  0  0  0  0  0  0  0  0  0  0
    4.5438    0.9253    1.0233 H   0  0  0  0  0  0  0  0  0  0  0  0
    5.5894    1.6580   -0.2551 H   0  0  0  0  0  0  0  0  0  0  0  0
    3.0207   -0.7232   -4.3833 H   0  0  0  0  0  0  0  0  0  0  0  0
    0.4293    0.9450   -6.3813 H   0  0  0  0  0  0  0  0  0  0  0  0
   -1.3532    1.9666  -12.1496 H   0  0  0  0  0  0  0  0  0  0  0  0
   -1.2019    2.5492   -6.6559 H   0  0  0  0  0  0  0  0  0  0  0  0
   -0.4183    5.9741   -6.6618 H   0  0  0  0  0  0  0  0  0  0  0  0
   -1.1911    4.6846   -5.6691 H   0  0  0  0  0  0  0  0  0  0  0  0
   -2.2214    5.8370   -6.5948 H   0  0  0  0  0  0  0  0  0  0  0  0
   -2.4179    6.7190  -11.0030 H   0  0  0  0  0  0  0  0  0  0  0  0
   -1.5136    8.1060  -10.2907 H   0  0  0  0  0  0  0  0  0  0  0  0
   -0.6037    6.7933  -11.1268 H   0  0  0  0  0  0  0  0  0  0  0  0
   -1.3749    4.4716  -11.2485 H   0  0  0  0  0  0  0  0  0  0  0  0
  1  2  1  0
  2  3  1  0
  3  4  2  0
  4  5  1  0
  5  6  1  0
  6  7  2  0
  7  8  1  0
  7  9  1  0
  9 10  1  0
 10 11  1  0
  9 12  2  0
  3 13  1  0
 13 14  1  0
 14 15  1  0
 15 16  2  0
 16 17  1  0
 17 18  1  0
 18 19  2  0
 19 20  1  0
 19 21  1  0
 21 22  1  0
 22 23  1  0
 21 24  2  0
 15 25  1  0
 25 26  1  0
 26 27  1  0
 27 28  2  0
 28 29  1  0
 29 30  1  0
 30 31  2  0
 31 32  1  0
 31 33  1  0
 33 34  1  0
 34 35  1  0
 33 36  2  0
 27 37  1  0
 37 38  1  0
 38 39  1  0
 39 40  2  0
 40 41  1  0
 41 42  1  0
 42 43  2  0
 43 44  1  0
 43 45  1  0
 45 46  1  0
 46 47  1  0
 45 48  2  0
 39 49  1  0
 49 50  2  0
 50 51  1  0
 51 52  2  0
 52 53  1  0
 53 54  2  0
 54 55  1  0
 55 56  2  0
 56 57  1  0
 57 58  1  0
 58 59  1  0
 56 60  1  0
 60 61  1  0
 60 62  2  0
 52 63  1  0
 63 64  2  0
 64 65  1  0
 65 66  1  0
 66 67  2  0
 67 68  1  0
 68 69  2  0
 69 70  1  0
 70 71  1  0
 71 72  1  0
 69 73  1  0
 73 74  2  0
 73 75  1  0
 65 76  2  0
 76 77  1  0
 64 78  1  0
 78 79  2  0
 79 80  1  0
 79 81  1  0
 81 82  1  0
 82 83  1  0
 83 84  2  0
 84 85  1  0
 85 86  1  0
 86 87  2  0
 87 88  1  0
 87 89  1  0
 89 90  1  0
 90 91  1  0
 89 92  2  0
  5  1  2  0
 17 13  2  0
 29 25  2  0
 41 37  2  0
 77 49  1  0
 85 81  2  0
 12  4  1  0
 24 16  1  0
 36 28  1  0
 48 40  1  0
 76 51  1  0
 92 84  1  0
 62 53  1  0
 80 63  1  0
 74 66  1  0
  1 93  1  0
  6 94  1  0
  8 95  1  0
  8 96  1  0
  8 97  1  0
 11 98  1  0
 11 99  1  0
 11100  1  0
 12101  1  0
 18102  1  0
 20103  1  0
 20104  1  0
 20105  1  0
 23106  1  0
 23107  1  0
 23108  1  0
 24109  1  0
 30110  1  0
 32111  1  0
 32112  1  0
 32113  1  0
 35114  1  0
 35115  1  0
 35116  1  0
 36117  1  0
 42118  1  0
 44119  1  0
 44120  1  0
 44121  1  0
 47122  1  0
 47123  1  0
 47124  1  0
 48125  1  0
 50126  1  0
 54127  1  0
 55128  1  0
 58129  1  0
 58130  1  0
 59131  1  0
 59132  1  0
 59133  1  0
 62134  1  0
 67135  1  0
 68136  1  0
 71137  1  0
 71138  1  0
 72139  1  0
 72140  1  0
 72141  1  0
 74142  1  0
 78143  1  0
 83144  1  0
 86145  1  0
 88146  1  0
 88147  1  0
 88148  1  0
 91149  1  0
 91150  1  0
 91151  1  0
 92152  1  0
M  END

