
     RDKit          3D

114129  0  0  0  0  0  0  0  0999 V2000
    7.7070    3.3813   -0.1739 C   0  0  0  0  0  0  0  0  0  0  0  0
    6.1440    2.8757    0.2983 S   0  0  0  0  0  0  0  0  0  0  0  0
    5.4002    3.7935   -0.8835 C   0  0  0  0  0  0  0  0  0  0  0  0
    6.3060    4.5042   -1.6152 C   0  0  0  0  0  0  0  0  0  0  0  0
    7.6267    4.2963   -1.2344 C   0  0  0  0  0  0  0  0  0  0  0  0
    5.6188    5.4114   -2.5607 C   0  0  0  0  0  0  0  0  0  0  0  0
    6.2156    6.8328   -3.1079 S   0  0  0  0  0  0  0  0  0  0  0  0
    4.2064    5.1689   -2.2258 C   0  0  0  0  0  0  0  0  0  0  0  0
    4.0890    4.2390   -1.2665 C   0  0  0  0  0  0  0  0  0  0  0  0
    2.8503    4.0008   -0.9418 O   0  0  0  0  0  0  0  0  0  0  0  0
    2.1234    4.7871   -1.7297 C   0  0  0  0  0  0  0  0  0  0  0  0
    2.9392    5.5789   -2.5545 C   0  0  0  0  0  0  0  0  0  0  0  0
    0.6522    4.8100   -1.7579 C   0  0  0  0  0  0  0  0  0  0  0  0
   -0.1402    3.8279   -1.3058 C   0  0  0  0  0  0  0  0  0  0  0  0
    0.3140    2.5195   -0.7971 C   0  0  0  0  0  0  0  0  0  0  0  0
   -0.2795    1.8302    0.6144 S   0  0  0  0  0  0  0  0  0  0  0  0
    0.6265    0.4154    0.5676 C   0  0  0  0  0  0  0  0  0  0  0  0
    1.4547    0.4792   -0.5576 C   0  0  0  0  0  0  0  0  0  0  0  0
    1.2255    1.6154   -1.3561 C   0  0  0  0  0  0  0  0  0  0  0  0
    1.8885    1.7555   -2.5779 C   0  0  0  0  0  0  0  0  0  0  0  0
    2.8654    0.8171   -2.9536 C   0  0  0  0  0  0  0  0  0  0  0  0
    3.5932    0.9871   -4.2591 C   0  0  0  0  0  0  0  0  0  0  0  0
    3.1924   -0.2540   -2.0879 C   0  0  0  0  0  0  0  0  0  0  0  0
    4.2243   -1.1337   -2.4598 O   0  0  0  0  0  0  0  0  0  0  0  0
    4.6201   -2.2788   -1.7108 C   0  0  0  0  0  0  0  0  0  0  0  0
    2.4737   -0.4228   -0.8876 C   0  0  0  0  0  0  0  0  0  0  0  0
    0.4804   -0.6794    1.5430 C   0  0  0  0  0  0  0  0  0  0  0  0
    0.2096   -0.4329    3.1840 S   0  0  0  0  0  0  0  0  0  0  0  0
    0.0622   -2.0518    3.6336 C   0  0  0  0  0  0  0  0  0  0  0  0
    0.2260   -2.8241    2.4758 C   0  0  0  0  0  0  0  0  0  0  0  0
    0.4111   -2.0589    1.3071 C   0  0  0  0  0  0  0  0  0  0  0  0
    0.4410   -2.6884    0.0560 C   0  0  0  0  0  0  0  0  0  0  0  0
    0.4323   -4.0933   -0.0224 C   0  0  0  0  0  0  0  0  0  0  0  0
    0.5465   -4.7663   -1.3617 C   0  0  0  0  0  0  0  0  0  0  0  0
    0.3560   -4.8689    1.1565 C   0  0  0  0  0  0  0  0  0  0  0  0
    0.3983   -6.2660    1.0456 O   0  0  0  0  0  0  0  0  0  0  0  0
    0.3430   -7.1707    2.1525 C   0  0  0  0  0  0  0  0  0  0  0  0
    0.2348   -4.2243    2.4078 C   0  0  0  0  0  0  0  0  0  0  0  0
   -0.4064   -2.4934    4.9610 C   0  0  0  0  0  0  0  0  0  0  0  0
   -1.4593   -3.8009    5.2126 S   0  0  0  0  0  0  0  0  0  0  0  0
   -1.7617   -3.4565    6.8184 C   0  0  0  0  0  0  0  0  0  0  0  0
   -1.1564   -2.2616    7.1527 C   0  0  0  0  0  0  0  0  0  0  0  0
   -0.3901   -1.7021    6.1202 C   0  0  0  0  0  0  0  0  0  0  0  0
   -1.9203   -1.5784    8.2279 C   0  0  0  0  0  0  0  0  0  0  0  0
   -1.9870    0.0473    8.4110 S   0  0  0  0  0  0  0  0  0  0  0  0
   -3.0826   -2.4611    8.4047 C   0  0  0  0  0  0  0  0  0  0  0  0
   -3.0105   -3.4838    7.5348 C   0  0  0  0  0  0  0  0  0  0  0  0
   -4.1822   -3.9787    7.2431 O   0  0  0  0  0  0  0  0  0  0  0  0
   -5.0574   -3.2621    7.9221 C   0  0  0  0  0  0  0  0  0  0  0  0
   -4.4216   -2.2713    8.6794 C   0  0  0  0  0  0  0  0  0  0  0  0
   -6.5053   -3.3951    7.7372 C   0  0  0  0  0  0  0  0  0  0  0  0
   -7.0954   -3.1229    6.5644 C   0  0  0  0  0  0  0  0  0  0  0  0
   -6.4150   -2.4236    5.4565 C   0  0  0  0  0  0  0  0  0  0  0  0
   -6.6004   -2.8195    3.8018 S   0  0  0  0  0  0  0  0  0  0  0  0
   -5.6037   -1.5685    3.3080 C   0  0  0  0  0  0  0  0  0  0  0  0
   -5.1327   -0.8523    4.3693 C   0  0  0  0  0  0  0  0  0  0  0  0
   -5.5788   -1.3026    5.6022 C   0  0  0  0  0  0  0  0  0  0  0  0
   -4.2445    0.2453    3.9227 C   0  0  0  0  0  0  0  0  0  0  0  0
   -2.9976    0.8479    4.7911 S   0  0  0  0  0  0  0  0  0  0  0  0
   -4.2314    0.0290    2.4725 C   0  0  0  0  0  0  0  0  0  0  0  0
   -5.0138   -1.0036    2.1193 C   0  0  0  0  0  0  0  0  0  0  0  0
   -5.0042   -1.2265    0.8328 O   0  0  0  0  0  0  0  0  0  0  0  0
   -4.2007   -0.3001    0.3175 C   0  0  0  0  0  0  0  0  0  0  0  0
   -3.6759    0.5320    1.3278 C   0  0  0  0  0  0  0  0  0  0  0  0
   -3.9266   -0.2058   -1.1282 C   0  0  0  0  0  0  0  0  0  0  0  0
   -3.2431    0.8091   -1.6729 C   0  0  0  0  0  0  0  0  0  0  0  0
   -2.9700    0.8921   -3.1179 C   0  0  0  0  0  0  0  0  0  0  0  0
   -3.2607   -0.3381   -4.2684 S   0  0  0  0  0  0  0  0  0  0  0  0
   -2.6515    0.5628   -5.5409 C   0  0  0  0  0  0  0  0  0  0  0  0
   -2.1278    1.7480   -5.0910 C   0  0  0  0  0  0  0  0  0  0  0  0
   -2.3008    1.9633   -3.7259 C   0  0  0  0  0  0  0  0  0  0  0  0
   -1.1731    2.3122   -6.0744 C   0  0  0  0  0  0  0  0  0  0  0  0
    0.1016    3.2643   -5.7005 S   0  0  0  0  0  0  0  0  0  0  0  0
   -1.1491    1.2577   -7.0947 C   0  0  0  0  0  0  0  0  0  0  0  0
   -1.9790    0.2552   -6.7755 C   0  0  0  0  0  0  0  0  0  0  0  0
   -1.8709   -0.7674   -7.5783 O   0  0  0  0  0  0  0  0  0  0  0  0
   -0.9335   -0.4263   -8.4563 C   0  0  0  0  0  0  0  0  0  0  0  0
   -0.4129    0.8477   -8.1779 C   0  0  0  0  0  0  0  0  0  0  0  0
   -0.4828   -1.2865   -9.5596 C   0  0  0  0  0  0  0  0  0  0  0  0
   -1.0565   -2.4603   -9.8105 C   0  0  0  0  0  0  0  0  0  0  0  0
    8.6265    3.0642    0.2962 H   0  0  0  0  0  0  0  0  0  0  0  0
    8.4768    4.7949   -1.6817 H   0  0  0  0  0  0  0  0  0  0  0  0
    2.6443    6.3023   -3.3039 H   0  0  0  0  0  0  0  0  0  0  0  0
    0.1781    5.6985   -2.1585 H   0  0  0  0  0  0  0  0  0  0  0  0
   -1.2033    4.0285   -1.2527 H   0  0  0  0  0  0  0  0  0  0  0  0
    1.6549    2.5817   -3.2339 H   0  0  0  0  0  0  0  0  0  0  0  0
    3.0497    1.6777   -4.9396 H   0  0  0  0  0  0  0  0  0  0  0  0
    3.6972    0.0110   -4.7771 H   0  0  0  0  0  0  0  0  0  0  0  0
    4.6042    1.4048   -4.0642 H   0  0  0  0  0  0  0  0  0  0  0  0
    3.7782   -3.0010   -1.6453 H   0  0  0  0  0  0  0  0  0  0  0  0
    4.9413   -1.9810   -0.6935 H   0  0  0  0  0  0  0  0  0  0  0  0
    5.4703   -2.7736   -2.2250 H   0  0  0  0  0  0  0  0  0  0  0  0
    2.7124   -1.2295   -0.2109 H   0  0  0  0  0  0  0  0  0  0  0  0
    0.4640   -2.1046   -0.8506 H   0  0  0  0  0  0  0  0  0  0  0  0
    0.5352   -4.0307   -2.1952 H   0  0  0  0  0  0  0  0  0  0  0  0
    1.4959   -5.3378   -1.4108 H   0  0  0  0  0  0  0  0  0  0  0  0
   -0.3053   -5.4631   -1.5050 H   0  0  0  0  0  0  0  0  0  0  0  0
   -0.6146   -7.0381    2.7020 H   0  0  0  0  0  0  0  0  0  0  0  0
    0.3940   -8.2098    1.7749 H   0  0  0  0  0  0  0  0  0  0  0  0
    1.2061   -6.9952    2.8293 H   0  0  0  0  0  0  0  0  0  0  0  0
    0.1875   -4.8052    3.3127 H   0  0  0  0  0  0  0  0  0  0  0  0
    0.0091   -0.6998    6.1532 H   0  0  0  0  0  0  0  0  0  0  0  0
   -4.8821   -1.4298    9.1782 H   0  0  0  0  0  0  0  0  0  0  0  0
   -7.0896   -3.8255    8.5383 H   0  0  0  0  0  0  0  0  0  0  0  0
   -8.1312   -3.4089    6.4243 H   0  0  0  0  0  0  0  0  0  0  0  0
   -5.3417   -0.8203    6.5376 H   0  0  0  0  0  0  0  0  0  0  0  0
   -3.0133    1.3771    1.2397 H   0  0  0  0  0  0  0  0  0  0  0  0
   -4.3141   -0.9974   -1.7547 H   0  0  0  0  0  0  0  0  0  0  0  0
   -2.8811    1.6191   -1.0543 H   0  0  0  0  0  0  0  0  0  0  0  0
   -1.8999    2.8124   -3.1965 H   0  0  0  0  0  0  0  0  0  0  0  0
    0.3967    1.3675   -8.6714 H   0  0  0  0  0  0  0  0  0  0  0  0
    0.3314   -0.9530  -10.1875 H   0  0  0  0  0  0  0  0  0  0  0  0
   -0.7038   -3.0695  -10.6335 H   0  0  0  0  0  0  0  0  0  0  0  0
   -1.8790   -2.8269   -9.2073 H   0  0  0  0  0  0  0  0  0  0  0  0
  1  2  1  0
  2  3  1  0
  3  4  2  0
  4  5  1  0
  4  6  1  0
  6  7  2  0
  6  8  1  0
  8  9  2  0
  9 10  1  0
 10 11  1  0
 11 12  2  0
 11 13  1  0
 13 14  2  3
 14 15  1  0
 15 16  1  0
 16 17  1  0
 17 18  2  0
 18 19  1  0
 19 20  1  0
 20 21  2  0
 21 22  1  0
 21 23  1  0
 23 24  1  0
 24 25  1  0
 23 26  2  0
 17 27  1  0
 27 28  1  0
 28 29  1  0
 29 30  2  0
 30 31  1  0
 31 32  1  0
 32 33  2  0
 33 34  1  0
 33 35  1  0
 35 36  1  0
 36 37  1  0
 35 38  2  0
 29 39  1  0
 39 40  1  0
 40 41  1  0
 41 42  2  0
 42 43  1  0
 42 44  1  0
 44 45  2  0
 44 46  1  0
 46 47  2  0
 47 48  1  0
 48 49  1  0
 49 50  2  0
 49 51  1  0
 51 52  2  3
 52 53  1  0
 53 54  1  0
 54 55  1  0
 55 56  2  0
 56 57  1  0
 56 58  1  0
 58 59  2  0
 58 60  1  0
 60 61  2  0
 61 62  1  0
 62 63  1  0
 63 64  2  0
 63 65  1  0
 65 66  2  3
 66 67  1  0
 67 68  1  0
 68 69  1  0
 69 70  2  0
 70 71  1  0
 70 72  1  0
 72 73  2  0
 72 74  1  0
 74 75  2  0
 75 76  1  0
 76 77  1  0
 77 78  2  0
 77 79  1  0
 79 80  2  3
  5  1  2  0
 12  8  1  0
 19 15  2  0
 31 27  2  0
 43 39  2  0
 50 46  1  0
 57 53  2  0
 64 60  1  0
 71 67  2  0
 78 74  1  0
  9  3  1  0
 26 18  1  0
 38 30  1  0
 47 41  1  0
 61 55  1  0
 75 69  1  0
  1 81  1  0
  5 82  1  0
 12 83  1  0
 13 84  1  0
 14 85  1  0
 20 86  1  0
 22 87  1  0
 22 88  1  0
 22 89  1  0
 25 90  1  0
 25 91  1  0
 25 92  1  0
 26 93  1  0
 32 94  1  0
 34 95  1  0
 34 96  1  0
 34 97  1  0
 37 98  1  0
 37 99  1  0
 37100  1  0
 38101  1  0
 43102  1  0
 50103  1  0
 51104  1  0
 52105  1  0
 57106  1  0
 64107  1  0
 65108  1  0
 66109  1  0
 71110  1  0
 78111  1  0
 79112  1  0
 80113  1  0
 80114  1  0
M  END

