
     RDKit          3D

210233  0  0  0  0  0  0  0  0999 V2000
    2.2712    0.0371   15.6736 C   0  0  0  0  0  0  0  0  0  0  0  0
    3.3901    0.3923   14.9242 C   0  0  0  0  0  0  0  0  0  0  0  0
    3.2513    0.1123   13.5554 C   0  0  0  0  0  0  0  0  0  0  0  0
    4.2132    0.3410   12.5514 C   0  0  0  0  0  0  0  0  0  0  0  0
    5.4670    1.0632   12.8301 C   0  0  0  0  0  0  0  0  0  0  0  0
    5.5412    2.6727   13.3087 S   0  0  0  0  0  0  0  0  0  0  0  0
    7.2172    2.7709   13.3573 C   0  0  0  0  0  0  0  0  0  0  0  0
    7.9842    4.0242   13.6553 C   0  0  0  0  0  0  0  0  0  0  0  0
    8.2595    4.8065   12.3743 C   0  0  0  0  0  0  0  0  0  0  0  0
    7.7476    1.5380   12.9753 C   0  0  0  0  0  0  0  0  0  0  0  0
    9.4746    1.2164   12.8713 Cl  0  0  0  0  0  0  0  0  0  0  0  0
    6.7654    0.5784   12.6827 C   0  0  0  0  0  0  0  0  0  0  0  0
    7.1335   -1.0759   12.2120 Cl  0  0  0  0  0  0  0  0  0  0  0  0
    3.8712   -0.0516   11.2449 C   0  0  0  0  0  0  0  0  0  0  0  0
    2.6284   -0.6096   10.9276 C   0  0  0  0  0  0  0  0  0  0  0  0
    1.6645   -0.8312   11.9319 C   0  0  0  0  0  0  0  0  0  0  0  0
    0.3368   -1.3897   11.6221 C   0  0  0  0  0  0  0  0  0  0  0  0
    0.0635   -2.9392   11.0274 S   0  0  0  0  0  0  0  0  0  0  0  0
   -1.6039   -2.7791   10.8740 C   0  0  0  0  0  0  0  0  0  0  0  0
   -2.5064   -3.8206   10.2859 C   0  0  0  0  0  0  0  0  0  0  0  0
   -2.6664   -3.6060    8.7850 C   0  0  0  0  0  0  0  0  0  0  0  0
   -1.9669   -1.4899   11.2609 C   0  0  0  0  0  0  0  0  0  0  0  0
   -0.8774   -0.7115   11.6876 C   0  0  0  0  0  0  0  0  0  0  0  0
   -1.0215    0.9754   12.1637 Cl  0  0  0  0  0  0  0  0  0  0  0  0
   -3.6149   -0.8786   11.1851 Cl  0  0  0  0  0  0  0  0  0  0  0  0
    2.0179   -0.4647   13.2393 C   0  0  0  0  0  0  0  0  0  0  0  0
    1.1120   -0.6277   14.6478 S   0  0  0  0  0  0  0  0  0  0  0  0
    2.4524   -0.8204    9.5515 C   0  0  0  0  0  0  0  0  0  0  0  0
    3.5589   -0.4413    8.7961 C   0  0  0  0  0  0  0  0  0  0  0  0
    4.7482    0.1775    9.8248 S   0  0  0  0  0  0  0  0  0  0  0  0
    3.6067   -0.4057    7.3268 C   0  0  0  0  0  0  0  0  0  0  0  0
    4.7419   -0.1630    6.5525 C   0  0  0  0  0  0  0  0  0  0  0  0
    4.4462   -0.0021    5.1883 C   0  0  0  0  0  0  0  0  0  0  0  0
    5.3610    0.3390    4.1651 C   0  0  0  0  0  0  0  0  0  0  0  0
    6.8175    0.3733    4.4048 C   0  0  0  0  0  0  0  0  0  0  0  0
    7.8082    1.7116    4.1654 S   0  0  0  0  0  0  0  0  0  0  0  0
    9.2411    0.9596    4.6259 C   0  0  0  0  0  0  0  0  0  0  0  0
   10.5973    1.5915    4.5395 C   0  0  0  0  0  0  0  0  0  0  0  0
   11.2470    1.2938    3.1929 C   0  0  0  0  0  0  0  0  0  0  0  0
    8.9658   -0.3655    4.9540 C   0  0  0  0  0  0  0  0  0  0  0  0
   10.2000   -1.5264    5.4255 Cl  0  0  0  0  0  0  0  0  0  0  0  0
    7.6063   -0.6938    4.8367 C   0  0  0  0  0  0  0  0  0  0  0  0
    6.9810   -2.3151    5.1199 Cl  0  0  0  0  0  0  0  0  0  0  0  0
    4.8119    0.6690    2.9095 C   0  0  0  0  0  0  0  0  0  0  0  0
    3.4357    0.6061    2.6617 C   0  0  0  0  0  0  0  0  0  0  0  0
    2.5397    0.1798    3.6543 C   0  0  0  0  0  0  0  0  0  0  0  0
    1.0888    0.1353    3.4120 C   0  0  0  0  0  0  0  0  0  0  0  0
    0.2685   -1.1810    2.7668 S   0  0  0  0  0  0  0  0  0  0  0  0
   -1.2299   -0.4158    2.6267 C   0  0  0  0  0  0  0  0  0  0  0  0
   -2.4562   -1.0043    1.9793 C   0  0  0  0  0  0  0  0  0  0  0  0
   -2.6130   -2.4952    2.2812 C   0  0  0  0  0  0  0  0  0  0  0  0
   -1.0811    0.9093    3.0399 C   0  0  0  0  0  0  0  0  0  0  0  0
    0.2146    1.2145    3.4862 C   0  0  0  0  0  0  0  0  0  0  0  0
    0.7099    2.8177    4.0134 Cl  0  0  0  0  0  0  0  0  0  0  0  0
   -2.3723    2.1042    2.9586 Cl  0  0  0  0  0  0  0  0  0  0  0  0
    3.0778   -0.1032    4.9138 C   0  0  0  0  0  0  0  0  0  0  0  0
    2.2408   -0.4243    6.3341 S   0  0  0  0  0  0  0  0  0  0  0  0
    3.0774    1.0771    1.3997 C   0  0  0  0  0  0  0  0  0  0  0  0
    4.1671    1.5026    0.6496 C   0  0  0  0  0  0  0  0  0  0  0  0
    5.5875    1.2916    1.5386 S   0  0  0  0  0  0  0  0  0  0  0  0
    4.0156    2.2507   -0.5974 C   0  0  0  0  0  0  0  0  0  0  0  0
    4.3341    1.7607   -1.8641 C   0  0  0  0  0  0  0  0  0  0  0  0
    3.6071    2.3935   -2.8935 C   0  0  0  0  0  0  0  0  0  0  0  0
    3.5388    1.9744   -4.2420 C   0  0  0  0  0  0  0  0  0  0  0  0
    4.4302    0.9182   -4.7679 C   0  0  0  0  0  0  0  0  0  0  0  0
    3.9224   -0.5314   -5.4605 S   0  0  0  0  0  0  0  0  0  0  0  0
    5.4592   -1.1306   -5.7791 C   0  0  0  0  0  0  0  0  0  0  0  0
    5.7340   -2.3992   -6.5331 C   0  0  0  0  0  0  0  0  0  0  0  0
    5.7128   -2.1436   -8.0359 C   0  0  0  0  0  0  0  0  0  0  0  0
    6.4012   -0.1925   -5.3581 C   0  0  0  0  0  0  0  0  0  0  0  0
    8.1368   -0.3948   -5.5609 Cl  0  0  0  0  0  0  0  0  0  0  0  0
    5.8258    0.9499   -4.7804 C   0  0  0  0  0  0  0  0  0  0  0  0
    6.7733    2.3184   -4.2043 Cl  0  0  0  0  0  0  0  0  0  0  0  0
    2.5068    2.5299   -5.0269 C   0  0  0  0  0  0  0  0  0  0  0  0
    1.6135    3.4815   -4.5262 C   0  0  0  0  0  0  0  0  0  0  0  0
    1.7230    3.9435   -3.2028 C   0  0  0  0  0  0  0  0  0  0  0  0
    0.6753    4.7746   -2.5828 C   0  0  0  0  0  0  0  0  0  0  0  0
    0.8831    6.3557   -2.0475 S   0  0  0  0  0  0  0  0  0  0  0  0
   -0.6627    6.5260   -1.4007 C   0  0  0  0  0  0  0  0  0  0  0  0
   -1.1541    7.7470   -0.6801 C   0  0  0  0  0  0  0  0  0  0  0  0
   -0.6146    7.7903    0.7451 C   0  0  0  0  0  0  0  0  0  0  0  0
   -1.3544    5.3261   -1.5721 C   0  0  0  0  0  0  0  0  0  0  0  0
   -0.6034    4.3455   -2.2344 C   0  0  0  0  0  0  0  0  0  0  0  0
   -1.1941    2.7142   -2.5343 Cl  0  0  0  0  0  0  0  0  0  0  0  0
   -2.9923    5.0508   -0.9901 Cl  0  0  0  0  0  0  0  0  0  0  0  0
    2.7339    3.3780   -2.4172 C   0  0  0  0  0  0  0  0  0  0  0  0
    2.8572    3.4627   -0.7496 S   0  0  0  0  0  0  0  0  0  0  0  0
    0.5435    3.7510   -5.3869 C   0  0  0  0  0  0  0  0  0  0  0  0
    0.5497    2.9771   -6.5428 C   0  0  0  0  0  0  0  0  0  0  0  0
    1.9370    2.0112   -6.5259 S   0  0  0  0  0  0  0  0  0  0  0  0
   -0.6966    2.5933   -7.2214 C   0  0  0  0  0  0  0  0  0  0  0  0
   -2.1194    2.3277   -6.3707 S   0  0  0  0  0  0  0  0  0  0  0  0
   -2.9817    1.5450   -7.5819 C   0  0  0  0  0  0  0  0  0  0  0  0
   -2.1379    1.4686   -8.6970 C   0  0  0  0  0  0  0  0  0  0  0  0
   -0.8666    2.0456   -8.4929 C   0  0  0  0  0  0  0  0  0  0  0  0
    0.0912    2.0245   -9.5086 C   0  0  0  0  0  0  0  0  0  0  0  0
   -0.2194    1.4309  -10.7456 C   0  0  0  0  0  0  0  0  0  0  0  0
    0.7986    1.4493  -11.8521 C   0  0  0  0  0  0  0  0  0  0  0  0
   -1.5039    0.8769  -10.9679 C   0  0  0  0  0  0  0  0  0  0  0  0
   -1.7955    0.3356  -12.2336 O   0  0  0  0  0  0  0  0  0  0  0  0
   -3.0483   -0.2364  -12.5981 C   0  0  0  0  0  0  0  0  0  0  0  0
   -2.4589    0.8846   -9.9272 C   0  0  0  0  0  0  0  0  0  0  0  0
   -4.1765    0.7271   -7.2965 C   0  0  0  0  0  0  0  0  0  0  0  0
   -4.2452   -0.9273   -7.6233 S   0  0  0  0  0  0  0  0  0  0  0  0
   -5.4797   -1.3158   -6.5495 C   0  0  0  0  0  0  0  0  0  0  0  0
   -5.8236   -0.1539   -5.8644 C   0  0  0  0  0  0  0  0  0  0  0  0
   -5.1201    0.9848   -6.2918 C   0  0  0  0  0  0  0  0  0  0  0  0
   -5.3297    2.2168   -5.6622 C   0  0  0  0  0  0  0  0  0  0  0  0
   -6.2152    2.3048   -4.5724 C   0  0  0  0  0  0  0  0  0  0  0  0
   -6.3794    3.6136   -3.8514 C   0  0  0  0  0  0  0  0  0  0  0  0
   -6.8893    1.1491   -4.1126 C   0  0  0  0  0  0  0  0  0  0  0  0
   -7.7214    1.2594   -2.9836 O   0  0  0  0  0  0  0  0  0  0  0  0
   -8.4117    0.1718   -2.3784 C   0  0  0  0  0  0  0  0  0  0  0  0
   -6.7009   -0.0814   -4.7776 C   0  0  0  0  0  0  0  0  0  0  0  0
   -5.7600   -2.6834   -6.1096 C   0  0  0  0  0  0  0  0  0  0  0  0
   -6.7592   -3.5136   -6.6022 C   0  0  0  0  0  0  0  0  0  0  0  0
   -6.7516   -4.7821   -5.9966 C   0  0  0  0  0  0  0  0  0  0  0  0
   -7.6427   -5.8404   -6.2626 C   0  0  0  0  0  0  0  0  0  0  0  0
   -8.7139   -5.7203   -7.2637 C   0  0  0  0  0  0  0  0  0  0  0  0
   -8.4708   -5.6608   -8.9253 S   0  0  0  0  0  0  0  0  0  0  0  0
  -10.0945   -5.4869   -9.3346 C   0  0  0  0  0  0  0  0  0  0  0  0
  -10.6011   -5.2655  -10.7291 C   0  0  0  0  0  0  0  0  0  0  0  0
  -10.5382   -3.7858  -11.0920 C   0  0  0  0  0  0  0  0  0  0  0  0
  -10.8491   -5.4462   -8.1629 C   0  0  0  0  0  0  0  0  0  0  0  0
  -12.5899   -5.2060   -8.1383 Cl  0  0  0  0  0  0  0  0  0  0  0  0
  -10.0755   -5.5888   -7.0021 C   0  0  0  0  0  0  0  0  0  0  0  0
  -10.7426   -5.5362   -5.3769 Cl  0  0  0  0  0  0  0  0  0  0  0  0
   -7.4556   -7.0263   -5.5342 C   0  0  0  0  0  0  0  0  0  0  0  0
   -6.4442   -7.1764   -4.5795 C   0  0  0  0  0  0  0  0  0  0  0  0
   -5.5644   -6.1114   -4.2975 C   0  0  0  0  0  0  0  0  0  0  0  0
   -4.4989   -6.2175   -3.2834 C   0  0  0  0  0  0  0  0  0  0  0  0
   -2.8518   -6.0820   -3.6020 S   0  0  0  0  0  0  0  0  0  0  0  0
   -2.3445   -6.2375   -2.0052 C   0  0  0  0  0  0  0  0  0  0  0  0
   -0.9110   -6.2271   -1.5640 C   0  0  0  0  0  0  0  0  0  0  0  0
   -0.4015   -7.6468   -1.3386 C   0  0  0  0  0  0  0  0  0  0  0  0
   -3.4678   -6.4075   -1.1950 C   0  0  0  0  0  0  0  0  0  0  0  0
   -4.6750   -6.3867   -1.9110 C   0  0  0  0  0  0  0  0  0  0  0  0
   -6.2546   -6.5018   -1.1431 Cl  0  0  0  0  0  0  0  0  0  0  0  0
   -3.3852   -6.5882    0.5547 Cl  0  0  0  0  0  0  0  0  0  0  0  0
   -5.7433   -4.9285   -5.0359 C   0  0  0  0  0  0  0  0  0  0  0  0
   -4.8720   -3.4933   -4.9276 S   0  0  0  0  0  0  0  0  0  0  0  0
   -6.4094   -8.4611   -4.0120 C   0  0  0  0  0  0  0  0  0  0  0  0
   -7.3932   -9.3075   -4.5141 C   0  0  0  0  0  0  0  0  0  0  0  0
   -8.3020   -8.4740   -5.6663 S   0  0  0  0  0  0  0  0  0  0  0  0
    2.1680    0.1577   16.7437 H   0  0  0  0  0  0  0  0  0  0  0  0
    4.2766    0.8262   15.3672 H   0  0  0  0  0  0  0  0  0  0  0  0
    7.3922    4.6603   14.3462 H   0  0  0  0  0  0  0  0  0  0  0  0
    8.9415    3.7767   14.1578 H   0  0  0  0  0  0  0  0  0  0  0  0
    8.8073    5.7411   12.6218 H   0  0  0  0  0  0  0  0  0  0  0  0
    7.3051    5.0761   11.8735 H   0  0  0  0  0  0  0  0  0  0  0  0
    8.8769    4.1984   11.6801 H   0  0  0  0  0  0  0  0  0  0  0  0
   -3.5012   -3.7844   10.7790 H   0  0  0  0  0  0  0  0  0  0  0  0
   -2.0727   -4.8269   10.4656 H   0  0  0  0  0  0  0  0  0  0  0  0
   -3.1159   -2.6122    8.5805 H   0  0  0  0  0  0  0  0  0  0  0  0
   -1.6787   -3.6704    8.2799 H   0  0  0  0  0  0  0  0  0  0  0  0
   -3.3317   -4.3887    8.3647 H   0  0  0  0  0  0  0  0  0  0  0  0
    1.5396   -1.1970    9.1123 H   0  0  0  0  0  0  0  0  0  0  0  0
    5.7362   -0.0548    6.9719 H   0  0  0  0  0  0  0  0  0  0  0  0
   10.5002    2.6896    4.6648 H   0  0  0  0  0  0  0  0  0  0  0  0
   11.2424    1.2102    5.3593 H   0  0  0  0  0  0  0  0  0  0  0  0
   10.6084    1.6624    2.3618 H   0  0  0  0  0  0  0  0  0  0  0  0
   12.2321    1.8029    3.1375 H   0  0  0  0  0  0  0  0  0  0  0  0
   11.4051    0.2001    3.0746 H   0  0  0  0  0  0  0  0  0  0  0  0
   -3.3633   -0.4792    2.3453 H   0  0  0  0  0  0  0  0  0  0  0  0
   -2.3891   -0.8557    0.8818 H   0  0  0  0  0  0  0  0  0  0  0  0
   -2.6046   -2.6755    3.3760 H   0  0  0  0  0  0  0  0  0  0  0  0
   -3.5774   -2.8564    1.8654 H   0  0  0  0  0  0  0  0  0  0  0  0
   -1.7926   -3.0715    1.8056 H   0  0  0  0  0  0  0  0  0  0  0  0
    2.0535    1.1622    1.0568 H   0  0  0  0  0  0  0  0  0  0  0  0
    4.9523    0.8822   -2.0114 H   0  0  0  0  0  0  0  0  0  0  0  0
    4.9577   -3.1531   -6.2794 H   0  0  0  0  0  0  0  0  0  0  0  0
    6.7205   -2.8150   -6.2393 H   0  0  0  0  0  0  0  0  0  0  0  0
    5.9706   -3.0783   -8.5781 H   0  0  0  0  0  0  0  0  0  0  0  0
    6.4515   -1.3604   -8.3064 H   0  0  0  0  0  0  0  0  0  0  0  0
    4.7016   -1.8159   -8.3559 H   0  0  0  0  0  0  0  0  0  0  0  0
   -2.2643    7.7576   -0.6545 H   0  0  0  0  0  0  0  0  0  0  0  0
   -0.8212    8.6528   -1.2294 H   0  0  0  0  0  0  0  0  0  0  0  0
   -0.9127    6.8764    1.3011 H   0  0  0  0  0  0  0  0  0  0  0  0
    0.4928    7.8775    0.7325 H   0  0  0  0  0  0  0  0  0  0  0  0
   -1.0297    8.6770    1.2718 H   0  0  0  0  0  0  0  0  0  0  0  0
   -0.2999    4.3720   -5.1106 H   0  0  0  0  0  0  0  0  0  0  0  0
    1.0612    2.4738   -9.3481 H   0  0  0  0  0  0  0  0  0  0  0  0
    0.5223    2.2236  -12.5982 H   0  0  0  0  0  0  0  0  0  0  0  0
    1.8137    1.6705  -11.4617 H   0  0  0  0  0  0  0  0  0  0  0  0
    0.8413    0.4581  -12.3491 H   0  0  0  0  0  0  0  0  0  0  0  0
   -3.8599    0.5154  -12.4915 H   0  0  0  0  0  0  0  0  0  0  0  0
   -3.0024   -0.5612  -13.6573 H   0  0  0  0  0  0  0  0  0  0  0  0
   -3.2635   -1.1204  -11.9613 H   0  0  0  0  0  0  0  0  0  0  0  0
   -3.4466    0.4716  -10.0801 H   0  0  0  0  0  0  0  0  0  0  0  0
   -4.8099    3.1003   -6.0075 H   0  0  0  0  0  0  0  0  0  0  0  0
   -5.8563    3.5612   -2.8716 H   0  0  0  0  0  0  0  0  0  0  0  0
   -5.9511    4.4566   -4.4361 H   0  0  0  0  0  0  0  0  0  0  0  0
   -7.4549    3.8245   -3.6832 H   0  0  0  0  0  0  0  0  0  0  0  0
   -7.6910   -0.6094   -2.0518 H   0  0  0  0  0  0  0  0  0  0  0  0
   -8.9611    0.5432   -1.4904 H   0  0  0  0  0  0  0  0  0  0  0  0
   -9.1415   -0.2594   -3.0961 H   0  0  0  0  0  0  0  0  0  0  0  0
   -7.2054   -0.9769   -4.4403 H   0  0  0  0  0  0  0  0  0  0  0  0
   -7.4649   -3.2037   -7.3629 H   0  0  0  0  0  0  0  0  0  0  0  0
   -9.9813   -5.8490  -11.4429 H   0  0  0  0  0  0  0  0  0  0  0  0
  -11.6476   -5.6258  -10.8184 H   0  0  0  0  0  0  0  0  0  0  0  0
  -11.1555   -3.1910  -10.3849 H   0  0  0  0  0  0  0  0  0  0  0  0
   -9.4873   -3.4269  -11.0563 H   0  0  0  0  0  0  0  0  0  0  0  0
  -10.9305   -3.6368  -12.1200 H   0  0  0  0  0  0  0  0  0  0  0  0
   -0.8055   -5.6386   -0.6290 H   0  0  0  0  0  0  0  0  0  0  0  0
   -0.2891   -5.7408   -2.3445 H   0  0  0  0  0  0  0  0  0  0  0  0
    0.6715   -7.6166   -1.0529 H   0  0  0  0  0  0  0  0  0  0  0  0
   -0.9717   -8.1326   -0.5203 H   0  0  0  0  0  0  0  0  0  0  0  0
   -0.5093   -8.2498   -2.2646 H   0  0  0  0  0  0  0  0  0  0  0  0
   -5.6889   -8.7804   -3.2719 H   0  0  0  0  0  0  0  0  0  0  0  0
   -7.5458  -10.3372   -4.2204 H   0  0  0  0  0  0  0  0  0  0  0  0
  1  2  2  0
  2  3  1  0
  3  4  2  0
  4  5  1  0
  5  6  1  0
  6  7  1  0
  7  8  1  0
  8  9  1  0
  7 10  2  0
 10 11  1  0
 10 12  1  0
 12 13  1  0
  4 14  1  0
 14 15  2  0
 15 16  1  0
 16 17  1  0
 17 18  1  0
 18 19  1  0
 19 20  1  0
 20 21  1  0
 19 22  2  0
 22 23  1  0
 23 24  1  0
 22 25  1  0
 16 26  2  0
 26 27  1  0
 15 28  1  0
 28 29  2  0
 29 30  1  0
 29 31  1  0
 31 32  2  0
 32 33  1  0
 33 34  2  0
 34 35  1  0
 35 36  1  0
 36 37  1  0
 37 38  1  0
 38 39  1  0
 37 40  2  0
 40 41  1  0
 40 42  1  0
 42 43  1  0
 34 44  1  0
 44 45  2  0
 45 46  1  0
 46 47  1  0
 47 48  1  0
 48 49  1  0
 49 50  1  0
 50 51  1  0
 49 52  2  0
 52 53  1  0
 53 54  1  0
 52 55  1  0
 46 56  2  0
 56 57  1  0
 45 58  1  0
 58 59  2  0
 59 60  1  0
 59 61  1  0
 61 62  2  0
 62 63  1  0
 63 64  2  0
 64 65  1  0
 65 66  1  0
 66 67  1  0
 67 68  1  0
 68 69  1  0
 67 70  2  0
 70 71  1  0
 70 72  1  0
 72 73  1  0
 64 74  1  0
 74 75  2  0
 75 76  1  0
 76 77  1  0
 77 78  1  0
 78 79  1  0
 79 80  1  0
 80 81  1  0
 79 82  2  0
 82 83  1  0
 83 84  1  0
 82 85  1  0
 76 86  2  0
 86 87  1  0
 75 88  1  0
 88 89  2  0
 89 90  1  0
 89 91  1  0
 91 92  1  0
 92 93  1  0
 93 94  2  0
 94 95  1  0
 95 96  1  0
 96 97  2  0
 97 98  1  0
 97 99  1  0
 99100  1  0
100101  1  0
 99102  2  0
 93103  1  0
103104  1  0
104105  1  0
105106  2  0
106107  1  0
107108  1  0
108109  2  0
109110  1  0
109111  1  0
111112  1  0
112113  1  0
111114  2  0
105115  1  0
115116  2  0
116117  1  0
117118  2  0
118119  1  0
119120  1  0
120121  1  0
121122  1  0
122123  1  0
121124  2  0
124125  1  0
124126  1  0
126127  1  0
118128  1  0
128129  2  0
129130  1  0
130131  1  0
131132  1  0
132133  1  0
133134  1  0
134135  1  0
133136  2  0
136137  1  0
137138  1  0
136139  1  0
130140  2  0
140141  1  0
129142  1  0
142143  2  0
143144  1  0
 27  1  1  0
 57 31  1  0
 87 61  1  0
 95 91  2  0
107103  2  0
141115  1  0
 26  3  1  0
 56 33  1  0
 86 63  1  0
102 94  1  0
114106  1  0
140117  1  0
 12  5  2  0
 30 14  1  0
 42 35  2  0
 60 44  1  0
 72 65  2  0
 90 74  1  0
126119  2  0
144128  1  0
 23 17  2  0
 53 47  2  0
 83 77  2  0
137131  2  0
  1145  1  0
  2146  1  0
  8147  1  0
  8148  1  0
  9149  1  0
  9150  1  0
  9151  1  0
 20152  1  0
 20153  1  0
 21154  1  0
 21155  1  0
 21156  1  0
 28157  1  0
 32158  1  0
 38159  1  0
 38160  1  0
 39161  1  0
 39162  1  0
 39163  1  0
 50164  1  0
 50165  1  0
 51166  1  0
 51167  1  0
 51168  1  0
 58169  1  0
 62170  1  0
 68171  1  0
 68172  1  0
 69173  1  0
 69174  1  0
 69175  1  0
 80176  1  0
 80177  1  0
 81178  1  0
 81179  1  0
 81180  1  0
 88181  1  0
 96182  1  0
 98183  1  0
 98184  1  0
 98185  1  0
101186  1  0
101187  1  0
101188  1  0
102189  1  0
108190  1  0
110191  1  0
110192  1  0
110193  1  0
113194  1  0
113195  1  0
113196  1  0
114197  1  0
116198  1  0
122199  1  0
122200  1  0
123201  1  0
123202  1  0
123203  1  0
134204  1  0
134205  1  0
135206  1  0
135207  1  0
135208  1  0
142209  1  0
143210  1  0
M  END

