
     RDKit          3D

 78 85  0  0  0  0  0  0  0  0999 V2000
    5.6505    2.3334    9.2970 C   0  0  0  0  0  0  0  0  0  0  0  0
    4.4923    1.7977    9.6611 C   0  0  0  0  0  0  0  0  0  0  0  0
    3.6625    1.3836    8.5212 C   0  0  0  0  0  0  0  0  0  0  0  0
    4.2357    1.6278    7.3440 C   0  0  0  0  0  0  0  0  0  0  0  0
    5.8012    2.3656    7.5658 S   0  0  0  0  0  6  0  0  0  0  0  0
    5.8662    3.7642    7.0207 O   0  0  0  0  0  0  0  0  0  0  0  0
    6.9243    1.4990    7.0712 O   0  0  0  0  0  0  0  0  0  0  0  0
    3.6309    1.3153    6.0332 C   0  0  0  0  0  0  0  0  0  0  0  0
    4.1947    1.5719    4.8582 C   0  0  0  0  0  0  0  0  0  0  0  0
    3.3682    1.1534    3.7190 C   0  0  0  0  0  0  0  0  0  0  0  0
    2.2050    0.5935    4.0662 C   0  0  0  0  0  0  0  0  0  0  0  0
    2.0788    0.5589    5.8106 S   0  0  0  0  0  6  0  0  0  0  0  0
    0.9629    1.4179    6.3363 O   0  0  0  0  0  0  0  0  0  0  0  0
    2.0561   -0.8365    6.3690 O   0  0  0  0  0  0  0  0  0  0  0  0
    1.2158    0.0872    3.0689 C   0  0  0  0  0  0  0  0  0  0  0  0
    1.4819    0.1826    1.4010 S   0  0  0  0  0  0  0  0  0  0  0  0
    0.0634   -0.5404    0.8879 C   0  0  0  0  0  0  0  0  0  0  0  0
   -0.6832   -0.8537    2.0216 C   0  0  0  0  0  0  0  0  0  0  0  0
   -0.0482   -0.5228    3.2406 C   0  0  0  0  0  0  0  0  0  0  0  0
   -0.7052   -0.8033    4.4481 C   0  0  0  0  0  0  0  0  0  0  0  0
   -1.9803   -1.3993    4.4407 C   0  0  0  0  0  0  0  0  0  0  0  0
   -2.6747   -1.6990    5.7407 C   0  0  0  0  0  0  0  0  0  0  0  0
   -2.6214   -1.6936    3.2191 C   0  0  0  0  0  0  0  0  0  0  0  0
   -3.9020   -2.2717    3.2478 O   0  0  0  0  0  0  0  0  0  0  0  0
   -4.6454   -2.6466    2.0924 C   0  0  0  0  0  0  0  0  0  0  0  0
   -1.9690   -1.4043    2.0066 C   0  0  0  0  0  0  0  0  0  0  0  0
   -0.2914   -0.7699   -0.5223 C   0  0  0  0  0  0  0  0  0  0  0  0
   -0.2322    0.4092   -1.7198 S   0  0  0  0  0  0  0  0  0  0  0  0
   -0.7590   -0.5590   -2.9947 C   0  0  0  0  0  0  0  0  0  0  0  0
   -0.9500   -1.8545   -2.4965 C   0  0  0  0  0  0  0  0  0  0  0  0
   -0.6848   -1.9695   -1.1194 C   0  0  0  0  0  0  0  0  0  0  0  0
   -0.7591   -3.2135   -0.4844 C   0  0  0  0  0  0  0  0  0  0  0  0
   -1.1403   -4.3488   -1.2201 C   0  0  0  0  0  0  0  0  0  0  0  0
   -1.2457   -5.6825   -0.5350 C   0  0  0  0  0  0  0  0  0  0  0  0
   -1.4065   -4.2421   -2.6041 C   0  0  0  0  0  0  0  0  0  0  0  0
   -1.7721   -5.4005   -3.3108 O   0  0  0  0  0  0  0  0  0  0  0  0
   -2.0867   -5.4358   -4.6989 C   0  0  0  0  0  0  0  0  0  0  0  0
   -1.2914   -2.9890   -3.2440 C   0  0  0  0  0  0  0  0  0  0  0  0
   -0.9443   -0.0716   -4.3741 C   0  0  0  0  0  0  0  0  0  0  0  0
   -1.9380   -0.4232   -5.1880 C   0  0  0  0  0  0  0  0  0  0  0  0
   -1.8817    0.2542   -6.4903 C   0  0  0  0  0  0  0  0  0  0  0  0
   -0.8612    1.1033   -6.5951 C   0  0  0  0  0  0  0  0  0  0  0  0
    0.0710    1.1296   -5.1203 S   0  0  0  0  0  6  0  0  0  0  0  0
    1.4808    0.6479   -5.3166 O   0  0  0  0  0  0  0  0  0  0  0  0
    0.0056    2.4591   -4.4233 O   0  0  0  0  0  0  0  0  0  0  0  0
   -0.5648    1.9155   -7.7924 C   0  0  0  0  0  0  0  0  0  0  0  0
    0.4448    2.7786   -7.8920 C   0  0  0  0  0  0  0  0  0  0  0  0
    0.4961    3.4543   -9.1960 C   0  0  0  0  0  0  0  0  0  0  0  0
   -0.4718    3.0745  -10.0195 C   0  0  0  0  0  0  0  0  0  0  0  0
   -1.4894    1.8802   -9.2711 S   0  0  0  0  0  6  0  0  0  0  0  0
   -1.4186    0.5498   -9.9657 O   0  0  0  0  0  0  0  0  0  0  0  0
   -2.9007    2.3604   -9.0857 O   0  0  0  0  0  0  0  0  0  0  0  0
    6.3972    2.6975    9.9898 H   0  0  0  0  0  0  0  0  0  0  0  0
    4.1935    1.6790   10.6942 H   0  0  0  0  0  0  0  0  0  0  0  0
    2.6878    0.9289    8.6380 H   0  0  0  0  0  0  0  0  0  0  0  0
    5.1625    2.0410    4.7405 H   0  0  0  0  0  0  0  0  0  0  0  0
    3.6914    1.2941    2.6964 H   0  0  0  0  0  0  0  0  0  0  0  0
   -0.2603   -0.5771    5.3947 H   0  0  0  0  0  0  0  0  0  0  0  0
   -2.0191   -1.4979    6.6143 H   0  0  0  0  0  0  0  0  0  0  0  0
   -2.9695   -2.7695    5.7714 H   0  0  0  0  0  0  0  0  0  0  0  0
   -3.5843   -1.0682    5.8301 H   0  0  0  0  0  0  0  0  0  0  0  0
   -4.8580   -1.7534    1.4679 H   0  0  0  0  0  0  0  0  0  0  0  0
   -4.0808   -3.3998    1.5028 H   0  0  0  0  0  0  0  0  0  0  0  0
   -5.6092   -3.0934    2.4108 H   0  0  0  0  0  0  0  0  0  0  0  0
   -2.4571   -1.5992    1.0627 H   0  0  0  0  0  0  0  0  0  0  0  0
   -0.5135   -3.3069    0.5651 H   0  0  0  0  0  0  0  0  0  0  0  0
   -1.0086   -5.6090    0.5480 H   0  0  0  0  0  0  0  0  0  0  0  0
   -0.5360   -6.3983   -1.0001 H   0  0  0  0  0  0  0  0  0  0  0  0
   -2.2796   -6.0739   -0.6387 H   0  0  0  0  0  0  0  0  0  0  0  0
   -2.3571   -6.4734   -4.9831 H   0  0  0  0  0  0  0  0  0  0  0  0
   -1.2066   -5.1216   -5.2981 H   0  0  0  0  0  0  0  0  0  0  0  0
   -2.9511   -4.7721   -4.9117 H   0  0  0  0  0  0  0  0  0  0  0  0
   -1.4356   -2.9111   -4.3097 H   0  0  0  0  0  0  0  0  0  0  0  0
   -2.7324   -1.1048   -4.9149 H   0  0  0  0  0  0  0  0  0  0  0  0
   -2.6038    0.0753   -7.2758 H   0  0  0  0  0  0  0  0  0  0  0  0
    1.1565    2.9732   -7.1003 H   0  0  0  0  0  0  0  0  0  0  0  0
    1.2423    4.1932   -9.4593 H   0  0  0  0  0  0  0  0  0  0  0  0
   -0.6035    3.4594  -11.0213 H   0  0  0  0  0  0  0  0  0  0  0  0
  1  2  2  0
  2  3  1  0
  3  4  2  0
  4  5  1  0
  5  6  2  0
  5  7  2  0
  4  8  1  0
  8  9  2  0
  9 10  1  0
 10 11  2  0
 11 12  1  0
 12 13  2  0
 12 14  2  0
 11 15  1  0
 15 16  1  0
 16 17  1  0
 17 18  2  0
 18 19  1  0
 19 20  1  0
 20 21  2  0
 21 22  1  0
 21 23  1  0
 23 24  1  0
 24 25  1  0
 23 26  2  0
 17 27  1  0
 27 28  1  0
 28 29  1  0
 29 30  2  0
 30 31  1  0
 31 32  1  0
 32 33  2  0
 33 34  1  0
 33 35  1  0
 35 36  1  0
 36 37  1  0
 35 38  2  0
 29 39  1  0
 39 40  2  0
 40 41  1  0
 41 42  2  0
 42 43  1  0
 43 44  2  0
 43 45  2  0
 42 46  1  0
 46 47  2  0
 47 48  1  0
 48 49  2  0
 49 50  1  0
 50 51  2  0
 50 52  2  0
  5  1  1  0
 12  8  1  0
 19 15  2  0
 31 27  2  0
 43 39  1  0
 50 46  1  0
 26 18  1  0
 38 30  1  0
  1 53  1  0
  2 54  1  0
  3 55  1  0
  9 56  1  0
 10 57  1  0
 20 58  1  0
 22 59  1  0
 22 60  1  0
 22 61  1  0
 25 62  1  0
 25 63  1  0
 25 64  1  0
 26 65  1  0
 32 66  1  0
 34 67  1  0
 34 68  1  0
 34 69  1  0
 37 70  1  0
 37 71  1  0
 37 72  1  0
 38 73  1  0
 40 74  1  0
 41 75  1  0
 47 76  1  0
 48 77  1  0
 49 78  1  0
M  END

