
     RDKit          3D

242265  0  0  0  0  0  0  0  0999 V2000
   -1.5086    2.1822   11.3430 C   0  0  0  0  0  0  0  0  0  0  0  0
   -2.1446    0.8456   10.5366 S   0  0  0  0  0  0  0  0  0  0  0  0
   -1.4568    1.1632    9.0316 C   0  0  0  0  0  0  0  0  0  0  0  0
   -0.7415    2.3588    9.1346 C   0  0  0  0  0  0  0  0  0  0  0  0
   -0.7638    2.9113   10.4238 C   0  0  0  0  0  0  0  0  0  0  0  0
   -0.1092    4.1118   10.6957 C   0  0  0  0  0  0  0  0  0  0  0  0
    0.5744    4.7772    9.6588 C   0  0  0  0  0  0  0  0  0  0  0  0
    1.3032    6.0588    9.9475 C   0  0  0  0  0  0  0  0  0  0  0  0
    0.5985    4.2265    8.3539 C   0  0  0  0  0  0  0  0  0  0  0  0
    1.3190    4.8932    7.3485 O   0  0  0  0  0  0  0  0  0  0  0  0
    1.5183    4.3870    6.0271 C   0  0  0  0  0  0  0  0  0  0  0  0
   -0.0928    3.0258    8.0907 C   0  0  0  0  0  0  0  0  0  0  0  0
   -1.6881    0.3677    7.8164 C   0  0  0  0  0  0  0  0  0  0  0  0
   -3.2168    0.0079    7.2061 S   0  0  0  0  0  0  0  0  0  0  0  0
   -2.6917   -0.6850    5.7638 C   0  0  0  0  0  0  0  0  0  0  0  0
   -1.2959   -0.6100    5.7256 C   0  0  0  0  0  0  0  0  0  0  0  0
   -0.7364   -0.0587    6.8875 C   0  0  0  0  0  0  0  0  0  0  0  0
    0.6510    0.0378    7.0276 C   0  0  0  0  0  0  0  0  0  0  0  0
    1.4845   -0.3343    5.9565 C   0  0  0  0  0  0  0  0  0  0  0  0
    2.9762   -0.2283    6.0960 C   0  0  0  0  0  0  0  0  0  0  0  0
    0.9212   -0.7912    4.7439 C   0  0  0  0  0  0  0  0  0  0  0  0
    1.7784   -1.0873    3.6698 O   0  0  0  0  0  0  0  0  0  0  0  0
    1.3406   -1.4769    2.3714 C   0  0  0  0  0  0  0  0  0  0  0  0
   -0.4792   -0.9377    4.6369 C   0  0  0  0  0  0  0  0  0  0  0  0
   -3.5837   -1.2032    4.7202 C   0  0  0  0  0  0  0  0  0  0  0  0
   -3.3488   -2.3364    3.9490 C   0  0  0  0  0  0  0  0  0  0  0  0
   -4.2641   -2.4817    2.8986 C   0  0  0  0  0  0  0  0  0  0  0  0
   -4.1836   -3.4309    1.8587 C   0  0  0  0  0  0  0  0  0  0  0  0
   -3.1936   -4.5309    1.8958 C   0  0  0  0  0  0  0  0  0  0  0  0
   -2.2228   -4.6700    0.8914 C   0  0  0  0  0  0  0  0  0  0  0  0
   -1.3186   -5.7362    0.9270 C   0  0  0  0  0  0  0  0  0  0  0  0
   -1.3740   -6.6713    1.9671 C   0  0  0  0  0  0  0  0  0  0  0  0
   -0.2526   -8.0749    1.9702 S   0  0  0  0  0  0  0  0  0  0  0  0
   -1.4596   -9.2385    1.2339 C   0  0  0  0  0  0  0  0  0  0  0  0
   -1.5604   -9.0547   -0.2741 C   0  0  0  0  0  0  0  0  0  0  0  0
   -2.3090   -6.5100    2.9990 C   0  0  0  0  0  0  0  0  0  0  0  0
   -2.3576   -7.3945    4.0265 F   0  0  0  0  0  0  0  0  0  0  0  0
   -3.2170   -5.4496    2.9586 C   0  0  0  0  0  0  0  0  0  0  0  0
   -5.0623   -3.2491    0.7734 C   0  0  0  0  0  0  0  0  0  0  0  0
   -6.0195   -2.2294    0.7420 C   0  0  0  0  0  0  0  0  0  0  0  0
   -6.1394   -1.3211    1.8141 C   0  0  0  0  0  0  0  0  0  0  0  0
   -7.0715   -0.1739    1.7764 C   0  0  0  0  0  0  0  0  0  0  0  0
   -6.9167    0.8371    0.8132 C   0  0  0  0  0  0  0  0  0  0  0  0
   -7.8066    1.9132    0.7790 C   0  0  0  0  0  0  0  0  0  0  0  0
   -8.8551    1.9903    1.7015 C   0  0  0  0  0  0  0  0  0  0  0  0
   -9.9956    3.3777    1.6341 S   0  0  0  0  0  0  0  0  0  0  0  0
  -11.1064    2.6236    0.3934 C   0  0  0  0  0  0  0  0  0  0  0  0
  -12.0956    1.6675    1.0447 C   0  0  0  0  0  0  0  0  0  0  0  0
   -8.9885    1.0036    2.6882 C   0  0  0  0  0  0  0  0  0  0  0  0
   -8.1037   -0.0775    2.7218 C   0  0  0  0  0  0  0  0  0  0  0  0
   -9.9763    1.0896    3.6155 F   0  0  0  0  0  0  0  0  0  0  0  0
   -5.2288   -1.4686    2.8717 C   0  0  0  0  0  0  0  0  0  0  0  0
   -4.9460   -0.3983    4.1403 S   0  0  0  0  0  0  0  0  0  0  0  0
   -6.6818   -2.1277   -0.4901 C   0  0  0  0  0  0  0  0  0  0  0  0
   -6.1673   -2.9757   -1.4774 C   0  0  0  0  0  0  0  0  0  0  0  0
   -5.0036   -3.9653   -0.7466 S   0  0  0  0  0  0  0  0  0  0  0  0
   -6.0913   -2.5771   -2.9020 C   0  0  0  0  0  0  0  0  0  0  0  0
   -6.5034   -1.3152   -3.3460 C   0  0  0  0  0  0  0  0  0  0  0  0
   -5.6834   -0.7673   -4.3457 C   0  0  0  0  0  0  0  0  0  0  0  0
   -5.6104    0.6104   -4.6545 C   0  0  0  0  0  0  0  0  0  0  0  0
   -6.6002    1.5675   -4.1006 C   0  0  0  0  0  0  0  0  0  0  0  0
   -7.9535    1.4459   -4.4511 C   0  0  0  0  0  0  0  0  0  0  0  0
   -8.9047    2.3109   -3.9031 C   0  0  0  0  0  0  0  0  0  0  0  0
   -8.5114    3.3242   -3.0221 C   0  0  0  0  0  0  0  0  0  0  0  0
   -9.7486    4.4232   -2.3239 S   0  0  0  0  0  0  0  0  0  0  0  0
   -9.7735    5.5810   -3.7366 C   0  0  0  0  0  0  0  0  0  0  0  0
   -8.7139    6.6604   -3.5681 C   0  0  0  0  0  0  0  0  0  0  0  0
   -7.1638    3.4411   -2.6542 C   0  0  0  0  0  0  0  0  0  0  0  0
   -6.7704    4.3986   -1.7783 F   0  0  0  0  0  0  0  0  0  0  0  0
   -6.2178    2.5558   -3.1779 C   0  0  0  0  0  0  0  0  0  0  0  0
   -4.4457    1.0446   -5.3186 C   0  0  0  0  0  0  0  0  0  0  0  0
   -3.4467    0.1601   -5.7379 C   0  0  0  0  0  0  0  0  0  0  0  0
   -3.5752   -1.2257   -5.5213 C   0  0  0  0  0  0  0  0  0  0  0  0
   -2.4474   -2.1409   -5.7882 C   0  0  0  0  0  0  0  0  0  0  0  0
   -1.5663   -2.4945   -4.7569 C   0  0  0  0  0  0  0  0  0  0  0  0
   -0.4624   -3.3109   -5.0252 C   0  0  0  0  0  0  0  0  0  0  0  0
   -0.2273   -3.7703   -6.3260 C   0  0  0  0  0  0  0  0  0  0  0  0
    1.1900   -4.8158   -6.6624 S   0  0  0  0  0  0  0  0  0  0  0  0
    2.3131   -3.4154   -6.9846 C   0  0  0  0  0  0  0  0  0  0  0  0
    3.6780   -3.9369   -7.4068 C   0  0  0  0  0  0  0  0  0  0  0  0
   -1.1091   -3.4183   -7.3592 C   0  0  0  0  0  0  0  0  0  0  0  0
   -2.2126   -2.6011   -7.0909 C   0  0  0  0  0  0  0  0  0  0  0  0
   -0.8934   -3.8587   -8.6236 F   0  0  0  0  0  0  0  0  0  0  0  0
   -4.6919   -1.6496   -4.7822 C   0  0  0  0  0  0  0  0  0  0  0  0
   -4.8171   -3.0725   -3.8965 S   0  0  0  0  0  0  0  0  0  0  0  0
   -2.2429    0.8016   -6.0662 C   0  0  0  0  0  0  0  0  0  0  0  0
   -2.2356    2.1697   -5.7860 C   0  0  0  0  0  0  0  0  0  0  0  0
   -3.7988    2.5981   -5.3142 S   0  0  0  0  0  0  0  0  0  0  0  0
   -1.0540    2.7421   -5.1190 C   0  0  0  0  0  0  0  0  0  0  0  0
    0.2475    2.4966   -5.5581 C   0  0  0  0  0  0  0  0  0  0  0  0
    1.1776    2.3480   -4.5133 C   0  0  0  0  0  0  0  0  0  0  0  0
    2.5063    1.9010   -4.6548 C   0  0  0  0  0  0  0  0  0  0  0  0
    3.1292    1.7391   -5.9850 C   0  0  0  0  0  0  0  0  0  0  0  0
    3.5236    0.4703   -6.4390 C   0  0  0  0  0  0  0  0  0  0  0  0
    4.1382    0.3309   -7.6850 C   0  0  0  0  0  0  0  0  0  0  0  0
    4.3760    1.4553   -8.4829 C   0  0  0  0  0  0  0  0  0  0  0  0
    5.2281    1.2699  -10.0530 S   0  0  0  0  0  0  0  0  0  0  0  0
    6.8909    1.6349   -9.3816 C   0  0  0  0  0  0  0  0  0  0  0  0
    7.4812    0.4234   -8.6701 C   0  0  0  0  0  0  0  0  0  0  0  0
    3.9421    2.7177   -8.0534 C   0  0  0  0  0  0  0  0  0  0  0  0
    4.1362    3.8128   -8.8305 F   0  0  0  0  0  0  0  0  0  0  0  0
    3.3203    2.8569   -6.8095 C   0  0  0  0  0  0  0  0  0  0  0  0
    3.1780    1.5229   -3.4771 C   0  0  0  0  0  0  0  0  0  0  0  0
    2.5800    1.5883   -2.2147 C   0  0  0  0  0  0  0  0  0  0  0  0
    1.2796    2.1111   -2.0600 C   0  0  0  0  0  0  0  0  0  0  0  0
    0.6251    2.1573   -0.7291 C   0  0  0  0  0  0  0  0  0  0  0  0
    1.2329    2.8616    0.3257 C   0  0  0  0  0  0  0  0  0  0  0  0
    0.6626    2.8565    1.5987 C   0  0  0  0  0  0  0  0  0  0  0  0
   -0.5364    2.1727    1.8334 C   0  0  0  0  0  0  0  0  0  0  0  0
   -1.2747    2.2075    3.4737 S   0  0  0  0  0  0  0  0  0  0  0  0
   -1.9706    3.8887    3.3014 C   0  0  0  0  0  0  0  0  0  0  0  0
   -3.2908    3.8665    2.5426 C   0  0  0  0  0  0  0  0  0  0  0  0
   -1.1393    1.4518    0.7933 C   0  0  0  0  0  0  0  0  0  0  0  0
   -0.5570    1.4395   -0.4807 C   0  0  0  0  0  0  0  0  0  0  0  0
   -2.2786    0.7474    1.0144 F   0  0  0  0  0  0  0  0  0  0  0  0
    0.6083    2.4839   -3.2417 C   0  0  0  0  0  0  0  0  0  0  0  0
   -1.0189    2.8354   -3.4306 S   0  0  0  0  0  0  0  0  0  0  0  0
    3.3396    0.9610   -1.2132 C   0  0  0  0  0  0  0  0  0  0  0  0
    4.5399    0.4390   -1.6843 C   0  0  0  0  0  0  0  0  0  0  0  0
    4.6659    0.7486   -3.3390 S   0  0  0  0  0  0  0  0  0  0  0  0
    5.3726   -0.5263   -0.9610 C   0  0  0  0  0  0  0  0  0  0  0  0
    6.6295   -0.9633   -1.3653 C   0  0  0  0  0  0  0  0  0  0  0  0
    7.0743   -2.0892   -0.6526 C   0  0  0  0  0  0  0  0  0  0  0  0
    8.2862   -2.7790   -0.8542 C   0  0  0  0  0  0  0  0  0  0  0  0
    9.2515   -2.3686   -1.8981 C   0  0  0  0  0  0  0  0  0  0  0  0
    8.8672   -2.3532   -3.2484 C   0  0  0  0  0  0  0  0  0  0  0  0
    9.7605   -1.9247   -4.2309 C   0  0  0  0  0  0  0  0  0  0  0  0
   11.0482   -1.5064   -3.8762 C   0  0  0  0  0  0  0  0  0  0  0  0
   12.1903   -0.9509   -5.1495 S   0  0  0  0  0  0  0  0  0  0  0  0
   11.8072    0.8265   -4.9541 C   0  0  0  0  0  0  0  0  0  0  0  0
   10.5604    1.2123   -5.7427 C   0  0  0  0  0  0  0  0  0  0  0  0
   11.4510   -1.5530   -2.5337 C   0  0  0  0  0  0  0  0  0  0  0  0
   12.7034   -1.1700   -2.1776 F   0  0  0  0  0  0  0  0  0  0  0  0
   10.5533   -1.9785   -1.5483 C   0  0  0  0  0  0  0  0  0  0  0  0
    8.5111   -3.9112   -0.0500 C   0  0  0  0  0  0  0  0  0  0  0  0
    7.5819   -4.3675    0.8930 C   0  0  0  0  0  0  0  0  0  0  0  0
    6.3684   -3.6747    1.0968 C   0  0  0  0  0  0  0  0  0  0  0  0
    5.3209   -4.1730    2.0197 C   0  0  0  0  0  0  0  0  0  0  0  0
    4.0496   -4.5095    1.5259 C   0  0  0  0  0  0  0  0  0  0  0  0
    3.0720   -5.0220    2.3805 C   0  0  0  0  0  0  0  0  0  0  0  0
    3.3557   -5.2160    3.7367 C   0  0  0  0  0  0  0  0  0  0  0  0
    2.1203   -5.9666    4.8018 S   0  0  0  0  0  0  0  0  0  0  0  0
    1.4450   -4.3915    5.4349 C   0  0  0  0  0  0  0  0  0  0  0  0
   -0.0678   -4.3784    5.2767 C   0  0  0  0  0  0  0  0  0  0  0  0
    4.6164   -4.8672    4.2404 C   0  0  0  0  0  0  0  0  0  0  0  0
    5.5930   -4.3437    3.3861 C   0  0  0  0  0  0  0  0  0  0  0  0
    4.9030   -5.0473    5.5539 F   0  0  0  0  0  0  0  0  0  0  0  0
    6.1599   -2.5255    0.3123 C   0  0  0  0  0  0  0  0  0  0  0  0
    4.8163   -1.5158    0.2871 S   0  0  0  0  0  0  0  0  0  0  0  0
    7.9707   -5.5701    1.5068 C   0  0  0  0  0  0  0  0  0  0  0  0
    9.2013   -6.0435    1.0611 C   0  0  0  0  0  0  0  0  0  0  0  0
    9.8030   -4.9883   -0.1089 S   0  0  0  0  0  0  0  0  0  0  0  0
   -1.6753    2.4372   12.3823 H   0  0  0  0  0  0  0  0  0  0  0  0
   -0.1333    4.5261   11.6974 H   0  0  0  0  0  0  0  0  0  0  0  0
    2.3980    5.8773    9.9191 H   0  0  0  0  0  0  0  0  0  0  0  0
    1.0393    6.8243    9.1864 H   0  0  0  0  0  0  0  0  0  0  0  0
    1.0341    6.4633   10.9459 H   0  0  0  0  0  0  0  0  0  0  0  0
    0.5461    4.3135    5.4967 H   0  0  0  0  0  0  0  0  0  0  0  0
    2.1771    5.0827    5.4679 H   0  0  0  0  0  0  0  0  0  0  0  0
    2.0052    3.3902    6.0691 H   0  0  0  0  0  0  0  0  0  0  0  0
   -0.1292    2.6247    7.0892 H   0  0  0  0  0  0  0  0  0  0  0  0
    1.0805    0.4085    7.9498 H   0  0  0  0  0  0  0  0  0  0  0  0
    3.3829    0.4504    5.3175 H   0  0  0  0  0  0  0  0  0  0  0  0
    3.2695    0.1662    7.0929 H   0  0  0  0  0  0  0  0  0  0  0  0
    3.4305   -1.2337    5.9730 H   0  0  0  0  0  0  0  0  0  0  0  0
    0.7156   -0.6768    1.9228 H   0  0  0  0  0  0  0  0  0  0  0  0
    0.7686   -2.4260    2.4302 H   0  0  0  0  0  0  0  0  0  0  0  0
    2.2271   -1.6372    1.7277 H   0  0  0  0  0  0  0  0  0  0  0  0
   -0.9192   -1.2742    3.7104 H   0  0  0  0  0  0  0  0  0  0  0  0
   -2.5085   -2.9955    4.1095 H   0  0  0  0  0  0  0  0  0  0  0  0
   -2.1653   -3.9530    0.0823 H   0  0  0  0  0  0  0  0  0  0  0  0
   -0.5856   -5.8438    0.1367 H   0  0  0  0  0  0  0  0  0  0  0  0
   -1.1191  -10.2747    1.4454 H   0  0  0  0  0  0  0  0  0  0  0  0
   -2.4601   -9.1100    1.7047 H   0  0  0  0  0  0  0  0  0  0  0  0
   -2.2554   -9.8057   -0.7010 H   0  0  0  0  0  0  0  0  0  0  0  0
   -0.5610   -9.1832   -0.7402 H   0  0  0  0  0  0  0  0  0  0  0  0
   -1.9481   -8.0461   -0.5193 H   0  0  0  0  0  0  0  0  0  0  0  0
   -3.9501   -5.3481    3.7493 H   0  0  0  0  0  0  0  0  0  0  0  0
   -6.1101    0.7890    0.0923 H   0  0  0  0  0  0  0  0  0  0  0  0
   -7.6861    2.6820    0.0304 H   0  0  0  0  0  0  0  0  0  0  0  0
  -10.5249    2.0920   -0.3905 H   0  0  0  0  0  0  0  0  0  0  0  0
  -11.6729    3.4403   -0.0999 H   0  0  0  0  0  0  0  0  0  0  0  0
  -11.5642    0.7903    1.4673 H   0  0  0  0  0  0  0  0  0  0  0  0
  -12.6535    2.1860    1.8538 H   0  0  0  0  0  0  0  0  0  0  0  0
  -12.8189    1.3061    0.2846 H   0  0  0  0  0  0  0  0  0  0  0  0
   -8.2227   -0.8405    3.4796 H   0  0  0  0  0  0  0  0  0  0  0  0
   -7.4066   -1.3541   -0.6978 H   0  0  0  0  0  0  0  0  0  0  0  0
   -7.2309   -0.7184   -2.8118 H   0  0  0  0  0  0  0  0  0  0  0  0
   -8.2720    0.6728   -5.1380 H   0  0  0  0  0  0  0  0  0  0  0  0
   -9.9471    2.2001   -4.1772 H   0  0  0  0  0  0  0  0  0  0  0  0
   -9.6204    5.0467   -4.6994 H   0  0  0  0  0  0  0  0  0  0  0  0
  -10.7748    6.0600   -3.7690 H   0  0  0  0  0  0  0  0  0  0  0  0
   -7.7002    6.2085   -3.5735 H   0  0  0  0  0  0  0  0  0  0  0  0
   -8.7847    7.3839   -4.4060 H   0  0  0  0  0  0  0  0  0  0  0  0
   -8.8710    7.2023   -2.6104 H   0  0  0  0  0  0  0  0  0  0  0  0
   -5.1907    2.6298   -2.8445 H   0  0  0  0  0  0  0  0  0  0  0  0
   -1.7252   -2.1280   -3.7487 H   0  0  0  0  0  0  0  0  0  0  0  0
    0.2143   -3.5770   -4.2227 H   0  0  0  0  0  0  0  0  0  0  0  0
    1.8981   -2.7759   -7.7920 H   0  0  0  0  0  0  0  0  0  0  0  0
    2.4229   -2.8102   -6.0594 H   0  0  0  0  0  0  0  0  0  0  0  0
    4.3748   -3.0867   -7.5522 H   0  0  0  0  0  0  0  0  0  0  0  0
    4.0928   -4.6048   -6.6231 H   0  0  0  0  0  0  0  0  0  0  0  0
    3.5961   -4.4967   -8.3630 H   0  0  0  0  0  0  0  0  0  0  0  0
   -2.8807   -2.3219   -7.8982 H   0  0  0  0  0  0  0  0  0  0  0  0
   -1.3265    0.2512   -6.2443 H   0  0  0  0  0  0  0  0  0  0  0  0
    0.4718    2.2532   -6.5889 H   0  0  0  0  0  0  0  0  0  0  0  0
    3.3583   -0.4076   -5.8275 H   0  0  0  0  0  0  0  0  0  0  0  0
    4.4481   -0.6488   -8.0227 H   0  0  0  0  0  0  0  0  0  0  0  0
    6.8515    2.5018   -8.6875 H   0  0  0  0  0  0  0  0  0  0  0  0
    7.5520    1.9055  -10.2304 H   0  0  0  0  0  0  0  0  0  0  0  0
    6.9118    0.1957   -7.7467 H   0  0  0  0  0  0  0  0  0  0  0  0
    7.4649   -0.4626   -9.3400 H   0  0  0  0  0  0  0  0  0  0  0  0
    8.5313    0.6370   -8.3849 H   0  0  0  0  0  0  0  0  0  0  0  0
    3.0013    3.8382   -6.4784 H   0  0  0  0  0  0  0  0  0  0  0  0
    2.1564    3.4051    0.1585 H   0  0  0  0  0  0  0  0  0  0  0  0
    1.1473    3.3969    2.4034 H   0  0  0  0  0  0  0  0  0  0  0  0
   -2.1433    4.2931    4.3179 H   0  0  0  0  0  0  0  0  0  0  0  0
   -1.2458    4.5603    2.7906 H   0  0  0  0  0  0  0  0  0  0  0  0
   -3.1746    3.3792    1.5553 H   0  0  0  0  0  0  0  0  0  0  0  0
   -4.0579    3.3200    3.1319 H   0  0  0  0  0  0  0  0  0  0  0  0
   -3.6404    4.9080    2.3802 H   0  0  0  0  0  0  0  0  0  0  0  0
   -1.0167    0.8532   -1.2662 H   0  0  0  0  0  0  0  0  0  0  0  0
    2.9953    0.8157   -0.1987 H   0  0  0  0  0  0  0  0  0  0  0  0
    7.1778   -0.4976   -2.1722 H   0  0  0  0  0  0  0  0  0  0  0  0
    7.8713   -2.6644   -3.5370 H   0  0  0  0  0  0  0  0  0  0  0  0
    9.4498   -1.9082   -5.2683 H   0  0  0  0  0  0  0  0  0  0  0  0
   11.6763    1.0900   -3.8822 H   0  0  0  0  0  0  0  0  0  0  0  0
   12.6693    1.4085   -5.3448 H   0  0  0  0  0  0  0  0  0  0  0  0
    9.6666    0.6906   -5.3407 H   0  0  0  0  0  0  0  0  0  0  0  0
   10.6904    0.9500   -6.8135 H   0  0  0  0  0  0  0  0  0  0  0  0
   10.3954    2.3079   -5.6621 H   0  0  0  0  0  0  0  0  0  0  0  0
   10.8655   -1.9887   -0.5103 H   0  0  0  0  0  0  0  0  0  0  0  0
    3.8226   -4.3941    0.4735 H   0  0  0  0  0  0  0  0  0  0  0  0
    2.1017   -5.2950    1.9838 H   0  0  0  0  0  0  0  0  0  0  0  0
    1.8700   -3.5107    4.9099 H   0  0  0  0  0  0  0  0  0  0  0  0
    1.7055   -4.3058    6.5098 H   0  0  0  0  0  0  0  0  0  0  0  0
   -0.4902   -3.5001    5.8038 H   0  0  0  0  0  0  0  0  0  0  0  0
   -0.5124   -5.2971    5.7139 H   0  0  0  0  0  0  0  0  0  0  0  0
   -0.3327   -4.3188    4.1993 H   0  0  0  0  0  0  0  0  0  0  0  0
    6.5652   -4.0807    3.7866 H   0  0  0  0  0  0  0  0  0  0  0  0
    7.3754   -6.1024    2.2352 H   0  0  0  0  0  0  0  0  0  0  0  0
    9.6790   -6.9550    1.3927 H   0  0  0  0  0  0  0  0  0  0  0  0
  1  2  1  0
  2  3  1  0
  3  4  2  0
  4  5  1  0
  5  6  1  0
  6  7  2  0
  7  8  1  0
  7  9  1  0
  9 10  1  0
 10 11  1  0
  9 12  2  0
  3 13  1  0
 13 14  1  0
 14 15  1  0
 15 16  2  0
 16 17  1  0
 17 18  1  0
 18 19  2  0
 19 20  1  0
 19 21  1  0
 21 22  1  0
 22 23  1  0
 21 24  2  0
 15 25  1  0
 25 26  2  0
 26 27  1  0
 27 28  2  0
 28 29  1  0
 29 30  2  0
 30 31  1  0
 31 32  2  0
 32 33  1  0
 33 34  1  0
 34 35  1  0
 32 36  1  0
 36 37  1  0
 36 38  2  0
 28 39  1  0
 39 40  2  0
 40 41  1  0
 41 42  1  0
 42 43  2  0
 43 44  1  0
 44 45  2  0
 45 46  1  0
 46 47  1  0
 47 48  1  0
 45 49  1  0
 49 50  2  0
 49 51  1  0
 41 52  2  0
 52 53  1  0
 40 54  1  0
 54 55  2  0
 55 56  1  0
 55 57  1  0
 57 58  2  0
 58 59  1  0
 59 60  2  0
 60 61  1  0
 61 62  2  0
 62 63  1  0
 63 64  2  0
 64 65  1  0
 65 66  1  0
 66 67  1  0
 64 68  1  0
 68 69  1  0
 68 70  2  0
 60 71  1  0
 71 72  2  0
 72 73  1  0
 73 74  1  0
 74 75  2  0
 75 76  1  0
 76 77  2  0
 77 78  1  0
 78 79  1  0
 79 80  1  0
 77 81  1  0
 81 82  2  0
 81 83  1  0
 73 84  2  0
 84 85  1  0
 72 86  1  0
 86 87  2  0
 87 88  1  0
 87 89  1  0
 89 90  2  0
 90 91  1  0
 91 92  2  0
 92 93  1  0
 93 94  2  0
 94 95  1  0
 95 96  2  0
 96 97  1  0
 97 98  1  0
 98 99  1  0
 96100  1  0
100101  1  0
100102  2  0
 92103  1  0
103104  2  0
104105  1  0
105106  1  0
106107  2  0
107108  1  0
108109  2  0
109110  1  0
110111  1  0
111112  1  0
109113  1  0
113114  2  0
113115  1  0
105116  2  0
116117  1  0
104118  1  0
118119  2  0
119120  1  0
119121  1  0
121122  2  0
122123  1  0
123124  2  0
124125  1  0
125126  2  0
126127  1  0
127128  2  0
128129  1  0
129130  1  0
130131  1  0
128132  1  0
132133  1  0
132134  2  0
124135  1  0
135136  2  0
136137  1  0
137138  1  0
138139  2  0
139140  1  0
140141  2  0
141142  1  0
142143  1  0
143144  1  0
141145  1  0
145146  2  0
145147  1  0
137148  2  0
148149  1  0
136150  1  0
150151  2  0
151152  1  0
  5  1  2  0
 17 13  2  0
 53 25  1  0
 85 57  1  0
117 89  1  0
149121  1  0
 12  4  1  0
 24 16  1  0
 52 27  1  0
 84 59  1  0
116 91  1  0
148123  1  0
 38 29  1  0
 56 39  1  0
 70 61  1  0
 88 71  1  0
102 93  1  0
120103  1  0
134125  1  0
152135  1  0
 50 42  1  0
 82 74  1  0
114106  1  0
146138  1  0
  1153  1  0
  6154  1  0
  8155  1  0
  8156  1  0
  8157  1  0
 11158  1  0
 11159  1  0
 11160  1  0
 12161  1  0
 18162  1  0
 20163  1  0
 20164  1  0
 20165  1  0
 23166  1  0
 23167  1  0
 23168  1  0
 24169  1  0
 26170  1  0
 30171  1  0
 31172  1  0
 34173  1  0
 34174  1  0
 35175  1  0
 35176  1  0
 35177  1  0
 38178  1  0
 43179  1  0
 44180  1  0
 47181  1  0
 47182  1  0
 48183  1  0
 48184  1  0
 48185  1  0
 50186  1  0
 54187  1  0
 58188  1  0
 62189  1  0
 63190  1  0
 66191  1  0
 66192  1  0
 67193  1  0
 67194  1  0
 67195  1  0
 70196  1  0
 75197  1  0
 76198  1  0
 79199  1  0
 79200  1  0
 80201  1  0
 80202  1  0
 80203  1  0
 82204  1  0
 86205  1  0
 90206  1  0
 94207  1  0
 95208  1  0
 98209  1  0
 98210  1  0
 99211  1  0
 99212  1  0
 99213  1  0
102214  1  0
107215  1  0
108216  1  0
111217  1  0
111218  1  0
112219  1  0
112220  1  0
112221  1  0
114222  1  0
118223  1  0
122224  1  0
126225  1  0
127226  1  0
130227  1  0
130228  1  0
131229  1  0
131230  1  0
131231  1  0
134232  1  0
139233  1  0
140234  1  0
143235  1  0
143236  1  0
144237  1  0
144238  1  0
144239  1  0
146240  1  0
150241  1  0
151242  1  0
M  END

