
     RDKit          3D

 58 61  0  0  0  0  0  0  0  0999 V2000
    0.6428   -9.6126    3.3636 C   0  0  0  0  0  0  0  0  0  0  0  0
    0.3579   -8.8240    2.4974 C   0  0  0  0  0  0  0  0  0  0  0  0
    0.0619   -7.8361    1.5048 C   0  0  0  0  0  0  0  0  0  0  0  0
   -0.1342   -6.9398    0.7226 C   0  0  0  0  0  0  0  0  0  0  0  0
   -0.4451   -5.8054   -0.1034 C   0  0  0  0  0  0  0  0  0  0  0  0
    0.5871   -5.0768   -1.2239 S   0  0  0  0  0  0  0  0  0  0  0  0
   -0.3487   -3.7209   -1.5481 C   0  0  0  0  0  0  0  0  0  0  0  0
   -1.5146   -3.8505   -0.7675 C   0  0  0  0  0  0  0  0  0  0  0  0
   -1.5465   -4.9644    0.0912 C   0  0  0  0  0  0  0  0  0  0  0  0
   -2.4693   -5.0149    1.1594 C   0  0  0  0  0  0  0  0  0  0  0  0
   -3.3853   -3.9600    1.3392 C   0  0  0  0  0  0  0  0  0  0  0  0
   -4.2261   -3.9231    2.5764 C   0  0  0  0  0  0  0  0  0  0  0  0
   -3.4419   -2.9068    0.4025 C   0  0  0  0  0  0  0  0  0  0  0  0
   -4.3966   -1.8776    0.5757 O   0  0  0  0  0  0  0  0  0  0  0  0
   -4.7102   -0.8882   -0.4147 C   0  0  0  0  0  0  0  0  0  0  0  0
   -2.4876   -2.8604   -0.6518 C   0  0  0  0  0  0  0  0  0  0  0  0
    0.3139   -2.4175   -1.6071 C   0  0  0  0  0  0  0  0  0  0  0  0
    0.7688   -1.6500   -0.1761 S   0  0  0  0  0  0  0  0  0  0  0  0
    0.7399   -0.0763   -0.7533 C   0  0  0  0  0  0  0  0  0  0  0  0
    0.3963   -0.1286   -2.1039 C   0  0  0  0  0  0  0  0  0  0  0  0
    0.1938   -1.4245   -2.5874 C   0  0  0  0  0  0  0  0  0  0  0  0
    0.0266   -1.6447   -3.9570 C   0  0  0  0  0  0  0  0  0  0  0  0
    0.3666   -0.5688   -4.8125 C   0  0  0  0  0  0  0  0  0  0  0  0
    1.6227   -0.7723   -5.6103 C   0  0  0  0  0  0  0  0  0  0  0  0
    0.1955    0.7414   -4.3384 C   0  0  0  0  0  0  0  0  0  0  0  0
    0.0894    1.7856   -5.2604 O   0  0  0  0  0  0  0  0  0  0  0  0
   -0.2894    3.1161   -4.9068 C   0  0  0  0  0  0  0  0  0  0  0  0
    0.2455    0.9742   -2.9572 C   0  0  0  0  0  0  0  0  0  0  0  0
    0.9747    1.0790    0.0750 C   0  0  0  0  0  0  0  0  0  0  0  0
    1.2014    1.9566    0.8838 C   0  0  0  0  0  0  0  0  0  0  0  0
    1.5608    2.8614    1.9143 C   0  0  0  0  0  0  0  0  0  0  0  0
    1.9227    3.5400    2.8488 C   0  0  0  0  0  0  0  0  0  0  0  0
    2.4203    4.2226    3.9829 C   0  0  0  0  0  0  0  0  0  0  0  0
    2.8729    4.7319    4.9963 C   0  0  0  0  0  0  0  0  0  0  0  0
    3.4012    5.2744    6.1849 C   0  0  0  0  0  0  0  0  0  0  0  0
    3.8921    5.7290    7.1869 C   0  0  0  0  0  0  0  0  0  0  0  0
    4.5343    6.2243    8.3456 C   0  0  0  0  0  0  0  0  0  0  0  0
    5.1218    6.6180    9.3273 C   0  0  0  0  0  0  0  0  0  0  0  0
    5.8364    7.0532   10.4705 C   0  0  0  0  0  0  0  0  0  0  0  0
    6.4734    7.4373   11.4156 C   0  0  0  0  0  0  0  0  0  0  0  0
    0.9151  -10.2625    4.1497 H   0  0  0  0  0  0  0  0  0  0  0  0
   -2.4003   -5.8249    1.8753 H   0  0  0  0  0  0  0  0  0  0  0  0
   -3.8543   -4.6312    3.3271 H   0  0  0  0  0  0  0  0  0  0  0  0
   -4.1203   -2.9270    3.0472 H   0  0  0  0  0  0  0  0  0  0  0  0
   -5.3010   -4.1190    2.3325 H   0  0  0  0  0  0  0  0  0  0  0  0
   -3.7849   -0.3278   -0.7051 H   0  0  0  0  0  0  0  0  0  0  0  0
   -5.4204   -0.1561    0.0339 H   0  0  0  0  0  0  0  0  0  0  0  0
   -5.1689   -1.3950   -1.2897 H   0  0  0  0  0  0  0  0  0  0  0  0
   -2.4428   -2.0363   -1.3539 H   0  0  0  0  0  0  0  0  0  0  0  0
   -0.1312   -2.6631   -4.3903 H   0  0  0  0  0  0  0  0  0  0  0  0
    1.6064   -0.2330   -6.5908 H   0  0  0  0  0  0  0  0  0  0  0  0
    1.7994   -1.8584   -5.8036 H   0  0  0  0  0  0  0  0  0  0  0  0
    2.4807   -0.3835   -5.0062 H   0  0  0  0  0  0  0  0  0  0  0  0
   -1.1270    3.1171   -4.1847 H   0  0  0  0  0  0  0  0  0  0  0  0
   -0.6607    3.6310   -5.8270 H   0  0  0  0  0  0  0  0  0  0  0  0
    0.5621    3.6418   -4.4759 H   0  0  0  0  0  0  0  0  0  0  0  0
    0.2916    1.9782   -2.5375 H   0  0  0  0  0  0  0  0  0  0  0  0
    7.0760    7.8109   12.2014 H   0  0  0  0  0  0  0  0  0  0  0  0
  1  2  3  0
  2  3  1  0
  3  4  3  0
  4  5  1  0
  5  6  1  0
  6  7  1  0
  7  8  2  0
  8  9  1  0
  9 10  1  0
 10 11  2  0
 11 12  1  0
 11 13  1  0
 13 14  1  0
 14 15  1  0
 13 16  2  0
  7 17  1  0
 17 18  1  0
 18 19  1  0
 19 20  2  0
 20 21  1  0
 21 22  1  0
 22 23  2  0
 23 24  1  0
 23 25  1  0
 25 26  1  0
 26 27  1  0
 25 28  2  0
 19 29  1  0
 29 30  3  0
 30 31  1  0
 31 32  3  0
 32 33  1  0
 33 34  3  0
 34 35  1  0
 35 36  3  0
 36 37  1  0
 37 38  3  0
 38 39  1  0
 39 40  3  0
  9  5  2  0
 21 17  2  0
 16  8  1  0
 28 20  1  0
  1 41  1  0
 10 42  1  0
 12 43  1  0
 12 44  1  0
 12 45  1  0
 15 46  1  0
 15 47  1  0
 15 48  1  0
 16 49  1  0
 22 50  1  0
 24 51  1  0
 24 52  1  0
 24 53  1  0
 27 54  1  0
 27 55  1  0
 27 56  1  0
 28 57  1  0
 40 58  1  0
M  END

