
     RDKit          3D

106117  0  0  0  0  0  0  0  0999 V2000
    3.2040   -0.9124    2.9022 C   0  0  0  0  0  0  0  0  0  0  0  0
    4.4796   -1.8259    3.5471 S   0  0  0  0  0  0  0  0  0  0  0  0
    5.2671   -2.2085    2.0920 C   0  0  0  0  0  0  0  0  0  0  0  0
    4.5073   -1.6094    1.0963 C   0  0  0  0  0  0  0  0  0  0  0  0
    3.4108   -0.9315    1.5361 C   0  0  0  0  0  0  0  0  0  0  0  0
    2.6870   -0.3945    0.4137 C   0  0  0  0  0  0  0  0  0  0  0  0
    3.3606   -0.7192   -0.7000 C   0  0  0  0  0  0  0  0  0  0  0  0
    4.5894   -1.5595   -0.3886 C   0  0  0  0  0  0  0  0  0  0  0  0
    2.8767   -0.4767   -2.0768 C   0  0  0  0  0  0  0  0  0  0  0  0
    2.1517    0.5761   -2.4848 C   0  0  0  0  0  0  0  0  0  0  0  0
    1.9389    1.7983   -1.6987 C   0  0  0  0  0  0  0  0  0  0  0  0
    3.0692    2.6175   -0.7369 S   0  0  0  0  0  0  0  0  0  0  0  0
    2.1438    3.9982   -0.4011 C   0  0  0  0  0  0  0  0  0  0  0  0
    0.9420    3.8022   -1.0620 C   0  0  0  0  0  0  0  0  0  0  0  0
    0.8423    2.6363   -1.7627 C   0  0  0  0  0  0  0  0  0  0  0  0
   -0.4422    2.5800   -2.4157 C   0  0  0  0  0  0  0  0  0  0  0  0
   -1.0990    3.7031   -2.0985 C   0  0  0  0  0  0  0  0  0  0  0  0
   -0.2841    4.6289   -1.2261 C   0  0  0  0  0  0  0  0  0  0  0  0
   -2.4641    4.0074   -2.5340 C   0  0  0  0  0  0  0  0  0  0  0  0
   -3.5489    3.3706   -2.0786 C   0  0  0  0  0  0  0  0  0  0  0  0
   -3.5510    2.3679   -0.9854 C   0  0  0  0  0  0  0  0  0  0  0  0
   -2.5023    2.3198    0.3363 S   0  0  0  0  0  0  0  0  0  0  0  0
   -3.1760    0.9898    1.1253 C   0  0  0  0  0  0  0  0  0  0  0  0
   -4.2516    0.5561    0.3423 C   0  0  0  0  0  0  0  0  0  0  0  0
   -4.4718    1.3318   -0.8163 C   0  0  0  0  0  0  0  0  0  0  0  0
   -5.4823    0.9828   -1.7176 C   0  0  0  0  0  0  0  0  0  0  0  0
   -6.2921   -0.1369   -1.4561 C   0  0  0  0  0  0  0  0  0  0  0  0
   -7.3639   -0.5198   -2.4353 C   0  0  0  0  0  0  0  0  0  0  0  0
   -6.1105   -0.8878   -0.2735 C   0  0  0  0  0  0  0  0  0  0  0  0
   -6.9368   -2.0001   -0.0379 O   0  0  0  0  0  0  0  0  0  0  0  0
   -6.8113   -2.8750    1.0797 C   0  0  0  0  0  0  0  0  0  0  0  0
   -5.0681   -0.5451    0.6218 C   0  0  0  0  0  0  0  0  0  0  0  0
   -2.4826    0.2229    2.1807 C   0  0  0  0  0  0  0  0  0  0  0  0
   -2.1509   -1.4151    2.0257 S   0  0  0  0  0  0  0  0  0  0  0  0
   -0.9845   -1.5379    3.2300 C   0  0  0  0  0  0  0  0  0  0  0  0
   -0.8296   -0.2658    3.7872 C   0  0  0  0  0  0  0  0  0  0  0  0
   -1.6535    0.7154    3.1973 C   0  0  0  0  0  0  0  0  0  0  0  0
   -1.5523    2.0568    3.5906 C   0  0  0  0  0  0  0  0  0  0  0  0
   -0.6052    2.4315    4.5618 C   0  0  0  0  0  0  0  0  0  0  0  0
   -0.4514    3.8783    4.9486 C   0  0  0  0  0  0  0  0  0  0  0  0
    0.2332    1.4510    5.1452 C   0  0  0  0  0  0  0  0  0  0  0  0
    1.1755    1.8553    6.1086 O   0  0  0  0  0  0  0  0  0  0  0  0
    2.1206    0.9835    6.7269 C   0  0  0  0  0  0  0  0  0  0  0  0
    0.1020    0.0944    4.7663 C   0  0  0  0  0  0  0  0  0  0  0  0
   -0.0248   -2.6544    3.2744 C   0  0  0  0  0  0  0  0  0  0  0  0
    0.7222   -3.3934    4.6082 S   0  0  0  0  0  0  0  0  0  0  0  0
    1.7606   -4.4262    3.7408 C   0  0  0  0  0  0  0  0  0  0  0  0
    1.5083   -4.1759    2.3999 C   0  0  0  0  0  0  0  0  0  0  0  0
    0.5496   -3.2410    2.1628 C   0  0  0  0  0  0  0  0  0  0  0  0
    0.4916   -2.9545    0.7569 C   0  0  0  0  0  0  0  0  0  0  0  0
    1.3903   -3.7181    0.1426 C   0  0  0  0  0  0  0  0  0  0  0  0
    2.1348   -4.6146    1.1168 C   0  0  0  0  0  0  0  0  0  0  0  0
    1.6287   -3.5796   -1.2997 C   0  0  0  0  0  0  0  0  0  0  0  0
    2.3659   -4.4221   -2.0225 C   0  0  0  0  0  0  0  0  0  0  0  0
    2.5738   -4.2150   -3.4700 C   0  0  0  0  0  0  0  0  0  0  0  0
    3.9410   -4.7079   -4.3412 S   0  0  0  0  0  0  0  0  0  0  0  0
    3.5491   -3.9910   -5.8284 C   0  0  0  0  0  0  0  0  0  0  0  0
    2.3333   -3.3656   -5.6261 C   0  0  0  0  0  0  0  0  0  0  0  0
    1.8002   -3.4976   -4.3772 C   0  0  0  0  0  0  0  0  0  0  0  0
    0.5350   -2.7880   -4.3284 C   0  0  0  0  0  0  0  0  0  0  0  0
    0.3562   -2.2049   -5.5252 C   0  0  0  0  0  0  0  0  0  0  0  0
    1.4830   -2.5112   -6.4834 C   0  0  0  0  0  0  0  0  0  0  0  0
   -0.7717   -1.3106   -5.8880 C   0  0  0  0  0  0  0  0  0  0  0  0
   -1.8311   -1.0944   -5.1063 C   0  0  0  0  0  0  0  0  0  0  0  0
    2.3847   -0.4485    3.4241 H   0  0  0  0  0  0  0  0  0  0  0  0
    6.1547   -2.8198    1.9716 H   0  0  0  0  0  0  0  0  0  0  0  0
    1.7361    0.1106    0.4804 H   0  0  0  0  0  0  0  0  0  0  0  0
    4.5010   -2.5839   -0.8145 H   0  0  0  0  0  0  0  0  0  0  0  0
    5.5192   -1.0460   -0.7178 H   0  0  0  0  0  0  0  0  0  0  0  0
    3.0951   -1.2429   -2.8061 H   0  0  0  0  0  0  0  0  0  0  0  0
    1.7330    0.5563   -3.4859 H   0  0  0  0  0  0  0  0  0  0  0  0
    2.4446    4.8540    0.1940 H   0  0  0  0  0  0  0  0  0  0  0  0
   -0.8110    1.7636   -3.0168 H   0  0  0  0  0  0  0  0  0  0  0  0
   -0.7802    4.8053   -0.2587 H   0  0  0  0  0  0  0  0  0  0  0  0
   -0.0612    5.5828   -1.7456 H   0  0  0  0  0  0  0  0  0  0  0  0
   -2.5897    4.7704   -3.2908 H   0  0  0  0  0  0  0  0  0  0  0  0
   -4.4873    3.6109   -2.5502 H   0  0  0  0  0  0  0  0  0  0  0  0
   -5.6157    1.5429   -2.6294 H   0  0  0  0  0  0  0  0  0  0  0  0
   -8.3570   -0.2579   -2.0039 H   0  0  0  0  0  0  0  0  0  0  0  0
   -7.3219   -1.6157   -2.6298 H   0  0  0  0  0  0  0  0  0  0  0  0
   -7.2292    0.0164   -3.4047 H   0  0  0  0  0  0  0  0  0  0  0  0
   -6.9686   -2.3122    2.0299 H   0  0  0  0  0  0  0  0  0  0  0  0
   -7.5690   -3.6806    0.9992 H   0  0  0  0  0  0  0  0  0  0  0  0
   -5.8044   -3.3478    1.0797 H   0  0  0  0  0  0  0  0  0  0  0  0
   -4.9150   -1.1034    1.5370 H   0  0  0  0  0  0  0  0  0  0  0  0
   -2.1854    2.8038    3.1341 H   0  0  0  0  0  0  0  0  0  0  0  0
   -1.2187    4.5080    4.4534 H   0  0  0  0  0  0  0  0  0  0  0  0
   -0.5606    3.9777    6.0488 H   0  0  0  0  0  0  0  0  0  0  0  0
    0.5600    4.2301    4.6540 H   0  0  0  0  0  0  0  0  0  0  0  0
    2.7615    0.4844    5.9632 H   0  0  0  0  0  0  0  0  0  0  0  0
    1.5898    0.2174    7.3299 H   0  0  0  0  0  0  0  0  0  0  0  0
    2.7736    1.5709    7.4051 H   0  0  0  0  0  0  0  0  0  0  0  0
    0.7234   -0.6665    5.2267 H   0  0  0  0  0  0  0  0  0  0  0  0
    2.4936   -5.1096    4.1469 H   0  0  0  0  0  0  0  0  0  0  0  0
   -0.0985   -2.1852    0.2856 H   0  0  0  0  0  0  0  0  0  0  0  0
    1.9119   -5.6901    0.9360 H   0  0  0  0  0  0  0  0  0  0  0  0
    3.2240   -4.3876    1.0954 H   0  0  0  0  0  0  0  0  0  0  0  0
    1.1795   -2.7223   -1.7683 H   0  0  0  0  0  0  0  0  0  0  0  0
    2.8751   -5.2506   -1.5413 H   0  0  0  0  0  0  0  0  0  0  0  0
    4.1203   -4.0062   -6.7483 H   0  0  0  0  0  0  0  0  0  0  0  0
   -0.1532   -2.7395   -3.4958 H   0  0  0  0  0  0  0  0  0  0  0  0
    2.0216   -1.5842   -6.7693 H   0  0  0  0  0  0  0  0  0  0  0  0
    1.1120   -3.0810   -7.3598 H   0  0  0  0  0  0  0  0  0  0  0  0
   -0.7330   -0.8039   -6.8468 H   0  0  0  0  0  0  0  0  0  0  0  0
   -1.9357   -1.5805   -4.1521 H   0  0  0  0  0  0  0  0  0  0  0  0
   -2.6220   -0.4277   -5.4421 H   0  0  0  0  0  0  0  0  0  0  0  0
  1  2  1  0
  2  3  1  0
  3  4  2  0
  4  5  1  0
  5  6  1  0
  6  7  2  0
  7  8  1  0
  7  9  1  0
  9 10  2  3
 10 11  1  0
 11 12  1  0
 12 13  1  0
 13 14  2  0
 14 15  1  0
 15 16  1  0
 16 17  2  0
 17 18  1  0
 17 19  1  0
 19 20  2  3
 20 21  1  0
 21 22  1  0
 22 23  1  0
 23 24  2  0
 24 25  1  0
 25 26  1  0
 26 27  2  0
 27 28  1  0
 27 29  1  0
 29 30  1  0
 30 31  1  0
 29 32  2  0
 23 33  1  0
 33 34  1  0
 34 35  1  0
 35 36  2  0
 36 37  1  0
 37 38  1  0
 38 39  2  0
 39 40  1  0
 39 41  1  0
 41 42  1  0
 42 43  1  0
 41 44  2  0
 35 45  1  0
 45 46  1  0
 46 47  1  0
 47 48  2  0
 48 49  1  0
 49 50  1  0
 50 51  2  0
 51 52  1  0
 51 53  1  0
 53 54  2  3
 54 55  1  0
 55 56  1  0
 56 57  1  0
 57 58  2  0
 58 59  1  0
 59 60  1  0
 60 61  2  0
 61 62  1  0
 61 63  1  0
 63 64  2  3
  5  1  2  0
 15 11  2  0
 25 21  2  0
 37 33  2  0
 49 45  2  0
 59 55  2  0
  8  4  1  0
 18 14  1  0
 32 24  1  0
 44 36  1  0
 52 48  1  0
 62 58  1  0
  1 65  1  0
  3 66  1  0
  6 67  1  0
  8 68  1  0
  8 69  1  0
  9 70  1  0
 10 71  1  0
 13 72  1  0
 16 73  1  0
 18 74  1  0
 18 75  1  0
 19 76  1  0
 20 77  1  0
 26 78  1  0
 28 79  1  0
 28 80  1  0
 28 81  1  0
 31 82  1  0
 31 83  1  0
 31 84  1  0
 32 85  1  0
 38 86  1  0
 40 87  1  0
 40 88  1  0
 40 89  1  0
 43 90  1  0
 43 91  1  0
 43 92  1  0
 44 93  1  0
 47 94  1  0
 50 95  1  0
 52 96  1  0
 52 97  1  0
 53 98  1  0
 54 99  1  0
 57100  1  0
 60101  1  0
 62102  1  0
 62103  1  0
 63104  1  0
 64105  1  0
 64106  1  0
M  END

