
     RDKit          3D

244267  0  0  0  0  0  0  0  0999 V2000
    4.7375   -5.7631   -0.5308 C   0  0  0  0  0  0  0  0  0  0  0  0
    4.0267   -4.6319   -0.1495 C   0  0  0  0  0  0  0  0  0  0  0  0
    4.8432   -3.5129    0.1028 C   0  0  0  0  0  0  0  0  0  0  0  0
    4.4298   -2.2141    0.5019 C   0  0  0  0  0  0  0  0  0  0  0  0
    3.0093   -1.8601    0.7317 C   0  0  0  0  0  0  0  0  0  0  0  0
    2.4831   -0.6846    0.1731 C   0  0  0  0  0  0  0  0  0  0  0  0
    1.2274   -0.2175    0.5546 C   0  0  0  0  0  0  0  0  0  0  0  0
    0.4360   -0.9699    1.4302 C   0  0  0  0  0  0  0  0  0  0  0  0
   -1.1883   -0.3957    1.9367 S   0  0  0  0  0  0  0  0  0  0  0  0
   -1.8980   -0.2835    0.2549 C   0  0  0  0  0  0  0  0  0  0  0  0
   -1.8383   -1.5853   -0.5348 C   0  0  0  0  0  0  0  0  0  0  0  0
    0.9347   -2.1737    1.9568 C   0  0  0  0  0  0  0  0  0  0  0  0
    0.2251   -2.8623    2.8855 F   0  0  0  0  0  0  0  0  0  0  0  0
    2.2221   -2.6019    1.6263 C   0  0  0  0  0  0  0  0  0  0  0  0
    5.4495   -1.2517    0.6839 C   0  0  0  0  0  0  0  0  0  0  0  0
    6.7943   -1.5245    0.4385 C   0  0  0  0  0  0  0  0  0  0  0  0
    7.2056   -2.8066    0.0370 C   0  0  0  0  0  0  0  0  0  0  0  0
    8.6344   -3.1187   -0.1659 C   0  0  0  0  0  0  0  0  0  0  0  0
    9.1431   -3.3297   -1.4594 C   0  0  0  0  0  0  0  0  0  0  0  0
   10.5250   -3.3959   -1.6613 C   0  0  0  0  0  0  0  0  0  0  0  0
   11.4020   -3.2570   -0.5793 C   0  0  0  0  0  0  0  0  0  0  0  0
   13.1699   -3.1706   -0.8707 S   0  0  0  0  0  0  0  0  0  0  0  0
   13.2620   -1.3433   -0.8194 C   0  0  0  0  0  0  0  0  0  0  0  0
   12.7721   -0.7197   -2.1185 C   0  0  0  0  0  0  0  0  0  0  0  0
   10.8969   -3.1278    0.7209 C   0  0  0  0  0  0  0  0  0  0  0  0
    9.5163   -3.0548    0.9248 C   0  0  0  0  0  0  0  0  0  0  0  0
   11.7356   -2.9840    1.7756 F   0  0  0  0  0  0  0  0  0  0  0  0
    6.2011   -3.7768   -0.1250 C   0  0  0  0  0  0  0  0  0  0  0  0
    6.3834   -5.3900   -0.5855 S   0  0  0  0  0  0  0  0  0  0  0  0
    7.6253   -0.4058    0.5966 C   0  0  0  0  0  0  0  0  0  0  0  0
    6.9453    0.7296    1.0187 C   0  0  0  0  0  0  0  0  0  0  0  0
    5.3027    0.3641    1.1466 S   0  0  0  0  0  0  0  0  0  0  0  0
    7.5031    2.0967    1.0932 C   0  0  0  0  0  0  0  0  0  0  0  0
    6.6442    3.4858    0.6744 S   0  0  0  0  0  0  0  0  0  0  0  0
    7.9467    4.5522    0.6498 C   0  0  0  0  0  0  0  0  0  0  0  0
    9.0814    3.8317    1.0443 C   0  0  0  0  0  0  0  0  0  0  0  0
    8.8400    2.4708    1.2994 C   0  0  0  0  0  0  0  0  0  0  0  0
    9.8701    1.6451    1.7764 C   0  0  0  0  0  0  0  0  0  0  0  0
   11.1719    2.1663    1.9568 C   0  0  0  0  0  0  0  0  0  0  0  0
   12.2911    1.2813    2.4519 C   0  0  0  0  0  0  0  0  0  0  0  0
   13.3621    1.3510    1.5811 F   0  0  0  0  0  0  0  0  0  0  0  0
   11.8862   -0.0435    2.5438 F   0  0  0  0  0  0  0  0  0  0  0  0
   12.6936    1.7124    3.7103 F   0  0  0  0  0  0  0  0  0  0  0  0
   11.4063    3.5449    1.6970 C   0  0  0  0  0  0  0  0  0  0  0  0
   12.6926    4.1484    1.9451 C   0  0  0  0  0  0  0  0  0  0  0  0
   13.7169    4.6372    2.1535 N   0  0  0  0  0  0  0  0  0  0  0  0
   10.3676    4.3679    1.2280 C   0  0  0  0  0  0  0  0  0  0  0  0
    7.9034    6.0082    0.4198 C   0  0  0  0  0  0  0  0  0  0  0  0
    7.0782    6.7107   -0.3750 C   0  0  0  0  0  0  0  0  0  0  0  0
    6.0204    6.2231   -1.3005 C   0  0  0  0  0  0  0  0  0  0  0  0
    5.9499    4.7555   -2.1320 S   0  0  0  0  0  0  0  0  0  0  0  0
    4.5505    5.0549   -3.0292 C   0  0  0  0  0  0  0  0  0  0  0  0
    4.1653    6.3730   -2.7565 C   0  0  0  0  0  0  0  0  0  0  0  0
    4.9573    7.0103   -1.7796 C   0  0  0  0  0  0  0  0  0  0  0  0
    4.6551    8.3195   -1.3749 C   0  0  0  0  0  0  0  0  0  0  0  0
    3.5977    9.0244   -1.9975 C   0  0  0  0  0  0  0  0  0  0  0  0
    3.2717   10.4483   -1.5713 C   0  0  0  0  0  0  0  0  0  0  0  0
    1.9351   10.5377   -1.2217 F   0  0  0  0  0  0  0  0  0  0  0  0
    3.5158   11.3150   -2.6194 F   0  0  0  0  0  0  0  0  0  0  0  0
    4.0259   10.8558   -0.4830 F   0  0  0  0  0  0  0  0  0  0  0  0
    2.8667    8.3993   -3.0380 C   0  0  0  0  0  0  0  0  0  0  0  0
    1.8138    9.0880   -3.7473 C   0  0  0  0  0  0  0  0  0  0  0  0
    0.9580    9.6177   -4.3192 N   0  0  0  0  0  0  0  0  0  0  0  0
    3.1529    7.0790   -3.4103 C   0  0  0  0  0  0  0  0  0  0  0  0
    3.7726    3.9978   -3.7087 C   0  0  0  0  0  0  0  0  0  0  0  0
    2.4320    3.9766   -3.6426 C   0  0  0  0  0  0  0  0  0  0  0  0
    1.5869    2.8783   -4.1207 C   0  0  0  0  0  0  0  0  0  0  0  0
    0.1979    2.8996   -4.0021 C   0  0  0  0  0  0  0  0  0  0  0  0
   -0.4098    1.6848   -4.3460 C   0  0  0  0  0  0  0  0  0  0  0  0
   -1.7783    1.3896   -4.1971 C   0  0  0  0  0  0  0  0  0  0  0  0
   -2.7197    2.3813   -3.6356 C   0  0  0  0  0  0  0  0  0  0  0  0
   -3.2015    3.4398   -4.4202 C   0  0  0  0  0  0  0  0  0  0  0  0
   -4.0150    4.4242   -3.8441 C   0  0  0  0  0  0  0  0  0  0  0  0
   -4.3379    4.3690   -2.4766 C   0  0  0  0  0  0  0  0  0  0  0  0
   -5.3149    5.6762   -1.7293 S   0  0  0  0  0  0  0  0  0  0  0  0
   -6.9245    4.8168   -1.8738 C   0  0  0  0  0  0  0  0  0  0  0  0
   -7.3570    4.2608   -0.5228 C   0  0  0  0  0  0  0  0  0  0  0  0
   -3.8574    3.3047   -1.7007 C   0  0  0  0  0  0  0  0  0  0  0  0
   -4.1484    3.2364   -0.3776 F   0  0  0  0  0  0  0  0  0  0  0  0
   -3.0829    2.3030   -2.2873 C   0  0  0  0  0  0  0  0  0  0  0  0
   -2.1529    0.0539   -4.3865 C   0  0  0  0  0  0  0  0  0  0  0  0
   -1.2476   -0.9595   -4.7315 C   0  0  0  0  0  0  0  0  0  0  0  0
    0.1161   -0.6405   -4.9649 C   0  0  0  0  0  0  0  0  0  0  0  0
    1.0833   -1.6353   -5.4735 C   0  0  0  0  0  0  0  0  0  0  0  0
    1.7260   -1.4024   -6.7025 C   0  0  0  0  0  0  0  0  0  0  0  0
    2.5939   -2.3554   -7.2338 C   0  0  0  0  0  0  0  0  0  0  0  0
    2.8157   -3.5589   -6.5557 C   0  0  0  0  0  0  0  0  0  0  0  0
    3.8918   -4.8006   -7.2847 S   0  0  0  0  0  0  0  0  0  0  0  0
    2.6330   -5.4634   -8.4359 C   0  0  0  0  0  0  0  0  0  0  0  0
    1.6292   -6.3565   -7.7173 C   0  0  0  0  0  0  0  0  0  0  0  0
    2.2133   -3.7819   -5.3123 C   0  0  0  0  0  0  0  0  0  0  0  0
    1.3581   -2.8130   -4.7648 C   0  0  0  0  0  0  0  0  0  0  0  0
    2.4392   -4.9316   -4.6314 F   0  0  0  0  0  0  0  0  0  0  0  0
    0.5046    0.7016   -4.7406 C   0  0  0  0  0  0  0  0  0  0  0  0
    2.0651    1.3441   -4.6576 S   0  0  0  0  0  0  0  0  0  0  0  0
   -1.8305   -2.2472   -4.6949 C   0  0  0  0  0  0  0  0  0  0  0  0
   -3.1740   -2.2303   -4.3050 C   0  0  0  0  0  0  0  0  0  0  0  0
   -3.6395   -0.6222   -4.0678 S   0  0  0  0  0  0  0  0  0  0  0  0
   -3.8723   -3.3281   -3.5948 C   0  0  0  0  0  0  0  0  0  0  0  0
   -5.1493   -3.0953   -3.0925 C   0  0  0  0  0  0  0  0  0  0  0  0
   -5.3046   -3.4780   -1.7521 C   0  0  0  0  0  0  0  0  0  0  0  0
   -6.2315   -2.8783   -0.8799 C   0  0  0  0  0  0  0  0  0  0  0  0
   -7.2878   -1.9868   -1.4015 C   0  0  0  0  0  0  0  0  0  0  0  0
   -8.3966   -2.5379   -2.0529 C   0  0  0  0  0  0  0  0  0  0  0  0
   -9.3366   -1.7030   -2.6634 C   0  0  0  0  0  0  0  0  0  0  0  0
   -9.1616   -0.3154   -2.6443 C   0  0  0  0  0  0  0  0  0  0  0  0
  -10.3709    0.7527   -3.4383 S   0  0  0  0  0  0  0  0  0  0  0  0
   -9.4623    0.8957   -5.0189 C   0  0  0  0  0  0  0  0  0  0  0  0
   -9.7229   -0.3057   -5.9167 C   0  0  0  0  0  0  0  0  0  0  0  0
   -8.0503    0.2377   -1.9896 C   0  0  0  0  0  0  0  0  0  0  0  0
   -7.8553    1.5770   -1.9853 F   0  0  0  0  0  0  0  0  0  0  0  0
   -7.1162   -0.5913   -1.3714 C   0  0  0  0  0  0  0  0  0  0  0  0
   -5.9403   -2.9442    0.4910 C   0  0  0  0  0  0  0  0  0  0  0  0
   -4.8620   -3.6796    1.0008 C   0  0  0  0  0  0  0  0  0  0  0  0
   -4.0264   -4.4206    0.1253 C   0  0  0  0  0  0  0  0  0  0  0  0
   -2.9475   -5.3226    0.6085 C   0  0  0  0  0  0  0  0  0  0  0  0
   -1.9519   -4.8787    1.4972 C   0  0  0  0  0  0  0  0  0  0  0  0
   -1.0397   -5.7817    2.0469 C   0  0  0  0  0  0  0  0  0  0  0  0
   -1.0743   -7.1274    1.6718 C   0  0  0  0  0  0  0  0  0  0  0  0
    0.0557   -8.3019    2.4337 S   0  0  0  0  0  0  0  0  0  0  0  0
    1.4791   -7.8935    1.3612 C   0  0  0  0  0  0  0  0  0  0  0  0
    2.5367   -7.1703    2.1790 C   0  0  0  0  0  0  0  0  0  0  0  0
   -2.0191   -7.5698    0.7371 C   0  0  0  0  0  0  0  0  0  0  0  0
   -2.9533   -6.6688    0.2086 C   0  0  0  0  0  0  0  0  0  0  0  0
   -2.0652   -8.8747    0.3680 F   0  0  0  0  0  0  0  0  0  0  0  0
   -4.2347   -4.2239   -1.2571 C   0  0  0  0  0  0  0  0  0  0  0  0
   -3.0492   -4.2811   -2.4534 S   0  0  0  0  0  0  0  0  0  0  0  0
   -4.6482   -3.4405    2.3720 C   0  0  0  0  0  0  0  0  0  0  0  0
   -5.5032   -2.4774    2.9012 C   0  0  0  0  0  0  0  0  0  0  0  0
   -6.5943   -1.9935    1.7104 S   0  0  0  0  0  0  0  0  0  0  0  0
   -5.2453   -1.6999    4.1178 C   0  0  0  0  0  0  0  0  0  0  0  0
   -6.1290   -0.7673    4.6569 C   0  0  0  0  0  0  0  0  0  0  0  0
   -5.5417    0.0851    5.6035 C   0  0  0  0  0  0  0  0  0  0  0  0
   -6.1647    1.1987    6.1972 C   0  0  0  0  0  0  0  0  0  0  0  0
   -7.4334    1.7584    5.6614 C   0  0  0  0  0  0  0  0  0  0  0  0
   -7.5531    1.9943    4.2802 C   0  0  0  0  0  0  0  0  0  0  0  0
   -8.7066    2.5814    3.7576 C   0  0  0  0  0  0  0  0  0  0  0  0
   -9.7302    2.9922    4.6145 C   0  0  0  0  0  0  0  0  0  0  0  0
  -11.1726    3.8199    3.9366 S   0  0  0  0  0  0  0  0  0  0  0  0
  -10.3551    5.4441    3.7009 C   0  0  0  0  0  0  0  0  0  0  0  0
  -10.0137    6.1159    5.0292 C   0  0  0  0  0  0  0  0  0  0  0  0
   -9.6271    2.7489    5.9936 C   0  0  0  0  0  0  0  0  0  0  0  0
  -10.6224    3.1306    6.8363 F   0  0  0  0  0  0  0  0  0  0  0  0
   -8.4909    2.1211    6.5096 C   0  0  0  0  0  0  0  0  0  0  0  0
   -5.4225    1.8710    7.1925 C   0  0  0  0  0  0  0  0  0  0  0  0
   -4.0916    1.5600    7.4846 C   0  0  0  0  0  0  0  0  0  0  0  0
   -3.4004    0.5661    6.7386 C   0  0  0  0  0  0  0  0  0  0  0  0
   -1.9041    0.4862    6.7497 C   0  0  0  0  0  0  0  0  0  0  0  0
   -1.2231   -0.7455    6.7706 C   0  0  0  0  0  0  0  0  0  0  0  0
    0.1830   -0.7810    6.7316 C   0  0  0  0  0  0  0  0  0  0  0  0
    0.9146    0.4102    6.7490 C   0  0  0  0  0  0  0  0  0  0  0  0
    2.7141    0.3595    6.8046 S   0  0  0  0  0  0  0  0  0  0  0  0
    2.9764    0.9661    5.0973 C   0  0  0  0  0  0  0  0  0  0  0  0
    2.7306   -0.1253    4.0697 C   0  0  0  0  0  0  0  0  0  0  0  0
    0.2446    1.6387    6.7652 C   0  0  0  0  0  0  0  0  0  0  0  0
   -1.1457    1.6737    6.7054 C   0  0  0  0  0  0  0  0  0  0  0  0
    0.9427    2.7988    6.8147 F   0  0  0  0  0  0  0  0  0  0  0  0
   -4.1871   -0.2048    5.8502 C   0  0  0  0  0  0  0  0  0  0  0  0
   -3.7291   -1.4688    4.8247 S   0  0  0  0  0  0  0  0  0  0  0  0
   -3.5577    2.3660    8.5102 C   0  0  0  0  0  0  0  0  0  0  0  0
   -4.4359    3.3366    8.9654 C   0  0  0  0  0  0  0  0  0  0  0  0
   -5.8908    3.1910    8.1242 S   0  0  0  0  0  0  0  0  0  0  0  0
    4.3019   -6.7303   -0.7482 H   0  0  0  0  0  0  0  0  0  0  0  0
    2.9463   -4.6322   -0.0591 H   0  0  0  0  0  0  0  0  0  0  0  0
    3.0687   -0.0944   -0.5210 H   0  0  0  0  0  0  0  0  0  0  0  0
    0.8855    0.7296    0.1784 H   0  0  0  0  0  0  0  0  0  0  0  0
   -1.3523    0.5064   -0.3042 H   0  0  0  0  0  0  0  0  0  0  0  0
   -2.9568    0.0294    0.3483 H   0  0  0  0  0  0  0  0  0  0  0  0
   -2.2489   -2.4070    0.0724 H   0  0  0  0  0  0  0  0  0  0  0  0
   -2.4413   -1.4856   -1.4558 H   0  0  0  0  0  0  0  0  0  0  0  0
   -0.7964   -1.8279   -0.8230 H   0  0  0  0  0  0  0  0  0  0  0  0
    2.6371   -3.4751    2.1249 H   0  0  0  0  0  0  0  0  0  0  0  0
    8.4791   -3.3928   -2.3104 H   0  0  0  0  0  0  0  0  0  0  0  0
   10.9218   -3.5065   -2.6620 H   0  0  0  0  0  0  0  0  0  0  0  0
   14.3242   -1.0503   -0.6653 H   0  0  0  0  0  0  0  0  0  0  0  0
   12.6764   -0.9461    0.0388 H   0  0  0  0  0  0  0  0  0  0  0  0
   13.3442   -1.1275   -2.9818 H   0  0  0  0  0  0  0  0  0  0  0  0
   12.9225    0.3814   -2.0774 H   0  0  0  0  0  0  0  0  0  0  0  0
   11.6902   -0.9147   -2.2641 H   0  0  0  0  0  0  0  0  0  0  0  0
    9.1382   -2.8873    1.9258 H   0  0  0  0  0  0  0  0  0  0  0  0
    8.6722   -0.4180    0.3331 H   0  0  0  0  0  0  0  0  0  0  0  0
    9.6522    0.6289    2.0569 H   0  0  0  0  0  0  0  0  0  0  0  0
   10.5697    5.4130    1.0107 H   0  0  0  0  0  0  0  0  0  0  0  0
    8.6462    6.5931    0.9552 H   0  0  0  0  0  0  0  0  0  0  0  0
    7.2132    7.7854   -0.3467 H   0  0  0  0  0  0  0  0  0  0  0  0
    5.2280    8.7732   -0.5839 H   0  0  0  0  0  0  0  0  0  0  0  0
    2.6172    6.6265   -4.2362 H   0  0  0  0  0  0  0  0  0  0  0  0
    4.3024    3.1509   -4.1315 H   0  0  0  0  0  0  0  0  0  0  0  0
    1.9178    4.7693   -3.1129 H   0  0  0  0  0  0  0  0  0  0  0  0
   -0.3362    3.7520   -3.6126 H   0  0  0  0  0  0  0  0  0  0  0  0
   -2.9362    3.5142   -5.4682 H   0  0  0  0  0  0  0  0  0  0  0  0
   -4.3730    5.2458   -4.4537 H   0  0  0  0  0  0  0  0  0  0  0  0
   -7.6833    5.5484   -2.2192 H   0  0  0  0  0  0  0  0  0  0  0  0
   -6.8838    4.0001   -2.6267 H   0  0  0  0  0  0  0  0  0  0  0  0
   -6.6487    3.4815   -0.1748 H   0  0  0  0  0  0  0  0  0  0  0  0
   -7.3994    5.0716    0.2345 H   0  0  0  0  0  0  0  0  0  0  0  0
   -8.3696    3.8100   -0.6087 H   0  0  0  0  0  0  0  0  0  0  0  0
   -2.7529    1.4741   -1.6880 H   0  0  0  0  0  0  0  0  0  0  0  0
    1.5381   -0.4888   -7.2537 H   0  0  0  0  0  0  0  0  0  0  0  0
    3.0713   -2.1683   -8.1860 H   0  0  0  0  0  0  0  0  0  0  0  0
    2.0999   -4.6373   -8.9516 H   0  0  0  0  0  0  0  0  0  0  0  0
    3.1567   -6.0646   -9.2089 H   0  0  0  0  0  0  0  0  0  0  0  0
    1.0201   -5.7641   -7.0072 H   0  0  0  0  0  0  0  0  0  0  0  0
    2.1577   -7.1623   -7.1681 H   0  0  0  0  0  0  0  0  0  0  0  0
    0.9498   -6.8206   -8.4598 H   0  0  0  0  0  0  0  0  0  0  0  0
    0.9009   -2.9923   -3.7957 H   0  0  0  0  0  0  0  0  0  0  0  0
   -1.2775   -3.1647   -4.8207 H   0  0  0  0  0  0  0  0  0  0  0  0
   -5.8229   -2.4011   -3.5739 H   0  0  0  0  0  0  0  0  0  0  0  0
   -8.5295   -3.6123   -2.0996 H   0  0  0  0  0  0  0  0  0  0  0  0
  -10.1912   -2.1356   -3.1681 H   0  0  0  0  0  0  0  0  0  0  0  0
   -8.3688    1.0084   -4.8380 H   0  0  0  0  0  0  0  0  0  0  0  0
   -9.8167    1.8134   -5.5364 H   0  0  0  0  0  0  0  0  0  0  0  0
   -9.2844   -1.2204   -5.4689 H   0  0  0  0  0  0  0  0  0  0  0  0
  -10.8159   -0.4517   -6.0533 H   0  0  0  0  0  0  0  0  0  0  0  0
   -9.2565   -0.1406   -6.9075 H   0  0  0  0  0  0  0  0  0  0  0  0
   -6.2468   -0.1603   -0.8914 H   0  0  0  0  0  0  0  0  0  0  0  0
   -1.8990   -3.8450    1.8026 H   0  0  0  0  0  0  0  0  0  0  0  0
   -0.3126   -5.4418    2.7657 H   0  0  0  0  0  0  0  0  0  0  0  0
    1.9027   -8.8374    0.9627 H   0  0  0  0  0  0  0  0  0  0  0  0
    1.1846   -7.2572    0.5002 H   0  0  0  0  0  0  0  0  0  0  0  0
    3.4207   -6.9694    1.5406 H   0  0  0  0  0  0  0  0  0  0  0  0
    2.1337   -6.2003    2.5388 H   0  0  0  0  0  0  0  0  0  0  0  0
    2.8499   -7.7918    3.0442 H   0  0  0  0  0  0  0  0  0  0  0  0
   -3.7104   -7.0310   -0.4775 H   0  0  0  0  0  0  0  0  0  0  0  0
   -3.8462   -3.8628    2.9552 H   0  0  0  0  0  0  0  0  0  0  0  0
   -7.1578   -0.6852    4.3287 H   0  0  0  0  0  0  0  0  0  0  0  0
   -6.7488    1.7350    3.6061 H   0  0  0  0  0  0  0  0  0  0  0  0
   -8.7845    2.7423    2.6940 H   0  0  0  0  0  0  0  0  0  0  0  0
   -9.4289    5.3211    3.0925 H   0  0  0  0  0  0  0  0  0  0  0  0
  -11.0444    6.0993    3.1346 H   0  0  0  0  0  0  0  0  0  0  0  0
  -10.8770    6.0436    5.7237 H   0  0  0  0  0  0  0  0  0  0  0  0
   -9.7779    7.1837    4.8710 H   0  0  0  0  0  0  0  0  0  0  0  0
   -9.1350    5.6205    5.4945 H   0  0  0  0  0  0  0  0  0  0  0  0
   -8.4340    1.9156    7.5742 H   0  0  0  0  0  0  0  0  0  0  0  0
   -1.7703   -1.6789    6.8223 H   0  0  0  0  0  0  0  0  0  0  0  0
    0.6839   -1.7393    6.7295 H   0  0  0  0  0  0  0  0  0  0  0  0
    2.3168    1.8291    4.8771 H   0  0  0  0  0  0  0  0  0  0  0  0
    4.0252    1.3119    5.0046 H   0  0  0  0  0  0  0  0  0  0  0  0
    3.4940   -0.9235    4.1708 H   0  0  0  0  0  0  0  0  0  0  0  0
    1.7210   -0.5668    4.1980 H   0  0  0  0  0  0  0  0  0  0  0  0
    2.7963    0.3066    3.0521 H   0  0  0  0  0  0  0  0  0  0  0  0
   -1.6349    2.6411    6.6397 H   0  0  0  0  0  0  0  0  0  0  0  0
   -2.5592    2.2582    8.9114 H   0  0  0  0  0  0  0  0  0  0  0  0
   -4.2192    4.0733    9.7319 H   0  0  0  0  0  0  0  0  0  0  0  0
  1  2  2  0
  2  3  1  0
  3  4  2  0
  4  5  1  0
  5  6  2  0
  6  7  1  0
  7  8  2  0
  8  9  1  0
  9 10  1  0
 10 11  1  0
  8 12  1  0
 12 13  1  0
 12 14  2  0
  4 15  1  0
 15 16  2  0
 16 17  1  0
 17 18  1  0
 18 19  2  0
 19 20  1  0
 20 21  2  0
 21 22  1  0
 22 23  1  0
 23 24  1  0
 21 25  1  0
 25 26  2  0
 25 27  1  0
 17 28  2  0
 28 29  1  0
 16 30  1  0
 30 31  2  0
 31 32  1  0
 31 33  1  0
 33 34  1  0
 34 35  1  0
 35 36  2  0
 36 37  1  0
 37 38  1  0
 38 39  2  0
 39 40  1  0
 40 41  1  0
 40 42  1  0
 40 43  1  0
 39 44  1  0
 44 45  1  0
 45 46  3  0
 44 47  2  0
 35 48  1  0
 48 49  2  3
 49 50  1  0
 50 51  1  0
 51 52  1  0
 52 53  2  0
 53 54  1  0
 54 55  1  0
 55 56  2  0
 56 57  1  0
 57 58  1  0
 57 59  1  0
 57 60  1  0
 56 61  1  0
 61 62  1  0
 62 63  3  0
 61 64  2  0
 52 65  1  0
 65 66  2  3
 66 67  1  0
 67 68  2  0
 68 69  1  0
 69 70  2  0
 70 71  1  0
 71 72  2  0
 72 73  1  0
 73 74  2  0
 74 75  1  0
 75 76  1  0
 76 77  1  0
 74 78  1  0
 78 79  1  0
 78 80  2  0
 70 81  1  0
 81 82  2  0
 82 83  1  0
 83 84  1  0
 84 85  2  0
 85 86  1  0
 86 87  2  0
 87 88  1  0
 88 89  1  0
 89 90  1  0
 87 91  1  0
 91 92  2  0
 91 93  1  0
 83 94  2  0
 94 95  1  0
 82 96  1  0
 96 97  2  0
 97 98  1  0
 97 99  1  0
 99100  2  0
100101  1  0
101102  2  0
102103  1  0
103104  2  0
104105  1  0
105106  2  0
106107  1  0
107108  1  0
108109  1  0
106110  1  0
110111  1  0
110112  2  0
102113  1  0
113114  2  0
114115  1  0
115116  1  0
116117  2  0
117118  1  0
118119  2  0
119120  1  0
120121  1  0
121122  1  0
119123  1  0
123124  2  0
123125  1  0
115126  2  0
126127  1  0
114128  1  0
128129  2  0
129130  1  0
129131  1  0
131132  2  0
132133  1  0
133134  2  0
134135  1  0
135136  2  0
136137  1  0
137138  2  0
138139  1  0
139140  1  0
140141  1  0
138142  1  0
142143  1  0
142144  2  0
134145  1  0
145146  2  0
146147  1  0
147148  1  0
148149  2  0
149150  1  0
150151  2  0
151152  1  0
152153  1  0
153154  1  0
151155  1  0
155156  2  0
155157  1  0
147158  2  0
158159  1  0
146160  1  0
160161  2  0
161162  1  0
 29  1  1  0
 37 33  2  0
 54 50  2  0
 95 67  1  0
127 99  1  0
159131  1  0
 28  3  1  0
 47 36  1  0
 64 53  1  0
 94 69  1  0
126101  1  0
158133  1  0
 14  5  1  0
 32 15  1  0
 80 71  1  0
 98 81  1  0
112103  1  0
130113  1  0
144135  1  0
162145  1  0
 26 18  1  0
 92 84  1  0
124116  1  0
156148  1  0
  1163  1  0
  2164  1  0
  6165  1  0
  7166  1  0
 10167  1  0
 10168  1  0
 11169  1  0
 11170  1  0
 11171  1  0
 14172  1  0
 19173  1  0
 20174  1  0
 23175  1  0
 23176  1  0
 24177  1  0
 24178  1  0
 24179  1  0
 26180  1  0
 30181  1  0
 38182  1  0
 47183  1  0
 48184  1  0
 49185  1  0
 55186  1  0
 64187  1  0
 65188  1  0
 66189  1  0
 68190  1  0
 72191  1  0
 73192  1  0
 76193  1  0
 76194  1  0
 77195  1  0
 77196  1  0
 77197  1  0
 80198  1  0
 85199  1  0
 86200  1  0
 89201  1  0
 89202  1  0
 90203  1  0
 90204  1  0
 90205  1  0
 92206  1  0
 96207  1  0
100208  1  0
104209  1  0
105210  1  0
108211  1  0
108212  1  0
109213  1  0
109214  1  0
109215  1  0
112216  1  0
117217  1  0
118218  1  0
121219  1  0
121220  1  0
122221  1  0
122222  1  0
122223  1  0
124224  1  0
128225  1  0
132226  1  0
136227  1  0
137228  1  0
140229  1  0
140230  1  0
141231  1  0
141232  1  0
141233  1  0
144234  1  0
149235  1  0
150236  1  0
153237  1  0
153238  1  0
154239  1  0
154240  1  0
154241  1  0
156242  1  0
160243  1  0
161244  1  0
M  END

