
     RDKit          3D

236259  0  0  0  0  0  0  0  0999 V2000
    1.8658   -3.0292   11.0339 C   0  0  0  0  0  0  0  0  0  0  0  0
    0.7443   -2.2088   10.9524 C   0  0  0  0  0  0  0  0  0  0  0  0
   -0.1152   -2.5487    9.8944 C   0  0  0  0  0  0  0  0  0  0  0  0
   -1.3155   -1.8929    9.5402 C   0  0  0  0  0  0  0  0  0  0  0  0
   -1.8116   -0.7143   10.2814 C   0  0  0  0  0  0  0  0  0  0  0  0
   -2.1583   -0.8233   11.6376 C   0  0  0  0  0  0  0  0  0  0  0  0
   -2.5926    0.3005   12.3447 C   0  0  0  0  0  0  0  0  0  0  0  0
   -2.6715    1.5456   11.7092 C   0  0  0  0  0  0  0  0  0  0  0  0
   -3.1704    2.9928   12.6476 S   0  0  0  0  0  0  0  0  0  0  0  0
   -1.4997    3.3390   13.3092 C   0  0  0  0  0  0  0  0  0  0  0  0
   -0.6568    4.1037   12.2972 C   0  0  0  0  0  0  0  0  0  0  0  0
   -2.3632    1.6519   10.3455 C   0  0  0  0  0  0  0  0  0  0  0  0
   -2.4721    2.8430    9.7055 F   0  0  0  0  0  0  0  0  0  0  0  0
   -1.9265    0.5276    9.6378 C   0  0  0  0  0  0  0  0  0  0  0  0
   -2.0050   -2.3929    8.4215 C   0  0  0  0  0  0  0  0  0  0  0  0
   -1.5415   -3.4825    7.6777 C   0  0  0  0  0  0  0  0  0  0  0  0
   -0.3369   -4.1270    8.0211 C   0  0  0  0  0  0  0  0  0  0  0  0
    0.2062   -5.2337    7.2078 C   0  0  0  0  0  0  0  0  0  0  0  0
   -0.4856   -6.4496    7.1187 C   0  0  0  0  0  0  0  0  0  0  0  0
   -0.0035   -7.4752    6.2997 C   0  0  0  0  0  0  0  0  0  0  0  0
    1.1716   -7.2922    5.5606 C   0  0  0  0  0  0  0  0  0  0  0  0
    1.7681   -8.6146    4.5030 S   0  0  0  0  0  0  0  0  0  0  0  0
    2.6892   -9.4835    5.8233 C   0  0  0  0  0  0  0  0  0  0  0  0
    4.0530   -8.8456    6.0529 C   0  0  0  0  0  0  0  0  0  0  0  0
    1.8600   -6.0758    5.6414 C   0  0  0  0  0  0  0  0  0  0  0  0
    1.3842   -5.0525    6.4660 C   0  0  0  0  0  0  0  0  0  0  0  0
    2.9777   -5.8672    4.8986 F   0  0  0  0  0  0  0  0  0  0  0  0
    0.3502   -3.6308    9.1416 C   0  0  0  0  0  0  0  0  0  0  0  0
    1.8025   -4.1681    9.7915 S   0  0  0  0  0  0  0  0  0  0  0  0
   -2.3578   -3.7891    6.5812 C   0  0  0  0  0  0  0  0  0  0  0  0
   -3.4645   -2.9472    6.4681 C   0  0  0  0  0  0  0  0  0  0  0  0
   -3.4270   -1.8164    7.7233 S   0  0  0  0  0  0  0  0  0  0  0  0
   -4.4150   -2.9447    5.3453 C   0  0  0  0  0  0  0  0  0  0  0  0
   -4.4558   -3.9002    4.3310 C   0  0  0  0  0  0  0  0  0  0  0  0
   -5.2754   -3.5278    3.2576 C   0  0  0  0  0  0  0  0  0  0  0  0
   -5.3700   -4.2028    2.0278 C   0  0  0  0  0  0  0  0  0  0  0  0
   -4.5807   -5.4190    1.7592 C   0  0  0  0  0  0  0  0  0  0  0  0
   -3.4300   -5.3466    0.9600 C   0  0  0  0  0  0  0  0  0  0  0  0
   -2.6646   -6.4914    0.7237 C   0  0  0  0  0  0  0  0  0  0  0  0
   -3.0486   -7.7196    1.2760 C   0  0  0  0  0  0  0  0  0  0  0  0
   -2.0424   -9.1794    0.9840 S   0  0  0  0  0  0  0  0  0  0  0  0
   -2.7458   -9.5516   -0.6617 C   0  0  0  0  0  0  0  0  0  0  0  0
   -4.1060  -10.2265   -0.5449 C   0  0  0  0  0  0  0  0  0  0  0  0
   -4.1929   -7.7934    2.0825 C   0  0  0  0  0  0  0  0  0  0  0  0
   -4.5591   -8.9716    2.6485 F   0  0  0  0  0  0  0  0  0  0  0  0
   -4.9582   -6.6480    2.3216 C   0  0  0  0  0  0  0  0  0  0  0  0
   -6.0725   -3.5544    1.0004 C   0  0  0  0  0  0  0  0  0  0  0  0
   -6.6543   -2.2951    1.1566 C   0  0  0  0  0  0  0  0  0  0  0  0
   -6.6031   -1.6389    2.4093 C   0  0  0  0  0  0  0  0  0  0  0  0
   -7.1486   -0.2809    2.6065 C   0  0  0  0  0  0  0  0  0  0  0  0
   -6.6302    0.8075    1.8904 C   0  0  0  0  0  0  0  0  0  0  0  0
   -7.1765    2.0830    2.0556 C   0  0  0  0  0  0  0  0  0  0  0  0
   -8.2438    2.2810    2.9419 C   0  0  0  0  0  0  0  0  0  0  0  0
   -8.9659    3.9172    3.1223 S   0  0  0  0  0  0  0  0  0  0  0  0
  -10.3073    3.6441    1.9100 C   0  0  0  0  0  0  0  0  0  0  0  0
   -9.8174    3.8786    0.4869 C   0  0  0  0  0  0  0  0  0  0  0  0
   -8.7336    1.2025    3.6932 C   0  0  0  0  0  0  0  0  0  0  0  0
   -8.1906   -0.0730    3.5228 C   0  0  0  0  0  0  0  0  0  0  0  0
   -9.7506    1.3868    4.5731 F   0  0  0  0  0  0  0  0  0  0  0  0
   -5.9014   -2.2897    3.4418 C   0  0  0  0  0  0  0  0  0  0  0  0
   -5.4243   -1.6546    4.9277 S   0  0  0  0  0  0  0  0  0  0  0  0
   -7.0935   -1.7382   -0.0624 C   0  0  0  0  0  0  0  0  0  0  0  0
   -6.7933   -2.5307   -1.1741 C   0  0  0  0  0  0  0  0  0  0  0  0
   -6.0894   -3.9636   -0.6228 S   0  0  0  0  0  0  0  0  0  0  0  0
   -6.4805   -1.9670   -2.5010 C   0  0  0  0  0  0  0  0  0  0  0  0
   -5.3677   -2.3879   -3.2281 C   0  0  0  0  0  0  0  0  0  0  0  0
   -4.8260   -1.3955   -4.0524 C   0  0  0  0  0  0  0  0  0  0  0  0
   -3.5583   -1.4565   -4.6617 C   0  0  0  0  0  0  0  0  0  0  0  0
   -2.7247   -2.6722   -4.5610 C   0  0  0  0  0  0  0  0  0  0  0  0
   -1.6498   -2.7169   -3.6577 C   0  0  0  0  0  0  0  0  0  0  0  0
   -0.9643   -3.9159   -3.4418 C   0  0  0  0  0  0  0  0  0  0  0  0
   -1.3410   -5.0768   -4.1300 C   0  0  0  0  0  0  0  0  0  0  0  0
   -0.5004   -6.6316   -3.8017 S   0  0  0  0  0  0  0  0  0  0  0  0
    0.9439   -6.2813   -4.8649 C   0  0  0  0  0  0  0  0  0  0  0  0
    1.2959   -7.5166   -5.6818 C   0  0  0  0  0  0  0  0  0  0  0  0
   -2.4015   -5.0318   -5.0450 C   0  0  0  0  0  0  0  0  0  0  0  0
   -2.8205   -6.1594   -5.6661 F   0  0  0  0  0  0  0  0  0  0  0  0
   -3.0998   -3.8344   -5.2462 C   0  0  0  0  0  0  0  0  0  0  0  0
   -3.0635   -0.2653   -5.2144 C   0  0  0  0  0  0  0  0  0  0  0  0
   -3.7991    0.9257   -5.2277 C   0  0  0  0  0  0  0  0  0  0  0  0
   -5.0988    0.9664   -4.6752 C   0  0  0  0  0  0  0  0  0  0  0  0
   -5.9259    2.1893   -4.7269 C   0  0  0  0  0  0  0  0  0  0  0  0
   -6.3794    2.8048   -3.5501 C   0  0  0  0  0  0  0  0  0  0  0  0
   -7.2580    3.8906   -3.6173 C   0  0  0  0  0  0  0  0  0  0  0  0
   -7.6933    4.3664   -4.8605 C   0  0  0  0  0  0  0  0  0  0  0  0
   -8.8988    5.6974   -4.9375 S   0  0  0  0  0  0  0  0  0  0  0  0
  -10.3527    4.5896   -5.0405 C   0  0  0  0  0  0  0  0  0  0  0  0
  -10.7813    4.1153   -3.6571 C   0  0  0  0  0  0  0  0  0  0  0  0
   -7.1978    3.7927   -6.0381 C   0  0  0  0  0  0  0  0  0  0  0  0
   -6.3193    2.7062   -5.9715 C   0  0  0  0  0  0  0  0  0  0  0  0
   -7.5924    4.2593   -7.2506 F   0  0  0  0  0  0  0  0  0  0  0  0
   -5.5626   -0.2108   -4.0550 C   0  0  0  0  0  0  0  0  0  0  0  0
   -6.8519   -0.3884   -2.9847 S   0  0  0  0  0  0  0  0  0  0  0  0
   -3.0425    2.0336   -5.6560 C   0  0  0  0  0  0  0  0  0  0  0  0
   -1.7203    1.7021   -5.9535 C   0  0  0  0  0  0  0  0  0  0  0  0
   -1.4954    0.0508   -5.7121 S   0  0  0  0  0  0  0  0  0  0  0  0
   -0.6064    2.6554   -5.9992 C   0  0  0  0  0  0  0  0  0  0  0  0
    0.7411    2.5262   -5.0092 S   0  0  0  0  0  0  0  0  0  0  0  0
    1.5298    3.8875   -5.5758 C   0  0  0  0  0  0  0  0  0  0  0  0
    0.7663    4.4601   -6.5915 C   0  0  0  0  0  0  0  0  0  0  0  0
   -0.4589    3.7858   -6.8071 C   0  0  0  0  0  0  0  0  0  0  0  0
   -1.3932    4.1547   -7.9307 C   0  0  2  0  0  0  0  0  0  0  0  0
   -1.1724    3.2953   -8.9936 F   0  0  0  0  0  0  0  0  0  0  0  0
   -1.1548    5.6004   -8.3887 C   0  0  0  0  0  0  0  0  0  0  0  0
    0.3381    5.8501   -8.6579 C   0  0  0  0  0  0  0  0  0  0  0  0
    1.1806    5.6789   -7.3816 C   0  0  1  0  0  0  0  0  0  0  0  0
    1.0438    6.8089   -6.5941 F   0  0  0  0  0  0  0  0  0  0  0  0
    2.8631    4.2846   -5.1186 C   0  0  0  0  0  0  0  0  0  0  0  0
    4.2240    3.3555   -5.4357 S   0  0  0  0  0  0  0  0  0  0  0  0
    5.2020    3.9793   -4.2148 C   0  0  0  0  0  0  0  0  0  0  0  0
    4.4554    4.9447   -3.5330 C   0  0  0  0  0  0  0  0  0  0  0  0
    3.1437    5.0966   -4.0152 C   0  0  0  0  0  0  0  0  0  0  0  0
    2.1209    5.8408   -3.1920 C   0  0  2  0  0  0  0  0  0  0  0  0
    1.0532    6.2442   -3.9748 F   0  0  0  0  0  0  0  0  0  0  0  0
    2.7148    7.0710   -2.4568 C   0  0  0  0  0  0  0  0  0  0  0  0
    4.2591    7.1172   -2.3707 C   0  0  0  0  0  0  0  0  0  0  0  0
    4.9062    5.7273   -2.3351 C   0  0  1  0  0  0  0  0  0  0  0  0
    4.5437    5.0617   -1.1770 F   0  0  0  0  0  0  0  0  0  0  0  0
    6.4803    3.3591   -3.8167 C   0  0  0  0  0  0  0  0  0  0  0  0
    7.2571    2.5595   -4.6517 C   0  0  0  0  0  0  0  0  0  0  0  0
    8.2915    1.8929   -3.9736 C   0  0  0  0  0  0  0  0  0  0  0  0
    9.2180    0.9978   -4.5453 C   0  0  0  0  0  0  0  0  0  0  0  0
    9.1541    0.6173   -5.9703 C   0  0  0  0  0  0  0  0  0  0  0  0
    8.0399   -0.0852   -6.4555 C   0  0  0  0  0  0  0  0  0  0  0  0
    7.9645   -0.4317   -7.8065 C   0  0  0  0  0  0  0  0  0  0  0  0
    8.9925   -0.0709   -8.6835 C   0  0  0  0  0  0  0  0  0  0  0  0
    8.8657   -0.4994  -10.4225 S   0  0  0  0  0  0  0  0  0  0  0  0
    7.9422    1.0146  -10.8521 C   0  0  0  0  0  0  0  0  0  0  0  0
    7.5976    1.0108  -12.3328 C   0  0  0  0  0  0  0  0  0  0  0  0
   10.1147    0.6170   -8.1992 C   0  0  0  0  0  0  0  0  0  0  0  0
   11.1239    0.9629   -9.0359 F   0  0  0  0  0  0  0  0  0  0  0  0
   10.1950    0.9594   -6.8450 C   0  0  0  0  0  0  0  0  0  0  0  0
   10.1702    0.4325   -3.6816 C   0  0  0  0  0  0  0  0  0  0  0  0
   10.2006    0.7017   -2.3095 C   0  0  0  0  0  0  0  0  0  0  0  0
    9.2629    1.5874   -1.7341 C   0  0  0  0  0  0  0  0  0  0  0  0
    9.2197    1.8312   -0.2794 C   0  0  0  0  0  0  0  0  0  0  0  0
    8.1150    1.4016    0.4723 C   0  0  0  0  0  0  0  0  0  0  0  0
    8.1023    1.5677    1.8589 C   0  0  0  0  0  0  0  0  0  0  0  0
    9.1922    2.1618    2.5076 C   0  0  0  0  0  0  0  0  0  0  0  0
    9.1737    2.3586    4.2933 S   0  0  0  0  0  0  0  0  0  0  0  0
   10.1069    0.8265    4.6462 C   0  0  0  0  0  0  0  0  0  0  0  0
    9.1907   -0.3903    4.6345 C   0  0  0  0  0  0  0  0  0  0  0  0
   10.2830    2.6215    1.7564 C   0  0  0  0  0  0  0  0  0  0  0  0
   10.2976    2.4528    0.3686 C   0  0  0  0  0  0  0  0  0  0  0  0
   11.3363    3.2160    2.3692 F   0  0  0  0  0  0  0  0  0  0  0  0
    8.3260    2.1725   -2.6051 C   0  0  0  0  0  0  0  0  0  0  0  0
    7.0766    3.2360   -2.2372 S   0  0  0  0  0  0  0  0  0  0  0  0
   11.1864   -0.0345   -1.6280 C   0  0  0  0  0  0  0  0  0  0  0  0
   11.9239   -0.8680   -2.4616 C   0  0  0  0  0  0  0  0  0  0  0  0
   11.3560   -0.7060   -4.0424 S   0  0  0  0  0  0  0  0  0  0  0  0
    2.6506   -2.9404   11.7698 H   0  0  0  0  0  0  0  0  0  0  0  0
    0.5691   -1.3896   11.6377 H   0  0  0  0  0  0  0  0  0  0  0  0
   -2.0840   -1.7770   12.1466 H   0  0  0  0  0  0  0  0  0  0  0  0
   -2.8499    0.2072   13.3923 H   0  0  0  0  0  0  0  0  0  0  0  0
   -0.9863    2.3974   13.5971 H   0  0  0  0  0  0  0  0  0  0  0  0
   -1.6091    3.9590   14.2233 H   0  0  0  0  0  0  0  0  0  0  0  0
    0.3278    4.3535   12.7443 H   0  0  0  0  0  0  0  0  0  0  0  0
   -0.4840    3.4900   11.3905 H   0  0  0  0  0  0  0  0  0  0  0  0
   -1.1700    5.0461   12.0100 H   0  0  0  0  0  0  0  0  0  0  0  0
   -1.6625    0.6255    8.5921 H   0  0  0  0  0  0  0  0  0  0  0  0
   -1.4013   -6.6002    7.6777 H   0  0  0  0  0  0  0  0  0  0  0  0
   -0.5471   -8.4080    6.2358 H   0  0  0  0  0  0  0  0  0  0  0  0
    2.1058   -9.4986    6.7694 H   0  0  0  0  0  0  0  0  0  0  0  0
    2.8363  -10.5372    5.5031 H   0  0  0  0  0  0  0  0  0  0  0  0
    3.9412   -7.8165    6.4528 H   0  0  0  0  0  0  0  0  0  0  0  0
    4.6262   -9.4514    6.7850 H   0  0  0  0  0  0  0  0  0  0  0  0
    4.6222   -8.8090    5.1006 H   0  0  0  0  0  0  0  0  0  0  0  0
    1.9226   -4.1155    6.5162 H   0  0  0  0  0  0  0  0  0  0  0  0
   -2.1240   -4.5655    5.8643 H   0  0  0  0  0  0  0  0  0  0  0  0
   -3.8469   -4.7945    4.3313 H   0  0  0  0  0  0  0  0  0  0  0  0
   -3.1180   -4.4023    0.5317 H   0  0  0  0  0  0  0  0  0  0  0  0
   -1.7733   -6.4258    0.1126 H   0  0  0  0  0  0  0  0  0  0  0  0
   -2.0478  -10.2402   -1.1815 H   0  0  0  0  0  0  0  0  0  0  0  0
   -2.8291   -8.6270   -1.2712 H   0  0  0  0  0  0  0  0  0  0  0  0
   -4.0302  -11.1305    0.0970 H   0  0  0  0  0  0  0  0  0  0  0  0
   -4.4565  -10.5302   -1.5539 H   0  0  0  0  0  0  0  0  0  0  0  0
   -4.8503   -9.5306   -0.1086 H   0  0  0  0  0  0  0  0  0  0  0  0
   -5.8379   -6.7112    2.9497 H   0  0  0  0  0  0  0  0  0  0  0  0
   -5.8069    0.6668    1.1994 H   0  0  0  0  0  0  0  0  0  0  0  0
   -6.7778    2.9151    1.4860 H   0  0  0  0  0  0  0  0  0  0  0  0
  -11.1220    4.3658    2.1293 H   0  0  0  0  0  0  0  0  0  0  0  0
  -10.7269    2.6197    2.0048 H   0  0  0  0  0  0  0  0  0  0  0  0
   -9.0548    3.1223    0.2108 H   0  0  0  0  0  0  0  0  0  0  0  0
  -10.6691    3.7926   -0.2204 H   0  0  0  0  0  0  0  0  0  0  0  0
   -9.3784    4.8952    0.3987 H   0  0  0  0  0  0  0  0  0  0  0  0
   -8.5892   -0.9016    4.0938 H   0  0  0  0  0  0  0  0  0  0  0  0
   -7.4669   -0.7278   -0.1542 H   0  0  0  0  0  0  0  0  0  0  0  0
   -4.8611   -3.3185   -3.0270 H   0  0  0  0  0  0  0  0  0  0  0  0
   -1.3670   -1.8344   -3.0985 H   0  0  0  0  0  0  0  0  0  0  0  0
   -0.1478   -3.9463   -2.7303 H   0  0  0  0  0  0  0  0  0  0  0  0
    1.8021   -6.0120   -4.2140 H   0  0  0  0  0  0  0  0  0  0  0  0
    0.7524   -5.4334   -5.5587 H   0  0  0  0  0  0  0  0  0  0  0  0
    2.2258   -7.3272   -6.2570 H   0  0  0  0  0  0  0  0  0  0  0  0
    0.4719   -7.7493   -6.3899 H   0  0  0  0  0  0  0  0  0  0  0  0
    1.4664   -8.3876   -5.0114 H   0  0  0  0  0  0  0  0  0  0  0  0
   -3.9493   -3.8205   -5.9167 H   0  0  0  0  0  0  0  0  0  0  0  0
   -6.0685    2.4369   -2.5793 H   0  0  0  0  0  0  0  0  0  0  0  0
   -7.6209    4.3417   -2.7020 H   0  0  0  0  0  0  0  0  0  0  0  0
  -11.1875    5.1574   -5.5007 H   0  0  0  0  0  0  0  0  0  0  0  0
  -10.1400    3.7150   -5.6929 H   0  0  0  0  0  0  0  0  0  0  0  0
  -10.9771    4.9877   -2.9965 H   0  0  0  0  0  0  0  0  0  0  0  0
  -11.7104    3.5142   -3.7413 H   0  0  0  0  0  0  0  0  0  0  0  0
   -9.9952    3.4794   -3.2041 H   0  0  0  0  0  0  0  0  0  0  0  0
   -5.9766    2.2427   -6.8887 H   0  0  0  0  0  0  0  0  0  0  0  0
   -3.3995    3.0553   -5.6142 H   0  0  0  0  0  0  0  0  0  0  0  0
   -2.4475    4.0546   -7.6062 H   0  0  0  0  0  0  0  0  0  0  0  0
   -1.5138    6.3002   -7.6025 H   0  0  0  0  0  0  0  0  0  0  0  0
   -1.7384    5.7970   -9.3147 H   0  0  0  0  0  0  0  0  0  0  0  0
    0.6965    5.1397   -9.4373 H   0  0  0  0  0  0  0  0  0  0  0  0
    0.4746    6.8813   -9.0525 H   0  0  0  0  0  0  0  0  0  0  0  0
    2.2462    5.5803   -7.6734 H   0  0  0  0  0  0  0  0  0  0  0  0
    1.7322    5.1285   -2.4341 H   0  0  0  0  0  0  0  0  0  0  0  0
    2.3750    8.0034   -2.9656 H   0  0  0  0  0  0  0  0  0  0  0  0
    2.2919    7.1098   -1.4256 H   0  0  0  0  0  0  0  0  0  0  0  0
    4.6534    7.6677   -3.2574 H   0  0  0  0  0  0  0  0  0  0  0  0
    4.5655    7.6954   -1.4722 H   0  0  0  0  0  0  0  0  0  0  0  0
    6.0100    5.8538   -2.3520 H   0  0  0  0  0  0  0  0  0  0  0  0
    7.0579    2.4474   -5.7096 H   0  0  0  0  0  0  0  0  0  0  0  0
    7.2345   -0.3638   -5.7863 H   0  0  0  0  0  0  0  0  0  0  0  0
    7.1009   -0.9727   -8.1709 H   0  0  0  0  0  0  0  0  0  0  0  0
    8.5589    1.9071  -10.6189 H   0  0  0  0  0  0  0  0  0  0  0  0
    7.0035    1.0619  -10.2611 H   0  0  0  0  0  0  0  0  0  0  0  0
    7.0360    1.9345  -12.5898 H   0  0  0  0  0  0  0  0  0  0  0  0
    8.5276    0.9742  -12.9396 H   0  0  0  0  0  0  0  0  0  0  0  0
    6.9653    0.1300  -12.5724 H   0  0  0  0  0  0  0  0  0  0  0  0
   11.0612    1.4979   -6.4770 H   0  0  0  0  0  0  0  0  0  0  0  0
    7.2749    0.9237   -0.0147 H   0  0  0  0  0  0  0  0  0  0  0  0
    7.2481    1.2232    2.4295 H   0  0  0  0  0  0  0  0  0  0  0  0
   10.5573    0.9226    5.6568 H   0  0  0  0  0  0  0  0  0  0  0  0
   10.9348    0.6894    3.9160 H   0  0  0  0  0  0  0  0  0  0  0  0
    9.7601   -1.2875    4.9562 H   0  0  0  0  0  0  0  0  0  0  0  0
    8.3388   -0.2329    5.3324 H   0  0  0  0  0  0  0  0  0  0  0  0
    8.7983   -0.5695    3.6129 H   0  0  0  0  0  0  0  0  0  0  0  0
   11.1515    2.7960   -0.2026 H   0  0  0  0  0  0  0  0  0  0  0  0
   11.3508    0.0128   -0.5607 H   0  0  0  0  0  0  0  0  0  0  0  0
   12.7186   -1.5294   -2.1408 H   0  0  0  0  0  0  0  0  0  0  0  0
  1  2  2  0
  2  3  1  0
  3  4  2  0
  4  5  1  0
  5  6  2  0
  6  7  1  0
  7  8  2  0
  8  9  1  0
  9 10  1  0
 10 11  1  0
  8 12  1  0
 12 13  1  0
 12 14  2  0
  4 15  1  0
 15 16  2  0
 16 17  1  0
 17 18  1  0
 18 19  2  0
 19 20  1  0
 20 21  2  0
 21 22  1  0
 22 23  1  0
 23 24  1  0
 21 25  1  0
 25 26  2  0
 25 27  1  0
 17 28  2  0
 28 29  1  0
 16 30  1  0
 30 31  2  0
 31 32  1  0
 31 33  1  0
 33 34  2  0
 34 35  1  0
 35 36  2  0
 36 37  1  0
 37 38  2  0
 38 39  1  0
 39 40  2  0
 40 41  1  0
 41 42  1  0
 42 43  1  0
 40 44  1  0
 44 45  1  0
 44 46  2  0
 36 47  1  0
 47 48  2  0
 48 49  1  0
 49 50  1  0
 50 51  2  0
 51 52  1  0
 52 53  2  0
 53 54  1  0
 54 55  1  0
 55 56  1  0
 53 57  1  0
 57 58  2  0
 57 59  1  0
 49 60  2  0
 60 61  1  0
 48 62  1  0
 62 63  2  0
 63 64  1  0
 63 65  1  0
 65 66  2  0
 66 67  1  0
 67 68  2  0
 68 69  1  0
 69 70  2  0
 70 71  1  0
 71 72  2  0
 72 73  1  0
 73 74  1  0
 74 75  1  0
 72 76  1  0
 76 77  1  0
 76 78  2  0
 68 79  1  0
 79 80  2  0
 80 81  1  0
 81 82  1  0
 82 83  2  0
 83 84  1  0
 84 85  2  0
 85 86  1  0
 86 87  1  0
 87 88  1  0
 85 89  1  0
 89 90  2  0
 89 91  1  0
 81 92  2  0
 92 93  1  0
 80 94  1  0
 94 95  2  0
 95 96  1  0
 95 97  1  0
 97 98  1  0
 98 99  1  0
 99100  2  0
100101  1  0
101102  1  0
102103  1  0
102104  1  0
104105  1  0
105106  1  0
106107  1  0
 99108  1  0
108109  1  0
109110  1  0
110111  2  0
111112  1  0
112113  1  0
113114  1  0
113115  1  0
115116  1  0
116117  1  0
117118  1  0
110119  1  0
119120  2  0
120121  1  0
121122  2  0
122123  1  0
123124  2  0
124125  1  0
125126  2  0
126127  1  0
127128  1  0
128129  1  0
126130  1  0
130131  1  0
130132  2  0
122133  1  0
133134  2  0
134135  1  0
135136  1  0
136137  2  0
137138  1  0
138139  2  0
139140  1  0
140141  1  0
141142  1  0
139143  1  0
143144  2  0
143145  1  0
135146  2  0
146147  1  0
134148  1  0
148149  2  0
149150  1  0
 29  1  1  0
 61 33  1  0
 93 65  1  0
101 97  2  0
112108  2  0
147119  1  0
 28  3  1  0
 60 35  1  0
 92 67  1  0
106100  1  0
117111  1  0
146121  1  0
 14  5  1  0
 32 15  1  0
 46 37  1  0
 64 47  1  0
 78 69  1  0
 96 79  1  0
132123  1  0
150133  1  0
 26 18  1  0
 58 50  1  0
 90 82  1  0
144136  1  0
  1151  1  0
  2152  1  0
  6153  1  0
  7154  1  0
 10155  1  0
 10156  1  0
 11157  1  0
 11158  1  0
 11159  1  0
 14160  1  0
 19161  1  0
 20162  1  0
 23163  1  0
 23164  1  0
 24165  1  0
 24166  1  0
 24167  1  0
 26168  1  0
 30169  1  0
 34170  1  0
 38171  1  0
 39172  1  0
 42173  1  0
 42174  1  0
 43175  1  0
 43176  1  0
 43177  1  0
 46178  1  0
 51179  1  0
 52180  1  0
 55181  1  0
 55182  1  0
 56183  1  0
 56184  1  0
 56185  1  0
 58186  1  0
 62187  1  0
 66188  1  0
 70189  1  0
 71190  1  0
 74191  1  0
 74192  1  0
 75193  1  0
 75194  1  0
 75195  1  0
 78196  1  0
 83197  1  0
 84198  1  0
 87199  1  0
 87200  1  0
 88201  1  0
 88202  1  0
 88203  1  0
 90204  1  0
 94205  1  0
102206  1  1
104207  1  0
104208  1  0
105209  1  0
105210  1  0
106211  1  6
113212  1  1
115213  1  0
115214  1  0
116215  1  0
116216  1  0
117217  1  6
120218  1  0
124219  1  0
125220  1  0
128221  1  0
128222  1  0
129223  1  0
129224  1  0
129225  1  0
132226  1  0
137227  1  0
138228  1  0
141229  1  0
141230  1  0
142231  1  0
142232  1  0
142233  1  0
144234  1  0
148235  1  0
149236  1  0
M  END

