
     RDKit          3D

161178  0  0  0  0  0  0  0  0999 V2000
   10.3398   -3.9238    5.1530 C   0  0  0  0  0  0  0  0  0  0  0  0
    9.7654   -3.3520    4.0211 C   0  0  0  0  0  0  0  0  0  0  0  0
    8.4161   -3.7046    3.8475 C   0  0  0  0  0  0  0  0  0  0  0  0
    7.5709   -3.2916    2.7967 C   0  0  0  0  0  0  0  0  0  0  0  0
    8.0116   -2.3316    1.7681 C   0  0  0  0  0  0  0  0  0  0  0  0
    8.0757   -2.6474    0.1160 S   0  0  0  0  0  0  0  0  0  0  0  0
    8.5207   -1.0930   -0.3483 C   0  0  0  0  0  0  0  0  0  0  0  0
    8.6802   -0.6457   -1.7687 C   0  0  0  0  0  0  0  0  0  0  0  0
    7.3378   -0.2292   -2.3570 C   0  0  0  0  0  0  0  0  0  0  0  0
    8.5936   -0.2904    0.7894 C   0  0  0  0  0  0  0  0  0  0  0  0
    8.9589    1.4282    0.7437 Cl  0  0  0  0  0  0  0  0  0  0  0  0
    8.3155   -0.9883    1.9771 C   0  0  0  0  0  0  0  0  0  0  0  0
    8.2683   -0.2152    3.5573 Cl  0  0  0  0  0  0  0  0  0  0  0  0
    6.2601   -3.7908    2.8013 C   0  0  0  0  0  0  0  0  0  0  0  0
    5.7732   -4.6220    3.8154 C   0  0  0  0  0  0  0  0  0  0  0  0
    6.6165   -5.0386    4.8659 C   0  0  0  0  0  0  0  0  0  0  0  0
    6.1397   -5.9406    5.9281 C   0  0  0  0  0  0  0  0  0  0  0  0
    4.9190   -5.5742    7.0274 S   0  0  0  0  0  0  0  0  0  0  0  0
    4.9489   -7.0523    7.8295 C   0  0  0  0  0  0  0  0  0  0  0  0
    4.0341   -7.4337    8.9540 C   0  0  0  0  0  0  0  0  0  0  0  0
    2.7691   -8.1032    8.4247 C   0  0  0  0  0  0  0  0  0  0  0  0
    5.9111   -7.8673    7.2300 C   0  0  0  0  0  0  0  0  0  0  0  0
    6.5815   -7.2416    6.1651 C   0  0  0  0  0  0  0  0  0  0  0  0
    7.8060   -8.0449    5.1894 Cl  0  0  0  0  0  0  0  0  0  0  0  0
    6.2387   -9.5193    7.7347 Cl  0  0  0  0  0  0  0  0  0  0  0  0
    7.9411   -4.5650    4.8426 C   0  0  0  0  0  0  0  0  0  0  0  0
    9.1812   -4.8636    5.9400 S   0  0  0  0  0  0  0  0  0  0  0  0
    4.4220   -4.9667    3.6435 C   0  0  0  0  0  0  0  0  0  0  0  0
    3.8648   -4.4055    2.4975 C   0  0  0  0  0  0  0  0  0  0  0  0
    5.0308   -3.4881    1.6956 S   0  0  0  0  0  0  0  0  0  0  0  0
    2.4649   -4.5203    2.0831 C   0  0  0  0  0  0  0  0  0  0  0  0
    1.3729   -4.5795    2.9470 C   0  0  0  0  0  0  0  0  0  0  0  0
    0.1431   -4.5457    2.2695 C   0  0  0  0  0  0  0  0  0  0  0  0
   -1.1399   -4.5196    2.8570 C   0  0  0  0  0  0  0  0  0  0  0  0
   -1.3198   -4.4492    4.3152 C   0  0  0  0  0  0  0  0  0  0  0  0
   -2.0362   -5.6417    5.2619 S   0  0  0  0  0  0  0  0  0  0  0  0
   -1.8279   -4.8477    6.7330 C   0  0  0  0  0  0  0  0  0  0  0  0
   -2.1659   -5.4294    8.0726 C   0  0  0  0  0  0  0  0  0  0  0  0
   -0.9724   -6.1868    8.6457 C   0  0  0  0  0  0  0  0  0  0  0  0
   -1.1816   -3.6337    6.4995 C   0  0  0  0  0  0  0  0  0  0  0  0
   -0.7427   -2.5038    7.7751 Cl  0  0  0  0  0  0  0  0  0  0  0  0
   -0.9005   -3.4080    5.1427 C   0  0  0  0  0  0  0  0  0  0  0  0
   -0.1269   -1.9432    4.5484 Cl  0  0  0  0  0  0  0  0  0  0  0  0
   -2.2397   -4.4637    1.9838 C   0  0  0  0  0  0  0  0  0  0  0  0
   -2.0916   -4.4304    0.5943 C   0  0  0  0  0  0  0  0  0  0  0  0
   -0.8140   -4.4877    0.0118 C   0  0  0  0  0  0  0  0  0  0  0  0
   -0.6419   -4.5307   -1.4437 C   0  0  0  0  0  0  0  0  0  0  0  0
   -0.8460   -5.9038   -2.3873 S   0  0  0  0  0  0  0  0  0  0  0  0
   -0.5453   -5.1530   -3.8656 C   0  0  0  0  0  0  0  0  0  0  0  0
   -0.6454   -5.8213   -5.2078 C   0  0  0  0  0  0  0  0  0  0  0  0
    0.0008   -7.2034   -5.2086 C   0  0  0  0  0  0  0  0  0  0  0  0
   -0.3206   -3.7942   -3.6277 C   0  0  0  0  0  0  0  0  0  0  0  0
   -0.3673   -3.4511   -2.2676 C   0  0  0  0  0  0  0  0  0  0  0  0
   -0.1763   -1.8146   -1.6636 Cl  0  0  0  0  0  0  0  0  0  0  0  0
   -0.0536   -2.6126   -4.9021 Cl  0  0  0  0  0  0  0  0  0  0  0  0
    0.2866   -4.5188    0.8789 C   0  0  0  0  0  0  0  0  0  0  0  0
    1.9203   -4.4702    0.4862 S   0  0  0  0  0  0  0  0  0  0  0  0
   -3.3038   -4.2838   -0.0932 C   0  0  0  0  0  0  0  0  0  0  0  0
   -4.3963   -4.2012    0.7635 C   0  0  0  0  0  0  0  0  0  0  0  0
   -3.8755   -4.3304    2.3641 S   0  0  0  0  0  0  0  0  0  0  0  0
   -5.7938   -4.0569    0.3446 C   0  0  0  0  0  0  0  0  0  0  0  0
   -6.8080   -4.7504    0.8850 N   0  0  0  0  0  0  0  0  0  0  0  0
   -7.9072   -4.3522    0.2188 C   0  0  0  0  0  0  0  0  0  0  0  0
   -7.6398   -3.4158   -0.7149 N   0  0  0  0  0  0  0  0  0  0  0  0
   -6.3041   -3.2284   -0.6400 C   0  0  0  0  0  0  0  0  0  0  0  0
   -5.5852   -2.1564   -1.3626 C   0  0  0  0  0  0  0  0  0  0  0  0
   -6.2210   -1.3898   -2.2580 C   0  0  0  0  0  0  0  0  0  0  0  0
   -5.6697   -0.1510   -2.8392 C   0  0  0  0  0  0  0  0  0  0  0  0
   -4.4227    0.4451   -2.6005 C   0  0  0  0  0  0  0  0  0  0  0  0
   -4.3143    1.7242   -3.1828 C   0  0  0  0  0  0  0  0  0  0  0  0
   -3.2120    2.5989   -3.0955 C   0  0  0  0  0  0  0  0  0  0  0  0
   -1.9446    2.2143   -2.4588 C   0  0  0  0  0  0  0  0  0  0  0  0
   -1.3824    2.8257   -0.9931 S   0  0  0  0  0  0  0  0  0  0  0  0
    0.1804    2.2096   -1.1305 C   0  0  0  0  0  0  0  0  0  0  0  0
    1.2848    2.4629   -0.1496 C   0  0  0  0  0  0  0  0  0  0  0  0
    1.9529    3.8062   -0.4238 C   0  0  0  0  0  0  0  0  0  0  0  0
    0.2945    1.5624   -2.3599 C   0  0  0  0  0  0  0  0  0  0  0  0
    1.7998    0.8809   -2.9655 Cl  0  0  0  0  0  0  0  0  0  0  0  0
   -0.9009    1.5544   -3.0971 C   0  0  0  0  0  0  0  0  0  0  0  0
   -1.0437    0.8651   -4.7118 Cl  0  0  0  0  0  0  0  0  0  0  0  0
   -3.3495    3.8668   -3.6868 C   0  0  0  0  0  0  0  0  0  0  0  0
   -4.5062    4.2607   -4.3628 C   0  0  0  0  0  0  0  0  0  0  0  0
   -5.5950    3.3749   -4.4924 C   0  0  0  0  0  0  0  0  0  0  0  0
   -6.8153    3.7476   -5.2313 C   0  0  0  0  0  0  0  0  0  0  0  0
   -8.3639    3.8043   -4.5693 S   0  0  0  0  0  0  0  0  0  0  0  0
   -9.1452    4.2720   -5.9844 C   0  0  0  0  0  0  0  0  0  0  0  0
  -10.6286    4.4394   -6.1185 C   0  0  0  0  0  0  0  0  0  0  0  0
  -11.2904    3.1128   -6.4751 C   0  0  0  0  0  0  0  0  0  0  0  0
   -8.2029    4.3655   -7.0066 C   0  0  0  0  0  0  0  0  0  0  0  0
   -6.8944    4.0790   -6.5831 C   0  0  0  0  0  0  0  0  0  0  0  0
   -5.5103    4.0693   -7.6703 Cl  0  0  0  0  0  0  0  0  0  0  0  0
   -8.6033    4.7852   -8.6656 Cl  0  0  0  0  0  0  0  0  0  0  0  0
   -5.4676    2.1212   -3.8702 C   0  0  0  0  0  0  0  0  0  0  0  0
   -6.6053    0.8896   -3.7777 S   0  0  0  0  0  0  0  0  0  0  0  0
   -4.4486    5.5847   -4.8285 C   0  0  0  0  0  0  0  0  0  0  0  0
   -3.2464    6.2239   -4.5273 C   0  0  0  0  0  0  0  0  0  0  0  0
   -2.2485    5.1380   -3.7009 S   0  0  0  0  0  0  0  0  0  0  0  0
   -2.9243    7.6156   -4.9070 C   0  0  0  0  0  0  0  0  0  0  0  0
   -3.5006    8.2427   -5.9472 N   0  0  0  0  0  0  0  0  0  0  0  0
   -2.9976    9.4907   -5.9477 C   0  0  0  0  0  0  0  0  0  0  0  0
   -2.1237    9.7011   -4.9436 N   0  0  0  0  0  0  0  0  0  0  0  0
   -2.0701    8.5220   -4.2847 C   0  0  0  0  0  0  0  0  0  0  0  0
   -1.2732    8.3162   -3.0559 C   0  0  0  0  0  0  0  0  0  0  0  0
   -0.5993    9.3169   -2.4759 C   0  0  0  0  0  0  0  0  0  0  0  0
    0.2046    9.1345   -1.2447 C   0  0  0  0  0  0  0  0  0  0  0  0
    0.1416    8.0618   -0.4315 N   0  0  0  0  0  0  0  0  0  0  0  0
    0.9243    8.3608    0.6210 C   0  0  0  0  0  0  0  0  0  0  0  0
    1.4867    9.5834    0.5272 N   0  0  0  0  0  0  0  0  0  0  0  0
    1.0461   10.0681   -0.6515 C   0  0  0  0  0  0  0  0  0  0  0  0
    1.4317   11.4052   -1.1423 C   0  0  0  0  0  0  0  0  0  0  0  0
    1.6607   11.6657   -2.4270 C   0  0  0  0  0  0  0  0  0  0  0  0
   11.3628   -3.7831    5.4739 H   0  0  0  0  0  0  0  0  0  0  0  0
   10.3128   -2.7052    3.3507 H   0  0  0  0  0  0  0  0  0  0  0  0
    9.1011   -1.4826   -2.3700 H   0  0  0  0  0  0  0  0  0  0  0  0
    9.3933    0.2043   -1.8243 H   0  0  0  0  0  0  0  0  0  0  0  0
    7.4757    0.0774   -3.4139 H   0  0  0  0  0  0  0  0  0  0  0  0
    6.6239   -1.0786   -2.3253 H   0  0  0  0  0  0  0  0  0  0  0  0
    6.9158    0.6260   -1.7887 H   0  0  0  0  0  0  0  0  0  0  0  0
    3.7516   -6.5208    9.5207 H   0  0  0  0  0  0  0  0  0  0  0  0
    4.5569   -8.1202    9.6547 H   0  0  0  0  0  0  0  0  0  0  0  0
    2.1892   -7.3867    7.8057 H   0  0  0  0  0  0  0  0  0  0  0  0
    3.0292   -8.9960    7.8148 H   0  0  0  0  0  0  0  0  0  0  0  0
    2.1418   -8.4282    9.2794 H   0  0  0  0  0  0  0  0  0  0  0  0
    3.8684   -5.6050    4.3202 H   0  0  0  0  0  0  0  0  0  0  0  0
    1.4721   -4.6003    4.0249 H   0  0  0  0  0  0  0  0  0  0  0  0
   -2.4638   -4.6172    8.7730 H   0  0  0  0  0  0  0  0  0  0  0  0
   -3.0286   -6.1233    7.9685 H   0  0  0  0  0  0  0  0  0  0  0  0
   -0.7390   -7.0699    8.0094 H   0  0  0  0  0  0  0  0  0  0  0  0
   -0.0792   -5.5283    8.6935 H   0  0  0  0  0  0  0  0  0  0  0  0
   -1.2114   -6.5386    9.6722 H   0  0  0  0  0  0  0  0  0  0  0  0
   -1.7162   -5.9184   -5.4848 H   0  0  0  0  0  0  0  0  0  0  0  0
   -0.1390   -5.2050   -5.9796 H   0  0  0  0  0  0  0  0  0  0  0  0
    1.0604   -7.1348   -4.8824 H   0  0  0  0  0  0  0  0  0  0  0  0
   -0.0270   -7.6313   -6.2312 H   0  0  0  0  0  0  0  0  0  0  0  0
   -0.5489   -7.8906   -4.5292 H   0  0  0  0  0  0  0  0  0  0  0  0
   -3.3858   -4.2338   -1.1715 H   0  0  0  0  0  0  0  0  0  0  0  0
   -6.7569   -5.4614    1.6491 H   0  0  0  0  0  0  0  0  0  0  0  0
   -8.9008   -4.7342    0.4190 H   0  0  0  0  0  0  0  0  0  0  0  0
   -4.5627   -1.9377   -1.0885 H   0  0  0  0  0  0  0  0  0  0  0  0
   -7.2430   -1.6275   -2.5213 H   0  0  0  0  0  0  0  0  0  0  0  0
   -3.6395   -0.0038   -2.0047 H   0  0  0  0  0  0  0  0  0  0  0  0
    2.0425    1.6516   -0.2158 H   0  0  0  0  0  0  0  0  0  0  0  0
    0.8707    2.4578    0.8800 H   0  0  0  0  0  0  0  0  0  0  0  0
    1.2246    4.6347   -0.2803 H   0  0  0  0  0  0  0  0  0  0  0  0
    2.7970    3.9484    0.2836 H   0  0  0  0  0  0  0  0  0  0  0  0
    2.3460    3.8389   -1.4620 H   0  0  0  0  0  0  0  0  0  0  0  0
  -10.8571    5.1909   -6.9056 H   0  0  0  0  0  0  0  0  0  0  0  0
  -11.0452    4.8124   -5.1600 H   0  0  0  0  0  0  0  0  0  0  0  0
  -11.0645    2.3508   -5.6971 H   0  0  0  0  0  0  0  0  0  0  0  0
  -10.9265    2.7496   -7.4584 H   0  0  0  0  0  0  0  0  0  0  0  0
  -12.3912    3.2502   -6.5261 H   0  0  0  0  0  0  0  0  0  0  0  0
   -5.2640    6.0749   -5.3414 H   0  0  0  0  0  0  0  0  0  0  0  0
   -4.1935    7.8552   -6.6229 H   0  0  0  0  0  0  0  0  0  0  0  0
   -3.2710   10.2468   -6.6700 H   0  0  0  0  0  0  0  0  0  0  0  0
   -1.2387    7.3366   -2.6170 H   0  0  0  0  0  0  0  0  0  0  0  0
   -0.6515   10.3049   -2.9092 H   0  0  0  0  0  0  0  0  0  0  0  0
   -0.4185    7.1905   -0.5485 H   0  0  0  0  0  0  0  0  0  0  0  0
    1.0708    7.6986    1.4645 H   0  0  0  0  0  0  0  0  0  0  0  0
    1.6211   12.1834   -0.4138 H   0  0  0  0  0  0  0  0  0  0  0  0
    1.5840   10.8968   -3.1839 H   0  0  0  0  0  0  0  0  0  0  0  0
    1.9760   12.6552   -2.7278 H   0  0  0  0  0  0  0  0  0  0  0  0
  1  2  2  0
  2  3  1  0
  3  4  2  0
  4  5  1  0
  5  6  1  0
  6  7  1  0
  7  8  1  0
  8  9  1  0
  7 10  2  0
 10 11  1  0
 10 12  1  0
 12 13  1  0
  4 14  1  0
 14 15  2  0
 15 16  1  0
 16 17  1  0
 17 18  1  0
 18 19  1  0
 19 20  1  0
 20 21  1  0
 19 22  2  0
 22 23  1  0
 23 24  1  0
 22 25  1  0
 16 26  2  0
 26 27  1  0
 15 28  1  0
 28 29  2  0
 29 30  1  0
 29 31  1  0
 31 32  2  0
 32 33  1  0
 33 34  2  0
 34 35  1  0
 35 36  1  0
 36 37  1  0
 37 38  1  0
 38 39  1  0
 37 40  2  0
 40 41  1  0
 40 42  1  0
 42 43  1  0
 34 44  1  0
 44 45  2  0
 45 46  1  0
 46 47  1  0
 47 48  1  0
 48 49  1  0
 49 50  1  0
 50 51  1  0
 49 52  2  0
 52 53  1  0
 53 54  1  0
 52 55  1  0
 46 56  2  0
 56 57  1  0
 45 58  1  0
 58 59  2  0
 59 60  1  0
 59 61  1  0
 61 62  1  0
 62 63  1  0
 63 64  2  0
 64 65  1  0
 65 66  1  0
 66 67  2  3
 67 68  1  0
 68 69  2  0
 69 70  1  0
 70 71  2  0
 71 72  1  0
 72 73  1  0
 73 74  1  0
 74 75  1  0
 75 76  1  0
 74 77  2  0
 77 78  1  0
 77 79  1  0
 79 80  1  0
 71 81  1  0
 81 82  2  0
 82 83  1  0
 83 84  1  0
 84 85  1  0
 85 86  1  0
 86 87  1  0
 87 88  1  0
 86 89  2  0
 89 90  1  0
 90 91  1  0
 89 92  1  0
 83 93  2  0
 93 94  1  0
 82 95  1  0
 95 96  2  0
 96 97  1  0
 96 98  1  0
 98 99  1  0
 99100  1  0
100101  2  0
101102  1  0
102103  1  0
103104  2  3
104105  1  0
105106  1  0
106107  1  0
107108  2  0
108109  1  0
109110  1  0
110111  2  3
 27  1  1  0
 57 31  1  0
 65 61  2  0
 94 68  1  0
102 98  2  0
109105  2  0
 26  3  1  0
 56 33  1  0
 93 70  1  0
 12  5  2  0
 30 14  1  0
 42 35  2  0
 60 44  1  0
 79 72  2  0
 97 81  1  0
 23 17  2  0
 53 47  2  0
 90 84  2  0
  1112  1  0
  2113  1  0
  8114  1  0
  8115  1  0
  9116  1  0
  9117  1  0
  9118  1  0
 20119  1  0
 20120  1  0
 21121  1  0
 21122  1  0
 21123  1  0
 28124  1  0
 32125  1  0
 38126  1  0
 38127  1  0
 39128  1  0
 39129  1  0
 39130  1  0
 50131  1  0
 50132  1  0
 51133  1  0
 51134  1  0
 51135  1  0
 58136  1  0
 62137  1  0
 63138  1  0
 66139  1  0
 67140  1  0
 69141  1  0
 75142  1  0
 75143  1  0
 76144  1  0
 76145  1  0
 76146  1  0
 87147  1  0
 87148  1  0
 88149  1  0
 88150  1  0
 88151  1  0
 95152  1  0
 99153  1  0
100154  1  0
103155  1  0
104156  1  0
106157  1  0
107158  1  0
110159  1  0
111160  1  0
111161  1  0
M  END

