
     RDKit          3D

277302  0  0  0  0  0  0  0  0999 V2000
   -3.0311   -2.3585   11.9552 C   0  0  0  0  0  0  0  0  0  0  0  0
   -2.5294   -1.8664   10.7547 C   0  0  0  0  0  0  0  0  0  0  0  0
   -2.5863   -2.8015    9.7045 C   0  0  0  0  0  0  0  0  0  0  0  0
   -2.1514   -2.6009    8.3741 C   0  0  0  0  0  0  0  0  0  0  0  0
   -1.6526   -1.2887    7.8932 C   0  0  0  0  0  0  0  0  0  0  0  0
   -0.4004   -1.1844    7.2640 C   0  0  0  0  0  0  0  0  0  0  0  0
    0.0380    0.0426    6.7615 C   0  0  0  0  0  0  0  0  0  0  0  0
   -0.7595    1.1865    6.8983 C   0  0  0  0  0  0  0  0  0  0  0  0
   -0.2066    2.7449    6.1963 S   0  0  0  0  0  0  0  0  0  0  0  0
    0.6485    3.3016    7.7116 C   0  0  0  0  0  0  0  0  0  0  0  0
    1.8579    4.1476    7.3293 C   0  0  0  0  0  0  0  0  0  0  0  0
   -1.9977    1.0952    7.5468 C   0  0  0  0  0  0  0  0  0  0  0  0
   -2.7612    2.2049    7.7185 F   0  0  0  0  0  0  0  0  0  0  0  0
   -2.4503   -0.1378    8.0277 C   0  0  0  0  0  0  0  0  0  0  0  0
   -2.2672   -3.7007    7.5034 C   0  0  0  0  0  0  0  0  0  0  0  0
   -2.8213   -4.9274    7.8967 C   0  0  0  0  0  0  0  0  0  0  0  0
   -3.2714   -5.1173    9.2169 C   0  0  0  0  0  0  0  0  0  0  0  0
   -3.8746   -6.3873    9.6687 C   0  0  0  0  0  0  0  0  0  0  0  0
   -5.1083   -6.8069    9.1504 C   0  0  0  0  0  0  0  0  0  0  0  0
   -5.6957   -7.9903    9.6042 C   0  0  0  0  0  0  0  0  0  0  0  0
   -5.0523   -8.7685   10.5747 C   0  0  0  0  0  0  0  0  0  0  0  0
   -5.8185  -10.2836   11.1693 S   0  0  0  0  0  0  0  0  0  0  0  0
   -4.9185  -11.3801   10.0185 C   0  0  0  0  0  0  0  0  0  0  0  0
   -5.6159  -11.4444    8.6654 C   0  0  0  0  0  0  0  0  0  0  0  0
   -3.8274   -8.3438   11.1058 C   0  0  0  0  0  0  0  0  0  0  0  0
   -3.2380   -7.1616   10.6509 C   0  0  0  0  0  0  0  0  0  0  0  0
   -3.2022   -9.0765   12.0616 F   0  0  0  0  0  0  0  0  0  0  0  0
   -3.1218   -4.0329   10.0976 C   0  0  0  0  0  0  0  0  0  0  0  0
   -3.5425   -3.9469   11.7262 S   0  0  0  0  0  0  0  0  0  0  0  0
   -2.8716   -5.8734    6.8564 C   0  0  0  0  0  0  0  0  0  0  0  0
   -2.3399   -5.3939    5.6621 C   0  0  0  0  0  0  0  0  0  0  0  0
   -1.8506   -3.7930    5.8784 S   0  0  0  0  0  0  0  0  0  0  0  0
   -2.3940   -6.0719    4.3585 C   0  0  0  0  0  0  0  0  0  0  0  0
   -3.7943   -6.7724    3.7597 S   0  0  0  0  0  0  0  0  0  0  0  0
   -3.3520   -6.7970    2.1411 C   0  0  0  0  0  0  0  0  0  0  0  0
   -2.0752   -6.2300    2.0357 C   0  0  0  0  0  0  0  0  0  0  0  0
   -1.5294   -5.8468    3.2825 C   0  0  0  0  0  0  0  0  0  0  0  0
   -0.2829   -5.2230    3.4085 O   0  0  0  0  0  0  0  0  0  0  0  0
    0.7090   -5.6357    4.3469 C   0  0  0  0  0  0  0  0  0  0  0  0
    1.4264   -6.8799    3.8439 C   0  0  0  0  0  0  0  0  0  0  0  0
   -1.4651   -5.9894    0.7942 O   0  0  0  0  0  0  0  0  0  0  0  0
   -0.0627   -6.0562    0.5627 C   0  0  0  0  0  0  0  0  0  0  0  0
    0.2108   -5.8105   -0.9056 C   0  0  0  0  0  0  0  0  0  0  0  0
   -4.3345   -7.0129    1.0598 C   0  0  0  0  0  0  0  0  0  0  0  0
   -3.9990   -7.1650   -0.2299 C   0  0  0  0  0  0  0  0  0  0  0  0
   -4.9107   -6.7920   -1.3304 C   0  0  0  0  0  0  0  0  0  0  0  0
   -6.2303   -6.3461   -1.1891 C   0  0  0  0  0  0  0  0  0  0  0  0
   -6.6475   -5.5083   -2.2363 C   0  0  0  0  0  0  0  0  0  0  0  0
   -7.7906   -4.6805   -2.2041 C   0  0  0  0  0  0  0  0  0  0  0  0
   -8.8056   -4.8099   -1.1324 C   0  0  0  0  0  0  0  0  0  0  0  0
   -8.9972   -3.7860   -0.1882 C   0  0  0  0  0  0  0  0  0  0  0  0
   -9.9317   -3.9432    0.8397 C   0  0  0  0  0  0  0  0  0  0  0  0
  -10.6657   -5.1318    0.9536 C   0  0  0  0  0  0  0  0  0  0  0  0
  -11.8257   -5.3389    2.3140 S   0  0  0  0  0  0  0  0  0  0  0  0
  -13.3143   -4.9167    1.3384 C   0  0  0  0  0  0  0  0  0  0  0  0
  -13.5326   -3.4108    1.3023 C   0  0  0  0  0  0  0  0  0  0  0  0
  -10.4598   -6.1617    0.0293 C   0  0  0  0  0  0  0  0  0  0  0  0
  -11.1478   -7.3274    0.1399 F   0  0  0  0  0  0  0  0  0  0  0  0
   -9.5441   -5.9997   -1.0135 C   0  0  0  0  0  0  0  0  0  0  0  0
   -7.8220   -3.6137   -3.1245 C   0  0  0  0  0  0  0  0  0  0  0  0
   -6.8167   -3.4161   -4.0798 C   0  0  0  0  0  0  0  0  0  0  0  0
   -5.7429   -4.3266   -4.1891 C   0  0  0  0  0  0  0  0  0  0  0  0
   -4.6164   -4.0904   -5.1082 C   0  0  0  0  0  0  0  0  0  0  0  0
   -4.4731   -4.8839   -6.2551 C   0  0  0  0  0  0  0  0  0  0  0  0
   -3.4205   -4.6423   -7.1428 C   0  0  0  0  0  0  0  0  0  0  0  0
   -2.5112   -3.6065   -6.8939 C   0  0  0  0  0  0  0  0  0  0  0  0
   -1.2067   -3.2593   -8.0797 S   0  0  0  0  0  0  0  0  0  0  0  0
   -2.3213   -2.4010   -9.2468 C   0  0  0  0  0  0  0  0  0  0  0  0
   -1.5147   -1.7359  -10.3513 C   0  0  0  0  0  0  0  0  0  0  0  0
   -2.6301   -2.8396   -5.7252 C   0  0  0  0  0  0  0  0  0  0  0  0
   -3.6745   -3.0853   -4.8351 C   0  0  0  0  0  0  0  0  0  0  0  0
   -1.7225   -1.8796   -5.4398 F   0  0  0  0  0  0  0  0  0  0  0  0
   -5.6761   -5.3482   -3.2281 C   0  0  0  0  0  0  0  0  0  0  0  0
   -4.3069   -6.2190   -2.7949 S   0  0  0  0  0  0  0  0  0  0  0  0
   -6.8569   -2.1452   -4.6784 C   0  0  0  0  0  0  0  0  0  0  0  0
   -7.8210   -1.2920   -4.1284 C   0  0  0  0  0  0  0  0  0  0  0  0
   -8.7271   -2.2020   -3.0274 S   0  0  0  0  0  0  0  0  0  0  0  0
   -7.5144    0.1353   -3.8857 C   0  0  0  0  0  0  0  0  0  0  0  0
   -6.5383    0.8323   -4.6151 C   0  0  0  0  0  0  0  0  0  0  0  0
   -5.7621    1.6997   -3.8272 C   0  0  0  0  0  0  0  0  0  0  0  0
   -4.5306    2.2597   -4.2147 C   0  0  0  0  0  0  0  0  0  0  0  0
   -4.0002    2.1394   -5.5852 C   0  0  0  0  0  0  0  0  0  0  0  0
   -4.1409    3.1991   -6.4948 C   0  0  0  0  0  0  0  0  0  0  0  0
   -3.4530    3.1725   -7.7125 C   0  0  0  0  0  0  0  0  0  0  0  0
   -2.6125    2.0955   -8.0227 C   0  0  0  0  0  0  0  0  0  0  0  0
   -1.6729    2.0989   -9.5591 S   0  0  0  0  0  0  0  0  0  0  0  0
   -0.0819    2.5680   -8.7871 C   0  0  0  0  0  0  0  0  0  0  0  0
   -0.0317    4.0636   -8.4959 C   0  0  0  0  0  0  0  0  0  0  0  0
   -2.4884    1.0274   -7.1236 C   0  0  0  0  0  0  0  0  0  0  0  0
   -1.6172    0.0238   -7.3780 F   0  0  0  0  0  0  0  0  0  0  0  0
   -3.1858    1.0462   -5.9142 C   0  0  0  0  0  0  0  0  0  0  0  0
   -3.6852    2.6961   -3.1815 C   0  0  0  0  0  0  0  0  0  0  0  0
   -4.0448    2.6454   -1.8288 C   0  0  0  0  0  0  0  0  0  0  0  0
   -5.3496    2.2530   -1.4683 C   0  0  0  0  0  0  0  0  0  0  0  0
   -5.8236    2.2787   -0.0762 C   0  0  0  0  0  0  0  0  0  0  0  0
   -6.5845    3.3721    0.3586 C   0  0  0  0  0  0  0  0  0  0  0  0
   -7.1431    3.3772    1.6376 C   0  0  0  0  0  0  0  0  0  0  0  0
   -6.9420    2.2913    2.4971 C   0  0  0  0  0  0  0  0  0  0  0  0
   -7.7018    2.3068    4.1265 S   0  0  0  0  0  0  0  0  0  0  0  0
   -6.3591    3.2604    4.9200 C   0  0  0  0  0  0  0  0  0  0  0  0
   -5.2600    2.3337    5.4195 C   0  0  0  0  0  0  0  0  0  0  0  0
   -6.1884    1.1892    2.0623 C   0  0  0  0  0  0  0  0  0  0  0  0
   -5.6270    1.1849    0.7797 C   0  0  0  0  0  0  0  0  0  0  0  0
   -6.0068    0.1207    2.8736 F   0  0  0  0  0  0  0  0  0  0  0  0
   -6.1748    1.7539   -2.4914 C   0  0  0  0  0  0  0  0  0  0  0  0
   -7.4891    0.7308   -2.3021 S   0  0  0  0  0  0  0  0  0  0  0  0
   -2.9460    2.7940   -0.9560 C   0  0  0  0  0  0  0  0  0  0  0  0
   -1.7370    2.9463   -1.6421 C   0  0  0  0  0  0  0  0  0  0  0  0
   -2.0364    2.9417   -3.2966 S   0  0  0  0  0  0  0  0  0  0  0  0
   -0.4036    2.6316   -1.1214 C   0  0  0  0  0  0  0  0  0  0  0  0
    0.4144    1.6669   -1.7010 C   0  0  0  0  0  0  0  0  0  0  0  0
    1.7685    1.8130   -1.3798 C   0  0  0  0  0  0  0  0  0  0  0  0
    2.8467    1.0980   -1.9522 C   0  0  0  0  0  0  0  0  0  0  0  0
    2.6506   -0.0528   -2.8764 C   0  0  0  0  0  0  0  0  0  0  0  0
    1.8733    0.0700   -4.0405 C   0  0  0  0  0  0  0  0  0  0  0  0
    1.6088   -1.0481   -4.8345 C   0  0  0  0  0  0  0  0  0  0  0  0
    2.1577   -2.2935   -4.5001 C   0  0  0  0  0  0  0  0  0  0  0  0
    1.7667   -3.7388   -5.4957 S   0  0  0  0  0  0  0  0  0  0  0  0
    0.5060   -4.3515   -4.3362 C   0  0  0  0  0  0  0  0  0  0  0  0
   -0.0963   -5.6561   -4.8400 C   0  0  0  0  0  0  0  0  0  0  0  0
    3.0021   -2.4061   -3.3872 C   0  0  0  0  0  0  0  0  0  0  0  0
    3.5677   -3.5987   -3.0735 F   0  0  0  0  0  0  0  0  0  0  0  0
    3.2334   -1.2966   -2.5715 C   0  0  0  0  0  0  0  0  0  0  0  0
    4.1384    1.5344   -1.6063 C   0  0  0  0  0  0  0  0  0  0  0  0
    4.3731    2.5736   -0.6994 C   0  0  0  0  0  0  0  0  0  0  0  0
    3.2945    3.2406   -0.0751 C   0  0  0  0  0  0  0  0  0  0  0  0
    3.4984    4.2843    0.9590 C   0  0  0  0  0  0  0  0  0  0  0  0
    2.9473    4.1096    2.2380 C   0  0  0  0  0  0  0  0  0  0  0  0
    3.2012    5.0417    3.2486 C   0  0  0  0  0  0  0  0  0  0  0  0
    4.0270    6.1439    2.9966 C   0  0  0  0  0  0  0  0  0  0  0  0
    4.3661    7.3139    4.3193 S   0  0  0  0  0  0  0  0  0  0  0  0
    5.6812    6.3118    5.0958 C   0  0  0  0  0  0  0  0  0  0  0  0
    7.0219    6.5311    4.4058 C   0  0  0  0  0  0  0  0  0  0  0  0
    4.5452    6.3464    1.7087 C   0  0  0  0  0  0  0  0  0  0  0  0
    4.2704    5.4268    0.6928 C   0  0  0  0  0  0  0  0  0  0  0  0
    5.3293    7.4233    1.4466 F   0  0  0  0  0  0  0  0  0  0  0  0
    2.0003    2.8568   -0.4725 C   0  0  0  0  0  0  0  0  0  0  0  0
    0.5337    3.6292   -0.1402 S   0  0  0  0  0  0  0  0  0  0  0  0
    5.7320    2.9100   -0.5940 C   0  0  0  0  0  0  0  0  0  0  0  0
    6.5451    2.1983   -1.4748 C   0  0  0  0  0  0  0  0  0  0  0  0
    5.5930    1.0904   -2.3203 S   0  0  0  0  0  0  0  0  0  0  0  0
    7.8962    2.6059   -1.8922 C   0  0  0  0  0  0  0  0  0  0  0  0
    8.4614    3.8616   -1.6524 C   0  0  0  0  0  0  0  0  0  0  0  0
    9.6009    4.1096   -2.4348 C   0  0  0  0  0  0  0  0  0  0  0  0
   10.3065    5.3288   -2.5129 C   0  0  0  0  0  0  0  0  0  0  0  0
    9.8993    6.5223   -1.7369 C   0  0  0  0  0  0  0  0  0  0  0  0
    9.4093    7.6581   -2.4025 C   0  0  0  0  0  0  0  0  0  0  0  0
    8.9874    8.7727   -1.6745 C   0  0  0  0  0  0  0  0  0  0  0  0
    9.0633    8.7707   -0.2763 C   0  0  0  0  0  0  0  0  0  0  0  0
    8.4794   10.1978    0.6516 S   0  0  0  0  0  0  0  0  0  0  0  0
   10.0970   11.0543    0.6902 C   0  0  0  0  0  0  0  0  0  0  0  0
   10.2911   11.9127   -0.5505 C   0  0  0  0  0  0  0  0  0  0  0  0
    9.5504    7.6366    0.3934 C   0  0  0  0  0  0  0  0  0  0  0  0
    9.5924    7.6074    1.7484 F   0  0  0  0  0  0  0  0  0  0  0  0
    9.9690    6.5202   -0.3331 C   0  0  0  0  0  0  0  0  0  0  0  0
   11.3563    5.3920   -3.4470 C   0  0  0  0  0  0  0  0  0  0  0  0
   11.6861    4.3258   -4.2853 C   0  0  0  0  0  0  0  0  0  0  0  0
   10.9654    3.1162   -4.2232 C   0  0  0  0  0  0  0  0  0  0  0  0
   11.2065    2.0124   -5.1745 C   0  0  0  0  0  0  0  0  0  0  0  0
   12.4112    1.2967   -5.1456 C   0  0  0  0  0  0  0  0  0  0  0  0
   12.6323    0.2560   -6.0525 C   0  0  0  0  0  0  0  0  0  0  0  0
   11.6535   -0.0740   -6.9988 C   0  0  0  0  0  0  0  0  0  0  0  0
   11.9522   -1.4146   -8.1595 S   0  0  0  0  0  0  0  0  0  0  0  0
   12.8414   -0.3842   -9.3830 C   0  0  0  0  0  0  0  0  0  0  0  0
   11.8680    0.3193  -10.3210 C   0  0  0  0  0  0  0  0  0  0  0  0
   10.4389    0.6267   -7.0165 C   0  0  0  0  0  0  0  0  0  0  0  0
   10.2202    1.6705   -6.1146 C   0  0  0  0  0  0  0  0  0  0  0  0
    9.4711    0.2996   -7.9090 F   0  0  0  0  0  0  0  0  0  0  0  0
    9.9296    3.0438   -3.2794 C   0  0  0  0  0  0  0  0  0  0  0  0
    8.8143    1.8050   -3.0584 S   0  0  0  0  0  0  0  0  0  0  0  0
   12.7178    4.6342   -5.1885 C   0  0  0  0  0  0  0  0  0  0  0  0
   13.2103    5.9288   -5.0362 C   0  0  0  0  0  0  0  0  0  0  0  0
   12.3563    6.6978   -3.8056 S   0  0  0  0  0  0  0  0  0  0  0  0
   -3.0801   -1.8097   12.8866 H   0  0  0  0  0  0  0  0  0  0  0  0
   -2.1245   -0.8673   10.6613 H   0  0  0  0  0  0  0  0  0  0  0  0
    0.2279   -2.0583    7.1493 H   0  0  0  0  0  0  0  0  0  0  0  0
    0.9948    0.1056    6.2613 H   0  0  0  0  0  0  0  0  0  0  0  0
    0.9975    2.4402    8.3253 H   0  0  0  0  0  0  0  0  0  0  0  0
   -0.0546    3.9042    8.3250 H   0  0  0  0  0  0  0  0  0  0  0  0
    2.3464    4.5405    8.2484 H   0  0  0  0  0  0  0  0  0  0  0  0
    2.5866    3.5278    6.7620 H   0  0  0  0  0  0  0  0  0  0  0  0
    1.5394    5.0105    6.7012 H   0  0  0  0  0  0  0  0  0  0  0  0
   -3.4227   -0.1946    8.4971 H   0  0  0  0  0  0  0  0  0  0  0  0
   -5.6212   -6.2109    8.4062 H   0  0  0  0  0  0  0  0  0  0  0  0
   -6.6497   -8.3007    9.2035 H   0  0  0  0  0  0  0  0  0  0  0  0
   -3.8691  -11.0392    9.8882 H   0  0  0  0  0  0  0  0  0  0  0  0
   -4.8925  -12.3969   10.4604 H   0  0  0  0  0  0  0  0  0  0  0  0
   -6.6668  -11.7850    8.7902 H   0  0  0  0  0  0  0  0  0  0  0  0
   -5.6109  -10.4466    8.1815 H   0  0  0  0  0  0  0  0  0  0  0  0
   -5.0788  -12.1600    8.0077 H   0  0  0  0  0  0  0  0  0  0  0  0
   -2.2878   -6.8455   11.0632 H   0  0  0  0  0  0  0  0  0  0  0  0
   -3.2916   -6.8666    6.9534 H   0  0  0  0  0  0  0  0  0  0  0  0
    0.2613   -5.8412    5.3437 H   0  0  0  0  0  0  0  0  0  0  0  0
    1.4535   -4.8243    4.4622 H   0  0  0  0  0  0  0  0  0  0  0  0
    1.9040   -6.6730    2.8628 H   0  0  0  0  0  0  0  0  0  0  0  0
    0.7037   -7.7179    3.7277 H   0  0  0  0  0  0  0  0  0  0  0  0
    2.2134   -7.1795    4.5677 H   0  0  0  0  0  0  0  0  0  0  0  0
    0.4752   -5.2787    1.1453 H   0  0  0  0  0  0  0  0  0  0  0  0
    0.3053   -7.0669    0.8468 H   0  0  0  0  0  0  0  0  0  0  0  0
   -0.4107   -6.4783   -1.5457 H   0  0  0  0  0  0  0  0  0  0  0  0
   -0.0311   -4.7485   -1.1400 H   0  0  0  0  0  0  0  0  0  0  0  0
    1.2861   -5.9831   -1.1273 H   0  0  0  0  0  0  0  0  0  0  0  0
   -5.3709   -6.8941    1.3395 H   0  0  0  0  0  0  0  0  0  0  0  0
   -2.9685   -7.3456   -0.4954 H   0  0  0  0  0  0  0  0  0  0  0  0
   -6.8138   -6.4901   -0.2901 H   0  0  0  0  0  0  0  0  0  0  0  0
   -8.4233   -2.8732   -0.2420 H   0  0  0  0  0  0  0  0  0  0  0  0
  -10.0740   -3.1436    1.5582 H   0  0  0  0  0  0  0  0  0  0  0  0
  -14.1916   -5.4000    1.8091 H   0  0  0  0  0  0  0  0  0  0  0  0
  -13.2285   -5.3109    0.3029 H   0  0  0  0  0  0  0  0  0  0  0  0
  -14.4449   -3.1828    0.7088 H   0  0  0  0  0  0  0  0  0  0  0  0
  -12.6655   -2.9027    0.8334 H   0  0  0  0  0  0  0  0  0  0  0  0
  -13.6855   -3.0182    2.3335 H   0  0  0  0  0  0  0  0  0  0  0  0
   -9.4036   -6.8027   -1.7289 H   0  0  0  0  0  0  0  0  0  0  0  0
   -5.1793   -5.6734   -6.4714 H   0  0  0  0  0  0  0  0  0  0  0  0
   -3.3264   -5.2451   -8.0375 H   0  0  0  0  0  0  0  0  0  0  0  0
   -2.9204   -1.6293   -8.7192 H   0  0  0  0  0  0  0  0  0  0  0  0
   -3.0223   -3.1395   -9.6877 H   0  0  0  0  0  0  0  0  0  0  0  0
   -0.9172   -2.4938  -10.9018 H   0  0  0  0  0  0  0  0  0  0  0  0
   -2.1999   -1.2321  -11.0670 H   0  0  0  0  0  0  0  0  0  0  0  0
   -0.8294   -0.9789   -9.9166 H   0  0  0  0  0  0  0  0  0  0  0  0
   -3.7684   -2.4861   -3.9406 H   0  0  0  0  0  0  0  0  0  0  0  0
   -6.0671   -1.7840   -5.3203 H   0  0  0  0  0  0  0  0  0  0  0  0
   -6.2626    0.5564   -5.6254 H   0  0  0  0  0  0  0  0  0  0  0  0
   -4.7462    4.0602   -6.2407 H   0  0  0  0  0  0  0  0  0  0  0  0
   -3.5507    4.0002   -8.4001 H   0  0  0  0  0  0  0  0  0  0  0  0
    0.7345    2.3109   -9.4944 H   0  0  0  0  0  0  0  0  0  0  0  0
    0.0849    1.9989   -7.8490 H   0  0  0  0  0  0  0  0  0  0  0  0
   -0.8356    4.3488   -7.7869 H   0  0  0  0  0  0  0  0  0  0  0  0
   -0.1487    4.6376   -9.4368 H   0  0  0  0  0  0  0  0  0  0  0  0
    0.9480    4.3194   -8.0417 H   0  0  0  0  0  0  0  0  0  0  0  0
   -3.0424    0.2489   -5.2006 H   0  0  0  0  0  0  0  0  0  0  0  0
   -6.7597    4.2140   -0.2989 H   0  0  0  0  0  0  0  0  0  0  0  0
   -7.7333    4.2249    1.9594 H   0  0  0  0  0  0  0  0  0  0  0  0
   -5.9290    4.0111    4.2204 H   0  0  0  0  0  0  0  0  0  0  0  0
   -6.7849    3.8114    5.7845 H   0  0  0  0  0  0  0  0  0  0  0  0
   -5.6835    1.5791    6.1170 H   0  0  0  0  0  0  0  0  0  0  0  0
   -4.4956    2.9293    5.9567 H   0  0  0  0  0  0  0  0  0  0  0  0
   -4.7722    1.8142    4.5677 H   0  0  0  0  0  0  0  0  0  0  0  0
   -5.0613    0.3261    0.4429 H   0  0  0  0  0  0  0  0  0  0  0  0
   -3.0000    2.6620    0.1167 H   0  0  0  0  0  0  0  0  0  0  0  0
    0.0299    0.9371   -2.3981 H   0  0  0  0  0  0  0  0  0  0  0  0
    1.4518    1.0248   -4.3203 H   0  0  0  0  0  0  0  0  0  0  0  0
    0.9758   -0.9515   -5.7030 H   0  0  0  0  0  0  0  0  0  0  0  0
   -0.2952   -3.5967   -4.2174 H   0  0  0  0  0  0  0  0  0  0  0  0
    0.9795   -4.5254   -3.3533 H   0  0  0  0  0  0  0  0  0  0  0  0
    0.6830   -6.4478   -4.8670 H   0  0  0  0  0  0  0  0  0  0  0  0
   -0.5065   -5.5223   -5.8655 H   0  0  0  0  0  0  0  0  0  0  0  0
   -0.9101   -5.9765   -4.1606 H   0  0  0  0  0  0  0  0  0  0  0  0
    3.8500   -1.4088   -1.6900 H   0  0  0  0  0  0  0  0  0  0  0  0
    2.3363    3.2433    2.4605 H   0  0  0  0  0  0  0  0  0  0  0  0
    2.7799    4.8904    4.2338 H   0  0  0  0  0  0  0  0  0  0  0  0
    5.4225    5.2315    5.0782 H   0  0  0  0  0  0  0  0  0  0  0  0
    5.7724    6.6186    6.1547 H   0  0  0  0  0  0  0  0  0  0  0  0
    7.8145    5.9834    4.9628 H   0  0  0  0  0  0  0  0  0  0  0  0
    7.2823    7.6138    4.3931 H   0  0  0  0  0  0  0  0  0  0  0  0
    6.9918    6.1502    3.3617 H   0  0  0  0  0  0  0  0  0  0  0  0
    4.6724    5.5992   -0.2980 H   0  0  0  0  0  0  0  0  0  0  0  0
    6.1166    3.6943    0.0380 H   0  0  0  0  0  0  0  0  0  0  0  0
    8.0115    4.5992   -1.0049 H   0  0  0  0  0  0  0  0  0  0  0  0
    9.3451    7.6766   -3.4834 H   0  0  0  0  0  0  0  0  0  0  0  0
    8.6031    9.6367   -2.1972 H   0  0  0  0  0  0  0  0  0  0  0  0
   10.1147   11.7138    1.5819 H   0  0  0  0  0  0  0  0  0  0  0  0
   10.9325   10.3247    0.7838 H   0  0  0  0  0  0  0  0  0  0  0  0
   10.3348   11.2794   -1.4591 H   0  0  0  0  0  0  0  0  0  0  0  0
    9.4570   12.6424   -0.6470 H   0  0  0  0  0  0  0  0  0  0  0  0
   11.2438   12.4756   -0.4625 H   0  0  0  0  0  0  0  0  0  0  0  0
   10.3398    5.6465    0.1888 H   0  0  0  0  0  0  0  0  0  0  0  0
   13.1750    1.5400   -4.4178 H   0  0  0  0  0  0  0  0  0  0  0  0
   13.5660   -0.2891   -6.0236 H   0  0  0  0  0  0  0  0  0  0  0  0
   13.4914    0.3631   -8.8786 H   0  0  0  0  0  0  0  0  0  0  0  0
   13.4941   -1.0520   -9.9813 H   0  0  0  0  0  0  0  0  0  0  0  0
   12.4340    0.8519  -11.1144 H   0  0  0  0  0  0  0  0  0  0  0  0
   11.1922   -0.4212  -10.8015 H   0  0  0  0  0  0  0  0  0  0  0  0
   11.2634    1.0616   -9.7648 H   0  0  0  0  0  0  0  0  0  0  0  0
    9.2859    2.2154   -6.1496 H   0  0  0  0  0  0  0  0  0  0  0  0
   13.0920    3.9529   -5.9404 H   0  0  0  0  0  0  0  0  0  0  0  0
   13.9961    6.3739   -5.6312 H   0  0  0  0  0  0  0  0  0  0  0  0
  1  2  2  0
  2  3  1  0
  3  4  2  0
  4  5  1  0
  5  6  2  0
  6  7  1  0
  7  8  2  0
  8  9  1  0
  9 10  1  0
 10 11  1  0
  8 12  1  0
 12 13  1  0
 12 14  2  0
  4 15  1  0
 15 16  2  0
 16 17  1  0
 17 18  1  0
 18 19  2  0
 19 20  1  0
 20 21  2  0
 21 22  1  0
 22 23  1  0
 23 24  1  0
 21 25  1  0
 25 26  2  0
 25 27  1  0
 17 28  2  0
 28 29  1  0
 16 30  1  0
 30 31  2  0
 31 32  1  0
 31 33  1  0
 33 34  1  0
 34 35  1  0
 35 36  2  0
 36 37  1  0
 37 38  1  0
 38 39  1  0
 39 40  1  0
 36 41  1  0
 41 42  1  0
 42 43  1  0
 35 44  1  0
 44 45  2  3
 45 46  1  0
 46 47  2  0
 47 48  1  0
 48 49  2  0
 49 50  1  0
 50 51  2  0
 51 52  1  0
 52 53  2  0
 53 54  1  0
 54 55  1  0
 55 56  1  0
 53 57  1  0
 57 58  1  0
 57 59  2  0
 49 60  1  0
 60 61  2  0
 61 62  1  0
 62 63  1  0
 63 64  2  0
 64 65  1  0
 65 66  2  0
 66 67  1  0
 67 68  1  0
 68 69  1  0
 66 70  1  0
 70 71  2  0
 70 72  1  0
 62 73  2  0
 73 74  1  0
 61 75  1  0
 75 76  2  0
 76 77  1  0
 76 78  1  0
 78 79  2  0
 79 80  1  0
 80 81  2  0
 81 82  1  0
 82 83  2  0
 83 84  1  0
 84 85  2  0
 85 86  1  0
 86 87  1  0
 87 88  1  0
 85 89  1  0
 89 90  1  0
 89 91  2  0
 81 92  1  0
 92 93  2  0
 93 94  1  0
 94 95  1  0
 95 96  2  0
 96 97  1  0
 97 98  2  0
 98 99  1  0
 99100  1  0
100101  1  0
 98102  1  0
102103  2  0
102104  1  0
 94105  2  0
105106  1  0
 93107  1  0
107108  2  0
108109  1  0
108110  1  0
110111  2  0
111112  1  0
112113  2  0
113114  1  0
114115  2  0
115116  1  0
116117  2  0
117118  1  0
118119  1  0
119120  1  0
117121  1  0
121122  1  0
121123  2  0
113124  1  0
124125  2  0
125126  1  0
126127  1  0
127128  2  0
128129  1  0
129130  2  0
130131  1  0
131132  1  0
132133  1  0
130134  1  0
134135  2  0
134136  1  0
126137  2  0
137138  1  0
125139  1  0
139140  2  0
140141  1  0
140142  1  0
142143  2  0
143144  1  0
144145  2  0
145146  1  0
146147  2  0
147148  1  0
148149  2  0
149150  1  0
150151  1  0
151152  1  0
149153  1  0
153154  1  0
153155  2  0
145156  1  0
156157  2  0
157158  1  0
158159  1  0
159160  2  0
160161  1  0
161162  2  0
162163  1  0
163164  1  0
164165  1  0
162166  1  0
166167  2  0
166168  1  0
158169  2  0
169170  1  0
157171  1  0
171172  2  0
172173  1  0
 29  1  1  0
 37 33  2  0
 74 46  1  0
106 78  1  0
138110  1  0
170142  1  0
 28  3  1  0
 73 48  1  0
105 80  1  0
137112  1  0
169144  1  0
 14  5  1  0
 32 15  1  0
 59 50  1  0
 77 60  1  0
 91 82  1  0
109 92  1  0
123114  1  0
141124  1  0
155146  1  0
173156  1  0
 26 18  1  0
 71 63  1  0
103 95  1  0
135127  1  0
167159  1  0
  1174  1  0
  2175  1  0
  6176  1  0
  7177  1  0
 10178  1  0
 10179  1  0
 11180  1  0
 11181  1  0
 11182  1  0
 14183  1  0
 19184  1  0
 20185  1  0
 23186  1  0
 23187  1  0
 24188  1  0
 24189  1  0
 24190  1  0
 26191  1  0
 30192  1  0
 39193  1  0
 39194  1  0
 40195  1  0
 40196  1  0
 40197  1  0
 42198  1  0
 42199  1  0
 43200  1  0
 43201  1  0
 43202  1  0
 44203  1  0
 45204  1  0
 47205  1  0
 51206  1  0
 52207  1  0
 55208  1  0
 55209  1  0
 56210  1  0
 56211  1  0
 56212  1  0
 59213  1  0
 64214  1  0
 65215  1  0
 68216  1  0
 68217  1  0
 69218  1  0
 69219  1  0
 69220  1  0
 71221  1  0
 75222  1  0
 79223  1  0
 83224  1  0
 84225  1  0
 87226  1  0
 87227  1  0
 88228  1  0
 88229  1  0
 88230  1  0
 91231  1  0
 96232  1  0
 97233  1  0
100234  1  0
100235  1  0
101236  1  0
101237  1  0
101238  1  0
103239  1  0
107240  1  0
111241  1  0
115242  1  0
116243  1  0
119244  1  0
119245  1  0
120246  1  0
120247  1  0
120248  1  0
123249  1  0
128250  1  0
129251  1  0
132252  1  0
132253  1  0
133254  1  0
133255  1  0
133256  1  0
135257  1  0
139258  1  0
143259  1  0
147260  1  0
148261  1  0
151262  1  0
151263  1  0
152264  1  0
152265  1  0
152266  1  0
155267  1  0
160268  1  0
161269  1  0
164270  1  0
164271  1  0
165272  1  0
165273  1  0
165274  1  0
167275  1  0
171276  1  0
172277  1  0
M  END

