
     RDKit          3D

220243  0  0  0  0  0  0  0  0999 V2000
    4.0146   -2.1426   11.3233 C   0  0  0  0  0  0  0  0  0  0  0  0
    2.8015   -1.5317   11.0207 C   0  0  0  0  0  0  0  0  0  0  0  0
    1.9051   -2.3812   10.3512 C   0  0  0  0  0  0  0  0  0  0  0  0
    0.6081   -2.0525    9.9044 C   0  0  0  0  0  0  0  0  0  0  0  0
    0.0583   -0.6875   10.0493 C   0  0  0  0  0  0  0  0  0  0  0  0
   -1.0604   -0.4517   10.8640 C   0  0  0  0  0  0  0  0  0  0  0  0
   -1.5400    0.8519   11.0420 C   0  0  0  0  0  0  0  0  0  0  0  0
   -0.9127    1.9254   10.3973 C   0  0  0  0  0  0  0  0  0  0  0  0
   -1.4974    3.6039   10.6693 S   0  0  0  0  0  0  0  0  0  0  0  0
   -2.6509    3.5736    9.2580 C   0  0  0  0  0  0  0  0  0  0  0  0
   -3.1763    4.9755    8.9920 C   0  0  0  0  0  0  0  0  0  0  0  0
    0.1955    1.6910    9.5705 C   0  0  0  0  0  0  0  0  0  0  0  0
    0.8114    2.7193    8.9363 F   0  0  0  0  0  0  0  0  0  0  0  0
    0.6756    0.3901    9.3965 C   0  0  0  0  0  0  0  0  0  0  0  0
   -0.1234   -3.0757    9.2765 C   0  0  0  0  0  0  0  0  0  0  0  0
    0.3977   -4.3562    9.0629 C   0  0  0  0  0  0  0  0  0  0  0  0
    1.7001   -4.6761    9.4908 C   0  0  0  0  0  0  0  0  0  0  0  0
    2.3010   -5.9944    9.2205 C   0  0  0  0  0  0  0  0  0  0  0  0
    2.6843   -6.3321    7.9137 C   0  0  0  0  0  0  0  0  0  0  0  0
    3.2239   -7.5918    7.6442 C   0  0  0  0  0  0  0  0  0  0  0  0
    3.3709   -8.5303    8.6720 C   0  0  0  0  0  0  0  0  0  0  0  0
    4.0311  -10.1601    8.3039 S   0  0  0  0  0  0  0  0  0  0  0  0
    2.3991  -10.9415    8.0266 C   0  0  0  0  0  0  0  0  0  0  0  0
    1.9170  -10.7098    6.5969 C   0  0  0  0  0  0  0  0  0  0  0  0
    3.0117   -8.1874    9.9847 C   0  0  0  0  0  0  0  0  0  0  0  0
    2.4833   -6.9214   10.2573 C   0  0  0  0  0  0  0  0  0  0  0  0
    3.1653   -9.0811   10.9933 F   0  0  0  0  0  0  0  0  0  0  0  0
    2.4205   -3.6648   10.1453 C   0  0  0  0  0  0  0  0  0  0  0  0
    3.9817   -3.7343   10.7712 S   0  0  0  0  0  0  0  0  0  0  0  0
   -0.4865   -5.2157    8.3904 C   0  0  0  0  0  0  0  0  0  0  0  0
   -1.6912   -4.5967    8.0602 C   0  0  0  0  0  0  0  0  0  0  0  0
   -1.6646   -2.9976    8.6070 S   0  0  0  0  0  0  0  0  0  0  0  0
   -2.7806   -5.1865    7.2701 C   0  0  0  0  0  0  0  0  0  0  0  0
   -4.0748   -4.3416    6.5630 S   0  0  0  0  0  0  0  0  0  0  0  0
   -4.7469   -5.6099    5.6494 C   0  0  0  0  0  0  0  0  0  0  0  0
   -3.9221   -6.6900    5.9121 C   0  0  0  0  0  0  0  0  0  0  0  0
   -2.8935   -6.4685    6.7613 C   0  0  0  0  0  0  0  0  0  0  0  0
   -2.1859   -7.5587    6.8818 O   0  0  0  0  0  0  0  0  0  0  0  0
   -2.8098   -8.4353    6.1008 C   0  0  0  0  0  0  0  0  0  0  0  0
   -2.3226   -9.9843    5.9189 S   0  0  0  0  0  0  0  0  0  0  0  0
   -3.8738   -7.9246    5.4881 O   0  0  0  0  0  0  0  0  0  0  0  0
   -5.7425   -5.4481    4.5830 C   0  0  0  0  0  0  0  0  0  0  0  0
   -6.3680   -3.9517    4.0787 S   0  0  0  0  0  0  0  0  0  0  0  0
   -6.9966   -4.4062    2.5651 C   0  0  0  0  0  0  0  0  0  0  0  0
   -6.6839   -5.7548    2.4744 C   0  0  0  0  0  0  0  0  0  0  0  0
   -6.0289   -6.2993    3.5297 C   0  0  0  0  0  0  0  0  0  0  0  0
   -5.7279   -7.5412    3.2587 O   0  0  0  0  0  0  0  0  0  0  0  0
   -6.2157   -7.7309    2.0361 C   0  0  0  0  0  0  0  0  0  0  0  0
   -6.1069   -9.1496    1.2337 S   0  0  0  0  0  0  0  0  0  0  0  0
   -6.7948   -6.6455    1.5257 O   0  0  0  0  0  0  0  0  0  0  0  0
   -7.2758   -3.4710    1.4660 C   0  0  0  0  0  0  0  0  0  0  0  0
   -7.1885   -2.0887    1.6112 C   0  0  0  0  0  0  0  0  0  0  0  0
   -6.9690   -1.4114    0.4050 C   0  0  0  0  0  0  0  0  0  0  0  0
   -6.6225   -0.0498    0.2731 C   0  0  0  0  0  0  0  0  0  0  0  0
   -6.4225    0.8256    1.4538 C   0  0  0  0  0  0  0  0  0  0  0  0
   -5.5055    0.4637    2.4547 C   0  0  0  0  0  0  0  0  0  0  0  0
   -5.3448    1.2614    3.5894 C   0  0  0  0  0  0  0  0  0  0  0  0
   -6.0597    2.4585    3.7141 C   0  0  0  0  0  0  0  0  0  0  0  0
   -5.8713    3.4548    5.2005 S   0  0  0  0  0  0  0  0  0  0  0  0
   -4.2891    4.2208    4.6991 C   0  0  0  0  0  0  0  0  0  0  0  0
   -4.5151    5.3712    3.7279 C   0  0  0  0  0  0  0  0  0  0  0  0
   -6.9480    2.8467    2.7001 C   0  0  0  0  0  0  0  0  0  0  0  0
   -7.6507    4.0023    2.8116 F   0  0  0  0  0  0  0  0  0  0  0  0
   -7.1291    2.0336    1.5751 C   0  0  0  0  0  0  0  0  0  0  0  0
   -6.2693    0.3893   -1.0159 C   0  0  0  0  0  0  0  0  0  0  0  0
   -6.2522   -0.4584   -2.1292 C   0  0  0  0  0  0  0  0  0  0  0  0
   -6.6383   -1.8111   -2.0019 C   0  0  0  0  0  0  0  0  0  0  0  0
   -6.6355   -2.7381   -3.1538 C   0  0  0  0  0  0  0  0  0  0  0  0
   -7.5418   -2.5443   -4.2072 C   0  0  0  0  0  0  0  0  0  0  0  0
   -7.6064   -3.4616   -5.2594 C   0  0  0  0  0  0  0  0  0  0  0  0
   -6.7542   -4.5740   -5.2790 C   0  0  0  0  0  0  0  0  0  0  0  0
   -6.9022   -5.7828   -6.5999 S   0  0  0  0  0  0  0  0  0  0  0  0
   -5.8885   -4.8575   -7.8052 C   0  0  0  0  0  0  0  0  0  0  0  0
   -4.4086   -5.1513   -7.6073 C   0  0  0  0  0  0  0  0  0  0  0  0
   -5.8282   -4.7572   -4.2406 C   0  0  0  0  0  0  0  0  0  0  0  0
   -5.7703   -3.8445   -3.1828 C   0  0  0  0  0  0  0  0  0  0  0  0
   -5.0099   -5.8403   -4.2341 F   0  0  0  0  0  0  0  0  0  0  0  0
   -6.9665   -2.2590   -0.7081 C   0  0  0  0  0  0  0  0  0  0  0  0
   -7.1829   -3.8477   -0.1797 S   0  0  0  0  0  0  0  0  0  0  0  0
   -5.6229    0.1155   -3.2508 C   0  0  0  0  0  0  0  0  0  0  0  0
   -5.1232    1.3995   -3.0045 C   0  0  0  0  0  0  0  0  0  0  0  0
   -5.5096    1.8306   -1.4189 S   0  0  0  0  0  0  0  0  0  0  0  0
   -4.0500    2.0631   -3.7691 C   0  0  0  0  0  0  0  0  0  0  0  0
   -3.4222    1.5528   -4.9107 C   0  0  0  0  0  0  0  0  0  0  0  0
   -2.1714    2.1501   -5.1639 C   0  0  0  0  0  0  0  0  0  0  0  0
   -1.2332    1.7618   -6.1475 C   0  0  0  0  0  0  0  0  0  0  0  0
   -1.5186    0.7241   -7.1575 C   0  0  0  0  0  0  0  0  0  0  0  0
   -1.4687    1.0502   -8.5213 C   0  0  0  0  0  0  0  0  0  0  0  0
   -1.6738    0.0649   -9.4895 C   0  0  0  0  0  0  0  0  0  0  0  0
   -1.9192   -1.2574   -9.1057 C   0  0  0  0  0  0  0  0  0  0  0  0
   -2.1760   -2.5145  -10.3610 S   0  0  0  0  0  0  0  0  0  0  0  0
   -3.9688   -2.2056  -10.4749 C   0  0  0  0  0  0  0  0  0  0  0  0
   -4.5718   -3.0797  -11.5640 C   0  0  0  0  0  0  0  0  0  0  0  0
   -1.9556   -1.5915   -7.7429 C   0  0  0  0  0  0  0  0  0  0  0  0
   -2.1603   -2.8761   -7.3544 F   0  0  0  0  0  0  0  0  0  0  0  0
   -1.7515   -0.6036   -6.7741 C   0  0  0  0  0  0  0  0  0  0  0  0
    0.0408    2.3582   -6.0784 C   0  0  0  0  0  0  0  0  0  0  0  0
    0.3720    3.3189   -5.1203 C   0  0  0  0  0  0  0  0  0  0  0  0
   -0.5884    3.7689   -4.2008 C   0  0  0  0  0  0  0  0  0  0  0  0
   -0.2653    4.7804   -3.1804 C   0  0  0  0  0  0  0  0  0  0  0  0
    0.3805    4.4063   -1.9939 C   0  0  0  0  0  0  0  0  0  0  0  0
    0.6985    5.3739   -1.0354 C   0  0  0  0  0  0  0  0  0  0  0  0
    0.3766    6.7185   -1.2595 C   0  0  0  0  0  0  0  0  0  0  0  0
    0.7815    7.9491   -0.0154 S   0  0  0  0  0  0  0  0  0  0  0  0
   -0.9206    8.0910    0.6374 C   0  0  0  0  0  0  0  0  0  0  0  0
   -1.2832    6.9055    1.5195 C   0  0  0  0  0  0  0  0  0  0  0  0
   -0.2465    7.0959   -2.4592 C   0  0  0  0  0  0  0  0  0  0  0  0
   -0.5782    6.1250   -3.4091 C   0  0  0  0  0  0  0  0  0  0  0  0
   -0.5452    8.3988   -2.6984 F   0  0  0  0  0  0  0  0  0  0  0  0
   -1.8476    3.1506   -4.2413 C   0  0  0  0  0  0  0  0  0  0  0  0
   -3.0866    3.2901   -3.1209 S   0  0  0  0  0  0  0  0  0  0  0  0
    1.7321    3.6585   -5.1195 C   0  0  0  0  0  0  0  0  0  0  0  0
    2.4692    2.9455   -6.0613 C   0  0  0  0  0  0  0  0  0  0  0  0
    1.4337    1.9246   -6.9190 S   0  0  0  0  0  0  0  0  0  0  0  0
    3.9353    2.8847   -6.1191 C   0  0  0  0  0  0  0  0  0  0  0  0
    4.7929    3.2951   -5.1002 C   0  0  0  0  0  0  0  0  0  0  0  0
    6.1327    2.9507   -5.3370 C   0  0  0  0  0  0  0  0  0  0  0  0
    7.2164    3.1790   -4.4643 C   0  0  0  0  0  0  0  0  0  0  0  0
    7.0385    3.8758   -3.1715 C   0  0  0  0  0  0  0  0  0  0  0  0
    7.2629    3.1978   -1.9633 C   0  0  0  0  0  0  0  0  0  0  0  0
    7.0409    3.8453   -0.7422 C   0  0  0  0  0  0  0  0  0  0  0  0
    6.5972    5.1734   -0.7191 C   0  0  0  0  0  0  0  0  0  0  0  0
    6.3434    6.0161    0.8492 S   0  0  0  0  0  0  0  0  0  0  0  0
    4.5406    5.7134    0.9334 C   0  0  0  0  0  0  0  0  0  0  0  0
    4.2339    4.6209    1.9480 C   0  0  0  0  0  0  0  0  0  0  0  0
    6.3855    5.8565   -1.9259 C   0  0  0  0  0  0  0  0  0  0  0  0
    5.9500    7.1417   -1.9185 F   0  0  0  0  0  0  0  0  0  0  0  0
    6.5985    5.2080   -3.1451 C   0  0  0  0  0  0  0  0  0  0  0  0
    8.4702    2.6939   -4.8758 C   0  0  0  0  0  0  0  0  0  0  0  0
    8.6639    2.0205   -6.0860 C   0  0  0  0  0  0  0  0  0  0  0  0
    7.5748    1.7823   -6.9554 C   0  0  0  0  0  0  0  0  0  0  0  0
    7.7303    1.0189   -8.2130 C   0  0  0  0  0  0  0  0  0  0  0  0
    8.5748    1.4895   -9.2298 C   0  0  0  0  0  0  0  0  0  0  0  0
    8.7795    0.7255  -10.3824 C   0  0  0  0  0  0  0  0  0  0  0  0
    8.1385   -0.5099  -10.5290 C   0  0  0  0  0  0  0  0  0  0  0  0
    8.4734   -1.5179  -11.9772 S   0  0  0  0  0  0  0  0  0  0  0  0
    9.7453   -2.5508  -11.1631 C   0  0  0  0  0  0  0  0  0  0  0  0
   11.0819   -1.8244  -11.0757 C   0  0  0  0  0  0  0  0  0  0  0  0
    7.2541   -0.9588   -9.5386 C   0  0  0  0  0  0  0  0  0  0  0  0
    7.0550   -0.1980   -8.3821 C   0  0  0  0  0  0  0  0  0  0  0  0
    6.6059   -2.1420   -9.6824 F   0  0  0  0  0  0  0  0  0  0  0  0
    6.3183    2.2656   -6.5435 C   0  0  0  0  0  0  0  0  0  0  0  0
    4.8298    2.0903   -7.3110 S   0  0  0  0  0  0  0  0  0  0  0  0
    9.9936    1.6081   -6.2815 C   0  0  0  0  0  0  0  0  0  0  0  0
   10.8387    1.9785   -5.2401 C   0  0  0  0  0  0  0  0  0  0  0  0
    9.9441    2.8004   -4.0708 S   0  0  0  0  0  0  0  0  0  0  0  0
    4.8418   -1.6692   11.8319 H   0  0  0  0  0  0  0  0  0  0  0  0
    2.5821   -0.5066   11.2875 H   0  0  0  0  0  0  0  0  0  0  0  0
   -1.5424   -1.2726   11.3785 H   0  0  0  0  0  0  0  0  0  0  0  0
   -2.3922    1.0238   11.6895 H   0  0  0  0  0  0  0  0  0  0  0  0
   -3.5025    2.8974    9.4919 H   0  0  0  0  0  0  0  0  0  0  0  0
   -2.1328    3.2030    8.3474 H   0  0  0  0  0  0  0  0  0  0  0  0
   -3.6919    5.3679    9.8945 H   0  0  0  0  0  0  0  0  0  0  0  0
   -3.8972    4.9591    8.1461 H   0  0  0  0  0  0  0  0  0  0  0  0
   -2.3341    5.6530    8.7284 H   0  0  0  0  0  0  0  0  0  0  0  0
    1.5359    0.2205    8.7610 H   0  0  0  0  0  0  0  0  0  0  0  0
    2.5606   -5.6217    7.1053 H   0  0  0  0  0  0  0  0  0  0  0  0
    3.5191   -7.8419    6.6323 H   0  0  0  0  0  0  0  0  0  0  0  0
    1.6448  -10.5585    8.7506 H   0  0  0  0  0  0  0  0  0  0  0  0
    2.5026  -12.0342    8.1943 H   0  0  0  0  0  0  0  0  0  0  0  0
    0.9694  -11.2678    6.4269 H   0  0  0  0  0  0  0  0  0  0  0  0
    2.6799  -11.0739    5.8745 H   0  0  0  0  0  0  0  0  0  0  0  0
    1.7257   -9.6307    6.4217 H   0  0  0  0  0  0  0  0  0  0  0  0
    2.1958   -6.6674   11.2712 H   0  0  0  0  0  0  0  0  0  0  0  0
   -0.2483   -6.2392    8.1304 H   0  0  0  0  0  0  0  0  0  0  0  0
   -7.1753   -1.6046    2.5793 H   0  0  0  0  0  0  0  0  0  0  0  0
   -4.9250   -0.4461    2.3625 H   0  0  0  0  0  0  0  0  0  0  0  0
   -4.6541    0.9538    4.3663 H   0  0  0  0  0  0  0  0  0  0  0  0
   -3.6119    3.4650    4.2453 H   0  0  0  0  0  0  0  0  0  0  0  0
   -3.7903    4.6114    5.6098 H   0  0  0  0  0  0  0  0  0  0  0  0
   -4.9409    4.9983    2.7738 H   0  0  0  0  0  0  0  0  0  0  0  0
   -5.2019    6.1240    4.1718 H   0  0  0  0  0  0  0  0  0  0  0  0
   -3.5433    5.8621    3.5171 H   0  0  0  0  0  0  0  0  0  0  0  0
   -7.8275    2.3375    0.8057 H   0  0  0  0  0  0  0  0  0  0  0  0
   -8.2169   -1.6984   -4.2004 H   0  0  0  0  0  0  0  0  0  0  0  0
   -8.3306   -3.3208   -6.0535 H   0  0  0  0  0  0  0  0  0  0  0  0
   -6.1848   -5.1804   -8.8244 H   0  0  0  0  0  0  0  0  0  0  0  0
   -6.0759   -3.7656   -7.7256 H   0  0  0  0  0  0  0  0  0  0  0  0
   -4.0744   -4.7866   -6.6157 H   0  0  0  0  0  0  0  0  0  0  0  0
   -3.8186   -4.6373   -8.3939 H   0  0  0  0  0  0  0  0  0  0  0  0
   -4.2220   -6.2429   -7.6851 H   0  0  0  0  0  0  0  0  0  0  0  0
   -5.0631   -4.0056   -2.3795 H   0  0  0  0  0  0  0  0  0  0  0  0
   -5.4212   -0.4343   -4.1590 H   0  0  0  0  0  0  0  0  0  0  0  0
   -3.8108    0.7224   -5.4789 H   0  0  0  0  0  0  0  0  0  0  0  0
   -1.2744    2.0688   -8.8342 H   0  0  0  0  0  0  0  0  0  0  0  0
   -1.6337    0.3280  -10.5386 H   0  0  0  0  0  0  0  0  0  0  0  0
   -4.1501   -1.1358  -10.7230 H   0  0  0  0  0  0  0  0  0  0  0  0
   -4.4530   -2.4377   -9.5006 H   0  0  0  0  0  0  0  0  0  0  0  0
   -4.1124   -2.8379  -12.5483 H   0  0  0  0  0  0  0  0  0  0  0  0
   -4.4013   -4.1558  -11.3369 H   0  0  0  0  0  0  0  0  0  0  0  0
   -5.6665   -2.8965  -11.6270 H   0  0  0  0  0  0  0  0  0  0  0  0
   -1.7656   -0.8769   -5.7251 H   0  0  0  0  0  0  0  0  0  0  0  0
    0.6379    3.3703   -1.8141 H   0  0  0  0  0  0  0  0  0  0  0  0
    1.1986    5.0774   -0.1206 H   0  0  0  0  0  0  0  0  0  0  0  0
   -1.6507    8.1803   -0.1947 H   0  0  0  0  0  0  0  0  0  0  0  0
   -0.9843    9.0198    1.2419 H   0  0  0  0  0  0  0  0  0  0  0  0
   -2.3176    7.0403    1.8951 H   0  0  0  0  0  0  0  0  0  0  0  0
   -1.2439    5.9596    0.9427 H   0  0  0  0  0  0  0  0  0  0  0  0
   -0.5898    6.8440    2.3848 H   0  0  0  0  0  0  0  0  0  0  0  0
   -1.0702    6.4241   -4.3248 H   0  0  0  0  0  0  0  0  0  0  0  0
    2.1727    4.3479   -4.4119 H   0  0  0  0  0  0  0  0  0  0  0  0
    4.4516    3.7719   -4.1922 H   0  0  0  0  0  0  0  0  0  0  0  0
    7.5880    2.1641   -1.9660 H   0  0  0  0  0  0  0  0  0  0  0  0
    7.2105    3.3117    0.1856 H   0  0  0  0  0  0  0  0  0  0  0  0
    4.1187    5.4327   -0.0561 H   0  0  0  0  0  0  0  0  0  0  0  0
    4.0450    6.6542    1.2526 H   0  0  0  0  0  0  0  0  0  0  0  0
    4.6213    4.9051    2.9499 H   0  0  0  0  0  0  0  0  0  0  0  0
    3.1340    4.4754    2.0184 H   0  0  0  0  0  0  0  0  0  0  0  0
    4.7011    3.6649    1.6320 H   0  0  0  0  0  0  0  0  0  0  0  0
    6.4137    5.7399   -4.0702 H   0  0  0  0  0  0  0  0  0  0  0  0
    9.0905    2.4345   -9.1196 H   0  0  0  0  0  0  0  0  0  0  0  0
    9.4479    1.0893  -11.1538 H   0  0  0  0  0  0  0  0  0  0  0  0
    9.4115   -2.8564  -10.1477 H   0  0  0  0  0  0  0  0  0  0  0  0
    9.8799   -3.4733  -11.7670 H   0  0  0  0  0  0  0  0  0  0  0  0
   11.4146   -1.5105  -12.0876 H   0  0  0  0  0  0  0  0  0  0  0  0
   11.8448   -2.5046  -10.6409 H   0  0  0  0  0  0  0  0  0  0  0  0
   10.9998   -0.9341  -10.4174 H   0  0  0  0  0  0  0  0  0  0  0  0
    6.3977   -0.5738   -7.6088 H   0  0  0  0  0  0  0  0  0  0  0  0
   10.3389    1.0536   -7.1435 H   0  0  0  0  0  0  0  0  0  0  0  0
   11.8970    1.7592   -5.1885 H   0  0  0  0  0  0  0  0  0  0  0  0
  1  2  2  0
  2  3  1  0
  3  4  2  0
  4  5  1  0
  5  6  2  0
  6  7  1  0
  7  8  2  0
  8  9  1  0
  9 10  1  0
 10 11  1  0
  8 12  1  0
 12 13  1  0
 12 14  2  0
  4 15  1  0
 15 16  2  0
 16 17  1  0
 17 18  1  0
 18 19  2  0
 19 20  1  0
 20 21  2  0
 21 22  1  0
 22 23  1  0
 23 24  1  0
 21 25  1  0
 25 26  2  0
 25 27  1  0
 17 28  2  0
 28 29  1  0
 16 30  1  0
 30 31  2  0
 31 32  1  0
 31 33  1  0
 33 34  1  0
 34 35  1  0
 35 36  2  0
 36 37  1  0
 37 38  1  0
 38 39  1  0
 39 40  2  0
 39 41  1  0
 35 42  1  0
 42 43  1  0
 43 44  1  0
 44 45  2  0
 45 46  1  0
 46 47  1  0
 47 48  1  0
 48 49  2  0
 48 50  1  0
 44 51  1  0
 51 52  2  0
 52 53  1  0
 53 54  2  0
 54 55  1  0
 55 56  2  0
 56 57  1  0
 57 58  2  0
 58 59  1  0
 59 60  1  0
 60 61  1  0
 58 62  1  0
 62 63  1  0
 62 64  2  0
 54 65  1  0
 65 66  2  0
 66 67  1  0
 67 68  1  0
 68 69  2  0
 69 70  1  0
 70 71  2  0
 71 72  1  0
 72 73  1  0
 73 74  1  0
 71 75  1  0
 75 76  2  0
 75 77  1  0
 67 78  2  0
 78 79  1  0
 66 80  1  0
 80 81  2  0
 81 82  1  0
 81 83  1  0
 83 84  2  0
 84 85  1  0
 85 86  2  0
 86 87  1  0
 87 88  2  0
 88 89  1  0
 89 90  2  0
 90 91  1  0
 91 92  1  0
 92 93  1  0
 90 94  1  0
 94 95  1  0
 94 96  2  0
 86 97  1  0
 97 98  2  0
 98 99  1  0
 99100  1  0
100101  2  0
101102  1  0
102103  2  0
103104  1  0
104105  1  0
105106  1  0
103107  1  0
107108  2  0
107109  1  0
 99110  2  0
110111  1  0
 98112  1  0
112113  2  0
113114  1  0
113115  1  0
115116  2  0
116117  1  0
117118  2  0
118119  1  0
119120  2  0
120121  1  0
121122  2  0
122123  1  0
123124  1  0
124125  1  0
122126  1  0
126127  1  0
126128  2  0
118129  1  0
129130  2  0
130131  1  0
131132  1  0
132133  2  0
133134  1  0
134135  2  0
135136  1  0
136137  1  0
137138  1  0
135139  1  0
139140  2  0
139141  1  0
131142  2  0
142143  1  0
130144  1  0
144145  2  0
145146  1  0
 29  1  1  0
 37 33  2  0
 46 42  2  0
 79 51  1  0
111 83  1  0
143115  1  0
 28  3  1  0
 41 36  1  0
 50 45  1  0
 78 53  1  0
110 85  1  0
142117  1  0
 14  5  1  0
 32 15  1  0
 64 55  1  0
 82 65  1  0
 96 87  1  0
114 97  1  0
128119  1  0
146129  1  0
 26 18  1  0
 76 68  1  0
108100  1  0
140132  1  0
  1147  1  0
  2148  1  0
  6149  1  0
  7150  1  0
 10151  1  0
 10152  1  0
 11153  1  0
 11154  1  0
 11155  1  0
 14156  1  0
 19157  1  0
 20158  1  0
 23159  1  0
 23160  1  0
 24161  1  0
 24162  1  0
 24163  1  0
 26164  1  0
 30165  1  0
 52166  1  0
 56167  1  0
 57168  1  0
 60169  1  0
 60170  1  0
 61171  1  0
 61172  1  0
 61173  1  0
 64174  1  0
 69175  1  0
 70176  1  0
 73177  1  0
 73178  1  0
 74179  1  0
 74180  1  0
 74181  1  0
 76182  1  0
 80183  1  0
 84184  1  0
 88185  1  0
 89186  1  0
 92187  1  0
 92188  1  0
 93189  1  0
 93190  1  0
 93191  1  0
 96192  1  0
101193  1  0
102194  1  0
105195  1  0
105196  1  0
106197  1  0
106198  1  0
106199  1  0
108200  1  0
112201  1  0
116202  1  0
120203  1  0
121204  1  0
124205  1  0
124206  1  0
125207  1  0
125208  1  0
125209  1  0
128210  1  0
133211  1  0
134212  1  0
137213  1  0
137214  1  0
138215  1  0
138216  1  0
138217  1  0
140218  1  0
144219  1  0
145220  1  0
M  END

