
     RDKit          3D

161178  0  0  0  0  0  0  0  0999 V2000
    3.6372   -8.3741   10.0471 C   0  0  0  0  0  0  0  0  0  0  0  0
    2.7807   -7.2888    9.8841 C   0  0  0  0  0  0  0  0  0  0  0  0
    2.2728   -7.1757    8.5798 C   0  0  0  0  0  0  0  0  0  0  0  0
    1.3525   -6.2111    8.1229 C   0  0  0  0  0  0  0  0  0  0  0  0
    0.8763   -5.1211    8.9904 C   0  0  0  0  0  0  0  0  0  0  0  0
    1.8446   -3.8750    9.5699 S   0  0  0  0  0  0  0  0  0  0  0  0
    0.6218   -3.0764   10.4071 C   0  0  0  0  0  0  0  0  0  0  0  0
    0.8026   -1.7778   11.1328 C   0  0  0  0  0  0  0  0  0  0  0  0
    0.5204   -0.6008   10.2056 C   0  0  0  0  0  0  0  0  0  0  0  0
   -0.5717   -3.7724   10.2287 C   0  0  0  0  0  0  0  0  0  0  0  0
   -2.1033   -3.2648   10.9220 Cl  0  0  0  0  0  0  0  0  0  0  0  0
   -0.4275   -4.9239    9.4365 C   0  0  0  0  0  0  0  0  0  0  0  0
   -1.7515   -6.0242    9.0795 Cl  0  0  0  0  0  0  0  0  0  0  0  0
    0.9534   -6.2991    6.7772 C   0  0  0  0  0  0  0  0  0  0  0  0
    1.4430   -7.2843    5.9115 C   0  0  0  0  0  0  0  0  0  0  0  0
    2.3368   -8.2698    6.3771 C   0  0  0  0  0  0  0  0  0  0  0  0
    2.7940   -9.3768    5.5171 C   0  0  0  0  0  0  0  0  0  0  0  0
    4.3963   -9.6863    5.1083 S   0  0  0  0  0  0  0  0  0  0  0  0
    4.0813  -11.0570    4.1829 C   0  0  0  0  0  0  0  0  0  0  0  0
    5.1242  -11.8454    3.4472 C   0  0  0  0  0  0  0  0  0  0  0  0
    5.2188  -11.3896    1.9971 C   0  0  0  0  0  0  0  0  0  0  0  0
    2.7063  -11.2814    4.1695 C   0  0  0  0  0  0  0  0  0  0  0  0
    1.9861  -10.3438    4.9232 C   0  0  0  0  0  0  0  0  0  0  0  0
    0.2418  -10.4246    5.1433 Cl  0  0  0  0  0  0  0  0  0  0  0  0
    1.9488  -12.6089    3.3018 Cl  0  0  0  0  0  0  0  0  0  0  0  0
    2.7406   -8.1751    7.7196 C   0  0  0  0  0  0  0  0  0  0  0  0
    3.7639   -9.1966    8.5787 S   0  0  0  0  0  0  0  0  0  0  0  0
    0.9746   -7.1438    4.5960 C   0  0  0  0  0  0  0  0  0  0  0  0
    0.0956   -6.0776    4.4518 C   0  0  0  0  0  0  0  0  0  0  0  0
   -0.0856   -5.2809    5.9256 S   0  0  0  0  0  0  0  0  0  0  0  0
   -0.5281   -5.6710    3.1956 C   0  0  0  0  0  0  0  0  0  0  0  0
    0.1440   -5.1060    2.1176 C   0  0  0  0  0  0  0  0  0  0  0  0
   -0.7076   -4.8255    1.0383 C   0  0  0  0  0  0  0  0  0  0  0  0
   -0.3463   -4.1972   -0.1707 C   0  0  0  0  0  0  0  0  0  0  0  0
    1.0354   -3.7570   -0.4427 C   0  0  0  0  0  0  0  0  0  0  0  0
    1.4981   -2.1586   -0.6912 S   0  0  0  0  0  0  0  0  0  0  0  0
    3.1312   -2.4789   -0.9281 C   0  0  0  0  0  0  0  0  0  0  0  0
    4.1737   -1.4328   -1.1865 C   0  0  0  0  0  0  0  0  0  0  0  0
    4.8597   -1.0185    0.1112 C   0  0  0  0  0  0  0  0  0  0  0  0
    3.3425   -3.8504   -0.7984 C   0  0  0  0  0  0  0  0  0  0  0  0
    4.9212   -4.6085   -0.9522 Cl  0  0  0  0  0  0  0  0  0  0  0  0
    2.1651   -4.5668   -0.5320 C   0  0  0  0  0  0  0  0  0  0  0  0
    2.1181   -6.3200   -0.3874 Cl  0  0  0  0  0  0  0  0  0  0  0  0
   -1.3813   -3.9447   -1.0880 C   0  0  0  0  0  0  0  0  0  0  0  0
   -2.7106   -4.3093   -0.8463 C   0  0  0  0  0  0  0  0  0  0  0  0
   -3.0658   -4.9627    0.3493 C   0  0  0  0  0  0  0  0  0  0  0  0
   -4.4473   -5.3879    0.6209 C   0  0  0  0  0  0  0  0  0  0  0  0
   -5.7505   -4.3491    0.8634 S   0  0  0  0  0  0  0  0  0  0  0  0
   -6.9080   -5.5608    1.0305 C   0  0  0  0  0  0  0  0  0  0  0  0
   -8.3591   -5.3176    1.3116 C   0  0  0  0  0  0  0  0  0  0  0  0
   -8.6414   -5.4010    2.8093 C   0  0  0  0  0  0  0  0  0  0  0  0
   -6.2821   -6.8027    0.9077 C   0  0  0  0  0  0  0  0  0  0  0  0
   -4.9042   -6.7049    0.6691 C   0  0  0  0  0  0  0  0  0  0  0  0
   -3.8680   -8.0998    0.4025 Cl  0  0  0  0  0  0  0  0  0  0  0  0
   -7.1411   -8.3319    1.0054 Cl  0  0  0  0  0  0  0  0  0  0  0  0
   -2.0386   -5.1905    1.2807 C   0  0  0  0  0  0  0  0  0  0  0  0
   -2.1662   -5.8379    2.8308 S   0  0  0  0  0  0  0  0  0  0  0  0
   -3.5865   -3.9239   -1.8747 C   0  0  0  0  0  0  0  0  0  0  0  0
   -2.9432   -3.2295   -2.8955 C   0  0  0  0  0  0  0  0  0  0  0  0
   -1.2896   -3.1495   -2.5674 S   0  0  0  0  0  0  0  0  0  0  0  0
   -3.6220   -2.4861   -3.9677 C   0  0  0  0  0  0  0  0  0  0  0  0
   -4.4365   -3.1114   -4.7475 N   0  0  0  0  0  2  0  0  0  0  0  0
   -3.2193   -1.1483   -4.3034 N   0  0  0  0  0  0  0  0  0  0  0  0
   -2.8930   -0.2033   -3.4626 C   0  0  0  0  0  0  0  0  0  0  0  0
   -3.1184   -0.3344   -2.0039 C   0  0  0  0  0  0  0  0  0  0  0  0
   -2.1460   -0.3484   -1.0995 C   0  0  0  0  0  0  0  0  0  0  0  0
   -2.6873   -0.4912    0.6083 S   0  0  0  0  0  0  0  0  0  0  0  0
   -4.3882   -0.4959    0.0292 C   0  0  0  0  0  0  0  0  0  0  0  0
   -4.5572   -0.4157   -1.3880 S   0  0  0  0  0  3  0  0  0  0  0  0
   -2.4524    1.0920   -4.0038 C   0  0  0  0  0  0  0  0  0  0  0  0
   -1.5132    1.9499   -3.4284 C   0  0  0  0  0  0  0  0  0  0  0  0
   -1.2853    3.1036   -4.1929 C   0  0  0  0  0  0  0  0  0  0  0  0
   -0.3687    4.1317   -3.8962 C   0  0  0  0  0  0  0  0  0  0  0  0
    0.5304    4.0750   -2.7253 C   0  0  0  0  0  0  0  0  0  0  0  0
    0.5970    5.2434   -1.5149 S   0  0  0  0  0  0  0  0  0  0  0  0
    1.8700    4.5539   -0.6618 C   0  0  0  0  0  0  0  0  0  0  0  0
    2.5437    5.1909    0.5149 C   0  0  0  0  0  0  0  0  0  0  0  0
    3.6443    6.1387    0.0500 C   0  0  0  0  0  0  0  0  0  0  0  0
    2.2815    3.4021   -1.3310 C   0  0  0  0  0  0  0  0  0  0  0  0
    3.6474    2.4220   -0.8175 Cl  0  0  0  0  0  0  0  0  0  0  0  0
    1.5283    3.1288   -2.4842 C   0  0  0  0  0  0  0  0  0  0  0  0
    1.8839    1.7871   -3.5672 Cl  0  0  0  0  0  0  0  0  0  0  0  0
   -0.3443    5.2295   -4.7726 C   0  0  0  0  0  0  0  0  0  0  0  0
   -1.1784    5.3246   -5.8927 C   0  0  0  0  0  0  0  0  0  0  0  0
   -2.0655    4.2758   -6.2116 C   0  0  0  0  0  0  0  0  0  0  0  0
   -2.9417    4.3253   -7.3962 C   0  0  0  0  0  0  0  0  0  0  0  0
   -4.6225    4.3120   -7.3462 S   0  0  0  0  0  0  0  0  0  0  0  0
   -4.8510    4.3845   -9.0123 C   0  0  0  0  0  0  0  0  0  0  0  0
   -6.1857    4.3198   -9.6907 C   0  0  0  0  0  0  0  0  0  0  0  0
   -6.5380    2.8801  -10.0477 C   0  0  0  0  0  0  0  0  0  0  0  0
   -3.6031    4.3975   -9.6347 C   0  0  0  0  0  0  0  0  0  0  0  0
   -2.5330    4.3722   -8.7276 C   0  0  0  0  0  0  0  0  0  0  0  0
   -0.8481    4.3209   -9.2279 Cl  0  0  0  0  0  0  0  0  0  0  0  0
   -3.3896    4.4108  -11.3779 Cl  0  0  0  0  0  0  0  0  0  0  0  0
   -2.0883    3.1746   -5.3371 C   0  0  0  0  0  0  0  0  0  0  0  0
   -3.0191    1.7760   -5.4417 S   0  0  0  0  0  0  0  0  0  0  0  0
   -1.0309    6.5362   -6.5922 C   0  0  0  0  0  0  0  0  0  0  0  0
   -0.0507    7.3607   -6.0401 C   0  0  0  0  0  0  0  0  0  0  0  0
    0.6108    6.6101   -4.6834 S   0  0  0  0  0  0  0  0  0  0  0  0
    0.3144    8.7089   -6.4914 C   0  0  0  0  0  0  0  0  0  0  0  0
   -0.4405    9.3522   -7.3203 N   0  0  0  0  0  2  0  0  0  0  0  0
    1.5213    9.3057   -6.0051 N   0  0  0  0  0  0  0  0  0  0  0  0
    1.6090   10.4185   -5.3323 C   0  0  0  0  0  0  0  0  0  0  0  0
    0.4091   11.1398   -4.8458 C   0  0  0  0  0  0  0  0  0  0  0  0
    0.2077   12.4344   -5.0496 C   0  0  0  0  0  0  0  0  0  0  0  0
   -1.2734   13.1116   -4.2835 S   0  0  0  0  0  0  0  0  0  0  0  0
   -1.6555   11.4698   -3.6594 C   0  0  0  0  0  0  0  0  0  0  0  0
   -0.7073   10.4526   -3.9798 S   0  0  0  0  0  3  0  0  0  0  0  0
    2.9481   10.8827   -4.9213 C   0  0  0  0  0  0  0  0  0  0  0  0
    3.9979   10.4809   -5.5658 N   0  0  0  0  0  2  0  0  0  0  0  0
    3.0826   11.7933   -3.8219 N   0  0  0  0  0  0  0  0  0  0  0  0
    3.9386   11.7131   -2.8406 C   0  0  0  0  0  0  0  0  0  0  0  0
    4.8177   10.5489   -2.5794 C   0  0  0  0  0  0  0  0  0  0  0  0
    5.9852   10.6714   -1.9635 C   0  0  0  0  0  0  0  0  0  0  0  0
    6.8481    9.1293   -1.6195 S   0  0  0  0  0  0  0  0  0  0  0  0
    5.4515    8.2389   -2.3097 C   0  0  0  0  0  0  0  0  0  0  0  0
    4.3870    9.0526   -2.8015 S   0  0  0  0  0  3  0  0  0  0  0  0
    4.1293   -8.6491   10.9700 H   0  0  0  0  0  0  0  0  0  0  0  0
    2.5234   -6.6174   10.6942 H   0  0  0  0  0  0  0  0  0  0  0  0
    0.1246   -1.7311   12.0124 H   0  0  0  0  0  0  0  0  0  0  0  0
    1.8483   -1.7073   11.5073 H   0  0  0  0  0  0  0  0  0  0  0  0
    0.7150    0.3502   10.7437 H   0  0  0  0  0  0  0  0  0  0  0  0
    1.1815   -0.6447    9.3141 H   0  0  0  0  0  0  0  0  0  0  0  0
   -0.5400   -0.6148    9.8789 H   0  0  0  0  0  0  0  0  0  0  0  0
    4.8692  -12.9260    3.4822 H   0  0  0  0  0  0  0  0  0  0  0  0
    6.1085  -11.7088    3.9410 H   0  0  0  0  0  0  0  0  0  0  0  0
    5.4773  -10.3088    1.9482 H   0  0  0  0  0  0  0  0  0  0  0  0
    4.2537  -11.5568    1.4738 H   0  0  0  0  0  0  0  0  0  0  0  0
    6.0113  -11.9694    1.4763 H   0  0  0  0  0  0  0  0  0  0  0  0
    1.2615   -7.7886    3.7737 H   0  0  0  0  0  0  0  0  0  0  0  0
    1.2037   -4.8859    2.1333 H   0  0  0  0  0  0  0  0  0  0  0  0
    4.9322   -1.8221   -1.9011 H   0  0  0  0  0  0  0  0  0  0  0  0
    3.6956   -0.5436   -1.6483 H   0  0  0  0  0  0  0  0  0  0  0  0
    4.1131   -0.6116    0.8280 H   0  0  0  0  0  0  0  0  0  0  0  0
    5.3759   -1.8881    0.5710 H   0  0  0  0  0  0  0  0  0  0  0  0
    5.6123   -0.2303   -0.1036 H   0  0  0  0  0  0  0  0  0  0  0  0
   -8.9794   -6.0679    0.7760 H   0  0  0  0  0  0  0  0  0  0  0  0
   -8.6437   -4.3098    0.9385 H   0  0  0  0  0  0  0  0  0  0  0  0
   -8.4076   -6.4170    3.1878 H   0  0  0  0  0  0  0  0  0  0  0  0
   -9.7157   -5.1908    2.9940 H   0  0  0  0  0  0  0  0  0  0  0  0
   -8.0315   -4.6536    3.3598 H   0  0  0  0  0  0  0  0  0  0  0  0
   -4.6575   -4.0767   -1.8508 H   0  0  0  0  0  0  0  0  0  0  0  0
   -1.0975   -0.3026   -1.3619 H   0  0  0  0  0  0  0  0  0  0  0  0
   -5.2369   -0.5691    0.6991 H   0  0  0  0  0  0  0  0  0  0  0  0
   -1.0023    1.7445   -2.5017 H   0  0  0  0  0  0  0  0  0  0  0  0
    2.9790    4.4141    1.1771 H   0  0  0  0  0  0  0  0  0  0  0  0
    1.7948    5.7627    1.1039 H   0  0  0  0  0  0  0  0  0  0  0  0
    4.4098    5.5827   -0.5360 H   0  0  0  0  0  0  0  0  0  0  0  0
    3.2142    6.9456   -0.5814 H   0  0  0  0  0  0  0  0  0  0  0  0
    4.1364    6.6021    0.9304 H   0  0  0  0  0  0  0  0  0  0  0  0
   -6.9649    4.7328   -9.0148 H   0  0  0  0  0  0  0  0  0  0  0  0
   -6.1726    4.9415  -10.6114 H   0  0  0  0  0  0  0  0  0  0  0  0
   -7.5415    2.8496  -10.5229 H   0  0  0  0  0  0  0  0  0  0  0  0
   -5.7952    2.4654  -10.7621 H   0  0  0  0  0  0  0  0  0  0  0  0
   -6.5570    2.2510   -9.1332 H   0  0  0  0  0  0  0  0  0  0  0  0
   -1.6129    6.8063   -7.4653 H   0  0  0  0  0  0  0  0  0  0  0  0
    0.8753   13.0458   -5.6378 H   0  0  0  0  0  0  0  0  0  0  0  0
   -2.5424   11.2587   -3.0727 H   0  0  0  0  0  0  0  0  0  0  0  0
    3.9823   12.5382   -2.1428 H   0  0  0  0  0  0  0  0  0  0  0  0
    6.3878   11.6293   -1.6636 H   0  0  0  0  0  0  0  0  0  0  0  0
    5.4063    7.1537   -2.3505 H   0  0  0  0  0  0  0  0  0  0  0  0
  1  2  2  0
  2  3  1  0
  3  4  2  0
  4  5  1  0
  5  6  1  0
  6  7  1  0
  7  8  1  0
  8  9  1  0
  7 10  2  0
 10 11  1  0
 10 12  1  0
 12 13  1  0
  4 14  1  0
 14 15  2  0
 15 16  1  0
 16 17  1  0
 17 18  1  0
 18 19  1  0
 19 20  1  0
 20 21  1  0
 19 22  2  0
 22 23  1  0
 23 24  1  0
 22 25  1  0
 16 26  2  0
 26 27  1  0
 15 28  1  0
 28 29  2  0
 29 30  1  0
 29 31  1  0
 31 32  2  0
 32 33  1  0
 33 34  2  0
 34 35  1  0
 35 36  1  0
 36 37  1  0
 37 38  1  0
 38 39  1  0
 37 40  2  0
 40 41  1  0
 40 42  1  0
 42 43  1  0
 34 44  1  0
 44 45  2  0
 45 46  1  0
 46 47  1  0
 47 48  1  0
 48 49  1  0
 49 50  1  0
 50 51  1  0
 49 52  2  0
 52 53  1  0
 53 54  1  0
 52 55  1  0
 46 56  2  0
 56 57  1  0
 45 58  1  0
 58 59  2  0
 59 60  1  0
 59 61  1  0
 61 62  2  0
 61 63  1  0
 63 64  2  0
 64 65  1  0
 65 66  2  0
 66 67  1  0
 67 68  1  0
 68 69  2  0
 64 70  1  0
 70 71  2  0
 71 72  1  0
 72 73  2  0
 73 74  1  0
 74 75  1  0
 75 76  1  0
 76 77  1  0
 77 78  1  0
 76 79  2  0
 79 80  1  0
 79 81  1  0
 81 82  1  0
 73 83  1  0
 83 84  2  0
 84 85  1  0
 85 86  1  0
 86 87  1  0
 87 88  1  0
 88 89  1  0
 89 90  1  0
 88 91  2  0
 91 92  1  0
 92 93  1  0
 91 94  1  0
 85 95  2  0
 95 96  1  0
 84 97  1  0
 97 98  2  0
 98 99  1  0
 98100  1  0
100101  2  0
100102  1  0
102103  2  0
103104  1  0
104105  2  0
105106  1  0
106107  1  0
107108  2  0
103109  1  0
109110  2  0
109111  1  0
111112  2  0
112113  1  0
113114  2  0
114115  1  0
115116  1  0
116117  2  0
 27  1  1  0
 57 31  1  0
 69 65  1  0
 96 70  1  0
108104  1  0
117113  1  0
 26  3  1  0
 56 33  1  0
 95 72  1  0
 12  5  2  0
 30 14  1  0
 42 35  2  0
 60 44  1  0
 81 74  2  0
 99 83  1  0
 23 17  2  0
 53 47  2  0
 92 86  2  0
  1118  1  0
  2119  1  0
  8120  1  0
  8121  1  0
  9122  1  0
  9123  1  0
  9124  1  0
 20125  1  0
 20126  1  0
 21127  1  0
 21128  1  0
 21129  1  0
 28130  1  0
 32131  1  0
 38132  1  0
 38133  1  0
 39134  1  0
 39135  1  0
 39136  1  0
 50137  1  0
 50138  1  0
 51139  1  0
 51140  1  0
 51141  1  0
 58142  1  0
 66143  1  0
 68144  1  0
 71145  1  0
 77146  1  0
 77147  1  0
 78148  1  0
 78149  1  0
 78150  1  0
 89151  1  0
 89152  1  0
 90153  1  0
 90154  1  0
 90155  1  0
 97156  1  0
105157  1  0
107158  1  0
112159  1  0
114160  1  0
116161  1  0
M  RAD  6  62   2  69   2 101   2 108   2 110   2 117   2
M  END

