
     RDKit          3D

176196  0  0  0  0  0  0  0  0999 V2000
   10.8921   -4.1183    8.6336 C   0  0  0  0  0  0  0  0  0  0  0  0
    9.9069   -3.3900    7.9744 C   0  0  0  0  0  0  0  0  0  0  0  0
    8.9384   -4.2015    7.3600 C   0  0  0  0  0  0  0  0  0  0  0  0
    7.8270   -3.7620    6.6114 C   0  0  0  0  0  0  0  0  0  0  0  0
    7.5603   -2.3347    6.3517 C   0  0  0  0  0  0  0  0  0  0  0  0
    7.5427   -1.6367    4.8206 S   0  0  0  0  0  0  0  0  0  0  0  0
    7.1334   -0.0875    5.3308 C   0  0  0  0  0  0  0  0  0  0  0  0
    7.0144    1.0986    4.4229 C   0  0  0  0  0  0  0  0  0  0  0  0
    8.3752    1.7512    4.2148 C   0  0  0  0  0  0  0  0  0  0  0  0
    7.0191   -0.0930    6.7213 C   0  0  0  0  0  0  0  0  0  0  0  0
    6.6236    1.3353    7.6672 Cl  0  0  0  0  0  0  0  0  0  0  0  0
    7.2450   -1.3568    7.2925 C   0  0  0  0  0  0  0  0  0  0  0  0
    7.0840   -1.6801    9.0139 Cl  0  0  0  0  0  0  0  0  0  0  0  0
    7.0097   -4.7580    6.0518 C   0  0  0  0  0  0  0  0  0  0  0  0
    7.2716   -6.1219    6.1891 C   0  0  0  0  0  0  0  0  0  0  0  0
    8.3728   -6.5606    6.9519 C   0  0  0  0  0  0  0  0  0  0  0  0
    8.6332   -7.9909    7.1861 C   0  0  0  0  0  0  0  0  0  0  0  0
    9.1099   -9.0927    6.0074 S   0  0  0  0  0  0  0  0  0  0  0  0
    9.0841  -10.4444    7.0104 C   0  0  0  0  0  0  0  0  0  0  0  0
    9.4328  -11.8356    6.5742 C   0  0  0  0  0  0  0  0  0  0  0  0
   10.8735  -12.1749    6.9369 C   0  0  0  0  0  0  0  0  0  0  0  0
    8.7074  -10.0442    8.2912 C   0  0  0  0  0  0  0  0  0  0  0  0
    8.4488   -8.6683    8.3875 C   0  0  0  0  0  0  0  0  0  0  0  0
    7.8908   -7.8879    9.8603 Cl  0  0  0  0  0  0  0  0  0  0  0  0
    8.5419  -11.1530    9.6450 Cl  0  0  0  0  0  0  0  0  0  0  0  0
    9.1830   -5.5680    7.5294 C   0  0  0  0  0  0  0  0  0  0  0  0
   10.5796   -5.7655    8.4443 S   0  0  0  0  0  0  0  0  0  0  0  0
    6.3410   -6.9365    5.5178 C   0  0  0  0  0  0  0  0  0  0  0  0
    5.3157   -6.2107    4.8976 C   0  0  0  0  0  0  0  0  0  0  0  0
    5.6106   -4.5649    5.1497 S   0  0  0  0  0  0  0  0  0  0  0  0
    4.2163   -6.7020    4.0311 C   0  0  0  0  0  0  0  0  0  0  0  0
    3.3465   -5.6610    3.0328 S   0  0  0  0  0  0  0  0  0  0  0  0
    2.3909   -6.8017    2.2655 C   0  0  0  0  0  0  0  0  0  0  0  0
    2.7610   -8.0549    2.7574 C   0  0  0  0  0  0  0  0  0  0  0  0
    3.7422   -8.0034    3.7777 C   0  0  0  0  0  0  0  0  0  0  0  0
    4.1079   -9.1854    4.4397 C   0  0  0  0  0  0  0  0  0  0  0  0
    3.6006  -10.4207    3.9981 C   0  0  0  0  0  0  0  0  0  0  0  0
    3.9736  -11.6841    4.7170 C   0  0  0  0  0  0  0  0  0  0  0  0
    2.6909  -10.4628    2.9263 C   0  0  0  0  0  0  0  0  0  0  0  0
    2.2706   -9.2840    2.3030 C   0  0  0  0  0  0  0  0  0  0  0  0
    1.3431   -6.4515    1.2903 C   0  0  0  0  0  0  0  0  0  0  0  0
    1.5131   -5.2121    0.1685 S   0  0  0  0  0  0  0  0  0  0  0  0
   -0.0744   -5.1837   -0.3893 C   0  0  0  0  0  0  0  0  0  0  0  0
   -0.7901   -6.1441    0.3397 C   0  0  0  0  0  0  0  0  0  0  0  0
   -0.0041   -6.8316    1.2928 C   0  0  0  0  0  0  0  0  0  0  0  0
   -0.6101   -7.7045    2.2085 C   0  0  0  0  0  0  0  0  0  0  0  0
   -1.9915   -7.9466    2.1285 C   0  0  0  0  0  0  0  0  0  0  0  0
   -2.6393   -8.9278    3.0607 C   0  0  0  0  0  0  0  0  0  0  0  0
   -2.7584   -7.3006    1.1431 C   0  0  0  0  0  0  0  0  0  0  0  0
   -2.1701   -6.3795    0.2699 C   0  0  0  0  0  0  0  0  0  0  0  0
   -0.6025   -4.1123   -1.2546 C   0  0  0  0  0  0  0  0  0  0  0  0
   -0.1558   -2.7927   -1.2170 C   0  0  0  0  0  0  0  0  0  0  0  0
   -0.8902   -1.9397   -2.0529 C   0  0  0  0  0  0  0  0  0  0  0  0
   -0.7205   -0.5483   -2.1685 C   0  0  0  0  0  0  0  0  0  0  0  0
    0.3104    0.1763   -1.4074 C   0  0  0  0  0  0  0  0  0  0  0  0
    1.9619    0.0999   -1.7121 S   0  0  0  0  0  0  0  0  0  0  0  0
    2.4131    1.1825   -0.5029 C   0  0  0  0  0  0  0  0  0  0  0  0
    3.8293    1.5464   -0.1728 C   0  0  0  0  0  0  0  0  0  0  0  0
    4.4081    0.5861    0.8583 C   0  0  0  0  0  0  0  0  0  0  0  0
    1.2686    1.5973    0.1755 C   0  0  0  0  0  0  0  0  0  0  0  0
    1.2963    2.6997    1.5448 Cl  0  0  0  0  0  0  0  0  0  0  0  0
    0.0886    1.0391   -0.3373 C   0  0  0  0  0  0  0  0  0  0  0  0
   -1.5057    1.3580    0.3326 Cl  0  0  0  0  0  0  0  0  0  0  0  0
   -1.6204    0.1343   -2.9986 C   0  0  0  0  0  0  0  0  0  0  0  0
   -2.6471   -0.5115   -3.6914 C   0  0  0  0  0  0  0  0  0  0  0  0
   -2.7967   -1.9128   -3.6088 C   0  0  0  0  0  0  0  0  0  0  0  0
   -3.8343   -2.6302   -4.3742 C   0  0  0  0  0  0  0  0  0  0  0  0
   -5.0330   -3.6021   -3.7033 S   0  0  0  0  0  0  0  0  0  0  0  0
   -5.7621   -4.0194   -5.1600 C   0  0  0  0  0  0  0  0  0  0  0  0
   -6.9030   -4.9825   -5.2936 C   0  0  0  0  0  0  0  0  0  0  0  0
   -6.3907   -6.4142   -5.3881 C   0  0  0  0  0  0  0  0  0  0  0  0
   -5.0563   -3.4187   -6.2020 C   0  0  0  0  0  0  0  0  0  0  0  0
   -3.9786   -2.6361   -5.7614 C   0  0  0  0  0  0  0  0  0  0  0  0
   -2.8785   -1.8108   -6.8612 Cl  0  0  0  0  0  0  0  0  0  0  0  0
   -5.4568   -3.6356   -7.8998 Cl  0  0  0  0  0  0  0  0  0  0  0  0
   -1.9045   -2.5948   -2.7602 C   0  0  0  0  0  0  0  0  0  0  0  0
   -1.8772   -4.2301   -2.3581 S   0  0  0  0  0  0  0  0  0  0  0  0
   -3.4947    0.3803   -4.3709 C   0  0  0  0  0  0  0  0  0  0  0  0
   -3.0925    1.7131   -4.2550 C   0  0  0  0  0  0  0  0  0  0  0  0
   -1.7262    1.7877   -3.2669 S   0  0  0  0  0  0  0  0  0  0  0  0
   -3.8226    2.9032   -4.7256 C   0  0  0  0  0  0  0  0  0  0  0  0
   -3.7900    4.3756   -3.9161 S   0  0  0  0  0  0  0  0  0  0  0  0
   -4.8675    5.2062   -4.9031 C   0  0  0  0  0  0  0  0  0  0  0  0
   -5.2667    4.3282   -5.9214 C   0  0  0  0  0  0  0  0  0  0  0  0
   -4.6747    3.0465   -5.8270 C   0  0  0  0  0  0  0  0  0  0  0  0
   -4.9086    2.0859   -6.8218 C   0  0  0  0  0  0  0  0  0  0  0  0
   -5.7878    2.3787   -7.8776 C   0  0  0  0  0  0  0  0  0  0  0  0
   -6.0320    1.3674   -8.9581 C   0  0  0  0  0  0  0  0  0  0  0  0
   -6.3735    3.6546   -7.9663 C   0  0  0  0  0  0  0  0  0  0  0  0
   -6.1079    4.6328   -7.0001 C   0  0  0  0  0  0  0  0  0  0  0  0
   -5.2682    6.6048   -4.6580 C   0  0  0  0  0  0  0  0  0  0  0  0
   -4.5015    7.5333   -3.9513 C   0  0  0  0  0  0  0  0  0  0  0  0
   -5.1471    8.7675   -3.7821 C   0  0  0  0  0  0  0  0  0  0  0  0
   -4.6278    9.8994   -3.1234 C   0  0  0  0  0  0  0  0  0  0  0  0
   -3.2903    9.8948   -2.5088 C   0  0  0  0  0  0  0  0  0  0  0  0
   -2.8570    8.9932   -1.1561 S   0  0  0  0  0  0  0  0  0  0  0  0
   -1.2502    9.4937   -1.1193 C   0  0  0  0  0  0  0  0  0  0  0  0
   -0.2248    8.9890   -0.1487 C   0  0  0  0  0  0  0  0  0  0  0  0
    0.3929    7.6860   -0.6427 C   0  0  0  0  0  0  0  0  0  0  0  0
   -1.0262   10.3566   -2.1917 C   0  0  0  0  0  0  0  0  0  0  0  0
    0.5409   11.0642   -2.5585 Cl  0  0  0  0  0  0  0  0  0  0  0  0
   -2.1741   10.5891   -2.9648 C   0  0  0  0  0  0  0  0  0  0  0  0
   -2.1861   11.5998   -4.4028 Cl  0  0  0  0  0  0  0  0  0  0  0  0
   -5.4486   11.0384   -3.0737 C   0  0  0  0  0  0  0  0  0  0  0  0
   -6.7255   11.0725   -3.6418 C   0  0  0  0  0  0  0  0  0  0  0  0
   -7.2422    9.9417   -4.3054 C   0  0  0  0  0  0  0  0  0  0  0  0
   -8.5840    9.9352   -4.9112 C   0  0  0  0  0  0  0  0  0  0  0  0
  -10.0246   10.0407   -4.0514 S   0  0  0  0  0  0  0  0  0  0  0  0
  -11.0378    9.9311   -5.3910 C   0  0  0  0  0  0  0  0  0  0  0  0
  -12.5303   10.0583   -5.3364 C   0  0  0  0  0  0  0  0  0  0  0  0
  -12.9492   11.5194   -5.4385 C   0  0  0  0  0  0  0  0  0  0  0  0
  -10.2530    9.8364   -6.5385 C   0  0  0  0  0  0  0  0  0  0  0  0
   -8.8764    9.8272   -6.2682 C   0  0  0  0  0  0  0  0  0  0  0  0
   -7.6444    9.7506   -7.5217 Cl  0  0  0  0  0  0  0  0  0  0  0  0
  -10.9148    9.7568   -8.1659 Cl  0  0  0  0  0  0  0  0  0  0  0  0
   -6.4208    8.8035   -4.3551 C   0  0  0  0  0  0  0  0  0  0  0  0
   -6.7575    7.3056   -5.0418 S   0  0  0  0  0  0  0  0  0  0  0  0
   -7.3652   12.3123   -3.4828 C   0  0  0  0  0  0  0  0  0  0  0  0
   -6.5982   13.2379   -2.7800 C   0  0  0  0  0  0  0  0  0  0  0  0
   -5.1261   12.5278   -2.3617 S   0  0  0  0  0  0  0  0  0  0  0  0
   11.7309   -3.6949    9.1704 H   0  0  0  0  0  0  0  0  0  0  0  0
    9.9023   -2.3093    7.9439 H   0  0  0  0  0  0  0  0  0  0  0  0
    6.3067    1.8397    4.8499 H   0  0  0  0  0  0  0  0  0  0  0  0
    6.6117    0.7695    3.4419 H   0  0  0  0  0  0  0  0  0  0  0  0
    9.0823    1.0308    3.7511 H   0  0  0  0  0  0  0  0  0  0  0  0
    8.2694    2.6267    3.5405 H   0  0  0  0  0  0  0  0  0  0  0  0
    8.7898    2.0977    5.1851 H   0  0  0  0  0  0  0  0  0  0  0  0
    9.3018  -11.9221    5.4735 H   0  0  0  0  0  0  0  0  0  0  0  0
    8.7455  -12.5632    7.0557 H   0  0  0  0  0  0  0  0  0  0  0  0
   11.0137  -12.1403    8.0384 H   0  0  0  0  0  0  0  0  0  0  0  0
   11.5733  -11.4585    6.4563 H   0  0  0  0  0  0  0  0  0  0  0  0
   11.1132  -13.1999    6.5822 H   0  0  0  0  0  0  0  0  0  0  0  0
    6.4626   -8.0021    5.4536 H   0  0  0  0  0  0  0  0  0  0  0  0
    4.7295   -9.1701    5.3170 H   0  0  0  0  0  0  0  0  0  0  0  0
    3.9110  -12.5580    4.0341 H   0  0  0  0  0  0  0  0  0  0  0  0
    3.2820  -11.8411    5.5710 H   0  0  0  0  0  0  0  0  0  0  0  0
    5.0144  -11.6223    5.0992 H   0  0  0  0  0  0  0  0  0  0  0  0
    2.2928  -11.4105    2.5844 H   0  0  0  0  0  0  0  0  0  0  0  0
    1.5715   -9.3366    1.4784 H   0  0  0  0  0  0  0  0  0  0  0  0
   -0.0339   -8.1696    2.9955 H   0  0  0  0  0  0  0  0  0  0  0  0
   -2.1056   -8.9583    4.0350 H   0  0  0  0  0  0  0  0  0  0  0  0
   -2.6174   -9.9397    2.6038 H   0  0  0  0  0  0  0  0  0  0  0  0
   -3.6948   -8.6419    3.2573 H   0  0  0  0  0  0  0  0  0  0  0  0
   -3.8221   -7.4917    1.0692 H   0  0  0  0  0  0  0  0  0  0  0  0
   -2.8012   -5.8609   -0.4327 H   0  0  0  0  0  0  0  0  0  0  0  0
    0.6391   -2.4541   -0.5660 H   0  0  0  0  0  0  0  0  0  0  0  0
    3.8733    2.5842    0.2191 H   0  0  0  0  0  0  0  0  0  0  0  0
    4.4442    1.5070   -1.0973 H   0  0  0  0  0  0  0  0  0  0  0  0
    3.8178    0.6247    1.7981 H   0  0  0  0  0  0  0  0  0  0  0  0
    5.4567    0.8730    1.0852 H   0  0  0  0  0  0  0  0  0  0  0  0
    4.4020   -0.4518    0.4637 H   0  0  0  0  0  0  0  0  0  0  0  0
   -7.5660   -4.8858   -4.4092 H   0  0  0  0  0  0  0  0  0  0  0  0
   -7.5036   -4.7403   -6.1947 H   0  0  0  0  0  0  0  0  0  0  0  0
   -5.7442   -6.5338   -6.2838 H   0  0  0  0  0  0  0  0  0  0  0  0
   -5.8077   -6.6768   -4.4791 H   0  0  0  0  0  0  0  0  0  0  0  0
   -7.2503   -7.1117   -5.4739 H   0  0  0  0  0  0  0  0  0  0  0  0
   -4.4069    0.0690   -4.8599 H   0  0  0  0  0  0  0  0  0  0  0  0
   -4.3930    1.1381   -6.8114 H   0  0  0  0  0  0  0  0  0  0  0  0
   -5.8526    0.3368   -8.5845 H   0  0  0  0  0  0  0  0  0  0  0  0
   -5.3498    1.5658   -9.8106 H   0  0  0  0  0  0  0  0  0  0  0  0
   -7.0833    1.4262   -9.3126 H   0  0  0  0  0  0  0  0  0  0  0  0
   -7.0216    3.8990   -8.7993 H   0  0  0  0  0  0  0  0  0  0  0  0
   -6.5402    5.6132   -7.1261 H   0  0  0  0  0  0  0  0  0  0  0  0
   -3.5088    7.3183   -3.5764 H   0  0  0  0  0  0  0  0  0  0  0  0
   -0.7068    8.8170    0.8366 H   0  0  0  0  0  0  0  0  0  0  0  0
    0.5724    9.7486   -0.0065 H   0  0  0  0  0  0  0  0  0  0  0  0
    1.1553    7.3388    0.0853 H   0  0  0  0  0  0  0  0  0  0  0  0
   -0.3882    6.9024   -0.7406 H   0  0  0  0  0  0  0  0  0  0  0  0
    0.8843    7.8392   -1.6265 H   0  0  0  0  0  0  0  0  0  0  0  0
  -12.9006    9.6348   -4.3783 H   0  0  0  0  0  0  0  0  0  0  0  0
  -12.9926    9.4790   -6.1637 H   0  0  0  0  0  0  0  0  0  0  0  0
  -14.0562   11.5930   -5.3943 H   0  0  0  0  0  0  0  0  0  0  0  0
  -12.5196   12.1011   -4.5960 H   0  0  0  0  0  0  0  0  0  0  0  0
  -12.6012   11.9555   -6.3994 H   0  0  0  0  0  0  0  0  0  0  0  0
   -8.3511   12.5416   -3.8655 H   0  0  0  0  0  0  0  0  0  0  0  0
   -6.8981   14.2490   -2.5418 H   0  0  0  0  0  0  0  0  0  0  0  0
  1  2  2  0
  2  3  1  0
  3  4  2  0
  4  5  1  0
  5  6  1  0
  6  7  1  0
  7  8  1  0
  8  9  1  0
  7 10  2  0
 10 11  1  0
 10 12  1  0
 12 13  1  0
  4 14  1  0
 14 15  2  0
 15 16  1  0
 16 17  1  0
 17 18  1  0
 18 19  1  0
 19 20  1  0
 20 21  1  0
 19 22  2  0
 22 23  1  0
 23 24  1  0
 22 25  1  0
 16 26  2  0
 26 27  1  0
 15 28  1  0
 28 29  2  0
 29 30  1  0
 29 31  1  0
 31 32  1  0
 32 33  1  0
 33 34  2  0
 34 35  1  0
 35 36  1  0
 36 37  2  0
 37 38  1  0
 37 39  1  0
 39 40  2  0
 33 41  1  0
 41 42  1  0
 42 43  1  0
 43 44  2  0
 44 45  1  0
 45 46  1  0
 46 47  2  0
 47 48  1  0
 47 49  1  0
 49 50  2  0
 43 51  1  0
 51 52  2  0
 52 53  1  0
 53 54  2  0
 54 55  1  0
 55 56  1  0
 56 57  1  0
 57 58  1  0
 58 59  1  0
 57 60  2  0
 60 61  1  0
 60 62  1  0
 62 63  1  0
 54 64  1  0
 64 65  2  0
 65 66  1  0
 66 67  1  0
 67 68  1  0
 68 69  1  0
 69 70  1  0
 70 71  1  0
 69 72  2  0
 72 73  1  0
 73 74  1  0
 72 75  1  0
 66 76  2  0
 76 77  1  0
 65 78  1  0
 78 79  2  0
 79 80  1  0
 79 81  1  0
 81 82  1  0
 82 83  1  0
 83 84  2  0
 84 85  1  0
 85 86  1  0
 86 87  2  0
 87 88  1  0
 87 89  1  0
 89 90  2  0
 83 91  1  0
 91 92  2  0
 92 93  1  0
 93 94  2  0
 94 95  1  0
 95 96  1  0
 96 97  1  0
 97 98  1  0
 98 99  1  0
 97100  2  0
100101  1  0
100102  1  0
102103  1  0
 94104  1  0
104105  2  0
105106  1  0
106107  1  0
107108  1  0
108109  1  0
109110  1  0
110111  1  0
109112  2  0
112113  1  0
113114  1  0
112115  1  0
106116  2  0
116117  1  0
105118  1  0
118119  2  0
119120  1  0
 27  1  1  0
 35 31  2  0
 45 41  2  0
 77 51  1  0
 85 81  2  0
117 91  1  0
 26  3  1  0
 40 34  1  0
 50 44  1  0
 76 53  1  0
 90 84  1  0
116 93  1  0
 12  5  2  0
 30 14  1  0
 62 55  2  0
 80 64  1  0
102 95  2  0
120104  1  0
 23 17  2  0
 73 67  2  0
113107  2  0
  1121  1  0
  2122  1  0
  8123  1  0
  8124  1  0
  9125  1  0
  9126  1  0
  9127  1  0
 20128  1  0
 20129  1  0
 21130  1  0
 21131  1  0
 21132  1  0
 28133  1  0
 36134  1  0
 38135  1  0
 38136  1  0
 38137  1  0
 39138  1  0
 40139  1  0
 46140  1  0
 48141  1  0
 48142  1  0
 48143  1  0
 49144  1  0
 50145  1  0
 52146  1  0
 58147  1  0
 58148  1  0
 59149  1  0
 59150  1  0
 59151  1  0
 70152  1  0
 70153  1  0
 71154  1  0
 71155  1  0
 71156  1  0
 78157  1  0
 86158  1  0
 88159  1  0
 88160  1  0
 88161  1  0
 89162  1  0
 90163  1  0
 92164  1  0
 98165  1  0
 98166  1  0
 99167  1  0
 99168  1  0
 99169  1  0
110170  1  0
110171  1  0
111172  1  0
111173  1  0
111174  1  0
118175  1  0
119176  1  0
M  END

