
     RDKit          3D

122133  0  0  0  0  0  0  0  0999 V2000
    2.7029    4.9375    5.4073 C   0  0  0  0  0  0  0  0  0  0  0  0
    1.9827    3.7536    4.4507 S   0  0  0  0  0  0  0  0  0  0  0  0
    2.8709    4.0460    3.0453 C   0  0  0  0  0  0  0  0  0  0  0  0
    3.7268    5.1166    3.2993 C   0  0  0  0  0  0  0  0  0  0  0  0
    3.6338    5.6036    4.6165 C   0  0  0  0  0  0  0  0  0  0  0  0
    4.4061    6.6904    5.0323 C   0  0  0  0  0  0  0  0  0  0  0  0
    5.2649    7.3162    4.1085 C   0  0  0  0  0  0  0  0  0  0  0  0
    6.1265    8.4630    4.5463 C   0  0  0  0  0  0  0  0  0  0  0  0
    5.3479    6.8322    2.7856 C   0  0  0  0  0  0  0  0  0  0  0  0
    4.5705    5.7410    2.3734 C   0  0  0  0  0  0  0  0  0  0  0  0
    2.6496    3.3636    1.7630 C   0  0  0  0  0  0  0  0  0  0  0  0
    1.1444    3.1716    1.0538 S   0  0  0  0  0  0  0  0  0  0  0  0
    1.6595    2.3852   -0.3428 C   0  0  0  0  0  0  0  0  0  0  0  0
    3.0378    2.1972   -0.2336 C   0  0  0  0  0  0  0  0  0  0  0  0
    3.5915    2.7523    0.9370 C   0  0  0  0  0  0  0  0  0  0  0  0
    4.9528    2.6032    1.2183 C   0  0  0  0  0  0  0  0  0  0  0  0
    5.7757    1.9221    0.3028 C   0  0  0  0  0  0  0  0  0  0  0  0
    7.2282    1.7150    0.6185 C   0  0  0  0  0  0  0  0  0  0  0  0
    5.2168    1.3723   -0.8690 C   0  0  0  0  0  0  0  0  0  0  0  0
    3.8507    1.5128   -1.1438 C   0  0  0  0  0  0  0  0  0  0  0  0
    0.7471    1.7817   -1.3294 C   0  0  0  0  0  0  0  0  0  0  0  0
    0.6978    0.1232   -1.6189 S   0  0  0  0  0  0  0  0  0  0  0  0
   -0.7470    0.0910   -2.4865 C   0  0  0  0  0  0  0  0  0  0  0  0
   -1.2166    1.4041   -2.5478 C   0  0  0  0  0  0  0  0  0  0  0  0
   -0.3793    2.3581   -1.9421 C   0  0  0  0  0  0  0  0  0  0  0  0
   -0.6518    3.8144   -2.2830 C   0  0  2  0  0  0  0  0  0  0  0  0
    0.4088    5.0604   -1.4721 S   0  0  0  0  0  0  0  0  0  0  0  0
   -2.1448    4.1526   -2.0802 C   0  0  0  0  0  0  0  0  0  0  0  0
   -3.1233    3.0002   -2.4418 C   0  0  0  0  0  0  0  0  0  0  0  0
   -2.4797    1.8459   -3.2331 C   0  0  0  0  0  0  0  0  0  0  0  0
   -1.3293   -1.0618   -3.2142 C   0  0  0  0  0  0  0  0  0  0  0  0
   -1.0495   -2.3531   -3.0024 C   0  0  0  0  0  0  0  0  0  0  0  0
   -0.2581   -2.8636   -1.8764 C   0  0  0  0  0  0  0  0  0  0  0  0
   -0.7176   -2.6493   -0.2817 S   0  0  0  0  0  0  0  0  0  0  0  0
    0.4941   -3.5593    0.4402 C   0  0  0  0  0  0  0  0  0  0  0  0
    1.2898   -4.0676   -0.5980 C   0  0  0  0  0  0  0  0  0  0  0  0
    0.8627   -3.7086   -1.8988 C   0  0  0  0  0  0  0  0  0  0  0  0
    1.7457   -4.0310   -3.1019 C   0  0  2  0  0  0  0  0  0  0  0  0
    0.8434   -4.1338   -4.6957 S   0  0  0  0  0  0  0  0  0  0  0  0
    2.5894   -5.3306   -2.9270 C   0  0  0  0  0  0  0  0  0  0  0  0
    2.5808   -5.9538   -1.5175 C   0  0  0  0  0  0  0  0  0  0  0  0
    2.5213   -4.9044   -0.4124 C   0  0  0  0  0  0  0  0  0  0  0  0
    0.7217   -3.7489    1.8991 C   0  0  0  0  0  0  0  0  0  0  0  0
   -0.1433   -3.4545    2.8866 C   0  0  0  0  0  0  0  0  0  0  0  0
   -1.4812   -2.8851    2.6869 C   0  0  0  0  0  0  0  0  0  0  0  0
   -2.8584   -3.8118    2.4222 S   0  0  0  0  0  0  0  0  0  0  0  0
   -3.8506   -2.5383    1.9435 C   0  0  0  0  0  0  0  0  0  0  0  0
   -3.1279   -1.3496    2.0591 C   0  0  0  0  0  0  0  0  0  0  0  0
   -1.8003   -1.5344    2.5064 C   0  0  0  0  0  0  0  0  0  0  0  0
   -0.8075   -0.3871    2.5791 C   0  0  2  0  0  0  0  0  0  0  0  0
    0.2446   -0.4805    4.0704 S   0  0  0  0  0  0  0  0  0  0  0  0
   -1.5279    0.9732    2.5663 C   0  0  0  0  0  0  0  0  0  0  0  0
   -2.5844    1.0240    1.4565 C   0  0  0  0  0  0  0  0  0  0  0  0
   -3.6978    0.0090    1.7415 C   0  0  0  0  0  0  0  0  0  0  0  0
   -5.2980   -2.6250    1.6850 C   0  0  0  0  0  0  0  0  0  0  0  0
   -5.8962   -3.2303    0.6452 C   0  0  0  0  0  0  0  0  0  0  0  0
   -5.2559   -3.9332   -0.5015 C   0  0  0  0  0  0  0  0  0  0  0  0
   -3.6534   -4.4310   -0.6299 S   0  0  0  0  0  0  0  0  0  0  0  0
   -3.7559   -5.1795   -2.1283 C   0  0  0  0  0  0  0  0  0  0  0  0
   -5.0761   -5.0623   -2.5673 C   0  0  0  0  0  0  0  0  0  0  0  0
   -5.9127   -4.3611   -1.6670 C   0  0  0  0  0  0  0  0  0  0  0  0
   -7.3892   -4.1605   -1.9304 C   0  0  2  0  0  0  0  0  0  0  0  0
   -8.3523   -5.2930   -0.8659 S   0  0  0  0  0  0  0  0  0  0  0  0
   -7.7427   -4.3911   -3.4126 C   0  0  0  0  0  0  0  0  0  0  0  0
   -7.0845   -5.6684   -3.9523 C   0  0  0  0  0  0  0  0  0  0  0  0
   -5.5583   -5.5475   -3.9138 C   0  0  0  0  0  0  0  0  0  0  0  0
   -2.6487   -5.8591   -2.8351 C   0  0  0  0  0  0  0  0  0  0  0  0
   -1.4744   -6.0975   -2.2564 C   0  0  0  0  0  0  0  0  0  0  0  0
    2.4587    5.1615    6.4371 H   0  0  0  0  0  0  0  0  0  0  0  0
    4.3325    7.0527    6.0507 H   0  0  0  0  0  0  0  0  0  0  0  0
    6.4027    9.1036    3.6837 H   0  0  0  0  0  0  0  0  0  0  0  0
    5.5862    9.0937    5.2846 H   0  0  0  0  0  0  0  0  0  0  0  0
    7.0520    8.0658    5.0177 H   0  0  0  0  0  0  0  0  0  0  0  0
    6.0023    7.3125    2.0688 H   0  0  0  0  0  0  0  0  0  0  0  0
    4.6207    5.4044    1.3466 H   0  0  0  0  0  0  0  0  0  0  0  0
    5.3702    2.9907    2.1404 H   0  0  0  0  0  0  0  0  0  0  0  0
    7.6331    2.5932    1.1646 H   0  0  0  0  0  0  0  0  0  0  0  0
    7.8183    1.5893   -0.3144 H   0  0  0  0  0  0  0  0  0  0  0  0
    7.3455    0.8103    1.2501 H   0  0  0  0  0  0  0  0  0  0  0  0
    5.8414    0.8221   -1.5643 H   0  0  0  0  0  0  0  0  0  0  0  0
    3.4439    1.0873   -2.0520 H   0  0  0  0  0  0  0  0  0  0  0  0
   -0.4352    3.9144   -3.3707 H   0  0  0  0  0  0  0  0  0  0  0  0
   -0.1745    6.1406   -2.1661 H   0  0  0  0  0  0  0  0  0  0  0  0
   -2.3860    5.0343   -2.7065 H   0  0  0  0  0  0  0  0  0  0  0  0
   -2.3168    4.4415   -1.0220 H   0  0  0  0  0  0  0  0  0  0  0  0
   -3.9765    3.4087   -3.0313 H   0  0  0  0  0  0  0  0  0  0  0  0
   -3.5507    2.5783   -1.5040 H   0  0  0  0  0  0  0  0  0  0  0  0
   -2.2366    2.1805   -4.2631 H   0  0  0  0  0  0  0  0  0  0  0  0
   -3.2141    1.0128   -3.2982 H   0  0  0  0  0  0  0  0  0  0  0  0
   -2.0024   -0.8413   -4.0296 H   0  0  0  0  0  0  0  0  0  0  0  0
   -1.5121   -3.0806   -3.6549 H   0  0  0  0  0  0  0  0  0  0  0  0
    2.4648   -3.1858   -3.1905 H   0  0  0  0  0  0  0  0  0  0  0  0
    0.9112   -2.7433   -4.9227 H   0  0  0  0  0  0  0  0  0  0  0  0
    3.6435   -5.1123   -3.2118 H   0  0  0  0  0  0  0  0  0  0  0  0
    2.2370   -6.1213   -3.6294 H   0  0  0  0  0  0  0  0  0  0  0  0
    1.6942   -6.6238   -1.4211 H   0  0  0  0  0  0  0  0  0  0  0  0
    3.4890   -6.5793   -1.3863 H   0  0  0  0  0  0  0  0  0  0  0  0
    2.5081   -5.4313    0.5627 H   0  0  0  0  0  0  0  0  0  0  0  0
    3.4180   -4.2506   -0.4546 H   0  0  0  0  0  0  0  0  0  0  0  0
    1.6627   -4.1801    2.2063 H   0  0  0  0  0  0  0  0  0  0  0  0
    0.1481   -3.6713    3.9051 H   0  0  0  0  0  0  0  0  0  0  0  0
   -0.1478   -0.4385    1.6883 H   0  0  0  0  0  0  0  0  0  0  0  0
   -0.8549   -0.6474    4.9443 H   0  0  0  0  0  0  0  0  0  0  0  0
   -2.0208    1.1562    3.5492 H   0  0  0  0  0  0  0  0  0  0  0  0
   -0.7898    1.7825    2.4111 H   0  0  0  0  0  0  0  0  0  0  0  0
   -2.1089    0.7995    0.4771 H   0  0  0  0  0  0  0  0  0  0  0  0
   -3.0189    2.0448    1.4057 H   0  0  0  0  0  0  0  0  0  0  0  0
   -4.2999    0.3502    2.6107 H   0  0  0  0  0  0  0  0  0  0  0  0
   -4.3624   -0.0519    0.8520 H   0  0  0  0  0  0  0  0  0  0  0  0
   -5.9319   -2.0746    2.3730 H   0  0  0  0  0  0  0  0  0  0  0  0
   -6.9725   -3.1463    0.6193 H   0  0  0  0  0  0  0  0  0  0  0  0
   -7.6658   -3.1150   -1.6702 H   0  0  0  0  0  0  0  0  0  0  0  0
   -9.5552   -4.5947   -1.0820 H   0  0  0  0  0  0  0  0  0  0  0  0
   -8.8457   -4.4626   -3.5346 H   0  0  0  0  0  0  0  0  0  0  0  0
   -7.3997   -3.5204   -4.0136 H   0  0  0  0  0  0  0  0  0  0  0  0
   -7.4014   -6.5446   -3.3445 H   0  0  0  0  0  0  0  0  0  0  0  0
   -7.4162   -5.8446   -4.9965 H   0  0  0  0  0  0  0  0  0  0  0  0
   -5.2289   -4.8248   -4.6891 H   0  0  0  0  0  0  0  0  0  0  0  0
   -5.1224   -6.5436   -4.1402 H   0  0  0  0  0  0  0  0  0  0  0  0
   -2.7957   -6.1912   -3.8546 H   0  0  0  0  0  0  0  0  0  0  0  0
   -1.2707   -5.8048   -1.2324 H   0  0  0  0  0  0  0  0  0  0  0  0
   -0.6937   -6.6021   -2.8095 H   0  0  0  0  0  0  0  0  0  0  0  0
  1  2  1  0
  2  3  1  0
  3  4  2  0
  4  5  1  0
  5  6  1  0
  6  7  2  0
  7  8  1  0
  7  9  1  0
  9 10  2  0
  3 11  1  0
 11 12  1  0
 12 13  1  0
 13 14  2  0
 14 15  1  0
 15 16  1  0
 16 17  2  0
 17 18  1  0
 17 19  1  0
 19 20  2  0
 13 21  1  0
 21 22  1  0
 22 23  1  0
 23 24  2  0
 24 25  1  0
 25 26  1  0
 26 27  1  0
 26 28  1  0
 28 29  1  0
 29 30  1  0
 23 31  1  0
 31 32  2  3
 32 33  1  0
 33 34  1  0
 34 35  1  0
 35 36  2  0
 36 37  1  0
 37 38  1  0
 38 39  1  0
 38 40  1  0
 40 41  1  0
 41 42  1  0
 35 43  1  0
 43 44  2  3
 44 45  1  0
 45 46  1  0
 46 47  1  0
 47 48  2  0
 48 49  1  0
 49 50  1  0
 50 51  1  0
 50 52  1  0
 52 53  1  0
 53 54  1  0
 47 55  1  0
 55 56  2  3
 56 57  1  0
 57 58  1  0
 58 59  1  0
 59 60  2  0
 60 61  1  0
 61 62  1  0
 62 63  1  0
 62 64  1  0
 64 65  1  0
 65 66  1  0
 59 67  1  0
 67 68  2  3
  5  1  2  0
 15 11  2  0
 25 21  2  0
 37 33  2  0
 49 45  2  0
 61 57  2  0
 10  4  1  0
 20 14  1  0
 30 24  1  0
 42 36  1  0
 54 48  1  0
 66 60  1  0
  1 69  1  0
  6 70  1  0
  8 71  1  0
  8 72  1  0
  8 73  1  0
  9 74  1  0
 10 75  1  0
 16 76  1  0
 18 77  1  0
 18 78  1  0
 18 79  1  0
 19 80  1  0
 20 81  1  0
 26 82  1  6
 27 83  1  0
 28 84  1  0
 28 85  1  0
 29 86  1  0
 29 87  1  0
 30 88  1  0
 30 89  1  0
 31 90  1  0
 32 91  1  0
 38 92  1  6
 39 93  1  0
 40 94  1  0
 40 95  1  0
 41 96  1  0
 41 97  1  0
 42 98  1  0
 42 99  1  0
 43100  1  0
 44101  1  0
 50102  1  6
 51103  1  0
 52104  1  0
 52105  1  0
 53106  1  0
 53107  1  0
 54108  1  0
 54109  1  0
 55110  1  0
 56111  1  0
 62112  1  1
 63113  1  0
 64114  1  0
 64115  1  0
 65116  1  0
 65117  1  0
 66118  1  0
 66119  1  0
 67120  1  0
 68121  1  0
 68122  1  0
M  END

