
     RDKit          3D

228254  0  0  0  0  0  0  0  0999 V2000
    1.6518  -12.2562    5.2053 C   0  0  0  0  0  0  0  0  0  0  0  0
    1.4672  -10.8800    5.2988 C   0  0  0  0  0  0  0  0  0  0  0  0
    0.4745  -10.3938    4.4299 C   0  0  0  0  0  0  0  0  0  0  0  0
    0.0712   -9.0510    4.2844 C   0  0  0  0  0  0  0  0  0  0  0  0
    0.6607   -7.9547    5.0764 C   0  0  0  0  0  0  0  0  0  0  0  0
    1.4481   -6.6198    4.4231 S   0  0  0  0  0  0  0  0  0  0  0  0
    1.7515   -5.8403    5.8839 C   0  0  0  0  0  0  0  0  0  0  0  0
    2.3661   -4.4747    6.0240 C   0  0  0  0  0  0  0  0  0  0  0  0
    3.5763   -4.2971    5.1099 C   0  0  0  0  0  0  0  0  0  0  0  0
    1.1973   -6.6079    6.9095 C   0  0  0  0  0  0  0  0  0  0  0  0
    1.2037   -6.1201    8.6020 Cl  0  0  0  0  0  0  0  0  0  0  0  0
    0.5947   -7.7956    6.4590 C   0  0  0  0  0  0  0  0  0  0  0  0
   -0.2492   -8.9095    7.5280 Cl  0  0  0  0  0  0  0  0  0  0  0  0
   -0.9054   -8.7876    3.3098 C   0  0  0  0  0  0  0  0  0  0  0  0
   -1.4640   -9.7861    2.5044 C   0  0  0  0  0  0  0  0  0  0  0  0
   -1.0825  -11.1300    2.6733 C   0  0  0  0  0  0  0  0  0  0  0  0
   -1.6909  -12.2136    1.8867 C   0  0  0  0  0  0  0  0  0  0  0  0
   -1.4409  -12.4701    0.2465 S   0  0  0  0  0  0  0  0  0  0  0  0
   -2.4340  -13.8247    0.1266 C   0  0  0  0  0  0  0  0  0  0  0  0
   -2.7278  -14.5535   -1.1492 C   0  0  0  0  0  0  0  0  0  0  0  0
   -3.9181  -13.9276   -1.8653 C   0  0  0  0  0  0  0  0  0  0  0  0
   -2.9999  -14.0771    1.3760 C   0  0  0  0  0  0  0  0  0  0  0  0
   -2.5715  -13.1800    2.3667 C   0  0  0  0  0  0  0  0  0  0  0  0
   -3.1259  -13.2374    4.0371 Cl  0  0  0  0  0  0  0  0  0  0  0  0
   -4.1524  -15.3684    1.6771 Cl  0  0  0  0  0  0  0  0  0  0  0  0
   -0.1043  -11.3974    3.6454 C   0  0  0  0  0  0  0  0  0  0  0  0
    0.6006  -12.8751    4.0394 S   0  0  0  0  0  0  0  0  0  0  0  0
   -2.4147   -9.2942    1.5920 C   0  0  0  0  0  0  0  0  0  0  0  0
   -2.6099   -7.9190    1.7094 C   0  0  0  0  0  0  0  0  0  0  0  0
   -1.6120   -7.3125    2.9265 S   0  0  0  0  0  0  0  0  0  0  0  0
   -3.5034   -7.0904    0.8915 C   0  0  0  0  0  0  0  0  0  0  0  0
   -3.9708   -5.8339    1.2626 C   0  0  0  0  0  0  0  0  0  0  0  0
   -4.6993   -5.1979    0.2470 C   0  0  0  0  0  0  0  0  0  0  0  0
   -5.2459   -3.9037    0.3085 C   0  0  0  0  0  0  0  0  0  0  0  0
   -5.0753   -3.0426    1.4923 C   0  0  0  0  0  0  0  0  0  0  0  0
   -4.0836   -1.6846    1.5444 S   0  0  0  0  0  0  0  0  0  0  0  0
   -4.3451   -1.3320    3.1679 C   0  0  0  0  0  0  0  0  0  0  0  0
   -3.6314   -0.2534    3.9254 C   0  0  0  0  0  0  0  0  0  0  0  0
   -2.3189   -0.7783    4.4965 C   0  0  0  0  0  0  0  0  0  0  0  0
   -5.2015   -2.2957    3.6998 C   0  0  0  0  0  0  0  0  0  0  0  0
   -5.6999   -2.3276    5.3870 Cl  0  0  0  0  0  0  0  0  0  0  0  0
   -5.6128   -3.2540    2.7603 C   0  0  0  0  0  0  0  0  0  0  0  0
   -6.6999   -4.5813    3.1411 Cl  0  0  0  0  0  0  0  0  0  0  0  0
   -5.8386   -3.4122   -0.8619 C   0  0  0  0  0  0  0  0  0  0  0  0
   -5.8672   -4.1296   -2.0629 C   0  0  0  0  0  0  0  0  0  0  0  0
   -5.3455   -5.4417   -2.1151 C   0  0  0  0  0  0  0  0  0  0  0  0
   -5.3319   -6.2347   -3.3548 C   0  0  0  0  0  0  0  0  0  0  0  0
   -4.3250   -5.9450   -4.6710 S   0  0  0  0  0  0  0  0  0  0  0  0
   -4.7936   -7.3003   -5.5539 C   0  0  0  0  0  0  0  0  0  0  0  0
   -4.1842   -7.7268   -6.8549 C   0  0  0  0  0  0  0  0  0  0  0  0
   -3.0746   -8.7475   -6.6252 C   0  0  0  0  0  0  0  0  0  0  0  0
   -5.7353   -8.0116   -4.8120 C   0  0  0  0  0  0  0  0  0  0  0  0
   -6.0341   -7.4155   -3.5771 C   0  0  0  0  0  0  0  0  0  0  0  0
   -7.1709   -8.0992   -2.4234 Cl  0  0  0  0  0  0  0  0  0  0  0  0
   -6.4488   -9.5281   -5.3446 Cl  0  0  0  0  0  0  0  0  0  0  0  0
   -4.7788   -5.9500   -0.9299 C   0  0  0  0  0  0  0  0  0  0  0  0
   -3.9714   -7.4143   -0.6990 S   0  0  0  0  0  0  0  0  0  0  0  0
   -6.4017   -3.3868   -3.1354 C   0  0  0  0  0  0  0  0  0  0  0  0
   -6.8200   -2.1108   -2.7497 C   0  0  0  0  0  0  0  0  0  0  0  0
   -6.5078   -1.8979   -1.1066 S   0  0  0  0  0  0  0  0  0  0  0  0
   -7.1078   -0.9763   -3.6336 C   0  0  0  0  0  0  0  0  0  0  0  0
   -6.2506   -0.5970   -4.6672 C   0  0  0  0  0  0  0  0  0  0  0  0
   -6.2488    0.7912   -4.9047 C   0  0  0  0  0  0  0  0  0  0  0  0
   -5.2903    1.4995   -5.6620 C   0  0  0  0  0  0  0  0  0  0  0  0
   -4.2250    0.8135   -6.4133 C   0  0  0  0  0  0  0  0  0  0  0  0
   -3.0205   -0.1400   -5.7255 S   0  0  0  0  0  0  0  0  0  0  0  0
   -2.1968   -0.4458   -7.1594 C   0  0  0  0  0  0  0  0  0  0  0  0
   -1.0065   -1.3485   -7.2776 C   0  0  0  0  0  0  0  0  0  0  0  0
   -1.4462   -2.7914   -7.4959 C   0  0  0  0  0  0  0  0  0  0  0  0
   -2.8607    0.1971   -8.2036 C   0  0  0  0  0  0  0  0  0  0  0  0
   -2.3457    0.1163   -9.8829 Cl  0  0  0  0  0  0  0  0  0  0  0  0
   -3.9883    0.9171   -7.7805 C   0  0  0  0  0  0  0  0  0  0  0  0
   -5.0131    1.8413   -8.8695 Cl  0  0  0  0  0  0  0  0  0  0  0  0
   -5.2471    2.8942   -5.4859 C   0  0  0  0  0  0  0  0  0  0  0  0
   -6.1354    3.5755   -4.6470 C   0  0  0  0  0  0  0  0  0  0  0  0
   -7.1675    2.8813   -3.9880 C   0  0  0  0  0  0  0  0  0  0  0  0
   -8.0680    3.5450   -3.0306 C   0  0  0  0  0  0  0  0  0  0  0  0
   -7.6417    4.0286   -1.4760 S   0  0  0  0  0  0  0  0  0  0  0  0
   -9.1785    4.5534   -1.0303 C   0  0  0  0  0  0  0  0  0  0  0  0
   -9.5175    5.1640    0.2959 C   0  0  0  0  0  0  0  0  0  0  0  0
   -9.2336    6.6607    0.2918 C   0  0  0  0  0  0  0  0  0  0  0  0
  -10.0462    4.3665   -2.1053 C   0  0  0  0  0  0  0  0  0  0  0  0
   -9.4250    3.7833   -3.2210 C   0  0  0  0  0  0  0  0  0  0  0  0
  -10.2741    3.3836   -4.7083 Cl  0  0  0  0  0  0  0  0  0  0  0  0
  -11.7501    4.7998   -2.0705 Cl  0  0  0  0  0  0  0  0  0  0  0  0
   -7.1740    1.4836   -4.1154 C   0  0  0  0  0  0  0  0  0  0  0  0
   -7.9327    0.3921   -3.0914 S   0  0  0  0  0  0  0  0  0  0  0  0
   -5.7268    4.8877   -4.3551 C   0  0  0  0  0  0  0  0  0  0  0  0
   -4.4758    5.2109   -4.8867 C   0  0  0  0  0  0  0  0  0  0  0  0
   -3.9494    3.9062   -5.8227 S   0  0  0  0  0  0  0  0  0  0  0  0
   -3.5238    6.0940   -4.1883 C   0  0  0  0  0  0  0  0  0  0  0  0
   -2.1797    6.2333   -4.5513 C   0  0  0  0  0  0  0  0  0  0  0  0
   -1.3391    6.5305   -3.4631 C   0  0  0  0  0  0  0  0  0  0  0  0
    0.0684    6.5116   -3.4849 C   0  0  0  0  0  0  0  0  0  0  0  0
    0.8197    6.3866   -4.7397 C   0  0  0  0  0  0  0  0  0  0  0  0
    1.1409    7.6620   -5.7791 S   0  0  0  0  0  0  0  0  0  0  0  0
    2.0782    6.7774   -6.8671 C   0  0  0  0  0  0  0  0  0  0  0  0
    2.6801    7.3216   -8.1325 C   0  0  0  0  0  0  0  0  0  0  0  0
    3.2950    8.7034   -7.9220 C   0  0  0  0  0  0  0  0  0  0  0  0
    2.1148    5.4494   -6.4370 C   0  0  0  0  0  0  0  0  0  0  0  0
    2.9408    4.1650   -7.3079 Cl  0  0  0  0  0  0  0  0  0  0  0  0
    1.4200    5.2343   -5.2361 C   0  0  0  0  0  0  0  0  0  0  0  0
    1.2950    3.6637   -4.4538 Cl  0  0  0  0  0  0  0  0  0  0  0  0
    0.7270    6.5204   -2.2446 C   0  0  0  0  0  0  0  0  0  0  0  0
    0.0380    6.5925   -1.0307 C   0  0  0  0  0  0  0  0  0  0  0  0
   -1.3681    6.6846   -1.0090 C   0  0  0  0  0  0  0  0  0  0  0  0
   -2.1227    6.5663    0.2506 C   0  0  0  0  0  0  0  0  0  0  0  0
   -2.9774    5.1963    0.7234 S   0  0  0  0  0  0  0  0  0  0  0  0
   -3.4066    5.7677    2.2458 C   0  0  0  0  0  0  0  0  0  0  0  0
   -4.1423    4.9640    3.2749 C   0  0  0  0  0  0  0  0  0  0  0  0
   -3.1652    4.2411    4.1951 C   0  0  0  0  0  0  0  0  0  0  0  0
   -2.8541    7.0365    2.4172 C   0  0  0  0  0  0  0  0  0  0  0  0
   -2.1317    7.4831    1.2983 C   0  0  0  0  0  0  0  0  0  0  0  0
   -1.3148    9.0380    1.2283 Cl  0  0  0  0  0  0  0  0  0  0  0  0
   -3.0163    7.9766    3.8940 Cl  0  0  0  0  0  0  0  0  0  0  0  0
   -2.0244    6.6439   -2.2506 C   0  0  0  0  0  0  0  0  0  0  0  0
   -3.6592    6.4038   -2.5325 S   0  0  0  0  0  0  0  0  0  0  0  0
    0.8627    6.3789    0.0860 C   0  0  0  0  0  0  0  0  0  0  0  0
    2.1806    6.0901   -0.2583 C   0  0  0  0  0  0  0  0  0  0  0  0
    2.3464    6.1804   -1.9342 S   0  0  0  0  0  0  0  0  0  0  0  0
    3.1798    5.4770    0.6295 C   0  0  0  0  0  0  0  0  0  0  0  0
    4.8379    5.7619    0.5332 S   0  0  0  0  0  0  0  0  0  0  0  0
    5.3228    4.5794    1.6303 C   0  0  0  0  0  0  0  0  0  0  0  0
    4.1760    3.9230    2.0839 C   0  0  0  0  0  0  0  0  0  0  0  0
    2.9813    4.4084    1.5150 C   0  0  0  0  0  0  0  0  0  0  0  0
    1.7612    3.7767    1.8021 C   0  0  0  0  0  0  0  0  0  0  0  0
    1.7301    2.6994    2.7024 C   0  0  0  0  0  0  0  0  0  0  0  0
    0.4193    2.0551    3.0520 C   0  0  0  0  0  0  0  0  0  0  0  0
    2.9191    2.2693    3.3212 C   0  0  0  0  0  0  0  0  0  0  0  0
    4.1440    2.8695    3.0075 C   0  0  0  0  0  0  0  0  0  0  0  0
    6.7209    4.1856    1.8532 C   0  0  0  0  0  0  0  0  0  0  0  0
    7.1962    2.8777    1.8302 C   0  0  0  0  0  0  0  0  0  0  0  0
    8.5870    2.7998    1.9802 C   0  0  0  0  0  0  0  0  0  0  0  0
    9.3536    1.6190    1.9988 C   0  0  0  0  0  0  0  0  0  0  0  0
    8.7360    0.2936    1.8214 C   0  0  0  0  0  0  0  0  0  0  0  0
    7.9692   -0.2239    0.4172 S   0  0  0  0  0  0  0  0  0  0  0  0
    7.4395   -1.6969    1.0331 C   0  0  0  0  0  0  0  0  0  0  0  0
    6.5618   -2.6592    0.2917 C   0  0  0  0  0  0  0  0  0  0  0  0
    5.0899   -2.3285    0.5166 C   0  0  0  0  0  0  0  0  0  0  0  0
    7.8335   -1.7899    2.3675 C   0  0  0  0  0  0  0  0  0  0  0  0
    7.4122   -3.1398    3.4118 Cl  0  0  0  0  0  0  0  0  0  0  0  0
    8.5674   -0.6763    2.8071 C   0  0  0  0  0  0  0  0  0  0  0  0
    9.1498   -0.4900    4.4558 Cl  0  0  0  0  0  0  0  0  0  0  0  0
   10.7388    1.7643    2.1766 C   0  0  0  0  0  0  0  0  0  0  0  0
   11.3529    3.0127    2.3300 C   0  0  0  0  0  0  0  0  0  0  0  0
   10.5833    4.1954    2.3191 C   0  0  0  0  0  0  0  0  0  0  0  0
   11.1891    5.5248    2.5162 C   0  0  0  0  0  0  0  0  0  0  0  0
   11.1515    6.7780    1.3942 S   0  0  0  0  0  0  0  0  0  0  0  0
   11.9941    7.8889    2.3377 C   0  0  0  0  0  0  0  0  0  0  0  0
   12.2724    9.3052    1.9374 C   0  0  0  0  0  0  0  0  0  0  0  0
   11.1763   10.2379    2.4414 C   0  0  0  0  0  0  0  0  0  0  0  0
   12.2935    7.2969    3.5633 C   0  0  0  0  0  0  0  0  0  0  0  0
   11.8472    5.9690    3.6623 C   0  0  0  0  0  0  0  0  0  0  0  0
   12.0359    4.9960    5.1151 Cl  0  0  0  0  0  0  0  0  0  0  0  0
   13.1205    8.1367    4.8692 Cl  0  0  0  0  0  0  0  0  0  0  0  0
    9.1983    4.0499    2.1253 C   0  0  0  0  0  0  0  0  0  0  0  0
    8.0165    5.2490    2.0443 S   0  0  0  0  0  0  0  0  0  0  0  0
   12.7512    2.9260    2.4427 C   0  0  0  0  0  0  0  0  0  0  0  0
   13.2262    1.6176    2.3866 C   0  0  0  0  0  0  0  0  0  0  0  0
   11.9214    0.5674    2.1854 S   0  0  0  0  0  0  0  0  0  0  0  0
    2.3590  -12.8351    5.7821 H   0  0  0  0  0  0  0  0  0  0  0  0
    2.0406  -10.2582    5.9743 H   0  0  0  0  0  0  0  0  0  0  0  0
    1.6026   -3.7054    5.7809 H   0  0  0  0  0  0  0  0  0  0  0  0
    2.6968   -4.3134    7.0715 H   0  0  0  0  0  0  0  0  0  0  0  0
    4.3074   -5.1174    5.2761 H   0  0  0  0  0  0  0  0  0  0  0  0
    4.0740   -3.3299    5.3313 H   0  0  0  0  0  0  0  0  0  0  0  0
    3.2628   -4.2931    4.0439 H   0  0  0  0  0  0  0  0  0  0  0  0
   -2.9385  -15.6229   -0.9381 H   0  0  0  0  0  0  0  0  0  0  0  0
   -1.8376  -14.5078   -1.8113 H   0  0  0  0  0  0  0  0  0  0  0  0
   -4.8244  -13.9784   -1.2265 H   0  0  0  0  0  0  0  0  0  0  0  0
   -4.1183  -14.4798   -2.8075 H   0  0  0  0  0  0  0  0  0  0  0  0
   -3.7055  -12.8648   -2.1115 H   0  0  0  0  0  0  0  0  0  0  0  0
   -2.9510   -9.9102    0.8839 H   0  0  0  0  0  0  0  0  0  0  0  0
   -3.7624   -5.3860    2.2252 H   0  0  0  0  0  0  0  0  0  0  0  0
   -4.2745    0.1212    4.7504 H   0  0  0  0  0  0  0  0  0  0  0  0
   -3.4203    0.5970    3.2429 H   0  0  0  0  0  0  0  0  0  0  0  0
   -1.6426   -1.0959    3.6745 H   0  0  0  0  0  0  0  0  0  0  0  0
   -2.5073   -1.6442    5.1658 H   0  0  0  0  0  0  0  0  0  0  0  0
   -1.8186    0.0214    5.0804 H   0  0  0  0  0  0  0  0  0  0  0  0
   -3.7654   -6.8417   -7.3790 H   0  0  0  0  0  0  0  0  0  0  0  0
   -4.9652   -8.1711   -7.5087 H   0  0  0  0  0  0  0  0  0  0  0  0
   -2.6525   -9.0663   -7.6015 H   0  0  0  0  0  0  0  0  0  0  0  0
   -3.4705   -9.6443   -6.1023 H   0  0  0  0  0  0  0  0  0  0  0  0
   -2.2612   -8.3006   -6.0135 H   0  0  0  0  0  0  0  0  0  0  0  0
   -6.4399   -3.7396   -4.1575 H   0  0  0  0  0  0  0  0  0  0  0  0
   -5.5268   -1.2780   -5.0934 H   0  0  0  0  0  0  0  0  0  0  0  0
   -0.3633   -1.0213   -8.1210 H   0  0  0  0  0  0  0  0  0  0  0  0
   -0.4040   -1.2838   -6.3465 H   0  0  0  0  0  0  0  0  0  0  0  0
   -2.0795   -3.1351   -6.6509 H   0  0  0  0  0  0  0  0  0  0  0  0
   -2.0190   -2.8796   -8.4428 H   0  0  0  0  0  0  0  0  0  0  0  0
   -0.5520   -3.4459   -7.5583 H   0  0  0  0  0  0  0  0  0  0  0  0
   -8.9131    4.6759    1.0886 H   0  0  0  0  0  0  0  0  0  0  0  0
  -10.5879    4.9910    0.5333 H   0  0  0  0  0  0  0  0  0  0  0  0
   -8.1548    6.8492    0.1054 H   0  0  0  0  0  0  0  0  0  0  0  0
   -9.5045    7.0914    1.2786 H   0  0  0  0  0  0  0  0  0  0  0  0
   -9.8331    7.1672   -0.4938 H   0  0  0  0  0  0  0  0  0  0  0  0
   -6.2247    5.5095   -3.6222 H   0  0  0  0  0  0  0  0  0  0  0  0
   -1.8049    5.9688   -5.5340 H   0  0  0  0  0  0  0  0  0  0  0  0
    3.4771    6.6389   -8.4982 H   0  0  0  0  0  0  0  0  0  0  0  0
    1.8915    7.3807   -8.9116 H   0  0  0  0  0  0  0  0  0  0  0  0
    2.5056    9.4465   -7.6810 H   0  0  0  0  0  0  0  0  0  0  0  0
    3.8111    9.0263   -8.8497 H   0  0  0  0  0  0  0  0  0  0  0  0
    4.0343    8.6725   -7.0951 H   0  0  0  0  0  0  0  0  0  0  0  0
   -4.8017    5.6280    3.8732 H   0  0  0  0  0  0  0  0  0  0  0  0
   -4.7852    4.2149    2.7639 H   0  0  0  0  0  0  0  0  0  0  0  0
   -2.4833    3.5950    3.6020 H   0  0  0  0  0  0  0  0  0  0  0  0
   -3.7248    3.6027    4.9081 H   0  0  0  0  0  0  0  0  0  0  0  0
   -2.5629    4.9771    4.7692 H   0  0  0  0  0  0  0  0  0  0  0  0
    0.5006    6.3505    1.1050 H   0  0  0  0  0  0  0  0  0  0  0  0
    0.8418    4.0909    1.3310 H   0  0  0  0  0  0  0  0  0  0  0  0
   -0.0876    2.6604    3.8328 H   0  0  0  0  0  0  0  0  0  0  0  0
    0.5685    1.0224    3.4336 H   0  0  0  0  0  0  0  0  0  0  0  0
   -0.2364    1.9989    2.1579 H   0  0  0  0  0  0  0  0  0  0  0  0
    2.8978    1.4617    4.0433 H   0  0  0  0  0  0  0  0  0  0  0  0
    5.0445    2.5172    3.4935 H   0  0  0  0  0  0  0  0  0  0  0  0
    6.5576    2.0189    1.6795 H   0  0  0  0  0  0  0  0  0  0  0  0
    6.7688   -3.6996    0.6259 H   0  0  0  0  0  0  0  0  0  0  0  0
    6.7896   -2.6033   -0.7946 H   0  0  0  0  0  0  0  0  0  0  0  0
    4.4591   -3.0436   -0.0503 H   0  0  0  0  0  0  0  0  0  0  0  0
    4.8354   -2.4057    1.5941 H   0  0  0  0  0  0  0  0  0  0  0  0
    4.8700   -1.2987    0.1619 H   0  0  0  0  0  0  0  0  0  0  0  0
   12.3253    9.3706    0.8294 H   0  0  0  0  0  0  0  0  0  0  0  0
   13.2553    9.6277    2.3436 H   0  0  0  0  0  0  0  0  0  0  0  0
   11.1731   10.2669    3.5504 H   0  0  0  0  0  0  0  0  0  0  0  0
   10.1821    9.8977    2.0801 H   0  0  0  0  0  0  0  0  0  0  0  0
   11.3609   11.2600    2.0576 H   0  0  0  0  0  0  0  0  0  0  0  0
   13.4066    3.7804    2.5479 H   0  0  0  0  0  0  0  0  0  0  0  0
   14.2653    1.3260    2.4490 H   0  0  0  0  0  0  0  0  0  0  0  0
  1  2  2  0
  2  3  1  0
  3  4  2  0
  4  5  1  0
  5  6  1  0
  6  7  1  0
  7  8  1  0
  8  9  1  0
  7 10  2  0
 10 11  1  0
 10 12  1  0
 12 13  1  0
  4 14  1  0
 14 15  2  0
 15 16  1  0
 16 17  1  0
 17 18  1  0
 18 19  1  0
 19 20  1  0
 20 21  1  0
 19 22  2  0
 22 23  1  0
 23 24  1  0
 22 25  1  0
 16 26  2  0
 26 27  1  0
 15 28  1  0
 28 29  2  0
 29 30  1  0
 29 31  1  0
 31 32  2  0
 32 33  1  0
 33 34  2  0
 34 35  1  0
 35 36  1  0
 36 37  1  0
 37 38  1  0
 38 39  1  0
 37 40  2  0
 40 41  1  0
 40 42  1  0
 42 43  1  0
 34 44  1  0
 44 45  2  0
 45 46  1  0
 46 47  1  0
 47 48  1  0
 48 49  1  0
 49 50  1  0
 50 51  1  0
 49 52  2  0
 52 53  1  0
 53 54  1  0
 52 55  1  0
 46 56  2  0
 56 57  1  0
 45 58  1  0
 58 59  2  0
 59 60  1  0
 59 61  1  0
 61 62  2  0
 62 63  1  0
 63 64  2  0
 64 65  1  0
 65 66  1  0
 66 67  1  0
 67 68  1  0
 68 69  1  0
 67 70  2  0
 70 71  1  0
 70 72  1  0
 72 73  1  0
 64 74  1  0
 74 75  2  0
 75 76  1  0
 76 77  1  0
 77 78  1  0
 78 79  1  0
 79 80  1  0
 80 81  1  0
 79 82  2  0
 82 83  1  0
 83 84  1  0
 82 85  1  0
 76 86  2  0
 86 87  1  0
 75 88  1  0
 88 89  2  0
 89 90  1  0
 89 91  1  0
 91 92  2  0
 92 93  1  0
 93 94  2  0
 94 95  1  0
 95 96  1  0
 96 97  1  0
 97 98  1  0
 98 99  1  0
 97100  2  0
100101  1  0
100102  1  0
102103  1  0
 94104  1  0
104105  2  0
105106  1  0
106107  1  0
107108  1  0
108109  1  0
109110  1  0
110111  1  0
109112  2  0
112113  1  0
113114  1  0
112115  1  0
106116  2  0
116117  1  0
105118  1  0
118119  2  0
119120  1  0
119121  1  0
121122  1  0
122123  1  0
123124  2  0
124125  1  0
125126  1  0
126127  2  0
127128  1  0
127129  1  0
129130  2  0
123131  1  0
131132  2  0
132133  1  0
133134  2  0
134135  1  0
135136  1  0
136137  1  0
137138  1  0
138139  1  0
137140  2  0
140141  1  0
140142  1  0
142143  1  0
134144  1  0
144145  2  0
145146  1  0
146147  1  0
147148  1  0
148149  1  0
149150  1  0
150151  1  0
149152  2  0
152153  1  0
153154  1  0
152155  1  0
146156  2  0
156157  1  0
145158  1  0
158159  2  0
159160  1  0
 27  1  1  0
 57 31  1  0
 87 61  1  0
117 91  1  0
125121  2  0
157131  1  0
 26  3  1  0
 56 33  1  0
 86 63  1  0
116 93  1  0
130124  1  0
156133  1  0
 12  5  2  0
 30 14  1  0
 42 35  2  0
 60 44  1  0
 72 65  2  0
 90 74  1  0
102 95  2  0
120104  1  0
142135  2  0
160144  1  0
 23 17  2  0
 53 47  2  0
 83 77  2  0
113107  2  0
153147  2  0
  1161  1  0
  2162  1  0
  8163  1  0
  8164  1  0
  9165  1  0
  9166  1  0
  9167  1  0
 20168  1  0
 20169  1  0
 21170  1  0
 21171  1  0
 21172  1  0
 28173  1  0
 32174  1  0
 38175  1  0
 38176  1  0
 39177  1  0
 39178  1  0
 39179  1  0
 50180  1  0
 50181  1  0
 51182  1  0
 51183  1  0
 51184  1  0
 58185  1  0
 62186  1  0
 68187  1  0
 68188  1  0
 69189  1  0
 69190  1  0
 69191  1  0
 80192  1  0
 80193  1  0
 81194  1  0
 81195  1  0
 81196  1  0
 88197  1  0
 92198  1  0
 98199  1  0
 98200  1  0
 99201  1  0
 99202  1  0
 99203  1  0
110204  1  0
110205  1  0
111206  1  0
111207  1  0
111208  1  0
118209  1  0
126210  1  0
128211  1  0
128212  1  0
128213  1  0
129214  1  0
130215  1  0
132216  1  0
138217  1  0
138218  1  0
139219  1  0
139220  1  0
139221  1  0
150222  1  0
150223  1  0
151224  1  0
151225  1  0
151226  1  0
158227  1  0
159228  1  0
M  END

