
     RDKit          3D

150167  0  0  0  0  0  0  0  0999 V2000
   -2.0721   -2.8587   14.1902 C   0  0  0  0  0  0  0  0  0  0  0  0
   -1.3369   -1.8469   13.5779 C   0  0  0  0  0  0  0  0  0  0  0  0
   -1.1921   -2.0289   12.1920 C   0  0  0  0  0  0  0  0  0  0  0  0
   -0.4740   -1.1974   11.3112 C   0  0  0  0  0  0  0  0  0  0  0  0
    0.2175    0.0161   11.7717 C   0  0  0  0  0  0  0  0  0  0  0  0
   -0.5476    1.4483   12.2018 S   0  0  0  0  0  0  0  0  0  0  0  0
    0.8608    2.3326   12.4550 C   0  0  0  0  0  0  0  0  0  0  0  0
    0.8974    3.7985   12.7600 C   0  0  0  0  0  0  0  0  0  0  0  0
    0.9653    4.6159   11.4753 C   0  0  0  0  0  0  0  0  0  0  0  0
    1.9583    1.5184   12.1734 C   0  0  0  0  0  0  0  0  0  0  0  0
    3.6263    2.0738   12.2438 Cl  0  0  0  0  0  0  0  0  0  0  0  0
    1.5967    0.2171   11.7939 C   0  0  0  0  0  0  0  0  0  0  0  0
    2.7669   -1.0263   11.3721 Cl  0  0  0  0  0  0  0  0  0  0  0  0
   -0.4401   -1.5817    9.9619 C   0  0  0  0  0  0  0  0  0  0  0  0
   -1.0597   -2.7420    9.4895 C   0  0  0  0  0  0  0  0  0  0  0  0
   -1.7583   -3.5893   10.3745 C   0  0  0  0  0  0  0  0  0  0  0  0
   -2.3682   -4.8515    9.9238 C   0  0  0  0  0  0  0  0  0  0  0  0
   -4.0149   -5.1951    9.9645 S   0  0  0  0  0  0  0  0  0  0  0  0
   -3.8864   -6.7500    9.3320 C   0  0  0  0  0  0  0  0  0  0  0  0
   -5.0505   -7.6468    9.0375 C   0  0  0  0  0  0  0  0  0  0  0  0
   -5.5629   -7.4234    7.6183 C   0  0  0  0  0  0  0  0  0  0  0  0
   -2.5446   -7.0169    9.0670 C   0  0  0  0  0  0  0  0  0  0  0  0
   -1.6926   -5.9539    9.4032 C   0  0  0  0  0  0  0  0  0  0  0  0
    0.0572   -6.0319    9.2399 Cl  0  0  0  0  0  0  0  0  0  0  0  0
   -1.9696   -8.5330    8.3874 Cl  0  0  0  0  0  0  0  0  0  0  0  0
   -1.8148   -3.1911   11.7226 C   0  0  0  0  0  0  0  0  0  0  0  0
   -2.5345   -3.9830   13.0207 S   0  0  0  0  0  0  0  0  0  0  0  0
   -0.9095   -2.9219    8.1030 C   0  0  0  0  0  0  0  0  0  0  0  0
   -0.1467   -1.9206    7.5012 C   0  0  0  0  0  0  0  0  0  0  0  0
    0.2868   -0.7861    8.6735 S   0  0  0  0  0  0  0  0  0  0  0  0
    0.1756   -1.8573    6.0621 C   0  0  0  0  0  0  0  0  0  0  0  0
   -0.8273   -2.4686    4.8477 S   0  0  0  0  0  0  0  0  0  0  0  0
    0.1517   -2.0622    3.5436 C   0  0  0  0  0  0  0  0  0  0  0  0
    1.2887   -1.4197    4.0404 C   0  0  0  0  0  0  0  0  0  0  0  0
    1.3091   -1.3097    5.4450 C   0  0  0  0  0  0  0  0  0  0  0  0
    2.4130   -0.7214    6.0853 C   0  0  0  0  0  0  0  0  0  0  0  0
    3.4564   -0.1769    5.3146 C   0  0  0  0  0  0  0  0  0  0  0  0
    4.6399    0.4559    5.9849 C   0  0  0  0  0  0  0  0  0  0  0  0
    3.4118   -0.2691    3.9118 C   0  0  0  0  0  0  0  0  0  0  0  0
    2.3308   -0.8846    3.2722 C   0  0  0  0  0  0  0  0  0  0  0  0
   -0.1602   -2.3347    2.1350 C   0  0  0  0  0  0  0  0  0  0  0  0
   -1.2698   -1.8404    1.4514 C   0  0  0  0  0  0  0  0  0  0  0  0
   -1.1522   -1.9795    0.0574 C   0  0  0  0  0  0  0  0  0  0  0  0
   -2.0127   -1.4363   -0.9243 C   0  0  0  0  0  0  0  0  0  0  0  0
   -3.2540   -0.7177   -0.5811 C   0  0  0  0  0  0  0  0  0  0  0  0
   -4.7945   -1.1883   -1.0706 S   0  0  0  0  0  0  0  0  0  0  0  0
   -5.6087    0.1269   -0.4086 C   0  0  0  0  0  0  0  0  0  0  0  0
   -7.0918    0.3379   -0.4812 C   0  0  0  0  0  0  0  0  0  0  0  0
   -7.7655   -0.0584    0.8274 C   0  0  0  0  0  0  0  0  0  0  0  0
   -4.6763    0.9605    0.2121 C   0  0  0  0  0  0  0  0  0  0  0  0
   -5.1060    2.4675    1.0138 Cl  0  0  0  0  0  0  0  0  0  0  0  0
   -3.3553    0.4917    0.1071 C   0  0  0  0  0  0  0  0  0  0  0  0
   -1.9676    1.3930    0.7060 Cl  0  0  0  0  0  0  0  0  0  0  0  0
   -1.5992   -1.5526   -2.2647 C   0  0  0  0  0  0  0  0  0  0  0  0
   -0.4077   -2.1834   -2.6342 C   0  0  0  0  0  0  0  0  0  0  0  0
    0.4128   -2.7794   -1.6615 C   0  0  0  0  0  0  0  0  0  0  0  0
    1.6737   -3.4514   -2.0094 C   0  0  0  0  0  0  0  0  0  0  0  0
    1.9295   -5.1077   -1.8981 S   0  0  0  0  0  0  0  0  0  0  0  0
    3.5566   -5.0657   -2.3242 C   0  0  0  0  0  0  0  0  0  0  0  0
    4.4594   -6.2606   -2.3149 C   0  0  0  0  0  0  0  0  0  0  0  0
    4.9683   -6.5366   -0.9041 C   0  0  0  0  0  0  0  0  0  0  0  0
    3.9305   -3.7369   -2.5267 C   0  0  0  0  0  0  0  0  0  0  0  0
    2.8716   -2.8310   -2.3567 C   0  0  0  0  0  0  0  0  0  0  0  0
    3.0546   -1.0863   -2.4885 Cl  0  0  0  0  0  0  0  0  0  0  0  0
    5.5729   -3.2379   -2.9089 Cl  0  0  0  0  0  0  0  0  0  0  0  0
    0.0192   -2.6426   -0.3253 C   0  0  0  0  0  0  0  0  0  0  0  0
    0.9208   -3.0183    1.0390 S   0  0  0  0  0  0  0  0  0  0  0  0
   -0.0981   -2.0432   -3.9951 C   0  0  0  0  0  0  0  0  0  0  0  0
   -1.0439   -1.2957   -4.6982 C   0  0  0  0  0  0  0  0  0  0  0  0
   -2.2571   -0.8090   -3.6221 S   0  0  0  0  0  0  0  0  0  0  0  0
   -0.8421   -0.7047   -6.0324 C   0  0  0  0  0  0  0  0  0  0  0  0
   -1.3288    0.8614   -6.4200 S   0  0  0  0  0  0  0  0  0  0  0  0
   -0.5175    0.9831   -7.8855 C   0  0  0  0  0  0  0  0  0  0  0  0
    0.1442   -0.2214   -8.1120 C   0  0  0  0  0  0  0  0  0  0  0  0
   -0.0389   -1.1694   -7.0842 C   0  0  0  0  0  0  0  0  0  0  0  0
    0.5481   -2.4402   -7.1910 C   0  0  0  0  0  0  0  0  0  0  0  0
    1.3492   -2.7438   -8.3081 C   0  0  0  0  0  0  0  0  0  0  0  0
    2.0482   -4.0692   -8.3858 C   0  0  0  0  0  0  0  0  0  0  0  0
    1.5398   -1.7794   -9.3185 C   0  0  0  0  0  0  0  0  0  0  0  0
    0.9230   -0.5255   -9.2341 C   0  0  0  0  0  0  0  0  0  0  0  0
   -0.4473    2.2096   -8.6888 C   0  0  0  0  0  0  0  0  0  0  0  0
   -1.7845    3.0445   -9.2789 S   0  0  0  0  0  0  0  0  0  0  0  0
   -0.9306    4.3066   -9.9962 C   0  0  0  0  0  0  0  0  0  0  0  0
    0.4267    4.1147   -9.7337 C   0  0  0  0  0  0  0  0  0  0  0  0
    0.6973    2.9418   -9.0058 C   0  0  0  0  0  0  0  0  0  0  0  0
    2.0065    2.6396   -8.6079 C   0  0  0  0  0  0  0  0  0  0  0  0
    3.0545    3.5090   -8.9630 C   0  0  0  0  0  0  0  0  0  0  0  0
    4.4629    3.2189   -8.5357 C   0  0  0  0  0  0  0  0  0  0  0  0
    2.7734    4.6900   -9.6782 C   0  0  0  0  0  0  0  0  0  0  0  0
    1.4618    5.0008  -10.0580 C   0  0  0  0  0  0  0  0  0  0  0  0
   -1.5492    5.4015  -10.7562 C   0  0  0  0  0  0  0  0  0  0  0  0
   -2.8318    6.3457  -10.2085 S   0  0  0  0  0  0  0  0  0  0  0  0
   -2.9962    7.2986  -11.5879 C   0  0  0  0  0  0  0  0  0  0  0  0
   -2.0531    6.8619  -12.5102 C   0  0  0  0  0  0  0  0  0  0  0  0
   -1.2492    5.8025  -12.0558 C   0  0  0  0  0  0  0  0  0  0  0  0
   -0.2986    5.2205  -12.9050 C   0  0  0  0  0  0  0  0  0  0  0  0
   -0.1359    5.7280  -14.2071 C   0  0  0  0  0  0  0  0  0  0  0  0
    0.9173    5.1547  -15.1086 C   0  0  0  0  0  0  0  0  0  0  0  0
   -0.9227    6.8170  -14.6393 C   0  0  0  0  0  0  0  0  0  0  0  0
   -1.8910    7.3796  -13.7958 C   0  0  0  0  0  0  0  0  0  0  0  0
   -2.2996   -2.9177   15.2443 H   0  0  0  0  0  0  0  0  0  0  0  0
   -0.9164   -1.0135   14.1274 H   0  0  0  0  0  0  0  0  0  0  0  0
   -0.0159    4.0810   13.3266 H   0  0  0  0  0  0  0  0  0  0  0  0
    1.7798    4.0297   13.3960 H   0  0  0  0  0  0  0  0  0  0  0  0
    0.0680    4.4243   10.8467 H   0  0  0  0  0  0  0  0  0  0  0  0
    1.8784    4.3530   10.9004 H   0  0  0  0  0  0  0  0  0  0  0  0
    1.0002    5.6973   11.7233 H   0  0  0  0  0  0  0  0  0  0  0  0
   -4.7542   -8.7111    9.1626 H   0  0  0  0  0  0  0  0  0  0  0  0
   -5.8688   -7.4360    9.7589 H   0  0  0  0  0  0  0  0  0  0  0  0
   -6.4310   -8.0893    7.4280 H   0  0  0  0  0  0  0  0  0  0  0  0
   -4.7646   -7.6538    6.8795 H   0  0  0  0  0  0  0  0  0  0  0  0
   -5.8914   -6.3698    7.4909 H   0  0  0  0  0  0  0  0  0  0  0  0
   -1.3306   -3.7555    7.5531 H   0  0  0  0  0  0  0  0  0  0  0  0
    2.4848   -0.6875    7.1596 H   0  0  0  0  0  0  0  0  0  0  0  0
    5.0204    1.3074    5.3786 H   0  0  0  0  0  0  0  0  0  0  0  0
    4.3700    0.8454    6.9898 H   0  0  0  0  0  0  0  0  0  0  0  0
    5.4476   -0.2971    6.0956 H   0  0  0  0  0  0  0  0  0  0  0  0
    4.2194    0.1351    3.3138 H   0  0  0  0  0  0  0  0  0  0  0  0
    2.3149   -0.9233    2.1939 H   0  0  0  0  0  0  0  0  0  0  0  0
   -2.0777   -1.3112    1.9405 H   0  0  0  0  0  0  0  0  0  0  0  0
   -7.3076    1.4026   -0.7063 H   0  0  0  0  0  0  0  0  0  0  0  0
   -7.5112   -0.2765   -1.3047 H   0  0  0  0  0  0  0  0  0  0  0  0
   -7.3955    0.5758    1.6596 H   0  0  0  0  0  0  0  0  0  0  0  0
   -8.8631    0.0814    0.7345 H   0  0  0  0  0  0  0  0  0  0  0  0
   -7.5609   -1.1249    1.0594 H   0  0  0  0  0  0  0  0  0  0  0  0
    5.3221   -6.0970   -2.9957 H   0  0  0  0  0  0  0  0  0  0  0  0
    3.8988   -7.1463   -2.6838 H   0  0  0  0  0  0  0  0  0  0  0  0
    4.1156   -6.7300   -0.2189 H   0  0  0  0  0  0  0  0  0  0  0  0
    5.6259   -7.4300   -0.9136 H   0  0  0  0  0  0  0  0  0  0  0  0
    5.5465   -5.6655   -0.5261 H   0  0  0  0  0  0  0  0  0  0  0  0
    0.8401   -2.3716   -4.4158 H   0  0  0  0  0  0  0  0  0  0  0  0
    0.3714   -3.1991   -6.4422 H   0  0  0  0  0  0  0  0  0  0  0  0
    2.9788   -4.0301   -7.7826 H   0  0  0  0  0  0  0  0  0  0  0  0
    2.3103   -4.3198   -9.4360 H   0  0  0  0  0  0  0  0  0  0  0  0
    1.3965   -4.8770   -7.9931 H   0  0  0  0  0  0  0  0  0  0  0  0
    2.1596   -2.0052  -10.1777 H   0  0  0  0  0  0  0  0  0  0  0  0
    1.0604    0.1934  -10.0318 H   0  0  0  0  0  0  0  0  0  0  0  0
    2.2106    1.7562   -8.0192 H   0  0  0  0  0  0  0  0  0  0  0  0
    5.1487    3.3152   -9.4056 H   0  0  0  0  0  0  0  0  0  0  0  0
    4.7678    3.9440   -7.7503 H   0  0  0  0  0  0  0  0  0  0  0  0
    4.5616    2.1889   -8.1273 H   0  0  0  0  0  0  0  0  0  0  0  0
    3.5723    5.3794   -9.9262 H   0  0  0  0  0  0  0  0  0  0  0  0
    1.2621    5.9282  -10.5768 H   0  0  0  0  0  0  0  0  0  0  0  0
   -3.7194    8.0894  -11.7337 H   0  0  0  0  0  0  0  0  0  0  0  0
    0.3013    4.3832  -12.5712 H   0  0  0  0  0  0  0  0  0  0  0  0
    1.8709    5.7032  -14.9569 H   0  0  0  0  0  0  0  0  0  0  0  0
    1.0788    4.0779  -14.8883 H   0  0  0  0  0  0  0  0  0  0  0  0
    0.6137    5.2446  -16.1751 H   0  0  0  0  0  0  0  0  0  0  0  0
   -0.7895    7.2219  -15.6355 H   0  0  0  0  0  0  0  0  0  0  0  0
   -2.5067    8.2009  -14.1457 H   0  0  0  0  0  0  0  0  0  0  0  0
  1  2  2  0
  2  3  1  0
  3  4  2  0
  4  5  1  0
  5  6  1  0
  6  7  1  0
  7  8  1  0
  8  9  1  0
  7 10  2  0
 10 11  1  0
 10 12  1  0
 12 13  1  0
  4 14  1  0
 14 15  2  0
 15 16  1  0
 16 17  1  0
 17 18  1  0
 18 19  1  0
 19 20  1  0
 20 21  1  0
 19 22  2  0
 22 23  1  0
 23 24  1  0
 22 25  1  0
 16 26  2  0
 26 27  1  0
 15 28  1  0
 28 29  2  0
 29 30  1  0
 29 31  1  0
 31 32  1  0
 32 33  1  0
 33 34  2  0
 34 35  1  0
 35 36  1  0
 36 37  2  0
 37 38  1  0
 37 39  1  0
 39 40  2  0
 33 41  1  0
 41 42  2  0
 42 43  1  0
 43 44  2  0
 44 45  1  0
 45 46  1  0
 46 47  1  0
 47 48  1  0
 48 49  1  0
 47 50  2  0
 50 51  1  0
 50 52  1  0
 52 53  1  0
 44 54  1  0
 54 55  2  0
 55 56  1  0
 56 57  1  0
 57 58  1  0
 58 59  1  0
 59 60  1  0
 60 61  1  0
 59 62  2  0
 62 63  1  0
 63 64  1  0
 62 65  1  0
 56 66  2  0
 66 67  1  0
 55 68  1  0
 68 69  2  0
 69 70  1  0
 69 71  1  0
 71 72  1  0
 72 73  1  0
 73 74  2  0
 74 75  1  0
 75 76  1  0
 76 77  2  0
 77 78  1  0
 77 79  1  0
 79 80  2  0
 73 81  1  0
 81 82  1  0
 82 83  1  0
 83 84  2  0
 84 85  1  0
 85 86  1  0
 86 87  2  0
 87 88  1  0
 87 89  1  0
 89 90  2  0
 83 91  1  0
 91 92  1  0
 92 93  1  0
 93 94  2  0
 94 95  1  0
 95 96  1  0
 96 97  2  0
 97 98  1  0
 97 99  1  0
 99100  2  0
 27  1  1  0
 35 31  2  0
 67 41  1  0
 75 71  2  0
 85 81  2  0
 95 91  2  0
 26  3  1  0
 40 34  1  0
 66 43  1  0
 80 74  1  0
 90 84  1  0
100 94  1  0
 12  5  2  0
 30 14  1  0
 52 45  2  0
 70 54  1  0
 23 17  2  0
 63 57  2  0
  1101  1  0
  2102  1  0
  8103  1  0
  8104  1  0
  9105  1  0
  9106  1  0
  9107  1  0
 20108  1  0
 20109  1  0
 21110  1  0
 21111  1  0
 21112  1  0
 28113  1  0
 36114  1  0
 38115  1  0
 38116  1  0
 38117  1  0
 39118  1  0
 40119  1  0
 42120  1  0
 48121  1  0
 48122  1  0
 49123  1  0
 49124  1  0
 49125  1  0
 60126  1  0
 60127  1  0
 61128  1  0
 61129  1  0
 61130  1  0
 68131  1  0
 76132  1  0
 78133  1  0
 78134  1  0
 78135  1  0
 79136  1  0
 80137  1  0
 86138  1  0
 88139  1  0
 88140  1  0
 88141  1  0
 89142  1  0
 90143  1  0
 93144  1  0
 96145  1  0
 98146  1  0
 98147  1  0
 98148  1  0
 99149  1  0
100150  1  0
M  END

