
     RDKit          3D

150167  0  0  0  0  0  0  0  0999 V2000
   -8.2284    8.8781   -7.5480 C   0  0  0  0  0  0  0  0  0  0  0  0
   -7.3802    7.4781   -7.9275 S   0  0  0  0  0  0  0  0  0  0  0  0
   -7.1107    6.9391   -6.3513 C   0  0  0  0  0  0  0  0  0  0  0  0
   -7.6800    7.8850   -5.4862 C   0  0  0  0  0  0  0  0  0  0  0  0
   -8.2993    8.9552   -6.1637 C   0  0  0  0  0  0  0  0  0  0  0  0
   -8.8957   10.0033   -5.4604 C   0  0  0  0  0  0  0  0  0  0  0  0
   -8.8570    9.9994   -4.0557 C   0  0  0  0  0  0  0  0  0  0  0  0
   -9.5131   11.1056   -3.2829 C   0  0  0  0  0  0  0  0  0  0  0  0
   -8.2426    8.9299   -3.3761 C   0  0  0  0  0  0  0  0  0  0  0  0
   -7.6415    7.8806   -4.0841 C   0  0  0  0  0  0  0  0  0  0  0  0
   -6.3674    5.7059   -6.0227 C   0  0  0  0  0  0  0  0  0  0  0  0
   -5.3757    5.1372   -6.8238 C   0  0  0  0  0  0  0  0  0  0  0  0
   -4.8138    3.9759   -6.2669 C   0  0  0  0  0  0  0  0  0  0  0  0
   -3.7565    3.2104   -6.8060 C   0  0  0  0  0  0  0  0  0  0  0  0
   -3.0810    3.5862   -8.0616 C   0  0  0  0  0  0  0  0  0  0  0  0
   -2.2453    5.0250   -8.3116 S   0  0  0  0  0  0  0  0  0  0  0  0
   -1.7847    4.6936   -9.8945 C   0  0  0  0  0  0  0  0  0  0  0  0
   -0.9491    5.6007  -10.7480 C   0  0  0  0  0  0  0  0  0  0  0  0
    0.5101    5.1587  -10.7474 C   0  0  0  0  0  0  0  0  0  0  0  0
   -2.2651    3.4314  -10.2432 C   0  0  0  0  0  0  0  0  0  0  0  0
   -1.9984    2.6917  -11.8161 Cl  0  0  0  0  0  0  0  0  0  0  0  0
   -2.9923    2.8107   -9.2158 C   0  0  0  0  0  0  0  0  0  0  0  0
   -3.7576    1.2362   -9.3909 Cl  0  0  0  0  0  0  0  0  0  0  0  0
   -3.3213    2.1078   -6.0478 C   0  0  0  0  0  0  0  0  0  0  0  0
   -3.9093    1.7557   -4.8295 C   0  0  0  0  0  0  0  0  0  0  0  0
   -4.9829    2.5018   -4.3082 C   0  0  0  0  0  0  0  0  0  0  0  0
   -5.5820    2.1815   -3.0018 C   0  0  0  0  0  0  0  0  0  0  0  0
   -5.3917    3.1068   -1.6098 S   0  0  0  0  0  0  0  0  0  0  0  0
   -6.2172    2.0565   -0.5864 C   0  0  0  0  0  0  0  0  0  0  0  0
   -6.4533    2.3013    0.8729 C   0  0  0  0  0  0  0  0  0  0  0  0
   -7.7174    3.1245    1.0845 C   0  0  0  0  0  0  0  0  0  0  0  0
   -6.6730    0.9701   -1.3321 C   0  0  0  0  0  0  0  0  0  0  0  0
   -6.3024    1.0332   -2.6842 C   0  0  0  0  0  0  0  0  0  0  0  0
   -6.7204   -0.2036   -3.8626 Cl  0  0  0  0  0  0  0  0  0  0  0  0
   -7.6124   -0.3521   -0.6524 Cl  0  0  0  0  0  0  0  0  0  0  0  0
   -5.3990    3.6173   -5.0483 C   0  0  0  0  0  0  0  0  0  0  0  0
   -6.5907    4.7352   -4.6577 S   0  0  0  0  0  0  0  0  0  0  0  0
   -3.2398    0.7144   -4.1720 C   0  0  0  0  0  0  0  0  0  0  0  0
   -2.1166    0.2557   -4.8589 C   0  0  0  0  0  0  0  0  0  0  0  0
   -1.9574    1.1483   -6.2878 S   0  0  0  0  0  0  0  0  0  0  0  0
   -1.0710   -0.5818   -4.2412 C   0  0  0  0  0  0  0  0  0  0  0  0
   -0.8128   -0.6200   -2.5829 S   0  0  0  0  0  0  0  0  0  0  0  0
    0.6215   -1.4944   -2.5828 C   0  0  0  0  0  0  0  0  0  0  0  0
    0.9407   -1.7710   -3.9206 C   0  0  0  0  0  0  0  0  0  0  0  0
   -0.0128   -1.2734   -4.8431 C   0  0  0  0  0  0  0  0  0  0  0  0
    0.1525   -1.4912   -6.2170 C   0  0  0  0  0  0  0  0  0  0  0  0
    1.3011   -2.1547   -6.6793 C   0  0  0  0  0  0  0  0  0  0  0  0
    1.4667   -2.4235   -8.1458 C   0  0  0  0  0  0  0  0  0  0  0  0
    2.2669   -2.6101   -5.7606 C   0  0  0  0  0  0  0  0  0  0  0  0
    2.0974   -2.4104   -4.3845 C   0  0  0  0  0  0  0  0  0  0  0  0
    1.3851   -1.7528   -1.3486 C   0  0  0  0  0  0  0  0  0  0  0  0
    2.2090   -2.8437   -1.0555 C   0  0  0  0  0  0  0  0  0  0  0  0
    2.6987   -2.8192    0.2658 C   0  0  0  0  0  0  0  0  0  0  0  0
    3.5219   -3.7894    0.8783 C   0  0  0  0  0  0  0  0  0  0  0  0
    4.0614   -4.9424    0.1339 C   0  0  0  0  0  0  0  0  0  0  0  0
    3.7716   -6.5540    0.5187 S   0  0  0  0  0  0  0  0  0  0  0  0
    4.7322   -7.2065   -0.6980 C   0  0  0  0  0  0  0  0  0  0  0  0
    4.9870   -8.6721   -0.8814 C   0  0  0  0  0  0  0  0  0  0  0  0
    6.1035   -9.1442    0.0416 C   0  0  0  0  0  0  0  0  0  0  0  0
    5.3195   -6.1615   -1.4106 C   0  0  0  0  0  0  0  0  0  0  0  0
    6.4570   -6.4040   -2.7304 Cl  0  0  0  0  0  0  0  0  0  0  0  0
    4.9366   -4.8918   -0.9501 C   0  0  0  0  0  0  0  0  0  0  0  0
    5.5659   -3.3928   -1.6225 Cl  0  0  0  0  0  0  0  0  0  0  0  0
    3.8022   -3.6118    2.2464 C   0  0  0  0  0  0  0  0  0  0  0  0
    3.3044   -2.5343    2.9848 C   0  0  0  0  0  0  0  0  0  0  0  0
    2.5032   -1.5567    2.3691 C   0  0  0  0  0  0  0  0  0  0  0  0
    1.9097   -0.4421    3.1274 C   0  0  0  0  0  0  0  0  0  0  0  0
    0.7046   -0.6172    4.2851 S   0  0  0  0  0  0  0  0  0  0  0  0
    0.4965    1.0270    4.5748 C   0  0  0  0  0  0  0  0  0  0  0  0
   -0.4520    1.5972    5.5856 C   0  0  0  0  0  0  0  0  0  0  0  0
    0.2335    1.7617    6.9361 C   0  0  0  0  0  0  0  0  0  0  0  0
    1.3893    1.7389    3.7735 C   0  0  0  0  0  0  0  0  0  0  0  0
    2.1734    0.9146    2.9516 C   0  0  0  0  0  0  0  0  0  0  0  0
    3.3916    1.5296    1.8432 Cl  0  0  0  0  0  0  0  0  0  0  0  0
    1.5218    3.4911    3.7874 Cl  0  0  0  0  0  0  0  0  0  0  0  0
    2.2263   -1.7310    1.0058 C   0  0  0  0  0  0  0  0  0  0  0  0
    1.2289   -0.8005    0.0351 S   0  0  0  0  0  0  0  0  0  0  0  0
    3.7086   -2.5446    4.3284 C   0  0  0  0  0  0  0  0  0  0  0  0
    4.5202   -3.6335    4.6546 C   0  0  0  0  0  0  0  0  0  0  0  0
    4.7536   -4.5600    3.2582 S   0  0  0  0  0  0  0  0  0  0  0  0
    5.1132   -3.8565    5.9930 C   0  0  0  0  0  0  0  0  0  0  0  0
    5.1844   -2.6510    7.1746 S   0  0  0  0  0  0  0  0  0  0  0  0
    5.9387   -3.5537    8.3698 C   0  0  0  0  0  0  0  0  0  0  0  0
    6.1742   -4.8289    7.8574 C   0  0  0  0  0  0  0  0  0  0  0  0
    5.7035   -5.0120    6.5379 C   0  0  0  0  0  0  0  0  0  0  0  0
    5.8310   -6.2690    5.9249 C   0  0  0  0  0  0  0  0  0  0  0  0
    6.4854   -7.3136    6.6045 C   0  0  0  0  0  0  0  0  0  0  0  0
    6.5957   -8.6698    5.9719 C   0  0  0  0  0  0  0  0  0  0  0  0
    6.9771   -7.1058    7.9067 C   0  0  0  0  0  0  0  0  0  0  0  0
    6.8290   -5.8650    8.5335 C   0  0  0  0  0  0  0  0  0  0  0  0
    6.2468   -3.0554    9.7174 C   0  0  0  0  0  0  0  0  0  0  0  0
    7.1316   -1.6604   10.0457 S   0  0  0  0  0  0  0  0  0  0  0  0
    7.0399   -1.7408   11.7269 C   0  0  0  0  0  0  0  0  0  0  0  0
    6.2883   -2.8645   12.0487 C   0  0  0  0  0  0  0  0  0  0  0  0
    5.8349   -3.5944   10.9361 C   0  0  0  0  0  0  0  0  0  0  0  0
    5.0134   -4.7150   11.1134 C   0  0  0  0  0  0  0  0  0  0  0  0
    4.6672   -5.1171   12.4166 C   0  0  0  0  0  0  0  0  0  0  0  0
    3.8245   -6.3397   12.6246 C   0  0  0  0  0  0  0  0  0  0  0  0
    5.1624   -4.4025   13.5263 C   0  0  0  0  0  0  0  0  0  0  0  0
    5.9642   -3.2668   13.3456 C   0  0  0  0  0  0  0  0  0  0  0  0
   -8.6272    9.5955   -8.2522 H   0  0  0  0  0  0  0  0  0  0  0  0
   -9.3717   10.8165   -5.9950 H   0  0  0  0  0  0  0  0  0  0  0  0
   -9.4489   12.0624   -3.8404 H   0  0  0  0  0  0  0  0  0  0  0  0
   -9.0138   11.2478   -2.3001 H   0  0  0  0  0  0  0  0  0  0  0  0
  -10.5803   10.8544   -3.1128 H   0  0  0  0  0  0  0  0  0  0  0  0
   -8.2183    8.9154   -2.2926 H   0  0  0  0  0  0  0  0  0  0  0  0
   -7.1448    7.1025   -3.5286 H   0  0  0  0  0  0  0  0  0  0  0  0
   -5.0607    5.5652   -7.7652 H   0  0  0  0  0  0  0  0  0  0  0  0
   -1.0153    6.6387  -10.3577 H   0  0  0  0  0  0  0  0  0  0  0  0
   -1.3380    5.6021  -11.7881 H   0  0  0  0  0  0  0  0  0  0  0  0
    0.6058    4.1376  -11.1722 H   0  0  0  0  0  0  0  0  0  0  0  0
    1.1087    5.8576  -11.3701 H   0  0  0  0  0  0  0  0  0  0  0  0
    0.9145    5.1646   -9.7130 H   0  0  0  0  0  0  0  0  0  0  0  0
   -6.5440    1.3347    1.4127 H   0  0  0  0  0  0  0  0  0  0  0  0
   -5.5840    2.8449    1.3002 H   0  0  0  0  0  0  0  0  0  0  0  0
   -7.6175    4.1158    0.5936 H   0  0  0  0  0  0  0  0  0  0  0  0
   -7.8801    3.2801    2.1723 H   0  0  0  0  0  0  0  0  0  0  0  0
   -8.5995    2.5938    0.6664 H   0  0  0  0  0  0  0  0  0  0  0  0
   -3.5121    0.3579   -3.1877 H   0  0  0  0  0  0  0  0  0  0  0  0
   -0.6010   -1.1728   -6.9227 H   0  0  0  0  0  0  0  0  0  0  0  0
    1.1188   -1.5500   -8.7380 H   0  0  0  0  0  0  0  0  0  0  0  0
    2.5318   -2.6092   -8.4004 H   0  0  0  0  0  0  0  0  0  0  0  0
    0.8672   -3.3150   -8.4280 H   0  0  0  0  0  0  0  0  0  0  0  0
    3.1553   -3.1204   -6.1116 H   0  0  0  0  0  0  0  0  0  0  0  0
    2.8757   -2.7350   -3.7114 H   0  0  0  0  0  0  0  0  0  0  0  0
    2.3937   -3.6594   -1.7395 H   0  0  0  0  0  0  0  0  0  0  0  0
    4.0580   -9.2352   -0.6526 H   0  0  0  0  0  0  0  0  0  0  0  0
    5.2611   -8.8862   -1.9359 H   0  0  0  0  0  0  0  0  0  0  0  0
    6.2846  -10.2280   -0.1183 H   0  0  0  0  0  0  0  0  0  0  0  0
    7.0427   -8.5913   -0.1711 H   0  0  0  0  0  0  0  0  0  0  0  0
    5.8179   -8.9841    1.1038 H   0  0  0  0  0  0  0  0  0  0  0  0
   -0.8361    2.5801    5.2386 H   0  0  0  0  0  0  0  0  0  0  0  0
   -1.3220    0.9156    5.6971 H   0  0  0  0  0  0  0  0  0  0  0  0
    0.6093    0.7800    7.2993 H   0  0  0  0  0  0  0  0  0  0  0  0
    1.0851    2.4701    6.8552 H   0  0  0  0  0  0  0  0  0  0  0  0
   -0.4923    2.1617    7.6748 H   0  0  0  0  0  0  0  0  0  0  0  0
    3.4271   -1.7799    5.0397 H   0  0  0  0  0  0  0  0  0  0  0  0
    5.4215   -6.4638    4.9484 H   0  0  0  0  0  0  0  0  0  0  0  0
    7.5095   -9.1944    6.3255 H   0  0  0  0  0  0  0  0  0  0  0  0
    5.7049   -9.2741    6.2413 H   0  0  0  0  0  0  0  0  0  0  0  0
    6.6551   -8.5839    4.8665 H   0  0  0  0  0  0  0  0  0  0  0  0
    7.4723   -7.9093    8.4389 H   0  0  0  0  0  0  0  0  0  0  0  0
    7.2216   -5.7210    9.5327 H   0  0  0  0  0  0  0  0  0  0  0  0
    7.4733   -1.0374   12.4251 H   0  0  0  0  0  0  0  0  0  0  0  0
    4.6356   -5.2604   10.2582 H   0  0  0  0  0  0  0  0  0  0  0  0
    4.4817   -7.2245   12.7489 H   0  0  0  0  0  0  0  0  0  0  0  0
    3.1921   -6.2275   13.5320 H   0  0  0  0  0  0  0  0  0  0  0  0
    3.1520   -6.5089   11.7568 H   0  0  0  0  0  0  0  0  0  0  0  0
    4.9149   -4.7186   14.5317 H   0  0  0  0  0  0  0  0  0  0  0  0
    6.3214   -2.7115   14.2041 H   0  0  0  0  0  0  0  0  0  0  0  0
  1  2  1  0
  2  3  1  0
  3  4  2  0
  4  5  1  0
  5  6  1  0
  6  7  2  0
  7  8  1  0
  7  9  1  0
  9 10  2  0
  3 11  1  0
 11 12  2  0
 12 13  1  0
 13 14  2  0
 14 15  1  0
 15 16  1  0
 16 17  1  0
 17 18  1  0
 18 19  1  0
 17 20  2  0
 20 21  1  0
 20 22  1  0
 22 23  1  0
 14 24  1  0
 24 25  2  0
 25 26  1  0
 26 27  1  0
 27 28  1  0
 28 29  1  0
 29 30  1  0
 30 31  1  0
 29 32  2  0
 32 33  1  0
 33 34  1  0
 32 35  1  0
 26 36  2  0
 36 37  1  0
 25 38  1  0
 38 39  2  0
 39 40  1  0
 39 41  1  0
 41 42  1  0
 42 43  1  0
 43 44  2  0
 44 45  1  0
 45 46  1  0
 46 47  2  0
 47 48  1  0
 47 49  1  0
 49 50  2  0
 43 51  1  0
 51 52  2  0
 52 53  1  0
 53 54  2  0
 54 55  1  0
 55 56  1  0
 56 57  1  0
 57 58  1  0
 58 59  1  0
 57 60  2  0
 60 61  1  0
 60 62  1  0
 62 63  1  0
 54 64  1  0
 64 65  2  0
 65 66  1  0
 66 67  1  0
 67 68  1  0
 68 69  1  0
 69 70  1  0
 70 71  1  0
 69 72  2  0
 72 73  1  0
 73 74  1  0
 72 75  1  0
 66 76  2  0
 76 77  1  0
 65 78  1  0
 78 79  2  0
 79 80  1  0
 79 81  1  0
 81 82  1  0
 82 83  1  0
 83 84  2  0
 84 85  1  0
 85 86  1  0
 86 87  2  0
 87 88  1  0
 87 89  1  0
 89 90  2  0
 83 91  1  0
 91 92  1  0
 92 93  1  0
 93 94  2  0
 94 95  1  0
 95 96  1  0
 96 97  2  0
 97 98  1  0
 97 99  1  0
 99100  2  0
  5  1  2  0
 37 11  1  0
 45 41  2  0
 77 51  1  0
 85 81  2  0
 95 91  2  0
 10  4  1  0
 36 13  1  0
 50 44  1  0
 76 53  1  0
 90 84  1  0
100 94  1  0
 22 15  2  0
 40 24  1  0
 62 55  2  0
 80 64  1  0
 33 27  2  0
 73 67  2  0
  1101  1  0
  6102  1  0
  8103  1  0
  8104  1  0
  8105  1  0
  9106  1  0
 10107  1  0
 12108  1  0
 18109  1  0
 18110  1  0
 19111  1  0
 19112  1  0
 19113  1  0
 30114  1  0
 30115  1  0
 31116  1  0
 31117  1  0
 31118  1  0
 38119  1  0
 46120  1  0
 48121  1  0
 48122  1  0
 48123  1  0
 49124  1  0
 50125  1  0
 52126  1  0
 58127  1  0
 58128  1  0
 59129  1  0
 59130  1  0
 59131  1  0
 70132  1  0
 70133  1  0
 71134  1  0
 71135  1  0
 71136  1  0
 78137  1  0
 86138  1  0
 88139  1  0
 88140  1  0
 88141  1  0
 89142  1  0
 90143  1  0
 93144  1  0
 96145  1  0
 98146  1  0
 98147  1  0
 98148  1  0
 99149  1  0
100150  1  0
M  END

