
     RDKit          3D

176196  0  0  0  0  0  0  0  0999 V2000
    8.6738   -8.9523    9.6473 C   0  0  0  0  0  0  0  0  0  0  0  0
    7.0520   -9.1921    9.2579 S   0  0  0  0  0  0  0  0  0  0  0  0
    6.7640   -7.7118    8.5073 C   0  0  0  0  0  0  0  0  0  0  0  0
    7.9782   -6.9916    8.5274 C   0  0  0  0  0  0  0  0  0  0  0  0
    9.0259   -7.6915    9.1722 C   0  0  0  0  0  0  0  0  0  0  0  0
   10.3006   -7.1293    9.2687 C   0  0  0  0  0  0  0  0  0  0  0  0
   10.5420   -5.8675    8.6924 C   0  0  0  0  0  0  0  0  0  0  0  0
   11.9113   -5.2366    8.7803 C   0  0  0  0  0  0  0  0  0  0  0  0
    9.5011   -5.1792    8.0589 C   0  0  0  0  0  0  0  0  0  0  0  0
    8.2281   -5.7332    7.9586 C   0  0  0  0  0  0  0  0  0  0  0  0
    5.4537   -7.2512    7.9795 C   0  0  0  0  0  0  0  0  0  0  0  0
    4.9868   -5.9313    8.0079 C   0  0  0  0  0  0  0  0  0  0  0  0
    3.7244   -5.7726    7.4184 C   0  0  0  0  0  0  0  0  0  0  0  0
    3.0304   -4.5544    7.2465 C   0  0  0  0  0  0  0  0  0  0  0  0
    3.6982   -3.2857    7.6087 C   0  0  0  0  0  0  0  0  0  0  0  0
    5.2444   -2.8298    7.1511 S   0  0  0  0  0  0  0  0  0  0  0  0
    5.2693   -1.3747    7.9724 C   0  0  0  0  0  0  0  0  0  0  0  0
    6.3928   -0.3883    7.9748 C   0  0  0  0  0  0  0  0  0  0  0  0
    6.1955    0.6546    6.8884 C   0  0  0  0  0  0  0  0  0  0  0  0
    4.0221   -1.1816    8.5734 C   0  0  0  0  0  0  0  0  0  0  0  0
    3.6335    0.2003    9.5679 Cl  0  0  0  0  0  0  0  0  0  0  0  0
    3.1277   -2.2562    8.3744 C   0  0  0  0  0  0  0  0  0  0  0  0
    1.5564   -2.3332    9.1456 Cl  0  0  0  0  0  0  0  0  0  0  0  0
    1.7694   -4.6061    6.6432 C   0  0  0  0  0  0  0  0  0  0  0  0
    1.1834   -5.8014    6.1910 C   0  0  0  0  0  0  0  0  0  0  0  0
    1.8733   -7.0361    6.4107 C   0  0  0  0  0  0  0  0  0  0  0  0
    1.2954   -8.3334    6.0096 C   0  0  0  0  0  0  0  0  0  0  0  0
    1.1375   -9.6499    7.0506 S   0  0  0  0  0  0  0  0  0  0  0  0
    0.7236  -10.7660    5.8643 C   0  0  0  0  0  0  0  0  0  0  0  0
    0.3092  -12.1928    6.1009 C   0  0  0  0  0  0  0  0  0  0  0  0
   -1.1773  -12.2842    6.4288 C   0  0  0  0  0  0  0  0  0  0  0  0
    0.6792  -10.1085    4.6267 C   0  0  0  0  0  0  0  0  0  0  0  0
    1.0218   -8.7389    4.7015 C   0  0  0  0  0  0  0  0  0  0  0  0
    1.2062   -7.7266    3.2921 Cl  0  0  0  0  0  0  0  0  0  0  0  0
    0.3768  -10.9321    3.1210 Cl  0  0  0  0  0  0  0  0  0  0  0  0
    3.1258   -6.9766    7.0224 C   0  0  0  0  0  0  0  0  0  0  0  0
    4.2381   -8.2159    7.3198 S   0  0  0  0  0  0  0  0  0  0  0  0
   -0.0543   -5.5858    5.5345 C   0  0  0  0  0  0  0  0  0  0  0  0
   -0.4313   -4.2171    5.4733 C   0  0  0  0  0  0  0  0  0  0  0  0
    0.7546   -3.3392    6.2332 S   0  0  0  0  0  0  0  0  0  0  0  0
   -1.5836   -3.6078    4.7764 C   0  0  0  0  0  0  0  0  0  0  0  0
   -2.2818   -4.1451    3.6775 C   0  0  0  0  0  0  0  0  0  0  0  0
   -2.9965   -3.1675    2.9368 C   0  0  0  0  0  0  0  0  0  0  0  0
   -3.5107   -3.3641    1.6490 C   0  0  0  0  0  0  0  0  0  0  0  0
   -3.4626   -4.7132    1.0964 C   0  0  0  0  0  0  0  0  0  0  0  0
   -4.3448   -6.0147    1.6387 S   0  0  0  0  0  0  0  0  0  0  0  0
   -3.5840   -7.1602    0.6839 C   0  0  0  0  0  0  0  0  0  0  0  0
   -3.8957   -8.6175    0.6463 C   0  0  0  0  0  0  0  0  0  0  0  0
   -4.6630   -8.9840   -0.6110 C   0  0  0  0  0  0  0  0  0  0  0  0
   -2.6787   -6.5014   -0.1651 C   0  0  0  0  0  0  0  0  0  0  0  0
   -1.5129   -7.3543   -1.1560 Cl  0  0  0  0  0  0  0  0  0  0  0  0
   -2.6157   -5.1104    0.0513 C   0  0  0  0  0  0  0  0  0  0  0  0
   -1.3022   -4.1285   -0.5290 Cl  0  0  0  0  0  0  0  0  0  0  0  0
   -3.7761   -2.2262    0.8730 C   0  0  0  0  0  0  0  0  0  0  0  0
   -3.7011   -0.9112    1.3899 C   0  0  0  0  0  0  0  0  0  0  0  0
   -3.4124   -0.7219    2.7963 C   0  0  0  0  0  0  0  0  0  0  0  0
   -3.6791    0.5416    3.5816 C   0  0  0  0  0  0  0  0  0  0  0  0
   -3.3659    0.6666    5.2368 S   0  0  0  0  0  0  0  0  0  0  0  0
   -3.9504    2.1901    5.5431 C   0  0  0  0  0  0  0  0  0  0  0  0
   -4.3116    2.6971    6.9054 C   0  0  0  0  0  0  0  0  0  0  0  0
   -5.5631    2.0014    7.4132 C   0  0  0  0  0  0  0  0  0  0  0  0
   -4.5139    2.6303    4.3512 C   0  0  0  0  0  0  0  0  0  0  0  0
   -4.4104    1.7140    3.2650 C   0  0  0  0  0  0  0  0  0  0  0  0
   -5.3284    2.0627    1.8132 Cl  0  0  0  0  0  0  0  0  0  0  0  0
   -5.2961    4.1906    4.2089 Cl  0  0  0  0  0  0  0  0  0  0  0  0
   -2.9545   -1.8689    3.4806 C   0  0  0  0  0  0  0  0  0  0  0  0
   -1.9240   -1.9778    4.8038 S   0  0  0  0  0  0  0  0  0  0  0  0
   -3.6859    0.0454    0.3519 C   0  0  0  0  0  0  0  0  0  0  0  0
   -3.8748   -0.4838   -0.9230 C   0  0  0  0  0  0  0  0  0  0  0  0
   -3.9734   -2.1545   -0.7665 S   0  0  0  0  0  0  0  0  0  0  0  0
   -3.7983    0.2038   -2.2271 C   0  0  0  0  0  0  0  0  0  0  0  0
   -4.4456    1.6982   -2.7126 S   0  0  0  0  0  0  0  0  0  0  0  0
   -4.2324    1.5210   -4.4073 C   0  0  0  0  0  0  0  0  0  0  0  0
   -3.6902    0.2450   -4.5704 C   0  0  0  0  0  0  0  0  0  0  0  0
   -3.3305   -0.4023   -3.3762 C   0  0  0  0  0  0  0  0  0  0  0  0
   -2.3728   -1.4242   -3.4221 C   0  0  0  0  0  0  0  0  0  0  0  0
   -2.1083   -2.0576   -4.6544 C   0  0  0  0  0  0  0  0  0  0  0  0
   -1.0788   -3.1468   -4.7555 C   0  0  0  0  0  0  0  0  0  0  0  0
   -2.8291   -1.6650   -5.7847 C   0  0  0  0  0  0  0  0  0  0  0  0
   -3.5241   -0.4375   -5.7842 C   0  0  0  0  0  0  0  0  0  0  0  0
   -3.7818    2.6285   -5.2778 C   0  0  0  0  0  0  0  0  0  0  0  0
   -4.5250    3.7107   -5.7829 C   0  0  0  0  0  0  0  0  0  0  0  0
   -3.7424    4.6065   -6.5638 C   0  0  0  0  0  0  0  0  0  0  0  0
   -4.1545    5.7901   -7.2373 C   0  0  0  0  0  0  0  0  0  0  0  0
   -5.5414    6.2794   -7.2208 C   0  0  0  0  0  0  0  0  0  0  0  0
   -6.3955    6.7098   -8.5986 S   0  0  0  0  0  0  0  0  0  0  0  0
   -7.5745    7.6104   -7.8423 C   0  0  0  0  0  0  0  0  0  0  0  0
   -8.7422    8.2614   -8.5094 C   0  0  0  0  0  0  0  0  0  0  0  0
   -9.7109    7.1944   -9.0216 C   0  0  0  0  0  0  0  0  0  0  0  0
   -7.3457    7.5529   -6.4622 C   0  0  0  0  0  0  0  0  0  0  0  0
   -8.2930    8.4290   -5.2798 Cl  0  0  0  0  0  0  0  0  0  0  0  0
   -6.2025    6.8088   -6.0987 C   0  0  0  0  0  0  0  0  0  0  0  0
   -5.5634    6.7513   -4.4811 Cl  0  0  0  0  0  0  0  0  0  0  0  0
   -3.2060    6.5149   -7.9495 C   0  0  0  0  0  0  0  0  0  0  0  0
   -1.8466    6.1641   -7.9803 C   0  0  0  0  0  0  0  0  0  0  0  0
   -1.4166    5.0243   -7.2585 C   0  0  0  0  0  0  0  0  0  0  0  0
    0.0102    4.8040   -6.9384 C   0  0  0  0  0  0  0  0  0  0  0  0
    0.7658    3.3003   -6.8784 S   0  0  0  0  0  0  0  0  0  0  0  0
    2.1169    3.7792   -6.0183 C   0  0  0  0  0  0  0  0  0  0  0  0
    3.2707    2.9093   -5.6279 C   0  0  0  0  0  0  0  0  0  0  0  0
    4.2738    2.7699   -6.7791 C   0  0  0  0  0  0  0  0  0  0  0  0
    2.0266    5.1545   -5.7925 C   0  0  0  0  0  0  0  0  0  0  0  0
    0.8447    5.7342   -6.2997 C   0  0  0  0  0  0  0  0  0  0  0  0
    0.4002    7.3890   -5.9269 Cl  0  0  0  0  0  0  0  0  0  0  0  0
    3.2017    6.0621   -4.8602 Cl  0  0  0  0  0  0  0  0  0  0  0  0
   -2.3871    4.2376   -6.6357 C   0  0  0  0  0  0  0  0  0  0  0  0
   -2.1992    2.8131   -5.7670 S   0  0  0  0  0  0  0  0  0  0  0  0
   -1.0661    7.0385   -8.7682 C   0  0  0  0  0  0  0  0  0  0  0  0
   -1.8025    8.1005   -9.3136 C   0  0  0  0  0  0  0  0  0  0  0  0
   -3.3883    7.9221   -8.8442 S   0  0  0  0  0  0  0  0  0  0  0  0
   -1.3409    9.0984  -10.3198 C   0  0  0  0  0  0  0  0  0  0  0  0
   -2.3709    9.8899  -11.3773 S   0  0  0  0  0  0  0  0  0  0  0  0
   -1.2478   10.5881  -12.3975 C   0  0  0  0  0  0  0  0  0  0  0  0
    0.0104   10.1805  -11.9385 C   0  0  0  0  0  0  0  0  0  0  0  0
   -0.0257    9.3855  -10.7611 C   0  0  0  0  0  0  0  0  0  0  0  0
    1.1849    8.9947  -10.1514 C   0  0  0  0  0  0  0  0  0  0  0  0
    2.3923    9.2979  -10.7736 C   0  0  0  0  0  0  0  0  0  0  0  0
    3.6798    8.8437  -10.1548 C   0  0  0  0  0  0  0  0  0  0  0  0
    2.4135    9.9963  -12.0017 C   0  0  0  0  0  0  0  0  0  0  0  0
    1.2100   10.4667  -12.5670 C   0  0  0  0  0  0  0  0  0  0  0  0
    9.3344   -9.6393   10.1605 H   0  0  0  0  0  0  0  0  0  0  0  0
   11.0893   -7.6497    9.7588 H   0  0  0  0  0  0  0  0  0  0  0  0
   12.1136   -4.6309    7.8723 H   0  0  0  0  0  0  0  0  0  0  0  0
   11.9576   -4.5867    9.6765 H   0  0  0  0  0  0  0  0  0  0  0  0
   12.6883   -6.0160    8.8408 H   0  0  0  0  0  0  0  0  0  0  0  0
    9.6860   -4.2109    7.6238 H   0  0  0  0  0  0  0  0  0  0  0  0
    7.4742   -5.2025    7.4273 H   0  0  0  0  0  0  0  0  0  0  0  0
    5.5334   -5.1368    8.4539 H   0  0  0  0  0  0  0  0  0  0  0  0
    6.4581    0.1267    8.9661 H   0  0  0  0  0  0  0  0  0  0  0  0
    7.3507   -0.9210    7.8077 H   0  0  0  0  0  0  0  0  0  0  0  0
    5.2941    1.2894    7.1298 H   0  0  0  0  0  0  0  0  0  0  0  0
    7.0883    1.2994    6.8260 H   0  0  0  0  0  0  0  0  0  0  0  0
    6.0421    0.1676    5.9137 H   0  0  0  0  0  0  0  0  0  0  0  0
    0.5128  -12.8157    5.2142 H   0  0  0  0  0  0  0  0  0  0  0  0
    0.9175  -12.6380    6.9411 H   0  0  0  0  0  0  0  0  0  0  0  0
   -1.4353  -13.3149    6.6957 H   0  0  0  0  0  0  0  0  0  0  0  0
   -1.4147  -11.6332    7.2890 H   0  0  0  0  0  0  0  0  0  0  0  0
   -1.7629  -11.9836    5.5404 H   0  0  0  0  0  0  0  0  0  0  0  0
   -0.6445   -6.3825    5.1086 H   0  0  0  0  0  0  0  0  0  0  0  0
   -2.1753   -5.1746    3.3729 H   0  0  0  0  0  0  0  0  0  0  0  0
   -2.9555   -9.1959    0.6541 H   0  0  0  0  0  0  0  0  0  0  0  0
   -4.4368   -8.9203    1.5816 H   0  0  0  0  0  0  0  0  0  0  0  0
   -4.0607   -8.7294   -1.5223 H   0  0  0  0  0  0  0  0  0  0  0  0
   -5.5998   -8.3938   -0.6766 H   0  0  0  0  0  0  0  0  0  0  0  0
   -4.9287  -10.0526   -0.6074 H   0  0  0  0  0  0  0  0  0  0  0  0
   -4.4978    3.7864    6.8948 H   0  0  0  0  0  0  0  0  0  0  0  0
   -3.4607    2.5162    7.6043 H   0  0  0  0  0  0  0  0  0  0  0  0
   -6.3601    2.0338    6.6350 H   0  0  0  0  0  0  0  0  0  0  0  0
   -5.9343    2.4910    8.3361 H   0  0  0  0  0  0  0  0  0  0  0  0
   -5.3420    0.9357    7.6590 H   0  0  0  0  0  0  0  0  0  0  0  0
   -3.3917    1.0661    0.4838 H   0  0  0  0  0  0  0  0  0  0  0  0
   -1.5802   -1.3477   -2.7118 H   0  0  0  0  0  0  0  0  0  0  0  0
   -0.5836   -3.0943   -5.7483 H   0  0  0  0  0  0  0  0  0  0  0  0
   -1.5078   -4.1562   -4.6548 H   0  0  0  0  0  0  0  0  0  0  0  0
   -0.2947   -2.9837   -3.9873 H   0  0  0  0  0  0  0  0  0  0  0  0
   -2.8164   -2.2745   -6.6625 H   0  0  0  0  0  0  0  0  0  0  0  0
   -4.1621   -0.2346   -6.6008 H   0  0  0  0  0  0  0  0  0  0  0  0
   -5.5655    3.8736   -5.5807 H   0  0  0  0  0  0  0  0  0  0  0  0
   -8.3710    8.8887   -9.3646 H   0  0  0  0  0  0  0  0  0  0  0  0
   -9.2787    8.9202   -7.8044 H   0  0  0  0  0  0  0  0  0  0  0  0
   -9.1708    6.4977   -9.6977 H   0  0  0  0  0  0  0  0  0  0  0  0
  -10.0846    6.6085   -8.1541 H   0  0  0  0  0  0  0  0  0  0  0  0
  -10.5539    7.6564   -9.5584 H   0  0  0  0  0  0  0  0  0  0  0  0
    3.7983    3.3490   -4.7549 H   0  0  0  0  0  0  0  0  0  0  0  0
    2.8902    1.9066   -5.3365 H   0  0  0  0  0  0  0  0  0  0  0  0
    5.1594    2.2066   -6.4379 H   0  0  0  0  0  0  0  0  0  0  0  0
    3.7833    2.2560   -7.6351 H   0  0  0  0  0  0  0  0  0  0  0  0
    4.5574    3.7745   -7.1294 H   0  0  0  0  0  0  0  0  0  0  0  0
   -0.0376    6.8488   -8.9634 H   0  0  0  0  0  0  0  0  0  0  0  0
   -1.4275   11.1915  -13.2743 H   0  0  0  0  0  0  0  0  0  0  0  0
    1.1868    8.5741   -9.1730 H   0  0  0  0  0  0  0  0  0  0  0  0
    3.8349    7.7730  -10.3837 H   0  0  0  0  0  0  0  0  0  0  0  0
    4.5391    9.4268  -10.5635 H   0  0  0  0  0  0  0  0  0  0  0  0
    3.6434    8.9858   -9.0580 H   0  0  0  0  0  0  0  0  0  0  0  0
    3.3553   10.1721  -12.5037 H   0  0  0  0  0  0  0  0  0  0  0  0
    1.2546   10.9770  -13.4995 H   0  0  0  0  0  0  0  0  0  0  0  0
  1  2  1  0
  2  3  1  0
  3  4  2  0
  4  5  1  0
  5  6  1  0
  6  7  2  0
  7  8  1  0
  7  9  1  0
  9 10  2  0
  3 11  1  0
 11 12  2  0
 12 13  1  0
 13 14  2  0
 14 15  1  0
 15 16  1  0
 16 17  1  0
 17 18  1  0
 18 19  1  0
 17 20  2  0
 20 21  1  0
 20 22  1  0
 22 23  1  0
 14 24  1  0
 24 25  2  0
 25 26  1  0
 26 27  1  0
 27 28  1  0
 28 29  1  0
 29 30  1  0
 30 31  1  0
 29 32  2  0
 32 33  1  0
 33 34  1  0
 32 35  1  0
 26 36  2  0
 36 37  1  0
 25 38  1  0
 38 39  2  0
 39 40  1  0
 39 41  1  0
 41 42  2  0
 42 43  1  0
 43 44  2  0
 44 45  1  0
 45 46  1  0
 46 47  1  0
 47 48  1  0
 48 49  1  0
 47 50  2  0
 50 51  1  0
 50 52  1  0
 52 53  1  0
 44 54  1  0
 54 55  2  0
 55 56  1  0
 56 57  1  0
 57 58  1  0
 58 59  1  0
 59 60  1  0
 60 61  1  0
 59 62  2  0
 62 63  1  0
 63 64  1  0
 62 65  1  0
 56 66  2  0
 66 67  1  0
 55 68  1  0
 68 69  2  0
 69 70  1  0
 69 71  1  0
 71 72  1  0
 72 73  1  0
 73 74  2  0
 74 75  1  0
 75 76  1  0
 76 77  2  0
 77 78  1  0
 77 79  1  0
 79 80  2  0
 73 81  1  0
 81 82  2  0
 82 83  1  0
 83 84  2  0
 84 85  1  0
 85 86  1  0
 86 87  1  0
 87 88  1  0
 88 89  1  0
 87 90  2  0
 90 91  1  0
 90 92  1  0
 92 93  1  0
 84 94  1  0
 94 95  2  0
 95 96  1  0
 96 97  1  0
 97 98  1  0
 98 99  1  0
 99100  1  0
100101  1  0
 99102  2  0
102103  1  0
103104  1  0
102105  1  0
 96106  2  0
106107  1  0
 95108  1  0
108109  2  0
109110  1  0
109111  1  0
111112  1  0
112113  1  0
113114  2  0
114115  1  0
115116  1  0
116117  2  0
117118  1  0
117119  1  0
119120  2  0
  5  1  2  0
 37 11  1  0
 67 41  1  0
 75 71  2  0
107 81  1  0
115111  2  0
 10  4  1  0
 36 13  1  0
 66 43  1  0
 80 74  1  0
106 83  1  0
120114  1  0
 22 15  2  0
 40 24  1  0
 52 45  2  0
 70 54  1  0
 92 85  2  0
110 94  1  0
 33 27  2  0
 63 57  2  0
103 97  2  0
  1121  1  0
  6122  1  0
  8123  1  0
  8124  1  0
  8125  1  0
  9126  1  0
 10127  1  0
 12128  1  0
 18129  1  0
 18130  1  0
 19131  1  0
 19132  1  0
 19133  1  0
 30134  1  0
 30135  1  0
 31136  1  0
 31137  1  0
 31138  1  0
 38139  1  0
 42140  1  0
 48141  1  0
 48142  1  0
 49143  1  0
 49144  1  0
 49145  1  0
 60146  1  0
 60147  1  0
 61148  1  0
 61149  1  0
 61150  1  0
 68151  1  0
 76152  1  0
 78153  1  0
 78154  1  0
 78155  1  0
 79156  1  0
 80157  1  0
 82158  1  0
 88159  1  0
 88160  1  0
 89161  1  0
 89162  1  0
 89163  1  0
100164  1  0
100165  1  0
101166  1  0
101167  1  0
101168  1  0
108169  1  0
113170  1  0
116171  1  0
118172  1  0
118173  1  0
118174  1  0
119175  1  0
120176  1  0
M  END

