
     RDKit          3D

118129  0  0  0  0  0  0  0  0999 V2000
    5.1412   -1.2979    0.3637 C   0  0  0  0  0  0  0  0  0  0  0  0
    5.1408   -0.9872   -0.9993 C   0  0  0  0  0  0  0  0  0  0  0  0
    4.9470   -2.0145   -2.0707 C   0  0  0  0  0  0  0  0  0  0  0  0
    5.4292    0.3790   -1.1798 C   0  0  0  0  0  0  0  0  0  0  0  0
    5.6648    0.8937    0.0747 C   0  0  0  0  0  0  0  0  0  0  0  0
    5.4762   -0.1475    1.0380 C   0  0  0  0  0  0  0  0  0  0  0  0
    5.6444    0.1230    2.3862 C   0  0  0  0  0  0  0  0  0  0  0  0
    5.9958    1.4375    2.7341 C   0  0  0  0  0  0  0  0  0  0  0  0
    6.1684    2.4179    1.7256 C   0  0  0  0  0  0  0  0  0  0  0  0
    6.0010    2.1217    0.4322 O   0  0  0  0  0  0  0  0  0  0  0  0
    5.6769    1.1253   -2.4292 C   0  0  0  0  0  0  0  0  0  0  0  0
    4.9372    1.0676   -3.5416 C   0  0  0  0  0  0  0  0  0  0  0  0
    3.6682    0.3326   -3.6888 C   0  0  0  0  0  0  0  0  0  0  0  0
    3.3691   -0.5445   -4.7355 C   0  0  0  0  0  0  0  0  0  0  0  0
    4.3545   -1.0116   -5.7713 C   0  0  0  0  0  0  0  0  0  0  0  0
    2.0096   -0.8899   -4.7111 C   0  0  0  0  0  0  0  0  0  0  0  0
    1.4497   -0.1786   -3.6623 C   0  0  0  0  0  0  0  0  0  0  0  0
    2.4936    0.5616   -3.0034 C   0  0  0  0  0  0  0  0  0  0  0  0
    2.1736    1.4257   -1.9658 C   0  0  0  0  0  0  0  0  0  0  0  0
    0.8247    1.4930   -1.5811 C   0  0  0  0  0  0  0  0  0  0  0  0
   -0.1484    0.7291   -2.2665 C   0  0  0  0  0  0  0  0  0  0  0  0
    0.1863   -0.0653   -3.2886 O   0  0  0  0  0  0  0  0  0  0  0  0
    1.3620   -1.7192   -5.7605 C   0  0  0  0  0  0  0  0  0  0  0  0
    0.1510   -2.2942   -5.7636 C   0  0  0  0  0  0  0  0  0  0  0  0
   -0.8508   -2.3127   -4.6843 C   0  0  0  0  0  0  0  0  0  0  0  0
   -0.7204   -2.8205   -3.3760 C   0  0  0  0  0  0  0  0  0  0  0  0
    0.5471   -3.3013   -2.7333 C   0  0  0  0  0  0  0  0  0  0  0  0
   -1.9902   -2.8955   -2.7839 C   0  0  0  0  0  0  0  0  0  0  0  0
   -2.9056   -2.4968   -3.7238 C   0  0  0  0  0  0  0  0  0  0  0  0
   -2.2020   -2.1268   -4.9098 C   0  0  0  0  0  0  0  0  0  0  0  0
   -2.9178   -1.7387   -6.0365 C   0  0  0  0  0  0  0  0  0  0  0  0
   -4.3189   -1.7087   -5.9274 C   0  0  0  0  0  0  0  0  0  0  0  0
   -4.9439   -2.0768   -4.7114 C   0  0  0  0  0  0  0  0  0  0  0  0
   -4.2265   -2.4619   -3.6513 O   0  0  0  0  0  0  0  0  0  0  0  0
   -2.3420   -3.4488   -1.4725 C   0  0  0  0  0  0  0  0  0  0  0  0
   -2.0017   -2.8220   -0.3451 C   0  0  0  0  0  0  0  0  0  0  0  0
   -2.4698   -3.2581    0.9893 C   0  0  0  0  0  0  0  0  0  0  0  0
   -1.7897   -3.0065    2.1886 C   0  0  0  0  0  0  0  0  0  0  0  0
   -0.4528   -2.3332    2.2786 C   0  0  0  0  0  0  0  0  0  0  0  0
   -2.5548   -3.4646    3.2712 C   0  0  0  0  0  0  0  0  0  0  0  0
   -3.6915   -4.0303    2.7491 C   0  0  0  0  0  0  0  0  0  0  0  0
   -3.6674   -3.8859    1.3204 C   0  0  0  0  0  0  0  0  0  0  0  0
   -4.8051   -4.2297    0.5940 C   0  0  0  0  0  0  0  0  0  0  0  0
   -5.8800   -4.7918    1.3029 C   0  0  0  0  0  0  0  0  0  0  0  0
   -5.8038   -4.9478    2.7061 C   0  0  0  0  0  0  0  0  0  0  0  0
   -4.7293   -4.5473    3.3880 O   0  0  0  0  0  0  0  0  0  0  0  0
   -2.3131   -3.2611    4.7134 C   0  0  0  0  0  0  0  0  0  0  0  0
   -2.1440   -2.0597    5.2881 C   0  0  0  0  0  0  0  0  0  0  0  0
   -2.2068   -0.7759    4.5612 C   0  0  0  0  0  0  0  0  0  0  0  0
   -0.9555    0.3507    4.5517 S   0  0  0  0  0  0  0  0  0  0  0  0
   -1.6241    1.3897    3.4050 C   0  0  0  0  0  0  0  0  0  0  0  0
   -2.8557    0.8643    3.0133 C   0  0  0  0  0  0  0  0  0  0  0  0
   -3.1982   -0.3231    3.6859 C   0  0  0  0  0  0  0  0  0  0  0  0
   -4.4372   -0.9332    3.4537 C   0  0  0  0  0  0  0  0  0  0  0  0
   -5.2932   -0.4074    2.4717 C   0  0  0  0  0  0  0  0  0  0  0  0
   -6.6003   -1.0787    2.1609 C   0  0  0  0  0  0  0  0  0  0  0  0
   -4.9070    0.7370    1.7461 C   0  0  0  0  0  0  0  0  0  0  0  0
   -3.6931    1.3820    2.0206 C   0  0  0  0  0  0  0  0  0  0  0  0
   -0.9639    2.5984    2.8839 C   0  0  0  0  0  0  0  0  0  0  0  0
   -1.4646    3.9106    2.8920 C   0  0  0  0  0  0  0  0  0  0  0  0
   -2.7700    4.3218    3.5088 C   0  0  0  0  0  0  0  0  0  0  0  0
   -0.5084    4.7756    2.3238 C   0  0  0  0  0  0  0  0  0  0  0  0
    0.5856    4.0015    2.0057 C   0  0  0  0  0  0  0  0  0  0  0  0
    0.3070    2.6414    2.3557 C   0  0  0  0  0  0  0  0  0  0  0  0
    1.2540    1.6582    2.1069 C   0  0  0  0  0  0  0  0  0  0  0  0
    2.4582    2.0724    1.5197 C   0  0  0  0  0  0  0  0  0  0  0  0
    2.6701    3.4365    1.2053 C   0  0  0  0  0  0  0  0  0  0  0  0
    1.7357    4.3586    1.4556 O   0  0  0  0  0  0  0  0  0  0  0  0
   -0.5518    6.2419    2.1507 C   0  0  0  0  0  0  0  0  0  0  0  0
   -1.6718    6.9262    1.9414 C   0  0  0  0  0  0  0  0  0  0  0  0
    4.9567   -2.2693    0.8027 H   0  0  0  0  0  0  0  0  0  0  0  0
    5.5031   -1.7351   -2.9899 H   0  0  0  0  0  0  0  0  0  0  0  0
    3.8659   -2.1180   -2.2968 H   0  0  0  0  0  0  0  0  0  0  0  0
    5.3289   -2.9985   -1.7288 H   0  0  0  0  0  0  0  0  0  0  0  0
    5.5070   -0.6421    3.1405 H   0  0  0  0  0  0  0  0  0  0  0  0
    6.1370    1.7037    3.7734 H   0  0  0  0  0  0  0  0  0  0  0  0
    6.4349    3.4269    2.0056 H   0  0  0  0  0  0  0  0  0  0  0  0
    6.5325    1.7900   -2.4344 H   0  0  0  0  0  0  0  0  0  0  0  0
    5.2943    1.6051   -4.4133 H   0  0  0  0  0  0  0  0  0  0  0  0
    4.0911   -0.5782   -6.7564 H   0  0  0  0  0  0  0  0  0  0  0  0
    5.3887   -0.7075   -5.5133 H   0  0  0  0  0  0  0  0  0  0  0  0
    4.3293   -2.1196   -5.8344 H   0  0  0  0  0  0  0  0  0  0  0  0
    2.9278    2.0286   -1.4782 H   0  0  0  0  0  0  0  0  0  0  0  0
    0.5254    2.1484   -0.7756 H   0  0  0  0  0  0  0  0  0  0  0  0
   -1.1848    0.7948   -1.9645 H   0  0  0  0  0  0  0  0  0  0  0  0
    1.9411   -1.8681   -6.6645 H   0  0  0  0  0  0  0  0  0  0  0  0
   -0.1512   -2.7784   -6.6845 H   0  0  0  0  0  0  0  0  0  0  0  0
    0.9142   -2.5340   -2.0185 H   0  0  0  0  0  0  0  0  0  0  0  0
    0.3585   -4.2439   -2.1797 H   0  0  0  0  0  0  0  0  0  0  0  0
    1.3292   -3.4974   -3.4931 H   0  0  0  0  0  0  0  0  0  0  0  0
   -2.4224   -1.4719   -6.9604 H   0  0  0  0  0  0  0  0  0  0  0  0
   -4.9205   -1.4093   -6.7756 H   0  0  0  0  0  0  0  0  0  0  0  0
   -6.0234   -2.0496   -4.6388 H   0  0  0  0  0  0  0  0  0  0  0  0
   -2.9547   -4.3376   -1.4526 H   0  0  0  0  0  0  0  0  0  0  0  0
   -1.3499   -1.9571   -0.3998 H   0  0  0  0  0  0  0  0  0  0  0  0
   -0.0153   -2.4499    3.2933 H   0  0  0  0  0  0  0  0  0  0  0  0
   -0.5641   -1.2574    2.0414 H   0  0  0  0  0  0  0  0  0  0  0  0
    0.2464   -2.7920    1.5471 H   0  0  0  0  0  0  0  0  0  0  0  0
   -4.8960   -4.0492   -0.4662 H   0  0  0  0  0  0  0  0  0  0  0  0
   -6.7760   -5.0907    0.7754 H   0  0  0  0  0  0  0  0  0  0  0  0
   -6.6394   -5.3825    3.2395 H   0  0  0  0  0  0  0  0  0  0  0  0
   -2.3209   -4.1363    5.3492 H   0  0  0  0  0  0  0  0  0  0  0  0
   -1.8932   -2.0257    6.3418 H   0  0  0  0  0  0  0  0  0  0  0  0
   -4.7357   -1.7986    4.0313 H   0  0  0  0  0  0  0  0  0  0  0  0
   -6.8337   -1.8736    2.9012 H   0  0  0  0  0  0  0  0  0  0  0  0
   -6.5501   -1.5384    1.1515 H   0  0  0  0  0  0  0  0  0  0  0  0
   -7.4215   -0.3296    2.1815 H   0  0  0  0  0  0  0  0  0  0  0  0
   -5.5532    1.1340    0.9730 H   0  0  0  0  0  0  0  0  0  0  0  0
   -3.4134    2.2600    1.4547 H   0  0  0  0  0  0  0  0  0  0  0  0
   -3.1157    3.5617    4.2402 H   0  0  0  0  0  0  0  0  0  0  0  0
   -3.5406    4.4308    2.7184 H   0  0  0  0  0  0  0  0  0  0  0  0
   -2.6503    5.2807    4.0532 H   0  0  0  0  0  0  0  0  0  0  0  0
    1.0748    0.6163    2.3408 H   0  0  0  0  0  0  0  0  0  0  0  0
    3.2114    1.3399    1.2908 H   0  0  0  0  0  0  0  0  0  0  0  0
    3.6025    3.7383    0.7484 H   0  0  0  0  0  0  0  0  0  0  0  0
    0.3872    6.7801    2.1337 H   0  0  0  0  0  0  0  0  0  0  0  0
   -2.6313    6.4407    1.8528 H   0  0  0  0  0  0  0  0  0  0  0  0
   -1.6272    7.9996    1.8056 H   0  0  0  0  0  0  0  0  0  0  0  0
  1  2  2  0
  2  3  1  0
  2  4  1  0
  4  5  2  0
  5  6  1  0
  6  7  2  0
  7  8  1  0
  8  9  2  0
  9 10  1  0
  4 11  1  0
 11 12  2  3
 12 13  1  0
 13 14  2  0
 14 15  1  0
 14 16  1  0
 16 17  2  0
 17 18  1  0
 18 19  2  0
 19 20  1  0
 20 21  2  0
 21 22  1  0
 16 23  1  0
 23 24  2  3
 24 25  1  0
 25 26  2  0
 26 27  1  0
 26 28  1  0
 28 29  2  0
 29 30  1  0
 30 31  2  0
 31 32  1  0
 32 33  2  0
 33 34  1  0
 28 35  1  0
 35 36  2  3
 36 37  1  0
 37 38  2  0
 38 39  1  0
 38 40  1  0
 40 41  2  0
 41 42  1  0
 42 43  2  0
 43 44  1  0
 44 45  2  0
 45 46  1  0
 40 47  1  0
 47 48  2  3
 48 49  1  0
 49 50  1  0
 50 51  1  0
 51 52  2  0
 52 53  1  0
 53 54  1  0
 54 55  2  0
 55 56  1  0
 55 57  1  0
 57 58  2  0
 51 59  1  0
 59 60  2  0
 60 61  1  0
 60 62  1  0
 62 63  2  0
 63 64  1  0
 64 65  2  0
 65 66  1  0
 66 67  2  0
 67 68  1  0
 62 69  1  0
 69 70  2  3
  6  1  1  0
 18 13  1  0
 30 25  1  0
 42 37  1  0
 53 49  2  0
 64 59  1  0
 10  5  1  0
 22 17  1  0
 34 29  1  0
 46 41  1  0
 58 52  1  0
 68 63  1  0
  1 71  1  0
  3 72  1  0
  3 73  1  0
  3 74  1  0
  7 75  1  0
  8 76  1  0
  9 77  1  0
 11 78  1  0
 12 79  1  0
 15 80  1  0
 15 81  1  0
 15 82  1  0
 19 83  1  0
 20 84  1  0
 21 85  1  0
 23 86  1  0
 24 87  1  0
 27 88  1  0
 27 89  1  0
 27 90  1  0
 31 91  1  0
 32 92  1  0
 33 93  1  0
 35 94  1  0
 36 95  1  0
 39 96  1  0
 39 97  1  0
 39 98  1  0
 43 99  1  0
 44100  1  0
 45101  1  0
 47102  1  0
 48103  1  0
 54104  1  0
 56105  1  0
 56106  1  0
 56107  1  0
 57108  1  0
 58109  1  0
 61110  1  0
 61111  1  0
 61112  1  0
 65113  1  0
 66114  1  0
 67115  1  0
 69116  1  0
 70117  1  0
 70118  1  0
M  END

