
     RDKit          3D

234257  0  0  0  0  0  0  0  0999 V2000
    5.5392    3.7332    8.6681 C   0  0  0  0  0  0  0  0  0  0  0  0
    4.4242    3.8793    9.4869 C   0  0  0  0  0  0  0  0  0  0  0  0
    3.6156    2.7303    9.5407 C   0  0  0  0  0  0  0  0  0  0  0  0
    2.3923    2.5919   10.2338 C   0  0  0  0  0  0  0  0  0  0  0  0
    1.7951    3.7082   10.9959 C   0  0  0  0  0  0  0  0  0  0  0  0
    0.5414    4.2219   10.6241 C   0  0  0  0  0  0  0  0  0  0  0  0
   -0.0135    5.3042   11.3143 C   0  0  0  0  0  0  0  0  0  0  0  0
    0.6923    5.8993   12.3669 C   0  0  0  0  0  0  0  0  0  0  0  0
   -0.0136    7.3161   13.2230 S   0  0  0  0  0  0  0  0  0  0  0  0
    0.5560    8.5515   11.9968 C   0  0  0  0  0  0  0  0  0  0  0  0
    2.0401    8.8536   12.1541 C   0  0  0  0  0  0  0  0  0  0  0  0
    1.9324    5.3770   12.7588 C   0  0  0  0  0  0  0  0  0  0  0  0
    2.6102    5.9292   13.7923 F   0  0  0  0  0  0  0  0  0  0  0  0
    2.4823    4.2893   12.0736 C   0  0  0  0  0  0  0  0  0  0  0  0
    1.7119    1.3690   10.0782 C   0  0  0  0  0  0  0  0  0  0  0  0
    2.1913    0.3379    9.2618 C   0  0  0  0  0  0  0  0  0  0  0  0
    3.4083    0.4818    8.5606 C   0  0  0  0  0  0  0  0  0  0  0  0
    3.8746   -0.5268    7.5851 C   0  0  0  0  0  0  0  0  0  0  0  0
    3.0997   -0.8245    6.4598 C   0  0  0  0  0  0  0  0  0  0  0  0
    3.5381   -1.7688    5.5311 C   0  0  0  0  0  0  0  0  0  0  0  0
    4.7559   -2.4256    5.7150 C   0  0  0  0  0  0  0  0  0  0  0  0
    5.3181   -3.6211    4.4963 S   0  0  0  0  0  0  0  0  0  0  0  0
    4.4665   -5.0518    5.2532 C   0  0  0  0  0  0  0  0  0  0  0  0
    3.0325   -5.1610    4.7432 C   0  0  0  0  0  0  0  0  0  0  0  0
    5.5477   -2.1215    6.8321 C   0  0  0  0  0  0  0  0  0  0  0  0
    5.1062   -1.1756    7.7636 C   0  0  0  0  0  0  0  0  0  0  0  0
    6.7435   -2.7394    7.0160 F   0  0  0  0  0  0  0  0  0  0  0  0
    4.0990    1.6916    8.7375 C   0  0  0  0  0  0  0  0  0  0  0  0
    5.5165    2.1912    7.9843 S   0  0  0  0  0  0  0  0  0  0  0  0
    1.3183   -0.7598    9.1899 C   0  0  0  0  0  0  0  0  0  0  0  0
    0.1516   -0.5916    9.9338 C   0  0  0  0  0  0  0  0  0  0  0  0
    0.2084    0.9176   10.6896 S   0  0  0  0  0  0  0  0  0  0  0  0
   -1.0679   -1.3957    9.7360 C   0  0  0  0  0  0  0  0  0  0  0  0
   -1.4164   -2.1172    8.2621 S   0  0  0  0  0  0  0  0  0  0  0  0
   -3.0345   -2.4741    8.5387 C   0  0  0  0  0  0  0  0  0  0  0  0
   -3.3424   -2.0158    9.8228 C   0  0  0  0  0  0  0  0  0  0  0  0
   -2.2471   -1.4243   10.4947 C   0  0  0  0  0  0  0  0  0  0  0  0
   -2.4076   -0.9074   11.7842 C   0  0  0  0  0  0  0  0  0  0  0  0
   -3.6727   -0.9586   12.3974 C   0  0  0  0  0  0  0  0  0  0  0  0
   -3.8426   -0.4608   13.8045 C   0  0  0  0  0  0  0  0  0  0  0  0
   -4.7629   -1.5355   11.7139 C   0  0  0  0  0  0  0  0  0  0  0  0
   -4.6049   -2.0494   10.4207 C   0  0  0  0  0  0  0  0  0  0  0  0
   -3.9534   -2.7800    7.4354 C   0  0  0  0  0  0  0  0  0  0  0  0
   -3.8468   -1.9674    5.9773 S   0  0  0  0  0  0  0  0  0  0  0  0
   -4.6580   -3.0814    5.0181 C   0  0  0  0  0  0  0  0  0  0  0  0
   -5.0237   -4.1459    5.8429 C   0  0  0  0  0  0  0  0  0  0  0  0
   -4.6259   -3.9804    7.1922 C   0  0  0  0  0  0  0  0  0  0  0  0
   -4.8160   -5.0128    8.1177 C   0  0  0  0  0  0  0  0  0  0  0  0
   -5.4523   -6.1976    7.7096 C   0  0  0  0  0  0  0  0  0  0  0  0
   -5.6425   -7.3232    8.6808 C   0  0  0  0  0  0  0  0  0  0  0  0
   -5.8390   -6.3609    6.3637 C   0  0  0  0  0  0  0  0  0  0  0  0
   -5.6143   -5.3415    5.4241 C   0  0  0  0  0  0  0  0  0  0  0  0
   -4.4721   -3.0919    3.5651 C   0  0  0  0  0  0  0  0  0  0  0  0
   -5.4490   -3.2061    2.5703 C   0  0  0  0  0  0  0  0  0  0  0  0
   -4.9528   -2.8665    1.2876 C   0  0  0  0  0  0  0  0  0  0  0  0
   -5.6883   -2.7468    0.0852 C   0  0  0  0  0  0  0  0  0  0  0  0
   -7.1019   -3.1525   -0.0223 C   0  0  0  0  0  0  0  0  0  0  0  0
   -8.0961   -2.4915    0.7121 C   0  0  0  0  0  0  0  0  0  0  0  0
   -9.4313   -2.8883    0.5936 C   0  0  0  0  0  0  0  0  0  0  0  0
   -9.7789   -3.9468   -0.2556 C   0  0  0  0  0  0  0  0  0  0  0  0
  -11.5003   -4.4389   -0.4116 S   0  0  0  0  0  0  0  0  0  0  0  0
  -11.3798   -5.7131    0.8871 C   0  0  0  0  0  0  0  0  0  0  0  0
  -12.7069   -6.4453    1.0190 C   0  0  0  0  0  0  0  0  0  0  0  0
   -8.7867   -4.6014   -0.9952 C   0  0  0  0  0  0  0  0  0  0  0  0
   -9.1105   -5.6268   -1.8233 F   0  0  0  0  0  0  0  0  0  0  0  0
   -7.4555   -4.2038   -0.8795 C   0  0  0  0  0  0  0  0  0  0  0  0
   -5.0009   -2.2293   -1.0350 C   0  0  0  0  0  0  0  0  0  0  0  0
   -3.6395   -1.9067   -0.9939 C   0  0  0  0  0  0  0  0  0  0  0  0
   -2.8888   -2.0777    0.1838 C   0  0  0  0  0  0  0  0  0  0  0  0
   -1.4601   -1.6860    0.2923 C   0  0  0  0  0  0  0  0  0  0  0  0
   -1.0505   -0.3699    0.0058 C   0  0  0  0  0  0  0  0  0  0  0  0
    0.2884   -0.0004    0.1422 C   0  0  0  0  0  0  0  0  0  0  0  0
    1.2296   -0.9275    0.6030 C   0  0  0  0  0  0  0  0  0  0  0  0
    2.9467   -0.4374    0.8107 S   0  0  0  0  0  0  0  0  0  0  0  0
    2.6607    0.3494    2.4313 C   0  0  0  0  0  0  0  0  0  0  0  0
    3.9924    0.6785    3.0892 C   0  0  0  0  0  0  0  0  0  0  0  0
    0.8307   -2.2355    0.9051 C   0  0  0  0  0  0  0  0  0  0  0  0
   -0.5060   -2.6145    0.7421 C   0  0  0  0  0  0  0  0  0  0  0  0
    1.7407   -3.1439    1.3426 F   0  0  0  0  0  0  0  0  0  0  0  0
   -3.5876   -2.5457    1.3031 C   0  0  0  0  0  0  0  0  0  0  0  0
   -3.0154   -2.6280    2.8689 S   0  0  0  0  0  0  0  0  0  0  0  0
   -3.1753   -1.3431   -2.1801 C   0  0  0  0  0  0  0  0  0  0  0  0
   -4.1681   -1.1571   -3.1309 C   0  0  0  0  0  0  0  0  0  0  0  0
   -5.6353   -1.7491   -2.5340 S   0  0  0  0  0  0  0  0  0  0  0  0
   -3.9583   -0.3245   -4.3241 C   0  0  0  0  0  0  0  0  0  0  0  0
   -3.7896   -0.8444   -5.6097 C   0  0  0  0  0  0  0  0  0  0  0  0
   -2.8952   -0.0902   -6.3980 C   0  0  0  0  0  0  0  0  0  0  0  0
   -2.3531   -0.4871   -7.6435 C   0  0  0  0  0  0  0  0  0  0  0  0
   -2.9874   -1.5692   -8.4421 C   0  0  0  0  0  0  0  0  0  0  0  0
   -4.3419   -1.4591   -8.7936 C   0  0  0  0  0  0  0  0  0  0  0  0
   -4.9815   -2.4878   -9.4909 C   0  0  0  0  0  0  0  0  0  0  0  0
   -4.2724   -3.6366   -9.8534 C   0  0  0  0  0  0  0  0  0  0  0  0
   -5.1308   -5.0137  -10.6236 S   0  0  0  0  0  0  0  0  0  0  0  0
   -4.7988   -4.4952  -12.3438 C   0  0  0  0  0  0  0  0  0  0  0  0
   -5.9712   -3.7012  -12.9025 C   0  0  0  0  0  0  0  0  0  0  0  0
   -2.9135   -3.7425   -9.5297 C   0  0  0  0  0  0  0  0  0  0  0  0
   -2.2105   -4.8500   -9.8762 F   0  0  0  0  0  0  0  0  0  0  0  0
   -2.2717   -2.7120   -8.8272 C   0  0  0  0  0  0  0  0  0  0  0  0
   -1.1770    0.1791   -8.0563 C   0  0  0  0  0  0  0  0  0  0  0  0
   -0.6349    1.2460   -7.3324 C   0  0  0  0  0  0  0  0  0  0  0  0
   -1.2638    1.7337   -6.1744 C   0  0  0  0  0  0  0  0  0  0  0  0
   -0.6703    2.8294   -5.3772 C   0  0  0  0  0  0  0  0  0  0  0  0
   -0.6301    4.1285   -5.9000 C   0  0  0  0  0  0  0  0  0  0  0  0
   -0.0648    5.1687   -5.1630 C   0  0  0  0  0  0  0  0  0  0  0  0
    0.4455    4.9247   -3.8822 C   0  0  0  0  0  0  0  0  0  0  0  0
    1.1271    6.2815   -2.9171 S   0  0  0  0  0  0  0  0  0  0  0  0
   -0.5001    6.9002   -2.3463 C   0  0  0  0  0  0  0  0  0  0  0  0
   -1.0049    6.0918   -1.1555 C   0  0  0  0  0  0  0  0  0  0  0  0
    0.4324    3.6227   -3.3620 C   0  0  0  0  0  0  0  0  0  0  0  0
   -0.1205    2.5786   -4.1082 C   0  0  0  0  0  0  0  0  0  0  0  0
    0.9583    3.3657   -2.1365 F   0  0  0  0  0  0  0  0  0  0  0  0
   -2.3849    1.0223   -5.7240 C   0  0  0  0  0  0  0  0  0  0  0  0
   -3.0609    1.0948   -4.1994 S   0  0  0  0  0  0  0  0  0  0  0  0
    0.6506    1.6034   -7.7448 C   0  0  0  0  0  0  0  0  0  0  0  0
    1.1457    0.8149   -8.7736 C   0  0  0  0  0  0  0  0  0  0  0  0
   -0.0449   -0.2994   -9.2162 S   0  0  0  0  0  0  0  0  0  0  0  0
    2.5827    0.6257   -8.9804 C   0  0  0  0  0  0  0  0  0  0  0  0
    3.2536    0.4032  -10.1829 C   0  0  0  0  0  0  0  0  0  0  0  0
    4.6489    0.2918  -10.0055 C   0  0  0  0  0  0  0  0  0  0  0  0
    5.6222    0.1699  -11.0220 C   0  0  0  0  0  0  0  0  0  0  0  0
    5.2648    0.1231  -12.4568 C   0  0  0  0  0  0  0  0  0  0  0  0
    4.4886   -0.9290  -12.9681 C   0  0  0  0  0  0  0  0  0  0  0  0
    4.1849   -0.9775  -14.3317 C   0  0  0  0  0  0  0  0  0  0  0  0
    4.6497    0.0217  -15.1965 C   0  0  0  0  0  0  0  0  0  0  0  0
    4.2719   -0.0634  -16.9504 S   0  0  0  0  0  0  0  0  0  0  0  0
    2.6682    0.8062  -16.8209 C   0  0  0  0  0  0  0  0  0  0  0  0
    2.8576    2.3197  -16.8501 C   0  0  0  0  0  0  0  0  0  0  0  0
    5.4364    1.0618  -14.6930 C   0  0  0  0  0  0  0  0  0  0  0  0
    5.9216    2.0222  -15.5211 F   0  0  0  0  0  0  0  0  0  0  0  0
    5.7334    1.1175  -13.3282 C   0  0  0  0  0  0  0  0  0  0  0  0
    6.9704    0.1619  -10.6118 C   0  0  0  0  0  0  0  0  0  0  0  0
    7.3557    0.2579   -9.2686 C   0  0  0  0  0  0  0  0  0  0  0  0
    6.3819    0.3619   -8.2528 C   0  0  0  0  0  0  0  0  0  0  0  0
    6.7372    0.4626   -6.8176 C   0  0  0  0  0  0  0  0  0  0  0  0
    7.4774    1.5559   -6.3452 C   0  0  0  0  0  0  0  0  0  0  0  0
    7.7403    1.6886   -4.9772 C   0  0  0  0  0  0  0  0  0  0  0  0
    7.2649    0.7350   -4.0735 C   0  0  0  0  0  0  0  0  0  0  0  0
    7.5295    0.9648   -2.3124 S   0  0  0  0  0  0  0  0  0  0  0  0
    9.0413   -0.0561   -2.2636 C   0  0  0  0  0  0  0  0  0  0  0  0
    9.5082   -0.2153   -0.8206 C   0  0  0  0  0  0  0  0  0  0  0  0
    6.5329   -0.3663   -4.5414 C   0  0  0  0  0  0  0  0  0  0  0  0
    6.2738   -0.5024   -5.9073 C   0  0  0  0  0  0  0  0  0  0  0  0
    6.0648   -1.2986   -3.6737 F   0  0  0  0  0  0  0  0  0  0  0  0
    5.0393    0.3914   -8.6664 C   0  0  0  0  0  0  0  0  0  0  0  0
    3.6942    0.6566   -7.7135 S   0  0  0  0  0  0  0  0  0  0  0  0
    8.7520    0.2220   -9.0895 C   0  0  0  0  0  0  0  0  0  0  0  0
    9.4520    0.1063  -10.2881 C   0  0  0  0  0  0  0  0  0  0  0  0
    8.3528    0.0372  -11.5656 S   0  0  0  0  0  0  0  0  0  0  0  0
    6.2900    4.4924    8.4780 H   0  0  0  0  0  0  0  0  0  0  0  0
    4.2047    4.8083   10.0060 H   0  0  0  0  0  0  0  0  0  0  0  0
   -0.0004    3.7920    9.7896 H   0  0  0  0  0  0  0  0  0  0  0  0
   -0.9768    5.6917   11.0141 H   0  0  0  0  0  0  0  0  0  0  0  0
    0.3474    8.1999   10.9639 H   0  0  0  0  0  0  0  0  0  0  0  0
   -0.0222    9.4869   12.1622 H   0  0  0  0  0  0  0  0  0  0  0  0
    2.2770    9.1066   13.2123 H   0  0  0  0  0  0  0  0  0  0  0  0
    2.6466    7.9793   11.8429 H   0  0  0  0  0  0  0  0  0  0  0  0
    2.3153    9.7152   11.5087 H   0  0  0  0  0  0  0  0  0  0  0  0
    3.4459    3.9020   12.3775 H   0  0  0  0  0  0  0  0  0  0  0  0
    2.1576   -0.3150    6.2898 H   0  0  0  0  0  0  0  0  0  0  0  0
    2.9302   -1.9907    4.6647 H   0  0  0  0  0  0  0  0  0  0  0  0
    4.4763   -4.9781    6.3611 H   0  0  0  0  0  0  0  0  0  0  0  0
    5.0159   -5.9726    4.9622 H   0  0  0  0  0  0  0  0  0  0  0  0
    3.0236   -5.1649    3.6316 H   0  0  0  0  0  0  0  0  0  0  0  0
    2.5753   -6.1045    5.1087 H   0  0  0  0  0  0  0  0  0  0  0  0
    2.4226   -4.3115    5.1101 H   0  0  0  0  0  0  0  0  0  0  0  0
    5.7180   -0.9519    8.6305 H   0  0  0  0  0  0  0  0  0  0  0  0
    1.4961   -1.6251    8.5641 H   0  0  0  0  0  0  0  0  0  0  0  0
   -1.5644   -0.4894   12.3246 H   0  0  0  0  0  0  0  0  0  0  0  0
   -3.5674   -1.2680   14.5148 H   0  0  0  0  0  0  0  0  0  0  0  0
   -4.8940   -0.1574   13.9915 H   0  0  0  0  0  0  0  0  0  0  0  0
   -3.1949    0.4220   13.9844 H   0  0  0  0  0  0  0  0  0  0  0  0
   -5.7355   -1.5808   12.1867 H   0  0  0  0  0  0  0  0  0  0  0  0
   -5.4574   -2.4778    9.9014 H   0  0  0  0  0  0  0  0  0  0  0  0
   -4.4675   -4.8957    9.1367 H   0  0  0  0  0  0  0  0  0  0  0  0
   -5.7190   -6.9449    9.7179 H   0  0  0  0  0  0  0  0  0  0  0  0
   -6.5773   -7.8817    8.4488 H   0  0  0  0  0  0  0  0  0  0  0  0
   -4.7842   -8.0225    8.6036 H   0  0  0  0  0  0  0  0  0  0  0  0
   -6.2910   -7.2865    6.0357 H   0  0  0  0  0  0  0  0  0  0  0  0
   -5.8972   -5.4909    4.3925 H   0  0  0  0  0  0  0  0  0  0  0  0
   -6.4845   -3.4300    2.7847 H   0  0  0  0  0  0  0  0  0  0  0  0
   -7.8392   -1.6697    1.3641 H   0  0  0  0  0  0  0  0  0  0  0  0
  -10.1961   -2.3708    1.1571 H   0  0  0  0  0  0  0  0  0  0  0  0
  -10.5815   -6.4431    0.6256 H   0  0  0  0  0  0  0  0  0  0  0  0
  -11.1210   -5.2351    1.8574 H   0  0  0  0  0  0  0  0  0  0  0  0
  -12.9612   -6.9547    0.0621 H   0  0  0  0  0  0  0  0  0  0  0  0
  -12.6317   -7.2094    1.8208 H   0  0  0  0  0  0  0  0  0  0  0  0
  -13.5185   -5.7307    1.2743 H   0  0  0  0  0  0  0  0  0  0  0  0
   -6.6925   -4.7194   -1.4542 H   0  0  0  0  0  0  0  0  0  0  0  0
   -1.7709    0.3689   -0.3185 H   0  0  0  0  0  0  0  0  0  0  0  0
    0.5911    1.0113   -0.0920 H   0  0  0  0  0  0  0  0  0  0  0  0
    2.0802    1.2858    2.2744 H   0  0  0  0  0  0  0  0  0  0  0  0
    2.0795   -0.3274    3.0966 H   0  0  0  0  0  0  0  0  0  0  0  0
    3.8134    1.1654    4.0712 H   0  0  0  0  0  0  0  0  0  0  0  0
    4.5826    1.3705    2.4483 H   0  0  0  0  0  0  0  0  0  0  0  0
    4.5740   -0.2527    3.2557 H   0  0  0  0  0  0  0  0  0  0  0  0
   -0.7959   -3.6340    0.9698 H   0  0  0  0  0  0  0  0  0  0  0  0
   -2.1535   -1.0248   -2.3360 H   0  0  0  0  0  0  0  0  0  0  0  0
   -4.1502   -1.8263   -5.8962 H   0  0  0  0  0  0  0  0  0  0  0  0
   -4.9055   -0.5714   -8.5176 H   0  0  0  0  0  0  0  0  0  0  0  0
   -6.0347   -2.3987   -9.7322 H   0  0  0  0  0  0  0  0  0  0  0  0
   -3.8596   -3.9023  -12.4186 H   0  0  0  0  0  0  0  0  0  0  0  0
   -4.6694   -5.4137  -12.9563 H   0  0  0  0  0  0  0  0  0  0  0  0
   -6.9152   -4.2685  -12.7736 H   0  0  0  0  0  0  0  0  0  0  0  0
   -6.0593   -2.7229  -12.3858 H   0  0  0  0  0  0  0  0  0  0  0  0
   -5.8115   -3.5237  -13.9871 H   0  0  0  0  0  0  0  0  0  0  0  0
   -1.2335   -2.8353   -8.5437 H   0  0  0  0  0  0  0  0  0  0  0  0
   -1.0285    4.3317   -6.8893 H   0  0  0  0  0  0  0  0  0  0  0  0
   -0.0478    6.1687   -5.5736 H   0  0  0  0  0  0  0  0  0  0  0  0
   -0.3730    7.9585   -2.0316 H   0  0  0  0  0  0  0  0  0  0  0  0
   -1.2416    6.8763   -3.1705 H   0  0  0  0  0  0  0  0  0  0  0  0
   -0.2453    6.0914   -0.3482 H   0  0  0  0  0  0  0  0  0  0  0  0
   -1.2227    5.0451   -1.4561 H   0  0  0  0  0  0  0  0  0  0  0  0
   -1.9393    6.5509   -0.7679 H   0  0  0  0  0  0  0  0  0  0  0  0
   -0.1114    1.5740   -3.7065 H   0  0  0  0  0  0  0  0  0  0  0  0
    1.2691    2.3207   -7.2142 H   0  0  0  0  0  0  0  0  0  0  0  0
    2.7496    0.3674  -11.1382 H   0  0  0  0  0  0  0  0  0  0  0  0
    4.1330   -1.7120  -12.3105 H   0  0  0  0  0  0  0  0  0  0  0  0
    3.5878   -1.7963  -14.7189 H   0  0  0  0  0  0  0  0  0  0  0  0
    2.0497    0.5117  -17.6942 H   0  0  0  0  0  0  0  0  0  0  0  0
    2.1290    0.5024  -15.8996 H   0  0  0  0  0  0  0  0  0  0  0  0
    1.8687    2.8212  -16.8266 H   0  0  0  0  0  0  0  0  0  0  0  0
    3.3917    2.6210  -17.7746 H   0  0  0  0  0  0  0  0  0  0  0  0
    3.4337    2.6550  -15.9637 H   0  0  0  0  0  0  0  0  0  0  0  0
    6.3355    1.9353  -12.9511 H   0  0  0  0  0  0  0  0  0  0  0  0
    7.8235    2.3183   -7.0318 H   0  0  0  0  0  0  0  0  0  0  0  0
    8.2937    2.5453   -4.6250 H   0  0  0  0  0  0  0  0  0  0  0  0
    8.8282   -1.0595   -2.6926 H   0  0  0  0  0  0  0  0  0  0  0  0
    9.8466    0.4317   -2.8564 H   0  0  0  0  0  0  0  0  0  0  0  0
    8.6929   -0.6393   -0.1972 H   0  0  0  0  0  0  0  0  0  0  0  0
   10.3803   -0.9014   -0.7860 H   0  0  0  0  0  0  0  0  0  0  0  0
    9.8109    0.7706   -0.4056 H   0  0  0  0  0  0  0  0  0  0  0  0
    5.7026   -1.3526   -6.2587 H   0  0  0  0  0  0  0  0  0  0  0  0
    9.2413    0.2786   -8.1269 H   0  0  0  0  0  0  0  0  0  0  0  0
   10.5286    0.0829  -10.3810 H   0  0  0  0  0  0  0  0  0  0  0  0
  1  2  2  0
  2  3  1  0
  3  4  2  0
  4  5  1  0
  5  6  2  0
  6  7  1  0
  7  8  2  0
  8  9  1  0
  9 10  1  0
 10 11  1  0
  8 12  1  0
 12 13  1  0
 12 14  2  0
  4 15  1  0
 15 16  2  0
 16 17  1  0
 17 18  1  0
 18 19  2  0
 19 20  1  0
 20 21  2  0
 21 22  1  0
 22 23  1  0
 23 24  1  0
 21 25  1  0
 25 26  2  0
 25 27  1  0
 17 28  2  0
 28 29  1  0
 16 30  1  0
 30 31  2  0
 31 32  1  0
 31 33  1  0
 33 34  1  0
 34 35  1  0
 35 36  2  0
 36 37  1  0
 37 38  1  0
 38 39  2  0
 39 40  1  0
 39 41  1  0
 41 42  2  0
 35 43  1  0
 43 44  1  0
 44 45  1  0
 45 46  2  0
 46 47  1  0
 47 48  1  0
 48 49  2  0
 49 50  1  0
 49 51  1  0
 51 52  2  0
 45 53  1  0
 53 54  2  0
 54 55  1  0
 55 56  2  0
 56 57  1  0
 57 58  2  0
 58 59  1  0
 59 60  2  0
 60 61  1  0
 61 62  1  0
 62 63  1  0
 60 64  1  0
 64 65  1  0
 64 66  2  0
 56 67  1  0
 67 68  2  0
 68 69  1  0
 69 70  1  0
 70 71  2  0
 71 72  1  0
 72 73  2  0
 73 74  1  0
 74 75  1  0
 75 76  1  0
 73 77  1  0
 77 78  2  0
 77 79  1  0
 69 80  2  0
 80 81  1  0
 68 82  1  0
 82 83  2  0
 83 84  1  0
 83 85  1  0
 85 86  2  0
 86 87  1  0
 87 88  2  0
 88 89  1  0
 89 90  2  0
 90 91  1  0
 91 92  2  0
 92 93  1  0
 93 94  1  0
 94 95  1  0
 92 96  1  0
 96 97  1  0
 96 98  2  0
 88 99  1  0
 99100  2  0
100101  1  0
101102  1  0
102103  2  0
103104  1  0
104105  2  0
105106  1  0
106107  1  0
107108  1  0
105109  1  0
109110  2  0
109111  1  0
101112  2  0
112113  1  0
100114  1  0
114115  2  0
115116  1  0
115117  1  0
117118  2  0
118119  1  0
119120  2  0
120121  1  0
121122  2  0
122123  1  0
123124  2  0
124125  1  0
125126  1  0
126127  1  0
124128  1  0
128129  1  0
128130  2  0
120131  1  0
131132  2  0
132133  1  0
133134  1  0
134135  2  0
135136  1  0
136137  2  0
137138  1  0
138139  1  0
139140  1  0
137141  1  0
141142  2  0
141143  1  0
133144  2  0
144145  1  0
132146  1  0
146147  2  0
147148  1  0
 29  1  1  0
 37 33  2  0
 47 43  2  0
 81 53  1  0
113 85  1  0
145117  1  0
 28  3  1  0
 42 36  1  0
 52 46  1  0
 80 55  1  0
112 87  1  0
144119  1  0
 14  5  1  0
 32 15  1  0
 66 57  1  0
 84 67  1  0
 98 89  1  0
116 99  1  0
130121  1  0
148131  1  0
 26 18  1  0
 78 70  1  0
110102  1  0
142134  1  0
  1149  1  0
  2150  1  0
  6151  1  0
  7152  1  0
 10153  1  0
 10154  1  0
 11155  1  0
 11156  1  0
 11157  1  0
 14158  1  0
 19159  1  0
 20160  1  0
 23161  1  0
 23162  1  0
 24163  1  0
 24164  1  0
 24165  1  0
 26166  1  0
 30167  1  0
 38168  1  0
 40169  1  0
 40170  1  0
 40171  1  0
 41172  1  0
 42173  1  0
 48174  1  0
 50175  1  0
 50176  1  0
 50177  1  0
 51178  1  0
 52179  1  0
 54180  1  0
 58181  1  0
 59182  1  0
 62183  1  0
 62184  1  0
 63185  1  0
 63186  1  0
 63187  1  0
 66188  1  0
 71189  1  0
 72190  1  0
 75191  1  0
 75192  1  0
 76193  1  0
 76194  1  0
 76195  1  0
 78196  1  0
 82197  1  0
 86198  1  0
 90199  1  0
 91200  1  0
 94201  1  0
 94202  1  0
 95203  1  0
 95204  1  0
 95205  1  0
 98206  1  0
103207  1  0
104208  1  0
107209  1  0
107210  1  0
108211  1  0
108212  1  0
108213  1  0
110214  1  0
114215  1  0
118216  1  0
122217  1  0
123218  1  0
126219  1  0
126220  1  0
127221  1  0
127222  1  0
127223  1  0
130224  1  0
135225  1  0
136226  1  0
139227  1  0
139228  1  0
140229  1  0
140230  1  0
140231  1  0
142232  1  0
146233  1  0
147234  1  0
M  END

