
     RDKit          3D

108114  0  0  0  0  0  0  0  0999 V2000
    2.8633    3.3055    4.7203 C   0  0  0  0  0  0  0  0  0  0  0  0
    2.3985    3.6013    5.9132 O   0  0  0  0  0  0  0  0  0  0  0  0
    3.3024    4.2979    6.5663 C   0  0  0  0  0  0  0  0  0  0  0  0
    4.4151    4.4743    5.7643 C   0  0  0  0  0  0  0  0  0  0  0  0
    5.6858    5.1601    6.1492 C   0  0  0  0  0  0  0  0  0  0  0  0
    4.1376    3.8348    4.5717 C   0  0  0  0  0  0  0  0  0  0  0  0
    5.0502    3.6997    3.4166 C   0  0  0  0  0  0  0  0  0  0  0  0
    4.6920    3.0857    2.2849 C   0  0  0  0  0  0  0  0  0  0  0  0
    5.6458    2.9479    1.1703 C   0  0  0  0  0  0  0  0  0  0  0  0
    5.4943    2.1028    0.1430 C   0  0  0  0  0  0  0  0  0  0  0  0
    4.4562    1.0540    0.0389 C   0  0  0  0  0  0  0  0  0  0  0  0
    3.8275    0.1373    1.3150 S   0  0  0  0  0  0  0  0  0  0  0  0
    2.8610   -0.8841    0.3853 C   0  0  0  0  0  0  0  0  0  0  0  0
    3.0539   -0.5477   -0.9551 C   0  0  0  0  0  0  0  0  0  0  0  0
    3.9373    0.5317   -1.1473 C   0  0  0  0  0  0  0  0  0  0  0  0
    4.1936    1.0158   -2.4366 C   0  0  0  0  0  0  0  0  0  0  0  0
    3.5717    0.4077   -3.5414 C   0  0  0  0  0  0  0  0  0  0  0  0
    3.8018    0.9455   -4.9257 C   0  0  0  0  0  0  0  0  0  0  0  0
    2.6771   -0.6611   -3.3378 C   0  0  0  0  0  0  0  0  0  0  0  0
    2.4303   -1.1530   -2.0495 C   0  0  0  0  0  0  0  0  0  0  0  0
    1.9487   -1.9154    0.9160 C   0  0  0  0  0  0  0  0  0  0  0  0
    1.7596   -3.0736    0.3232 O   0  0  0  0  0  0  0  0  0  0  0  0
    0.9473   -3.8024    1.0515 C   0  0  0  0  0  0  0  0  0  0  0  0
    0.5689   -3.0923    2.1717 C   0  0  0  0  0  0  0  0  0  0  0  0
   -0.2795   -3.6089    3.2914 C   0  0  0  0  0  0  0  0  0  0  0  0
    1.2025   -1.8674    2.0923 C   0  0  0  0  0  0  0  0  0  0  0  0
    1.0951   -0.7994    3.1074 C   0  0  0  0  0  0  0  0  0  0  0  0
    0.6710    0.4483    2.8698 C   0  0  0  0  0  0  0  0  0  0  0  0
    0.3594    0.9871    1.5329 C   0  0  0  0  0  0  0  0  0  0  0  0
   -0.2164    2.1837    1.3926 C   0  0  0  0  0  0  0  0  0  0  0  0
   -0.3986    2.8600    0.0891 C   0  0  0  0  0  0  0  0  0  0  0  0
   -0.4609    4.1722    0.0093 O   0  0  0  0  0  0  0  0  0  0  0  0
   -0.5298    4.5363   -1.2499 C   0  0  0  0  0  0  0  0  0  0  0  0
   -0.5353    3.4134   -2.0473 C   0  0  0  0  0  0  0  0  0  0  0  0
   -0.5423    3.3900   -3.5414 C   0  0  0  0  0  0  0  0  0  0  0  0
   -0.4689    2.3236   -1.2009 C   0  0  0  0  0  0  0  0  0  0  0  0
   -0.4890    0.9176   -1.6451 C   0  0  0  0  0  0  0  0  0  0  0  0
   -1.2259   -0.0126   -1.0375 C   0  0  0  0  0  0  0  0  0  0  0  0
   -1.1374   -1.4188   -1.4722 C   0  0  0  0  0  0  0  0  0  0  0  0
   -1.6467   -2.4713   -0.8183 C   0  0  0  0  0  0  0  0  0  0  0  0
   -2.4378   -2.4199    0.4292 C   0  0  0  0  0  0  0  0  0  0  0  0
   -2.3341   -1.4646    1.3274 O   0  0  0  0  0  0  0  0  0  0  0  0
   -3.1106   -1.7420    2.3498 C   0  0  0  0  0  0  0  0  0  0  0  0
   -3.7589   -2.9383    2.1217 C   0  0  0  0  0  0  0  0  0  0  0  0
   -4.6931   -3.6331    3.0655 C   0  0  0  0  0  0  0  0  0  0  0  0
   -3.3409   -3.3847    0.8813 C   0  0  0  0  0  0  0  0  0  0  0  0
   -3.8213   -4.6212    0.2200 C   0  0  0  0  0  0  0  0  0  0  0  0
   -3.8900   -4.7550   -1.1075 C   0  0  0  0  0  0  0  0  0  0  0  0
   -4.4784   -5.9515   -1.7422 C   0  0  0  0  0  0  0  0  0  0  0  0
   -4.6429   -6.0880   -3.0676 C   0  0  0  0  0  0  0  0  0  0  0  0
   -4.3181   -5.0525   -4.0715 C   0  0  0  0  0  0  0  0  0  0  0  0
   -3.5627   -5.2946   -5.1188 O   0  0  0  0  0  0  0  0  0  0  0  0
   -3.4394   -4.1927   -5.8205 C   0  0  0  0  0  0  0  0  0  0  0  0
   -4.1506   -3.1740   -5.2185 C   0  0  0  0  0  0  0  0  0  0  0  0
   -4.2556   -1.7664   -5.7190 C   0  0  0  0  0  0  0  0  0  0  0  0
   -4.7252   -3.7232   -4.0861 C   0  0  0  0  0  0  0  0  0  0  0  0
   -5.6132   -3.0711   -3.1054 C   0  0  0  0  0  0  0  0  0  0  0  0
   -5.3599   -1.8539   -2.6273 C   0  0  0  0  0  0  0  0  0  0  0  0
   -6.1635   -1.2861   -1.5316 C   0  0  0  0  0  0  0  0  0  0  0  0
   -5.8304   -0.1214   -0.9775 C   0  0  0  0  0  0  0  0  0  0  0  0
    2.3139    2.7294    3.9906 H   0  0  0  0  0  0  0  0  0  0  0  0
    3.1735    4.6629    7.5770 H   0  0  0  0  0  0  0  0  0  0  0  0
    6.5003    4.4075    6.2500 H   0  0  0  0  0  0  0  0  0  0  0  0
    5.9645    5.9030    5.3695 H   0  0  0  0  0  0  0  0  0  0  0  0
    5.5550    5.6923    7.1137 H   0  0  0  0  0  0  0  0  0  0  0  0
    6.0489    4.1089    3.5040 H   0  0  0  0  0  0  0  0  0  0  0  0
    3.6852    2.7101    2.1650 H   0  0  0  0  0  0  0  0  0  0  0  0
    6.5094    3.6030    1.1559 H   0  0  0  0  0  0  0  0  0  0  0  0
    6.2033    2.1768   -0.6722 H   0  0  0  0  0  0  0  0  0  0  0  0
    4.8459    1.8651   -2.5831 H   0  0  0  0  0  0  0  0  0  0  0  0
    3.7284    0.1310   -5.6753 H   0  0  0  0  0  0  0  0  0  0  0  0
    3.0347    1.7113   -5.1556 H   0  0  0  0  0  0  0  0  0  0  0  0
    4.8102    1.4037   -5.0103 H   0  0  0  0  0  0  0  0  0  0  0  0
    2.1777   -1.1188   -4.1786 H   0  0  0  0  0  0  0  0  0  0  0  0
    1.7507   -1.9827   -1.9201 H   0  0  0  0  0  0  0  0  0  0  0  0
    0.6330   -4.8047    0.7958 H   0  0  0  0  0  0  0  0  0  0  0  0
   -1.0340   -4.3264    2.8969 H   0  0  0  0  0  0  0  0  0  0  0  0
    0.3676   -4.1218    4.0333 H   0  0  0  0  0  0  0  0  0  0  0  0
   -0.8140   -2.7768    3.7984 H   0  0  0  0  0  0  0  0  0  0  0  0
    1.2146   -1.0956    4.1421 H   0  0  0  0  0  0  0  0  0  0  0  0
    0.5205    1.0923    3.7265 H   0  0  0  0  0  0  0  0  0  0  0  0
    0.6633    0.4425    0.6617 H   0  0  0  0  0  0  0  0  0  0  0  0
   -0.4606    2.7639    2.2766 H   0  0  0  0  0  0  0  0  0  0  0  0
   -0.5729    5.5633   -1.5891 H   0  0  0  0  0  0  0  0  0  0  0  0
   -0.8770    4.3665   -3.9446 H   0  0  0  0  0  0  0  0  0  0  0  0
    0.4848    3.1809   -3.9086 H   0  0  0  0  0  0  0  0  0  0  0  0
   -1.2365    2.6021   -3.9044 H   0  0  0  0  0  0  0  0  0  0  0  0
    0.0731    0.6625   -2.5333 H   0  0  0  0  0  0  0  0  0  0  0  0
   -1.8557    0.2766   -0.2103 H   0  0  0  0  0  0  0  0  0  0  0  0
   -0.5908   -1.6241   -2.3842 H   0  0  0  0  0  0  0  0  0  0  0  0
   -1.4468   -3.4453   -1.2444 H   0  0  0  0  0  0  0  0  0  0  0  0
   -3.2054   -1.1184    3.2301 H   0  0  0  0  0  0  0  0  0  0  0  0
   -4.2207   -4.5652    3.4472 H   0  0  0  0  0  0  0  0  0  0  0  0
   -5.6363   -3.8911    2.5387 H   0  0  0  0  0  0  0  0  0  0  0  0
   -4.9293   -2.9696    3.9260 H   0  0  0  0  0  0  0  0  0  0  0  0
   -4.2358   -5.3977    0.8570 H   0  0  0  0  0  0  0  0  0  0  0  0
   -3.5455   -3.9584   -1.7404 H   0  0  0  0  0  0  0  0  0  0  0  0
   -4.7418   -6.7930   -1.1130 H   0  0  0  0  0  0  0  0  0  0  0  0
   -4.9510   -7.0554   -3.4463 H   0  0  0  0  0  0  0  0  0  0  0  0
   -2.8671   -4.1136   -6.7315 H   0  0  0  0  0  0  0  0  0  0  0  0
   -4.0560   -1.7296   -6.8088 H   0  0  0  0  0  0  0  0  0  0  0  0
   -5.2760   -1.3700   -5.5389 H   0  0  0  0  0  0  0  0  0  0  0  0
   -3.5069   -1.1314   -5.2035 H   0  0  0  0  0  0  0  0  0  0  0  0
   -6.3971   -3.6628   -2.6610 H   0  0  0  0  0  0  0  0  0  0  0  0
   -4.5010   -1.2971   -2.9903 H   0  0  0  0  0  0  0  0  0  0  0  0
   -7.0318   -1.8217   -1.1564 H   0  0  0  0  0  0  0  0  0  0  0  0
   -6.4273    0.2803   -0.1713 H   0  0  0  0  0  0  0  0  0  0  0  0
   -4.9690    0.4382   -1.3128 H   0  0  0  0  0  0  0  0  0  0  0  0
  1  2  1  0
  2  3  1  0
  3  4  2  0
  4  5  1  0
  4  6  1  0
  6  7  1  0
  7  8  2  3
  8  9  1  0
  9 10  2  3
 10 11  1  0
 11 12  1  0
 12 13  1  0
 13 14  2  0
 14 15  1  0
 15 16  1  0
 16 17  2  0
 17 18  1  0
 17 19  1  0
 19 20  2  0
 13 21  1  0
 21 22  1  0
 22 23  1  0
 23 24  2  0
 24 25  1  0
 24 26  1  0
 26 27  1  0
 27 28  2  3
 28 29  1  0
 29 30  2  3
 30 31  1  0
 31 32  1  0
 32 33  1  0
 33 34  2  0
 34 35  1  0
 34 36  1  0
 36 37  1  0
 37 38  2  3
 38 39  1  0
 39 40  2  3
 40 41  1  0
 41 42  1  0
 42 43  1  0
 43 44  2  0
 44 45  1  0
 44 46  1  0
 46 47  1  0
 47 48  2  3
 48 49  1  0
 49 50  2  3
 50 51  1  0
 51 52  1  0
 52 53  1  0
 53 54  2  0
 54 55  1  0
 54 56  1  0
 56 57  1  0
 57 58  2  3
 58 59  1  0
 59 60  2  3
  6  1  2  0
 15 11  2  0
 26 21  2  0
 36 31  2  0
 46 41  2  0
 56 51  2  0
 20 14  1  0
  1 61  1  0
  3 62  1  0
  5 63  1  0
  5 64  1  0
  5 65  1  0
  7 66  1  0
  8 67  1  0
  9 68  1  0
 10 69  1  0
 16 70  1  0
 18 71  1  0
 18 72  1  0
 18 73  1  0
 19 74  1  0
 20 75  1  0
 23 76  1  0
 25 77  1  0
 25 78  1  0
 25 79  1  0
 27 80  1  0
 28 81  1  0
 29 82  1  0
 30 83  1  0
 33 84  1  0
 35 85  1  0
 35 86  1  0
 35 87  1  0
 37 88  1  0
 38 89  1  0
 39 90  1  0
 40 91  1  0
 43 92  1  0
 45 93  1  0
 45 94  1  0
 45 95  1  0
 47 96  1  0
 48 97  1  0
 49 98  1  0
 50 99  1  0
 53100  1  0
 55101  1  0
 55102  1  0
 55103  1  0
 57104  1  0
 58105  1  0
 59106  1  0
 60107  1  0
 60108  1  0
M  END

