
     RDKit          3D

130141  0  0  0  0  0  0  0  0999 V2000
    7.3635   -5.9189    6.4483 C   0  0  0  0  0  0  0  0  0  0  0  0
    6.3975   -5.7650    5.0765 S   0  0  0  0  0  0  0  0  0  0  0  0
    5.9035   -4.1744    5.3363 C   0  0  0  0  0  0  0  0  0  0  0  0
    6.4723   -3.7472    6.5428 C   0  0  0  0  0  0  0  0  0  0  0  0
    7.2875   -4.7204    7.1442 C   0  0  0  0  0  0  0  0  0  0  0  0
    7.9457   -4.4620    8.3441 C   0  0  0  0  0  0  0  0  0  0  0  0
    7.7756   -3.2104    8.9690 C   0  0  0  0  0  0  0  0  0  0  0  0
    8.5159   -2.9086   10.2419 C   0  0  0  0  0  0  0  0  0  0  0  0
    6.9335   -2.2425    8.3821 C   0  0  0  0  0  0  0  0  0  0  0  0
    6.2574   -2.5139    7.1851 C   0  0  0  0  0  0  0  0  0  0  0  0
    4.9847   -3.4515    4.4333 C   0  0  0  0  0  0  0  0  0  0  0  0
    3.6404   -4.1483    3.7243 S   0  0  0  0  0  0  0  0  0  0  0  0
    3.1026   -2.8315    2.8133 C   0  0  0  0  0  0  0  0  0  0  0  0
    4.0193   -1.7843    3.0705 C   0  0  0  0  0  0  0  0  0  0  0  0
    5.0871   -2.1564    3.9275 C   0  0  0  0  0  0  0  0  0  0  0  0
    6.1563   -1.2805    4.1555 C   0  0  0  0  0  0  0  0  0  0  0  0
    6.1089    0.0208    3.6361 C   0  0  0  0  0  0  0  0  0  0  0  0
    7.2488    0.9620    3.8857 C   0  0  0  0  0  0  0  0  0  0  0  0
    4.9961    0.4258    2.8736 C   0  0  0  0  0  0  0  0  0  0  0  0
    3.9562   -0.4662    2.5905 C   0  0  0  0  0  0  0  0  0  0  0  0
    2.0204   -2.8956    1.7751 C   0  0  0  0  0  0  0  0  0  0  0  0
    1.8140   -1.7844    0.5250 S   0  0  0  0  0  0  0  0  0  0  0  0
    0.5838   -2.5618   -0.3123 C   0  0  0  0  0  0  0  0  0  0  0  0
    0.2674   -3.7289    0.3960 C   0  0  0  0  0  0  0  0  0  0  0  0
    1.0533   -3.9092    1.5588 C   0  0  0  0  0  0  0  0  0  0  0  0
    0.7531   -5.0757    2.4754 C   0  0  2  0  0  0  0  0  0  0  0  0
    1.5302   -6.3391    2.0661 C   0  0  0  0  0  0  0  0  0  0  0  0
   -0.7683   -5.3330    2.5350 C   0  0  0  0  0  0  0  0  0  0  0  0
   -1.4996   -5.3497    1.1714 C   0  0  0  0  0  0  0  0  0  0  0  0
   -0.6740   -4.8367   -0.0297 C   0  0  1  0  0  0  0  0  0  0  0  0
   -1.5847   -4.4996   -1.1840 C   0  0  0  0  0  0  0  0  0  0  0  0
   -1.2030   -4.6768   -2.4505 C   0  0  0  0  0  0  0  0  0  0  0  0
   -0.2190   -1.8793   -1.3422 C   0  0  0  0  0  0  0  0  0  0  0  0
   -1.6719   -1.1293   -0.9584 S   0  0  0  0  0  0  0  0  0  0  0  0
   -1.9594   -0.4778   -2.4727 C   0  0  0  0  0  0  0  0  0  0  0  0
   -0.8805   -0.7938   -3.3199 C   0  0  0  0  0  0  0  0  0  0  0  0
    0.1084   -1.5962   -2.6849 C   0  0  0  0  0  0  0  0  0  0  0  0
    1.2543   -2.2286   -3.4901 C   0  0  2  0  0  0  0  0  0  0  0  0
    2.5479   -2.4419   -2.6932 C   0  0  0  0  0  0  0  0  0  0  0  0
    1.5785   -1.3910   -4.7461 C   0  0  0  0  0  0  0  0  0  0  0  0
    0.3137   -1.0370   -5.5335 C   0  0  0  0  0  0  0  0  0  0  0  0
   -0.6062   -0.1490   -4.6798 C   0  0  1  0  0  0  0  0  0  0  0  0
   -1.8381    0.2691   -5.4538 C   0  0  0  0  0  0  0  0  0  0  0  0
   -2.6747   -0.5847   -6.0451 C   0  0  0  0  0  0  0  0  0  0  0  0
   -3.0651    0.4547   -2.7271 C   0  0  0  0  0  0  0  0  0  0  0  0
   -2.8522    2.1094   -2.7025 S   0  0  0  0  0  0  0  0  0  0  0  0
   -4.4543    2.5667   -2.9052 C   0  0  0  0  0  0  0  0  0  0  0  0
   -5.2104    1.3744   -3.0377 C   0  0  0  0  0  0  0  0  0  0  0  0
   -4.4348    0.1897   -2.9194 C   0  0  0  0  0  0  0  0  0  0  0  0
   -5.1244   -1.1660   -2.9966 C   0  0  2  0  0  0  0  0  0  0  0  0
   -4.2116   -2.3731   -3.2325 C   0  0  0  0  0  0  0  0  0  0  0  0
   -6.1787   -1.0847   -4.1116 C   0  0  0  0  0  0  0  0  0  0  0  0
   -7.2651   -0.0774   -3.7184 C   0  0  0  0  0  0  0  0  0  0  0  0
   -6.7120    1.3223   -3.3116 C   0  0  1  0  0  0  0  0  0  0  0  0
   -7.4820    1.8554   -2.1196 C   0  0  0  0  0  0  0  0  0  0  0  0
   -8.6995    2.3785   -2.2519 C   0  0  0  0  0  0  0  0  0  0  0  0
   -4.9171    3.9886   -2.9752 C   0  0  0  0  0  0  0  0  0  0  0  0
   -6.3175    4.5109   -3.7671 S   0  0  0  0  0  0  0  0  0  0  0  0
   -6.1341    6.1489   -3.5500 C   0  0  0  0  0  0  0  0  0  0  0  0
   -4.9321    6.3523   -2.8828 C   0  0  0  0  0  0  0  0  0  0  0  0
   -4.2683    5.1561   -2.5023 C   0  0  0  0  0  0  0  0  0  0  0  0
   -2.9852    5.1901   -1.6712 C   0  0  2  0  0  0  0  0  0  0  0  0
   -3.2010    4.5001   -0.3122 C   0  0  0  0  0  0  0  0  0  0  0  0
   -2.4380    6.6223   -1.4134 C   0  0  0  0  0  0  0  0  0  0  0  0
   -2.8334    7.6223   -2.5042 C   0  0  0  0  0  0  0  0  0  0  0  0
   -4.3675    7.7237   -2.5828 C   0  0  1  0  0  0  0  0  0  0  0  0
   -4.7607    8.7345   -3.6369 C   0  0  0  0  0  0  0  0  0  0  0  0
   -5.6661    9.6882   -3.3902 C   0  0  0  0  0  0  0  0  0  0  0  0
    7.9307   -6.7932    6.7404 H   0  0  0  0  0  0  0  0  0  0  0  0
    8.5819   -5.2167    8.7947 H   0  0  0  0  0  0  0  0  0  0  0  0
    8.4760   -3.7878   10.9222 H   0  0  0  0  0  0  0  0  0  0  0  0
    8.0654   -2.0344   10.7624 H   0  0  0  0  0  0  0  0  0  0  0  0
    9.5760   -2.6749   10.0016 H   0  0  0  0  0  0  0  0  0  0  0  0
    6.7903   -1.2808    8.8607 H   0  0  0  0  0  0  0  0  0  0  0  0
    5.5867   -1.7710    6.7704 H   0  0  0  0  0  0  0  0  0  0  0  0
    7.0212   -1.5998    4.7218 H   0  0  0  0  0  0  0  0  0  0  0  0
    8.0522    0.7792    3.1477 H   0  0  0  0  0  0  0  0  0  0  0  0
    6.9243    2.0203    3.8063 H   0  0  0  0  0  0  0  0  0  0  0  0
    7.6628    0.8108    4.9049 H   0  0  0  0  0  0  0  0  0  0  0  0
    4.9394    1.4345    2.4939 H   0  0  0  0  0  0  0  0  0  0  0  0
    3.1134   -0.0995    2.0356 H   0  0  0  0  0  0  0  0  0  0  0  0
    1.0524   -4.8110    3.5133 H   0  0  0  0  0  0  0  0  0  0  0  0
    1.3739   -6.6065    1.0088 H   0  0  0  0  0  0  0  0  0  0  0  0
    1.2469   -7.2002    2.7080 H   0  0  0  0  0  0  0  0  0  0  0  0
    2.6243   -6.1793    2.1860 H   0  0  0  0  0  0  0  0  0  0  0  0
   -0.9624   -6.2869    3.0718 H   0  0  0  0  0  0  0  0  0  0  0  0
   -1.2184   -4.5263    3.1612 H   0  0  0  0  0  0  0  0  0  0  0  0
   -1.8340   -6.3865    0.9432 H   0  0  0  0  0  0  0  0  0  0  0  0
   -2.4252   -4.7396    1.2757 H   0  0  0  0  0  0  0  0  0  0  0  0
   -0.0442   -5.6913   -0.3620 H   0  0  0  0  0  0  0  0  0  0  0  0
   -2.5731   -4.1088   -0.9773 H   0  0  0  0  0  0  0  0  0  0  0  0
   -1.8661   -4.4150   -3.2715 H   0  0  0  0  0  0  0  0  0  0  0  0
   -0.2154   -5.0686   -2.6841 H   0  0  0  0  0  0  0  0  0  0  0  0
    0.9004   -3.2240   -3.8419 H   0  0  0  0  0  0  0  0  0  0  0  0
    3.3906   -2.7132   -3.3698 H   0  0  0  0  0  0  0  0  0  0  0  0
    2.4414   -3.2780   -1.9798 H   0  0  0  0  0  0  0  0  0  0  0  0
    2.8350   -1.5097   -2.1544 H   0  0  0  0  0  0  0  0  0  0  0  0
    2.2577   -1.9695   -5.4118 H   0  0  0  0  0  0  0  0  0  0  0  0
    2.1092   -0.4548   -4.4516 H   0  0  0  0  0  0  0  0  0  0  0  0
    0.6134   -0.4803   -6.4493 H   0  0  0  0  0  0  0  0  0  0  0  0
   -0.2012   -1.9758   -5.8402 H   0  0  0  0  0  0  0  0  0  0  0  0
   -0.0431    0.7828   -4.4581 H   0  0  0  0  0  0  0  0  0  0  0  0
   -2.0569    1.3333   -5.5205 H   0  0  0  0  0  0  0  0  0  0  0  0
   -2.4988   -1.6584   -6.0318 H   0  0  0  0  0  0  0  0  0  0  0  0
   -3.5514   -0.2077   -6.5543 H   0  0  0  0  0  0  0  0  0  0  0  0
   -5.6386   -1.3441   -2.0266 H   0  0  0  0  0  0  0  0  0  0  0  0
   -3.6274   -2.5862   -2.3233 H   0  0  0  0  0  0  0  0  0  0  0  0
   -4.8085   -3.2832   -3.4381 H   0  0  0  0  0  0  0  0  0  0  0  0
   -3.5280   -2.2124   -4.0817 H   0  0  0  0  0  0  0  0  0  0  0  0
   -5.7061   -0.7748   -5.0743 H   0  0  0  0  0  0  0  0  0  0  0  0
   -6.6629   -2.0784   -4.2729 H   0  0  0  0  0  0  0  0  0  0  0  0
   -7.8910   -0.5357   -2.9022 H   0  0  0  0  0  0  0  0  0  0  0  0
   -7.9542    0.0394   -4.5898 H   0  0  0  0  0  0  0  0  0  0  0  0
   -6.8997    1.9688   -4.1969 H   0  0  0  0  0  0  0  0  0  0  0  0
   -7.0377    1.7991   -1.1275 H   0  0  0  0  0  0  0  0  0  0  0  0
   -9.2317    2.7480   -1.3724 H   0  0  0  0  0  0  0  0  0  0  0  0
   -9.1788    2.4449   -3.2253 H   0  0  0  0  0  0  0  0  0  0  0  0
   -6.8040    6.9106   -3.9145 H   0  0  0  0  0  0  0  0  0  0  0  0
   -2.2022    4.6536   -2.2372 H   0  0  0  0  0  0  0  0  0  0  0  0
   -2.2229    4.3831    0.2109 H   0  0  0  0  0  0  0  0  0  0  0  0
   -3.6618    3.4957   -0.4093 H   0  0  0  0  0  0  0  0  0  0  0  0
   -3.8820    5.1039    0.3281 H   0  0  0  0  0  0  0  0  0  0  0  0
   -2.8104    7.0195   -0.4452 H   0  0  0  0  0  0  0  0  0  0  0  0
   -1.3317    6.5889   -1.3417 H   0  0  0  0  0  0  0  0  0  0  0  0
   -2.4027    8.6201   -2.2466 H   0  0  0  0  0  0  0  0  0  0  0  0
   -2.4086    7.2990   -3.4813 H   0  0  0  0  0  0  0  0  0  0  0  0
   -4.7463    8.0393   -1.5820 H   0  0  0  0  0  0  0  0  0  0  0  0
   -4.3283    8.6479   -4.6288 H   0  0  0  0  0  0  0  0  0  0  0  0
   -5.9556   10.3741   -4.1803 H   0  0  0  0  0  0  0  0  0  0  0  0
   -6.1340    9.7818   -2.4183 H   0  0  0  0  0  0  0  0  0  0  0  0
  1  2  1  0
  2  3  1  0
  3  4  2  0
  4  5  1  0
  5  6  1  0
  6  7  2  0
  7  8  1  0
  7  9  1  0
  9 10  2  0
  3 11  1  0
 11 12  1  0
 12 13  1  0
 13 14  2  0
 14 15  1  0
 15 16  1  0
 16 17  2  0
 17 18  1  0
 17 19  1  0
 19 20  2  0
 13 21  1  0
 21 22  1  0
 22 23  1  0
 23 24  2  0
 24 25  1  0
 25 26  1  0
 26 27  1  0
 26 28  1  0
 28 29  1  0
 29 30  1  0
 30 31  1  0
 31 32  2  3
 23 33  1  0
 33 34  1  0
 34 35  1  0
 35 36  2  0
 36 37  1  0
 37 38  1  0
 38 39  1  0
 38 40  1  0
 40 41  1  0
 41 42  1  0
 42 43  1  0
 43 44  2  3
 35 45  1  0
 45 46  1  0
 46 47  1  0
 47 48  2  0
 48 49  1  0
 49 50  1  0
 50 51  1  0
 50 52  1  0
 52 53  1  0
 53 54  1  0
 54 55  1  0
 55 56  2  3
 47 57  1  0
 57 58  1  0
 58 59  1  0
 59 60  2  0
 60 61  1  0
 61 62  1  0
 62 63  1  0
 62 64  1  0
 64 65  1  0
 65 66  1  0
 66 67  1  0
 67 68  2  3
  5  1  2  0
 15 11  2  0
 25 21  2  0
 37 33  2  0
 49 45  2  0
 61 57  2  0
 10  4  1  0
 20 14  1  0
 30 24  1  0
 42 36  1  0
 54 48  1  0
 66 60  1  0
  1 69  1  0
  6 70  1  0
  8 71  1  0
  8 72  1  0
  8 73  1  0
  9 74  1  0
 10 75  1  0
 16 76  1  0
 18 77  1  0
 18 78  1  0
 18 79  1  0
 19 80  1  0
 20 81  1  0
 26 82  1  1
 27 83  1  0
 27 84  1  0
 27 85  1  0
 28 86  1  0
 28 87  1  0
 29 88  1  0
 29 89  1  0
 30 90  1  6
 31 91  1  0
 32 92  1  0
 32 93  1  0
 38 94  1  6
 39 95  1  0
 39 96  1  0
 39 97  1  0
 40 98  1  0
 40 99  1  0
 41100  1  0
 41101  1  0
 42102  1  1
 43103  1  0
 44104  1  0
 44105  1  0
 50106  1  1
 51107  1  0
 51108  1  0
 51109  1  0
 52110  1  0
 52111  1  0
 53112  1  0
 53113  1  0
 54114  1  6
 55115  1  0
 56116  1  0
 56117  1  0
 59118  1  0
 62119  1  6
 63120  1  0
 63121  1  0
 63122  1  0
 64123  1  0
 64124  1  0
 65125  1  0
 65126  1  0
 66127  1  1
 67128  1  0
 68129  1  0
 68130  1  0
M  END

