
     RDKit          3D

240266  0  0  0  0  0  0  0  0999 V2000
   -1.9324    1.0522    1.4807 C   0  0  0  0  0  0  0  0  0  0  0  0
   -2.0803    0.2727    0.3384 C   0  0  0  0  0  0  0  0  0  0  0  0
   -0.8755   -0.3064   -0.0945 C   0  0  0  0  0  0  0  0  0  0  0  0
   -0.6938   -1.1468   -1.2160 C   0  0  0  0  0  0  0  0  0  0  0  0
   -1.7957   -1.4638   -2.1442 C   0  0  0  0  0  0  0  0  0  0  0  0
   -3.2390   -2.2172   -1.7244 S   0  0  0  0  0  0  0  0  0  0  0  0
   -3.9655   -2.0968   -3.2414 C   0  0  0  0  0  0  0  0  0  0  0  0
   -5.3976   -2.4435   -3.5418 C   0  0  0  0  0  0  0  0  0  0  0  0
   -5.7828   -3.8064   -2.9806 C   0  0  0  0  0  0  0  0  0  0  0  0
   -3.0860   -1.4241   -4.0919 C   0  0  0  0  0  0  0  0  0  0  0  0
   -3.4798   -0.9830   -5.7495 Cl  0  0  0  0  0  0  0  0  0  0  0  0
   -1.8717   -1.0793   -3.4819 C   0  0  0  0  0  0  0  0  0  0  0  0
   -0.6212   -0.1477   -4.2991 Cl  0  0  0  0  0  0  0  0  0  0  0  0
    0.6145   -1.6059   -1.4573 C   0  0  0  0  0  0  0  0  0  0  0  0
    1.7028   -1.2175   -0.6749 C   0  0  0  0  0  0  0  0  0  0  0  0
    1.5198   -0.3824    0.4440 C   0  0  0  0  0  0  0  0  0  0  0  0
    2.6475    0.0246    1.2957 C   0  0  0  0  0  0  0  0  0  0  0  0
    3.3121    1.5662    1.3054 S   0  0  0  0  0  0  0  0  0  0  0  0
    4.6319    1.1826    2.2737 C   0  0  0  0  0  0  0  0  0  0  0  0
    5.7594    2.1257    2.5709 C   0  0  0  0  0  0  0  0  0  0  0  0
    6.7888    2.1028    1.4450 C   0  0  0  0  0  0  0  0  0  0  0  0
    4.5836   -0.1771    2.5820 C   0  0  0  0  0  0  0  0  0  0  0  0
    3.4635   -0.8257    2.0387 C   0  0  0  0  0  0  0  0  0  0  0  0
    3.1470   -2.5462    2.2329 Cl  0  0  0  0  0  0  0  0  0  0  0  0
    5.8282   -1.0147    3.4960 Cl  0  0  0  0  0  0  0  0  0  0  0  0
    0.2137    0.0520    0.7063 C   0  0  0  0  0  0  0  0  0  0  0  0
   -0.3152    1.0482    1.9532 S   0  0  0  0  0  0  0  0  0  0  0  0
    2.9202   -1.7653   -1.1057 C   0  0  0  0  0  0  0  0  0  0  0  0
    2.7927   -2.6210   -2.1982 C   0  0  0  0  0  0  0  0  0  0  0  0
    1.1530   -2.7097   -2.6096 S   0  0  0  0  0  0  0  0  0  0  0  0
    3.8547   -3.5667   -2.5993 C   0  0  0  0  0  0  0  0  0  0  0  0
    4.8473   -4.2639   -1.4370 S   0  0  0  0  0  0  0  0  0  0  0  0
    5.7827   -5.2094   -2.4551 C   0  0  0  0  0  0  0  0  0  0  0  0
    5.3433   -4.9646   -3.7581 C   0  0  0  0  0  0  0  0  0  0  0  0
    4.2706   -4.0424   -3.8652 C   0  0  0  0  0  0  0  0  0  0  0  0
    3.9843   -3.4577   -5.2501 C   0  0  2  0  0  0  0  0  0  0  0  0
    2.6906   -2.6596   -5.4002 C   0  0  0  0  0  0  0  0  0  0  0  0
    4.0676   -4.5322   -6.3793 C   0  0  0  0  0  0  0  0  0  0  0  0
    4.8594   -5.8096   -6.0248 C   0  0  0  0  0  0  0  0  0  0  0  0
    5.9698   -5.5700   -4.9871 C   0  0  1  0  0  0  0  0  0  0  0  0
    7.0661   -4.6783   -5.5269 C   0  0  0  0  0  0  0  0  0  0  0  0
    7.8867   -5.0889   -6.4966 C   0  0  0  0  0  0  0  0  0  0  0  0
    7.0008   -5.9589   -2.0603 C   0  0  0  0  0  0  0  0  0  0  0  0
    7.2022   -6.5177   -0.8541 C   0  0  0  0  0  0  0  0  0  0  0  0
    6.1494   -6.6928    0.1591 C   0  0  0  0  0  0  0  0  0  0  0  0
    4.8671   -7.1710   -0.0890 C   0  0  0  0  0  0  0  0  0  0  0  0
    4.0349   -7.1005    1.0353 C   0  0  0  0  0  0  0  0  0  0  0  0
    2.6542   -7.3669    1.0497 C   0  0  0  0  0  0  0  0  0  0  0  0
    1.9359   -7.7776   -0.1703 C   0  0  0  0  0  0  0  0  0  0  0  0
    2.1584   -9.2404   -0.9676 S   0  0  0  0  0  0  0  0  0  0  0  0
    1.0839   -8.9243   -2.2233 C   0  0  0  0  0  0  0  0  0  0  0  0
    0.7564   -9.8861   -3.3249 C   0  0  0  0  0  0  0  0  0  0  0  0
   -0.4661  -10.7235   -2.9675 C   0  0  0  0  0  0  0  0  0  0  0  0
    0.5217   -7.6628   -2.0255 C   0  0  0  0  0  0  0  0  0  0  0  0
   -0.6721   -6.9490   -3.1010 Cl  0  0  0  0  0  0  0  0  0  0  0  0
    1.0086   -7.0143   -0.8813 C   0  0  0  0  0  0  0  0  0  0  0  0
    0.5350   -5.3829   -0.4267 Cl  0  0  0  0  0  0  0  0  0  0  0  0
    1.9697   -7.1020    2.2442 C   0  0  0  0  0  0  0  0  0  0  0  0
    2.5980   -6.5703    3.3746 C   0  0  0  0  0  0  0  0  0  0  0  0
    3.9882   -6.3162    3.3686 C   0  0  0  0  0  0  0  0  0  0  0  0
    4.6727   -5.7064    4.5267 C   0  0  0  0  0  0  0  0  0  0  0  0
    4.3171   -4.1975    5.1852 S   0  0  0  0  0  0  0  0  0  0  0  0
    5.3970   -4.2948    6.4693 C   0  0  0  0  0  0  0  0  0  0  0  0
    5.5711   -3.2390    7.5202 C   0  0  0  0  0  0  0  0  0  0  0  0
    6.7844   -2.3667    7.2253 C   0  0  0  0  0  0  0  0  0  0  0  0
    6.0713   -5.5131    6.3893 C   0  0  0  0  0  0  0  0  0  0  0  0
    5.6620   -6.3052    5.3032 C   0  0  0  0  0  0  0  0  0  0  0  0
    6.2772   -7.9262    5.0082 Cl  0  0  0  0  0  0  0  0  0  0  0  0
    7.2802   -6.0297    7.5556 Cl  0  0  0  0  0  0  0  0  0  0  0  0
    4.6792   -6.5989    2.1745 C   0  0  0  0  0  0  0  0  0  0  0  0
    6.2766   -6.2293    1.7780 S   0  0  0  0  0  0  0  0  0  0  0  0
    1.6903   -6.2372    4.3964 C   0  0  0  0  0  0  0  0  0  0  0  0
    0.3567   -6.4609    4.0445 C   0  0  0  0  0  0  0  0  0  0  0  0
    0.3145   -7.1523    2.5055 S   0  0  0  0  0  0  0  0  0  0  0  0
   -0.7793   -5.7204    4.6178 C   0  0  0  0  0  0  0  0  0  0  0  0
   -1.9826   -5.5200    3.9389 C   0  0  0  0  0  0  0  0  0  0  0  0
   -2.6402   -4.3341    4.3057 C   0  0  0  0  0  0  0  0  0  0  0  0
   -3.7481   -3.7570    3.6471 C   0  0  0  0  0  0  0  0  0  0  0  0
   -4.3835   -4.4060    2.4837 C   0  0  0  0  0  0  0  0  0  0  0  0
   -3.5873   -4.8313    1.0636 S   0  0  0  0  0  0  0  0  0  0  0  0
   -4.8818   -5.6397    0.3619 C   0  0  0  0  0  0  0  0  0  0  0  0
   -4.7868   -6.4546   -0.8924 C   0  0  0  0  0  0  0  0  0  0  0  0
   -4.2837   -7.8586   -0.5804 C   0  0  0  0  0  0  0  0  0  0  0  0
   -5.9650   -5.5893    1.2399 C   0  0  0  0  0  0  0  0  0  0  0  0
   -7.5062   -6.3746    0.9244 Cl  0  0  0  0  0  0  0  0  0  0  0  0
   -5.6862   -4.8911    2.4255 C   0  0  0  0  0  0  0  0  0  0  0  0
   -6.8387   -4.7286    3.7448 Cl  0  0  0  0  0  0  0  0  0  0  0  0
   -4.1331   -2.4697    4.0617 C   0  0  0  0  0  0  0  0  0  0  0  0
   -3.4628   -1.7769    5.0748 C   0  0  0  0  0  0  0  0  0  0  0  0
   -2.3629   -2.3562    5.7372 C   0  0  0  0  0  0  0  0  0  0  0  0
   -1.5318   -1.5913    6.6849 C   0  0  0  0  0  0  0  0  0  0  0  0
   -2.0020   -1.1641    8.2422 S   0  0  0  0  0  0  0  0  0  0  0  0
   -0.5214   -0.5077    8.6993 C   0  0  0  0  0  0  0  0  0  0  0  0
   -0.2066    0.0133   10.0692 C   0  0  0  0  0  0  0  0  0  0  0  0
    0.3468   -1.0963   10.9564 C   0  0  0  0  0  0  0  0  0  0  0  0
    0.3741   -0.6400    7.6399 C   0  0  0  0  0  0  0  0  0  0  0  0
   -0.1998   -1.2175    6.4992 C   0  0  0  0  0  0  0  0  0  0  0  0
    0.6682   -1.4080    4.9786 Cl  0  0  0  0  0  0  0  0  0  0  0  0
    2.0769   -0.2159    7.7432 Cl  0  0  0  0  0  0  0  0  0  0  0  0
   -1.9867   -3.6457    5.3313 C   0  0  0  0  0  0  0  0  0  0  0  0
   -0.5960   -4.4881    5.7547 S   0  0  0  0  0  0  0  0  0  0  0  0
   -3.8637   -0.4398    5.1888 C   0  0  0  0  0  0  0  0  0  0  0  0
   -4.8083   -0.0600    4.2307 C   0  0  0  0  0  0  0  0  0  0  0  0
   -5.1819   -1.4092    3.2816 S   0  0  0  0  0  0  0  0  0  0  0  0
   -5.0474    1.3337    3.8120 C   0  0  0  0  0  0  0  0  0  0  0  0
   -4.2671    2.4066    4.2440 C   0  0  0  0  0  0  0  0  0  0  0  0
   -4.2572    3.4868    3.3509 C   0  0  0  0  0  0  0  0  0  0  0  0
   -3.3149    4.5351    3.3685 C   0  0  0  0  0  0  0  0  0  0  0  0
   -2.3318    4.6665    4.4638 C   0  0  0  0  0  0  0  0  0  0  0  0
   -0.6740    4.4415    4.2909 S   0  0  0  0  0  0  0  0  0  0  0  0
   -0.2967    4.5936    5.9203 C   0  0  0  0  0  0  0  0  0  0  0  0
    1.0770    4.4155    6.4921 C   0  0  0  0  0  0  0  0  0  0  0  0
    1.3315    2.9507    6.8193 C   0  0  0  0  0  0  0  0  0  0  0  0
   -1.4784    4.7820    6.6355 C   0  0  0  0  0  0  0  0  0  0  0  0
   -1.5436    4.9028    8.3886 Cl  0  0  0  0  0  0  0  0  0  0  0  0
   -2.6179    4.8346    5.8173 C   0  0  0  0  0  0  0  0  0  0  0  0
   -4.2451    5.0741    6.4435 Cl  0  0  0  0  0  0  0  0  0  0  0  0
   -3.2182    5.3147    2.2066 C   0  0  0  0  0  0  0  0  0  0  0  0
   -4.0550    5.1300    1.0997 C   0  0  0  0  0  0  0  0  0  0  0  0
   -5.0415    4.1210    1.1095 C   0  0  0  0  0  0  0  0  0  0  0  0
   -5.8558    3.8188   -0.0804 C   0  0  0  0  0  0  0  0  0  0  0  0
   -5.2504    3.2881   -1.5574 S   0  0  0  0  0  0  0  0  0  0  0  0
   -6.7392    3.2028   -2.3373 C   0  0  0  0  0  0  0  0  0  0  0  0
   -6.9158    2.9096   -3.7961 C   0  0  0  0  0  0  0  0  0  0  0  0
   -6.7866    4.1884   -4.6173 C   0  0  0  0  0  0  0  0  0  0  0  0
   -7.7343    3.6002   -1.4459 C   0  0  0  0  0  0  0  0  0  0  0  0
   -7.2407    3.9306   -0.1748 C   0  0  0  0  0  0  0  0  0  0  0  0
   -8.2572    4.4952    1.1440 Cl  0  0  0  0  0  0  0  0  0  0  0  0
   -9.4375    3.7074   -1.8716 Cl  0  0  0  0  0  0  0  0  0  0  0  0
   -5.0939    3.2961    2.2463 C   0  0  0  0  0  0  0  0  0  0  0  0
   -5.7991    1.7707    2.3608 S   0  0  0  0  0  0  0  0  0  0  0  0
   -3.6879    5.9211   -0.0036 C   0  0  0  0  0  0  0  0  0  0  0  0
   -2.5308    6.6627    0.2237 C   0  0  0  0  0  0  0  0  0  0  0  0
   -2.0009    6.3981    1.7996 S   0  0  0  0  0  0  0  0  0  0  0  0
   -1.6814    7.2121   -0.8346 C   0  0  0  0  0  0  0  0  0  0  0  0
   -2.1139    7.8740   -1.9827 C   0  0  0  0  0  0  0  0  0  0  0  0
   -1.0714    8.1059   -2.8969 C   0  0  0  0  0  0  0  0  0  0  0  0
   -1.1751    8.7684   -4.1366 C   0  0  0  0  0  0  0  0  0  0  0  0
   -2.4239    9.4227   -4.5598 C   0  0  0  0  0  0  0  0  0  0  0  0
   -3.1075   10.7509   -3.7903 S   0  0  0  0  0  0  0  0  0  0  0  0
   -4.4131   10.9136   -4.8375 C   0  0  0  0  0  0  0  0  0  0  0  0
   -5.4376   12.0040   -4.7549 C   0  0  0  0  0  0  0  0  0  0  0  0
   -4.9905   13.2229   -5.5522 C   0  0  0  0  0  0  0  0  0  0  0  0
   -4.3162    9.9338   -5.8253 C   0  0  0  0  0  0  0  0  0  0  0  0
   -5.4672    9.7669   -7.1426 Cl  0  0  0  0  0  0  0  0  0  0  0  0
   -3.2059    9.0911   -5.6642 C   0  0  0  0  0  0  0  0  0  0  0  0
   -2.8658    7.7265   -6.7199 Cl  0  0  0  0  0  0  0  0  0  0  0  0
   -0.0066    8.8433   -4.9154 C   0  0  0  0  0  0  0  0  0  0  0  0
    1.2112    8.2880   -4.5080 C   0  0  0  0  0  0  0  0  0  0  0  0
    1.3137    7.6241   -3.2692 C   0  0  0  0  0  0  0  0  0  0  0  0
    2.5677    6.9953   -2.8142 C   0  0  0  0  0  0  0  0  0  0  0  0
    3.9478    7.8326   -2.3456 S   0  0  0  0  0  0  0  0  0  0  0  0
    4.8425    6.4744   -1.9139 C   0  0  0  0  0  0  0  0  0  0  0  0
    6.2657    6.5116   -1.4406 C   0  0  0  0  0  0  0  0  0  0  0  0
    7.2268    6.5144   -2.6234 C   0  0  0  0  0  0  0  0  0  0  0  0
    4.0703    5.3361   -2.1515 C   0  0  0  0  0  0  0  0  0  0  0  0
    2.7900    5.6296   -2.6461 C   0  0  0  0  0  0  0  0  0  0  0  0
    1.6098    4.3928   -3.0575 Cl  0  0  0  0  0  0  0  0  0  0  0  0
    4.6418    3.6962   -1.8676 Cl  0  0  0  0  0  0  0  0  0  0  0  0
    0.1534    7.5728   -2.4802 C   0  0  0  0  0  0  0  0  0  0  0  0
   -0.0322    6.8808   -0.9644 S   0  0  0  0  0  0  0  0  0  0  0  0
    2.2442    8.4738   -5.4415 C   0  0  0  0  0  0  0  0  0  0  0  0
    1.8425    9.1922   -6.5643 C   0  0  0  0  0  0  0  0  0  0  0  0
    0.2100    9.5880   -6.4079 S   0  0  0  0  0  0  0  0  0  0  0  0
   -2.7267    1.5825    1.9765 H   0  0  0  0  0  0  0  0  0  0  0  0
   -3.0344    0.1431   -0.1543 H   0  0  0  0  0  0  0  0  0  0  0  0
   -6.0565   -1.6643   -3.1016 H   0  0  0  0  0  0  0  0  0  0  0  0
   -5.5675   -2.4606   -4.6391 H   0  0  0  0  0  0  0  0  0  0  0  0
   -5.1254   -4.5960   -3.4056 H   0  0  0  0  0  0  0  0  0  0  0  0
   -5.7010   -3.8070   -1.8729 H   0  0  0  0  0  0  0  0  0  0  0  0
   -6.8357   -4.0390   -3.2511 H   0  0  0  0  0  0  0  0  0  0  0  0
    5.3564    3.1551    2.6728 H   0  0  0  0  0  0  0  0  0  0  0  0
    6.2475    1.8513    3.5298 H   0  0  0  0  0  0  0  0  0  0  0  0
    6.3191    2.4151    0.4879 H   0  0  0  0  0  0  0  0  0  0  0  0
    7.2118    1.0818    1.3284 H   0  0  0  0  0  0  0  0  0  0  0  0
    7.6150    2.8067    1.6790 H   0  0  0  0  0  0  0  0  0  0  0  0
    3.8666   -1.5886   -0.6087 H   0  0  0  0  0  0  0  0  0  0  0  0
    4.8070   -2.7331   -5.4377 H   0  0  0  0  0  0  0  0  0  0  0  0
    2.6035   -2.2786   -6.4412 H   0  0  0  0  0  0  0  0  0  0  0  0
    1.8090   -3.3043   -5.1986 H   0  0  0  0  0  0  0  0  0  0  0  0
    2.7058   -1.7685   -4.7404 H   0  0  0  0  0  0  0  0  0  0  0  0
    4.5337   -4.0631   -7.2745 H   0  0  0  0  0  0  0  0  0  0  0  0
    3.0465   -4.8501   -6.6904 H   0  0  0  0  0  0  0  0  0  0  0  0
    5.2777   -6.2601   -6.9492 H   0  0  0  0  0  0  0  0  0  0  0  0
    4.1499   -6.5572   -5.6029 H   0  0  0  0  0  0  0  0  0  0  0  0
    6.4109   -6.5577   -4.7236 H   0  0  0  0  0  0  0  0  0  0  0  0
    7.2020   -3.6811   -5.1164 H   0  0  0  0  0  0  0  0  0  0  0  0
    8.6672   -4.4277   -6.8633 H   0  0  0  0  0  0  0  0  0  0  0  0
    7.7942   -6.0791   -6.9283 H   0  0  0  0  0  0  0  0  0  0  0  0
    7.8192   -5.9875   -2.7707 H   0  0  0  0  0  0  0  0  0  0  0  0
    8.1897   -6.8923   -0.6167 H   0  0  0  0  0  0  0  0  0  0  0  0
    4.5403   -7.4930   -1.0686 H   0  0  0  0  0  0  0  0  0  0  0  0
    0.5675   -9.3317   -4.2686 H   0  0  0  0  0  0  0  0  0  0  0  0
    1.6234  -10.5597   -3.4966 H   0  0  0  0  0  0  0  0  0  0  0  0
   -1.3573  -10.0706   -2.8451 H   0  0  0  0  0  0  0  0  0  0  0  0
   -0.6676  -11.4519   -3.7807 H   0  0  0  0  0  0  0  0  0  0  0  0
   -0.2899  -11.2835   -2.0247 H   0  0  0  0  0  0  0  0  0  0  0  0
    4.6649   -2.5982    7.5554 H   0  0  0  0  0  0  0  0  0  0  0  0
    5.6851   -3.7158    8.5163 H   0  0  0  0  0  0  0  0  0  0  0  0
    6.6653   -1.8612    6.2450 H   0  0  0  0  0  0  0  0  0  0  0  0
    7.7106   -2.9797    7.2069 H   0  0  0  0  0  0  0  0  0  0  0  0
    6.8862   -1.5926    8.0155 H   0  0  0  0  0  0  0  0  0  0  0  0
    1.9754   -5.7422    5.3131 H   0  0  0  0  0  0  0  0  0  0  0  0
   -2.2931   -6.1436    3.1154 H   0  0  0  0  0  0  0  0  0  0  0  0
   -5.7779   -6.5136   -1.3871 H   0  0  0  0  0  0  0  0  0  0  0  0
   -4.0775   -5.9650   -1.5929 H   0  0  0  0  0  0  0  0  0  0  0  0
   -3.2599   -7.8112   -0.1533 H   0  0  0  0  0  0  0  0  0  0  0  0
   -4.2523   -8.4599   -1.5131 H   0  0  0  0  0  0  0  0  0  0  0  0
   -4.9600   -8.3616    0.1439 H   0  0  0  0  0  0  0  0  0  0  0  0
    0.5323    0.8395    9.9988 H   0  0  0  0  0  0  0  0  0  0  0  0
   -1.1304    0.4242   10.5284 H   0  0  0  0  0  0  0  0  0  0  0  0
    1.2676   -1.5273   10.5087 H   0  0  0  0  0  0  0  0  0  0  0  0
   -0.4108   -1.9005   11.0823 H   0  0  0  0  0  0  0  0  0  0  0  0
    0.5974   -0.6816   11.9556 H   0  0  0  0  0  0  0  0  0  0  0  0
   -3.3862    0.2551    5.8650 H   0  0  0  0  0  0  0  0  0  0  0  0
   -3.5872    2.3384    5.0806 H   0  0  0  0  0  0  0  0  0  0  0  0
    1.1908    5.0280    7.4110 H   0  0  0  0  0  0  0  0  0  0  0  0
    1.8309    4.7613    5.7537 H   0  0  0  0  0  0  0  0  0  0  0  0
    0.6009    2.5896    7.5738 H   0  0  0  0  0  0  0  0  0  0  0  0
    2.3555    2.8364    7.2315 H   0  0  0  0  0  0  0  0  0  0  0  0
    1.2433    2.3287    5.9018 H   0  0  0  0  0  0  0  0  0  0  0  0
   -6.1426    2.1828   -4.1232 H   0  0  0  0  0  0  0  0  0  0  0  0
   -7.9114    2.4509   -3.9731 H   0  0  0  0  0  0  0  0  0  0  0  0
   -6.9096    3.9526   -5.6954 H   0  0  0  0  0  0  0  0  0  0  0  0
   -5.7835    4.6434   -4.4666 H   0  0  0  0  0  0  0  0  0  0  0  0
   -7.5687    4.9203   -4.3189 H   0  0  0  0  0  0  0  0  0  0  0  0
   -4.1654    5.8694   -0.9728 H   0  0  0  0  0  0  0  0  0  0  0  0
   -3.1459    8.1526   -2.1537 H   0  0  0  0  0  0  0  0  0  0  0  0
   -6.4134   11.6404   -5.1390 H   0  0  0  0  0  0  0  0  0  0  0  0
   -5.5787   12.2951   -3.6920 H   0  0  0  0  0  0  0  0  0  0  0  0
   -4.8655   12.9594   -6.6248 H   0  0  0  0  0  0  0  0  0  0  0  0
   -4.0279   13.6106   -5.1586 H   0  0  0  0  0  0  0  0  0  0  0  0
   -5.7559   14.0228   -5.4681 H   0  0  0  0  0  0  0  0  0  0  0  0
    6.4786    5.6371   -0.7901 H   0  0  0  0  0  0  0  0  0  0  0  0
    6.4247    7.4295   -0.8362 H   0  0  0  0  0  0  0  0  0  0  0  0
    8.2711    6.5765   -2.2531 H   0  0  0  0  0  0  0  0  0  0  0  0
    7.1135    5.5800   -3.2145 H   0  0  0  0  0  0  0  0  0  0  0  0
    7.0311    7.3908   -3.2789 H   0  0  0  0  0  0  0  0  0  0  0  0
    3.2549    8.1071   -5.3093 H   0  0  0  0  0  0  0  0  0  0  0  0
    2.4793    9.4584   -7.3973 H   0  0  0  0  0  0  0  0  0  0  0  0
  1  2  2  0
  2  3  1  0
  3  4  2  0
  4  5  1  0
  5  6  1  0
  6  7  1  0
  7  8  1  0
  8  9  1  0
  7 10  2  0
 10 11  1  0
 10 12  1  0
 12 13  1  0
  4 14  1  0
 14 15  2  0
 15 16  1  0
 16 17  1  0
 17 18  1  0
 18 19  1  0
 19 20  1  0
 20 21  1  0
 19 22  2  0
 22 23  1  0
 23 24  1  0
 22 25  1  0
 16 26  2  0
 26 27  1  0
 15 28  1  0
 28 29  2  0
 29 30  1  0
 29 31  1  0
 31 32  1  0
 32 33  1  0
 33 34  2  0
 34 35  1  0
 35 36  1  0
 36 37  1  0
 36 38  1  0
 38 39  1  0
 39 40  1  0
 40 41  1  0
 41 42  2  3
 33 43  1  0
 43 44  2  3
 44 45  1  0
 45 46  2  0
 46 47  1  0
 47 48  2  0
 48 49  1  0
 49 50  1  0
 50 51  1  0
 51 52  1  0
 52 53  1  0
 51 54  2  0
 54 55  1  0
 54 56  1  0
 56 57  1  0
 48 58  1  0
 58 59  2  0
 59 60  1  0
 60 61  1  0
 61 62  1  0
 62 63  1  0
 63 64  1  0
 64 65  1  0
 63 66  2  0
 66 67  1  0
 67 68  1  0
 66 69  1  0
 60 70  2  0
 70 71  1  0
 59 72  1  0
 72 73  2  0
 73 74  1  0
 73 75  1  0
 75 76  2  0
 76 77  1  0
 77 78  2  0
 78 79  1  0
 79 80  1  0
 80 81  1  0
 81 82  1  0
 82 83  1  0
 81 84  2  0
 84 85  1  0
 84 86  1  0
 86 87  1  0
 78 88  1  0
 88 89  2  0
 89 90  1  0
 90 91  1  0
 91 92  1  0
 92 93  1  0
 93 94  1  0
 94 95  1  0
 93 96  2  0
 96 97  1  0
 97 98  1  0
 96 99  1  0
 90100  2  0
100101  1  0
 89102  1  0
102103  2  0
103104  1  0
103105  1  0
105106  2  0
106107  1  0
107108  2  0
108109  1  0
109110  1  0
110111  1  0
111112  1  0
112113  1  0
111114  2  0
114115  1  0
114116  1  0
116117  1  0
108118  1  0
118119  2  0
119120  1  0
120121  1  0
121122  1  0
122123  1  0
123124  1  0
124125  1  0
123126  2  0
126127  1  0
127128  1  0
126129  1  0
120130  2  0
130131  1  0
119132  1  0
132133  2  0
133134  1  0
133135  1  0
135136  2  0
136137  1  0
137138  2  0
138139  1  0
139140  1  0
140141  1  0
141142  1  0
142143  1  0
141144  2  0
144145  1  0
144146  1  0
146147  1  0
138148  1  0
148149  2  0
149150  1  0
150151  1  0
151152  1  0
152153  1  0
153154  1  0
154155  1  0
153156  2  0
156157  1  0
157158  1  0
156159  1  0
150160  2  0
160161  1  0
149162  1  0
162163  2  0
163164  1  0
 27  1  1  0
 35 31  2  0
 71 45  1  0
101 75  1  0
131105  1  0
161135  1  0
 26  3  1  0
 40 34  1  0
 70 47  1  0
100 77  1  0
130107  1  0
160137  1  0
 12  5  2  0
 30 14  1  0
 56 49  2  0
 74 58  1  0
 86 79  2  0
104 88  1  0
116109  2  0
134118  1  0
146139  2  0
164148  1  0
 23 17  2  0
 67 61  2  0
 97 91  2  0
127121  2  0
157151  2  0
  1165  1  0
  2166  1  0
  8167  1  0
  8168  1  0
  9169  1  0
  9170  1  0
  9171  1  0
 20172  1  0
 20173  1  0
 21174  1  0
 21175  1  0
 21176  1  0
 28177  1  0
 36178  1  6
 37179  1  0
 37180  1  0
 37181  1  0
 38182  1  0
 38183  1  0
 39184  1  0
 39185  1  0
 40186  1  1
 41187  1  0
 42188  1  0
 42189  1  0
 43190  1  0
 44191  1  0
 46192  1  0
 52193  1  0
 52194  1  0
 53195  1  0
 53196  1  0
 53197  1  0
 64198  1  0
 64199  1  0
 65200  1  0
 65201  1  0
 65202  1  0
 72203  1  0
 76204  1  0
 82205  1  0
 82206  1  0
 83207  1  0
 83208  1  0
 83209  1  0
 94210  1  0
 94211  1  0
 95212  1  0
 95213  1  0
 95214  1  0
102215  1  0
106216  1  0
112217  1  0
112218  1  0
113219  1  0
113220  1  0
113221  1  0
124222  1  0
124223  1  0
125224  1  0
125225  1  0
125226  1  0
132227  1  0
136228  1  0
142229  1  0
142230  1  0
143231  1  0
143232  1  0
143233  1  0
154234  1  0
154235  1  0
155236  1  0
155237  1  0
155238  1  0
162239  1  0
163240  1  0
M  END

