
     RDKit          3D

107121  0  0  0  0  0  0  0  0999 V2000
    2.9857   -0.9274    3.1546 C   0  0  0  0  0  0  0  0  0  0  0  0
    2.3466   -0.4629    2.0879 C   0  0  0  0  0  0  0  0  0  0  0  0
    1.3811    0.5373    2.5410 C   0  0  0  0  0  0  0  0  0  0  0  0
    1.5132    0.5700    3.9942 C   0  0  0  0  0  0  0  0  0  0  0  0
    2.4531   -0.2879    4.3562 C   0  0  0  0  0  0  0  0  0  0  0  0
    0.7676    1.2962    4.8592 F   0  0  0  0  0  0  0  0  0  0  0  0
    0.6070    1.3214    1.7782 C   0  0  0  0  0  0  0  0  0  0  0  0
   -0.2011    2.4513    2.2275 C   0  0  0  0  0  0  0  0  0  0  0  0
   -0.7283    3.0332    1.1535 C   0  0  0  0  0  0  0  0  0  0  0  0
   -0.3024    2.3097   -0.0476 C   0  0  0  0  0  0  0  0  0  0  0  0
    0.4783    1.3055    0.3245 C   0  0  0  0  0  0  0  0  0  0  0  0
    1.0193    0.3978   -0.5263 F   0  0  0  0  0  0  0  0  0  0  0  0
   -1.4984    4.2880    1.1712 C   0  0  0  0  0  0  0  0  0  0  0  0
   -2.5118    4.5695    2.0834 C   0  0  0  0  0  0  0  0  0  0  0  0
   -3.2659    5.8392    2.1836 C   0  0  0  0  0  0  0  0  0  0  0  0
   -3.0444    6.9649    1.3759 C   0  0  0  0  0  0  0  0  0  0  0  0
   -2.0749    6.9643    0.3654 C   0  0  0  0  0  0  0  0  0  0  0  0
   -1.1329    5.5626    0.1118 S   0  0  0  0  0  0  0  0  0  0  0  0
   -4.2706    5.7453    3.0970 N   0  0  0  0  0  0  0  0  0  0  0  0
   -4.1650    4.4798    3.5556 C   0  0  0  0  0  0  0  0  0  0  0  0
   -3.1630    3.7769    2.9857 C   0  0  0  0  0  0  0  0  0  0  0  0
   -3.2312    2.1696    3.4253 S   0  0  0  0  0  0  0  0  0  0  0  0
   -4.6094    2.3997    4.4098 C   0  0  0  0  0  0  0  0  0  0  0  0
   -5.0042    3.7460    4.3919 C   0  0  0  0  0  0  0  0  0  0  0  0
   -5.2988    1.3230    5.1399 C   0  0  0  0  0  0  0  0  0  0  0  0
   -5.5930    0.1363    4.5900 C   0  0  0  0  0  0  0  0  0  0  0  0
   -5.4685   -0.1201    3.1450 C   0  0  0  0  0  0  0  0  0  0  0  0
   -4.4016   -0.7962    2.5678 C   0  0  0  0  0  0  0  0  0  0  0  0
   -4.1390   -0.9084    1.1157 C   0  0  0  0  0  0  0  0  0  0  0  0
   -4.9794   -0.4173    0.1040 C   0  0  0  0  0  0  0  0  0  0  0  0
   -6.1595    0.2708    0.4049 C   0  0  0  0  0  0  0  0  0  0  0  0
   -6.5741    0.5448    2.0398 S   0  0  0  0  0  0  0  0  0  0  0  0
   -2.9295   -1.4806    0.8794 N   0  0  0  0  0  0  0  0  0  0  0  0
   -2.4537   -1.7363    2.1159 C   0  0  0  0  0  0  0  0  0  0  0  0
   -3.2787   -1.3572    3.1136 C   0  0  0  0  0  0  0  0  0  0  0  0
   -2.5628   -1.6018    4.6091 S   0  0  0  0  0  0  0  0  0  0  0  0
   -1.1372   -2.2632    3.9220 C   0  0  0  0  0  0  0  0  0  0  0  0
   -1.2222   -2.2289    2.5162 C   0  0  0  0  0  0  0  0  0  0  0  0
    0.0350   -2.6730    4.7294 C   0  0  0  0  0  0  0  0  0  0  0  0
    0.9944   -3.5262    4.3347 C   0  0  0  0  0  0  0  0  0  0  0  0
    0.9351   -4.3088    3.0949 C   0  0  0  0  0  0  0  0  0  0  0  0
    1.7303   -4.1167    2.0510 C   0  0  0  0  0  0  0  0  0  0  0  0
    1.2214   -4.9338    0.9515 C   0  0  0  0  0  0  0  0  0  0  0  0
    0.0941   -5.6805    1.5083 C   0  0  0  0  0  0  0  0  0  0  0  0
   -0.0945   -5.2946    2.7603 C   0  0  0  0  0  0  0  0  0  0  0  0
   -0.7042   -6.5582    0.8514 F   0  0  0  0  0  0  0  0  0  0  0  0
    1.5901   -4.8665   -0.3338 C   0  0  0  0  0  0  0  0  0  0  0  0
    1.0704   -5.6613   -1.4432 C   0  0  0  0  0  0  0  0  0  0  0  0
    1.6554   -5.2353   -2.5581 C   0  0  0  0  0  0  0  0  0  0  0  0
    2.5905   -4.1514   -2.2406 C   0  0  0  0  0  0  0  0  0  0  0  0
    2.5583   -3.9446   -0.9337 C   0  0  0  0  0  0  0  0  0  0  0  0
    3.3261   -3.0296   -0.2885 F   0  0  0  0  0  0  0  0  0  0  0  0
    1.5561   -5.8995   -3.8643 C   0  0  0  0  0  0  0  0  0  0  0  0
    1.4258   -5.2210   -5.0717 C   0  0  0  0  0  0  0  0  0  0  0  0
    1.4342   -5.8481   -6.4149 C   0  0  0  0  0  0  0  0  0  0  0  0
    1.5985   -7.2179   -6.6620 C   0  0  0  0  0  0  0  0  0  0  0  0
    1.7554   -8.1392   -5.6205 C   0  0  0  0  0  0  0  0  0  0  0  0
    1.7554   -7.5808   -4.0053 S   0  0  0  0  0  0  0  0  0  0  0  0
    1.1764   -4.9348   -7.3842 N   0  0  0  0  0  0  0  0  0  0  0  0
    1.0197   -3.7819   -6.7016 C   0  0  0  0  0  0  0  0  0  0  0  0
    1.1439   -3.9113   -5.3615 C   0  0  0  0  0  0  0  0  0  0  0  0
    0.6818   -2.4998   -4.5795 S   0  0  0  0  0  0  0  0  0  0  0  0
    0.3925   -1.6692   -6.0573 C   0  0  0  0  0  0  0  0  0  0  0  0
    0.5914   -2.5389   -7.1424 C   0  0  0  0  0  0  0  0  0  0  0  0
   -0.2852   -0.3721   -6.2040 C   0  0  0  0  0  0  0  0  0  0  0  0
   -0.0761    0.7349   -5.4822 C   0  0  0  0  0  0  0  0  0  0  0  0
    1.0210    0.9905   -4.5249 C   0  0  0  0  0  0  0  0  0  0  0  0
    1.0199    2.0402   -3.7077 C   0  0  0  0  0  0  0  0  0  0  0  0
    2.2707    2.0375   -2.9575 C   0  0  0  0  0  0  0  0  0  0  0  0
    3.0132    0.8774   -3.4438 C   0  0  0  0  0  0  0  0  0  0  0  0
    2.3041    0.2844   -4.3927 C   0  0  0  0  0  0  0  0  0  0  0  0
    4.2688    0.5102   -3.0823 F   0  0  0  0  0  0  0  0  0  0  0  0
    2.6587    2.9352   -2.0414 C   0  0  0  0  0  0  0  0  0  0  0  0
    3.8466    2.8798   -1.1898 C   0  0  0  0  0  0  0  0  0  0  0  0
    3.8180    3.9323   -0.3774 C   0  0  0  0  0  0  0  0  0  0  0  0
    2.6259    4.7305   -0.6533 C   0  0  0  0  0  0  0  0  0  0  0  0
    1.9542    4.1527   -1.6396 C   0  0  0  0  0  0  0  0  0  0  0  0
    0.8254    4.6540   -2.1979 F   0  0  0  0  0  0  0  0  0  0  0  0
    3.7763   -1.6633    3.1327 H   0  0  0  0  0  0  0  0  0  0  0  0
    2.5501   -0.7611    1.0701 H   0  0  0  0  0  0  0  0  0  0  0  0
    2.7516   -0.4951    5.3746 H   0  0  0  0  0  0  0  0  0  0  0  0
   -0.2911    2.8224    3.2393 H   0  0  0  0  0  0  0  0  0  0  0  0
   -0.5831    2.5382   -1.0674 H   0  0  0  0  0  0  0  0  0  0  0  0
   -3.6523    7.8489    1.5177 H   0  0  0  0  0  0  0  0  0  0  0  0
   -1.9247    7.8412   -0.2509 H   0  0  0  0  0  0  0  0  0  0  0  0
   -5.8794    4.1420    4.8905 H   0  0  0  0  0  0  0  0  0  0  0  0
   -5.5874    1.5069    6.1683 H   0  0  0  0  0  0  0  0  0  0  0  0
   -6.0577   -0.6239    5.2028 H   0  0  0  0  0  0  0  0  0  0  0  0
   -4.7038   -0.5593   -0.9333 H   0  0  0  0  0  0  0  0  0  0  0  0
   -6.7920    0.6476   -0.3861 H   0  0  0  0  0  0  0  0  0  0  0  0
   -0.4373   -2.4843    1.8203 H   0  0  0  0  0  0  0  0  0  0  0  0
    0.1353   -2.2252    5.7105 H   0  0  0  0  0  0  0  0  0  0  0  0
    1.8631   -3.6563    4.9675 H   0  0  0  0  0  0  0  0  0  0  0  0
    2.5549   -3.4243    2.0135 H   0  0  0  0  0  0  0  0  0  0  0  0
   -0.8844   -5.6429    3.4094 H   0  0  0  0  0  0  0  0  0  0  0  0
    0.3833   -6.4956   -1.3803 H   0  0  0  0  0  0  0  0  0  0  0  0
    3.2290   -3.6247   -2.9400 H   0  0  0  0  0  0  0  0  0  0  0  0
    1.5741   -7.5784   -7.6828 H   0  0  0  0  0  0  0  0  0  0  0  0
    1.8725   -9.1951   -5.8320 H   0  0  0  0  0  0  0  0  0  0  0  0
    0.3698   -2.2966   -8.1755 H   0  0  0  0  0  0  0  0  0  0  0  0
   -1.0655   -0.3256   -6.9539 H   0  0  0  0  0  0  0  0  0  0  0  0
   -0.7630    1.5550   -5.6464 H   0  0  0  0  0  0  0  0  0  0  0  0
    0.2187    2.7642   -3.6374 H   0  0  0  0  0  0  0  0  0  0  0  0
    2.6636   -0.5416   -4.9899 H   0  0  0  0  0  0  0  0  0  0  0  0
    4.6147    2.1177   -1.1839 H   0  0  0  0  0  0  0  0  0  0  0  0
    4.5614    4.1515    0.3788 H   0  0  0  0  0  0  0  0  0  0  0  0
    2.3419    5.6487   -0.1602 H   0  0  0  0  0  0  0  0  0  0  0  0
  1  2  2  0
  2  3  1  0
  3  4  1  0
  4  5  2  0
  4  6  1  0
  3  7  2  0
  7  8  1  0
  8  9  2  0
  9 10  1  0
 10 11  2  0
 11 12  1  0
  9 13  1  0
 13 14  2  0
 14 15  1  0
 15 16  1  0
 16 17  2  0
 17 18  1  0
 15 19  2  0
 19 20  1  0
 20 21  2  0
 21 22  1  0
 22 23  1  0
 23 24  2  0
 23 25  1  0
 25 26  2  3
 26 27  1  0
 27 28  2  0
 28 29  1  0
 29 30  1  0
 30 31  2  0
 31 32  1  0
 29 33  2  0
 33 34  1  0
 34 35  2  0
 35 36  1  0
 36 37  1  0
 37 38  2  0
 37 39  1  0
 39 40  2  3
 40 41  1  0
 41 42  2  0
 42 43  1  0
 43 44  1  0
 44 45  2  0
 44 46  1  0
 43 47  2  0
 47 48  1  0
 48 49  2  0
 49 50  1  0
 50 51  2  0
 51 52  1  0
 49 53  1  0
 53 54  2  0
 54 55  1  0
 55 56  1  0
 56 57  2  0
 57 58  1  0
 55 59  2  0
 59 60  1  0
 60 61  2  0
 61 62  1  0
 62 63  1  0
 63 64  2  0
 63 65  1  0
 65 66  2  3
 66 67  1  0
 67 68  2  0
 68 69  1  0
 69 70  1  0
 70 71  2  0
 70 72  1  0
 69 73  2  0
 73 74  1  0
 74 75  2  0
 75 76  1  0
 76 77  2  0
 77 78  1  0
  5  1  1  0
 11  7  1  0
 18 13  1  0
 24 20  1  0
 32 27  1  0
 38 34  1  0
 45 41  1  0
 51 47  1  0
 58 53  1  0
 64 60  1  0
 71 67  1  0
 77 73  1  0
 21 14  1  0
 35 28  1  0
 61 54  1  0
  1 79  1  0
  2 80  1  0
  5 81  1  0
  8 82  1  0
 10 83  1  0
 16 84  1  0
 17 85  1  0
 24 86  1  0
 25 87  1  0
 26 88  1  0
 30 89  1  0
 31 90  1  0
 38 91  1  0
 39 92  1  0
 40 93  1  0
 42 94  1  0
 45 95  1  0
 48 96  1  0
 50 97  1  0
 56 98  1  0
 57 99  1  0
 64100  1  0
 65101  1  0
 66102  1  0
 68103  1  0
 71104  1  0
 74105  1  0
 75106  1  0
 76107  1  0
M  END

