
     RDKit          3D

229255  0  0  0  0  0  0  0  0999 V2000
    0.7969   -7.8506   12.5160 C   0  0  0  0  0  0  0  0  0  0  0  0
    1.5283   -7.8342   11.3309 C   0  0  0  0  0  0  0  0  0  0  0  0
    0.7213   -7.8572   10.1799 C   0  0  0  0  0  0  0  0  0  0  0  0
    1.1663   -7.7950    8.8430 C   0  0  0  0  0  0  0  0  0  0  0  0
    2.6001   -7.7705    8.5059 C   0  0  0  0  0  0  0  0  0  0  0  0
    3.6808   -9.0167    8.8409 S   0  0  0  0  0  0  0  0  0  0  0  0
    5.0226   -8.2832    8.1432 C   0  0  0  0  0  0  0  0  0  0  0  0
    6.4029   -8.8640    8.1543 C   0  0  0  0  0  0  0  0  0  0  0  0
    7.1467   -8.4511    9.4207 C   0  0  0  0  0  0  0  0  0  0  0  0
    4.6443   -7.0310    7.6541 C   0  0  0  0  0  0  0  0  0  0  0  0
    5.7600   -5.9200    6.8691 Cl  0  0  0  0  0  0  0  0  0  0  0  0
    3.2838   -6.7476    7.8487 C   0  0  0  0  0  0  0  0  0  0  0  0
    2.5394   -5.2275    7.3697 Cl  0  0  0  0  0  0  0  0  0  0  0  0
    0.1778   -7.7899    7.8425 C   0  0  0  0  0  0  0  0  0  0  0  0
   -1.1888   -7.8426    8.1349 C   0  0  0  0  0  0  0  0  0  0  0  0
   -1.6331   -7.8873    9.4723 C   0  0  0  0  0  0  0  0  0  0  0  0
   -3.0657   -7.8460    9.8139 C   0  0  0  0  0  0  0  0  0  0  0  0
   -4.0941   -6.5684    9.4376 S   0  0  0  0  0  0  0  0  0  0  0  0
   -5.4759   -7.2479   10.1143 C   0  0  0  0  0  0  0  0  0  0  0  0
   -6.8426   -6.6422   10.0258 C   0  0  0  0  0  0  0  0  0  0  0  0
   -7.5245   -7.0561    8.7265 C   0  0  0  0  0  0  0  0  0  0  0  0
   -5.1533   -8.5063   10.6258 C   0  0  0  0  0  0  0  0  0  0  0  0
   -3.7980   -8.8349   10.4650 C   0  0  0  0  0  0  0  0  0  0  0  0
   -3.1134  -10.3747   10.9744 Cl  0  0  0  0  0  0  0  0  0  0  0  0
   -6.3270   -9.5857   11.3681 Cl  0  0  0  0  0  0  0  0  0  0  0  0
   -0.6452   -7.8988   10.4710 C   0  0  0  0  0  0  0  0  0  0  0  0
   -0.8466   -7.8900   12.1449 S   0  0  0  0  0  0  0  0  0  0  0  0
   -1.9978   -7.8456    6.9846 C   0  0  0  0  0  0  0  0  0  0  0  0
   -1.2629   -7.7678    5.8019 C   0  0  0  0  0  0  0  0  0  0  0  0
    0.3829   -7.7234    6.1742 S   0  0  0  0  0  0  0  0  0  0  0  0
   -1.8234   -7.6512    4.4460 C   0  0  0  0  0  0  0  0  0  0  0  0
   -1.1717   -7.0837    3.3506 C   0  0  0  0  0  0  0  0  0  0  0  0
   -1.9842   -7.0035    2.2073 C   0  0  0  0  0  0  0  0  0  0  0  0
   -1.6282   -6.4447    0.9607 C   0  0  0  0  0  0  0  0  0  0  0  0
   -0.3001   -5.8484    0.7284 C   0  0  0  0  0  0  0  0  0  0  0  0
    0.3548   -4.5812    1.6222 S   0  0  0  0  0  0  0  0  0  0  0  0
    1.8393   -4.5382    0.8294 C   0  0  0  0  0  0  0  0  0  0  0  0
    2.9810   -3.6406    1.2096 C   0  0  0  0  0  0  0  0  0  0  0  0
    2.5774   -2.1696    1.1536 C   0  0  0  0  0  0  0  0  0  0  0  0
    1.8431   -5.5362   -0.1482 C   0  0  0  0  0  0  0  0  0  0  0  0
    3.2175   -5.8754   -1.1919 Cl  0  0  0  0  0  0  0  0  0  0  0  0
    0.6468   -6.2691   -0.2028 C   0  0  0  0  0  0  0  0  0  0  0  0
    0.4135   -7.6502   -1.2705 Cl  0  0  0  0  0  0  0  0  0  0  0  0
   -2.6074   -6.4714   -0.0506 C   0  0  0  0  0  0  0  0  0  0  0  0
   -3.8625   -7.0616    0.1339 C   0  0  0  0  0  0  0  0  0  0  0  0
   -4.2135   -7.6218    1.3792 C   0  0  0  0  0  0  0  0  0  0  0  0
   -5.5240   -8.2545    1.6032 C   0  0  0  0  0  0  0  0  0  0  0  0
   -6.0450   -9.6675    0.8557 S   0  0  0  0  0  0  0  0  0  0  0  0
   -7.5354   -9.7367    1.6340 C   0  0  0  0  0  0  0  0  0  0  0  0
   -8.5741  -10.7920    1.3967 C   0  0  0  0  0  0  0  0  0  0  0  0
   -9.5804  -10.3430    0.3451 C   0  0  0  0  0  0  0  0  0  0  0  0
   -7.6523   -8.6332    2.4787 C   0  0  0  0  0  0  0  0  0  0  0  0
   -6.5215   -7.8039    2.4643 C   0  0  0  0  0  0  0  0  0  0  0  0
   -6.3973   -6.3160    3.3921 Cl  0  0  0  0  0  0  0  0  0  0  0  0
   -9.0818   -8.2999    3.4476 Cl  0  0  0  0  0  0  0  0  0  0  0  0
   -3.2563   -7.5527    2.4046 C   0  0  0  0  0  0  0  0  0  0  0  0
   -3.3899   -8.0882    3.9957 S   0  0  0  0  0  0  0  0  0  0  0  0
   -4.6893   -6.9834   -0.9992 C   0  0  0  0  0  0  0  0  0  0  0  0
   -4.0968   -6.2955   -2.0648 C   0  0  0  0  0  0  0  0  0  0  0  0
   -2.5414   -5.8099   -1.5994 S   0  0  0  0  0  0  0  0  0  0  0  0
   -4.6896   -6.0536   -3.3623 N   0  0  0  0  0  0  0  0  0  0  0  0
   -3.8393   -6.0637   -4.5366 C   0  0  0  0  0  0  0  0  0  0  0  0
   -2.7798   -6.9609   -4.6778 C   0  0  0  0  0  0  0  0  0  0  0  0
   -2.0622   -6.7047   -6.1742 S   0  0  0  0  0  0  0  0  0  0  0  0
   -3.0682   -5.4579   -6.6731 C   0  0  0  0  0  0  0  0  0  0  0  0
   -3.9864   -5.2083   -5.6604 C   0  0  0  0  0  0  0  0  0  0  0  0
   -5.0163   -4.2128   -5.7941 N   0  0  0  0  0  0  0  0  0  0  0  0
   -6.4038   -4.6423   -5.6319 C   0  0  0  0  0  0  0  0  0  0  0  0
   -6.6692   -4.8548   -4.1808 C   0  0  0  0  0  0  0  0  0  0  0  0
   -7.2020   -3.9778   -3.5192 O   0  0  0  0  0  0  0  0  0  0  0  0
   -6.1570   -6.1000   -3.5214 C   0  0  0  0  0  0  0  0  0  0  0  0
   -4.6984   -2.8080   -5.9187 C   0  0  0  0  0  0  0  0  0  0  0  0
   -3.4488   -2.2636   -6.2379 C   0  0  0  0  0  0  0  0  0  0  0  0
   -3.4483   -0.8553   -6.2355 C   0  0  0  0  0  0  0  0  0  0  0  0
   -2.3466   -0.0205   -6.5116 C   0  0  0  0  0  0  0  0  0  0  0  0
   -1.0355   -0.5616   -6.9191 C   0  0  0  0  0  0  0  0  0  0  0  0
    0.3990   -0.3444   -6.0687 S   0  0  0  0  0  0  0  0  0  0  0  0
    1.3879   -1.1336   -7.1785 C   0  0  0  0  0  0  0  0  0  0  0  0
    2.8850   -1.1986   -7.0901 C   0  0  0  0  0  0  0  0  0  0  0  0
    3.5130    0.0139   -7.7699 C   0  0  0  0  0  0  0  0  0  0  0  0
    0.6026   -1.5564   -8.2511 C   0  0  0  0  0  0  0  0  0  0  0  0
    1.2556   -2.3525   -9.6736 Cl  0  0  0  0  0  0  0  0  0  0  0  0
   -0.7579   -1.2444   -8.1012 C   0  0  0  0  0  0  0  0  0  0  0  0
   -1.9703   -1.5991   -9.3238 Cl  0  0  0  0  0  0  0  0  0  0  0  0
   -2.5400    1.3622   -6.3426 C   0  0  0  0  0  0  0  0  0  0  0  0
   -3.7552    1.9113   -5.9241 C   0  0  0  0  0  0  0  0  0  0  0  0
   -4.8769    1.0843   -5.7164 C   0  0  0  0  0  0  0  0  0  0  0  0
   -6.2000    1.6373   -5.3626 C   0  0  0  0  0  0  0  0  0  0  0  0
   -7.1018    1.2030   -4.0092 S   0  0  0  0  0  0  0  0  0  0  0  0
   -8.4366    2.1652   -4.3653 C   0  0  0  0  0  0  0  0  0  0  0  0
   -9.7160    2.1710   -3.5832 C   0  0  0  0  0  0  0  0  0  0  0  0
  -10.6962    1.1451   -4.1446 C   0  0  0  0  0  0  0  0  0  0  0  0
   -8.2014    2.8237   -5.5727 C   0  0  0  0  0  0  0  0  0  0  0  0
   -6.9473    2.5313   -6.1280 C   0  0  0  0  0  0  0  0  0  0  0  0
   -6.4225    3.1497   -7.6892 Cl  0  0  0  0  0  0  0  0  0  0  0  0
   -9.3765    3.8767   -6.3436 Cl  0  0  0  0  0  0  0  0  0  0  0  0
   -4.6793   -0.3010   -5.8672 C   0  0  0  0  0  0  0  0  0  0  0  0
   -5.7810   -1.5439   -5.6102 S   0  0  0  0  0  0  0  0  0  0  0  0
   -3.6779    3.2897   -5.6614 C   0  0  0  0  0  0  0  0  0  0  0  0
   -2.4177    3.8235   -5.9316 C   0  0  0  0  0  0  0  0  0  0  0  0
   -1.3984    2.5881   -6.4572 S   0  0  0  0  0  0  0  0  0  0  0  0
   -1.9034    5.0700   -5.3649 C   0  0  0  0  0  0  0  0  0  0  0  0
   -1.8594    5.2934   -3.9947 C   0  0  0  0  0  0  0  0  0  0  0  0
   -0.8716    6.2112   -3.6174 C   0  0  0  0  0  0  0  0  0  0  0  0
   -0.4679    6.4868   -2.2992 C   0  0  0  0  0  0  0  0  0  0  0  0
   -1.1064    5.8503   -1.1355 C   0  0  0  0  0  0  0  0  0  0  0  0
   -1.0179    4.2104   -0.7685 S   0  0  0  0  0  0  0  0  0  0  0  0
   -1.8459    4.3162    0.6923 C   0  0  0  0  0  0  0  0  0  0  0  0
   -2.0500    3.1712    1.6349 C   0  0  0  0  0  0  0  0  0  0  0  0
   -0.8787    3.0543    2.6035 C   0  0  0  0  0  0  0  0  0  0  0  0
   -2.1782    5.6512    0.9252 C   0  0  0  0  0  0  0  0  0  0  0  0
   -3.0088    6.2070    2.3713 Cl  0  0  0  0  0  0  0  0  0  0  0  0
   -1.7621    6.5100   -0.1011 C   0  0  0  0  0  0  0  0  0  0  0  0
   -2.0410    8.2468   -0.0861 Cl  0  0  0  0  0  0  0  0  0  0  0  0
    0.6849    7.2695   -2.1440 C   0  0  0  0  0  0  0  0  0  0  0  0
    1.3748    7.8299   -3.2236 C   0  0  0  0  0  0  0  0  0  0  0  0
    0.9123    7.6362   -4.5428 C   0  0  0  0  0  0  0  0  0  0  0  0
    1.5540    8.3020   -5.6965 C   0  0  0  0  0  0  0  0  0  0  0  0
    2.1194    7.5397   -7.0881 S   0  0  0  0  0  0  0  0  0  0  0  0
    2.5714    8.9453   -7.8955 C   0  0  0  0  0  0  0  0  0  0  0  0
    3.0663    8.9919   -9.3108 C   0  0  0  0  0  0  0  0  0  0  0  0
    1.9054    9.1596  -10.2856 C   0  0  0  0  0  0  0  0  0  0  0  0
    2.2637   10.0397   -7.0916 C   0  0  0  0  0  0  0  0  0  0  0  0
    1.6994    9.6816   -5.8584 C   0  0  0  0  0  0  0  0  0  0  0  0
    1.1350   10.8661   -4.6855 Cl  0  0  0  0  0  0  0  0  0  0  0  0
    2.5082   11.7102   -7.5902 Cl  0  0  0  0  0  0  0  0  0  0  0  0
   -0.1816    6.7646   -4.7038 C   0  0  0  0  0  0  0  0  0  0  0  0
   -0.7573    6.0515   -6.1176 S   0  0  0  0  0  0  0  0  0  0  0  0
    2.6096    8.3926   -2.8513 C   0  0  0  0  0  0  0  0  0  0  0  0
    2.8937    8.2316   -1.4955 C   0  0  0  0  0  0  0  0  0  0  0  0
    1.6040    7.4414   -0.7501 S   0  0  0  0  0  0  0  0  0  0  0  0
    4.2231    8.3717   -0.8882 C   0  0  0  0  0  0  0  0  0  0  0  0
    4.7263    7.5245    0.0959 C   0  0  0  0  0  0  0  0  0  0  0  0
    6.0849    7.7366    0.3604 C   0  0  0  0  0  0  0  0  0  0  0  0
    6.8912    6.9572    1.2126 C   0  0  0  0  0  0  0  0  0  0  0  0
    6.3852    5.7155    1.8299 C   0  0  0  0  0  0  0  0  0  0  0  0
    5.8405    4.3818    0.9577 S   0  0  0  0  0  0  0  0  0  0  0  0
    5.5287    3.4046    2.2906 C   0  0  0  0  0  0  0  0  0  0  0  0
    5.0795    1.9763    2.2068 C   0  0  0  0  0  0  0  0  0  0  0  0
    6.2351    1.0707    1.7980 C   0  0  0  0  0  0  0  0  0  0  0  0
    5.8630    4.1112    3.4460 C   0  0  0  0  0  0  0  0  0  0  0  0
    5.7263    3.4419    5.0661 Cl  0  0  0  0  0  0  0  0  0  0  0  0
    6.3316    5.4099    3.1905 C   0  0  0  0  0  0  0  0  0  0  0  0
    6.7737    6.5493    4.4540 Cl  0  0  0  0  0  0  0  0  0  0  0  0
    8.2409    7.3289    1.3204 C   0  0  0  0  0  0  0  0  0  0  0  0
    8.7875    8.4017    0.6054 C   0  0  0  0  0  0  0  0  0  0  0  0
    7.9875    9.1590   -0.2750 C   0  0  0  0  0  0  0  0  0  0  0  0
    8.5633   10.2144   -1.1307 C   0  0  0  0  0  0  0  0  0  0  0  0
    9.7746    9.9543   -2.2703 S   0  0  0  0  0  0  0  0  0  0  0  0
    9.8483   11.5401   -2.8250 C   0  0  0  0  0  0  0  0  0  0  0  0
   10.7381   12.0049   -3.9386 C   0  0  0  0  0  0  0  0  0  0  0  0
   10.0476   11.8415   -5.2887 C   0  0  0  0  0  0  0  0  0  0  0  0
    8.8951   12.2953   -2.1440 C   0  0  0  0  0  0  0  0  0  0  0  0
    8.1797   11.5551   -1.1877 C   0  0  0  0  0  0  0  0  0  0  0  0
    6.9661   12.2642   -0.1311 Cl  0  0  0  0  0  0  0  0  0  0  0  0
    8.6011   13.9984   -2.4591 Cl  0  0  0  0  0  0  0  0  0  0  0  0
    6.6305    8.7958   -0.3717 C   0  0  0  0  0  0  0  0  0  0  0  0
    5.4533    9.4008   -1.4163 S   0  0  0  0  0  0  0  0  0  0  0  0
   10.1615    8.5770    0.8482 C   0  0  0  0  0  0  0  0  0  0  0  0
   10.6929    7.6282    1.7176 C   0  0  0  0  0  0  0  0  0  0  0  0
    9.4646    6.5783    2.1994 S   0  0  0  0  0  0  0  0  0  0  0  0
    1.2173   -7.8268   13.5114 H   0  0  0  0  0  0  0  0  0  0  0  0
    2.6082   -7.7864   11.3125 H   0  0  0  0  0  0  0  0  0  0  0  0
    6.3342   -9.9725    8.1147 H   0  0  0  0  0  0  0  0  0  0  0  0
    6.9690   -8.5224    7.2619 H   0  0  0  0  0  0  0  0  0  0  0  0
    7.2226   -7.3466    9.4851 H   0  0  0  0  0  0  0  0  0  0  0  0
    6.6169   -8.8367   10.3157 H   0  0  0  0  0  0  0  0  0  0  0  0
    8.1714   -8.8777    9.4036 H   0  0  0  0  0  0  0  0  0  0  0  0
   -6.7582   -5.5341   10.0607 H   0  0  0  0  0  0  0  0  0  0  0  0
   -7.4603   -6.9630   10.8925 H   0  0  0  0  0  0  0  0  0  0  0  0
   -6.9956   -6.6005    7.8606 H   0  0  0  0  0  0  0  0  0  0  0  0
   -7.5234   -8.1617    8.6190 H   0  0  0  0  0  0  0  0  0  0  0  0
   -8.5745   -6.6952    8.7266 H   0  0  0  0  0  0  0  0  0  0  0  0
   -3.0784   -7.8873    7.0058 H   0  0  0  0  0  0  0  0  0  0  0  0
   -0.1529   -6.7266    3.3979 H   0  0  0  0  0  0  0  0  0  0  0  0
    3.3097   -3.8921    2.2401 H   0  0  0  0  0  0  0  0  0  0  0  0
    3.8428   -3.7971    0.5290 H   0  0  0  0  0  0  0  0  0  0  0  0
    3.4614   -1.5343    1.3613 H   0  0  0  0  0  0  0  0  0  0  0  0
    2.1777   -1.9126    0.1519 H   0  0  0  0  0  0  0  0  0  0  0  0
    1.8062   -1.9553    1.9238 H   0  0  0  0  0  0  0  0  0  0  0  0
   -9.0973  -11.0303    2.3499 H   0  0  0  0  0  0  0  0  0  0  0  0
   -8.0760  -11.7234    1.0479 H   0  0  0  0  0  0  0  0  0  0  0  0
  -10.0648   -9.3892    0.6425 H   0  0  0  0  0  0  0  0  0  0  0  0
  -10.3616  -11.1207    0.2309 H   0  0  0  0  0  0  0  0  0  0  0  0
   -9.0730  -10.2001   -0.6346 H   0  0  0  0  0  0  0  0  0  0  0  0
   -5.6778   -7.4211   -1.0348 H   0  0  0  0  0  0  0  0  0  0  0  0
   -2.4830   -7.7127   -3.9589 H   0  0  0  0  0  0  0  0  0  0  0  0
   -3.0224   -4.9521   -7.6293 H   0  0  0  0  0  0  0  0  0  0  0  0
   -6.5670   -5.5925   -6.1841 H   0  0  0  0  0  0  0  0  0  0  0  0
   -7.1140   -3.9004   -6.0588 H   0  0  0  0  0  0  0  0  0  0  0  0
   -6.4384   -6.9891   -4.1247 H   0  0  0  0  0  0  0  0  0  0  0  0
   -6.6739   -6.1876   -2.5433 H   0  0  0  0  0  0  0  0  0  0  0  0
   -2.5676   -2.8517   -6.4461 H   0  0  0  0  0  0  0  0  0  0  0  0
    3.2500   -2.1331   -7.5708 H   0  0  0  0  0  0  0  0  0  0  0  0
    3.1940   -1.2196   -6.0211 H   0  0  0  0  0  0  0  0  0  0  0  0
    3.1296    0.1309   -8.8034 H   0  0  0  0  0  0  0  0  0  0  0  0
    3.2831    0.9359   -7.1935 H   0  0  0  0  0  0  0  0  0  0  0  0
    4.6140   -0.1163   -7.8071 H   0  0  0  0  0  0  0  0  0  0  0  0
  -10.1747    3.1816   -3.6160 H   0  0  0  0  0  0  0  0  0  0  0  0
   -9.4964    1.9275   -2.5190 H   0  0  0  0  0  0  0  0  0  0  0  0
  -10.9954    1.4155   -5.1780 H   0  0  0  0  0  0  0  0  0  0  0  0
  -10.2420    0.1330   -4.1463 H   0  0  0  0  0  0  0  0  0  0  0  0
  -11.6024    1.1230   -3.5066 H   0  0  0  0  0  0  0  0  0  0  0  0
   -4.4809    3.8641   -5.2156 H   0  0  0  0  0  0  0  0  0  0  0  0
   -2.4282    4.6998   -3.2888 H   0  0  0  0  0  0  0  0  0  0  0  0
   -2.1376    2.2298    1.0512 H   0  0  0  0  0  0  0  0  0  0  0  0
   -2.9944    3.3043    2.2041 H   0  0  0  0  0  0  0  0  0  0  0  0
   -0.8144    3.9635    3.2406 H   0  0  0  0  0  0  0  0  0  0  0  0
   -1.0254    2.1683    3.2598 H   0  0  0  0  0  0  0  0  0  0  0  0
    0.0748    2.9299    2.0462 H   0  0  0  0  0  0  0  0  0  0  0  0
    3.7810    9.8309   -9.4352 H   0  0  0  0  0  0  0  0  0  0  0  0
    3.6064    8.0486   -9.5421 H   0  0  0  0  0  0  0  0  0  0  0  0
    1.1963    8.3115  -10.1866 H   0  0  0  0  0  0  0  0  0  0  0  0
    1.3676   10.1099  -10.0883 H   0  0  0  0  0  0  0  0  0  0  0  0
    2.2955    9.1775  -11.3244 H   0  0  0  0  0  0  0  0  0  0  0  0
    3.3277    8.7848   -3.5643 H   0  0  0  0  0  0  0  0  0  0  0  0
    4.1408    6.7409    0.5536 H   0  0  0  0  0  0  0  0  0  0  0  0
    4.6774    1.6390    3.1870 H   0  0  0  0  0  0  0  0  0  0  0  0
    4.2623    1.8887    1.4585 H   0  0  0  0  0  0  0  0  0  0  0  0
    5.9350    0.0081    1.9063 H   0  0  0  0  0  0  0  0  0  0  0  0
    6.5063    1.2573    0.7377 H   0  0  0  0  0  0  0  0  0  0  0  0
    7.1223    1.2623    2.4361 H   0  0  0  0  0  0  0  0  0  0  0  0
   11.0106   13.0733   -3.7871 H   0  0  0  0  0  0  0  0  0  0  0  0
   11.6745   11.4090   -3.9314 H   0  0  0  0  0  0  0  0  0  0  0  0
    9.7805   10.7757   -5.4579 H   0  0  0  0  0  0  0  0  0  0  0  0
   10.7324   12.1676   -6.0983 H   0  0  0  0  0  0  0  0  0  0  0  0
    9.1287   12.4621   -5.3252 H   0  0  0  0  0  0  0  0  0  0  0  0
   10.7637    9.3584    0.4042 H   0  0  0  0  0  0  0  0  0  0  0  0
   11.7266    7.5678    2.0238 H   0  0  0  0  0  0  0  0  0  0  0  0
  1  2  2  0
  2  3  1  0
  3  4  2  0
  4  5  1  0
  5  6  1  0
  6  7  1  0
  7  8  1  0
  8  9  1  0
  7 10  2  0
 10 11  1  0
 10 12  1  0
 12 13  1  0
  4 14  1  0
 14 15  2  0
 15 16  1  0
 16 17  1  0
 17 18  1  0
 18 19  1  0
 19 20  1  0
 20 21  1  0
 19 22  2  0
 22 23  1  0
 23 24  1  0
 22 25  1  0
 16 26  2  0
 26 27  1  0
 15 28  1  0
 28 29  2  0
 29 30  1  0
 29 31  1  0
 31 32  2  0
 32 33  1  0
 33 34  2  0
 34 35  1  0
 35 36  1  0
 36 37  1  0
 37 38  1  0
 38 39  1  0
 37 40  2  0
 40 41  1  0
 40 42  1  0
 42 43  1  0
 34 44  1  0
 44 45  2  0
 45 46  1  0
 46 47  1  0
 47 48  1  0
 48 49  1  0
 49 50  1  0
 50 51  1  0
 49 52  2  0
 52 53  1  0
 53 54  1  0
 52 55  1  0
 46 56  2  0
 56 57  1  0
 45 58  1  0
 58 59  2  0
 59 60  1  0
 59 61  1  0
 61 62  1  0
 62 63  2  0
 63 64  1  0
 64 65  1  0
 65 66  2  0
 66 67  1  0
 67 68  1  0
 68 69  1  0
 69 70  2  0
 69 71  1  0
 67 72  1  0
 72 73  2  0
 73 74  1  0
 74 75  2  0
 75 76  1  0
 76 77  1  0
 77 78  1  0
 78 79  1  0
 79 80  1  0
 78 81  2  0
 81 82  1  0
 81 83  1  0
 83 84  1  0
 75 85  1  0
 85 86  2  0
 86 87  1  0
 87 88  1  0
 88 89  1  0
 89 90  1  0
 90 91  1  0
 91 92  1  0
 90 93  2  0
 93 94  1  0
 94 95  1  0
 93 96  1  0
 87 97  2  0
 97 98  1  0
 86 99  1  0
 99100  2  0
100101  1  0
100102  1  0
102103  2  0
103104  1  0
104105  2  0
105106  1  0
106107  1  0
107108  1  0
108109  1  0
109110  1  0
108111  2  0
111112  1  0
111113  1  0
113114  1  0
105115  1  0
115116  2  0
116117  1  0
117118  1  0
118119  1  0
119120  1  0
120121  1  0
121122  1  0
120123  2  0
123124  1  0
124125  1  0
123126  1  0
117127  2  0
127128  1  0
116129  1  0
129130  2  0
130131  1  0
130132  1  0
132133  2  0
133134  1  0
134135  2  0
135136  1  0
136137  1  0
137138  1  0
138139  1  0
139140  1  0
138141  2  0
141142  1  0
141143  1  0
143144  1  0
135145  1  0
145146  2  0
146147  1  0
147148  1  0
148149  1  0
149150  1  0
150151  1  0
151152  1  0
150153  2  0
153154  1  0
154155  1  0
153156  1  0
147157  2  0
157158  1  0
146159  1  0
159160  2  0
160161  1  0
 27  1  1  0
 57 31  1  0
 71 61  1  0
 98 72  1  0
128102  1  0
158132  1  0
 26  3  1  0
 56 33  1  0
 66 62  1  0
 97 74  1  0
127104  1  0
157134  1  0
 12  5  2  0
 30 14  1  0
 42 35  2  0
 60 44  1  0
 83 76  2  0
101 85  1  0
113106  2  0
131115  1  0
143136  2  0
161145  1  0
 23 17  2  0
 53 47  2  0
 94 88  2  0
124118  2  0
154148  2  0
  1162  1  0
  2163  1  0
  8164  1  0
  8165  1  0
  9166  1  0
  9167  1  0
  9168  1  0
 20169  1  0
 20170  1  0
 21171  1  0
 21172  1  0
 21173  1  0
 28174  1  0
 32175  1  0
 38176  1  0
 38177  1  0
 39178  1  0
 39179  1  0
 39180  1  0
 50181  1  0
 50182  1  0
 51183  1  0
 51184  1  0
 51185  1  0
 58186  1  0
 63187  1  0
 65188  1  0
 68189  1  0
 68190  1  0
 71191  1  0
 71192  1  0
 73193  1  0
 79194  1  0
 79195  1  0
 80196  1  0
 80197  1  0
 80198  1  0
 91199  1  0
 91200  1  0
 92201  1  0
 92202  1  0
 92203  1  0
 99204  1  0
103205  1  0
109206  1  0
109207  1  0
110208  1  0
110209  1  0
110210  1  0
121211  1  0
121212  1  0
122213  1  0
122214  1  0
122215  1  0
129216  1  0
133217  1  0
139218  1  0
139219  1  0
140220  1  0
140221  1  0
140222  1  0
151223  1  0
151224  1  0
152225  1  0
152226  1  0
152227  1  0
159228  1  0
160229  1  0
M  END

