
     RDKit          3D

231256  0  0  0  0  0  0  0  0999 V2000
    4.7537  -10.0302    8.3870 C   0  0  0  0  0  0  0  0  0  0  0  0
    4.4245   -8.7125    8.6895 C   0  0  0  0  0  0  0  0  0  0  0  0
    3.3941   -8.2016    7.8821 C   0  0  0  0  0  0  0  0  0  0  0  0
    2.8488   -6.8996    7.9347 C   0  0  0  0  0  0  0  0  0  0  0  0
    3.3213   -5.8906    8.9016 C   0  0  0  0  0  0  0  0  0  0  0  0
    4.0618   -4.4387    8.4807 S   0  0  0  0  0  0  0  0  0  0  0  0
    4.3002   -3.8937   10.0565 C   0  0  0  0  0  0  0  0  0  0  0  0
    4.9929   -2.6122   10.4163 C   0  0  0  0  0  0  0  0  0  0  0  0
    6.4736   -2.8532   10.6870 C   0  0  0  0  0  0  0  0  0  0  0  0
    3.8117   -4.8551   10.9392 C   0  0  0  0  0  0  0  0  0  0  0  0
    3.8904   -4.6929   12.6885 Cl  0  0  0  0  0  0  0  0  0  0  0  0
    3.2542   -5.9709   10.2934 C   0  0  0  0  0  0  0  0  0  0  0  0
    2.4951   -7.3023   11.1550 Cl  0  0  0  0  0  0  0  0  0  0  0  0
    1.8434   -6.5975    6.9968 C   0  0  0  0  0  0  0  0  0  0  0  0
    1.3884   -7.5249    6.0525 C   0  0  0  0  0  0  0  0  0  0  0  0
    1.9385   -8.8183    5.9965 C   0  0  0  0  0  0  0  0  0  0  0  0
    1.4996   -9.8006    4.9935 C   0  0  0  0  0  0  0  0  0  0  0  0
    1.8290   -9.7061    3.3491 S   0  0  0  0  0  0  0  0  0  0  0  0
    0.9557  -11.0764    2.9111 C   0  0  0  0  0  0  0  0  0  0  0  0
    0.7906  -11.5676    1.5002 C   0  0  0  0  0  0  0  0  0  0  0  0
   -0.0969  -10.6277    0.6933 C   0  0  0  0  0  0  0  0  0  0  0  0
    0.3771  -11.6197    4.0619 C   0  0  0  0  0  0  0  0  0  0  0  0
    0.6893  -10.9080    5.2292 C   0  0  0  0  0  0  0  0  0  0  0  0
    0.0578  -11.3165    6.8166 Cl  0  0  0  0  0  0  0  0  0  0  0  0
   -0.6774  -13.0266    4.0516 Cl  0  0  0  0  0  0  0  0  0  0  0  0
    2.9354   -9.1271    6.9363 C   0  0  0  0  0  0  0  0  0  0  0  0
    3.7890  -10.5651    7.1097 S   0  0  0  0  0  0  0  0  0  0  0  0
    0.3670   -7.0265    5.2311 C   0  0  0  0  0  0  0  0  0  0  0  0
    0.0284   -5.7094    5.5266 C   0  0  0  0  0  0  0  0  0  0  0  0
    0.9867   -5.1604    6.8076 S   0  0  0  0  0  0  0  0  0  0  0  0
   -0.9389   -4.8969    4.7778 C   0  0  0  0  0  0  0  0  0  0  0  0
   -1.1031   -3.5186    4.9020 C   0  0  0  0  0  0  0  0  0  0  0  0
   -1.9795   -2.9856    3.9447 C   0  0  0  0  0  0  0  0  0  0  0  0
   -2.2780   -1.6211    3.7666 C   0  0  0  0  0  0  0  0  0  0  0  0
   -1.7448   -0.5801    4.6668 C   0  0  0  0  0  0  0  0  0  0  0  0
   -0.7249    0.6749    4.1982 S   0  0  0  0  0  0  0  0  0  0  0  0
   -0.6090    1.3883    5.7175 C   0  0  0  0  0  0  0  0  0  0  0  0
    0.1363    2.6559    6.0054 C   0  0  0  0  0  0  0  0  0  0  0  0
   -0.7719    3.8693    5.8460 C   0  0  0  0  0  0  0  0  0  0  0  0
   -1.3935    0.6617    6.6128 C   0  0  0  0  0  0  0  0  0  0  0  0
   -1.5879    1.0973    8.3046 Cl  0  0  0  0  0  0  0  0  0  0  0  0
   -2.0240   -0.4463    6.0263 C   0  0  0  0  0  0  0  0  0  0  0  0
   -3.0998   -1.5230    6.9089 Cl  0  0  0  0  0  0  0  0  0  0  0  0
   -3.0600   -1.2866    2.6501 C   0  0  0  0  0  0  0  0  0  0  0  0
   -3.5801   -2.2465    1.7715 C   0  0  0  0  0  0  0  0  0  0  0  0
   -3.3381   -3.6199    1.9889 C   0  0  0  0  0  0  0  0  0  0  0  0
   -3.9096   -4.6625    1.1147 C   0  0  0  0  0  0  0  0  0  0  0  0
   -3.0160   -5.8086    0.2607 S   0  0  0  0  0  0  0  0  0  0  0  0
   -4.3398   -6.6299   -0.3736 C   0  0  0  0  0  0  0  0  0  0  0  0
   -4.2494   -7.8223   -1.2773 C   0  0  0  0  0  0  0  0  0  0  0  0
   -4.4496   -7.4212   -2.7340 C   0  0  0  0  0  0  0  0  0  0  0  0
   -5.5057   -6.0100    0.0696 C   0  0  0  0  0  0  0  0  0  0  0  0
   -5.2660   -4.9107    0.9075 C   0  0  0  0  0  0  0  0  0  0  0  0
   -6.5522   -3.9850    1.6718 Cl  0  0  0  0  0  0  0  0  0  0  0  0
   -7.1207   -6.5581   -0.3574 Cl  0  0  0  0  0  0  0  0  0  0  0  0
   -2.5032   -3.9485    3.0745 C   0  0  0  0  0  0  0  0  0  0  0  0
   -1.8927   -5.4546    3.5017 S   0  0  0  0  0  0  0  0  0  0  0  0
   -4.2440   -1.6774    0.6691 C   0  0  0  0  0  0  0  0  0  0  0  0
   -4.2424   -0.2829    0.6964 C   0  0  0  0  0  0  0  0  0  0  0  0
   -3.4380    0.2466    2.0807 S   0  0  0  0  0  0  0  0  0  0  0  0
   -4.6733    0.6041   -0.3913 C   0  0  0  0  0  0  0  0  0  0  0  0
   -4.4100    1.9703   -0.4387 C   0  0  0  0  0  0  0  0  0  0  0  0
   -4.7453    2.5516   -1.6671 C   0  0  0  0  0  0  0  0  0  0  0  0
   -4.5000    3.8843   -2.0435 C   0  0  0  0  0  0  0  0  0  0  0  0
   -3.7304    4.8213   -1.1918 C   0  0  0  0  0  0  0  0  0  0  0  0
   -4.2561    6.3553   -0.7300 S   0  0  0  0  0  0  0  0  0  0  0  0
   -2.8671    6.7755    0.1183 C   0  0  0  0  0  0  0  0  0  0  0  0
   -2.6859    8.0562    0.8730 C   0  0  0  0  0  0  0  0  0  0  0  0
   -3.0284    7.8658    2.3453 C   0  0  0  0  0  0  0  0  0  0  0  0
   -1.9717    5.7102    0.0642 C   0  0  0  0  0  0  0  0  0  0  0  0
   -0.4152    5.7141    0.8773 Cl  0  0  0  0  0  0  0  0  0  0  0  0
   -2.4432    4.6244   -0.6819 C   0  0  0  0  0  0  0  0  0  0  0  0
   -1.4694    3.1884   -0.9791 Cl  0  0  0  0  0  0  0  0  0  0  0  0
   -4.9345    4.2655   -3.3220 C   0  0  0  0  0  0  0  0  0  0  0  0
   -5.5238    3.3735   -4.2237 C   0  0  0  0  0  0  0  0  0  0  0  0
   -5.7617    2.0324   -3.8472 C   0  0  0  0  0  0  0  0  0  0  0  0
   -6.4076    1.0653   -4.7576 C   0  0  0  0  0  0  0  0  0  0  0  0
   -5.8022    0.6039   -6.2573 S   0  0  0  0  0  0  0  0  0  0  0  0
   -7.0220   -0.4932   -6.6208 C   0  0  0  0  0  0  0  0  0  0  0  0
   -7.0424   -1.3659   -7.8395 C   0  0  0  0  0  0  0  0  0  0  0  0
   -6.3310   -2.6869   -7.5638 C   0  0  0  0  0  0  0  0  0  0  0  0
   -7.9244   -0.5210   -5.5605 C   0  0  0  0  0  0  0  0  0  0  0  0
   -7.5877    0.3618   -4.5227 C   0  0  0  0  0  0  0  0  0  0  0  0
   -8.5908    0.5866   -3.0954 Cl  0  0  0  0  0  0  0  0  0  0  0  0
   -9.3379   -1.5680   -5.5262 Cl  0  0  0  0  0  0  0  0  0  0  0  0
   -5.3454    1.6548   -2.5560 C   0  0  0  0  0  0  0  0  0  0  0  0
   -5.3719    0.1215   -1.8527 S   0  0  0  0  0  0  0  0  0  0  0  0
   -5.7992    3.9591   -5.4728 C   0  0  0  0  0  0  0  0  0  0  0  0
   -5.4108    5.2993   -5.5525 C   0  0  0  0  0  0  0  0  0  0  0  0
   -4.7792    5.7627   -4.0633 S   0  0  0  0  0  0  0  0  0  0  0  0
   -5.4906    6.1316   -6.7700 C   0  0  0  0  0  0  0  0  0  0  0  0
   -6.1789    5.5966   -8.2114 S   0  0  0  0  0  0  0  0  0  0  0  0
   -6.0450    7.0328   -9.0691 C   0  0  0  0  0  0  0  0  0  0  0  0
   -5.4344    7.9611   -8.2396 C   0  0  0  0  0  0  0  0  0  0  0  0
   -5.1596    9.2979   -8.6711 N   0  0  0  0  0  0  0  0  0  0  0  0
   -4.0006    9.9099   -8.3221 O   0  0  0  0  0  0  0  0  0  0  0  0
   -6.0742    9.9721   -9.4147 O   0  0  0  0  0  0  0  0  0  0  0  0
   -5.1153    7.4734   -6.9550 C   0  0  0  0  0  0  0  0  0  0  0  0
   -4.6417    8.3387   -5.9131 N   0  0  0  0  0  0  0  0  0  0  0  0
   -5.2731    9.5198   -5.7207 O   0  0  0  0  0  0  0  0  0  0  0  0
   -3.4360    8.0842   -5.2775 O   0  0  0  0  0  0  0  0  0  0  0  0
   -2.8654    9.0150   -4.4013 C   0  0  0  0  0  0  0  0  0  0  0  0
   -1.7922    8.7526   -3.6521 C   0  0  0  0  0  0  0  0  0  0  0  0
   -1.0599    7.4716   -3.5986 C   0  0  0  0  0  0  0  0  0  0  0  0
    0.0590    7.2601   -2.7934 C   0  0  0  0  0  0  0  0  0  0  0  0
    0.5807    5.9618   -2.8955 C   0  0  0  0  0  0  0  0  0  0  0  0
    1.7047    5.4516   -2.2091 C   0  0  0  0  0  0  0  0  0  0  0  0
    2.5713    6.3022   -1.3672 C   0  0  0  0  0  0  0  0  0  0  0  0
    2.9892    5.9719    0.2313 S   0  0  0  0  0  0  0  0  0  0  0  0
    4.0001    7.2995    0.4388 C   0  0  0  0  0  0  0  0  0  0  0  0
    4.8014    7.5730    1.6762 C   0  0  0  0  0  0  0  0  0  0  0  0
    6.1515    6.8643    1.6116 C   0  0  0  0  0  0  0  0  0  0  0  0
    4.0569    8.0047   -0.7611 C   0  0  0  0  0  0  0  0  0  0  0  0
    5.0666    9.4219   -1.0035 Cl  0  0  0  0  0  0  0  0  0  0  0  0
    3.2531    7.4497   -1.7724 C   0  0  0  0  0  0  0  0  0  0  0  0
    3.2201    8.0811   -3.4155 Cl  0  0  0  0  0  0  0  0  0  0  0  0
    1.9910    4.0879   -2.3971 C   0  0  0  0  0  0  0  0  0  0  0  0
    1.2342    3.2680   -3.2402 C   0  0  0  0  0  0  0  0  0  0  0  0
    0.1282    3.7861   -3.9424 C   0  0  0  0  0  0  0  0  0  0  0  0
   -0.7110    2.9294   -4.7975 C   0  0  0  0  0  0  0  0  0  0  0  0
   -1.5426    1.5723   -4.2554 S   0  0  0  0  0  0  0  0  0  0  0  0
   -1.9577    0.9917   -5.7775 C   0  0  0  0  0  0  0  0  0  0  0  0
   -2.5319   -0.3706   -6.0237 C   0  0  0  0  0  0  0  0  0  0  0  0
   -1.4226   -1.4132   -6.0709 C   0  0  0  0  0  0  0  0  0  0  0  0
   -1.4295    1.8536   -6.7372 C   0  0  0  0  0  0  0  0  0  0  0  0
   -0.7325    2.9418   -6.1873 C   0  0  0  0  0  0  0  0  0  0  0  0
    0.1381    4.1204   -7.1548 Cl  0  0  0  0  0  0  0  0  0  0  0  0
   -1.5396    1.5558   -8.4672 Cl  0  0  0  0  0  0  0  0  0  0  0  0
   -0.1625    5.1462   -3.7553 C   0  0  0  0  0  0  0  0  0  0  0  0
   -1.4210    6.0406   -4.4208 S   0  0  0  0  0  0  0  0  0  0  0  0
    1.7134    1.9486   -3.3029 C   0  0  0  0  0  0  0  0  0  0  0  0
    2.8321    1.7368   -2.5022 C   0  0  0  0  0  0  0  0  0  0  0  0
    3.2432    3.1811   -1.7327 S   0  0  0  0  0  0  0  0  0  0  0  0
    3.5230    0.4493   -2.3334 C   0  0  0  0  0  0  0  0  0  0  0  0
    4.5590    0.1974   -1.4360 C   0  0  0  0  0  0  0  0  0  0  0  0
    4.9906   -1.1393   -1.4632 C   0  0  0  0  0  0  0  0  0  0  0  0
    5.9782   -1.7202   -0.6418 C   0  0  0  0  0  0  0  0  0  0  0  0
    6.6820   -0.9468    0.3947 C   0  0  0  0  0  0  0  0  0  0  0  0
    7.7006    0.3597    0.1023 S   0  0  0  0  0  0  0  0  0  0  0  0
    8.0167    0.6983    1.7229 C   0  0  0  0  0  0  0  0  0  0  0  0
    8.8102    1.8733    2.2077 C   0  0  0  0  0  0  0  0  0  0  0  0
    7.9064    3.0828    2.4143 C   0  0  0  0  0  0  0  0  0  0  0  0
    7.2964   -0.1956    2.5143 C   0  0  0  0  0  0  0  0  0  0  0  0
    7.2814   -0.1361    4.2707 Cl  0  0  0  0  0  0  0  0  0  0  0  0
    6.5516   -1.1192    1.7701 C   0  0  0  0  0  0  0  0  0  0  0  0
    5.4846   -2.3103    2.4985 Cl  0  0  0  0  0  0  0  0  0  0  0  0
    6.2250   -3.0924   -0.8145 C   0  0  0  0  0  0  0  0  0  0  0  0
    5.5226   -3.8760   -1.7333 C   0  0  0  0  0  0  0  0  0  0  0  0
    4.5150   -3.3038   -2.5359 C   0  0  0  0  0  0  0  0  0  0  0  0
    3.7209   -4.1046   -3.4854 C   0  0  0  0  0  0  0  0  0  0  0  0
    3.7483   -3.9080   -5.1570 S   0  0  0  0  0  0  0  0  0  0  0  0
    2.6395   -5.1295   -5.4956 C   0  0  0  0  0  0  0  0  0  0  0  0
    2.2618   -5.5648   -6.8788 C   0  0  0  0  0  0  0  0  0  0  0  0
    3.1931   -6.6694   -7.3652 C   0  0  0  0  0  0  0  0  0  0  0  0
    2.2409   -5.7197   -4.2968 C   0  0  0  0  0  0  0  0  0  0  0  0
    2.8429   -5.1391   -3.1700 C   0  0  0  0  0  0  0  0  0  0  0  0
    2.4835   -5.6365   -1.5201 Cl  0  0  0  0  0  0  0  0  0  0  0  0
    1.1139   -7.0650   -4.2035 Cl  0  0  0  0  0  0  0  0  0  0  0  0
    4.2869   -1.9248   -2.3836 C   0  0  0  0  0  0  0  0  0  0  0  0
    3.1334   -0.9749   -3.1540 S   0  0  0  0  0  0  0  0  0  0  0  0
    5.9520   -5.2134   -1.7565 C   0  0  0  0  0  0  0  0  0  0  0  0
    6.9835   -5.4718   -0.8582 C   0  0  0  0  0  0  0  0  0  0  0  0
    7.3683   -4.0520   -0.0362 S   0  0  0  0  0  0  0  0  0  0  0  0
    5.5137  -10.6148    8.8877 H   0  0  0  0  0  0  0  0  0  0  0  0
    4.9230   -8.1502    9.4666 H   0  0  0  0  0  0  0  0  0  0  0  0
    4.5166   -2.1650   11.3163 H   0  0  0  0  0  0  0  0  0  0  0  0
    4.8880   -1.8881    9.5821 H   0  0  0  0  0  0  0  0  0  0  0  0
    6.6017   -3.5675   11.5265 H   0  0  0  0  0  0  0  0  0  0  0  0
    6.9610   -1.8949   10.9617 H   0  0  0  0  0  0  0  0  0  0  0  0
    6.9721   -3.2592    9.7809 H   0  0  0  0  0  0  0  0  0  0  0  0
    1.7898  -11.6415    1.0173 H   0  0  0  0  0  0  0  0  0  0  0  0
    0.3364  -12.5817    1.4938 H   0  0  0  0  0  0  0  0  0  0  0  0
    0.3820   -9.6273    0.6062 H   0  0  0  0  0  0  0  0  0  0  0  0
   -0.2404  -11.0383   -0.3290 H   0  0  0  0  0  0  0  0  0  0  0  0
   -1.0901  -10.5136    1.1802 H   0  0  0  0  0  0  0  0  0  0  0  0
   -0.1042   -7.5960    4.4435 H   0  0  0  0  0  0  0  0  0  0  0  0
   -0.5599   -2.9206    5.6197 H   0  0  0  0  0  0  0  0  0  0  0  0
    0.9935    2.7486    5.3038 H   0  0  0  0  0  0  0  0  0  0  0  0
    0.5470    2.6278    7.0400 H   0  0  0  0  0  0  0  0  0  0  0  0
   -1.0955    3.9712    4.7879 H   0  0  0  0  0  0  0  0  0  0  0  0
   -1.6677    3.7755    6.4943 H   0  0  0  0  0  0  0  0  0  0  0  0
   -0.2183    4.7856    6.1365 H   0  0  0  0  0  0  0  0  0  0  0  0
   -5.0209   -8.5695   -0.9872 H   0  0  0  0  0  0  0  0  0  0  0  0
   -3.2561   -8.3036   -1.1617 H   0  0  0  0  0  0  0  0  0  0  0  0
   -3.6699   -6.6942   -3.0431 H   0  0  0  0  0  0  0  0  0  0  0  0
   -4.3735   -8.3225   -3.3780 H   0  0  0  0  0  0  0  0  0  0  0  0
   -5.4529   -6.9667   -2.8768 H   0  0  0  0  0  0  0  0  0  0  0  0
   -4.6540   -2.2563   -0.1506 H   0  0  0  0  0  0  0  0  0  0  0  0
   -3.9526    2.5127    0.3752 H   0  0  0  0  0  0  0  0  0  0  0  0
   -1.6379    8.4085    0.7747 H   0  0  0  0  0  0  0  0  0  0  0  0
   -3.3470    8.8364    0.4411 H   0  0  0  0  0  0  0  0  0  0  0  0
   -4.0822    7.5330    2.4567 H   0  0  0  0  0  0  0  0  0  0  0  0
   -2.9037    8.8303    2.8827 H   0  0  0  0  0  0  0  0  0  0  0  0
   -2.3523    7.1138    2.8042 H   0  0  0  0  0  0  0  0  0  0  0  0
   -8.0914   -1.5642   -8.1471 H   0  0  0  0  0  0  0  0  0  0  0  0
   -6.5348   -0.8410   -8.6772 H   0  0  0  0  0  0  0  0  0  0  0  0
   -6.3365   -3.3095   -8.4828 H   0  0  0  0  0  0  0  0  0  0  0  0
   -6.8482   -3.2427   -6.7513 H   0  0  0  0  0  0  0  0  0  0  0  0
   -5.2769   -2.5010   -7.2660 H   0  0  0  0  0  0  0  0  0  0  0  0
   -6.2449    3.4247   -6.2991 H   0  0  0  0  0  0  0  0  0  0  0  0
   -6.3614    7.1981  -10.0882 H   0  0  0  0  0  0  0  0  0  0  0  0
   -3.3752    9.7203   -9.0695 H   0  0  0  0  0  0  0  0  0  0  0  0
   -6.6266   10.4618   -8.7490 H   0  0  0  0  0  0  0  0  0  0  0  0
   -5.9184    9.3449   -4.9859 H   0  0  0  0  0  0  0  0  0  0  0  0
   -3.3037    9.9995   -4.3121 H   0  0  0  0  0  0  0  0  0  0  0  0
   -1.4310    9.5484   -3.0134 H   0  0  0  0  0  0  0  0  0  0  0  0
    0.4712    8.0258   -2.1454 H   0  0  0  0  0  0  0  0  0  0  0  0
    4.9606    8.6678    1.7884 H   0  0  0  0  0  0  0  0  0  0  0  0
    4.2406    7.2168    2.5669 H   0  0  0  0  0  0  0  0  0  0  0  0
    6.7691    7.1640    2.4825 H   0  0  0  0  0  0  0  0  0  0  0  0
    6.0072    5.7632    1.6394 H   0  0  0  0  0  0  0  0  0  0  0  0
    6.6914    7.1386    0.6799 H   0  0  0  0  0  0  0  0  0  0  0  0
   -3.0896   -0.3798   -6.9837 H   0  0  0  0  0  0  0  0  0  0  0  0
   -3.2359   -0.6255   -5.2056 H   0  0  0  0  0  0  0  0  0  0  0  0
   -0.7335   -1.2099   -6.9204 H   0  0  0  0  0  0  0  0  0  0  0  0
   -0.8424   -1.4095   -5.1212 H   0  0  0  0  0  0  0  0  0  0  0  0
   -1.8664   -2.4218   -6.2080 H   0  0  0  0  0  0  0  0  0  0  0  0
    1.2700    1.1744   -3.9151 H   0  0  0  0  0  0  0  0  0  0  0  0
    4.9626    0.9469   -0.7707 H   0  0  0  0  0  0  0  0  0  0  0  0
    9.5968    2.1218    1.4633 H   0  0  0  0  0  0  0  0  0  0  0  0
    9.3168    1.6156    3.1630 H   0  0  0  0  0  0  0  0  0  0  0  0
    8.5050    3.9277    2.8119 H   0  0  0  0  0  0  0  0  0  0  0  0
    7.4498    3.3914    1.4479 H   0  0  0  0  0  0  0  0  0  0  0  0
    7.0996    2.8472    3.1400 H   0  0  0  0  0  0  0  0  0  0  0  0
    2.3314   -4.6965   -7.5695 H   0  0  0  0  0  0  0  0  0  0  0  0
    1.2142   -5.9294   -6.8935 H   0  0  0  0  0  0  0  0  0  0  0  0
    3.0863   -7.5721   -6.7245 H   0  0  0  0  0  0  0  0  0  0  0  0
    4.2481   -6.3234   -7.3362 H   0  0  0  0  0  0  0  0  0  0  0  0
    2.9345   -6.9414   -8.4104 H   0  0  0  0  0  0  0  0  0  0  0  0
    5.5396   -5.9752   -2.4052 H   0  0  0  0  0  0  0  0  0  0  0  0
    7.4675   -6.4307   -0.7189 H   0  0  0  0  0  0  0  0  0  0  0  0
  1  2  2  0
  2  3  1  0
  3  4  2  0
  4  5  1  0
  5  6  1  0
  6  7  1  0
  7  8  1  0
  8  9  1  0
  7 10  2  0
 10 11  1  0
 10 12  1  0
 12 13  1  0
  4 14  1  0
 14 15  2  0
 15 16  1  0
 16 17  1  0
 17 18  1  0
 18 19  1  0
 19 20  1  0
 20 21  1  0
 19 22  2  0
 22 23  1  0
 23 24  1  0
 22 25  1  0
 16 26  2  0
 26 27  1  0
 15 28  1  0
 28 29  2  0
 29 30  1  0
 29 31  1  0
 31 32  2  0
 32 33  1  0
 33 34  2  0
 34 35  1  0
 35 36  1  0
 36 37  1  0
 37 38  1  0
 38 39  1  0
 37 40  2  0
 40 41  1  0
 40 42  1  0
 42 43  1  0
 34 44  1  0
 44 45  2  0
 45 46  1  0
 46 47  1  0
 47 48  1  0
 48 49  1  0
 49 50  1  0
 50 51  1  0
 49 52  2  0
 52 53  1  0
 53 54  1  0
 52 55  1  0
 46 56  2  0
 56 57  1  0
 45 58  1  0
 58 59  2  0
 59 60  1  0
 59 61  1  0
 61 62  2  0
 62 63  1  0
 63 64  2  0
 64 65  1  0
 65 66  1  0
 66 67  1  0
 67 68  1  0
 68 69  1  0
 67 70  2  0
 70 71  1  0
 70 72  1  0
 72 73  1  0
 64 74  1  0
 74 75  2  0
 75 76  1  0
 76 77  1  0
 77 78  1  0
 78 79  1  0
 79 80  1  0
 80 81  1  0
 79 82  2  0
 82 83  1  0
 83 84  1  0
 82 85  1  0
 76 86  2  0
 86 87  1  0
 75 88  1  0
 88 89  2  0
 89 90  1  0
 89 91  1  0
 91 92  1  0
 92 93  1  0
 93 94  2  0
 94 95  1  0
 95 96  1  0
 95 97  1  0
 94 98  1  0
 98 99  1  0
 99100  1  0
 99101  1  0
101102  1  0
102103  2  3
103104  1  0
104105  2  0
105106  1  0
106107  2  0
107108  1  0
108109  1  0
109110  1  0
110111  1  0
111112  1  0
110113  2  0
113114  1  0
113115  1  0
115116  1  0
107117  1  0
117118  2  0
118119  1  0
119120  1  0
120121  1  0
121122  1  0
122123  1  0
123124  1  0
122125  2  0
125126  1  0
126127  1  0
125128  1  0
119129  2  0
129130  1  0
118131  1  0
131132  2  0
132133  1  0
132134  1  0
134135  2  0
135136  1  0
136137  2  0
137138  1  0
138139  1  0
139140  1  0
140141  1  0
141142  1  0
140143  2  0
143144  1  0
143145  1  0
145146  1  0
137147  1  0
147148  2  0
148149  1  0
149150  1  0
150151  1  0
151152  1  0
152153  1  0
153154  1  0
152155  2  0
155156  1  0
156157  1  0
155158  1  0
149159  2  0
159160  1  0
148161  1  0
161162  2  0
162163  1  0
 27  1  1  0
 57 31  1  0
 87 61  1  0
 98 91  2  0
130104  1  0
160134  1  0
 26  3  1  0
 56 33  1  0
 86 63  1  0
129106  1  0
159136  1  0
 12  5  2  0
 30 14  1  0
 42 35  2  0
 60 44  1  0
 72 65  2  0
 90 74  1  0
115108  2  0
133117  1  0
145138  2  0
163147  1  0
 23 17  2  0
 53 47  2  0
 83 77  2  0
126120  2  0
156150  2  0
  1164  1  0
  2165  1  0
  8166  1  0
  8167  1  0
  9168  1  0
  9169  1  0
  9170  1  0
 20171  1  0
 20172  1  0
 21173  1  0
 21174  1  0
 21175  1  0
 28176  1  0
 32177  1  0
 38178  1  0
 38179  1  0
 39180  1  0
 39181  1  0
 39182  1  0
 50183  1  0
 50184  1  0
 51185  1  0
 51186  1  0
 51187  1  0
 58188  1  0
 62189  1  0
 68190  1  0
 68191  1  0
 69192  1  0
 69193  1  0
 69194  1  0
 80195  1  0
 80196  1  0
 81197  1  0
 81198  1  0
 81199  1  0
 88200  1  0
 93201  1  0
 96202  1  0
 97203  1  0
100204  1  0
102205  1  0
103206  1  0
105207  1  0
111208  1  0
111209  1  0
112210  1  0
112211  1  0
112212  1  0
123213  1  0
123214  1  0
124215  1  0
124216  1  0
124217  1  0
131218  1  0
135219  1  0
141220  1  0
141221  1  0
142222  1  0
142223  1  0
142224  1  0
153225  1  0
153226  1  0
154227  1  0
154228  1  0
154229  1  0
161230  1  0
162231  1  0
M  END

