
     RDKit          3D

234259  0  0  0  0  0  0  0  0999 V2000
    3.6578   -4.2754   10.7949 C   0  0  0  0  0  0  0  0  0  0  0  0
    4.7427   -3.7117   11.4637 C   0  0  0  0  0  0  0  0  0  0  0  0
    5.5417   -2.6460   10.4131 S   0  0  0  0  0  0  0  0  0  0  0  0
    4.5020   -2.9003    9.1194 C   0  0  0  0  0  0  0  0  0  0  0  0
    3.5321   -3.8081    9.4674 C   0  0  0  0  0  0  0  0  0  0  0  0
    2.5197   -4.1680    8.5764 C   0  0  0  0  0  0  0  0  0  0  0  0
    2.5088   -3.6138    7.2515 C   0  0  0  0  0  0  0  0  0  0  0  0
    3.5446   -2.7206    6.8967 C   0  0  0  0  0  0  0  0  0  0  0  0
    4.5203   -2.3693    7.8220 C   0  0  0  0  0  0  0  0  0  0  0  0
    5.5843   -1.2829    7.1309 S   0  0  0  0  0  0  0  0  0  0  0  0
    4.8373   -1.2451    5.6150 C   0  0  0  0  0  0  0  0  0  0  0  0
    3.7246   -2.0774    5.6459 C   0  0  0  0  0  0  0  0  0  0  0  0
    1.3400   -3.8838    6.3973 C   0  0  0  0  0  0  0  0  0  0  0  0
    1.3843   -4.1645    5.0472 C   0  0  0  0  0  0  0  0  0  0  0  0
    0.1117   -4.2423    4.4555 C   0  0  0  0  0  0  0  0  0  0  0  0
   -0.1406   -4.3907    3.0865 C   0  0  0  0  0  0  0  0  0  0  0  0
    0.9259   -4.2567    2.0712 C   0  0  0  0  0  0  0  0  0  0  0  0
    1.8090   -5.3068    1.8020 C   0  0  0  0  0  0  0  0  0  0  0  0
    2.7734   -5.1685    0.7844 C   0  0  0  0  0  0  0  0  0  0  0  0
    2.8294   -3.9879    0.0438 C   0  0  0  0  0  0  0  0  0  0  0  0
    3.9864   -3.8131   -1.3228 S   0  0  0  0  0  0  0  0  0  0  0  0
    3.0234   -4.6857   -2.6142 C   0  0  0  0  0  0  0  0  0  0  0  0
    1.6388   -4.0862   -2.8265 C   0  0  0  0  0  0  0  0  0  0  0  0
    1.9707   -2.9298    0.3295 C   0  0  0  0  0  0  0  0  0  0  0  0
    2.0217   -1.7816   -0.3793 F   0  0  0  0  0  0  0  0  0  0  0  0
    1.0126   -3.0719    1.3533 C   0  0  0  0  0  0  0  0  0  0  0  0
   -1.4905   -4.3582    2.6701 C   0  0  0  0  0  0  0  0  0  0  0  0
   -2.5416   -4.1195    3.5451 C   0  0  0  0  0  0  0  0  0  0  0  0
   -2.2920   -3.9949    4.9231 C   0  0  0  0  0  0  0  0  0  0  0  0
   -3.3777   -3.8475    5.9058 C   0  0  0  0  0  0  0  0  0  0  0  0
   -3.6971   -4.9130    6.7549 C   0  0  0  0  0  0  0  0  0  0  0  0
   -4.8070   -4.8345    7.6047 C   0  0  0  0  0  0  0  0  0  0  0  0
   -5.5656   -3.6660    7.6399 C   0  0  0  0  0  0  0  0  0  0  0  0
   -7.0425   -3.5964    8.6588 S   0  0  0  0  0  0  0  0  0  0  0  0
   -6.2735   -3.0879   10.2392 C   0  0  0  0  0  0  0  0  0  0  0  0
   -6.1571   -1.5709   10.2988 C   0  0  0  0  0  0  0  0  0  0  0  0
   -5.2390   -2.5732    6.8271 C   0  0  0  0  0  0  0  0  0  0  0  0
   -4.1206   -2.6688    5.9620 C   0  0  0  0  0  0  0  0  0  0  0  0
   -5.9822   -1.4469    6.8435 F   0  0  0  0  0  0  0  0  0  0  0  0
   -0.9319   -4.0530    5.3495 C   0  0  0  0  0  0  0  0  0  0  0  0
   -0.2751   -3.7860    6.8747 S   0  0  0  0  0  0  0  0  0  0  0  0
   -3.7899   -3.9296    2.8862 C   0  0  0  0  0  0  0  0  0  0  0  0
   -3.6869   -4.0326    1.4924 C   0  0  0  0  0  0  0  0  0  0  0  0
   -2.0943   -4.3893    1.1214 S   0  0  0  0  0  0  0  0  0  0  0  0
   -4.6824   -3.5686    0.4917 C   0  0  0  0  0  0  0  0  0  0  0  0
   -4.4389   -3.5276   -0.8762 C   0  0  0  0  0  0  0  0  0  0  0  0
   -5.3543   -2.7321   -1.5942 C   0  0  0  0  0  0  0  0  0  0  0  0
   -5.2773   -2.3969   -2.9412 C   0  0  0  0  0  0  0  0  0  0  0  0
   -4.3134   -3.0087   -3.8594 C   0  0  0  0  0  0  0  0  0  0  0  0
   -2.9814   -2.5672   -3.9026 C   0  0  0  0  0  0  0  0  0  0  0  0
   -2.1412   -2.9770   -4.9472 C   0  0  0  0  0  0  0  0  0  0  0  0
   -2.6169   -3.8811   -5.9175 C   0  0  0  0  0  0  0  0  0  0  0  0
   -1.5867   -4.4014   -7.2967 S   0  0  0  0  0  0  0  0  0  0  0  0
   -0.7528   -5.7631   -6.3966 C   0  0  0  0  0  0  0  0  0  0  0  0
   -0.8039   -7.0596   -7.1903 C   0  0  0  0  0  0  0  0  0  0  0  0
   -3.9301   -4.3624   -5.8430 C   0  0  0  0  0  0  0  0  0  0  0  0
   -4.3989   -5.2188   -6.7923 F   0  0  0  0  0  0  0  0  0  0  0  0
   -4.7821   -3.9167   -4.8286 C   0  0  0  0  0  0  0  0  0  0  0  0
   -6.1499   -1.4091   -3.4316 C   0  0  0  0  0  0  0  0  0  0  0  0
   -7.1383   -0.8375   -2.6299 C   0  0  0  0  0  0  0  0  0  0  0  0
   -7.3020   -1.2680   -1.3023 C   0  0  0  0  0  0  0  0  0  0  0  0
   -8.4587   -0.9078   -0.4795 C   0  0  0  0  0  0  0  0  0  0  0  0
   -9.4831   -1.8512   -0.3062 C   0  0  0  0  0  0  0  0  0  0  0  0
  -10.4767   -1.6540    0.6508 C   0  0  0  0  0  0  0  0  0  0  0  0
  -10.4295   -0.5171    1.4709 C   0  0  0  0  0  0  0  0  0  0  0  0
  -11.3756   -0.5524    2.9825 S   0  0  0  0  0  0  0  0  0  0  0  0
  -12.4333    0.9192    2.7873 C   0  0  0  0  0  0  0  0  0  0  0  0
  -13.1537    1.0547    1.4288 C   0  0  0  0  0  0  0  0  0  0  0  0
   -9.4669    0.4770    1.2536 C   0  0  0  0  0  0  0  0  0  0  0  0
   -8.4876    0.2845    0.2757 C   0  0  0  0  0  0  0  0  0  0  0  0
   -9.4575    1.5802    2.0286 F   0  0  0  0  0  0  0  0  0  0  0  0
   -6.3423   -2.1882   -0.7941 C   0  0  0  0  0  0  0  0  0  0  0  0
   -6.0987   -2.6790    0.8013 S   0  0  0  0  0  0  0  0  0  0  0  0
   -7.8018    0.2371   -3.2740 C   0  0  0  0  0  0  0  0  0  0  0  0
   -7.2798    0.5073   -4.5467 C   0  0  0  0  0  0  0  0  0  0  0  0
   -6.0594   -0.5982   -4.9026 S   0  0  0  0  0  0  0  0  0  0  0  0
   -7.4594    1.7422   -5.3210 C   0  0  0  0  0  0  0  0  0  0  0  0
   -8.6750    2.1275   -5.9128 C   0  0  0  0  0  0  0  0  0  0  0  0
   -8.3969    3.5173   -6.8643 S   0  0  0  0  0  0  0  0  0  0  0  0
   -6.7545    3.6146   -6.5233 C   0  0  0  0  0  0  0  0  0  0  0  0
   -6.3795    2.5931   -5.6681 C   0  0  0  0  0  0  0  0  0  0  0  0
   -5.0675    2.5164   -5.1893 C   0  0  0  0  0  0  0  0  0  0  0  0
   -4.0886    3.4742   -5.5922 C   0  0  0  0  0  0  0  0  0  0  0  0
   -4.4871    4.4840   -6.4839 C   0  0  0  0  0  0  0  0  0  0  0  0
   -5.7917    4.5482   -6.9504 C   0  0  0  0  0  0  0  0  0  0  0  0
   -5.9527    5.8472   -7.9808 S   0  0  0  0  0  0  0  0  0  0  0  0
   -4.3552    6.3767   -7.8475 C   0  0  0  0  0  0  0  0  0  0  0  0
   -3.6807    5.5444   -6.9708 C   0  0  0  0  0  0  0  0  0  0  0  0
   -2.7278    3.3379   -5.0190 C   0  0  0  0  0  0  0  0  0  0  0  0
   -2.4668    2.7677   -3.7741 C   0  0  0  0  0  0  0  0  0  0  0  0
   -1.0864    2.6596   -3.4970 C   0  0  0  0  0  0  0  0  0  0  0  0
   -0.5410    2.0777   -2.3437 C   0  0  0  0  0  0  0  0  0  0  0  0
   -1.3621    1.6487   -1.1922 C   0  0  0  0  0  0  0  0  0  0  0  0
   -1.9786    2.6302   -0.4218 C   0  0  0  0  0  0  0  0  0  0  0  0
   -2.6707    2.2564    0.7407 C   0  0  0  0  0  0  0  0  0  0  0  0
   -2.7910    0.8962    1.0805 C   0  0  0  0  0  0  0  0  0  0  0  0
   -3.5474    0.4406    2.6283 S   0  0  0  0  0  0  0  0  0  0  0  0
   -5.2717    0.7518    2.1400 C   0  0  0  0  0  0  0  0  0  0  0  0
   -6.1764    0.4636    3.3387 C   0  0  0  0  0  0  0  0  0  0  0  0
   -2.2042   -0.0818    0.2722 C   0  0  0  0  0  0  0  0  0  0  0  0
   -2.2624   -1.3861    0.6168 F   0  0  0  0  0  0  0  0  0  0  0  0
   -1.5077    0.2857   -0.8833 C   0  0  0  0  0  0  0  0  0  0  0  0
    0.8680    1.9984   -2.2642 C   0  0  0  0  0  0  0  0  0  0  0  0
    1.6826    2.5454   -3.2505 C   0  0  0  0  0  0  0  0  0  0  0  0
    1.1399    3.1628   -4.3722 C   0  0  0  0  0  0  0  0  0  0  0  0
    1.9255    4.0851   -5.2055 C   0  0  0  0  0  0  0  0  0  0  0  0
    1.9989    5.3988   -4.7821 C   0  0  0  0  0  0  0  0  0  0  0  0
    2.7668    6.3326   -5.4885 C   0  0  0  0  0  0  0  0  0  0  0  0
    3.4790    5.9387   -6.6254 C   0  0  0  0  0  0  0  0  0  0  0  0
    4.4840    7.0751   -7.6110 S   0  0  0  0  0  0  0  0  0  0  0  0
    4.4065    8.6631   -6.6837 C   0  0  0  0  0  0  0  0  0  0  0  0
    5.3036    8.6483   -5.4474 C   0  0  0  0  0  0  0  0  0  0  0  0
    3.3930    4.5955   -7.0629 C   0  0  0  0  0  0  0  0  0  0  0  0
    2.6182    3.6651   -6.3386 C   0  0  0  0  0  0  0  0  0  0  0  0
    4.0602    4.1933   -8.1652 F   0  0  0  0  0  0  0  0  0  0  0  0
   -0.2802    3.1392   -4.4944 C   0  0  0  0  0  0  0  0  0  0  0  0
   -1.2470    3.7027   -5.7463 S   0  0  0  0  0  0  0  0  0  0  0  0
    3.0652    2.3863   -2.9736 C   0  0  0  0  0  0  0  0  0  0  0  0
    3.2863    1.6730   -1.7771 C   0  0  0  0  0  0  0  0  0  0  0  0
    1.8127    1.3237   -1.0634 S   0  0  0  0  0  0  0  0  0  0  0  0
    4.6037    1.3137   -1.2202 C   0  0  0  0  0  0  0  0  0  0  0  0
    5.6959    2.1583   -1.1148 C   0  0  0  0  0  0  0  0  0  0  0  0
    6.8058    1.5356   -0.4982 C   0  0  0  0  0  0  0  0  0  0  0  0
    8.0617    2.1419   -0.2821 C   0  0  0  0  0  0  0  0  0  0  0  0
    8.3525    3.4759   -0.8169 C   0  0  0  0  0  0  0  0  0  0  0  0
    8.2111    3.7024   -2.2016 C   0  0  0  0  0  0  0  0  0  0  0  0
    8.1232    4.9897   -2.6974 C   0  0  0  0  0  0  0  0  0  0  0  0
    8.2336    6.0871   -1.8329 C   0  0  0  0  0  0  0  0  0  0  0  0
    7.7974    7.7087   -2.4525 S   0  0  0  0  0  0  0  0  0  0  0  0
    9.5125    8.2870   -2.7640 C   0  0  0  0  0  0  0  0  0  0  0  0
    9.9093    8.0050   -4.2189 C   0  0  0  0  0  0  0  0  0  0  0  0
    8.4961    5.8797   -0.4645 C   0  0  0  0  0  0  0  0  0  0  0  0
    8.6532    6.9428    0.3605 F   0  0  0  0  0  0  0  0  0  0  0  0
    8.5725    4.5747    0.0338 C   0  0  0  0  0  0  0  0  0  0  0  0
    9.0198    1.3920    0.4309 C   0  0  0  0  0  0  0  0  0  0  0  0
    8.7861    0.0773    0.8225 C   0  0  0  0  0  0  0  0  0  0  0  0
    7.5578   -0.5463    0.5385 C   0  0  0  0  0  0  0  0  0  0  0  0
    7.3313   -1.9955    0.7976 C   0  0  0  0  0  0  0  0  0  0  0  0
    6.2085   -2.4466    1.5195 C   0  0  0  0  0  0  0  0  0  0  0  0
    5.9723   -3.8206    1.6495 C   0  0  0  0  0  0  0  0  0  0  0  0
    6.8703   -4.7636    1.1102 C   0  0  0  0  0  0  0  0  0  0  0  0
    6.6135   -6.4995    1.4350 S   0  0  0  0  0  0  0  0  0  0  0  0
    6.6157   -7.1356   -0.2835 C   0  0  0  0  0  0  0  0  0  0  0  0
    7.8089   -8.0789   -0.4723 C   0  0  0  0  0  0  0  0  0  0  0  0
    8.0318   -4.2985    0.4732 C   0  0  0  0  0  0  0  0  0  0  0  0
    8.2305   -2.9426    0.2714 C   0  0  0  0  0  0  0  0  0  0  0  0
    8.9076   -5.1942   -0.0777 F   0  0  0  0  0  0  0  0  0  0  0  0
    6.5577    0.2325   -0.0924 C   0  0  0  0  0  0  0  0  0  0  0  0
    4.9872   -0.1782   -0.5337 S   0  0  0  0  0  0  0  0  0  0  0  0
    9.8891   -0.5051    1.4888 C   0  0  0  0  0  0  0  0  0  0  0  0
   10.9746    0.3533    1.6014 C   0  0  0  0  0  0  0  0  0  0  0  0
   10.5796    1.8333    0.8774 S   0  0  0  0  0  0  0  0  0  0  0  0
    3.0065   -4.9969   11.2425 H   0  0  0  0  0  0  0  0  0  0  0  0
    5.0325   -3.9379   12.4855 H   0  0  0  0  0  0  0  0  0  0  0  0
    1.7525   -4.8548    8.8770 H   0  0  0  0  0  0  0  0  0  0  0  0
    5.1543   -0.6696    4.7491 H   0  0  0  0  0  0  0  0  0  0  0  0
    3.0824   -2.1951    4.7964 H   0  0  0  0  0  0  0  0  0  0  0  0
    2.3020   -4.2859    4.4999 H   0  0  0  0  0  0  0  0  0  0  0  0
    1.7683   -6.2208    2.3596 H   0  0  0  0  0  0  0  0  0  0  0  0
    3.4499   -5.9783    0.5582 H   0  0  0  0  0  0  0  0  0  0  0  0
    2.9309   -5.7560   -2.3381 H   0  0  0  0  0  0  0  0  0  0  0  0
    3.5917   -4.6133   -3.5631 H   0  0  0  0  0  0  0  0  0  0  0  0
    1.1844   -4.5526   -3.7169 H   0  0  0  0  0  0  0  0  0  0  0  0
    0.9746   -4.3222   -1.9651 H   0  0  0  0  0  0  0  0  0  0  0  0
    1.7011   -2.9825   -2.9718 H   0  0  0  0  0  0  0  0  0  0  0  0
    0.3385   -2.2618    1.5542 H   0  0  0  0  0  0  0  0  0  0  0  0
   -3.1287   -5.8270    6.7190 H   0  0  0  0  0  0  0  0  0  0  0  0
   -5.0631   -5.6747    8.2353 H   0  0  0  0  0  0  0  0  0  0  0  0
   -5.2805   -3.5622   10.3695 H   0  0  0  0  0  0  0  0  0  0  0  0
   -6.9380   -3.4252   11.0671 H   0  0  0  0  0  0  0  0  0  0  0  0
   -7.1442   -1.1150   10.0887 H   0  0  0  0  0  0  0  0  0  0  0  0
   -5.8350   -1.2598   11.3144 H   0  0  0  0  0  0  0  0  0  0  0  0
   -5.4210   -1.2072    9.5557 H   0  0  0  0  0  0  0  0  0  0  0  0
   -3.8850   -1.8418    5.3241 H   0  0  0  0  0  0  0  0  0  0  0  0
   -4.6895   -3.6426    3.3906 H   0  0  0  0  0  0  0  0  0  0  0  0
   -3.5791   -3.9863   -1.3329 H   0  0  0  0  0  0  0  0  0  0  0  0
   -2.5907   -1.9238   -3.1333 H   0  0  0  0  0  0  0  0  0  0  0  0
   -1.1046   -2.6458   -4.9570 H   0  0  0  0  0  0  0  0  0  0  0  0
   -1.2320   -5.9283   -5.4056 H   0  0  0  0  0  0  0  0  0  0  0  0
    0.2998   -5.4580   -6.2227 H   0  0  0  0  0  0  0  0  0  0  0  0
   -0.2428   -6.9324   -8.1420 H   0  0  0  0  0  0  0  0  0  0  0  0
   -1.8514   -7.3404   -7.4345 H   0  0  0  0  0  0  0  0  0  0  0  0
   -0.3353   -7.8799   -6.5951 H   0  0  0  0  0  0  0  0  0  0  0  0
   -5.8105   -4.2259   -4.8122 H   0  0  0  0  0  0  0  0  0  0  0  0
   -9.4820   -2.7565   -0.8816 H   0  0  0  0  0  0  0  0  0  0  0  0
  -11.1995   -2.4421    0.8344 H   0  0  0  0  0  0  0  0  0  0  0  0
  -13.1918    0.9309    3.5859 H   0  0  0  0  0  0  0  0  0  0  0  0
  -11.8079    1.8325    2.9502 H   0  0  0  0  0  0  0  0  0  0  0  0
  -12.5842    0.5995    0.5804 H   0  0  0  0  0  0  0  0  0  0  0  0
  -13.2861    2.1321    1.2117 H   0  0  0  0  0  0  0  0  0  0  0  0
  -14.1472    0.5317    1.4726 H   0  0  0  0  0  0  0  0  0  0  0  0
   -7.7238    1.0273    0.1338 H   0  0  0  0  0  0  0  0  0  0  0  0
   -8.5211    0.8694   -2.7841 H   0  0  0  0  0  0  0  0  0  0  0  0
   -9.6199    1.5991   -5.7864 H   0  0  0  0  0  0  0  0  0  0  0  0
   -4.7977    1.7207   -4.5084 H   0  0  0  0  0  0  0  0  0  0  0  0
   -3.9241    7.2372   -8.3393 H   0  0  0  0  0  0  0  0  0  0  0  0
   -2.6587    5.7031   -6.7002 H   0  0  0  0  0  0  0  0  0  0  0  0
   -3.2330    2.4423   -3.0944 H   0  0  0  0  0  0  0  0  0  0  0  0
   -1.8903    3.6773   -0.6755 H   0  0  0  0  0  0  0  0  0  0  0  0
   -3.1436    3.0122    1.3513 H   0  0  0  0  0  0  0  0  0  0  0  0
   -5.3999    1.8064    1.8482 H   0  0  0  0  0  0  0  0  0  0  0  0
   -5.5584    0.1121    1.2918 H   0  0  0  0  0  0  0  0  0  0  0  0
   -7.2136    0.7815    3.1133 H   0  0  0  0  0  0  0  0  0  0  0  0
   -6.1981   -0.6279    3.5580 H   0  0  0  0  0  0  0  0  0  0  0  0
   -5.8227    1.0200    4.2345 H   0  0  0  0  0  0  0  0  0  0  0  0
   -1.0433   -0.4728   -1.5076 H   0  0  0  0  0  0  0  0  0  0  0  0
    1.4712    5.7256   -3.8957 H   0  0  0  0  0  0  0  0  0  0  0  0
    2.7928    7.3460   -5.1224 H   0  0  0  0  0  0  0  0  0  0  0  0
    3.3687    8.9488   -6.4316 H   0  0  0  0  0  0  0  0  0  0  0  0
    4.7869    9.4619   -7.3595 H   0  0  0  0  0  0  0  0  0  0  0  0
    6.3582    8.4854   -5.7451 H   0  0  0  0  0  0  0  0  0  0  0  0
    5.0000    7.8461   -4.7463 H   0  0  0  0  0  0  0  0  0  0  0  0
    5.2217    9.6235   -4.9234 H   0  0  0  0  0  0  0  0  0  0  0  0
    2.5700    2.6423   -6.6771 H   0  0  0  0  0  0  0  0  0  0  0  0
    3.8448    2.6895   -3.6216 H   0  0  0  0  0  0  0  0  0  0  0  0
    5.6800    3.1770   -1.4552 H   0  0  0  0  0  0  0  0  0  0  0  0
    8.0492    2.8501   -2.8515 H   0  0  0  0  0  0  0  0  0  0  0  0
    7.9258    5.1382   -3.7520 H   0  0  0  0  0  0  0  0  0  0  0  0
    9.5452    9.3831   -2.5700 H   0  0  0  0  0  0  0  0  0  0  0  0
   10.2538    7.7888   -2.0840 H   0  0  0  0  0  0  0  0  0  0  0  0
    8.9954    7.9199   -4.8556 H   0  0  0  0  0  0  0  0  0  0  0  0
   10.5442    8.8455   -4.5928 H   0  0  0  0  0  0  0  0  0  0  0  0
   10.4993    7.0652   -4.2631 H   0  0  0  0  0  0  0  0  0  0  0  0
    8.7217    4.4159    1.0944 H   0  0  0  0  0  0  0  0  0  0  0  0
    5.4950   -1.7411    1.9269 H   0  0  0  0  0  0  0  0  0  0  0  0
    5.1121   -4.1576    2.2200 H   0  0  0  0  0  0  0  0  0  0  0  0
    6.6721   -6.3079   -1.0297 H   0  0  0  0  0  0  0  0  0  0  0  0
    5.6865   -7.7121   -0.4597 H   0  0  0  0  0  0  0  0  0  0  0  0
    8.7264   -7.6725    0.0261 H   0  0  0  0  0  0  0  0  0  0  0  0
    8.0306   -8.2189   -1.5463 H   0  0  0  0  0  0  0  0  0  0  0  0
    7.5694   -9.0693   -0.0281 H   0  0  0  0  0  0  0  0  0  0  0  0
    9.1052   -2.6214   -0.2623 H   0  0  0  0  0  0  0  0  0  0  0  0
    9.8917   -1.5047    1.8912 H   0  0  0  0  0  0  0  0  0  0  0  0
   11.9146    0.0976    2.0952 H   0  0  0  0  0  0  0  0  0  0  0  0
  1  2  2  0
  2  3  1  0
  3  4  1  0
  4  5  2  0
  5  6  1  0
  6  7  2  0
  7  8  1  0
  8  9  2  0
  9 10  1  0
 10 11  1  0
 11 12  2  0
  7 13  1  0
 13 14  2  0
 14 15  1  0
 15 16  2  0
 16 17  1  0
 17 18  2  0
 18 19  1  0
 19 20  2  0
 20 21  1  0
 21 22  1  0
 22 23  1  0
 20 24  1  0
 24 25  1  0
 24 26  2  0
 16 27  1  0
 27 28  2  0
 28 29  1  0
 29 30  1  0
 30 31  2  0
 31 32  1  0
 32 33  2  0
 33 34  1  0
 34 35  1  0
 35 36  1  0
 33 37  1  0
 37 38  2  0
 37 39  1  0
 29 40  2  0
 40 41  1  0
 28 42  1  0
 42 43  2  0
 43 44  1  0
 43 45  1  0
 45 46  2  0
 46 47  1  0
 47 48  2  0
 48 49  1  0
 49 50  2  0
 50 51  1  0
 51 52  2  0
 52 53  1  0
 53 54  1  0
 54 55  1  0
 52 56  1  0
 56 57  1  0
 56 58  2  0
 48 59  1  0
 59 60  2  0
 60 61  1  0
 61 62  1  0
 62 63  2  0
 63 64  1  0
 64 65  2  0
 65 66  1  0
 66 67  1  0
 67 68  1  0
 65 69  1  0
 69 70  2  0
 69 71  1  0
 61 72  2  0
 72 73  1  0
 60 74  1  0
 74 75  2  0
 75 76  1  0
 75 77  1  0
 77 78  2  0
 78 79  1  0
 79 80  1  0
 80 81  2  0
 81 82  1  0
 82 83  2  0
 83 84  1  0
 84 85  2  0
 85 86  1  0
 86 87  1  0
 87 88  2  0
 83 89  1  0
 89 90  2  0
 90 91  1  0
 91 92  2  0
 92 93  1  0
 93 94  2  0
 94 95  1  0
 95 96  2  0
 96 97  1  0
 97 98  1  0
 98 99  1  0
 96100  1  0
100101  1  0
100102  2  0
 92103  1  0
103104  2  0
104105  1  0
105106  1  0
106107  2  0
107108  1  0
108109  2  0
109110  1  0
110111  1  0
111112  1  0
109113  1  0
113114  2  0
113115  1  0
105116  2  0
116117  1  0
104118  1  0
118119  2  0
119120  1  0
119121  1  0
121122  2  0
122123  1  0
123124  2  0
124125  1  0
125126  2  0
126127  1  0
127128  2  0
128129  1  0
129130  1  0
130131  1  0
128132  1  0
132133  1  0
132134  2  0
124135  1  0
135136  2  0
136137  1  0
137138  1  0
138139  2  0
139140  1  0
140141  2  0
141142  1  0
142143  1  0
143144  1  0
141145  1  0
145146  2  0
145147  1  0
137148  2  0
148149  1  0
136150  1  0
150151  2  0
151152  1  0
  5  1  1  0
 12  8  1  0
 41 13  1  0
 73 45  1  0
 81 77  1  0
 88 84  1  0
117 89  1  0
149121  1  0
  9  4  1  0
 40 15  1  0
 72 47  1  0
 85 80  1  0
116 91  1  0
148123  1  0
 26 17  1  0
 44 27  1  0
 58 49  1  0
 76 59  1  0
102 93  1  0
120103  1  0
134125  1  0
152135  1  0
 38 30  1  0
 70 62  1  0
114106  1  0
146138  1  0
  1153  1  0
  2154  1  0
  6155  1  0
 11156  1  0
 12157  1  0
 14158  1  0
 18159  1  0
 19160  1  0
 22161  1  0
 22162  1  0
 23163  1  0
 23164  1  0
 23165  1  0
 26166  1  0
 31167  1  0
 32168  1  0
 35169  1  0
 35170  1  0
 36171  1  0
 36172  1  0
 36173  1  0
 38174  1  0
 42175  1  0
 46176  1  0
 50177  1  0
 51178  1  0
 54179  1  0
 54180  1  0
 55181  1  0
 55182  1  0
 55183  1  0
 58184  1  0
 63185  1  0
 64186  1  0
 67187  1  0
 67188  1  0
 68189  1  0
 68190  1  0
 68191  1  0
 70192  1  0
 74193  1  0
 78194  1  0
 82195  1  0
 87196  1  0
 88197  1  0
 90198  1  0
 94199  1  0
 95200  1  0
 98201  1  0
 98202  1  0
 99203  1  0
 99204  1  0
 99205  1  0
102206  1  0
107207  1  0
108208  1  0
111209  1  0
111210  1  0
112211  1  0
112212  1  0
112213  1  0
114214  1  0
118215  1  0
122216  1  0
126217  1  0
127218  1  0
130219  1  0
130220  1  0
131221  1  0
131222  1  0
131223  1  0
134224  1  0
139225  1  0
140226  1  0
143227  1  0
143228  1  0
144229  1  0
144230  1  0
144231  1  0
146232  1  0
150233  1  0
151234  1  0
M  END

