
     RDKit          3D

218238  0  0  0  0  0  0  0  0999 V2000
    1.3872   -4.8080    7.7111 C   0  0  0  0  0  0  0  0  0  0  0  0
    2.5656   -4.5129    7.0333 C   0  0  0  0  0  0  0  0  0  0  0  0
    2.6655   -3.1527    6.6599 C   0  0  0  0  0  0  0  0  0  0  0  0
    3.7267   -2.5502    5.9611 C   0  0  0  0  0  0  0  0  0  0  0  0
    4.9193   -3.3222    5.5326 C   0  0  0  0  0  0  0  0  0  0  0  0
    5.7044   -4.0022    6.4778 C   0  0  0  0  0  0  0  0  0  0  0  0
    6.8078   -4.7538    6.0568 C   0  0  0  0  0  0  0  0  0  0  0  0
    7.1373   -4.8238    4.6993 C   0  0  0  0  0  0  0  0  0  0  0  0
    8.5679   -5.7763    4.1727 S   0  0  0  0  0  0  0  0  0  0  0  0
    7.6788   -7.3689    4.0042 C   0  0  0  0  0  0  0  0  0  0  0  0
    6.7869   -7.3940    2.7712 C   0  0  0  0  0  0  0  0  0  0  0  0
    6.3747   -4.1116    3.7594 C   0  0  0  0  0  0  0  0  0  0  0  0
    6.7069   -4.1345    2.4474 F   0  0  0  0  0  0  0  0  0  0  0  0
    5.2614   -3.3810    4.1734 C   0  0  0  0  0  0  0  0  0  0  0  0
    3.5976   -1.1743    5.6671 C   0  0  0  0  0  0  0  0  0  0  0  0
    2.4675   -0.4348    6.0239 C   0  0  0  0  0  0  0  0  0  0  0  0
    1.4112   -1.0392    6.7407 C   0  0  0  0  0  0  0  0  0  0  0  0
    0.2115   -0.3031    7.1781 C   0  0  0  0  0  0  0  0  0  0  0  0
   -1.0430   -0.6591    6.6589 C   0  0  0  0  0  0  0  0  0  0  0  0
   -2.2051   -0.0791    7.1657 C   0  0  0  0  0  0  0  0  0  0  0  0
   -2.1349    0.8492    8.2131 C   0  0  0  0  0  0  0  0  0  0  0  0
   -3.6558    1.4368    8.9774 S   0  0  0  0  0  0  0  0  0  0  0  0
   -3.7585    3.0016    8.0335 C   0  0  0  0  0  0  0  0  0  0  0  0
   -4.1950    2.7529    6.5938 C   0  0  0  0  0  0  0  0  0  0  0  0
   -0.8822    1.1984    8.7453 C   0  0  0  0  0  0  0  0  0  0  0  0
    0.2900    0.6361    8.2147 C   0  0  0  0  0  0  0  0  0  0  0  0
   -0.7969    2.0492    9.7996 F   0  0  0  0  0  0  0  0  0  0  0  0
    1.5419   -2.4111    7.0306 C   0  0  0  0  0  0  0  0  0  0  0  0
    0.4601   -3.4082    7.8499 S   0  0  0  0  0  0  0  0  0  0  0  0
    2.5249    0.9017    5.5657 C   0  0  0  0  0  0  0  0  0  0  0  0
    3.7041    1.1760    4.8624 C   0  0  0  0  0  0  0  0  0  0  0  0
    4.6743   -0.1952    4.8224 S   0  0  0  0  0  0  0  0  0  0  0  0
    4.0534    2.4462    4.1898 C   0  0  0  0  0  0  0  0  0  0  0  0
    3.2508    2.9887    3.3199 C   0  0  0  0  0  0  0  0  0  0  0  0
    2.4133    3.5449    2.4679 C   0  0  0  0  0  0  0  0  0  0  0  0
    1.7050    4.8160    2.8338 C   0  0  0  0  0  0  0  0  0  0  0  0
    0.2752    4.3493    2.9248 C   0  0  0  0  0  0  0  0  0  0  0  0
    0.1492    3.1174    2.4322 C   0  0  0  0  0  0  0  0  0  0  0  0
    1.4081    2.6878    1.7595 C   0  0  0  0  0  0  0  0  0  0  0  0
   -0.5303    2.3011    3.4299 C   0  0  0  0  0  0  0  0  0  0  0  0
   -0.9180    3.0762    4.4553 C   0  0  0  0  0  0  0  0  0  0  0  0
   -0.5155    4.4907    4.1852 C   0  0  0  0  0  0  0  0  0  0  0  0
   -0.2538    0.8611    3.5924 C   0  0  0  0  0  0  0  0  0  0  0  0
   -1.2086   -0.0765    3.4635 C   0  0  0  0  0  0  0  0  0  0  0  0
   -2.6350    0.2590    3.3262 C   0  0  0  0  0  0  0  0  0  0  0  0
   -3.3761   -0.4407    2.5212 C   0  0  0  0  0  0  0  0  0  0  0  0
   -4.0834   -1.1571    1.6968 C   0  0  0  0  0  0  0  0  0  0  0  0
   -3.4719   -2.1601    0.7716 C   0  0  0  0  0  0  0  0  0  0  0  0
   -4.6523   -2.5474   -0.0323 C   0  0  0  0  0  0  0  0  0  0  0  0
   -5.7396   -1.8813    0.2803 C   0  0  0  0  0  0  0  0  0  0  0  0
   -5.5316   -0.9066    1.3832 C   0  0  0  0  0  0  0  0  0  0  0  0
   -6.9030   -2.6978   -0.0460 C   0  0  0  0  0  0  0  0  0  0  0  0
   -6.4795   -3.8471   -0.5547 C   0  0  0  0  0  0  0  0  0  0  0  0
   -4.9821   -3.8851   -0.6067 C   0  0  0  0  0  0  0  0  0  0  0  0
   -8.3248   -2.3074    0.0391 C   0  0  0  0  0  0  0  0  0  0  0  0
   -8.7044   -1.0421   -0.1385 C   0  0  0  0  0  0  0  0  0  0  0  0
  -10.1149   -0.6998   -0.3794 C   0  0  0  0  0  0  0  0  0  0  0  0
  -10.3769    0.1842   -1.2954 C   0  0  0  0  0  0  0  0  0  0  0  0
  -10.5470    1.0494   -2.2649 C   0  0  0  0  0  0  0  0  0  0  0  0
  -11.2251    2.3643   -2.0162 C   0  0  0  0  0  0  0  0  0  0  0  0
  -10.3085    3.3166   -2.6960 C   0  0  0  0  0  0  0  0  0  0  0  0
   -9.3291    2.7044   -3.3190 C   0  0  0  0  0  0  0  0  0  0  0  0
   -9.4391    1.2255   -3.2545 C   0  0  0  0  0  0  0  0  0  0  0  0
   -8.1296    3.5375   -3.2643 C   0  0  0  0  0  0  0  0  0  0  0  0
   -8.4383    4.6612   -2.6251 C   0  0  0  0  0  0  0  0  0  0  0  0
   -9.8714    4.6597   -2.2046 C   0  0  0  0  0  0  0  0  0  0  0  0
   -6.7490    3.1708   -3.6393 C   0  0  0  0  0  0  0  0  0  0  0  0
   -6.4457    2.1295   -4.4248 C   0  0  0  0  0  0  0  0  0  0  0  0
   -5.0533    1.7321   -4.7024 C   0  0  0  0  0  0  0  0  0  0  0  0
   -3.9118    2.4993   -4.4718 C   0  0  0  0  0  0  0  0  0  0  0  0
   -2.7162    1.8170   -4.7789 C   0  0  0  0  0  0  0  0  0  0  0  0
   -1.4068    2.3069   -4.6005 C   0  0  0  0  0  0  0  0  0  0  0  0
   -1.1679    3.6395   -4.0243 C   0  0  0  0  0  0  0  0  0  0  0  0
   -0.6991    3.7568   -2.7084 C   0  0  0  0  0  0  0  0  0  0  0  0
   -0.5420    5.0210   -2.1359 C   0  0  0  0  0  0  0  0  0  0  0  0
   -0.8691    6.1702   -2.8698 C   0  0  0  0  0  0  0  0  0  0  0  0
   -0.6641    7.7955   -2.1110 S   0  0  0  0  0  0  0  0  0  0  0  0
   -2.4106    7.9667   -1.5656 C   0  0  0  0  0  0  0  0  0  0  0  0
   -2.6979    7.1117   -0.3350 C   0  0  0  0  0  0  0  0  0  0  0  0
   -1.3027    6.0564   -4.1999 C   0  0  0  0  0  0  0  0  0  0  0  0
   -1.6064    7.1627   -4.9251 F   0  0  0  0  0  0  0  0  0  0  0  0
   -1.4615    4.7889   -4.7743 C   0  0  0  0  0  0  0  0  0  0  0  0
   -0.3487    1.4280   -4.8943 C   0  0  0  0  0  0  0  0  0  0  0  0
   -0.5691    0.1218   -5.3397 C   0  0  0  0  0  0  0  0  0  0  0  0
   -1.8810   -0.3614   -5.5376 C   0  0  0  0  0  0  0  0  0  0  0  0
   -2.1351   -1.7406   -5.9858 C   0  0  0  0  0  0  0  0  0  0  0  0
   -1.8460   -2.1082   -7.3124 C   0  0  0  0  0  0  0  0  0  0  0  0
   -2.1344   -3.3986   -7.7555 C   0  0  0  0  0  0  0  0  0  0  0  0
   -2.7225   -4.3307   -6.8873 C   0  0  0  0  0  0  0  0  0  0  0  0
   -3.0799   -5.9961   -7.4679 S   0  0  0  0  0  0  0  0  0  0  0  0
   -4.7219   -5.5990   -8.1759 C   0  0  0  0  0  0  0  0  0  0  0  0
   -5.7837   -5.4671   -7.0905 C   0  0  0  0  0  0  0  0  0  0  0  0
   -2.9849   -3.9736   -5.5543 C   0  0  0  0  0  0  0  0  0  0  0  0
   -2.7002   -2.6740   -5.1093 C   0  0  0  0  0  0  0  0  0  0  0  0
   -3.5121   -4.8737   -4.6846 F   0  0  0  0  0  0  0  0  0  0  0  0
   -2.9420    0.5170   -5.2426 C   0  0  0  0  0  0  0  0  0  0  0  0
   -4.5954    0.2151   -5.2933 S   0  0  0  0  0  0  0  0  0  0  0  0
    0.6172   -0.6292   -5.4280 C   0  0  0  0  0  0  0  0  0  0  0  0
    1.7577    0.0941   -5.0692 C   0  0  0  0  0  0  0  0  0  0  0  0
    1.2968    1.6617   -4.6334 S   0  0  0  0  0  0  0  0  0  0  0  0
    3.0115   -0.5392   -4.6193 C   0  0  0  0  0  0  0  0  0  0  0  0
    3.0201   -1.6751   -3.8290 C   0  0  0  0  0  0  0  0  0  0  0  0
    4.2696   -1.9404   -3.2432 C   0  0  0  0  0  0  0  0  0  0  0  0
    4.5253   -2.9552   -2.3047 C   0  0  0  0  0  0  0  0  0  0  0  0
    3.4223   -3.7636   -1.7410 C   0  0  0  0  0  0  0  0  0  0  0  0
    2.3301   -3.1145   -1.1367 C   0  0  0  0  0  0  0  0  0  0  0  0
    1.1771   -3.8257   -0.8193 C   0  0  0  0  0  0  0  0  0  0  0  0
    1.1240   -5.2098   -1.0397 C   0  0  0  0  0  0  0  0  0  0  0  0
   -0.4134   -6.1002   -0.7602 S   0  0  0  0  0  0  0  0  0  0  0  0
   -0.3996   -5.8974    1.0508 C   0  0  0  0  0  0  0  0  0  0  0  0
   -1.3004   -6.9455    1.6860 C   0  0  0  0  0  0  0  0  0  0  0  0
    2.2466   -5.8763   -1.5591 C   0  0  0  0  0  0  0  0  0  0  0  0
    2.2065   -7.2149   -1.7849 F   0  0  0  0  0  0  0  0  0  0  0  0
    3.3854   -5.1546   -1.9301 C   0  0  0  0  0  0  0  0  0  0  0  0
    5.8521   -3.0748   -1.8501 C   0  0  0  0  0  0  0  0  0  0  0  0
    6.8638   -2.2108   -2.2718 C   0  0  0  0  0  0  0  0  0  0  0  0
    6.5985   -1.1585   -3.1843 C   0  0  0  0  0  0  0  0  0  0  0  0
    7.6666   -0.2406   -3.6430 C   0  0  0  0  0  0  0  0  0  0  0  0
    7.5532    1.1434   -3.4316 C   0  0  0  0  0  0  0  0  0  0  0  0
    8.6109    1.9940   -3.7829 C   0  0  0  0  0  0  0  0  0  0  0  0
    9.7857    1.4712   -4.3387 C   0  0  0  0  0  0  0  0  0  0  0  0
   11.1832    2.5641   -4.6416 S   0  0  0  0  0  0  0  0  0  0  0  0
   10.7412    2.9758   -6.3683 C   0  0  0  0  0  0  0  0  0  0  0  0
   11.1429    1.8608   -7.3230 C   0  0  0  0  0  0  0  0  0  0  0  0
    9.9004    0.0870   -4.5505 C   0  0  0  0  0  0  0  0  0  0  0  0
    8.8363   -0.7592   -4.2242 C   0  0  0  0  0  0  0  0  0  0  0  0
   11.0446   -0.4433   -5.0481 F   0  0  0  0  0  0  0  0  0  0  0  0
    5.2649   -1.0415   -3.6453 C   0  0  0  0  0  0  0  0  0  0  0  0
    4.5703    0.1303   -4.6432 S   0  0  0  0  0  0  0  0  0  0  0  0
    8.1007   -2.4841   -1.6424 C   0  0  0  0  0  0  0  0  0  0  0  0
    8.0433   -3.5578   -0.7561 C   0  0  0  0  0  0  0  0  0  0  0  0
    6.4684   -4.1569   -0.7275 S   0  0  0  0  0  0  0  0  0  0  0  0
    1.1249   -5.7829    8.0986 H   0  0  0  0  0  0  0  0  0  0  0  0
    3.3077   -5.2635    6.8193 H   0  0  0  0  0  0  0  0  0  0  0  0
    5.4495   -3.9579    7.5299 H   0  0  0  0  0  0  0  0  0  0  0  0
    7.4037   -5.2833    6.7949 H   0  0  0  0  0  0  0  0  0  0  0  0
    8.4419   -8.1774    3.9027 H   0  0  0  0  0  0  0  0  0  0  0  0
    7.0773   -7.5797    4.9111 H   0  0  0  0  0  0  0  0  0  0  0  0
    7.3533   -7.0616    1.8781 H   0  0  0  0  0  0  0  0  0  0  0  0
    6.4207   -8.4272    2.5952 H   0  0  0  0  0  0  0  0  0  0  0  0
    5.9015   -6.7354    2.9149 H   0  0  0  0  0  0  0  0  0  0  0  0
    4.6519   -2.8654    3.4338 H   0  0  0  0  0  0  0  0  0  0  0  0
   -1.1207   -1.4167    5.8950 H   0  0  0  0  0  0  0  0  0  0  0  0
   -3.1743   -0.3814    6.7729 H   0  0  0  0  0  0  0  0  0  0  0  0
   -4.5234    3.6492    8.5267 H   0  0  0  0  0  0  0  0  0  0  0  0
   -2.7881    3.5510    8.0594 H   0  0  0  0  0  0  0  0  0  0  0  0
   -3.3853    2.2422    6.0362 H   0  0  0  0  0  0  0  0  0  0  0  0
   -5.1162    2.1324    6.5737 H   0  0  0  0  0  0  0  0  0  0  0  0
   -4.4194    3.7229    6.1011 H   0  0  0  0  0  0  0  0  0  0  0  0
    1.2549    0.8828    8.6463 H   0  0  0  0  0  0  0  0  0  0  0  0
    1.7439    1.6308    5.7237 H   0  0  0  0  0  0  0  0  0  0  0  0
    5.0642    2.8465    4.3016 H   0  0  0  0  0  0  0  0  0  0  0  0
    1.8423    5.5693    2.0219 H   0  0  0  0  0  0  0  0  0  0  0  0
    2.0925    5.2375    3.8015 H   0  0  0  0  0  0  0  0  0  0  0  0
    1.3929    2.9701    0.6838 H   0  0  0  0  0  0  0  0  0  0  0  0
    1.6220    1.6026    1.8456 H   0  0  0  0  0  0  0  0  0  0  0  0
   -0.9140    2.6738    5.4627 H   0  0  0  0  0  0  0  0  0  0  0  0
   -1.4273    5.1018    3.9904 H   0  0  0  0  0  0  0  0  0  0  0  0
    0.0919    4.8929    5.0230 H   0  0  0  0  0  0  0  0  0  0  0  0
    0.7739    0.5284    3.6150 H   0  0  0  0  0  0  0  0  0  0  0  0
   -0.8995   -1.1086    3.4052 H   0  0  0  0  0  0  0  0  0  0  0  0
   -3.0269    1.1914    3.7116 H   0  0  0  0  0  0  0  0  0  0  0  0
   -3.0574   -3.0122    1.3467 H   0  0  0  0  0  0  0  0  0  0  0  0
   -2.7126   -1.6719    0.1272 H   0  0  0  0  0  0  0  0  0  0  0  0
   -5.6907    0.1255    1.0147 H   0  0  0  0  0  0  0  0  0  0  0  0
   -6.1609   -1.1494    2.2616 H   0  0  0  0  0  0  0  0  0  0  0  0
   -7.1277   -4.6253   -0.9371 H   0  0  0  0  0  0  0  0  0  0  0  0
   -4.5724   -4.7078    0.0219 H   0  0  0  0  0  0  0  0  0  0  0  0
   -4.6397   -3.9593   -1.6538 H   0  0  0  0  0  0  0  0  0  0  0  0
   -9.0712   -3.0901    0.0675 H   0  0  0  0  0  0  0  0  0  0  0  0
   -7.9553   -0.2568   -0.2459 H   0  0  0  0  0  0  0  0  0  0  0  0
  -10.9036   -1.3740   -0.0511 H   0  0  0  0  0  0  0  0  0  0  0  0
  -12.2152    2.3764   -2.5255 H   0  0  0  0  0  0  0  0  0  0  0  0
  -11.3338    2.6055   -0.9430 H   0  0  0  0  0  0  0  0  0  0  0  0
   -8.4883    0.7510   -2.9201 H   0  0  0  0  0  0  0  0  0  0  0  0
   -9.7683    0.8210   -4.2404 H   0  0  0  0  0  0  0  0  0  0  0  0
   -7.7214    5.4330   -2.3802 H   0  0  0  0  0  0  0  0  0  0  0  0
  -10.4369    5.4633   -2.7251 H   0  0  0  0  0  0  0  0  0  0  0  0
   -9.9468    4.7331   -1.0976 H   0  0  0  0  0  0  0  0  0  0  0  0
   -5.9598    3.7634   -3.2063 H   0  0  0  0  0  0  0  0  0  0  0  0
   -7.2313    1.5149   -4.8422 H   0  0  0  0  0  0  0  0  0  0  0  0
   -3.9291    3.5087   -4.0954 H   0  0  0  0  0  0  0  0  0  0  0  0
   -0.4756    2.8692   -2.1323 H   0  0  0  0  0  0  0  0  0  0  0  0
   -0.1827    5.1059   -1.1192 H   0  0  0  0  0  0  0  0  0  0  0  0
   -2.5799    9.0329   -1.3040 H   0  0  0  0  0  0  0  0  0  0  0  0
   -3.1098    7.6987   -2.3850 H   0  0  0  0  0  0  0  0  0  0  0  0
   -2.6260    6.0301   -0.5850 H   0  0  0  0  0  0  0  0  0  0  0  0
   -1.9766    7.3526    0.4686 H   0  0  0  0  0  0  0  0  0  0  0  0
   -3.7256    7.3291    0.0348 H   0  0  0  0  0  0  0  0  0  0  0  0
   -1.8389    4.6984   -5.7842 H   0  0  0  0  0  0  0  0  0  0  0  0
   -1.4105   -1.3898   -7.9909 H   0  0  0  0  0  0  0  0  0  0  0  0
   -1.9153   -3.6763   -8.7762 H   0  0  0  0  0  0  0  0  0  0  0  0
   -5.0020   -6.4281   -8.8617 H   0  0  0  0  0  0  0  0  0  0  0  0
   -4.6676   -4.6663   -8.7694 H   0  0  0  0  0  0  0  0  0  0  0  0
   -5.6094   -4.5497   -6.4916 H   0  0  0  0  0  0  0  0  0  0  0  0
   -5.7651   -6.3548   -6.4279 H   0  0  0  0  0  0  0  0  0  0  0  0
   -6.7855   -5.3907   -7.5664 H   0  0  0  0  0  0  0  0  0  0  0  0
   -2.9167   -2.3985   -4.0835 H   0  0  0  0  0  0  0  0  0  0  0  0
    0.6369   -1.6818   -5.6570 H   0  0  0  0  0  0  0  0  0  0  0  0
    2.1276   -2.2515   -3.6406 H   0  0  0  0  0  0  0  0  0  0  0  0
    2.3505   -2.0420   -0.9751 H   0  0  0  0  0  0  0  0  0  0  0  0
    0.3148   -3.3050   -0.4189 H   0  0  0  0  0  0  0  0  0  0  0  0
   -0.7846   -4.8830    1.2988 H   0  0  0  0  0  0  0  0  0  0  0  0
    0.6255   -6.0024    1.4665 H   0  0  0  0  0  0  0  0  0  0  0  0
   -2.3040   -6.9303    1.2163 H   0  0  0  0  0  0  0  0  0  0  0  0
   -0.8498   -7.9534    1.5571 H   0  0  0  0  0  0  0  0  0  0  0  0
   -1.4111   -6.7255    2.7620 H   0  0  0  0  0  0  0  0  0  0  0  0
    4.2245   -5.6594   -2.4017 H   0  0  0  0  0  0  0  0  0  0  0  0
    6.6649    1.5591   -2.9725 H   0  0  0  0  0  0  0  0  0  0  0  0
    8.5235    3.0548   -3.6042 H   0  0  0  0  0  0  0  0  0  0  0  0
    9.6562    3.1925   -6.4584 H   0  0  0  0  0  0  0  0  0  0  0  0
   11.3021    3.8992   -6.6474 H   0  0  0  0  0  0  0  0  0  0  0  0
   10.4568    0.9966   -7.2037 H   0  0  0  0  0  0  0  0  0  0  0  0
   12.1858    1.5406   -7.1218 H   0  0  0  0  0  0  0  0  0  0  0  0
   11.0804    2.2252   -8.3748 H   0  0  0  0  0  0  0  0  0  0  0  0
    8.9402   -1.8245   -4.3931 H   0  0  0  0  0  0  0  0  0  0  0  0
    9.0041   -1.9152   -1.8026 H   0  0  0  0  0  0  0  0  0  0  0  0
    8.8745   -3.9266   -0.1766 H   0  0  0  0  0  0  0  0  0  0  0  0
  1  2  2  0
  2  3  1  0
  3  4  2  0
  4  5  1  0
  5  6  2  0
  6  7  1  0
  7  8  2  0
  8  9  1  0
  9 10  1  0
 10 11  1  0
  8 12  1  0
 12 13  1  0
 12 14  2  0
  4 15  1  0
 15 16  2  0
 16 17  1  0
 17 18  1  0
 18 19  2  0
 19 20  1  0
 20 21  2  0
 21 22  1  0
 22 23  1  0
 23 24  1  0
 21 25  1  0
 25 26  2  0
 25 27  1  0
 17 28  2  0
 28 29  1  0
 16 30  1  0
 30 31  2  0
 31 32  1  0
 31 33  1  0
 33 34  2  0
 34 35  2  0
 35 36  1  0
 36 37  1  0
 37 38  2  0
 38 39  1  0
 38 40  1  0
 40 41  2  0
 41 42  1  0
 40 43  1  0
 43 44  2  3
 44 45  1  0
 45 46  2  0
 46 47  2  0
 47 48  1  0
 48 49  1  0
 49 50  2  0
 50 51  1  0
 50 52  1  0
 52 53  2  0
 53 54  1  0
 52 55  1  0
 55 56  2  3
 56 57  1  0
 57 58  2  0
 58 59  2  0
 59 60  1  0
 60 61  1  0
 61 62  2  0
 62 63  1  0
 62 64  1  0
 64 65  2  0
 65 66  1  0
 64 67  1  0
 67 68  2  3
 68 69  1  0
 69 70  2  0
 70 71  1  0
 71 72  2  0
 72 73  1  0
 73 74  2  0
 74 75  1  0
 75 76  2  0
 76 77  1  0
 77 78  1  0
 78 79  1  0
 76 80  1  0
 80 81  1  0
 80 82  2  0
 72 83  1  0
 83 84  2  0
 84 85  1  0
 85 86  1  0
 86 87  2  0
 87 88  1  0
 88 89  2  0
 89 90  1  0
 90 91  1  0
 91 92  1  0
 89 93  1  0
 93 94  2  0
 93 95  1  0
 85 96  2  0
 96 97  1  0
 84 98  1  0
 98 99  2  0
 99100  1  0
 99101  1  0
101102  2  0
102103  1  0
103104  2  0
104105  1  0
105106  2  0
106107  1  0
107108  2  0
108109  1  0
109110  1  0
110111  1  0
108112  1  0
112113  1  0
112114  2  0
104115  1  0
115116  2  0
116117  1  0
117118  1  0
118119  2  0
119120  1  0
120121  2  0
121122  1  0
122123  1  0
123124  1  0
121125  1  0
125126  2  0
125127  1  0
117128  2  0
128129  1  0
116130  1  0
130131  2  0
131132  1  0
 29  1  1  0
 39 35  1  0
 51 47  1  0
 63 59  1  0
 97 69  1  0
129101  1  0
 28  3  1  0
 42 37  1  0
 54 49  1  0
 66 61  1  0
 96 71  1  0
128103  1  0
 14  5  1  0
 32 15  1  0
 82 73  1  0
100 83  1  0
114105  1  0
132115  1  0
 26 18  1  0
 94 86  1  0
126118  1  0
  1133  1  0
  2134  1  0
  6135  1  0
  7136  1  0
 10137  1  0
 10138  1  0
 11139  1  0
 11140  1  0
 11141  1  0
 14142  1  0
 19143  1  0
 20144  1  0
 23145  1  0
 23146  1  0
 24147  1  0
 24148  1  0
 24149  1  0
 26150  1  0
 30151  1  0
 33152  1  0
 36153  1  0
 36154  1  0
 39155  1  0
 39156  1  0
 41157  1  0
 42158  1  0
 42159  1  0
 43160  1  0
 44161  1  0
 45162  1  0
 48163  1  0
 48164  1  0
 51165  1  0
 51166  1  0
 53167  1  0
 54168  1  0
 54169  1  0
 55170  1  0
 56171  1  0
 57172  1  0
 60173  1  0
 60174  1  0
 63175  1  0
 63176  1  0
 65177  1  0
 66178  1  0
 66179  1  0
 67180  1  0
 68181  1  0
 70182  1  0
 74183  1  0
 75184  1  0
 78185  1  0
 78186  1  0
 79187  1  0
 79188  1  0
 79189  1  0
 82190  1  0
 87191  1  0
 88192  1  0
 91193  1  0
 91194  1  0
 92195  1  0
 92196  1  0
 92197  1  0
 94198  1  0
 98199  1  0
102200  1  0
106201  1  0
107202  1  0
110203  1  0
110204  1  0
111205  1  0
111206  1  0
111207  1  0
114208  1  0
119209  1  0
120210  1  0
123211  1  0
123212  1  0
124213  1  0
124214  1  0
124215  1  0
126216  1  0
130217  1  0
131218  1  0
M  END

