
     RDKit          3D

190211  0  0  0  0  0  0  0  0999 V2000
    0.2969   -6.5518    8.6853 C   0  0  0  0  0  0  0  0  0  0  0  0
    0.2822   -5.1970    8.3667 C   0  0  0  0  0  0  0  0  0  0  0  0
   -0.6616   -4.8673    7.3777 C   0  0  0  0  0  0  0  0  0  0  0  0
   -0.8809   -3.5919    6.8203 C   0  0  0  0  0  0  0  0  0  0  0  0
   -0.1245   -2.3952    7.2455 C   0  0  0  0  0  0  0  0  0  0  0  0
    0.7706   -1.4178    6.2036 S   0  0  0  0  0  0  0  0  0  0  0  0
    1.1260   -0.2204    7.3299 C   0  0  0  0  0  0  0  0  0  0  0  0
    1.9195    1.0143    7.0293 C   0  0  0  0  0  0  0  0  0  0  0  0
    3.3917    0.8183    7.3699 C   0  0  0  0  0  0  0  0  0  0  0  0
    0.5599   -0.5801    8.5533 C   0  0  0  0  0  0  0  0  0  0  0  0
    0.6837    0.4053   10.0049 Cl  0  0  0  0  0  0  0  0  0  0  0  0
   -0.1509   -1.7941    8.5029 C   0  0  0  0  0  0  0  0  0  0  0  0
   -1.0663   -2.4288    9.8645 Cl  0  0  0  0  0  0  0  0  0  0  0  0
   -1.8369   -3.5070    5.7952 C   0  0  0  0  0  0  0  0  0  0  0  0
   -2.5448   -4.6155    5.3151 C   0  0  0  0  0  0  0  0  0  0  0  0
   -2.3262   -5.8915    5.8749 C   0  0  0  0  0  0  0  0  0  0  0  0
   -3.0028   -7.0949    5.3583 C   0  0  0  0  0  0  0  0  0  0  0  0
   -2.8261   -7.6930    3.7948 S   0  0  0  0  0  0  0  0  0  0  0  0
   -3.8007   -9.0478    4.0079 C   0  0  0  0  0  0  0  0  0  0  0  0
   -4.1204  -10.0396    2.9297 C   0  0  0  0  0  0  0  0  0  0  0  0
   -5.4285   -9.6857    2.2320 C   0  0  0  0  0  0  0  0  0  0  0  0
   -4.2976   -9.0406    5.3125 C   0  0  0  0  0  0  0  0  0  0  0  0
   -3.8453   -7.9481    6.0715 C   0  0  0  0  0  0  0  0  0  0  0  0
   -4.3537   -7.6534    7.7298 Cl  0  0  0  0  0  0  0  0  0  0  0  0
   -5.3944  -10.2630    5.9408 Cl  0  0  0  0  0  0  0  0  0  0  0  0
   -1.3793   -5.9759    6.9141 C   0  0  0  0  0  0  0  0  0  0  0  0
   -0.8413   -7.3489    7.7300 S   0  0  0  0  0  0  0  0  0  0  0  0
   -3.4380   -4.2944    4.2737 C   0  0  0  0  0  0  0  0  0  0  0  0
   -3.4159   -2.9384    3.9483 C   0  0  0  0  0  0  0  0  0  0  0  0
   -2.3121   -2.1421    4.9451 S   0  0  0  0  0  0  0  0  0  0  0  0
   -4.1097   -2.2972    2.8244 C   0  0  0  0  0  0  0  0  0  0  0  0
   -3.9224   -0.9692    2.4479 C   0  0  0  0  0  0  0  0  0  0  0  0
   -4.4981   -0.6616    1.2101 C   0  0  0  0  0  0  0  0  0  0  0  0
   -4.3956    0.5687    0.5376 C   0  0  0  0  0  0  0  0  0  0  0  0
   -3.6022    1.6800    1.0864 C   0  0  0  0  0  0  0  0  0  0  0  0
   -1.9376    1.6365    1.3279 S   0  0  0  0  0  0  0  0  0  0  0  0
   -1.8389    3.0920    2.1642 C   0  0  0  0  0  0  0  0  0  0  0  0
   -0.5895    3.6061    2.8133 C   0  0  0  0  0  0  0  0  0  0  0  0
   -0.3631    2.9356    4.1654 C   0  0  0  0  0  0  0  0  0  0  0  0
   -3.1240    3.6271    2.2806 C   0  0  0  0  0  0  0  0  0  0  0  0
   -3.4958    5.0885    3.1849 Cl  0  0  0  0  0  0  0  0  0  0  0  0
   -4.1092    2.8407    1.6626 C   0  0  0  0  0  0  0  0  0  0  0  0
   -5.8234    3.2287    1.6978 Cl  0  0  0  0  0  0  0  0  0  0  0  0
   -4.9962    0.6523   -0.7254 C   0  0  0  0  0  0  0  0  0  0  0  0
   -5.6475   -0.4308   -1.3292 C   0  0  0  0  0  0  0  0  0  0  0  0
   -5.7548   -1.6656   -0.6499 C   0  0  0  0  0  0  0  0  0  0  0  0
   -6.3684   -2.8486   -1.2734 C   0  0  0  0  0  0  0  0  0  0  0  0
   -5.5556   -4.2860   -1.6055 S   0  0  0  0  0  0  0  0  0  0  0  0
   -6.8853   -5.0924   -2.2479 C   0  0  0  0  0  0  0  0  0  0  0  0
   -6.8715   -6.5166   -2.7063 C   0  0  0  0  0  0  0  0  0  0  0  0
   -7.1865   -7.4630   -1.5536 C   0  0  0  0  0  0  0  0  0  0  0  0
   -7.9966   -4.2503   -2.1827 C   0  0  0  0  0  0  0  0  0  0  0  0
   -7.7026   -2.9851   -1.6476 C   0  0  0  0  0  0  0  0  0  0  0  0
   -8.9130   -1.7342   -1.3978 Cl  0  0  0  0  0  0  0  0  0  0  0  0
   -9.6074   -4.7288   -2.6943 Cl  0  0  0  0  0  0  0  0  0  0  0  0
   -5.1641   -1.7436    0.6252 C   0  0  0  0  0  0  0  0  0  0  0  0
   -5.0252   -3.0845    1.6403 S   0  0  0  0  0  0  0  0  0  0  0  0
   -6.0279   -0.1713   -2.6609 C   0  0  0  0  0  0  0  0  0  0  0  0
   -5.6634    1.1062   -3.0907 C   0  0  0  0  0  0  0  0  0  0  0  0
   -4.8899    1.9141   -1.8244 S   0  0  0  0  0  0  0  0  0  0  0  0
   -5.6567    1.5819   -4.4840 C   0  0  0  0  0  0  0  0  0  0  0  0
   -6.1388    0.7090   -5.8299 S   0  0  0  0  0  0  0  0  0  0  0  0
   -5.4681    1.7333   -6.9918 C   0  0  0  0  0  0  0  0  0  0  0  0
   -5.5317    1.4238   -8.4269 C   0  0  0  0  0  0  0  0  0  0  0  0
   -5.5257    2.3421   -9.2878 O   0  0  0  0  0  0  0  0  0  0  0  0
   -5.6907    0.1019   -8.8369 O   0  0  0  0  0  0  0  0  0  0  0  0
   -4.7980    2.7794   -6.3244 C   0  0  0  0  0  0  0  0  0  0  0  0
   -4.9638    2.6998   -4.9257 C   0  0  0  0  0  0  0  0  0  0  0  0
   -3.7558    3.6861   -6.8838 C   0  0  0  0  0  0  0  0  0  0  0  0
   -3.5616    4.2622   -8.4586 S   0  0  0  0  0  0  0  0  0  0  0  0
   -2.0697    5.0223   -8.2264 C   0  0  0  0  0  0  0  0  0  0  0  0
   -1.3125    5.7154   -9.2836 C   0  0  0  0  0  0  0  0  0  0  0  0
   -0.2260    6.2979   -9.0190 O   0  0  0  0  0  0  0  0  0  0  0  0
   -1.8043    5.7319  -10.5874 O   0  0  0  0  0  0  0  0  0  0  0  0
   -1.7021    4.8401   -6.8921 C   0  0  0  0  0  0  0  0  0  0  0  0
   -2.6424    4.1043   -6.1608 C   0  0  0  0  0  0  0  0  0  0  0  0
   -0.4029    5.1680   -6.2899 C   0  0  0  0  0  0  0  0  0  0  0  0
    0.7673    4.4806   -6.6145 C   0  0  0  0  0  0  0  0  0  0  0  0
    1.6845    4.4054   -5.5490 C   0  0  0  0  0  0  0  0  0  0  0  0
    2.8458    3.6051   -5.5197 C   0  0  0  0  0  0  0  0  0  0  0  0
    3.3643    2.9572   -6.7419 C   0  0  0  0  0  0  0  0  0  0  0  0
    3.5287    1.2969   -6.9702 S   0  0  0  0  0  0  0  0  0  0  0  0
    4.1060    1.3882   -8.5501 C   0  0  0  0  0  0  0  0  0  0  0  0
    4.4155    0.2031   -9.4113 C   0  0  0  0  0  0  0  0  0  0  0  0
    3.2302   -0.1413  -10.3081 C   0  0  0  0  0  0  0  0  0  0  0  0
    4.1586    2.7283   -8.9295 C   0  0  0  0  0  0  0  0  0  0  0  0
    4.6852    3.2645  -10.5180 Cl  0  0  0  0  0  0  0  0  0  0  0  0
    3.7471    3.6065   -7.9160 C   0  0  0  0  0  0  0  0  0  0  0  0
    3.7453    5.3564   -8.1055 Cl  0  0  0  0  0  0  0  0  0  0  0  0
    3.4259    3.3833   -4.2557 C   0  0  0  0  0  0  0  0  0  0  0  0
    2.9431    3.9881   -3.0879 C   0  0  0  0  0  0  0  0  0  0  0  0
    1.8597    4.8862   -3.1400 C   0  0  0  0  0  0  0  0  0  0  0  0
    1.3375    5.5392   -1.9199 C   0  0  0  0  0  0  0  0  0  0  0  0
   -0.2381    5.4066   -1.3395 S   0  0  0  0  0  0  0  0  0  0  0  0
   -0.0229    6.4079   -0.0044 C   0  0  0  0  0  0  0  0  0  0  0  0
   -1.1194    6.8282    0.9246 C   0  0  0  0  0  0  0  0  0  0  0  0
   -1.7447    8.1406    0.4699 C   0  0  0  0  0  0  0  0  0  0  0  0
    1.2909    6.8704    0.0003 C   0  0  0  0  0  0  0  0  0  0  0  0
    2.0561    6.3786   -1.0683 C   0  0  0  0  0  0  0  0  0  0  0  0
    3.7275    6.8453   -1.3476 Cl  0  0  0  0  0  0  0  0  0  0  0  0
    1.9210    7.9812    1.2062 Cl  0  0  0  0  0  0  0  0  0  0  0  0
    1.2335    5.0451   -4.3901 C   0  0  0  0  0  0  0  0  0  0  0  0
   -0.2744    5.7131   -4.6994 S   0  0  0  0  0  0  0  0  0  0  0  0
    3.5021    3.4535   -1.9158 C   0  0  0  0  0  0  0  0  0  0  0  0
    4.4282    2.4437   -2.1564 C   0  0  0  0  0  0  0  0  0  0  0  0
    4.5477    2.2091   -3.8221 S   0  0  0  0  0  0  0  0  0  0  0  0
    4.6745    1.3690   -1.1987 C   0  0  0  0  0  0  0  0  0  0  0  0
    3.7565    0.3619   -0.9204 C   0  0  0  0  0  0  0  0  0  0  0  0
    4.2245   -0.5625    0.0213 C   0  0  0  0  0  0  0  0  0  0  0  0
    3.5260   -1.6900    0.4918 C   0  0  0  0  0  0  0  0  0  0  0  0
    2.2061   -2.0663   -0.0484 C   0  0  0  0  0  0  0  0  0  0  0  0
    1.9198   -2.4810   -1.6547 S   0  0  0  0  0  0  0  0  0  0  0  0
    0.2769   -2.7808   -1.4735 C   0  0  0  0  0  0  0  0  0  0  0  0
   -0.6246   -3.2616   -2.5699 C   0  0  0  0  0  0  0  0  0  0  0  0
   -0.6883   -4.7844   -2.5945 C   0  0  0  0  0  0  0  0  0  0  0  0
   -0.0666   -2.5863   -0.1359 C   0  0  0  0  0  0  0  0  0  0  0  0
   -1.6841   -2.8478    0.4937 Cl  0  0  0  0  0  0  0  0  0  0  0  0
    1.0106   -2.1720    0.6629 C   0  0  0  0  0  0  0  0  0  0  0  0
    0.8424   -1.7677    2.3660 Cl  0  0  0  0  0  0  0  0  0  0  0  0
    4.1815   -2.4872    1.4424 C   0  0  0  0  0  0  0  0  0  0  0  0
    5.4620   -2.1889    1.9255 C   0  0  0  0  0  0  0  0  0  0  0  0
    6.1511   -1.0428    1.4708 C   0  0  0  0  0  0  0  0  0  0  0  0
    7.4896   -0.6827    1.9797 C   0  0  0  0  0  0  0  0  0  0  0  0
    8.8712   -0.5515    1.0288 S   0  0  0  0  0  0  0  0  0  0  0  0
    9.9196   -0.1623    2.2857 C   0  0  0  0  0  0  0  0  0  0  0  0
   11.3971    0.0484    2.1276 C   0  0  0  0  0  0  0  0  0  0  0  0
   12.1646   -1.2428    2.3993 C   0  0  0  0  0  0  0  0  0  0  0  0
    9.1979   -0.1456    3.4809 C   0  0  0  0  0  0  0  0  0  0  0  0
    7.8335   -0.4236    3.3072 C   0  0  0  0  0  0  0  0  0  0  0  0
    6.6691   -0.3892    4.6283 Cl  0  0  0  0  0  0  0  0  0  0  0  0
    9.9205    0.2018    5.0430 Cl  0  0  0  0  0  0  0  0  0  0  0  0
    5.5042   -0.2578    0.4985 C   0  0  0  0  0  0  0  0  0  0  0  0
    6.0600    1.1505   -0.2619 S   0  0  0  0  0  0  0  0  0  0  0  0
    5.9501   -3.1600    2.8183 C   0  0  0  0  0  0  0  0  0  0  0  0
    5.0516   -4.2009    3.0417 C   0  0  0  0  0  0  0  0  0  0  0  0
    3.6657   -3.9367    2.1222 S   0  0  0  0  0  0  0  0  0  0  0  0
    0.9454   -7.0187    9.4148 H   0  0  0  0  0  0  0  0  0  0  0  0
    0.9469   -4.4824    8.8308 H   0  0  0  0  0  0  0  0  0  0  0  0
    1.5110    1.8745    7.6028 H   0  0  0  0  0  0  0  0  0  0  0  0
    1.8252    1.2541    5.9466 H   0  0  0  0  0  0  0  0  0  0  0  0
    3.9607    1.7254    7.0825 H   0  0  0  0  0  0  0  0  0  0  0  0
    3.5145    0.6534    8.4609 H   0  0  0  0  0  0  0  0  0  0  0  0
    3.8025   -0.0529    6.8168 H   0  0  0  0  0  0  0  0  0  0  0  0
   -4.1931  -11.0589    3.3646 H   0  0  0  0  0  0  0  0  0  0  0  0
   -3.2989  -10.0470    2.1829 H   0  0  0  0  0  0  0  0  0  0  0  0
   -6.2712   -9.7198    2.9526 H   0  0  0  0  0  0  0  0  0  0  0  0
   -5.3686   -8.6707    1.7841 H   0  0  0  0  0  0  0  0  0  0  0  0
   -5.6228  -10.4177    1.4241 H   0  0  0  0  0  0  0  0  0  0  0  0
   -4.0600   -5.0172    3.7638 H   0  0  0  0  0  0  0  0  0  0  0  0
   -3.3365   -0.2680    3.0281 H   0  0  0  0  0  0  0  0  0  0  0  0
   -0.6562    4.7034    2.9585 H   0  0  0  0  0  0  0  0  0  0  0  0
    0.2782    3.4004    2.1503 H   0  0  0  0  0  0  0  0  0  0  0  0
   -0.3226    1.8297    4.0553 H   0  0  0  0  0  0  0  0  0  0  0  0
   -1.1850    3.1963    4.8692 H   0  0  0  0  0  0  0  0  0  0  0  0
    0.5991    3.2817    4.5957 H   0  0  0  0  0  0  0  0  0  0  0  0
   -7.6129   -6.6646   -3.5191 H   0  0  0  0  0  0  0  0  0  0  0  0
   -5.8696   -6.7630   -3.1182 H   0  0  0  0  0  0  0  0  0  0  0  0
   -8.1781   -7.2206   -1.1133 H   0  0  0  0  0  0  0  0  0  0  0  0
   -6.4054   -7.3824   -0.7681 H   0  0  0  0  0  0  0  0  0  0  0  0
   -7.2095   -8.5082   -1.9272 H   0  0  0  0  0  0  0  0  0  0  0  0
   -6.4791   -0.9103   -3.3115 H   0  0  0  0  0  0  0  0  0  0  0  0
   -5.8052   -0.1234   -9.8227 H   0  0  0  0  0  0  0  0  0  0  0  0
   -4.4995    3.3913   -4.2361 H   0  0  0  0  0  0  0  0  0  0  0  0
   -1.2938    6.2052  -11.3262 H   0  0  0  0  0  0  0  0  0  0  0  0
   -2.4600    3.8049   -5.1391 H   0  0  0  0  0  0  0  0  0  0  0  0
    0.8711    3.9096   -7.5301 H   0  0  0  0  0  0  0  0  0  0  0  0
    5.3071    0.4166  -10.0401 H   0  0  0  0  0  0  0  0  0  0  0  0
    4.6571   -0.6726   -8.7691 H   0  0  0  0  0  0  0  0  0  0  0  0
    3.0064    0.7053  -10.9918 H   0  0  0  0  0  0  0  0  0  0  0  0
    3.4726   -1.0358  -10.9199 H   0  0  0  0  0  0  0  0  0  0  0  0
    2.3321   -0.3590   -9.6906 H   0  0  0  0  0  0  0  0  0  0  0  0
   -1.9074    6.0452    0.9373 H   0  0  0  0  0  0  0  0  0  0  0  0
   -0.7240    6.9436    1.9565 H   0  0  0  0  0  0  0  0  0  0  0  0
   -2.5722    8.4115    1.1571 H   0  0  0  0  0  0  0  0  0  0  0  0
   -2.1501    8.0371   -0.5587 H   0  0  0  0  0  0  0  0  0  0  0  0
   -0.9871    8.9525    0.4859 H   0  0  0  0  0  0  0  0  0  0  0  0
    3.1424    3.6906   -0.9198 H   0  0  0  0  0  0  0  0  0  0  0  0
    2.7793    0.3124   -1.3893 H   0  0  0  0  0  0  0  0  0  0  0  0
   -0.2438   -2.8931   -3.5467 H   0  0  0  0  0  0  0  0  0  0  0  0
   -1.6469   -2.8484   -2.4273 H   0  0  0  0  0  0  0  0  0  0  0  0
    0.3288   -5.2132   -2.7133 H   0  0  0  0  0  0  0  0  0  0  0  0
   -1.3145   -5.1144   -3.4504 H   0  0  0  0  0  0  0  0  0  0  0  0
   -1.1383   -5.1674   -1.6529 H   0  0  0  0  0  0  0  0  0  0  0  0
   11.6093    0.3874    1.0890 H   0  0  0  0  0  0  0  0  0  0  0  0
   11.7461    0.8440    2.8203 H   0  0  0  0  0  0  0  0  0  0  0  0
   11.8291   -2.0459    1.7086 H   0  0  0  0  0  0  0  0  0  0  0  0
   13.2487   -1.0716    2.2379 H   0  0  0  0  0  0  0  0  0  0  0  0
   12.0076   -1.5717    3.4487 H   0  0  0  0  0  0  0  0  0  0  0  0
    6.9297   -3.1262    3.2794 H   0  0  0  0  0  0  0  0  0  0  0  0
    5.2258   -5.0533    3.6845 H   0  0  0  0  0  0  0  0  0  0  0  0
  1  2  2  0
  2  3  1  0
  3  4  2  0
  4  5  1  0
  5  6  1  0
  6  7  1  0
  7  8  1  0
  8  9  1  0
  7 10  2  0
 10 11  1  0
 10 12  1  0
 12 13  1  0
  4 14  1  0
 14 15  2  0
 15 16  1  0
 16 17  1  0
 17 18  1  0
 18 19  1  0
 19 20  1  0
 20 21  1  0
 19 22  2  0
 22 23  1  0
 23 24  1  0
 22 25  1  0
 16 26  2  0
 26 27  1  0
 15 28  1  0
 28 29  2  0
 29 30  1  0
 29 31  1  0
 31 32  2  0
 32 33  1  0
 33 34  2  0
 34 35  1  0
 35 36  1  0
 36 37  1  0
 37 38  1  0
 38 39  1  0
 37 40  2  0
 40 41  1  0
 40 42  1  0
 42 43  1  0
 34 44  1  0
 44 45  2  0
 45 46  1  0
 46 47  1  0
 47 48  1  0
 48 49  1  0
 49 50  1  0
 50 51  1  0
 49 52  2  0
 52 53  1  0
 53 54  1  0
 52 55  1  0
 46 56  2  0
 56 57  1  0
 45 58  1  0
 58 59  2  0
 59 60  1  0
 59 61  1  0
 61 62  1  0
 62 63  1  0
 63 64  1  0
 64 65  2  0
 64 66  1  0
 63 67  2  0
 67 68  1  0
 67 69  1  0
 69 70  1  0
 70 71  1  0
 71 72  1  0
 72 73  2  0
 72 74  1  0
 71 75  2  0
 75 76  1  0
 75 77  1  0
 77 78  2  0
 78 79  1  0
 79 80  2  0
 80 81  1  0
 81 82  1  0
 82 83  1  0
 83 84  1  0
 84 85  1  0
 83 86  2  0
 86 87  1  0
 86 88  1  0
 88 89  1  0
 80 90  1  0
 90 91  2  0
 91 92  1  0
 92 93  1  0
 93 94  1  0
 94 95  1  0
 95 96  1  0
 96 97  1  0
 95 98  2  0
 98 99  1  0
 99100  1  0
 98101  1  0
 92102  2  0
102103  1  0
 91104  1  0
104105  2  0
105106  1  0
105107  1  0
107108  2  0
108109  1  0
109110  2  0
110111  1  0
111112  1  0
112113  1  0
113114  1  0
114115  1  0
113116  2  0
116117  1  0
116118  1  0
118119  1  0
110120  1  0
120121  2  0
121122  1  0
122123  1  0
123124  1  0
124125  1  0
125126  1  0
126127  1  0
125128  2  0
128129  1  0
129130  1  0
128131  1  0
122132  2  0
132133  1  0
121134  1  0
134135  2  0
135136  1  0
 27  1  1  0
 57 31  1  0
 68 61  2  0
 76 69  2  0
103 77  1  0
133107  1  0
 26  3  1  0
 56 33  1  0
102 79  1  0
132109  1  0
 12  5  2  0
 30 14  1  0
 42 35  2  0
 60 44  1  0
 88 81  2  0
106 90  1  0
118111  2  0
136120  1  0
 23 17  2  0
 53 47  2  0
 99 93  2  0
129123  2  0
  1137  1  0
  2138  1  0
  8139  1  0
  8140  1  0
  9141  1  0
  9142  1  0
  9143  1  0
 20144  1  0
 20145  1  0
 21146  1  0
 21147  1  0
 21148  1  0
 28149  1  0
 32150  1  0
 38151  1  0
 38152  1  0
 39153  1  0
 39154  1  0
 39155  1  0
 50156  1  0
 50157  1  0
 51158  1  0
 51159  1  0
 51160  1  0
 58161  1  0
 66162  1  0
 68163  1  0
 74164  1  0
 76165  1  0
 78166  1  0
 84167  1  0
 84168  1  0
 85169  1  0
 85170  1  0
 85171  1  0
 96172  1  0
 96173  1  0
 97174  1  0
 97175  1  0
 97176  1  0
104177  1  0
108178  1  0
114179  1  0
114180  1  0
115181  1  0
115182  1  0
115183  1  0
126184  1  0
126185  1  0
127186  1  0
127187  1  0
127188  1  0
134189  1  0
135190  1  0
M  END

