
     RDKit          3D

146159  0  0  0  0  0  0  0  0999 V2000
    5.8621   -3.9987    5.2912 C   0  0  0  0  0  0  0  0  0  0  0  0
    4.5434   -4.9828    5.6947 S   0  0  0  0  0  0  0  0  0  0  0  0
    3.3845   -4.1295    4.8130 C   0  0  0  0  0  0  0  0  0  0  0  0
    4.0153   -3.0518    4.2291 C   0  0  0  0  0  0  0  0  0  0  0  0
    5.3754   -2.9679    4.5004 C   0  0  0  0  0  0  0  0  0  0  0  0
    6.0843   -1.8886    4.0938 N   0  0  0  0  0  0  0  0  0  0  0  0
    5.4611   -0.8747    3.4127 C   0  0  0  0  0  0  0  0  0  0  0  0
    6.1734    0.2547    2.9971 O   0  0  0  0  0  0  0  0  0  0  0  0
    7.5936    0.3639    3.0945 C   0  0  0  0  0  0  0  0  0  0  0  0
    8.2613   -0.3978    1.9637 C   0  0  0  0  0  0  0  0  0  0  0  0
    4.0674   -0.9584    3.1495 C   0  0  0  0  0  0  0  0  0  0  0  0
    3.3524    0.1129    2.3698 C   0  0  0  0  0  0  0  0  0  0  0  0
    1.9147    0.0764    2.6368 N   0  0  0  0  0  0  0  0  0  0  0  0
    3.3764   -2.0582    3.5655 N   0  0  0  0  0  0  0  0  0  0  0  0
    1.9337   -4.2668    4.8251 C   0  0  0  0  0  0  0  0  0  0  0  0
    1.2371   -3.9696    5.9221 C   0  0  0  0  0  0  0  0  0  0  0  0
   -0.0916   -3.3354    5.8217 C   0  0  0  0  0  0  0  0  0  0  0  0
   -0.8789   -2.9312    4.3524 S   0  0  0  0  0  0  0  0  0  0  0  0
   -0.7431   -2.7107    6.8982 C   0  0  0  0  0  0  0  0  0  0  0  0
   -1.8635   -2.0030    6.4605 C   0  0  0  0  0  0  0  0  0  0  0  0
   -2.7814   -1.0220    7.0596 C   0  0  0  0  0  0  0  0  0  0  0  0
   -2.5732   -0.2731    8.4991 S   0  0  0  0  0  0  0  0  0  0  0  0
   -2.0659   -2.0526    5.1189 C   0  0  0  0  0  0  0  0  0  0  0  0
   -3.0115   -1.0313    4.7472 C   0  0  0  0  0  0  0  0  0  0  0  0
   -4.0712   -0.8204    3.4852 S   0  0  0  0  0  0  0  0  0  0  0  0
   -3.4806   -0.4518    5.8877 C   0  0  0  0  0  0  0  0  0  0  0  0
   -4.6841    0.2276    5.7307 C   0  0  0  0  0  0  0  0  0  0  0  0
   -5.1174    0.1819    4.3951 C   0  0  0  0  0  0  0  0  0  0  0  0
   -6.4425    0.6406    3.9449 C   0  0  0  0  0  0  0  0  0  0  0  0
   -6.7510    0.9169    2.6720 C   0  0  0  0  0  0  0  0  0  0  0  0
   -5.7513    1.0955    1.6051 C   0  0  0  0  0  0  0  0  0  0  0  0
   -5.8649    0.4915    0.0340 S   0  0  0  0  0  0  0  0  0  0  0  0
   -4.5029    1.2766   -0.5974 C   0  0  0  0  0  0  0  0  0  0  0  0
   -4.0139    2.0984    0.4077 C   0  0  0  0  0  0  0  0  0  0  0  0
   -4.6800    1.9865    1.6218 C   0  0  0  0  0  0  0  0  0  0  0  0
   -4.3298    2.7747    2.6654 N   0  0  0  0  0  0  0  0  0  0  0  0
   -3.3155    3.6784    2.5342 C   0  0  0  0  0  0  0  0  0  0  0  0
   -2.9295    4.4689    3.6262 O   0  0  0  0  0  0  0  0  0  0  0  0
   -3.3654    4.2229    4.9628 C   0  0  0  0  0  0  0  0  0  0  0  0
   -2.5666    3.0821    5.5741 C   0  0  0  0  0  0  0  0  0  0  0  0
   -2.6651    3.8228    1.2861 C   0  0  0  0  0  0  0  0  0  0  0  0
   -1.5562    4.8296    1.1196 C   0  0  0  0  0  0  0  0  0  0  0  0
   -1.3229    5.1220   -0.2929 N   0  0  0  0  0  0  0  0  0  0  0  0
   -3.0251    3.0125    0.2465 N   0  0  0  0  0  0  0  0  0  0  0  0
   -4.1486    1.3859   -2.0201 C   0  0  0  0  0  0  0  0  0  0  0  0
   -3.9642    0.3640   -2.8665 C   0  0  0  0  0  0  0  0  0  0  0  0
   -3.8733   -1.0761   -2.5275 C   0  0  0  0  0  0  0  0  0  0  0  0
   -3.4671   -1.7812   -1.0417 S   0  0  0  0  0  0  0  0  0  0  0  0
   -3.2520   -3.3676   -1.6026 C   0  0  0  0  0  0  0  0  0  0  0  0
   -3.4662   -3.3447   -2.9710 C   0  0  0  0  0  0  0  0  0  0  0  0
   -3.7868   -2.0849   -3.4801 C   0  0  0  0  0  0  0  0  0  0  0  0
   -3.8637   -1.8925   -4.8202 N   0  0  0  0  0  0  0  0  0  0  0  0
   -3.6592   -2.9333   -5.6779 C   0  0  0  0  0  0  0  0  0  0  0  0
   -3.7105   -2.7283   -7.0635 O   0  0  0  0  0  0  0  0  0  0  0  0
   -3.6630   -1.4378   -7.6682 C   0  0  0  0  0  0  0  0  0  0  0  0
   -2.2515   -0.8655   -7.5821 C   0  0  0  0  0  0  0  0  0  0  0  0
   -3.3551   -4.2178   -5.1623 C   0  0  0  0  0  0  0  0  0  0  0  0
   -3.1523   -5.3919   -6.0895 C   0  0  0  0  0  0  0  0  0  0  0  0
   -2.3379   -6.4267   -5.4561 N   0  0  0  0  0  0  0  0  0  0  0  0
   -3.2528   -4.3891   -3.8112 N   0  0  0  0  0  0  0  0  0  0  0  0
   -2.6241   -4.4664   -0.8578 C   0  0  0  0  0  0  0  0  0  0  0  0
   -1.2959   -4.6466   -0.7236 C   0  0  0  0  0  0  0  0  0  0  0  0
   -0.2311   -3.7625   -1.2641 C   0  0  0  0  0  0  0  0  0  0  0  0
   -0.4000   -2.4938   -2.3606 S   0  0  0  0  0  0  0  0  0  0  0  0
    1.1686   -1.8837   -2.2952 C   0  0  0  0  0  0  0  0  0  0  0  0
    1.8651   -2.7046   -1.4150 C   0  0  0  0  0  0  0  0  0  0  0  0
    1.0986   -3.7403   -0.8601 C   0  0  0  0  0  0  0  0  0  0  0  0
    1.6463   -4.5813    0.0479 N   0  0  0  0  0  0  0  0  0  0  0  0
    2.9501   -4.4313    0.4210 C   0  0  0  0  0  0  0  0  0  0  0  0
    3.5172   -5.3068    1.3535 O   0  0  0  0  0  0  0  0  0  0  0  0
    2.8953   -6.5237    1.7572 C   0  0  0  0  0  0  0  0  0  0  0  0
    3.0087   -7.5773    0.6635 C   0  0  0  0  0  0  0  0  0  0  0  0
    3.7238   -3.3840   -0.1344 C   0  0  0  0  0  0  0  0  0  0  0  0
    5.1438   -3.1696    0.3053 C   0  0  0  0  0  0  0  0  0  0  0  0
    5.8966   -2.4171   -0.6984 N   0  0  0  0  0  0  0  0  0  0  0  0
    3.1489   -2.5244   -1.0262 N   0  0  0  0  0  0  0  0  0  0  0  0
    1.6100   -0.5927   -2.8531 C   0  0  0  0  0  0  0  0  0  0  0  0
    0.7008    0.2828   -3.3087 C   0  0  0  0  0  0  0  0  0  0  0  0
    1.0239    1.6669   -3.6253 C   0  0  0  0  0  0  0  0  0  0  0  0
    0.0048    2.9430   -3.1792 S   0  0  0  0  0  0  0  0  0  0  0  0
    1.9734    2.1047   -4.5576 C   0  0  0  0  0  0  0  0  0  0  0  0
    1.8488    3.4786   -4.7879 C   0  0  0  0  0  0  0  0  0  0  0  0
    2.1551    4.2980   -5.9798 C   0  0  0  0  0  0  0  0  0  0  0  0
    2.6570    3.6664   -7.4012 S   0  0  0  0  0  0  0  0  0  0  0  0
    0.8691    4.0846   -4.0453 C   0  0  0  0  0  0  0  0  0  0  0  0
    0.4509    5.2851   -4.7216 C   0  0  0  0  0  0  0  0  0  0  0  0
   -1.0260    6.0641   -4.8570 S   0  0  0  0  0  0  0  0  0  0  0  0
    1.1674    5.3980   -5.8788 C   0  0  0  0  0  0  0  0  0  0  0  0
    0.5567    6.1881   -6.8527 C   0  0  0  0  0  0  0  0  0  0  0  0
   -0.6754    6.6863   -6.4075 C   0  0  0  0  0  0  0  0  0  0  0  0
   -1.5765    7.5255   -7.2178 C   0  0  0  0  0  0  0  0  0  0  0  0
   -2.7613    7.9446   -6.7745 C   0  0  0  0  0  0  0  0  0  0  0  0
    6.8869   -4.1190    5.6272 H   0  0  0  0  0  0  0  0  0  0  0  0
    7.8668    1.4369    3.0186 H   0  0  0  0  0  0  0  0  0  0  0  0
    7.9460   -0.0132    4.0805 H   0  0  0  0  0  0  0  0  0  0  0  0
    9.3652   -0.2710    2.0143 H   0  0  0  0  0  0  0  0  0  0  0  0
    8.0229   -1.4795    2.0364 H   0  0  0  0  0  0  0  0  0  0  0  0
    7.8983   -0.0143    0.9851 H   0  0  0  0  0  0  0  0  0  0  0  0
    3.5310   -0.0638    1.2886 H   0  0  0  0  0  0  0  0  0  0  0  0
    3.7533    1.1198    2.6309 H   0  0  0  0  0  0  0  0  0  0  0  0
    1.4569    0.7909    2.0221 H   0  0  0  0  0  0  0  0  0  0  0  0
    1.7519    0.3928    3.6196 H   0  0  0  0  0  0  0  0  0  0  0  0
    1.4637   -4.1728    3.8545 H   0  0  0  0  0  0  0  0  0  0  0  0
    1.7281   -3.9809    6.8951 H   0  0  0  0  0  0  0  0  0  0  0  0
   -0.3800   -2.7124    7.9179 H   0  0  0  0  0  0  0  0  0  0  0  0
   -5.2541    0.6686    6.5464 H   0  0  0  0  0  0  0  0  0  0  0  0
   -7.2346    0.6946    4.6851 H   0  0  0  0  0  0  0  0  0  0  0  0
   -7.7800    1.1299    2.4250 H   0  0  0  0  0  0  0  0  0  0  0  0
   -3.2044    5.1406    5.5649 H   0  0  0  0  0  0  0  0  0  0  0  0
   -4.4473    3.9886    4.9831 H   0  0  0  0  0  0  0  0  0  0  0  0
   -2.9675    2.8360    6.5824 H   0  0  0  0  0  0  0  0  0  0  0  0
   -1.5017    3.3850    5.6810 H   0  0  0  0  0  0  0  0  0  0  0  0
   -2.6259    2.1791    4.9244 H   0  0  0  0  0  0  0  0  0  0  0  0
   -1.8263    5.7730    1.6435 H   0  0  0  0  0  0  0  0  0  0  0  0
   -0.6301    4.4257    1.5820 H   0  0  0  0  0  0  0  0  0  0  0  0
   -0.8363    4.3008   -0.7195 H   0  0  0  0  0  0  0  0  0  0  0  0
   -0.6453    5.9183   -0.3456 H   0  0  0  0  0  0  0  0  0  0  0  0
   -4.0411    2.3902   -2.4109 H   0  0  0  0  0  0  0  0  0  0  0  0
   -3.7937    0.6303   -3.9038 H   0  0  0  0  0  0  0  0  0  0  0  0
   -3.9449   -1.5378   -8.7341 H   0  0  0  0  0  0  0  0  0  0  0  0
   -4.3832   -0.7514   -7.1745 H   0  0  0  0  0  0  0  0  0  0  0  0
   -2.2084    0.0990   -8.1328 H   0  0  0  0  0  0  0  0  0  0  0  0
   -1.9679   -0.6873   -6.5234 H   0  0  0  0  0  0  0  0  0  0  0  0
   -1.5309   -1.5751   -8.0424 H   0  0  0  0  0  0  0  0  0  0  0  0
   -2.6351   -5.0515   -7.0131 H   0  0  0  0  0  0  0  0  0  0  0  0
   -4.1438   -5.8034   -6.3778 H   0  0  0  0  0  0  0  0  0  0  0  0
   -2.9352   -6.9222   -4.7556 H   0  0  0  0  0  0  0  0  0  0  0  0
   -2.1273   -7.1471   -6.1898 H   0  0  0  0  0  0  0  0  0  0  0  0
   -3.2828   -5.1836   -0.3946 H   0  0  0  0  0  0  0  0  0  0  0  0
   -0.9674   -5.4915   -0.1287 H   0  0  0  0  0  0  0  0  0  0  0  0
    3.4066   -6.8986    2.6713 H   0  0  0  0  0  0  0  0  0  0  0  0
    1.8259   -6.3553    2.0042 H   0  0  0  0  0  0  0  0  0  0  0  0
    4.0748   -7.7757    0.4200 H   0  0  0  0  0  0  0  0  0  0  0  0
    2.5328   -8.5237    0.9956 H   0  0  0  0  0  0  0  0  0  0  0  0
    2.4912   -7.2379   -0.2601 H   0  0  0  0  0  0  0  0  0  0  0  0
    5.6511   -4.1360    0.4978 H   0  0  0  0  0  0  0  0  0  0  0  0
    5.1338   -2.5996    1.2501 H   0  0  0  0  0  0  0  0  0  0  0  0
    6.0580   -3.0463   -1.5184 H   0  0  0  0  0  0  0  0  0  0  0  0
    6.8383   -2.1998   -0.2912 H   0  0  0  0  0  0  0  0  0  0  0  0
    2.6492   -0.2977   -2.7662 H   0  0  0  0  0  0  0  0  0  0  0  0
   -0.3589    0.0412   -3.3020 H   0  0  0  0  0  0  0  0  0  0  0  0
    2.5977    1.4432   -5.1459 H   0  0  0  0  0  0  0  0  0  0  0  0
    0.9504    6.3366   -7.8537 H   0  0  0  0  0  0  0  0  0  0  0  0
   -1.2640    7.8199   -8.2106 H   0  0  0  0  0  0  0  0  0  0  0  0
   -3.3881    8.5651   -7.4036 H   0  0  0  0  0  0  0  0  0  0  0  0
   -3.1246    7.6909   -5.7844 H   0  0  0  0  0  0  0  0  0  0  0  0
  1  2  1  0
  2  3  1  0
  3  4  2  0
  4  5  1  0
  5  6  1  0
  6  7  2  0
  7  8  1  0
  8  9  1  0
  9 10  1  0
  7 11  1  0
 11 12  1  0
 12 13  1  0
 11 14  2  0
  3 15  1  0
 15 16  2  3
 16 17  1  0
 17 18  1  0
 17 19  2  0
 19 20  1  0
 20 21  1  0
 21 22  2  0
 20 23  2  0
 23 24  1  0
 24 25  1  0
 24 26  2  0
 26 27  1  0
 27 28  2  0
 28 29  1  0
 29 30  2  3
 30 31  1  0
 31 32  1  0
 32 33  1  0
 33 34  2  0
 34 35  1  0
 35 36  1  0
 36 37  2  0
 37 38  1  0
 38 39  1  0
 39 40  1  0
 37 41  1  0
 41 42  1  0
 42 43  1  0
 41 44  2  0
 33 45  1  0
 45 46  2  3
 46 47  1  0
 47 48  1  0
 48 49  1  0
 49 50  2  0
 50 51  1  0
 51 52  1  0
 52 53  2  0
 53 54  1  0
 54 55  1  0
 55 56  1  0
 53 57  1  0
 57 58  1  0
 58 59  1  0
 57 60  2  0
 49 61  1  0
 61 62  2  3
 62 63  1  0
 63 64  1  0
 64 65  1  0
 65 66  2  0
 66 67  1  0
 67 68  1  0
 68 69  2  0
 69 70  1  0
 70 71  1  0
 71 72  1  0
 69 73  1  0
 73 74  1  0
 74 75  1  0
 73 76  2  0
 65 77  1  0
 77 78  2  3
 78 79  1  0
 79 80  1  0
 79 81  2  0
 81 82  1  0
 82 83  1  0
 83 84  2  0
 82 85  2  0
 85 86  1  0
 86 87  1  0
 86 88  2  0
 88 89  1  0
 89 90  2  0
 90 91  1  0
 91 92  2  3
  5  1  2  0
 23 18  1  0
 35 31  2  0
 51 47  2  0
 67 63  2  0
 85 80  1  0
 14  4  1  0
 26 21  1  0
 44 34  1  0
 60 50  1  0
 76 66  1  0
 88 83  1  0
 28 25  1  0
 90 87  1  0
  1 93  1  0
  9 94  1  0
  9 95  1  0
 10 96  1  0
 10 97  1  0
 10 98  1  0
 12 99  1  0
 12100  1  0
 13101  1  0
 13102  1  0
 15103  1  0
 16104  1  0
 19105  1  0
 27106  1  0
 29107  1  0
 30108  1  0
 39109  1  0
 39110  1  0
 40111  1  0
 40112  1  0
 40113  1  0
 42114  1  0
 42115  1  0
 43116  1  0
 43117  1  0
 45118  1  0
 46119  1  0
 55120  1  0
 55121  1  0
 56122  1  0
 56123  1  0
 56124  1  0
 58125  1  0
 58126  1  0
 59127  1  0
 59128  1  0
 61129  1  0
 62130  1  0
 71131  1  0
 71132  1  0
 72133  1  0
 72134  1  0
 72135  1  0
 74136  1  0
 74137  1  0
 75138  1  0
 75139  1  0
 77140  1  0
 78141  1  0
 81142  1  0
 89143  1  0
 91144  1  0
 92145  1  0
 92146  1  0
M  END

