
     RDKit          3D

209229  0  0  0  0  0  0  0  0999 V2000
    5.4306    5.0260   -6.4947 C   0  0  0  0  0  0  0  0  0  0  0  0
    4.5786    6.1227   -6.4164 C   0  0  0  0  0  0  0  0  0  0  0  0
    3.5052    5.9316   -5.5291 C   0  0  0  0  0  0  0  0  0  0  0  0
    2.5110    6.8770   -5.2040 C   0  0  0  0  0  0  0  0  0  0  0  0
    2.4689    8.2171   -5.8160 C   0  0  0  0  0  0  0  0  0  0  0  0
    1.1991    8.7944   -6.7552 S   0  0  0  0  0  0  0  0  0  0  0  0
    1.8578   10.3164   -7.0303 C   0  0  0  0  0  0  0  0  0  0  0  0
    1.1691   11.4198   -7.7781 C   0  0  0  0  0  0  0  0  0  0  0  0
    0.4607   12.3686   -6.8162 C   0  0  0  0  0  0  0  0  0  0  0  0
    3.0808   10.4003   -6.3659 C   0  0  0  0  0  0  0  0  0  0  0  0
    4.0822   11.8446   -6.3627 Cl  0  0  0  0  0  0  0  0  0  0  0  0
    3.4235    9.2235   -5.6834 C   0  0  0  0  0  0  0  0  0  0  0  0
    4.8487    9.0759   -4.6727 Cl  0  0  0  0  0  0  0  0  0  0  0  0
    1.5383    6.4801   -4.2717 C   0  0  0  0  0  0  0  0  0  0  0  0
    1.5184    5.2011   -3.7013 C   0  0  0  0  0  0  0  0  0  0  0  0
    2.5043    4.2470   -4.0319 C   0  0  0  0  0  0  0  0  0  0  0  0
    2.5574    2.9174   -3.3837 C   0  0  0  0  0  0  0  0  0  0  0  0
    2.6562    2.6719   -1.7237 S   0  0  0  0  0  0  0  0  0  0  0  0
    2.7493    0.9963   -1.7755 C   0  0  0  0  0  0  0  0  0  0  0  0
    2.9042    0.1143   -0.5737 C   0  0  0  0  0  0  0  0  0  0  0  0
    4.3742   -0.1600   -0.2870 C   0  0  0  0  0  0  0  0  0  0  0  0
    2.7274    0.5987   -3.1095 C   0  0  0  0  0  0  0  0  0  0  0  0
    2.5917    1.6693   -4.0071 C   0  0  0  0  0  0  0  0  0  0  0  0
    2.3887    1.4433   -5.7381 Cl  0  0  0  0  0  0  0  0  0  0  0  0
    2.9190   -1.0715   -3.6174 Cl  0  0  0  0  0  0  0  0  0  0  0  0
    3.4940    4.6581   -4.9453 C   0  0  0  0  0  0  0  0  0  0  0  0
    4.8499    3.8112   -5.4797 S   0  0  0  0  0  0  0  0  0  0  0  0
    0.4623    5.0235   -2.7976 C   0  0  0  0  0  0  0  0  0  0  0  0
   -0.3154    6.1699   -2.6257 C   0  0  0  0  0  0  0  0  0  0  0  0
    0.2850    7.3977   -3.6178 S   0  0  0  0  0  0  0  0  0  0  0  0
   -1.4795    6.2888   -1.7327 C   0  0  0  0  0  0  0  0  0  0  0  0
   -2.0866    7.7213   -1.0657 S   0  0  0  0  0  0  0  0  0  0  0  0
   -3.3428    7.0178   -0.1779 C   0  0  0  0  0  0  0  0  0  0  0  0
   -3.3147    5.6516   -0.4368 C   0  0  0  0  0  0  0  0  0  0  0  0
   -2.2750    5.2509   -1.2721 C   0  0  0  0  0  0  0  0  0  0  0  0
   -2.1200    3.9429   -1.5854 N   0  0  0  0  0  0  0  0  0  0  0  0
   -2.9947    3.0119   -1.1106 C   0  0  0  0  0  0  0  0  0  0  0  0
   -2.7989    1.6563   -1.3872 O   0  0  0  0  0  0  0  0  0  0  0  0
   -1.6091    1.1716   -2.0058 C   0  0  0  0  0  0  0  0  0  0  0  0
   -1.6519   -0.3460   -2.0939 C   0  0  0  0  0  0  0  0  0  0  0  0
   -4.0994    3.4273   -0.3330 C   0  0  0  0  0  0  0  0  0  0  0  0
   -5.1472    2.4307    0.0805 C   0  0  0  0  0  0  0  0  0  0  0  0
   -6.2935    3.0894    0.7026 N   0  0  0  0  0  0  0  0  0  0  0  0
   -4.2169    4.7427    0.0195 N   0  0  0  0  0  0  0  0  0  0  0  0
   -4.1807    7.7033    0.8203 C   0  0  0  0  0  0  0  0  0  0  0  0
   -4.1978    7.3655    2.1212 C   0  0  0  0  0  0  0  0  0  0  0  0
   -3.2382    6.4277    2.7381 C   0  0  0  0  0  0  0  0  0  0  0  0
   -3.5545    5.4731    3.7041 C   0  0  0  0  0  0  0  0  0  0  0  0
   -2.4569    4.6604    4.0415 C   0  0  0  0  0  0  0  0  0  0  0  0
   -2.4672    3.5349    4.8910 C   0  0  0  0  0  0  0  0  0  0  0  0
   -3.6434    3.1458    5.6889 C   0  0  0  0  0  0  0  0  0  0  0  0
   -3.7138    3.1776    7.3668 S   0  0  0  0  0  0  0  0  0  0  0  0
   -5.2269    2.4441    7.4996 C   0  0  0  0  0  0  0  0  0  0  0  0
   -5.9098    2.1132    8.7952 C   0  0  0  0  0  0  0  0  0  0  0  0
   -6.4695    3.3706    9.4497 C   0  0  0  0  0  0  0  0  0  0  0  0
   -5.6911    2.1574    6.2195 C   0  0  0  0  0  0  0  0  0  0  0  0
   -7.2086    1.3366    5.8857 Cl  0  0  0  0  0  0  0  0  0  0  0  0
   -4.8014    2.5437    5.2089 C   0  0  0  0  0  0  0  0  0  0  0  0
   -5.0533    2.1814    3.5198 Cl  0  0  0  0  0  0  0  0  0  0  0  0
   -1.2929    2.7636    4.9295 C   0  0  0  0  0  0  0  0  0  0  0  0
   -0.1222    3.1212    4.2500 C   0  0  0  0  0  0  0  0  0  0  0  0
   -0.0764    4.3096    3.4971 C   0  0  0  0  0  0  0  0  0  0  0  0
    1.1583    4.7958    2.8556 C   0  0  0  0  0  0  0  0  0  0  0  0
    1.9561    4.0451    1.5759 S   0  0  0  0  0  0  0  0  0  0  0  0
    3.1788    5.1932    1.4326 C   0  0  0  0  0  0  0  0  0  0  0  0
    4.2611    5.1615    0.3997 C   0  0  0  0  0  0  0  0  0  0  0  0
    3.8695    5.9797   -0.8283 C   0  0  0  0  0  0  0  0  0  0  0  0
    2.9591    6.1987    2.3712 C   0  0  0  0  0  0  0  0  0  0  0  0
    1.8305    5.9747    3.1715 C   0  0  0  0  0  0  0  0  0  0  0  0
    1.3469    7.0427    4.4816 Cl  0  0  0  0  0  0  0  0  0  0  0  0
    3.9921    7.6116    2.5445 Cl  0  0  0  0  0  0  0  0  0  0  0  0
   -1.2789    5.0271    3.3800 C   0  0  0  0  0  0  0  0  0  0  0  0
   -1.5899    6.3294    2.3738 S   0  0  0  0  0  0  0  0  0  0  0  0
    0.9003    2.1625    4.3730 C   0  0  0  0  0  0  0  0  0  0  0  0
    0.5037    1.0402    5.0980 C   0  0  0  0  0  0  0  0  0  0  0  0
   -1.0792    1.2575    5.6404 S   0  0  0  0  0  0  0  0  0  0  0  0
    1.2839   -0.1913    5.2774 C   0  0  0  0  0  0  0  0  0  0  0  0
    2.9651   -0.3334    5.1839 S   0  0  0  0  0  0  0  0  0  0  0  0
    3.0597   -1.9947    5.4716 C   0  0  0  0  0  0  0  0  0  0  0  0
    1.7564   -2.4503    5.6669 C   0  0  0  0  0  0  0  0  0  0  0  0
    0.7813   -1.4595    5.5555 C   0  0  0  0  0  0  0  0  0  0  0  0
   -0.5226   -1.7619    5.7512 N   0  0  0  0  0  0  0  0  0  0  0  0
   -0.8983   -3.0363    6.0548 C   0  0  0  0  0  0  0  0  0  0  0  0
   -2.2487   -3.3317    6.2775 O   0  0  0  0  0  0  0  0  0  0  0  0
   -3.2827   -2.3526    6.2072 C   0  0  0  0  0  0  0  0  0  0  0  0
   -3.2433   -1.4141    7.4184 C   0  0  0  0  0  0  0  0  0  0  0  0
    0.0884   -4.0499    6.1518 C   0  0  0  0  0  0  0  0  0  0  0  0
   -0.2784   -5.4715    6.4868 C   0  0  0  0  0  0  0  0  0  0  0  0
    0.5199   -6.4042    5.6997 N   0  0  0  0  0  0  0  0  0  0  0  0
    1.4016   -3.7230    5.9787 N   0  0  0  0  0  0  0  0  0  0  0  0
    4.3032   -2.7382    5.7282 C   0  0  0  0  0  0  0  0  0  0  0  0
    4.5445   -3.9892    5.3177 C   0  0  0  0  0  0  0  0  0  0  0  0
    3.7403   -4.7043    4.3103 C   0  0  0  0  0  0  0  0  0  0  0  0
    3.1304   -4.0507    2.8646 S   0  0  0  0  0  0  0  0  0  0  0  0
    2.5866   -5.5084    2.1936 C   0  0  0  0  0  0  0  0  0  0  0  0
    2.8960   -6.5128    3.1001 C   0  0  0  0  0  0  0  0  0  0  0  0
    3.5409   -6.0752    4.2544 C   0  0  0  0  0  0  0  0  0  0  0  0
    3.9243   -6.9632    5.2014 N   0  0  0  0  0  0  0  0  0  0  0  0
    3.6763   -8.2969    5.0300 C   0  0  0  0  0  0  0  0  0  0  0  0
    4.0507   -9.2199    6.0129 O   0  0  0  0  0  0  0  0  0  0  0  0
    4.7393   -8.8654    7.2118 C   0  0  0  0  0  0  0  0  0  0  0  0
    6.2142   -8.5941    6.9287 C   0  0  0  0  0  0  0  0  0  0  0  0
    3.0329   -8.7458    3.8504 C   0  0  0  0  0  0  0  0  0  0  0  0
    2.6890  -10.1945    3.6492 C   0  0  0  0  0  0  0  0  0  0  0  0
    2.7250  -10.5425    2.2305 N   0  0  0  0  0  0  0  0  0  0  0  0
    2.6500   -7.8315    2.9133 N   0  0  0  0  0  0  0  0  0  0  0  0
    2.0600   -5.7345    0.8350 C   0  0  0  0  0  0  0  0  0  0  0  0
    1.7963   -4.7487   -0.0291 C   0  0  0  0  0  0  0  0  0  0  0  0
    1.4141   -5.0279   -1.4279 C   0  0  0  0  0  0  0  0  0  0  0  0
    1.6420   -6.2126   -2.1305 C   0  0  0  0  0  0  0  0  0  0  0  0
    1.2311   -6.1468   -3.4699 C   0  0  0  0  0  0  0  0  0  0  0  0
    1.3164   -7.1859   -4.4200 C   0  0  0  0  0  0  0  0  0  0  0  0
    1.8075   -8.5335   -4.0729 C   0  0  0  0  0  0  0  0  0  0  0  0
    3.3675   -8.8982   -3.5594 S   0  0  0  0  0  0  0  0  0  0  0  0
    3.1020  -10.5492   -3.3314 C   0  0  0  0  0  0  0  0  0  0  0  0
    4.1242  -11.5149   -2.8074 C   0  0  0  0  0  0  0  0  0  0  0  0
    5.3423  -11.5835   -3.7218 C   0  0  0  0  0  0  0  0  0  0  0  0
    1.7707  -10.8262   -3.6336 C   0  0  0  0  0  0  0  0  0  0  0  0
    1.0531  -12.4289   -3.5187 Cl  0  0  0  0  0  0  0  0  0  0  0  0
    1.0461   -9.6988   -4.0494 C   0  0  0  0  0  0  0  0  0  0  0  0
   -0.6668   -9.7450   -4.4410 Cl  0  0  0  0  0  0  0  0  0  0  0  0
    0.8565   -6.8974   -5.7159 C   0  0  0  0  0  0  0  0  0  0  0  0
    0.2884   -5.6673   -6.0605 C   0  0  0  0  0  0  0  0  0  0  0  0
    0.1491   -4.6485   -5.0956 C   0  0  0  0  0  0  0  0  0  0  0  0
   -0.5780   -3.3998   -5.3829 C   0  0  0  0  0  0  0  0  0  0  0  0
    0.0914   -1.8628   -5.3429 S   0  0  0  0  0  0  0  0  0  0  0  0
   -1.3317   -1.0324   -5.6738 C   0  0  0  0  0  0  0  0  0  0  0  0
   -1.4280    0.4537   -5.8276 C   0  0  0  0  0  0  0  0  0  0  0  0
   -1.2675    0.8532   -7.2900 C   0  0  0  0  0  0  0  0  0  0  0  0
   -2.3564   -1.9623   -5.8419 C   0  0  0  0  0  0  0  0  0  0  0  0
   -1.9360   -3.2902   -5.6698 C   0  0  0  0  0  0  0  0  0  0  0  0
   -3.0227   -4.6694   -5.7572 Cl  0  0  0  0  0  0  0  0  0  0  0  0
   -4.0163   -1.5194   -6.2147 Cl  0  0  0  0  0  0  0  0  0  0  0  0
    0.6693   -4.9118   -3.8140 C   0  0  0  0  0  0  0  0  0  0  0  0
    0.6964   -3.9053   -2.4588 S   0  0  0  0  0  0  0  0  0  0  0  0
   -0.0818   -5.5882   -7.4139 C   0  0  0  0  0  0  0  0  0  0  0  0
    0.2037   -6.7484   -8.1268 C   0  0  0  0  0  0  0  0  0  0  0  0
    0.9032   -7.8744   -7.0838 S   0  0  0  0  0  0  0  0  0  0  0  0
    6.3275    4.9648   -7.0977 H   0  0  0  0  0  0  0  0  0  0  0  0
    4.7501    7.0332   -6.9697 H   0  0  0  0  0  0  0  0  0  0  0  0
    1.9073   11.9802   -8.3934 H   0  0  0  0  0  0  0  0  0  0  0  0
    0.4149   10.9831   -8.4686 H   0  0  0  0  0  0  0  0  0  0  0  0
   -0.3258   11.8204   -6.2549 H   0  0  0  0  0  0  0  0  0  0  0  0
    1.1861   12.8074   -6.0967 H   0  0  0  0  0  0  0  0  0  0  0  0
   -0.0138   13.1886   -7.3915 H   0  0  0  0  0  0  0  0  0  0  0  0
    2.4449    0.6119    0.3082 H   0  0  0  0  0  0  0  0  0  0  0  0
    2.3668   -0.8416   -0.7389 H   0  0  0  0  0  0  0  0  0  0  0  0
    4.9214    0.7919   -0.1227 H   0  0  0  0  0  0  0  0  0  0  0  0
    4.4622   -0.7823    0.6273 H   0  0  0  0  0  0  0  0  0  0  0  0
    4.8377   -0.7087   -1.1350 H   0  0  0  0  0  0  0  0  0  0  0  0
    0.2922    4.1060   -2.2607 H   0  0  0  0  0  0  0  0  0  0  0  0
   -0.7247    1.4727   -1.3991 H   0  0  0  0  0  0  0  0  0  0  0  0
   -1.5086    1.6039   -3.0260 H   0  0  0  0  0  0  0  0  0  0  0  0
   -0.6716   -0.7236   -2.4546 H   0  0  0  0  0  0  0  0  0  0  0  0
   -1.8558   -0.7777   -1.0913 H   0  0  0  0  0  0  0  0  0  0  0  0
   -2.4442   -0.6616   -2.8019 H   0  0  0  0  0  0  0  0  0  0  0  0
   -4.6919    1.7080    0.7911 H   0  0  0  0  0  0  0  0  0  0  0  0
   -5.4842    1.8618   -0.8130 H   0  0  0  0  0  0  0  0  0  0  0  0
   -6.9828    2.3446    0.9589 H   0  0  0  0  0  0  0  0  0  0  0  0
   -6.7628    3.6804   -0.0215 H   0  0  0  0  0  0  0  0  0  0  0  0
   -4.8478    8.4851    0.4768 H   0  0  0  0  0  0  0  0  0  0  0  0
   -4.9383    7.8184    2.7680 H   0  0  0  0  0  0  0  0  0  0  0  0
   -4.5515    5.3312    4.0971 H   0  0  0  0  0  0  0  0  0  0  0  0
   -6.7396    1.3961    8.6240 H   0  0  0  0  0  0  0  0  0  0  0  0
   -5.1856    1.6265    9.4828 H   0  0  0  0  0  0  0  0  0  0  0  0
   -5.6402    4.0214    9.8119 H   0  0  0  0  0  0  0  0  0  0  0  0
   -7.1057    3.9315    8.7331 H   0  0  0  0  0  0  0  0  0  0  0  0
   -7.0997    3.0830   10.3207 H   0  0  0  0  0  0  0  0  0  0  0  0
    4.4516    4.1092    0.0972 H   0  0  0  0  0  0  0  0  0  0  0  0
    5.2053    5.5569    0.8293 H   0  0  0  0  0  0  0  0  0  0  0  0
    3.8633    7.0608   -0.5815 H   0  0  0  0  0  0  0  0  0  0  0  0
    2.8627    5.6868   -1.1828 H   0  0  0  0  0  0  0  0  0  0  0  0
    4.6029    5.8042   -1.6436 H   0  0  0  0  0  0  0  0  0  0  0  0
    1.8703    2.2462    3.9032 H   0  0  0  0  0  0  0  0  0  0  0  0
   -4.2682   -2.8680    6.1788 H   0  0  0  0  0  0  0  0  0  0  0  0
   -3.1911   -1.7679    5.2657 H   0  0  0  0  0  0  0  0  0  0  0  0
   -2.3298   -1.5796    8.0280 H   0  0  0  0  0  0  0  0  0  0  0  0
   -4.1314   -1.5838    8.0628 H   0  0  0  0  0  0  0  0  0  0  0  0
   -3.2574   -0.3589    7.0755 H   0  0  0  0  0  0  0  0  0  0  0  0
   -0.0785   -5.6410    7.5671 H   0  0  0  0  0  0  0  0  0  0  0  0
   -1.3567   -5.6640    6.2917 H   0  0  0  0  0  0  0  0  0  0  0  0
    0.3287   -6.2207    4.6844 H   0  0  0  0  0  0  0  0  0  0  0  0
    0.1735   -7.3743    5.8986 H   0  0  0  0  0  0  0  0  0  0  0  0
    5.0370   -2.2592    6.3668 H   0  0  0  0  0  0  0  0  0  0  0  0
    5.4241   -4.4931    5.6999 H   0  0  0  0  0  0  0  0  0  0  0  0
    4.2648   -7.9785    7.6863 H   0  0  0  0  0  0  0  0  0  0  0  0
    4.6670   -9.7128    7.9237 H   0  0  0  0  0  0  0  0  0  0  0  0
    6.7357   -8.3586    7.8821 H   0  0  0  0  0  0  0  0  0  0  0  0
    6.3284   -7.7311    6.2434 H   0  0  0  0  0  0  0  0  0  0  0  0
    6.6814   -9.4901    6.4684 H   0  0  0  0  0  0  0  0  0  0  0  0
    1.6633  -10.3656    4.0406 H   0  0  0  0  0  0  0  0  0  0  0  0
    3.3920  -10.8534    4.2073 H   0  0  0  0  0  0  0  0  0  0  0  0
    3.7211  -10.5056    1.9143 H   0  0  0  0  0  0  0  0  0  0  0  0
    2.4193  -11.5394    2.1360 H   0  0  0  0  0  0  0  0  0  0  0  0
    1.9127   -6.7667    0.5357 H   0  0  0  0  0  0  0  0  0  0  0  0
    1.8757   -3.7182    0.2821 H   0  0  0  0  0  0  0  0  0  0  0  0
    2.1061   -7.0857   -1.6968 H   0  0  0  0  0  0  0  0  0  0  0  0
    4.4421  -11.1932   -1.7923 H   0  0  0  0  0  0  0  0  0  0  0  0
    3.6891  -12.5304   -2.7211 H   0  0  0  0  0  0  0  0  0  0  0  0
    5.8478  -10.5974   -3.7673 H   0  0  0  0  0  0  0  0  0  0  0  0
    5.0393  -11.8925   -4.7463 H   0  0  0  0  0  0  0  0  0  0  0  0
    6.0640  -12.3302   -3.3246 H   0  0  0  0  0  0  0  0  0  0  0  0
   -0.6279    0.9340   -5.2249 H   0  0  0  0  0  0  0  0  0  0  0  0
   -2.4084    0.8106   -5.4441 H   0  0  0  0  0  0  0  0  0  0  0  0
   -0.3434    0.4078   -7.7131 H   0  0  0  0  0  0  0  0  0  0  0  0
   -2.1466    0.5147   -7.8754 H   0  0  0  0  0  0  0  0  0  0  0  0
   -1.2009    1.9584   -7.3627 H   0  0  0  0  0  0  0  0  0  0  0  0
   -0.5195   -4.7123   -7.8715 H   0  0  0  0  0  0  0  0  0  0  0  0
    0.0119   -6.8992   -9.1810 H   0  0  0  0  0  0  0  0  0  0  0  0
  1  2  2  0
  2  3  1  0
  3  4  2  0
  4  5  1  0
  5  6  1  0
  6  7  1  0
  7  8  1  0
  8  9  1  0
  7 10  2  0
 10 11  1  0
 10 12  1  0
 12 13  1  0
  4 14  1  0
 14 15  2  0
 15 16  1  0
 16 17  1  0
 17 18  1  0
 18 19  1  0
 19 20  1  0
 20 21  1  0
 19 22  2  0
 22 23  1  0
 23 24  1  0
 22 25  1  0
 16 26  2  0
 26 27  1  0
 15 28  1  0
 28 29  2  0
 29 30  1  0
 29 31  1  0
 31 32  1  0
 32 33  1  0
 33 34  2  0
 34 35  1  0
 35 36  1  0
 36 37  2  0
 37 38  1  0
 38 39  1  0
 39 40  1  0
 37 41  1  0
 41 42  1  0
 42 43  1  0
 41 44  2  0
 33 45  1  0
 45 46  2  3
 46 47  1  0
 47 48  2  0
 48 49  1  0
 49 50  2  0
 50 51  1  0
 51 52  1  0
 52 53  1  0
 53 54  1  0
 54 55  1  0
 53 56  2  0
 56 57  1  0
 56 58  1  0
 58 59  1  0
 50 60  1  0
 60 61  2  0
 61 62  1  0
 62 63  1  0
 63 64  1  0
 64 65  1  0
 65 66  1  0
 66 67  1  0
 65 68  2  0
 68 69  1  0
 69 70  1  0
 68 71  1  0
 62 72  2  0
 72 73  1  0
 61 74  1  0
 74 75  2  0
 75 76  1  0
 75 77  1  0
 77 78  1  0
 78 79  1  0
 79 80  2  0
 80 81  1  0
 81 82  1  0
 82 83  2  0
 83 84  1  0
 84 85  1  0
 85 86  1  0
 83 87  1  0
 87 88  1  0
 88 89  1  0
 87 90  2  0
 79 91  1  0
 91 92  2  3
 92 93  1  0
 93 94  1  0
 94 95  1  0
 95 96  2  0
 96 97  1  0
 97 98  1  0
 98 99  2  0
 99100  1  0
100101  1  0
101102  1  0
 99103  1  0
103104  1  0
104105  1  0
103106  2  0
 95107  1  0
107108  2  3
108109  1  0
109110  2  0
110111  1  0
111112  2  0
112113  1  0
113114  1  0
114115  1  0
115116  1  0
116117  1  0
115118  2  0
118119  1  0
118120  1  0
120121  1  0
112122  1  0
122123  2  0
123124  1  0
124125  1  0
125126  1  0
126127  1  0
127128  1  0
128129  1  0
127130  2  0
130131  1  0
131132  1  0
130133  1  0
124134  2  0
134135  1  0
123136  1  0
136137  2  0
137138  1  0
 27  1  1  0
 35 31  2  0
 73 47  1  0
 81 77  2  0
 97 93  2  0
135109  1  0
 26  3  1  0
 44 34  1  0
 72 49  1  0
 90 80  1  0
106 96  1  0
134111  1  0
 12  5  2  0
 30 14  1  0
 58 51  2  0
 76 60  1  0
120113  2  0
138122  1  0
 23 17  2  0
 69 63  2  0
131125  2  0
  1139  1  0
  2140  1  0
  8141  1  0
  8142  1  0
  9143  1  0
  9144  1  0
  9145  1  0
 20146  1  0
 20147  1  0
 21148  1  0
 21149  1  0
 21150  1  0
 28151  1  0
 39152  1  0
 39153  1  0
 40154  1  0
 40155  1  0
 40156  1  0
 42157  1  0
 42158  1  0
 43159  1  0
 43160  1  0
 45161  1  0
 46162  1  0
 48163  1  0
 54164  1  0
 54165  1  0
 55166  1  0
 55167  1  0
 55168  1  0
 66169  1  0
 66170  1  0
 67171  1  0
 67172  1  0
 67173  1  0
 74174  1  0
 85175  1  0
 85176  1  0
 86177  1  0
 86178  1  0
 86179  1  0
 88180  1  0
 88181  1  0
 89182  1  0
 89183  1  0
 91184  1  0
 92185  1  0
101186  1  0
101187  1  0
102188  1  0
102189  1  0
102190  1  0
104191  1  0
104192  1  0
105193  1  0
105194  1  0
107195  1  0
108196  1  0
110197  1  0
116198  1  0
116199  1  0
117200  1  0
117201  1  0
117202  1  0
128203  1  0
128204  1  0
129205  1  0
129206  1  0
129207  1  0
136208  1  0
137209  1  0
M  END

