
     RDKit          3D

113124  0  0  0  0  0  0  0  0999 V2000
    6.7267    5.7350   -0.4230 C   0  0  0  0  0  0  0  0  0  0  0  0
    5.3598    5.4235    0.5392 S   0  0  0  0  0  0  0  0  0  0  0  0
    5.3760    3.7245    0.4512 C   0  0  0  0  0  0  0  0  0  0  0  0
    6.4660    3.4288   -0.3440 C   0  0  0  0  0  0  0  0  0  0  0  0
    7.1692    4.4811   -0.8000 C   0  0  0  0  0  0  0  0  0  0  0  0
    8.2170    4.0505   -1.5854 O   0  0  0  0  0  0  0  0  0  0  0  0
    8.1534    2.6097   -1.6166 C   0  0  0  0  0  0  0  0  0  0  0  0
    7.0146    2.2518   -0.8062 O   0  0  0  0  0  0  0  0  0  0  0  0
    4.4299    2.7765    1.0608 C   0  0  0  0  0  0  0  0  0  0  0  0
    4.5218    1.0948    0.9530 S   0  0  0  0  0  0  0  0  0  0  0  0
    3.1204    0.7333    1.8214 C   0  0  0  0  0  0  0  0  0  0  0  0
    2.5513    1.9529    2.1940 C   0  0  0  0  0  0  0  0  0  0  0  0
    3.2779    3.0732    1.7803 C   0  0  0  0  0  0  0  0  0  0  0  0
    2.8206    4.3201    2.0476 N   0  0  0  0  0  0  0  0  0  0  0  0
    1.6494    4.4953    2.7259 C   0  0  0  0  0  0  0  0  0  0  0  0
    1.1693    5.7855    2.9897 O   0  0  0  0  0  0  0  0  0  0  0  0
    1.8308    6.9769    2.5655 C   0  0  0  0  0  0  0  0  0  0  0  0
    1.6190    7.2117    1.0745 C   0  0  0  0  0  0  0  0  0  0  0  0
    0.9168    3.3626    3.1556 C   0  0  0  0  0  0  0  0  0  0  0  0
   -0.4028    3.5243    3.8639 C   0  0  0  0  0  0  0  0  0  0  0  0
   -0.7441    2.3247    4.6260 N   0  0  0  0  0  0  0  0  0  0  0  0
    1.3807    2.1138    2.8574 N   0  0  0  0  0  0  0  0  0  0  0  0
    2.6184   -0.6415    2.0108 C   0  0  0  0  0  0  0  0  0  0  0  0
    1.6467   -0.9752    2.8701 C   0  0  0  0  0  0  0  0  0  0  0  0
    1.1193   -2.3498    3.0006 C   0  0  0  0  0  0  0  0  0  0  0  0
    0.1798   -2.8786    4.3065 S   0  0  0  0  0  0  0  0  0  0  0  0
   -0.1511   -4.4249    3.7229 C   0  0  0  0  0  0  0  0  0  0  0  0
    0.4889   -4.5480    2.4942 C   0  0  0  0  0  0  0  0  0  0  0  0
    1.1722   -3.4038    2.0848 C   0  0  0  0  0  0  0  0  0  0  0  0
    1.7722   -3.3739    0.8701 N   0  0  0  0  0  0  0  0  0  0  0  0
    1.7355   -4.4662    0.0522 C   0  0  0  0  0  0  0  0  0  0  0  0
    2.3598   -4.4369   -1.2014 O   0  0  0  0  0  0  0  0  0  0  0  0
    3.0883   -3.3159   -1.6989 C   0  0  0  0  0  0  0  0  0  0  0  0
    4.4664   -3.2358   -1.0521 C   0  0  0  0  0  0  0  0  0  0  0  0
    1.0562   -5.6320    0.4751 C   0  0  0  0  0  0  0  0  0  0  0  0
    1.0152   -6.8548   -0.4038 C   0  0  0  0  0  0  0  0  0  0  0  0
    0.0541   -7.8370    0.0927 N   0  0  0  0  0  0  0  0  0  0  0  0
    0.4508   -5.6446    1.6981 N   0  0  0  0  0  0  0  0  0  0  0  0
   -1.0094   -5.4201    4.3902 C   0  0  0  0  0  0  0  0  0  0  0  0
   -1.9959   -6.0944    3.7790 C   0  0  0  0  0  0  0  0  0  0  0  0
   -2.4886   -5.7865    2.4248 C   0  0  0  0  0  0  0  0  0  0  0  0
   -2.6645   -4.2569    1.6949 S   0  0  0  0  0  0  0  0  0  0  0  0
   -3.2309   -4.7871    0.1848 C   0  0  0  0  0  0  0  0  0  0  0  0
   -3.2935   -6.1661    0.2872 C   0  0  0  0  0  0  0  0  0  0  0  0
   -2.9167   -6.6881    1.4696 C   0  0  0  0  0  0  0  0  0  0  0  0
   -3.0133   -8.0626    1.4381 O   0  0  0  0  0  0  0  0  0  0  0  0
   -3.4967   -8.4184    0.1268 C   0  0  0  0  0  0  0  0  0  0  0  0
   -3.6611   -7.1720   -0.5793 O   0  0  0  0  0  0  0  0  0  0  0  0
   -3.5184   -3.9365   -0.9747 C   0  0  0  0  0  0  0  0  0  0  0  0
   -3.4648   -2.2385   -1.0108 S   0  0  0  0  0  0  0  0  0  0  0  0
   -3.8423   -2.0288   -2.6568 C   0  0  0  0  0  0  0  0  0  0  0  0
   -3.9996   -3.3115   -3.1506 C   0  0  0  0  0  0  0  0  0  0  0  0
   -3.8242   -4.3140   -2.2702 C   0  0  0  0  0  0  0  0  0  0  0  0
   -3.9901   -5.5299   -2.8966 O   0  0  0  0  0  0  0  0  0  0  0  0
   -4.2881   -5.2558   -4.2795 C   0  0  0  0  0  0  0  0  0  0  0  0
   -4.2876   -3.8200   -4.3986 O   0  0  0  0  0  0  0  0  0  0  0  0
   -3.9672   -0.7605   -3.3917 C   0  0  0  0  0  0  0  0  0  0  0  0
   -4.3352   -0.6020   -5.0336 S   0  0  0  0  0  0  0  0  0  0  0  0
   -4.3201    1.0907   -5.0958 C   0  0  0  0  0  0  0  0  0  0  0  0
   -4.0241    1.5419   -3.8163 C   0  0  0  0  0  0  0  0  0  0  0  0
   -3.8272    0.5255   -2.8805 C   0  0  0  0  0  0  0  0  0  0  0  0
   -3.5385    0.8332   -1.5930 N   0  0  0  0  0  0  0  0  0  0  0  0
   -3.4407    2.1369   -1.2003 C   0  0  0  0  0  0  0  0  0  0  0  0
   -3.1569    2.4554    0.1345 O   0  0  0  0  0  0  0  0  0  0  0  0
   -2.9734    1.4766    1.1557 C   0  0  0  0  0  0  0  0  0  0  0  0
   -4.3089    0.8783    1.5818 C   0  0  0  0  0  0  0  0  0  0  0  0
   -3.6276    3.1688   -2.1512 C   0  0  0  0  0  0  0  0  0  0  0  0
   -3.5610    4.6139   -1.7312 C   0  0  0  0  0  0  0  0  0  0  0  0
   -3.4864    5.5010   -2.8907 N   0  0  0  0  0  0  0  0  0  0  0  0
   -3.9283    2.8429   -3.4442 N   0  0  0  0  0  0  0  0  0  0  0  0
   -4.5706    1.9396   -6.2731 C   0  0  0  0  0  0  0  0  0  0  0  0
   -4.8415    1.4350   -7.4753 C   0  0  0  0  0  0  0  0  0  0  0  0
    7.1490    6.6927   -0.6937 H   0  0  0  0  0  0  0  0  0  0  0  0
    8.0071    2.2574   -2.6599 H   0  0  0  0  0  0  0  0  0  0  0  0
    9.0813    2.1776   -1.1834 H   0  0  0  0  0  0  0  0  0  0  0  0
    1.4028    7.8354    3.1243 H   0  0  0  0  0  0  0  0  0  0  0  0
    2.9159    6.9221    2.7988 H   0  0  0  0  0  0  0  0  0  0  0  0
    0.5331    7.2629    0.8479 H   0  0  0  0  0  0  0  0  0  0  0  0
    2.0764    6.3932    0.4821 H   0  0  0  0  0  0  0  0  0  0  0  0
    2.0952    8.1712    0.7786 H   0  0  0  0  0  0  0  0  0  0  0  0
   -0.3449    4.3850    4.5646 H   0  0  0  0  0  0  0  0  0  0  0  0
   -1.1953    3.7397    3.1151 H   0  0  0  0  0  0  0  0  0  0  0  0
   -1.6104    2.5335    5.1734 H   0  0  0  0  0  0  0  0  0  0  0  0
   -1.0033    1.5659    3.9528 H   0  0  0  0  0  0  0  0  0  0  0  0
    3.1113   -1.4083    1.4327 H   0  0  0  0  0  0  0  0  0  0  0  0
    1.2325   -0.2363    3.5393 H   0  0  0  0  0  0  0  0  0  0  0  0
    3.2151   -3.4374   -2.7958 H   0  0  0  0  0  0  0  0  0  0  0  0
    2.5230   -2.3750   -1.5217 H   0  0  0  0  0  0  0  0  0  0  0  0
    5.0212   -4.1813   -1.2234 H   0  0  0  0  0  0  0  0  0  0  0  0
    4.3736   -3.0625    0.0386 H   0  0  0  0  0  0  0  0  0  0  0  0
    5.0403   -2.3948   -1.4970 H   0  0  0  0  0  0  0  0  0  0  0  0
    0.7217   -6.5528   -1.4326 H   0  0  0  0  0  0  0  0  0  0  0  0
    2.0291   -7.3073   -0.4486 H   0  0  0  0  0  0  0  0  0  0  0  0
   -0.0354   -8.5904   -0.6280 H   0  0  0  0  0  0  0  0  0  0  0  0
    0.4611   -8.2909    0.9448 H   0  0  0  0  0  0  0  0  0  0  0  0
   -0.8083   -5.6298    5.4332 H   0  0  0  0  0  0  0  0  0  0  0  0
   -2.4814   -6.8982    4.3194 H   0  0  0  0  0  0  0  0  0  0  0  0
   -2.7541   -9.0573   -0.3966 H   0  0  0  0  0  0  0  0  0  0  0  0
   -4.4715   -8.9426    0.2090 H   0  0  0  0  0  0  0  0  0  0  0  0
   -5.2879   -5.6605   -4.5413 H   0  0  0  0  0  0  0  0  0  0  0  0
   -3.5028   -5.6924   -4.9326 H   0  0  0  0  0  0  0  0  0  0  0  0
   -2.5105    1.9685    2.0340 H   0  0  0  0  0  0  0  0  0  0  0  0
   -2.2858    0.6754    0.8079 H   0  0  0  0  0  0  0  0  0  0  0  0
   -4.1455    0.1548    2.4085 H   0  0  0  0  0  0  0  0  0  0  0  0
   -4.7872    0.3447    0.7345 H   0  0  0  0  0  0  0  0  0  0  0  0
   -4.9906    1.6808    1.9360 H   0  0  0  0  0  0  0  0  0  0  0  0
   -2.6729    4.7771   -1.0801 H   0  0  0  0  0  0  0  0  0  0  0  0
   -4.4742    4.8547   -1.1460 H   0  0  0  0  0  0  0  0  0  0  0  0
   -2.5371    5.3983   -3.3206 H   0  0  0  0  0  0  0  0  0  0  0  0
   -3.5495    6.4854   -2.5439 H   0  0  0  0  0  0  0  0  0  0  0  0
   -4.5348    3.0160   -6.1575 H   0  0  0  0  0  0  0  0  0  0  0  0
   -4.8912    0.3674   -7.6485 H   0  0  0  0  0  0  0  0  0  0  0  0
   -5.0213    2.0999   -8.3088 H   0  0  0  0  0  0  0  0  0  0  0  0
  1  2  1  0
  2  3  1  0
  3  4  2  0
  4  5  1  0
  5  6  1  0
  6  7  1  0
  7  8  1  0
  3  9  1  0
  9 10  1  0
 10 11  1  0
 11 12  2  0
 12 13  1  0
 13 14  1  0
 14 15  2  0
 15 16  1  0
 16 17  1  0
 17 18  1  0
 15 19  1  0
 19 20  1  0
 20 21  1  0
 19 22  2  0
 11 23  1  0
 23 24  2  3
 24 25  1  0
 25 26  1  0
 26 27  1  0
 27 28  2  0
 28 29  1  0
 29 30  1  0
 30 31  2  0
 31 32  1  0
 32 33  1  0
 33 34  1  0
 31 35  1  0
 35 36  1  0
 36 37  1  0
 35 38  2  0
 27 39  1  0
 39 40  2  3
 40 41  1  0
 41 42  1  0
 42 43  1  0
 43 44  2  0
 44 45  1  0
 45 46  1  0
 46 47  1  0
 47 48  1  0
 43 49  1  0
 49 50  1  0
 50 51  1  0
 51 52  2  0
 52 53  1  0
 53 54  1  0
 54 55  1  0
 55 56  1  0
 51 57  1  0
 57 58  1  0
 58 59  1  0
 59 60  2  0
 60 61  1  0
 61 62  1  0
 62 63  2  0
 63 64  1  0
 64 65  1  0
 65 66  1  0
 63 67  1  0
 67 68  1  0
 68 69  1  0
 67 70  2  0
 59 71  1  0
 71 72  2  3
  5  1  2  0
 13  9  2  0
 29 25  2  0
 45 41  2  0
 53 49  2  0
 61 57  2  0
  8  4  1  0
 22 12  1  0
 38 28  1  0
 48 44  1  0
 56 52  1  0
 70 60  1  0
  1 73  1  0
  7 74  1  0
  7 75  1  0
 17 76  1  0
 17 77  1  0
 18 78  1  0
 18 79  1  0
 18 80  1  0
 20 81  1  0
 20 82  1  0
 21 83  1  0
 21 84  1  0
 23 85  1  0
 24 86  1  0
 33 87  1  0
 33 88  1  0
 34 89  1  0
 34 90  1  0
 34 91  1  0
 36 92  1  0
 36 93  1  0
 37 94  1  0
 37 95  1  0
 39 96  1  0
 40 97  1  0
 47 98  1  0
 47 99  1  0
 55100  1  0
 55101  1  0
 65102  1  0
 65103  1  0
 66104  1  0
 66105  1  0
 66106  1  0
 68107  1  0
 68108  1  0
 69109  1  0
 69110  1  0
 71111  1  0
 72112  1  0
 72113  1  0
M  END

