
     RDKit          3D

136151  0  0  0  0  0  0  0  0999 V2000
    9.3917   -3.4697   -2.9396 C   0  0  0  0  0  0  0  0  0  0  0  0
    8.9296   -2.4619   -1.6291 S   0  0  0  0  0  0  0  0  0  0  0  0
    7.3107   -2.8636   -1.7848 C   0  0  0  0  0  0  0  0  0  0  0  0
    6.0714   -2.6285   -1.2447 C   0  0  0  0  0  0  0  0  0  0  0  0
    5.2002   -3.3828   -1.9629 C   0  0  0  0  0  0  0  0  0  0  0  0
    5.8198   -4.1024   -2.9343 N   0  0  0  0  0  0  0  0  0  0  0  0
    5.2162   -5.0180   -3.9076 C   0  0  0  0  0  0  0  0  0  0  0  0
    4.6638   -4.2311   -5.0873 C   0  0  0  0  0  0  0  0  0  0  0  0
    7.1236   -3.7447   -2.8025 C   0  0  0  0  0  0  0  0  0  0  0  0
    8.2734   -4.1159   -3.4813 C   0  0  0  0  0  0  0  0  0  0  0  0
    3.8729   -3.2906   -1.5725 C   0  0  0  0  0  0  0  0  0  0  0  0
    3.7407   -2.4036   -0.4888 C   0  0  0  0  0  0  0  0  0  0  0  0
    5.2830   -1.7588   -0.0481 S   0  0  0  0  0  0  0  0  0  0  0  0
    2.4578   -2.0564    0.1641 C   0  0  0  0  0  0  0  0  0  0  0  0
    0.9319   -2.7382   -0.2566 S   0  0  0  0  0  0  0  0  0  0  0  0
    0.1064   -1.7979    0.8582 C   0  0  0  0  0  0  0  0  0  0  0  0
   -1.1467   -1.5399    1.3469 C   0  0  0  0  0  0  0  0  0  0  0  0
   -0.9933   -0.5718    2.2887 C   0  0  0  0  0  0  0  0  0  0  0  0
    0.3053   -0.1912    2.4277 N   0  0  0  0  0  0  0  0  0  0  0  0
    0.8750    0.7308    3.4062 C   0  0  0  0  0  0  0  0  0  0  0  0
    1.0385    0.0203    4.7471 C   0  0  0  0  0  0  0  0  0  0  0  0
    0.9581   -0.9796    1.5340 C   0  0  0  0  0  0  0  0  0  0  0  0
    2.2991   -1.0954    1.1794 C   0  0  0  0  0  0  0  0  0  0  0  0
   -2.1571   -0.1635    2.9138 C   0  0  0  0  0  0  0  0  0  0  0  0
   -3.2624   -0.8669    2.4118 C   0  0  0  0  0  0  0  0  0  0  0  0
   -2.7493   -1.9848    1.2022 S   0  0  0  0  0  0  0  0  0  0  0  0
   -4.6837   -0.5942    2.7345 C   0  0  0  0  0  0  0  0  0  0  0  0
   -6.0003   -1.3122    1.9453 S   0  0  0  0  0  0  0  0  0  0  0  0
   -7.2128   -0.2664    2.5016 C   0  0  0  0  0  0  0  0  0  0  0  0
   -6.6163    0.5548    3.4511 C   0  0  0  0  0  0  0  0  0  0  0  0
   -5.2252    0.3816    3.5639 C   0  0  0  0  0  0  0  0  0  0  0  0
   -4.5216    1.1249    4.4452 N   0  0  0  0  0  0  0  0  0  0  0  0
   -5.1524    2.0468    5.2217 C   0  0  0  0  0  0  0  0  0  0  0  0
   -4.4058    2.7921    6.1394 O   0  0  0  0  0  0  0  0  0  0  0  0
   -3.0074    2.5878    6.3140 C   0  0  0  0  0  0  0  0  0  0  0  0
   -2.4939    3.5325    7.3915 C   0  0  0  0  0  0  0  0  0  0  0  0
   -6.5552    2.2318    5.1072 C   0  0  0  0  0  0  0  0  0  0  0  0
   -7.2891    3.2399    5.9456 C   0  0  0  0  0  0  0  0  0  0  0  0
   -8.3551    2.5817    6.6952 N   0  0  0  0  0  0  0  0  0  0  0  0
   -7.2580    1.4907    4.1949 N   0  0  0  0  0  0  0  0  0  0  0  0
   -8.6168   -0.1729    2.0126 C   0  0  0  0  0  0  0  0  0  0  0  0
   -9.0071   -0.3440    0.7285 C   0  0  0  0  0  0  0  0  0  0  0  0
   -8.0687   -0.5684   -0.3866 C   0  0  0  0  0  0  0  0  0  0  0  0
   -6.7471    0.4068   -0.7378 S   0  0  0  0  0  0  0  0  0  0  0  0
   -5.7564   -0.7886   -1.4429 C   0  0  0  0  0  0  0  0  0  0  0  0
   -6.5067   -1.9565   -1.4571 C   0  0  0  0  0  0  0  0  0  0  0  0
   -7.7971   -1.8100   -0.9278 C   0  0  0  0  0  0  0  0  0  0  0  0
   -8.6862   -2.8242   -1.0000 N   0  0  0  0  0  0  0  0  0  0  0  0
   -8.2980   -4.0178   -1.5527 C   0  0  0  0  0  0  0  0  0  0  0  0
   -9.2562   -4.8947   -2.0559 O   0  0  0  0  0  0  0  0  0  0  0  0
   -9.7347   -4.7202   -3.3943 C   0  0  0  0  0  0  0  0  0  0  0  0
   -8.6481   -4.8824   -4.4669 C   0  0  0  0  0  0  0  0  0  0  0  0
   -6.9057   -4.2479   -1.7661 C   0  0  0  0  0  0  0  0  0  0  0  0
   -6.3998   -5.6368   -2.0508 C   0  0  0  0  0  0  0  0  0  0  0  0
   -5.0864   -5.8154   -1.4400 N   0  0  0  0  0  0  0  0  0  0  0  0
   -6.0497   -3.1865   -1.7959 N   0  0  0  0  0  0  0  0  0  0  0  0
   -4.3053   -0.6379   -1.7035 C   0  0  0  0  0  0  0  0  0  0  0  0
   -3.6888    0.5094   -1.4063 C   0  0  0  0  0  0  0  0  0  0  0  0
   -2.2328    0.6946   -1.3833 C   0  0  0  0  0  0  0  0  0  0  0  0
   -1.0485   -0.1949   -2.2678 S   0  0  0  0  0  0  0  0  0  0  0  0
    0.2098    0.7129   -1.6118 C   0  0  0  0  0  0  0  0  0  0  0  0
    1.5708    0.8976   -1.6669 C   0  0  0  0  0  0  0  0  0  0  0  0
    1.8463    1.9306   -0.8238 C   0  0  0  0  0  0  0  0  0  0  0  0
    0.7309    2.4179   -0.2222 N   0  0  0  0  0  0  0  0  0  0  0  0
    0.5964    3.6098    0.6116 C   0  0  0  0  0  0  0  0  0  0  0  0
    0.3092    4.8278   -0.2610 C   0  0  0  0  0  0  0  0  0  0  0  0
   -0.2571    1.6485   -0.7443 C   0  0  0  0  0  0  0  0  0  0  0  0
   -1.6261    1.6860   -0.6012 C   0  0  0  0  0  0  0  0  0  0  0  0
    3.1770    2.3110   -0.7696 C   0  0  0  0  0  0  0  0  0  0  0  0
    3.9560    1.5094   -1.6185 C   0  0  0  0  0  0  0  0  0  0  0  0
    2.9589    0.3648   -2.4428 S   0  0  0  0  0  0  0  0  0  0  0  0
    5.4194    1.6362   -1.7698 C   0  0  0  0  0  0  0  0  0  0  0  0
    6.3788    2.7880   -0.9185 S   0  0  0  0  0  0  0  0  0  0  0  0
    7.7922    2.2553   -1.6287 C   0  0  0  0  0  0  0  0  0  0  0  0
    9.1283    2.5319   -1.7129 C   0  0  0  0  0  0  0  0  0  0  0  0
    9.6398    1.6717   -2.6338 C   0  0  0  0  0  0  0  0  0  0  0  0
    8.6908    0.8423   -3.1441 N   0  0  0  0  0  0  0  0  0  0  0  0
    8.8228   -0.1144   -4.2403 C   0  0  0  0  0  0  0  0  0  0  0  0
    8.7354    0.6060   -5.5796 C   0  0  0  0  0  0  0  0  0  0  0  0
    7.5585    1.2395   -2.5057 C   0  0  0  0  0  0  0  0  0  0  0  0
    6.2237    0.8584   -2.6210 C   0  0  0  0  0  0  0  0  0  0  0  0
   10.9832    1.8514   -2.9273 C   0  0  0  0  0  0  0  0  0  0  0  0
   11.5116    2.9063   -2.1682 C   0  0  0  0  0  0  0  0  0  0  0  0
   10.2923    3.6035   -1.1779 S   0  0  0  0  0  0  0  0  0  0  0  0
   10.4099   -3.5979   -3.2949 H   0  0  0  0  0  0  0  0  0  0  0  0
    5.9776   -5.7419   -4.2621 H   0  0  0  0  0  0  0  0  0  0  0  0
    4.3982   -5.5890   -3.4208 H   0  0  0  0  0  0  0  0  0  0  0  0
    4.2595   -4.9425   -5.8423 H   0  0  0  0  0  0  0  0  0  0  0  0
    3.8468   -3.5592   -4.7563 H   0  0  0  0  0  0  0  0  0  0  0  0
    5.4645   -3.6288   -5.5637 H   0  0  0  0  0  0  0  0  0  0  0  0
    8.3084   -4.8142   -4.3154 H   0  0  0  0  0  0  0  0  0  0  0  0
    3.0497   -3.8222   -2.0392 H   0  0  0  0  0  0  0  0  0  0  0  0
    0.2004    1.6027    3.5260 H   0  0  0  0  0  0  0  0  0  0  0  0
    1.8634    1.0992    3.0540 H   0  0  0  0  0  0  0  0  0  0  0  0
    1.7184   -0.8516    4.6369 H   0  0  0  0  0  0  0  0  0  0  0  0
    1.4696    0.7208    5.4852 H   0  0  0  0  0  0  0  0  0  0  0  0
    0.0556   -0.3320    5.1151 H   0  0  0  0  0  0  0  0  0  0  0  0
    3.1111   -0.5139    1.6077 H   0  0  0  0  0  0  0  0  0  0  0  0
   -2.1933    0.6217    3.6627 H   0  0  0  0  0  0  0  0  0  0  0  0
   -2.4722    2.7917    5.3675 H   0  0  0  0  0  0  0  0  0  0  0  0
   -2.8228    1.5429    6.6366 H   0  0  0  0  0  0  0  0  0  0  0  0
   -1.4012    3.3870    7.5240 H   0  0  0  0  0  0  0  0  0  0  0  0
   -3.0092    3.3287    8.3588 H   0  0  0  0  0  0  0  0  0  0  0  0
   -2.6814    4.5879    7.0895 H   0  0  0  0  0  0  0  0  0  0  0  0
   -7.7162    4.0271    5.2895 H   0  0  0  0  0  0  0  0  0  0  0  0
   -6.6063    3.7315    6.6727 H   0  0  0  0  0  0  0  0  0  0  0  0
   -8.8053    3.2859    7.3224 H   0  0  0  0  0  0  0  0  0  0  0  0
   -9.0885    2.2669    6.0197 H   0  0  0  0  0  0  0  0  0  0  0  0
   -9.3852    0.0782    2.7457 H   0  0  0  0  0  0  0  0  0  0  0  0
  -10.0660   -0.3150    0.4972 H   0  0  0  0  0  0  0  0  0  0  0  0
  -10.2364   -3.7308   -3.4929 H   0  0  0  0  0  0  0  0  0  0  0  0
  -10.5181   -5.4862   -3.5894 H   0  0  0  0  0  0  0  0  0  0  0  0
   -9.0454   -4.5906   -5.4598 H   0  0  0  0  0  0  0  0  0  0  0  0
   -7.7908   -4.2240   -4.2478 H   0  0  0  0  0  0  0  0  0  0  0  0
   -8.2965   -5.9379   -4.4991 H   0  0  0  0  0  0  0  0  0  0  0  0
   -6.3417   -5.8125   -3.1448 H   0  0  0  0  0  0  0  0  0  0  0  0
   -7.1102   -6.3813   -1.6171 H   0  0  0  0  0  0  0  0  0  0  0  0
   -4.3659   -5.4268   -2.0856 H   0  0  0  0  0  0  0  0  0  0  0  0
   -4.9093   -6.8424   -1.3677 H   0  0  0  0  0  0  0  0  0  0  0  0
   -3.7361   -1.5011   -2.0201 H   0  0  0  0  0  0  0  0  0  0  0  0
   -4.2608    1.3484   -1.0382 H   0  0  0  0  0  0  0  0  0  0  0  0
    1.5288    3.7705    1.1881 H   0  0  0  0  0  0  0  0  0  0  0  0
   -0.2386    3.4607    1.3327 H   0  0  0  0  0  0  0  0  0  0  0  0
   -0.6447    4.6773   -0.8176 H   0  0  0  0  0  0  0  0  0  0  0  0
    1.1377    4.9797   -0.9835 H   0  0  0  0  0  0  0  0  0  0  0  0
    0.2136    5.7298    0.3774 H   0  0  0  0  0  0  0  0  0  0  0  0
   -2.1705    2.3803    0.0375 H   0  0  0  0  0  0  0  0  0  0  0  0
    3.5640    3.1150   -0.1529 H   0  0  0  0  0  0  0  0  0  0  0  0
    9.7936   -0.6424   -4.1550 H   0  0  0  0  0  0  0  0  0  0  0  0
    8.0079   -0.8679   -4.1734 H   0  0  0  0  0  0  0  0  0  0  0  0
    8.7421   -0.1409   -6.3976 H   0  0  0  0  0  0  0  0  0  0  0  0
    9.6053    1.2830   -5.7003 H   0  0  0  0  0  0  0  0  0  0  0  0
    7.8008    1.1958   -5.6312 H   0  0  0  0  0  0  0  0  0  0  0  0
    5.8561    0.0705   -3.2723 H   0  0  0  0  0  0  0  0  0  0  0  0
   11.5546    1.2673   -3.6430 H   0  0  0  0  0  0  0  0  0  0  0  0
   12.5453    3.2466   -2.2114 H   0  0  0  0  0  0  0  0  0  0  0  0
  1  2  1  0
  2  3  1  0
  3  4  1  0
  4  5  2  0
  5  6  1  0
  6  7  1  0
  7  8  1  0
  6  9  1  0
  9 10  1  0
  5 11  1  0
 11 12  2  0
 12 13  1  0
 12 14  1  0
 14 15  1  0
 15 16  1  0
 16 17  1  0
 17 18  2  0
 18 19  1  0
 19 20  1  0
 20 21  1  0
 19 22  1  0
 22 23  1  0
 18 24  1  0
 24 25  2  0
 25 26  1  0
 25 27  1  0
 27 28  1  0
 28 29  1  0
 29 30  2  0
 30 31  1  0
 31 32  1  0
 32 33  2  0
 33 34  1  0
 34 35  1  0
 35 36  1  0
 33 37  1  0
 37 38  1  0
 38 39  1  0
 37 40  2  0
 29 41  1  0
 41 42  2  3
 42 43  1  0
 43 44  1  0
 44 45  1  0
 45 46  2  0
 46 47  1  0
 47 48  1  0
 48 49  2  0
 49 50  1  0
 50 51  1  0
 51 52  1  0
 49 53  1  0
 53 54  1  0
 54 55  1  0
 53 56  2  0
 45 57  1  0
 57 58  2  3
 58 59  1  0
 59 60  1  0
 60 61  1  0
 61 62  1  0
 62 63  2  0
 63 64  1  0
 64 65  1  0
 65 66  1  0
 64 67  1  0
 67 68  1  0
 63 69  1  0
 69 70  2  0
 70 71  1  0
 70 72  1  0
 72 73  1  0
 73 74  1  0
 74 75  1  0
 75 76  2  0
 76 77  1  0
 77 78  1  0
 78 79  1  0
 77 80  1  0
 80 81  1  0
 76 82  1  0
 82 83  2  0
 83 84  1  0
 10  1  2  0
 23 14  2  0
 31 27  2  0
 47 43  2  0
 68 59  2  0
 81 72  2  0
  9  3  2  0
 22 16  2  0
 40 30  1  0
 56 46  1  0
 67 61  2  0
 80 74  2  0
 13  4  1  0
 26 17  1  0
 71 62  1  0
 84 75  1  0
  1 85  1  0
  7 86  1  0
  7 87  1  0
  8 88  1  0
  8 89  1  0
  8 90  1  0
 10 91  1  0
 11 92  1  0
 20 93  1  0
 20 94  1  0
 21 95  1  0
 21 96  1  0
 21 97  1  0
 23 98  1  0
 24 99  1  0
 35100  1  0
 35101  1  0
 36102  1  0
 36103  1  0
 36104  1  0
 38105  1  0
 38106  1  0
 39107  1  0
 39108  1  0
 41109  1  0
 42110  1  0
 51111  1  0
 51112  1  0
 52113  1  0
 52114  1  0
 52115  1  0
 54116  1  0
 54117  1  0
 55118  1  0
 55119  1  0
 57120  1  0
 58121  1  0
 65122  1  0
 65123  1  0
 66124  1  0
 66125  1  0
 66126  1  0
 68127  1  0
 69128  1  0
 78129  1  0
 78130  1  0
 79131  1  0
 79132  1  0
 79133  1  0
 81134  1  0
 82135  1  0
 83136  1  0
M  END

