
     RDKit          3D

194211  0  0  0  0  0  0  0  0999 V2000
   -3.4482    0.4540   -4.9507 C   0  0  0  0  0  0  0  0  0  0  0  0
   -2.0144    0.1725   -5.7848 S   0  0  0  0  0  0  0  0  0  0  0  0
   -1.8618   -1.4770   -5.4350 C   0  0  0  0  0  0  0  0  0  0  0  0
   -2.9517   -1.8176   -4.6352 C   0  0  0  0  0  0  0  0  0  0  0  0
   -3.8234   -0.7478   -4.3874 C   0  0  0  0  0  0  0  0  0  0  0  0
   -4.9430   -0.9275   -3.6484 N   0  0  0  0  0  0  0  0  0  0  0  0
   -5.2288   -2.1544   -3.1256 C   0  0  0  0  0  0  0  0  0  0  0  0
   -6.3900   -2.3511   -2.3699 O   0  0  0  0  0  0  0  0  0  0  0  0
   -7.4518   -1.3984   -2.3189 C   0  0  0  0  0  0  0  0  0  0  0  0
   -8.4771   -1.8134   -1.2707 C   0  0  0  0  0  0  0  0  0  0  0  0
   -4.3419   -3.2380   -3.3469 C   0  0  0  0  0  0  0  0  0  0  0  0
   -4.6795   -4.6182   -2.8308 C   0  0  0  0  0  0  0  0  0  0  0  0
   -3.4721   -5.3211   -2.4240 N   0  0  0  0  0  0  0  0  0  0  0  0
   -3.2209   -3.0495   -4.1196 N   0  0  0  0  0  0  0  0  0  0  0  0
   -0.7434   -2.3497   -5.8676 C   0  0  0  0  0  0  0  0  0  0  0  0
    0.1120   -1.9641   -6.8243 C   0  0  0  0  0  0  0  0  0  0  0  0
    1.3043   -2.7453   -7.2064 C   0  0  0  0  0  0  0  0  0  0  0  0
    1.9667   -4.0464   -6.3693 S   0  0  0  0  0  0  0  0  0  0  0  0
    3.3491   -4.2764   -7.3168 C   0  0  0  0  0  0  0  0  0  0  0  0
    3.2897   -3.3104   -8.3192 C   0  0  0  0  0  0  0  0  0  0  0  0
    2.1707   -2.4724   -8.2570 C   0  0  0  0  0  0  0  0  0  0  0  0
    2.0117   -1.4745   -9.1605 N   0  0  0  0  0  0  0  0  0  0  0  0
    2.9498   -1.2716  -10.1348 C   0  0  0  0  0  0  0  0  0  0  0  0
    2.7777   -0.2486  -11.0772 O   0  0  0  0  0  0  0  0  0  0  0  0
    1.5486    0.4578  -11.2652 C   0  0  0  0  0  0  0  0  0  0  0  0
    0.5372   -0.4205  -11.9918 C   0  0  0  0  0  0  0  0  0  0  0  0
    4.0981   -2.1042  -10.1857 C   0  0  0  0  0  0  0  0  0  0  0  0
    5.1833   -1.8411  -11.1964 C   0  0  0  0  0  0  0  0  0  0  0  0
    6.0144   -3.0306  -11.4044 N   0  0  0  0  0  0  0  0  0  0  0  0
    4.2414   -3.1063   -9.2655 N   0  0  0  0  0  0  0  0  0  0  0  0
    4.3969   -5.3271   -7.1987 C   0  0  0  0  0  0  0  0  0  0  0  0
    4.7523   -6.0061   -6.0862 C   0  0  0  0  0  0  0  0  0  0  0  0
    4.1750   -5.8116   -4.7514 C   0  0  0  0  0  0  0  0  0  0  0  0
    2.8838   -6.1494   -4.3744 C   0  0  0  0  0  0  0  0  0  0  0  0
    2.4938   -5.5381   -3.1759 C   0  0  0  0  0  0  0  0  0  0  0  0
    1.1894   -5.4843   -2.6560 C   0  0  0  0  0  0  0  0  0  0  0  0
    0.2047   -6.5083   -3.0192 C   0  0  0  0  0  0  0  0  0  0  0  0
   -1.0329   -6.3513   -4.1448 S   0  0  0  0  0  0  0  0  0  0  0  0
   -1.4942   -7.9839   -4.1232 C   0  0  0  0  0  0  0  0  0  0  0  0
   -2.6124   -8.5815   -4.9355 C   0  0  0  0  0  0  0  0  0  0  0  0
   -3.7443   -9.0931   -4.0435 C   0  0  0  0  0  0  0  0  0  0  0  0
   -0.6408   -8.6772   -3.2680 C   0  0  0  0  0  0  0  0  0  0  0  0
   -0.7095  -10.4109   -2.9999 Cl  0  0  0  0  0  0  0  0  0  0  0  0
    0.3082   -7.8559   -2.6485 C   0  0  0  0  0  0  0  0  0  0  0  0
    1.5137   -8.4488   -1.5137 Cl  0  0  0  0  0  0  0  0  0  0  0  0
    0.9626   -4.5745   -1.6083 C   0  0  0  0  0  0  0  0  0  0  0  0
    2.0145   -3.9183   -0.9612 C   0  0  0  0  0  0  0  0  0  0  0  0
    3.3512   -4.1183   -1.3698 C   0  0  0  0  0  0  0  0  0  0  0  0
    4.4928   -3.7682   -0.4998 C   0  0  0  0  0  0  0  0  0  0  0  0
    5.6109   -2.5377   -0.7423 S   0  0  0  0  0  0  0  0  0  0  0  0
    6.5146   -2.8309    0.6585 C   0  0  0  0  0  0  0  0  0  0  0  0
    7.7121   -2.0339    1.0869 C   0  0  0  0  0  0  0  0  0  0  0  0
    7.5275   -1.3868    2.4678 C   0  0  0  0  0  0  0  0  0  0  0  0
    5.9548   -3.9270    1.3196 C   0  0  0  0  0  0  0  0  0  0  0  0
    4.8328   -4.4565    0.6656 C   0  0  0  0  0  0  0  0  0  0  0  0
    3.8727   -5.7616    1.3342 Cl  0  0  0  0  0  0  0  0  0  0  0  0
    6.5384   -4.5765    2.8428 Cl  0  0  0  0  0  0  0  0  0  0  0  0
    3.5392   -4.8462   -2.5571 C   0  0  0  0  0  0  0  0  0  0  0  0
    4.9075   -4.9069   -3.5297 S   0  0  0  0  0  0  0  0  0  0  0  0
    1.5838   -3.0160    0.0112 C   0  0  0  0  0  0  0  0  0  0  0  0
    0.1983   -2.8850    0.0675 C   0  0  0  0  0  0  0  0  0  0  0  0
   -0.5035   -3.9575   -1.0342 S   0  0  0  0  0  0  0  0  0  0  0  0
   -0.4823   -1.7831    0.7812 C   0  0  0  0  0  0  0  0  0  0  0  0
   -1.4999   -0.6434    0.0690 S   0  0  0  0  0  0  0  0  0  0  0  0
   -1.3945    0.5699    1.2501 C   0  0  0  0  0  0  0  0  0  0  0  0
   -0.5173    0.0790    2.2273 C   0  0  0  0  0  0  0  0  0  0  0  0
   -0.0236   -1.2034    1.9513 C   0  0  0  0  0  0  0  0  0  0  0  0
    0.9415   -1.7455    2.7280 N   0  0  0  0  0  0  0  0  0  0  0  0
    1.4184   -1.0749    3.8086 C   0  0  0  0  0  0  0  0  0  0  0  0
    2.4429   -1.6386    4.5787 O   0  0  0  0  0  0  0  0  0  0  0  0
    3.2113   -2.7626    4.1511 C   0  0  0  0  0  0  0  0  0  0  0  0
    2.4475   -4.0719    4.3605 C   0  0  0  0  0  0  0  0  0  0  0  0
    0.9027    0.2046    4.1212 C   0  0  0  0  0  0  0  0  0  0  0  0
    1.3902    0.9190    5.3534 C   0  0  0  0  0  0  0  0  0  0  0  0
    0.8410    2.2669    5.4484 N   0  0  0  0  0  0  0  0  0  0  0  0
   -0.0448    0.7670    3.3055 N   0  0  0  0  0  0  0  0  0  0  0  0
   -1.6851    1.9860    0.9166 C   0  0  0  0  0  0  0  0  0  0  0  0
   -1.9019    3.0014    1.7670 C   0  0  0  0  0  0  0  0  0  0  0  0
   -2.1389    2.8931    3.2133 C   0  0  0  0  0  0  0  0  0  0  0  0
   -1.5419    3.9924    4.3430 S   0  0  0  0  0  0  0  0  0  0  0  0
   -2.4813    3.5362    5.6667 C   0  0  0  0  0  0  0  0  0  0  0  0
   -3.3476    2.5542    5.1924 C   0  0  0  0  0  0  0  0  0  0  0  0
   -3.1796    2.2138    3.8421 C   0  0  0  0  0  0  0  0  0  0  0  0
   -4.1158    1.4533    3.2191 N   0  0  0  0  0  0  0  0  0  0  0  0
   -5.1782    0.9510    3.9165 C   0  0  0  0  0  0  0  0  0  0  0  0
   -6.1610    0.1919    3.2691 O   0  0  0  0  0  0  0  0  0  0  0  0
   -6.3284    0.1335    1.8577 C   0  0  0  0  0  0  0  0  0  0  0  0
   -5.4035   -0.9216    1.2557 C   0  0  0  0  0  0  0  0  0  0  0  0
   -5.2999    1.2349    5.3022 C   0  0  0  0  0  0  0  0  0  0  0  0
   -6.4034    0.6608    6.1372 C   0  0  0  0  0  0  0  0  0  0  0  0
   -6.8446    1.6471    7.1186 N   0  0  0  0  0  0  0  0  0  0  0  0
   -4.3778    2.0378    5.9038 N   0  0  0  0  0  0  0  0  0  0  0  0
   -2.6767    4.2364    6.9631 C   0  0  0  0  0  0  0  0  0  0  0  0
   -1.7728    4.9350    7.6625 C   0  0  0  0  0  0  0  0  0  0  0  0
   -0.3646    5.1637    7.2978 C   0  0  0  0  0  0  0  0  0  0  0  0
    0.1052    5.9335    6.2280 C   0  0  0  0  0  0  0  0  0  0  0  0
    1.5010    6.1195    6.2655 C   0  0  0  0  0  0  0  0  0  0  0  0
    2.2789    6.7890    5.3019 C   0  0  0  0  0  0  0  0  0  0  0  0
    1.6710    7.4205    4.1174 C   0  0  0  0  0  0  0  0  0  0  0  0
    2.0379    7.0099    2.5210 S   0  0  0  0  0  0  0  0  0  0  0  0
    1.0925    8.2135    1.8129 C   0  0  0  0  0  0  0  0  0  0  0  0
    1.0140    8.4645    0.3347 C   0  0  0  0  0  0  0  0  0  0  0  0
   -0.0568    7.5967   -0.3224 C   0  0  0  0  0  0  0  0  0  0  0  0
    0.4759    8.9458    2.8241 C   0  0  0  0  0  0  0  0  0  0  0  0
   -0.6003   10.3050    2.5150 Cl  0  0  0  0  0  0  0  0  0  0  0  0
    0.8160    8.5131    4.1127 C   0  0  0  0  0  0  0  0  0  0  0  0
    0.3085    9.3451    5.5754 Cl  0  0  0  0  0  0  0  0  0  0  0  0
    3.6624    6.8436    5.5311 C   0  0  0  0  0  0  0  0  0  0  0  0
    4.2693    6.2573    6.6528 C   0  0  0  0  0  0  0  0  0  0  0  0
    3.4907    5.5675    7.6053 C   0  0  0  0  0  0  0  0  0  0  0  0
    4.0846    4.8794    8.7617 C   0  0  0  0  0  0  0  0  0  0  0  0
    3.8129    5.2889   10.3707 S   0  0  0  0  0  0  0  0  0  0  0  0
    4.7516    4.0569   11.0247 C   0  0  0  0  0  0  0  0  0  0  0  0
    4.8745    3.7735   12.4965 C   0  0  0  0  0  0  0  0  0  0  0  0
    3.9094    2.6667   12.9256 C   0  0  0  0  0  0  0  0  0  0  0  0
    5.2836    3.2934    9.9854 C   0  0  0  0  0  0  0  0  0  0  0  0
    4.8999    3.7485    8.7154 C   0  0  0  0  0  0  0  0  0  0  0  0
    5.2773    2.9078    7.2187 Cl  0  0  0  0  0  0  0  0  0  0  0  0
    6.2600    1.8538   10.2299 Cl  0  0  0  0  0  0  0  0  0  0  0  0
    2.1017    5.5342    7.3835 C   0  0  0  0  0  0  0  0  0  0  0  0
    0.9192    4.7996    8.3268 S   0  0  0  0  0  0  0  0  0  0  0  0
    5.6617    6.4459    6.7028 C   0  0  0  0  0  0  0  0  0  0  0  0
    6.1392    7.1883    5.6289 C   0  0  0  0  0  0  0  0  0  0  0  0
    4.8512    7.6143    4.6295 S   0  0  0  0  0  0  0  0  0  0  0  0
   -3.9698    1.3970   -4.8694 H   0  0  0  0  0  0  0  0  0  0  0  0
   -7.0502   -0.3962   -2.0532 H   0  0  0  0  0  0  0  0  0  0  0  0
   -7.9434   -1.3507   -3.3146 H   0  0  0  0  0  0  0  0  0  0  0  0
   -8.7880   -2.8708   -1.4338 H   0  0  0  0  0  0  0  0  0  0  0  0
   -8.0488   -1.7053   -0.2562 H   0  0  0  0  0  0  0  0  0  0  0  0
   -9.3765   -1.1649   -1.3579 H   0  0  0  0  0  0  0  0  0  0  0  0
   -5.3638   -4.5557   -1.9476 H   0  0  0  0  0  0  0  0  0  0  0  0
   -5.1971   -5.1842   -3.6373 H   0  0  0  0  0  0  0  0  0  0  0  0
   -3.1311   -4.8862   -1.5390 H   0  0  0  0  0  0  0  0  0  0  0  0
   -3.7532   -6.2999   -2.1665 H   0  0  0  0  0  0  0  0  0  0  0  0
   -0.6193   -3.3107   -5.3781 H   0  0  0  0  0  0  0  0  0  0  0  0
   -0.0417   -1.0277   -7.3513 H   0  0  0  0  0  0  0  0  0  0  0  0
    1.7403    1.3501  -11.8886 H   0  0  0  0  0  0  0  0  0  0  0  0
    1.1334    0.7985  -10.2912 H   0  0  0  0  0  0  0  0  0  0  0  0
   -0.4177    0.1297  -12.1186 H   0  0  0  0  0  0  0  0  0  0  0  0
    0.9198   -0.6983  -12.9982 H   0  0  0  0  0  0  0  0  0  0  0  0
    0.3355   -1.3551  -11.4155 H   0  0  0  0  0  0  0  0  0  0  0  0
    5.8159   -0.9950  -10.8408 H   0  0  0  0  0  0  0  0  0  0  0  0
    4.7280   -1.5445  -12.1645 H   0  0  0  0  0  0  0  0  0  0  0  0
    6.6116   -3.1577  -10.5594 H   0  0  0  0  0  0  0  0  0  0  0  0
    6.6632   -2.8221  -12.2003 H   0  0  0  0  0  0  0  0  0  0  0  0
    4.9949   -5.5094   -8.0817 H   0  0  0  0  0  0  0  0  0  0  0  0
    5.6181   -6.6540   -6.1510 H   0  0  0  0  0  0  0  0  0  0  0  0
    2.2040   -6.6928   -5.0154 H   0  0  0  0  0  0  0  0  0  0  0  0
   -3.0177   -7.8114   -5.6225 H   0  0  0  0  0  0  0  0  0  0  0  0
   -2.2078   -9.4191   -5.5332 H   0  0  0  0  0  0  0  0  0  0  0  0
   -4.1766   -8.2659   -3.4441 H   0  0  0  0  0  0  0  0  0  0  0  0
   -4.5526   -9.5094   -4.6751 H   0  0  0  0  0  0  0  0  0  0  0  0
   -3.3916   -9.8972   -3.3664 H   0  0  0  0  0  0  0  0  0  0  0  0
    8.6106   -2.6850    1.1006 H   0  0  0  0  0  0  0  0  0  0  0  0
    7.8852   -1.2155    0.3503 H   0  0  0  0  0  0  0  0  0  0  0  0
    6.5560   -0.8494    2.5160 H   0  0  0  0  0  0  0  0  0  0  0  0
    8.3495   -0.6615    2.6296 H   0  0  0  0  0  0  0  0  0  0  0  0
    7.5759   -2.1336    3.2807 H   0  0  0  0  0  0  0  0  0  0  0  0
    2.2567   -2.3862    0.5728 H   0  0  0  0  0  0  0  0  0  0  0  0
    4.1404   -2.8031    4.7535 H   0  0  0  0  0  0  0  0  0  0  0  0
    3.5069   -2.6476    3.0767 H   0  0  0  0  0  0  0  0  0  0  0  0
    1.5071   -4.0782    3.7847 H   0  0  0  0  0  0  0  0  0  0  0  0
    2.2297   -4.2172    5.4348 H   0  0  0  0  0  0  0  0  0  0  0  0
    3.0827   -4.9201    4.0135 H   0  0  0  0  0  0  0  0  0  0  0  0
    1.0666    0.3263    6.2436 H   0  0  0  0  0  0  0  0  0  0  0  0
    2.5000    0.9619    5.3473 H   0  0  0  0  0  0  0  0  0  0  0  0
    1.3359    2.8605    4.7417 H   0  0  0  0  0  0  0  0  0  0  0  0
    1.1072    2.6318    6.3938 H   0  0  0  0  0  0  0  0  0  0  0  0
   -1.6242    2.2471   -0.1266 H   0  0  0  0  0  0  0  0  0  0  0  0
   -1.9438    3.9996    1.3466 H   0  0  0  0  0  0  0  0  0  0  0  0
   -6.1362    1.1345    1.4049 H   0  0  0  0  0  0  0  0  0  0  0  0
   -7.3797   -0.1403    1.6373 H   0  0  0  0  0  0  0  0  0  0  0  0
   -4.3445   -0.6368    1.4004 H   0  0  0  0  0  0  0  0  0  0  0  0
   -5.6171   -0.9986    0.1711 H   0  0  0  0  0  0  0  0  0  0  0  0
   -5.5921   -1.9094    1.7272 H   0  0  0  0  0  0  0  0  0  0  0  0
   -7.2693    0.3567    5.5091 H   0  0  0  0  0  0  0  0  0  0  0  0
   -6.0022   -0.2228    6.6701 H   0  0  0  0  0  0  0  0  0  0  0  0
   -7.4162    1.1491    7.8393 H   0  0  0  0  0  0  0  0  0  0  0  0
   -7.4986    2.3060    6.6470 H   0  0  0  0  0  0  0  0  0  0  0  0
   -3.6428    4.1011    7.4295 H   0  0  0  0  0  0  0  0  0  0  0  0
   -2.0729    5.2733    8.6450 H   0  0  0  0  0  0  0  0  0  0  0  0
   -0.5415    6.3689    5.4817 H   0  0  0  0  0  0  0  0  0  0  0  0
    2.0000    8.2480   -0.1267 H   0  0  0  0  0  0  0  0  0  0  0  0
    0.7880    9.5386    0.1474 H   0  0  0  0  0  0  0  0  0  0  0  0
   -0.0944    7.8216   -1.4118 H   0  0  0  0  0  0  0  0  0  0  0  0
   -1.0561    7.8094    0.1259 H   0  0  0  0  0  0  0  0  0  0  0  0
    0.1957    6.5236   -0.1874 H   0  0  0  0  0  0  0  0  0  0  0  0
    4.6370    4.6922   13.0722 H   0  0  0  0  0  0  0  0  0  0  0  0
    5.9224    3.4788   12.7273 H   0  0  0  0  0  0  0  0  0  0  0  0
    2.8661    3.0268   12.8402 H   0  0  0  0  0  0  0  0  0  0  0  0
    4.0334    1.7693   12.2950 H   0  0  0  0  0  0  0  0  0  0  0  0
    4.1138    2.3984   13.9833 H   0  0  0  0  0  0  0  0  0  0  0  0
    6.3020    6.0761    7.4922 H   0  0  0  0  0  0  0  0  0  0  0  0
    7.1704    7.4682    5.4668 H   0  0  0  0  0  0  0  0  0  0  0  0
  1  2  1  0
  2  3  1  0
  3  4  2  0
  4  5  1  0
  5  6  1  0
  6  7  2  0
  7  8  1  0
  8  9  1  0
  9 10  1  0
  7 11  1  0
 11 12  1  0
 12 13  1  0
 11 14  2  0
  3 15  1  0
 15 16  2  3
 16 17  1  0
 17 18  1  0
 18 19  1  0
 19 20  2  0
 20 21  1  0
 21 22  1  0
 22 23  2  0
 23 24  1  0
 24 25  1  0
 25 26  1  0
 23 27  1  0
 27 28  1  0
 28 29  1  0
 27 30  2  0
 19 31  1  0
 31 32  2  3
 32 33  1  0
 33 34  2  0
 34 35  1  0
 35 36  2  0
 36 37  1  0
 37 38  1  0
 38 39  1  0
 39 40  1  0
 40 41  1  0
 39 42  2  0
 42 43  1  0
 42 44  1  0
 44 45  1  0
 36 46  1  0
 46 47  2  0
 47 48  1  0
 48 49  1  0
 49 50  1  0
 50 51  1  0
 51 52  1  0
 52 53  1  0
 51 54  2  0
 54 55  1  0
 55 56  1  0
 54 57  1  0
 48 58  2  0
 58 59  1  0
 47 60  1  0
 60 61  2  0
 61 62  1  0
 61 63  1  0
 63 64  1  0
 64 65  1  0
 65 66  2  0
 66 67  1  0
 67 68  1  0
 68 69  2  0
 69 70  1  0
 70 71  1  0
 71 72  1  0
 69 73  1  0
 73 74  1  0
 74 75  1  0
 73 76  2  0
 65 77  1  0
 77 78  2  3
 78 79  1  0
 79 80  1  0
 80 81  1  0
 81 82  2  0
 82 83  1  0
 83 84  1  0
 84 85  2  0
 85 86  1  0
 86 87  1  0
 87 88  1  0
 85 89  1  0
 89 90  1  0
 90 91  1  0
 89 92  2  0
 81 93  1  0
 93 94  2  3
 94 95  1  0
 95 96  2  0
 96 97  1  0
 97 98  2  0
 98 99  1  0
 99100  1  0
100101  1  0
101102  1  0
102103  1  0
101104  2  0
104105  1  0
104106  1  0
106107  1  0
 98108  1  0
108109  2  0
109110  1  0
110111  1  0
111112  1  0
112113  1  0
113114  1  0
114115  1  0
113116  2  0
116117  1  0
117118  1  0
116119  1  0
110120  2  0
120121  1  0
109122  1  0
122123  2  0
123124  1  0
  5  1  2  0
 21 17  2  0
 59 33  1  0
 67 63  2  0
 83 79  2  0
121 95  1  0
 14  4  1  0
 30 20  1  0
 58 35  1  0
 76 66  1  0
 92 82  1  0
120 97  1  0
 44 37  2  0
 62 46  1  0
106 99  2  0
124108  1  0
 55 49  2  0
117111  2  0
  1125  1  0
  9126  1  0
  9127  1  0
 10128  1  0
 10129  1  0
 10130  1  0
 12131  1  0
 12132  1  0
 13133  1  0
 13134  1  0
 15135  1  0
 16136  1  0
 25137  1  0
 25138  1  0
 26139  1  0
 26140  1  0
 26141  1  0
 28142  1  0
 28143  1  0
 29144  1  0
 29145  1  0
 31146  1  0
 32147  1  0
 34148  1  0
 40149  1  0
 40150  1  0
 41151  1  0
 41152  1  0
 41153  1  0
 52154  1  0
 52155  1  0
 53156  1  0
 53157  1  0
 53158  1  0
 60159  1  0
 71160  1  0
 71161  1  0
 72162  1  0
 72163  1  0
 72164  1  0
 74165  1  0
 74166  1  0
 75167  1  0
 75168  1  0
 77169  1  0
 78170  1  0
 87171  1  0
 87172  1  0
 88173  1  0
 88174  1  0
 88175  1  0
 90176  1  0
 90177  1  0
 91178  1  0
 91179  1  0
 93180  1  0
 94181  1  0
 96182  1  0
102183  1  0
102184  1  0
103185  1  0
103186  1  0
103187  1  0
114188  1  0
114189  1  0
115190  1  0
115191  1  0
115192  1  0
122193  1  0
123194  1  0
M  END

