
     RDKit          3D

134145  0  0  0  0  0  0  0  0999 V2000
    5.5098    1.7928    0.7322 C   0  0  0  0  0  0  0  0  0  0  0  0
    5.2585    2.0643    2.3797 S   0  0  0  0  0  0  0  0  0  0  0  0
    4.0388    3.2197    2.2202 C   0  0  0  0  0  0  0  0  0  0  0  0
    3.8602    3.4475    0.8629 C   0  0  0  0  0  0  0  0  0  0  0  0
    4.6539    2.6449    0.0489 C   0  0  0  0  0  0  0  0  0  0  0  0
    4.5458    2.7223   -1.2987 N   0  0  0  0  0  0  0  0  0  0  0  0
    3.6660    3.6022   -1.8647 C   0  0  0  0  0  0  0  0  0  0  0  0
    3.5020    3.6470   -3.2524 O   0  0  0  0  0  0  0  0  0  0  0  0
    4.1850    2.7673   -4.1382 C   0  0  0  0  0  0  0  0  0  0  0  0
    3.6115    2.9084   -5.5371 C   0  0  0  0  0  0  0  0  0  0  0  0
    2.8985    4.4596   -1.0376 C   0  0  0  0  0  0  0  0  0  0  0  0
    1.9039    5.4118   -1.6445 C   0  0  0  0  0  0  0  0  0  0  0  0
    1.5044    6.4526   -0.6986 N   0  0  0  0  0  0  0  0  0  0  0  0
    2.9985    4.3428    0.3186 N   0  0  0  0  0  0  0  0  0  0  0  0
    3.3761    3.9530    3.3075 C   0  0  0  0  0  0  0  0  0  0  0  0
    2.4346    3.4511    4.1243 C   0  0  0  0  0  0  0  0  0  0  0  0
    1.8313    2.0905    4.0673 C   0  0  0  0  0  0  0  0  0  0  0  0
    0.8272    1.5976    4.9138 C   0  0  0  0  0  0  0  0  0  0  0  0
    0.4435    0.2626    4.6373 C   0  0  0  0  0  0  0  0  0  0  0  0
   -0.4665   -0.3934    5.4755 C   0  0  0  0  0  0  0  0  0  0  0  0
   -1.0506    0.3069    6.5389 C   0  0  0  0  0  0  0  0  0  0  0  0
   -0.7093    1.6428    6.7859 C   0  0  0  0  0  0  0  0  0  0  0  0
    0.2356    2.2933    5.9835 C   0  0  0  0  0  0  0  0  0  0  0  0
    1.1023   -0.2913    3.5360 C   0  0  0  0  0  0  0  0  0  0  0  0
    2.2064    0.8458    2.9922 S   0  0  0  0  0  0  0  0  0  0  0  0
    0.9988   -1.6408    2.9535 C   0  0  0  0  0  0  0  0  0  0  0  0
   -0.1333   -2.2927    2.6597 C   0  0  0  0  0  0  0  0  0  0  0  0
   -1.4984   -1.7664    2.8176 C   0  0  0  0  0  0  0  0  0  0  0  0
   -2.7786   -2.6823    3.4359 S   0  0  0  0  0  0  0  0  0  0  0  0
   -3.9820   -1.5211    3.2357 C   0  0  0  0  0  0  0  0  0  0  0  0
   -3.3955   -0.4003    2.6806 C   0  0  0  0  0  0  0  0  0  0  0  0
   -2.0278   -0.5368    2.4217 C   0  0  0  0  0  0  0  0  0  0  0  0
   -1.3622    0.4486    1.7750 N   0  0  0  0  0  0  0  0  0  0  0  0
   -2.0235    1.5829    1.3886 C   0  0  0  0  0  0  0  0  0  0  0  0
   -1.3569    2.6034    0.6992 O   0  0  0  0  0  0  0  0  0  0  0  0
    0.0447    2.6150    0.4474 C   0  0  0  0  0  0  0  0  0  0  0  0
    0.4060    1.6711   -0.6880 C   0  0  0  0  0  0  0  0  0  0  0  0
   -3.4005    1.7301    1.6844 C   0  0  0  0  0  0  0  0  0  0  0  0
   -4.1688    2.9429    1.2466 C   0  0  0  0  0  0  0  0  0  0  0  0
   -4.6850    2.7460   -0.1019 N   0  0  0  0  0  0  0  0  0  0  0  0
   -4.0607    0.7218    2.3132 N   0  0  0  0  0  0  0  0  0  0  0  0
   -5.3892   -1.6910    3.6032 C   0  0  0  0  0  0  0  0  0  0  0  0
   -6.3236   -2.1720    2.7754 C   0  0  0  0  0  0  0  0  0  0  0  0
   -6.1253   -2.4894    1.3423 C   0  0  0  0  0  0  0  0  0  0  0  0
   -6.8451   -3.4474    0.6202 C   0  0  0  0  0  0  0  0  0  0  0  0
   -6.6041   -3.4148   -0.7652 C   0  0  0  0  0  0  0  0  0  0  0  0
   -7.2558   -4.3090   -1.6232 C   0  0  0  0  0  0  0  0  0  0  0  0
   -8.1506   -5.2434   -1.0862 C   0  0  0  0  0  0  0  0  0  0  0  0
   -8.4003   -5.2731    0.2931 C   0  0  0  0  0  0  0  0  0  0  0  0
   -7.7477   -4.3789    1.1542 C   0  0  0  0  0  0  0  0  0  0  0  0
   -5.6912   -2.4415   -1.1589 C   0  0  0  0  0  0  0  0  0  0  0  0
   -5.2203   -1.6000    0.2255 S   0  0  0  0  0  0  0  0  0  0  0  0
   -5.5101   -1.9715   -2.5404 C   0  0  0  0  0  0  0  0  0  0  0  0
   -4.4410   -1.3366   -3.0198 C   0  0  0  0  0  0  0  0  0  0  0  0
   -3.0848   -1.3122   -2.4419 C   0  0  0  0  0  0  0  0  0  0  0  0
   -1.9401   -0.2116   -3.0039 S   0  0  0  0  0  0  0  0  0  0  0  0
   -0.5464   -1.0610   -2.6081 C   0  0  0  0  0  0  0  0  0  0  0  0
   -0.9669   -2.2645   -2.0451 C   0  0  0  0  0  0  0  0  0  0  0  0
   -2.3604   -2.4051   -1.9475 C   0  0  0  0  0  0  0  0  0  0  0  0
   -2.8898   -3.5927   -1.5708 N   0  0  0  0  0  0  0  0  0  0  0  0
   -2.0774   -4.6442   -1.2473 C   0  0  0  0  0  0  0  0  0  0  0  0
   -2.6190   -5.8541   -0.8038 O   0  0  0  0  0  0  0  0  0  0  0  0
   -3.9282   -5.9739   -0.2531 C   0  0  0  0  0  0  0  0  0  0  0  0
   -3.9731   -5.3501    1.1363 C   0  0  0  0  0  0  0  0  0  0  0  0
   -0.6778   -4.5107   -1.3860 C   0  0  0  0  0  0  0  0  0  0  0  0
    0.2586   -5.6493   -1.0966 C   0  0  0  0  0  0  0  0  0  0  0  0
    0.8936   -5.4562    0.2056 N   0  0  0  0  0  0  0  0  0  0  0  0
   -0.1556   -3.3179   -1.7805 N   0  0  0  0  0  0  0  0  0  0  0  0
    0.7726   -0.7332   -3.1776 C   0  0  0  0  0  0  0  0  0  0  0  0
    1.9148   -1.3003   -2.7841 C   0  0  0  0  0  0  0  0  0  0  0  0
    3.1591   -1.0891   -3.5464 C   0  0  0  0  0  0  0  0  0  0  0  0
    4.4691   -1.1465   -3.0698 C   0  0  0  0  0  0  0  0  0  0  0  0
    5.4447   -0.9628   -4.0720 C   0  0  0  0  0  0  0  0  0  0  0  0
    6.8055   -1.0462   -3.7497 C   0  0  0  0  0  0  0  0  0  0  0  0
    7.1810   -1.2671   -2.4185 C   0  0  0  0  0  0  0  0  0  0  0  0
    6.2091   -1.4154   -1.4193 C   0  0  0  0  0  0  0  0  0  0  0  0
    4.8481   -1.3554   -1.7389 C   0  0  0  0  0  0  0  0  0  0  0  0
    4.9068   -0.7583   -5.3475 C   0  0  0  0  0  0  0  0  0  0  0  0
    3.2324   -0.8321   -5.2126 S   0  0  0  0  0  0  0  0  0  0  0  0
    5.5995   -0.5330   -6.6278 C   0  0  0  0  0  0  0  0  0  0  0  0
    6.6355    0.2882   -6.7451 C   0  0  0  0  0  0  0  0  0  0  0  0
    6.2116    1.0985    0.2908 H   0  0  0  0  0  0  0  0  0  0  0  0
    5.2669    3.0261   -4.1508 H   0  0  0  0  0  0  0  0  0  0  0  0
    4.0637    1.7232   -3.7947 H   0  0  0  0  0  0  0  0  0  0  0  0
    2.5319    2.6453   -5.5318 H   0  0  0  0  0  0  0  0  0  0  0  0
    3.7310    3.9509   -5.8935 H   0  0  0  0  0  0  0  0  0  0  0  0
    4.1429    2.2228   -6.2290 H   0  0  0  0  0  0  0  0  0  0  0  0
    1.0121    4.8386   -1.9762 H   0  0  0  0  0  0  0  0  0  0  0  0
    2.3552    5.9001   -2.5386 H   0  0  0  0  0  0  0  0  0  0  0  0
    0.9483    6.0061    0.0671 H   0  0  0  0  0  0  0  0  0  0  0  0
    0.8475    7.0906   -1.1940 H   0  0  0  0  0  0  0  0  0  0  0  0
    3.6540    4.9940    3.4283 H   0  0  0  0  0  0  0  0  0  0  0  0
    2.0537    4.1365    4.8661 H   0  0  0  0  0  0  0  0  0  0  0  0
   -0.7085   -1.4368    5.3386 H   0  0  0  0  0  0  0  0  0  0  0  0
   -1.7644   -0.1909    7.1823 H   0  0  0  0  0  0  0  0  0  0  0  0
   -1.1612    2.1672    7.6152 H   0  0  0  0  0  0  0  0  0  0  0  0
    0.5000    3.3160    6.2133 H   0  0  0  0  0  0  0  0  0  0  0  0
    1.9310   -2.1325    2.7021 H   0  0  0  0  0  0  0  0  0  0  0  0
   -0.0475   -3.3153    2.3102 H   0  0  0  0  0  0  0  0  0  0  0  0
    0.5918    2.3515    1.3679 H   0  0  0  0  0  0  0  0  0  0  0  0
    0.3392    3.6431    0.1643 H   0  0  0  0  0  0  0  0  0  0  0  0
   -0.0135    2.0556   -1.6398 H   0  0  0  0  0  0  0  0  0  0  0  0
    1.5086    1.5947   -0.7767 H   0  0  0  0  0  0  0  0  0  0  0  0
   -0.0012    0.6593   -0.4933 H   0  0  0  0  0  0  0  0  0  0  0  0
   -3.5257    3.8516    1.2831 H   0  0  0  0  0  0  0  0  0  0  0  0
   -5.0172    3.1063    1.9442 H   0  0  0  0  0  0  0  0  0  0  0  0
   -5.2991    3.5610   -0.3283 H   0  0  0  0  0  0  0  0  0  0  0  0
   -3.8781    2.7868   -0.7682 H   0  0  0  0  0  0  0  0  0  0  0  0
   -5.6586   -1.5118    4.6378 H   0  0  0  0  0  0  0  0  0  0  0  0
   -7.3035   -2.3717    3.1973 H   0  0  0  0  0  0  0  0  0  0  0  0
   -7.0782   -4.2948   -2.6907 H   0  0  0  0  0  0  0  0  0  0  0  0
   -8.6572   -5.9441   -1.7403 H   0  0  0  0  0  0  0  0  0  0  0  0
   -9.0943   -5.9993    0.6945 H   0  0  0  0  0  0  0  0  0  0  0  0
   -7.9443   -4.4275    2.2146 H   0  0  0  0  0  0  0  0  0  0  0  0
   -6.3697   -2.0437   -3.1943 H   0  0  0  0  0  0  0  0  0  0  0  0
   -4.5331   -0.8905   -4.0000 H   0  0  0  0  0  0  0  0  0  0  0  0
   -4.6737   -5.5005   -0.9264 H   0  0  0  0  0  0  0  0  0  0  0  0
   -4.1786   -7.0546   -0.1672 H   0  0  0  0  0  0  0  0  0  0  0  0
   -3.7549   -4.2632    1.0734 H   0  0  0  0  0  0  0  0  0  0  0  0
   -4.9764   -5.4956    1.5809 H   0  0  0  0  0  0  0  0  0  0  0  0
   -3.2175   -5.8316    1.7872 H   0  0  0  0  0  0  0  0  0  0  0  0
   -0.2660   -6.6286   -1.1252 H   0  0  0  0  0  0  0  0  0  0  0  0
    1.0409   -5.6737   -1.8895 H   0  0  0  0  0  0  0  0  0  0  0  0
    0.1730   -5.6310    0.9456 H   0  0  0  0  0  0  0  0  0  0  0  0
    1.6123   -6.2061    0.3198 H   0  0  0  0  0  0  0  0  0  0  0  0
    0.7876   -0.0424   -4.0139 H   0  0  0  0  0  0  0  0  0  0  0  0
    1.9406   -1.9136   -1.8968 H   0  0  0  0  0  0  0  0  0  0  0  0
    7.5724   -0.9681   -4.5077 H   0  0  0  0  0  0  0  0  0  0  0  0
    8.2299   -1.3265   -2.1579 H   0  0  0  0  0  0  0  0  0  0  0  0
    6.5138   -1.5796   -0.3943 H   0  0  0  0  0  0  0  0  0  0  0  0
    4.1059   -1.4779   -0.9594 H   0  0  0  0  0  0  0  0  0  0  0  0
    5.1761   -0.9723   -7.5224 H   0  0  0  0  0  0  0  0  0  0  0  0
    7.0802    0.4619   -7.7166 H   0  0  0  0  0  0  0  0  0  0  0  0
    7.0273    0.8294   -5.8895 H   0  0  0  0  0  0  0  0  0  0  0  0
  1  2  1  0
  2  3  1  0
  3  4  2  0
  4  5  1  0
  5  6  1  0
  6  7  2  0
  7  8  1  0
  8  9  1  0
  9 10  1  0
  7 11  1  0
 11 12  1  0
 12 13  1  0
 11 14  2  0
  3 15  1  0
 15 16  2  3
 16 17  1  0
 17 18  2  0
 18 19  1  0
 19 20  1  0
 20 21  2  0
 21 22  1  0
 22 23  2  0
 19 24  2  0
 24 25  1  0
 24 26  1  0
 26 27  2  3
 27 28  1  0
 28 29  1  0
 29 30  1  0
 30 31  2  0
 31 32  1  0
 32 33  1  0
 33 34  2  0
 34 35  1  0
 35 36  1  0
 36 37  1  0
 34 38  1  0
 38 39  1  0
 39 40  1  0
 38 41  2  0
 30 42  1  0
 42 43  2  3
 43 44  1  0
 44 45  2  0
 45 46  1  0
 46 47  1  0
 47 48  2  0
 48 49  1  0
 49 50  2  0
 46 51  2  0
 51 52  1  0
 51 53  1  0
 53 54  2  3
 54 55  1  0
 55 56  1  0
 56 57  1  0
 57 58  2  0
 58 59  1  0
 59 60  1  0
 60 61  2  0
 61 62  1  0
 62 63  1  0
 63 64  1  0
 61 65  1  0
 65 66  1  0
 66 67  1  0
 65 68  2  0
 57 69  1  0
 69 70  2  3
 70 71  1  0
 71 72  2  0
 72 73  1  0
 73 74  1  0
 74 75  2  0
 75 76  1  0
 76 77  2  0
 73 78  2  0
 78 79  1  0
 78 80  1  0
 80 81  2  3
  5  1  2  0
 25 17  1  0
 32 28  2  0
 52 44  1  0
 59 55  2  0
 79 71  1  0
 14  4  1  0
 23 18  1  0
 41 31  1  0
 50 45  1  0
 68 58  1  0
 77 72  1  0
  1 82  1  0
  9 83  1  0
  9 84  1  0
 10 85  1  0
 10 86  1  0
 10 87  1  0
 12 88  1  0
 12 89  1  0
 13 90  1  0
 13 91  1  0
 15 92  1  0
 16 93  1  0
 20 94  1  0
 21 95  1  0
 22 96  1  0
 23 97  1  0
 26 98  1  0
 27 99  1  0
 36100  1  0
 36101  1  0
 37102  1  0
 37103  1  0
 37104  1  0
 39105  1  0
 39106  1  0
 40107  1  0
 40108  1  0
 42109  1  0
 43110  1  0
 47111  1  0
 48112  1  0
 49113  1  0
 50114  1  0
 53115  1  0
 54116  1  0
 63117  1  0
 63118  1  0
 64119  1  0
 64120  1  0
 64121  1  0
 66122  1  0
 66123  1  0
 67124  1  0
 67125  1  0
 69126  1  0
 70127  1  0
 74128  1  0
 75129  1  0
 76130  1  0
 77131  1  0
 80132  1  0
 81133  1  0
 81134  1  0
M  END

