
     RDKit          3D

209229  0  0  0  0  0  0  0  0999 V2000
    2.8012   -3.5535   10.2570 C   0  0  0  0  0  0  0  0  0  0  0  0
    3.6003   -3.2498    9.1593 C   0  0  0  0  0  0  0  0  0  0  0  0
    2.9708   -2.3908    8.2389 C   0  0  0  0  0  0  0  0  0  0  0  0
    3.5244   -1.9115    7.0367 C   0  0  0  0  0  0  0  0  0  0  0  0
    4.8987   -2.2442    6.6202 C   0  0  0  0  0  0  0  0  0  0  0  0
    5.2993   -3.1475    5.2593 S   0  0  0  0  0  0  0  0  0  0  0  0
    6.9675   -3.0421    5.4609 C   0  0  0  0  0  0  0  0  0  0  0  0
    7.9804   -3.6066    4.5111 C   0  0  0  0  0  0  0  0  0  0  0  0
    8.2759   -2.6216    3.3857 C   0  0  0  0  0  0  0  0  0  0  0  0
    7.2298   -2.2680    6.5922 C   0  0  0  0  0  0  0  0  0  0  0  0
    8.8522   -1.8554    7.1269 Cl  0  0  0  0  0  0  0  0  0  0  0  0
    6.0707   -1.8269    7.2447 C   0  0  0  0  0  0  0  0  0  0  0  0
    6.0944   -0.7964    8.6666 Cl  0  0  0  0  0  0  0  0  0  0  0  0
    2.7105   -1.0775    6.2559 C   0  0  0  0  0  0  0  0  0  0  0  0
    1.4142   -0.7108    6.6356 C   0  0  0  0  0  0  0  0  0  0  0  0
    0.8614   -1.1964    7.8382 C   0  0  0  0  0  0  0  0  0  0  0  0
   -0.5001   -0.8303    8.2654 C   0  0  0  0  0  0  0  0  0  0  0  0
   -0.9739    0.7134    8.7324 S   0  0  0  0  0  0  0  0  0  0  0  0
   -2.5972    0.3390    8.9643 C   0  0  0  0  0  0  0  0  0  0  0  0
   -3.6394    1.3112    9.4200 C   0  0  0  0  0  0  0  0  0  0  0  0
   -3.9126    1.1585   10.9120 C   0  0  0  0  0  0  0  0  0  0  0  0
   -2.7885   -1.0134    8.6846 C   0  0  0  0  0  0  0  0  0  0  0  0
   -1.6123   -1.6679    8.2869 C   0  0  0  0  0  0  0  0  0  0  0  0
   -1.5665   -3.3543    7.7982 Cl  0  0  0  0  0  0  0  0  0  0  0  0
   -4.3506   -1.8126    8.7827 Cl  0  0  0  0  0  0  0  0  0  0  0  0
    1.6726   -2.0405    8.6163 C   0  0  0  0  0  0  0  0  0  0  0  0
    1.3169   -2.7687   10.0895 S   0  0  0  0  0  0  0  0  0  0  0  0
    0.7806    0.1306    5.7056 C   0  0  0  0  0  0  0  0  0  0  0  0
    1.5865    0.4289    4.6063 C   0  0  0  0  0  0  0  0  0  0  0  0
    3.0741   -0.3497    4.7831 S   0  0  0  0  0  0  0  0  0  0  0  0
    1.2108    1.2584    3.4496 C   0  0  0  0  0  0  0  0  0  0  0  0
    0.0492    2.0242    3.3273 C   0  0  0  0  0  0  0  0  0  0  0  0
   -0.0453    2.6734    2.0827 C   0  0  0  0  0  0  0  0  0  0  0  0
   -1.1014    3.5021    1.6460 C   0  0  0  0  0  0  0  0  0  0  0  0
   -2.1594    3.9603    2.5626 C   0  0  0  0  0  0  0  0  0  0  0  0
   -3.3852    2.9993    3.1978 S   0  0  0  0  0  0  0  0  0  0  0  0
   -4.0449    4.1943    4.1863 C   0  0  0  0  0  0  0  0  0  0  0  0
   -5.1624    3.9721    5.1604 C   0  0  0  0  0  0  0  0  0  0  0  0
   -4.6200    3.4675    6.4928 C   0  0  0  0  0  0  0  0  0  0  0  0
   -3.2907    5.3573    4.0489 C   0  0  0  0  0  0  0  0  0  0  0  0
   -3.5771    6.8217    4.9736 Cl  0  0  0  0  0  0  0  0  0  0  0  0
   -2.2334    5.2262    3.1341 C   0  0  0  0  0  0  0  0  0  0  0  0
   -1.0714    6.5047    2.8096 Cl  0  0  0  0  0  0  0  0  0  0  0  0
   -1.0145    4.0018    0.3389 C   0  0  0  0  0  0  0  0  0  0  0  0
    0.0996    3.7812   -0.4780 C   0  0  0  0  0  0  0  0  0  0  0  0
    1.1784    2.9948   -0.0289 C   0  0  0  0  0  0  0  0  0  0  0  0
    2.3860    2.7905   -0.8474 C   0  0  0  0  0  0  0  0  0  0  0  0
    2.4080    2.0624   -2.3641 S   0  0  0  0  0  0  0  0  0  0  0  0
    4.0420    2.3235   -2.6618 C   0  0  0  0  0  0  0  0  0  0  0  0
    4.7302    1.9986   -3.9519 C   0  0  0  0  0  0  0  0  0  0  0  0
    4.7766    3.2186   -4.8655 C   0  0  0  0  0  0  0  0  0  0  0  0
    4.5899    3.0126   -1.5803 C   0  0  0  0  0  0  0  0  0  0  0  0
    3.6618    3.2685   -0.5590 C   0  0  0  0  0  0  0  0  0  0  0  0
    4.0431    4.2162    0.8736 Cl  0  0  0  0  0  0  0  0  0  0  0  0
    6.2536    3.5738   -1.5256 Cl  0  0  0  0  0  0  0  0  0  0  0  0
    1.0556    2.4312    1.2523 C   0  0  0  0  0  0  0  0  0  0  0  0
    2.1250    1.4059    2.0413 S   0  0  0  0  0  0  0  0  0  0  0  0
    0.0096    4.4298   -1.7153 C   0  0  0  0  0  0  0  0  0  0  0  0
   -1.1911    5.1053   -1.8843 C   0  0  0  0  0  0  0  0  0  0  0  0
   -2.1392    4.9404   -0.4964 S   0  0  0  0  0  0  0  0  0  0  0  0
   -1.5706    5.8228   -3.0996 C   0  0  0  0  0  0  0  0  0  0  0  0
   -2.9754    5.5787   -3.9913 S   0  0  0  0  0  0  0  0  0  0  0  0
   -2.5443    6.5271   -5.3308 C   0  0  0  0  0  0  0  0  0  0  0  0
   -1.2973    7.0756   -5.0559 C   0  0  0  0  0  0  0  0  0  0  0  0
   -0.7529    6.6607   -3.8401 C   0  0  0  0  0  0  0  0  0  0  0  0
    0.4767    7.0823   -3.4600 N   0  0  0  0  0  0  0  0  0  0  0  0
    1.1917    7.9214   -4.2618 C   0  0  0  0  0  0  0  0  0  0  0  0
    2.4659    8.3529   -3.8653 O   0  0  0  0  0  0  0  0  0  0  0  0
    3.0888    7.9415   -2.6477 C   0  0  0  0  0  0  0  0  0  0  0  0
    3.6195    6.5158   -2.7598 C   0  0  0  0  0  0  0  0  0  0  0  0
    0.6375    8.3557   -5.4942 C   0  0  0  0  0  0  0  0  0  0  0  0
    1.3877    9.3378   -6.3579 C   0  0  0  0  0  0  0  0  0  0  0  0
    0.6963    9.5584   -7.6275 N   0  0  0  0  0  0  0  0  0  0  0  0
   -0.6030    7.9117   -5.8675 N   0  0  0  0  0  0  0  0  0  0  0  0
   -3.3189    6.6979   -6.5776 C   0  0  0  0  0  0  0  0  0  0  0  0
   -3.9474    5.6983   -7.2110 C   0  0  0  0  0  0  0  0  0  0  0  0
   -3.8344    4.2880   -6.8006 C   0  0  0  0  0  0  0  0  0  0  0  0
   -4.6800    3.6471   -5.9026 C   0  0  0  0  0  0  0  0  0  0  0  0
   -4.2037    2.3802   -5.5207 C   0  0  0  0  0  0  0  0  0  0  0  0
   -4.7899    1.5248   -4.5671 C   0  0  0  0  0  0  0  0  0  0  0  0
   -6.0421    1.8703   -3.8687 C   0  0  0  0  0  0  0  0  0  0  0  0
   -6.2061    2.0229   -2.2015 S   0  0  0  0  0  0  0  0  0  0  0  0
   -7.8541    2.3496   -2.2102 C   0  0  0  0  0  0  0  0  0  0  0  0
   -8.7019    2.4839   -0.9836 C   0  0  0  0  0  0  0  0  0  0  0  0
   -9.3281    1.1437   -0.6096 C   0  0  0  0  0  0  0  0  0  0  0  0
   -8.3056    2.3312   -3.5290 C   0  0  0  0  0  0  0  0  0  0  0  0
   -9.9873    2.5683   -3.9785 Cl  0  0  0  0  0  0  0  0  0  0  0  0
   -7.2920    2.0645   -4.4596 C   0  0  0  0  0  0  0  0  0  0  0  0
   -7.5902    1.8829   -6.1817 Cl  0  0  0  0  0  0  0  0  0  0  0  0
   -4.0984    0.3411   -4.2629 C   0  0  0  0  0  0  0  0  0  0  0  0
   -2.8948   -0.0107   -4.8854 C   0  0  0  0  0  0  0  0  0  0  0  0
   -2.3318    0.8190   -5.8770 C   0  0  0  0  0  0  0  0  0  0  0  0
   -1.1637    0.3919   -6.6747 C   0  0  0  0  0  0  0  0  0  0  0  0
    0.2875    1.2373   -6.8239 S   0  0  0  0  0  0  0  0  0  0  0  0
    0.9770    0.2157   -7.9686 C   0  0  0  0  0  0  0  0  0  0  0  0
    2.3201    0.4095   -8.6124 C   0  0  0  0  0  0  0  0  0  0  0  0
    3.3619   -0.5120   -7.9952 C   0  0  0  0  0  0  0  0  0  0  0  0
    0.0769   -0.8144   -8.2418 C   0  0  0  0  0  0  0  0  0  0  0  0
   -1.1241   -0.7099   -7.5243 C   0  0  0  0  0  0  0  0  0  0  0  0
   -2.4719   -1.8177   -7.7513 Cl  0  0  0  0  0  0  0  0  0  0  0  0
    0.3856   -2.0869   -9.4180 Cl  0  0  0  0  0  0  0  0  0  0  0  0
   -3.0003    2.0276   -6.1454 C   0  0  0  0  0  0  0  0  0  0  0  0
   -2.5217    3.2905   -7.1498 S   0  0  0  0  0  0  0  0  0  0  0  0
   -2.3506   -1.2112   -4.3956 C   0  0  0  0  0  0  0  0  0  0  0  0
   -3.1460   -1.8037   -3.4153 C   0  0  0  0  0  0  0  0  0  0  0  0
   -4.5136   -0.8485   -3.1465 S   0  0  0  0  0  0  0  0  0  0  0  0
   -2.8036   -3.0035   -2.6333 C   0  0  0  0  0  0  0  0  0  0  0  0
   -3.9097   -4.0381   -1.8708 S   0  0  0  0  0  0  0  0  0  0  0  0
   -2.7848   -5.0175   -1.0814 C   0  0  0  0  0  0  0  0  0  0  0  0
   -1.5217   -4.4967   -1.3717 C   0  0  0  0  0  0  0  0  0  0  0  0
   -1.5296   -3.4088   -2.2473 C   0  0  0  0  0  0  0  0  0  0  0  0
   -0.3705   -2.7895   -2.5804 N   0  0  0  0  0  0  0  0  0  0  0  0
    0.8089   -3.2209   -2.0486 C   0  0  0  0  0  0  0  0  0  0  0  0
    2.0099   -2.6109   -2.4086 O   0  0  0  0  0  0  0  0  0  0  0  0
    2.1457   -1.7646   -3.5431 C   0  0  0  0  0  0  0  0  0  0  0  0
    3.6126   -1.6889   -3.9375 C   0  0  0  0  0  0  0  0  0  0  0  0
    0.8172   -4.2937   -1.1318 C   0  0  0  0  0  0  0  0  0  0  0  0
    2.0860   -4.7054   -0.4382 C   0  0  0  0  0  0  0  0  0  0  0  0
    2.0387   -6.1183   -0.0703 N   0  0  0  0  0  0  0  0  0  0  0  0
   -0.3600   -4.9013   -0.8072 N   0  0  0  0  0  0  0  0  0  0  0  0
   -3.1215   -6.2155   -0.2858 C   0  0  0  0  0  0  0  0  0  0  0  0
   -2.2606   -7.2321   -0.1380 C   0  0  0  0  0  0  0  0  0  0  0  0
   -2.5807   -8.4615    0.6048 C   0  0  0  0  0  0  0  0  0  0  0  0
   -4.0008   -8.8420    1.4451 S   0  0  0  0  0  0  0  0  0  0  0  0
   -3.5457  -10.3952    1.9514 C   0  0  0  0  0  0  0  0  0  0  0  0
   -2.2719  -10.6324    1.4350 C   0  0  0  0  0  0  0  0  0  0  0  0
   -1.7468   -9.5625    0.7077 C   0  0  0  0  0  0  0  0  0  0  0  0
   -0.5285   -9.6668    0.1298 N   0  0  0  0  0  0  0  0  0  0  0  0
    0.1953  -10.8164    0.2399 C   0  0  0  0  0  0  0  0  0  0  0  0
    1.4512  -10.9270   -0.3720 O   0  0  0  0  0  0  0  0  0  0  0  0
    2.1085   -9.8448   -1.0334 C   0  0  0  0  0  0  0  0  0  0  0  0
    1.4264   -9.4976   -2.3548 C   0  0  0  0  0  0  0  0  0  0  0  0
   -0.3322  -11.9015    0.9811 C   0  0  0  0  0  0  0  0  0  0  0  0
    0.4332  -13.1929    1.1123 C   0  0  0  0  0  0  0  0  0  0  0  0
    0.0593  -13.9001    2.3326 N   0  0  0  0  0  0  0  0  0  0  0  0
   -1.5685  -11.7884    1.5499 N   0  0  0  0  0  0  0  0  0  0  0  0
   -4.4004  -11.2878    2.7594 C   0  0  0  0  0  0  0  0  0  0  0  0
   -3.9259  -12.2936    3.4895 C   0  0  0  0  0  0  0  0  0  0  0  0
    3.0890   -4.1930   11.0821 H   0  0  0  0  0  0  0  0  0  0  0  0
    4.6022   -3.6374    9.0371 H   0  0  0  0  0  0  0  0  0  0  0  0
    8.9184   -3.8465    5.0527 H   0  0  0  0  0  0  0  0  0  0  0  0
    7.5887   -4.5512    4.0789 H   0  0  0  0  0  0  0  0  0  0  0  0
    9.0355   -3.0538    2.7026 H   0  0  0  0  0  0  0  0  0  0  0  0
    7.3487   -2.4153    2.8092 H   0  0  0  0  0  0  0  0  0  0  0  0
    8.6732   -1.6713    3.8015 H   0  0  0  0  0  0  0  0  0  0  0  0
   -4.5766    1.1479    8.8470 H   0  0  0  0  0  0  0  0  0  0  0  0
   -3.2935    2.3490    9.2149 H   0  0  0  0  0  0  0  0  0  0  0  0
   -2.9847    1.3251   11.4957 H   0  0  0  0  0  0  0  0  0  0  0  0
   -4.6747    1.9036   11.2286 H   0  0  0  0  0  0  0  0  0  0  0  0
   -4.3036    0.1428   11.1325 H   0  0  0  0  0  0  0  0  0  0  0  0
   -0.2310    0.4910    5.8146 H   0  0  0  0  0  0  0  0  0  0  0  0
   -0.7009    2.1010    4.0979 H   0  0  0  0  0  0  0  0  0  0  0  0
   -5.7214    4.9169    5.3215 H   0  0  0  0  0  0  0  0  0  0  0  0
   -5.8685    3.2214    4.7470 H   0  0  0  0  0  0  0  0  0  0  0  0
   -3.8988    4.1993    6.9162 H   0  0  0  0  0  0  0  0  0  0  0  0
   -5.4569    3.3426    7.2121 H   0  0  0  0  0  0  0  0  0  0  0  0
   -4.1190    2.4877    6.3564 H   0  0  0  0  0  0  0  0  0  0  0  0
    4.1810    1.1847   -4.4690 H   0  0  0  0  0  0  0  0  0  0  0  0
    5.7634    1.6452   -3.7494 H   0  0  0  0  0  0  0  0  0  0  0  0
    5.3652    4.0333   -4.3925 H   0  0  0  0  0  0  0  0  0  0  0  0
    5.2611    2.9452   -5.8271 H   0  0  0  0  0  0  0  0  0  0  0  0
    3.7491    3.5827   -5.0744 H   0  0  0  0  0  0  0  0  0  0  0  0
    0.7776    4.3989   -2.4776 H   0  0  0  0  0  0  0  0  0  0  0  0
    3.9411    8.6227   -2.4423 H   0  0  0  0  0  0  0  0  0  0  0  0
    2.3728    8.0206   -1.8020 H   0  0  0  0  0  0  0  0  0  0  0  0
    4.3828    6.4545   -3.5625 H   0  0  0  0  0  0  0  0  0  0  0  0
    4.0916    6.2199   -1.7976 H   0  0  0  0  0  0  0  0  0  0  0  0
    2.8001    5.8060   -2.9812 H   0  0  0  0  0  0  0  0  0  0  0  0
    2.4159    8.9591   -6.5495 H   0  0  0  0  0  0  0  0  0  0  0  0
    1.4625   10.3037   -5.8102 H   0  0  0  0  0  0  0  0  0  0  0  0
    0.8069    8.6976   -8.2110 H   0  0  0  0  0  0  0  0  0  0  0  0
    1.1983   10.3274   -8.1319 H   0  0  0  0  0  0  0  0  0  0  0  0
   -3.3281    7.6795   -7.0321 H   0  0  0  0  0  0  0  0  0  0  0  0
   -4.4732    5.9094   -8.1325 H   0  0  0  0  0  0  0  0  0  0  0  0
   -5.5588    4.1131   -5.4789 H   0  0  0  0  0  0  0  0  0  0  0  0
   -8.0778    2.8463   -0.1382 H   0  0  0  0  0  0  0  0  0  0  0  0
   -9.5055    3.2300   -1.1586 H   0  0  0  0  0  0  0  0  0  0  0  0
   -9.9684    0.7721   -1.4356 H   0  0  0  0  0  0  0  0  0  0  0  0
   -8.5345    0.3937   -0.4004 H   0  0  0  0  0  0  0  0  0  0  0  0
   -9.9548    1.2651    0.2949 H   0  0  0  0  0  0  0  0  0  0  0  0
    2.2430    0.2096   -9.7000 H   0  0  0  0  0  0  0  0  0  0  0  0
    2.6447    1.4632   -8.4794 H   0  0  0  0  0  0  0  0  0  0  0  0
    3.5301   -0.2305   -6.9408 H   0  0  0  0  0  0  0  0  0  0  0  0
    3.0390   -1.5727   -8.0562 H   0  0  0  0  0  0  0  0  0  0  0  0
    4.3200   -0.4079   -8.5462 H   0  0  0  0  0  0  0  0  0  0  0  0
   -1.4100   -1.6265   -4.7359 H   0  0  0  0  0  0  0  0  0  0  0  0
    1.7581   -0.7476   -3.3070 H   0  0  0  0  0  0  0  0  0  0  0  0
    1.5664   -2.1788   -4.4006 H   0  0  0  0  0  0  0  0  0  0  0  0
    4.1911   -1.1015   -3.1999 H   0  0  0  0  0  0  0  0  0  0  0  0
    3.6878   -1.1930   -4.9211 H   0  0  0  0  0  0  0  0  0  0  0  0
    4.0378   -2.7153   -4.0240 H   0  0  0  0  0  0  0  0  0  0  0  0
    2.9573   -4.5398   -1.1115 H   0  0  0  0  0  0  0  0  0  0  0  0
    2.2202   -4.0829    0.4732 H   0  0  0  0  0  0  0  0  0  0  0  0
    2.9918   -6.3983    0.2590 H   0  0  0  0  0  0  0  0  0  0  0  0
    1.4027   -6.2295    0.7497 H   0  0  0  0  0  0  0  0  0  0  0  0
   -4.1234   -6.2935    0.1199 H   0  0  0  0  0  0  0  0  0  0  0  0
   -1.2897   -7.1876   -0.6072 H   0  0  0  0  0  0  0  0  0  0  0  0
    2.1398   -8.9535   -0.3688 H   0  0  0  0  0  0  0  0  0  0  0  0
    3.1522  -10.1529   -1.2411 H   0  0  0  0  0  0  0  0  0  0  0  0
    2.0783   -8.8134   -2.9338 H   0  0  0  0  0  0  0  0  0  0  0  0
    1.2503  -10.4216   -2.9462 H   0  0  0  0  0  0  0  0  0  0  0  0
    0.4603   -8.9845   -2.1768 H   0  0  0  0  0  0  0  0  0  0  0  0
    1.5298  -12.9928    1.1265 H   0  0  0  0  0  0  0  0  0  0  0  0
    0.2080  -13.8330    0.2308 H   0  0  0  0  0  0  0  0  0  0  0  0
    0.3496  -13.3169    3.1531 H   0  0  0  0  0  0  0  0  0  0  0  0
    0.6309  -14.7781    2.3804 H   0  0  0  0  0  0  0  0  0  0  0  0
   -5.4650  -11.0751    2.8070 H   0  0  0  0  0  0  0  0  0  0  0  0
   -2.8706  -12.5103    3.5476 H   0  0  0  0  0  0  0  0  0  0  0  0
   -4.6000  -12.8955    4.0823 H   0  0  0  0  0  0  0  0  0  0  0  0
  1  2  2  0
  2  3  1  0
  3  4  2  0
  4  5  1  0
  5  6  1  0
  6  7  1  0
  7  8  1  0
  8  9  1  0
  7 10  2  0
 10 11  1  0
 10 12  1  0
 12 13  1  0
  4 14  1  0
 14 15  2  0
 15 16  1  0
 16 17  1  0
 17 18  1  0
 18 19  1  0
 19 20  1  0
 20 21  1  0
 19 22  2  0
 22 23  1  0
 23 24  1  0
 22 25  1  0
 16 26  2  0
 26 27  1  0
 15 28  1  0
 28 29  2  0
 29 30  1  0
 29 31  1  0
 31 32  2  0
 32 33  1  0
 33 34  2  0
 34 35  1  0
 35 36  1  0
 36 37  1  0
 37 38  1  0
 38 39  1  0
 37 40  2  0
 40 41  1  0
 40 42  1  0
 42 43  1  0
 34 44  1  0
 44 45  2  0
 45 46  1  0
 46 47  1  0
 47 48  1  0
 48 49  1  0
 49 50  1  0
 50 51  1  0
 49 52  2  0
 52 53  1  0
 53 54  1  0
 52 55  1  0
 46 56  2  0
 56 57  1  0
 45 58  1  0
 58 59  2  0
 59 60  1  0
 59 61  1  0
 61 62  1  0
 62 63  1  0
 63 64  2  0
 64 65  1  0
 65 66  1  0
 66 67  2  0
 67 68  1  0
 68 69  1  0
 69 70  1  0
 67 71  1  0
 71 72  1  0
 72 73  1  0
 71 74  2  0
 63 75  1  0
 75 76  2  3
 76 77  1  0
 77 78  2  0
 78 79  1  0
 79 80  2  0
 80 81  1  0
 81 82  1  0
 82 83  1  0
 83 84  1  0
 84 85  1  0
 83 86  2  0
 86 87  1  0
 86 88  1  0
 88 89  1  0
 80 90  1  0
 90 91  2  0
 91 92  1  0
 92 93  1  0
 93 94  1  0
 94 95  1  0
 95 96  1  0
 96 97  1  0
 95 98  2  0
 98 99  1  0
 99100  1  0
 98101  1  0
 92102  2  0
102103  1  0
 91104  1  0
104105  2  0
105106  1  0
105107  1  0
107108  1  0
108109  1  0
109110  2  0
110111  1  0
111112  1  0
112113  2  0
113114  1  0
114115  1  0
115116  1  0
113117  1  0
117118  1  0
118119  1  0
117120  2  0
109121  1  0
121122  2  3
122123  1  0
123124  1  0
124125  1  0
125126  2  0
126127  1  0
127128  1  0
128129  2  0
129130  1  0
130131  1  0
131132  1  0
129133  1  0
133134  1  0
134135  1  0
133136  2  0
125137  1  0
137138  2  3
 27  1  1  0
 57 31  1  0
 65 61  2  0
103 77  1  0
111107  2  0
127123  2  0
 26  3  1  0
 56 33  1  0
 74 64  1  0
102 79  1  0
120110  1  0
136126  1  0
 12  5  2  0
 30 14  1  0
 42 35  2  0
 60 44  1  0
 88 81  2  0
106 90  1  0
 23 17  2  0
 53 47  2  0
 99 93  2  0
  1139  1  0
  2140  1  0
  8141  1  0
  8142  1  0
  9143  1  0
  9144  1  0
  9145  1  0
 20146  1  0
 20147  1  0
 21148  1  0
 21149  1  0
 21150  1  0
 28151  1  0
 32152  1  0
 38153  1  0
 38154  1  0
 39155  1  0
 39156  1  0
 39157  1  0
 50158  1  0
 50159  1  0
 51160  1  0
 51161  1  0
 51162  1  0
 58163  1  0
 69164  1  0
 69165  1  0
 70166  1  0
 70167  1  0
 70168  1  0
 72169  1  0
 72170  1  0
 73171  1  0
 73172  1  0
 75173  1  0
 76174  1  0
 78175  1  0
 84176  1  0
 84177  1  0
 85178  1  0
 85179  1  0
 85180  1  0
 96181  1  0
 96182  1  0
 97183  1  0
 97184  1  0
 97185  1  0
104186  1  0
115187  1  0
115188  1  0
116189  1  0
116190  1  0
116191  1  0
118192  1  0
118193  1  0
119194  1  0
119195  1  0
121196  1  0
122197  1  0
131198  1  0
131199  1  0
132200  1  0
132201  1  0
132202  1  0
134203  1  0
134204  1  0
135205  1  0
135206  1  0
137207  1  0
138208  1  0
138209  1  0
M  END

