
     RDKit          3D

239265  0  0  0  0  0  0  0  0999 V2000
   11.0119   -7.2393    7.3245 C   0  0  0  0  0  0  0  0  0  0  0  0
   11.2335   -5.8675    7.2486 C   0  0  0  0  0  0  0  0  0  0  0  0
   10.1390   -5.1579    6.7277 C   0  0  0  0  0  0  0  0  0  0  0  0
   10.0686   -3.7663    6.5014 C   0  0  0  0  0  0  0  0  0  0  0  0
   11.2256   -2.8845    6.7398 C   0  0  0  0  0  0  0  0  0  0  0  0
   12.7215   -3.0507    5.9892 S   0  0  0  0  0  0  0  0  0  0  0  0
   13.4658   -1.7611    6.7698 C   0  0  0  0  0  0  0  0  0  0  0  0
   14.8836   -1.3375    6.5345 C   0  0  0  0  0  0  0  0  0  0  0  0
   14.9966   -0.5165    5.2531 C   0  0  0  0  0  0  0  0  0  0  0  0
   12.5403   -1.1661    7.6257 C   0  0  0  0  0  0  0  0  0  0  0  0
   12.8961    0.2372    8.6235 Cl  0  0  0  0  0  0  0  0  0  0  0  0
   11.2873   -1.8031    7.6170 C   0  0  0  0  0  0  0  0  0  0  0  0
    9.9557   -1.3172    8.6602 Cl  0  0  0  0  0  0  0  0  0  0  0  0
    8.8634   -3.2675    5.9713 C   0  0  0  0  0  0  0  0  0  0  0  0
    7.7762   -4.0974    5.6751 C   0  0  0  0  0  0  0  0  0  0  0  0
    7.8563   -5.4877    5.8813 C   0  0  0  0  0  0  0  0  0  0  0  0
    6.7781   -6.3964    5.4599 C   0  0  0  0  0  0  0  0  0  0  0  0
    6.4195   -6.7614    3.8595 S   0  0  0  0  0  0  0  0  0  0  0  0
    5.1923   -7.8618    4.1948 C   0  0  0  0  0  0  0  0  0  0  0  0
    4.4781   -8.6755    3.1590 C   0  0  0  0  0  0  0  0  0  0  0  0
    5.1366  -10.0399    2.9910 C   0  0  0  0  0  0  0  0  0  0  0  0
    5.0548   -7.9665    5.5779 C   0  0  0  0  0  0  0  0  0  0  0  0
    5.9455   -7.1451    6.2884 C   0  0  0  0  0  0  0  0  0  0  0  0
    6.0058   -7.0699    8.0430 Cl  0  0  0  0  0  0  0  0  0  0  0  0
    3.8933   -9.0316    6.3615 Cl  0  0  0  0  0  0  0  0  0  0  0  0
    9.0537   -5.9831    6.4180 C   0  0  0  0  0  0  0  0  0  0  0  0
    9.4621   -7.5797    6.7575 S   0  0  0  0  0  0  0  0  0  0  0  0
    6.6721   -3.4066    5.1550 C   0  0  0  0  0  0  0  0  0  0  0  0
    6.9041   -2.0406    5.0136 C   0  0  0  0  0  0  0  0  0  0  0  0
    8.4747   -1.6843    5.5339 S   0  0  0  0  0  0  0  0  0  0  0  0
    5.9385   -1.0777    4.4625 C   0  0  0  0  0  0  0  0  0  0  0  0
    6.2051    0.2431    4.1004 C   0  0  0  0  0  0  0  0  0  0  0  0
    5.0905    0.8873    3.5326 C   0  0  0  0  0  0  0  0  0  0  0  0
    5.0451    2.2093    3.0402 C   0  0  0  0  0  0  0  0  0  0  0  0
    6.1837    3.1356    3.1926 C   0  0  0  0  0  0  0  0  0  0  0  0
    7.0102    3.8776    1.9279 S   0  0  0  0  0  0  0  0  0  0  0  0
    8.0878    4.7362    2.8952 C   0  0  0  0  0  0  0  0  0  0  0  0
    9.1016    5.7143    2.3809 C   0  0  0  0  0  0  0  0  0  0  0  0
    8.5309    7.1276    2.3753 C   0  0  0  0  0  0  0  0  0  0  0  0
    7.7967    4.4692    4.2315 C   0  0  0  0  0  0  0  0  0  0  0  0
    8.6511    5.2054    5.5793 Cl  0  0  0  0  0  0  0  0  0  0  0  0
    6.7331    3.5675    4.3975 C   0  0  0  0  0  0  0  0  0  0  0  0
    6.1089    3.0968    5.9746 Cl  0  0  0  0  0  0  0  0  0  0  0  0
    3.8492    2.6131    2.4163 C   0  0  0  0  0  0  0  0  0  0  0  0
    2.7320    1.7733    2.3245 C   0  0  0  0  0  0  0  0  0  0  0  0
    2.7555    0.4822    2.8825 C   0  0  0  0  0  0  0  0  0  0  0  0
    1.5490   -0.3567    2.9845 C   0  0  0  0  0  0  0  0  0  0  0  0
    1.2353   -1.7335    2.0666 S   0  0  0  0  0  0  0  0  0  0  0  0
   -0.0893   -2.2551    2.9687 C   0  0  0  0  0  0  0  0  0  0  0  0
   -0.8398   -3.5310    2.7222 C   0  0  0  0  0  0  0  0  0  0  0  0
   -2.2830   -3.2638    2.3018 C   0  0  0  0  0  0  0  0  0  0  0  0
   -0.2816   -1.3663    4.0282 C   0  0  0  0  0  0  0  0  0  0  0  0
    0.6376   -0.3054    4.0323 C   0  0  0  0  0  0  0  0  0  0  0  0
    0.6835    0.9264    5.2854 Cl  0  0  0  0  0  0  0  0  0  0  0  0
   -1.4842   -1.5940    5.2901 Cl  0  0  0  0  0  0  0  0  0  0  0  0
    3.9638    0.0629    3.4518 C   0  0  0  0  0  0  0  0  0  0  0  0
    4.3324   -1.4426    4.0938 S   0  0  0  0  0  0  0  0  0  0  0  0
    1.6711    2.3359    1.6034 C   0  0  0  0  0  0  0  0  0  0  0  0
    1.9534    3.6168    1.1400 C   0  0  0  0  0  0  0  0  0  0  0  0
    3.5081    4.0629    1.6245 S   0  0  0  0  0  0  0  0  0  0  0  0
    1.1523    4.3174    0.1352 C   0  0  0  0  0  0  0  0  0  0  0  0
    0.4473    5.5038    0.3238 C   0  0  0  0  0  0  0  0  0  0  0  0
   -0.4104    5.7989   -0.7548 C   0  0  0  0  0  0  0  0  0  0  0  0
   -1.3772    6.8280   -0.8028 C   0  0  0  0  0  0  0  0  0  0  0  0
   -1.6129    7.7369    0.3298 C   0  0  0  0  0  0  0  0  0  0  0  0
   -1.4123    9.4047    0.2702 S   0  0  0  0  0  0  0  0  0  0  0  0
   -1.8916    9.6981    1.8562 C   0  0  0  0  0  0  0  0  0  0  0  0
   -1.8644   11.0432    2.5146 C   0  0  0  0  0  0  0  0  0  0  0  0
   -0.5454   11.2513    3.2491 C   0  0  0  0  0  0  0  0  0  0  0  0
   -2.2151    8.4808    2.4589 C   0  0  0  0  0  0  0  0  0  0  0  0
   -2.7495    8.3332    4.1272 Cl  0  0  0  0  0  0  0  0  0  0  0  0
   -2.0674    7.3818    1.5980 C   0  0  0  0  0  0  0  0  0  0  0  0
   -2.4434    5.7284    2.0684 Cl  0  0  0  0  0  0  0  0  0  0  0  0
   -2.2042    6.8745   -1.9414 C   0  0  0  0  0  0  0  0  0  0  0  0
   -2.0790    5.9657   -2.9935 C   0  0  0  0  0  0  0  0  0  0  0  0
   -1.1402    4.9167   -2.9300 C   0  0  0  0  0  0  0  0  0  0  0  0
   -1.1438    3.8076   -3.9045 C   0  0  0  0  0  0  0  0  0  0  0  0
    0.1087    3.4563   -4.9714 S   0  0  0  0  0  0  0  0  0  0  0  0
   -0.6059    2.0867   -5.6409 C   0  0  0  0  0  0  0  0  0  0  0  0
   -0.0231    1.2889   -6.7679 C   0  0  0  0  0  0  0  0  0  0  0  0
   -0.6201    1.7277   -8.1007 C   0  0  0  0  0  0  0  0  0  0  0  0
   -1.8482    1.8879   -5.0383 C   0  0  0  0  0  0  0  0  0  0  0  0
   -2.1475    2.8509   -4.0618 C   0  0  0  0  0  0  0  0  0  0  0  0
   -3.6317    2.8222   -3.1158 Cl  0  0  0  0  0  0  0  0  0  0  0  0
   -2.9302    0.5613   -5.4545 Cl  0  0  0  0  0  0  0  0  0  0  0  0
   -0.3188    4.8684   -1.7966 C   0  0  0  0  0  0  0  0  0  0  0  0
    0.7495    3.6499   -1.3572 S   0  0  0  0  0  0  0  0  0  0  0  0
   -3.0815    6.0951   -3.9594 C   0  0  0  0  0  0  0  0  0  0  0  0
   -4.0754    7.0172   -3.6226 C   0  0  0  0  0  0  0  0  0  0  0  0
   -3.6300    7.7445   -2.1592 S   0  0  0  0  0  0  0  0  0  0  0  0
   -5.4709    6.7366   -4.0015 C   0  0  0  0  0  0  0  0  0  0  0  0
   -6.2421    6.0090   -3.0938 C   0  0  0  0  0  0  0  0  0  0  0  0
   -6.9123    4.9151   -3.6680 C   0  0  0  0  0  0  0  0  0  0  0  0
   -7.3978    3.7997   -2.9561 C   0  0  0  0  0  0  0  0  0  0  0  0
   -7.3971    3.7534   -1.4813 C   0  0  0  0  0  0  0  0  0  0  0  0
   -6.0251    3.8026   -0.5083 S   0  0  0  0  0  0  0  0  0  0  0  0
   -6.8456    3.7311    0.9583 C   0  0  0  0  0  0  0  0  0  0  0  0
   -6.1923    3.8708    2.2994 C   0  0  0  0  0  0  0  0  0  0  0  0
   -6.0162    5.3425    2.6556 C   0  0  0  0  0  0  0  0  0  0  0  0
   -8.2151    3.6736    0.7016 C   0  0  0  0  0  0  0  0  0  0  0  0
   -9.4426    3.6375    1.9595 Cl  0  0  0  0  0  0  0  0  0  0  0  0
   -8.5226    3.6699   -0.6681 C   0  0  0  0  0  0  0  0  0  0  0  0
  -10.1652    3.6188   -1.2936 Cl  0  0  0  0  0  0  0  0  0  0  0  0
   -7.6647    2.6435   -3.7023 C   0  0  0  0  0  0  0  0  0  0  0  0
   -7.5247    2.5926   -5.0928 C   0  0  0  0  0  0  0  0  0  0  0  0
   -7.1491    3.7432   -5.8131 C   0  0  0  0  0  0  0  0  0  0  0  0
   -6.9723    3.7117   -7.2741 C   0  0  0  0  0  0  0  0  0  0  0  0
   -8.2341    3.7815   -8.3791 S   0  0  0  0  0  0  0  0  0  0  0  0
   -7.2694    3.7329   -9.7574 C   0  0  0  0  0  0  0  0  0  0  0  0
   -7.7951    3.8140  -11.1595 C   0  0  0  0  0  0  0  0  0  0  0  0
   -8.0472    5.2638  -11.5610 C   0  0  0  0  0  0  0  0  0  0  0  0
   -5.9350    3.6629   -9.3648 C   0  0  0  0  0  0  0  0  0  0  0  0
   -5.7683    3.6434   -7.9702 C   0  0  0  0  0  0  0  0  0  0  0  0
   -4.2007    3.5015   -7.1880 Cl  0  0  0  0  0  0  0  0  0  0  0  0
   -4.5893    3.6048  -10.4972 Cl  0  0  0  0  0  0  0  0  0  0  0  0
   -6.8065    4.8791   -5.0596 C   0  0  0  0  0  0  0  0  0  0  0  0
   -5.8332    6.1568   -5.5492 S   0  0  0  0  0  0  0  0  0  0  0  0
   -7.5301    1.2821   -5.6006 C   0  0  0  0  0  0  0  0  0  0  0  0
   -7.6211    0.3047   -4.6034 C   0  0  0  0  0  0  0  0  0  0  0  0
   -7.7794    1.0758   -3.1119 S   0  0  0  0  0  0  0  0  0  0  0  0
   -7.1922   -1.1078   -4.7246 C   0  0  0  0  0  0  0  0  0  0  0  0
   -7.0095   -2.1475   -3.4014 S   0  0  0  0  0  0  0  0  0  0  0  0
   -6.0649   -3.3306   -4.1517 C   0  0  0  0  0  0  0  0  0  0  0  0
   -5.8760   -2.9115   -5.4613 C   0  0  0  0  0  0  0  0  0  0  0  0
   -6.4912   -1.6967   -5.7795 C   0  0  0  0  0  0  0  0  0  0  0  0
   -6.2875   -1.1398   -6.9969 N   0  0  0  0  0  0  0  0  0  0  0  0
   -5.5094   -1.7635   -7.9272 C   0  0  0  0  0  0  0  0  0  0  0  0
   -5.3183   -1.1886   -9.1890 O   0  0  0  0  0  0  0  0  0  0  0  0
   -5.8891    0.0591   -9.5821 C   0  0  0  0  0  0  0  0  0  0  0  0
   -7.3760   -0.0966   -9.8788 C   0  0  0  0  0  0  0  0  0  0  0  0
   -4.8857   -2.9913   -7.6029 C   0  0  0  0  0  0  0  0  0  0  0  0
   -4.0414   -3.7200   -8.6158 C   0  0  0  0  0  0  0  0  0  0  0  0
   -3.0729   -4.5882   -7.9575 N   0  0  0  0  0  0  0  0  0  0  0  0
   -5.0864   -3.5383   -6.3675 N   0  0  0  0  0  0  0  0  0  0  0  0
   -5.2702   -4.3603   -3.4629 C   0  0  0  0  0  0  0  0  0  0  0  0
   -5.5280   -4.7322   -2.2059 C   0  0  0  0  0  0  0  0  0  0  0  0
   -4.5602   -5.4902   -1.3939 C   0  0  0  0  0  0  0  0  0  0  0  0
   -3.1716   -5.5048   -1.5638 C   0  0  0  0  0  0  0  0  0  0  0  0
   -2.4904   -6.0851   -0.4799 C   0  0  0  0  0  0  0  0  0  0  0  0
   -1.0912   -6.1882   -0.3276 C   0  0  0  0  0  0  0  0  0  0  0  0
   -0.1465   -5.7069   -1.3541 C   0  0  0  0  0  0  0  0  0  0  0  0
    0.9601   -6.6828   -2.1603 S   0  0  0  0  0  0  0  0  0  0  0  0
    1.6521   -5.4586   -3.0812 C   0  0  0  0  0  0  0  0  0  0  0  0
    2.8189   -5.6442   -4.0044 C   0  0  0  0  0  0  0  0  0  0  0  0
    4.1316   -5.3662   -3.2798 C   0  0  0  0  0  0  0  0  0  0  0  0
    1.0408   -4.2524   -2.7440 C   0  0  0  0  0  0  0  0  0  0  0  0
    1.5015   -2.7029   -3.4343 Cl  0  0  0  0  0  0  0  0  0  0  0  0
    0.0267   -4.3924   -1.7821 C   0  0  0  0  0  0  0  0  0  0  0  0
   -0.8655   -3.0252   -1.1299 Cl  0  0  0  0  0  0  0  0  0  0  0  0
   -0.6258   -6.7752    0.8623 C   0  0  0  0  0  0  0  0  0  0  0  0
   -1.4856   -7.2491    1.8561 C   0  0  0  0  0  0  0  0  0  0  0  0
   -2.8821   -7.1744    1.6909 C   0  0  0  0  0  0  0  0  0  0  0  0
   -3.8111   -7.7248    2.6933 C   0  0  0  0  0  0  0  0  0  0  0  0
   -4.9106   -6.8293    3.5982 S   0  0  0  0  0  0  0  0  0  0  0  0
   -5.5441   -8.1349    4.4515 C   0  0  0  0  0  0  0  0  0  0  0  0
   -6.5929   -8.0320    5.5175 C   0  0  0  0  0  0  0  0  0  0  0  0
   -5.9614   -8.0417    6.9048 C   0  0  0  0  0  0  0  0  0  0  0  0
   -4.8896   -9.2956    4.0411 C   0  0  0  0  0  0  0  0  0  0  0  0
   -3.9197   -9.0657    3.0541 C   0  0  0  0  0  0  0  0  0  0  0  0
   -2.9704  -10.3490    2.3130 Cl  0  0  0  0  0  0  0  0  0  0  0  0
   -5.2422  -10.8933    4.6884 Cl  0  0  0  0  0  0  0  0  0  0  0  0
   -3.3503   -6.5602    0.5175 C   0  0  0  0  0  0  0  0  0  0  0  0
   -4.9393   -6.2228    0.0783 S   0  0  0  0  0  0  0  0  0  0  0  0
   -0.8101   -7.7195    2.9924 C   0  0  0  0  0  0  0  0  0  0  0  0
    0.5730   -7.6120    2.8882 C   0  0  0  0  0  0  0  0  0  0  0  0
    0.9622   -6.9378    1.3933 S   0  0  0  0  0  0  0  0  0  0  0  0
   11.7260   -7.9661    7.6888 H   0  0  0  0  0  0  0  0  0  0  0  0
   12.1610   -5.4118    7.5681 H   0  0  0  0  0  0  0  0  0  0  0  0
   15.5227   -2.2428    6.4441 H   0  0  0  0  0  0  0  0  0  0  0  0
   15.2593   -0.7405    7.3926 H   0  0  0  0  0  0  0  0  0  0  0  0
   16.0613   -0.2578    5.0709 H   0  0  0  0  0  0  0  0  0  0  0  0
   14.4113    0.4224    5.3448 H   0  0  0  0  0  0  0  0  0  0  0  0
   14.6238   -1.0996    4.3840 H   0  0  0  0  0  0  0  0  0  0  0  0
    3.4204   -8.8135    3.4531 H   0  0  0  0  0  0  0  0  0  0  0  0
    4.4969   -8.1369    2.1883 H   0  0  0  0  0  0  0  0  0  0  0  0
    4.6118  -10.6081    2.1947 H   0  0  0  0  0  0  0  0  0  0  0  0
    6.2041   -9.9247    2.7060 H   0  0  0  0  0  0  0  0  0  0  0  0
    5.0723  -10.6164    3.9381 H   0  0  0  0  0  0  0  0  0  0  0  0
    5.7400   -3.8841    4.8811 H   0  0  0  0  0  0  0  0  0  0  0  0
    7.1781    0.7061    4.2180 H   0  0  0  0  0  0  0  0  0  0  0  0
    9.3924    5.4328    1.3459 H   0  0  0  0  0  0  0  0  0  0  0  0
   10.0129    5.6792    3.0154 H   0  0  0  0  0  0  0  0  0  0  0  0
    7.6121    7.1735    1.7544 H   0  0  0  0  0  0  0  0  0  0  0  0
    9.2817    7.8255    1.9487 H   0  0  0  0  0  0  0  0  0  0  0  0
    8.2882    7.4531    3.4107 H   0  0  0  0  0  0  0  0  0  0  0  0
   -0.8253   -4.1541    3.6410 H   0  0  0  0  0  0  0  0  0  0  0  0
   -0.3339   -4.0995    1.9156 H   0  0  0  0  0  0  0  0  0  0  0  0
   -2.7944   -4.2299    2.1176 H   0  0  0  0  0  0  0  0  0  0  0  0
   -2.3123   -2.6643    1.3695 H   0  0  0  0  0  0  0  0  0  0  0  0
   -2.8373   -2.7270    3.0972 H   0  0  0  0  0  0  0  0  0  0  0  0
    0.7504    1.8096    1.3755 H   0  0  0  0  0  0  0  0  0  0  0  0
    0.4991    6.0822    1.2396 H   0  0  0  0  0  0  0  0  0  0  0  0
   -1.9847   11.8337    1.7436 H   0  0  0  0  0  0  0  0  0  0  0  0
   -2.7087   11.1327    3.2287 H   0  0  0  0  0  0  0  0  0  0  0  0
   -0.4378   10.5056    4.0669 H   0  0  0  0  0  0  0  0  0  0  0  0
   -0.5229   12.2678    3.6903 H   0  0  0  0  0  0  0  0  0  0  0  0
    0.3092   11.1512    2.5491 H   0  0  0  0  0  0  0  0  0  0  0  0
   -0.2196    0.2097   -6.6045 H   0  0  0  0  0  0  0  0  0  0  0  0
    1.0775    1.4360   -6.7942 H   0  0  0  0  0  0  0  0  0  0  0  0
   -1.7100    1.5111   -8.1249 H   0  0  0  0  0  0  0  0  0  0  0  0
   -0.1289    1.1722   -8.9275 H   0  0  0  0  0  0  0  0  0  0  0  0
   -0.4606    2.8154   -8.2536 H   0  0  0  0  0  0  0  0  0  0  0  0
   -3.1898    5.3991   -4.7821 H   0  0  0  0  0  0  0  0  0  0  0  0
   -6.1068    6.1143   -2.0256 H   0  0  0  0  0  0  0  0  0  0  0  0
   -6.8008    3.3680    3.0781 H   0  0  0  0  0  0  0  0  0  0  0  0
   -5.1972    3.3791    2.2704 H   0  0  0  0  0  0  0  0  0  0  0  0
   -5.4570    5.4281    3.6121 H   0  0  0  0  0  0  0  0  0  0  0  0
   -5.4467    5.8711    1.8615 H   0  0  0  0  0  0  0  0  0  0  0  0
   -7.0066    5.8310    2.7727 H   0  0  0  0  0  0  0  0  0  0  0  0
   -8.7509    3.2497  -11.2229 H   0  0  0  0  0  0  0  0  0  0  0  0
   -7.0774    3.3489  -11.8672 H   0  0  0  0  0  0  0  0  0  0  0  0
   -7.0998    5.8459  -11.5344 H   0  0  0  0  0  0  0  0  0  0  0  0
   -8.7832    5.7314  -10.8716 H   0  0  0  0  0  0  0  0  0  0  0  0
   -8.4572    5.2973  -12.5923 H   0  0  0  0  0  0  0  0  0  0  0  0
   -7.3434    1.0651   -6.6426 H   0  0  0  0  0  0  0  0  0  0  0  0
   -5.3768    0.4068  -10.5021 H   0  0  0  0  0  0  0  0  0  0  0  0
   -5.7296    0.8197   -8.7907 H   0  0  0  0  0  0  0  0  0  0  0  0
   -7.5257   -0.8754  -10.6556 H   0  0  0  0  0  0  0  0  0  0  0  0
   -7.7798    0.8656  -10.2519 H   0  0  0  0  0  0  0  0  0  0  0  0
   -7.9322   -0.3824   -8.9640 H   0  0  0  0  0  0  0  0  0  0  0  0
   -3.5005   -2.9927   -9.2639 H   0  0  0  0  0  0  0  0  0  0  0  0
   -4.7080   -4.3352   -9.2604 H   0  0  0  0  0  0  0  0  0  0  0  0
   -2.5053   -5.0590   -8.6983 H   0  0  0  0  0  0  0  0  0  0  0  0
   -2.4097   -3.9887   -7.4093 H   0  0  0  0  0  0  0  0  0  0  0  0
   -4.3955   -4.7445   -3.9728 H   0  0  0  0  0  0  0  0  0  0  0  0
   -6.4386   -4.4084   -1.7254 H   0  0  0  0  0  0  0  0  0  0  0  0
   -2.6696   -5.0520   -2.4079 H   0  0  0  0  0  0  0  0  0  0  0  0
    2.8259   -6.6901   -4.3816 H   0  0  0  0  0  0  0  0  0  0  0  0
    2.7211   -4.9658   -4.8788 H   0  0  0  0  0  0  0  0  0  0  0  0
    4.9811   -5.5417   -3.9729 H   0  0  0  0  0  0  0  0  0  0  0  0
    4.2413   -6.0429   -2.4068 H   0  0  0  0  0  0  0  0  0  0  0  0
    4.1672   -4.3121   -2.9281 H   0  0  0  0  0  0  0  0  0  0  0  0
   -7.1638   -7.0880    5.3831 H   0  0  0  0  0  0  0  0  0  0  0  0
   -7.3069   -8.8783    5.4255 H   0  0  0  0  0  0  0  0  0  0  0  0
   -5.2839   -7.1706    7.0256 H   0  0  0  0  0  0  0  0  0  0  0  0
   -6.7571   -7.9837    7.6759 H   0  0  0  0  0  0  0  0  0  0  0  0
   -5.3855   -8.9786    7.0632 H   0  0  0  0  0  0  0  0  0  0  0  0
   -1.3014   -8.1080    3.8765 H   0  0  0  0  0  0  0  0  0  0  0  0
    1.2750   -7.8990    3.6565 H   0  0  0  0  0  0  0  0  0  0  0  0
  1  2  2  0
  2  3  1  0
  3  4  2  0
  4  5  1  0
  5  6  1  0
  6  7  1  0
  7  8  1  0
  8  9  1  0
  7 10  2  0
 10 11  1  0
 10 12  1  0
 12 13  1  0
  4 14  1  0
 14 15  2  0
 15 16  1  0
 16 17  1  0
 17 18  1  0
 18 19  1  0
 19 20  1  0
 20 21  1  0
 19 22  2  0
 22 23  1  0
 23 24  1  0
 22 25  1  0
 16 26  2  0
 26 27  1  0
 15 28  1  0
 28 29  2  0
 29 30  1  0
 29 31  1  0
 31 32  2  0
 32 33  1  0
 33 34  2  0
 34 35  1  0
 35 36  1  0
 36 37  1  0
 37 38  1  0
 38 39  1  0
 37 40  2  0
 40 41  1  0
 40 42  1  0
 42 43  1  0
 34 44  1  0
 44 45  2  0
 45 46  1  0
 46 47  1  0
 47 48  1  0
 48 49  1  0
 49 50  1  0
 50 51  1  0
 49 52  2  0
 52 53  1  0
 53 54  1  0
 52 55  1  0
 46 56  2  0
 56 57  1  0
 45 58  1  0
 58 59  2  0
 59 60  1  0
 59 61  1  0
 61 62  2  0
 62 63  1  0
 63 64  2  0
 64 65  1  0
 65 66  1  0
 66 67  1  0
 67 68  1  0
 68 69  1  0
 67 70  2  0
 70 71  1  0
 70 72  1  0
 72 73  1  0
 64 74  1  0
 74 75  2  0
 75 76  1  0
 76 77  1  0
 77 78  1  0
 78 79  1  0
 79 80  1  0
 80 81  1  0
 79 82  2  0
 82 83  1  0
 83 84  1  0
 82 85  1  0
 76 86  2  0
 86 87  1  0
 75 88  1  0
 88 89  2  0
 89 90  1  0
 89 91  1  0
 91 92  2  0
 92 93  1  0
 93 94  2  0
 94 95  1  0
 95 96  1  0
 96 97  1  0
 97 98  1  0
 98 99  1  0
 97100  2  0
100101  1  0
100102  1  0
102103  1  0
 94104  1  0
104105  2  0
105106  1  0
106107  1  0
107108  1  0
108109  1  0
109110  1  0
110111  1  0
109112  2  0
112113  1  0
113114  1  0
112115  1  0
106116  2  0
116117  1  0
105118  1  0
118119  2  0
119120  1  0
119121  1  0
121122  1  0
122123  1  0
123124  2  0
124125  1  0
125126  1  0
126127  2  0
127128  1  0
128129  1  0
129130  1  0
127131  1  0
131132  1  0
132133  1  0
131134  2  0
123135  1  0
135136  2  3
136137  1  0
137138  2  0
138139  1  0
139140  2  0
140141  1  0
141142  1  0
142143  1  0
143144  1  0
144145  1  0
143146  2  0
146147  1  0
146148  1  0
148149  1  0
140150  1  0
150151  2  0
151152  1  0
152153  1  0
153154  1  0
154155  1  0
155156  1  0
156157  1  0
155158  2  0
158159  1  0
159160  1  0
158161  1  0
152162  2  0
162163  1  0
151164  1  0
164165  2  0
165166  1  0
 27  1  1  0
 57 31  1  0
 87 61  1  0
117 91  1  0
125121  2  0
163137  1  0
 26  3  1  0
 56 33  1  0
 86 63  1  0
116 93  1  0
134124  1  0
162139  1  0
 12  5  2  0
 30 14  1  0
 42 35  2  0
 60 44  1  0
 72 65  2  0
 90 74  1  0
102 95  2  0
120104  1  0
148141  2  0
166150  1  0
 23 17  2  0
 53 47  2  0
 83 77  2  0
113107  2  0
159153  2  0
  1167  1  0
  2168  1  0
  8169  1  0
  8170  1  0
  9171  1  0
  9172  1  0
  9173  1  0
 20174  1  0
 20175  1  0
 21176  1  0
 21177  1  0
 21178  1  0
 28179  1  0
 32180  1  0
 38181  1  0
 38182  1  0
 39183  1  0
 39184  1  0
 39185  1  0
 50186  1  0
 50187  1  0
 51188  1  0
 51189  1  0
 51190  1  0
 58191  1  0
 62192  1  0
 68193  1  0
 68194  1  0
 69195  1  0
 69196  1  0
 69197  1  0
 80198  1  0
 80199  1  0
 81200  1  0
 81201  1  0
 81202  1  0
 88203  1  0
 92204  1  0
 98205  1  0
 98206  1  0
 99207  1  0
 99208  1  0
 99209  1  0
110210  1  0
110211  1  0
111212  1  0
111213  1  0
111214  1  0
118215  1  0
129216  1  0
129217  1  0
130218  1  0
130219  1  0
130220  1  0
132221  1  0
132222  1  0
133223  1  0
133224  1  0
135225  1  0
136226  1  0
138227  1  0
144228  1  0
144229  1  0
145230  1  0
145231  1  0
145232  1  0
156233  1  0
156234  1  0
157235  1  0
157236  1  0
157237  1  0
164238  1  0
165239  1  0
M  END

