
     RDKit          3D

194211  0  0  0  0  0  0  0  0999 V2000
   -5.6871   -7.6809   -4.7083 C   0  0  0  0  0  0  0  0  0  0  0  0
   -5.3254   -6.6198   -5.5317 C   0  0  0  0  0  0  0  0  0  0  0  0
   -5.8574   -5.3890   -5.1131 C   0  0  0  0  0  0  0  0  0  0  0  0
   -5.6430   -4.1316   -5.7181 C   0  0  0  0  0  0  0  0  0  0  0  0
   -4.7376   -3.9523   -6.8690 C   0  0  0  0  0  0  0  0  0  0  0  0
   -3.0918   -4.2898   -6.8455 S   0  0  0  0  0  0  0  0  0  0  0  0
   -2.7463   -3.6518   -8.3632 C   0  0  0  0  0  0  0  0  0  0  0  0
   -1.3929   -3.6673   -9.0131 C   0  0  0  0  0  0  0  0  0  0  0  0
   -0.3353   -3.0232   -8.1207 C   0  0  0  0  0  0  0  0  0  0  0  0
   -3.9343   -3.1721   -8.9213 C   0  0  0  0  0  0  0  0  0  0  0  0
   -4.0432   -2.4346  -10.5175 Cl  0  0  0  0  0  0  0  0  0  0  0  0
   -5.0466   -3.3395   -8.0831 C   0  0  0  0  0  0  0  0  0  0  0  0
   -6.6789   -2.8778   -8.5506 Cl  0  0  0  0  0  0  0  0  0  0  0  0
   -6.2542   -3.0237   -5.1061 C   0  0  0  0  0  0  0  0  0  0  0  0
   -7.0467   -3.1325   -3.9595 C   0  0  0  0  0  0  0  0  0  0  0  0
   -7.2574   -4.3885   -3.3517 C   0  0  0  0  0  0  0  0  0  0  0  0
   -8.0071   -4.5241   -2.0883 C   0  0  0  0  0  0  0  0  0  0  0  0
   -9.3991   -5.4427   -1.8814 S   0  0  0  0  0  0  0  0  0  0  0  0
   -9.6344   -5.0516   -0.2605 C   0  0  0  0  0  0  0  0  0  0  0  0
  -10.7472   -5.5767    0.5927 C   0  0  0  0  0  0  0  0  0  0  0  0
  -10.2628   -6.7060    1.4952 C   0  0  0  0  0  0  0  0  0  0  0  0
   -8.6031   -4.2061    0.1483 C   0  0  0  0  0  0  0  0  0  0  0  0
   -7.6902   -3.9109   -0.8736 C   0  0  0  0  0  0  0  0  0  0  0  0
   -6.2675   -2.9082   -0.6294 Cl  0  0  0  0  0  0  0  0  0  0  0  0
   -8.4522   -3.5728    1.7835 Cl  0  0  0  0  0  0  0  0  0  0  0  0
   -6.6508   -5.4977   -3.9664 C   0  0  0  0  0  0  0  0  0  0  0  0
   -6.6658   -7.1041   -3.4633 S   0  0  0  0  0  0  0  0  0  0  0  0
   -7.5343   -1.8944   -3.5060 C   0  0  0  0  0  0  0  0  0  0  0  0
   -7.0818   -0.8209   -4.2648 C   0  0  0  0  0  0  0  0  0  0  0  0
   -6.1028   -1.3988   -5.5093 S   0  0  0  0  0  0  0  0  0  0  0  0
   -7.3027    0.5966   -3.9425 C   0  0  0  0  0  0  0  0  0  0  0  0
   -7.9577    1.1721   -2.4998 S   0  0  0  0  0  0  0  0  0  0  0  0
   -7.7058    2.8166   -2.7887 C   0  0  0  0  0  0  0  0  0  0  0  0
   -7.0751    2.9275   -4.0229 C   0  0  0  0  0  0  0  0  0  0  0  0
   -6.8601    1.7039   -4.6572 C   0  0  0  0  0  0  0  0  0  0  0  0
   -6.1988    1.6546   -5.8357 N   0  0  0  0  0  0  0  0  0  0  0  0
   -5.7411    2.7978   -6.4190 C   0  0  0  0  0  0  0  0  0  0  0  0
   -5.0835    2.7337   -7.6556 O   0  0  0  0  0  0  0  0  0  0  0  0
   -4.6006    1.5100   -8.2161 C   0  0  0  0  0  0  0  0  0  0  0  0
   -3.4340    0.9453   -7.4041 C   0  0  0  0  0  0  0  0  0  0  0  0
   -5.9487    4.0412   -5.7726 C   0  0  0  0  0  0  0  0  0  0  0  0
   -5.4064    5.3122   -6.3751 C   0  0  0  0  0  0  0  0  0  0  0  0
   -5.8920    6.4880   -5.6545 N   0  0  0  0  0  0  0  0  0  0  0  0
   -6.6071    4.0754   -4.5753 N   0  0  0  0  0  0  0  0  0  0  0  0
   -7.8155    3.8600   -1.7617 C   0  0  0  0  0  0  0  0  0  0  0  0
   -6.9844    3.9007   -0.7135 C   0  0  0  0  0  0  0  0  0  0  0  0
   -5.7626    3.0832   -0.6545 C   0  0  0  0  0  0  0  0  0  0  0  0
   -4.7258    3.1453   -1.5782 C   0  0  0  0  0  0  0  0  0  0  0  0
   -3.7088    2.2143   -1.3262 C   0  0  0  0  0  0  0  0  0  0  0  0
   -2.5216    2.0586   -2.0710 C   0  0  0  0  0  0  0  0  0  0  0  0
   -2.1417    3.0187   -3.1230 C   0  0  0  0  0  0  0  0  0  0  0  0
   -1.8269    2.6213   -4.7277 S   0  0  0  0  0  0  0  0  0  0  0  0
   -1.4994    4.1912   -5.2414 C   0  0  0  0  0  0  0  0  0  0  0  0
   -1.0786    4.5622   -6.6315 C   0  0  0  0  0  0  0  0  0  0  0  0
    0.4408    4.5853   -6.7488 C   0  0  0  0  0  0  0  0  0  0  0  0
   -1.5916    5.0474   -4.1473 C   0  0  0  0  0  0  0  0  0  0  0  0
   -1.2678    6.7740   -4.2350 Cl  0  0  0  0  0  0  0  0  0  0  0  0
   -1.9534    4.3918   -2.9602 C   0  0  0  0  0  0  0  0  0  0  0  0
   -2.0646    5.2122   -1.4077 Cl  0  0  0  0  0  0  0  0  0  0  0  0
   -1.6640    1.0218   -1.6790 C   0  0  0  0  0  0  0  0  0  0  0  0
   -1.9214    0.2064   -0.5704 C   0  0  0  0  0  0  0  0  0  0  0  0
   -3.0931    0.3884    0.1986 C   0  0  0  0  0  0  0  0  0  0  0  0
   -3.3669   -0.4294    1.3922 C   0  0  0  0  0  0  0  0  0  0  0  0
   -3.6062   -2.0941    1.3850 S   0  0  0  0  0  0  0  0  0  0  0  0
   -3.8596   -2.2523    3.0376 C   0  0  0  0  0  0  0  0  0  0  0  0
   -4.1203   -3.5525    3.7382 C   0  0  0  0  0  0  0  0  0  0  0  0
   -2.8121   -4.2820    4.0271 C   0  0  0  0  0  0  0  0  0  0  0  0
   -3.7205   -0.9967    3.6322 C   0  0  0  0  0  0  0  0  0  0  0  0
   -3.4458    0.0234    2.7063 C   0  0  0  0  0  0  0  0  0  0  0  0
   -3.1540    1.6953    3.1774 Cl  0  0  0  0  0  0  0  0  0  0  0  0
   -3.8349   -0.7233    5.3649 Cl  0  0  0  0  0  0  0  0  0  0  0  0
   -3.9716    1.4033   -0.2162 C   0  0  0  0  0  0  0  0  0  0  0  0
   -5.4469    1.8611    0.4631 S   0  0  0  0  0  0  0  0  0  0  0  0
   -0.8561   -0.6575   -0.2676 C   0  0  0  0  0  0  0  0  0  0  0  0
    0.2339   -0.5062   -1.1220 C   0  0  0  0  0  0  0  0  0  0  0  0
   -0.1253    0.6809   -2.2661 S   0  0  0  0  0  0  0  0  0  0  0  0
    1.5716   -1.0671   -0.8726 C   0  0  0  0  0  0  0  0  0  0  0  0
    1.9850   -2.0734    0.4220 S   0  0  0  0  0  0  0  0  0  0  0  0
    3.6568   -2.0411    0.2170 C   0  0  0  0  0  0  0  0  0  0  0  0
    3.9005   -1.2889   -0.9229 C   0  0  0  0  0  0  0  0  0  0  0  0
    2.7608   -0.7466   -1.5189 C   0  0  0  0  0  0  0  0  0  0  0  0
    2.8659   -0.0246   -2.6633 N   0  0  0  0  0  0  0  0  0  0  0  0
    4.0862    0.1732   -3.2427 C   0  0  0  0  0  0  0  0  0  0  0  0
    4.1934    0.8856   -4.4402 O   0  0  0  0  0  0  0  0  0  0  0  0
    3.0611    1.3166   -5.1894 C   0  0  0  0  0  0  0  0  0  0  0  0
    3.5264    1.9296   -6.4971 C   0  0  0  0  0  0  0  0  0  0  0  0
    5.2446   -0.3745   -2.6384 C   0  0  0  0  0  0  0  0  0  0  0  0
    6.6000   -0.1408   -3.2505 C   0  0  0  0  0  0  0  0  0  0  0  0
    7.6359   -0.9272   -2.5847 N   0  0  0  0  0  0  0  0  0  0  0  0
    5.1205   -1.1046   -1.4889 N   0  0  0  0  0  0  0  0  0  0  0  0
    4.5196   -3.1199    0.6736 C   0  0  0  0  0  0  0  0  0  0  0  0
    5.4489   -3.0717    1.6294 C   0  0  0  0  0  0  0  0  0  0  0  0
    5.8305   -1.9906    2.5756 C   0  0  0  0  0  0  0  0  0  0  0  0
    7.1024   -2.2802    3.6593 S   0  0  0  0  0  0  0  0  0  0  0  0
    6.9860   -0.8810    4.5594 C   0  0  0  0  0  0  0  0  0  0  0  0
    5.9526   -0.1380    4.0111 C   0  0  0  0  0  0  0  0  0  0  0  0
    5.2923   -0.7306    2.9207 C   0  0  0  0  0  0  0  0  0  0  0  0
    4.2301   -0.0819    2.3487 N   0  0  0  0  0  0  0  0  0  0  0  0
    3.8405    1.1474    2.8393 C   0  0  0  0  0  0  0  0  0  0  0  0
    2.7662    1.8619    2.3062 O   0  0  0  0  0  0  0  0  0  0  0  0
    1.8900    1.3973    1.2949 C   0  0  0  0  0  0  0  0  0  0  0  0
    0.8347    2.4652    1.0436 C   0  0  0  0  0  0  0  0  0  0  0  0
    4.5326    1.7336    3.9178 C   0  0  0  0  0  0  0  0  0  0  0  0
    4.1052    3.0678    4.4715 C   0  0  0  0  0  0  0  0  0  0  0  0
    4.9257    3.4608    5.6159 N   0  0  0  0  0  0  0  0  0  0  0  0
    5.5740    1.0732    4.4759 N   0  0  0  0  0  0  0  0  0  0  0  0
    7.7379   -0.5802    5.7936 C   0  0  0  0  0  0  0  0  0  0  0  0
    7.1186   -0.0117    6.8340 C   0  0  0  0  0  0  0  0  0  0  0  0
    7.8007    0.4367    8.0553 C   0  0  0  0  0  0  0  0  0  0  0  0
    9.4440    0.3445    8.4262 S   0  0  0  0  0  0  0  0  0  0  0  0
    9.3817    1.1810    9.8983 C   0  0  0  0  0  0  0  0  0  0  0  0
    8.0465    1.5485   10.1010 C   0  0  0  0  0  0  0  0  0  0  0  0
    7.1868    1.1353    9.0844 C   0  0  0  0  0  0  0  0  0  0  0  0
    5.8693    1.4477    9.1271 N   0  0  0  0  0  0  0  0  0  0  0  0
    5.3660    2.1704   10.1666 C   0  0  0  0  0  0  0  0  0  0  0  0
    4.0022    2.4874   10.2115 O   0  0  0  0  0  0  0  0  0  0  0  0
    3.0585    2.0400    9.2353 C   0  0  0  0  0  0  0  0  0  0  0  0
    2.6772    0.5874    9.4880 C   0  0  0  0  0  0  0  0  0  0  0  0
    6.2346    2.6082   11.1940 C   0  0  0  0  0  0  0  0  0  0  0  0
    5.7129    3.3959   12.3652 C   0  0  0  0  0  0  0  0  0  0  0  0
    6.7760    4.1850   12.9794 N   0  0  0  0  0  0  0  0  0  0  0  0
    7.5601    2.2727   11.1399 N   0  0  0  0  0  0  0  0  0  0  0  0
   10.5836    1.4676   10.7147 C   0  0  0  0  0  0  0  0  0  0  0  0
   10.5756    2.1274   11.8688 C   0  0  0  0  0  0  0  0  0  0  0  0
   -5.3780   -8.7082   -4.8414 H   0  0  0  0  0  0  0  0  0  0  0  0
   -4.6984   -6.7424   -6.4027 H   0  0  0  0  0  0  0  0  0  0  0  0
   -1.4135   -3.1186   -9.9758 H   0  0  0  0  0  0  0  0  0  0  0  0
   -1.1020   -4.7164   -9.2240 H   0  0  0  0  0  0  0  0  0  0  0  0
   -0.2368   -3.5797   -7.1647 H   0  0  0  0  0  0  0  0  0  0  0  0
   -0.6045   -1.9627   -7.9070 H   0  0  0  0  0  0  0  0  0  0  0  0
    0.6472   -3.0378   -8.6373 H   0  0  0  0  0  0  0  0  0  0  0  0
  -11.5651   -5.9539   -0.0569 H   0  0  0  0  0  0  0  0  0  0  0  0
  -11.1611   -4.7529    1.2136 H   0  0  0  0  0  0  0  0  0  0  0  0
   -9.8388   -7.5306    0.8874 H   0  0  0  0  0  0  0  0  0  0  0  0
   -9.4882   -6.3355    2.1994 H   0  0  0  0  0  0  0  0  0  0  0  0
  -11.1149   -7.1008    2.0866 H   0  0  0  0  0  0  0  0  0  0  0  0
   -8.1690   -1.7769   -2.6386 H   0  0  0  0  0  0  0  0  0  0  0  0
   -4.2582    1.6984   -9.2527 H   0  0  0  0  0  0  0  0  0  0  0  0
   -5.4248    0.7630   -8.2633 H   0  0  0  0  0  0  0  0  0  0  0  0
   -3.2524   -0.1143   -7.6770 H   0  0  0  0  0  0  0  0  0  0  0  0
   -3.6645    0.9888   -6.3221 H   0  0  0  0  0  0  0  0  0  0  0  0
   -2.5139    1.5409   -7.5908 H   0  0  0  0  0  0  0  0  0  0  0  0
   -4.2982    5.2797   -6.3155 H   0  0  0  0  0  0  0  0  0  0  0  0
   -5.7008    5.3783   -7.4469 H   0  0  0  0  0  0  0  0  0  0  0  0
   -6.9181    6.5847   -5.8430 H   0  0  0  0  0  0  0  0  0  0  0  0
   -5.4285    7.3290   -6.0702 H   0  0  0  0  0  0  0  0  0  0  0  0
   -8.6560    4.5402   -1.8014 H   0  0  0  0  0  0  0  0  0  0  0  0
   -7.1886    4.5809    0.1056 H   0  0  0  0  0  0  0  0  0  0  0  0
   -4.7148    3.8441   -2.4055 H   0  0  0  0  0  0  0  0  0  0  0  0
   -1.4866    5.5606   -6.8958 H   0  0  0  0  0  0  0  0  0  0  0  0
   -1.4910    3.8252   -7.3520 H   0  0  0  0  0  0  0  0  0  0  0  0
    0.7294    4.8048   -7.7976 H   0  0  0  0  0  0  0  0  0  0  0  0
    0.8591    3.5993   -6.4607 H   0  0  0  0  0  0  0  0  0  0  0  0
    0.8694    5.3704   -6.0890 H   0  0  0  0  0  0  0  0  0  0  0  0
   -4.7659   -4.1912    3.1004 H   0  0  0  0  0  0  0  0  0  0  0  0
   -4.6568   -3.3729    4.6924 H   0  0  0  0  0  0  0  0  0  0  0  0
   -2.1658   -3.6645    4.6902 H   0  0  0  0  0  0  0  0  0  0  0  0
   -3.0265   -5.2431    4.5388 H   0  0  0  0  0  0  0  0  0  0  0  0
   -2.2677   -4.4931    3.0816 H   0  0  0  0  0  0  0  0  0  0  0  0
   -0.8430   -1.3008    0.6037 H   0  0  0  0  0  0  0  0  0  0  0  0
    2.4073    0.4430   -5.4102 H   0  0  0  0  0  0  0  0  0  0  0  0
    2.4842    2.0671   -4.6043 H   0  0  0  0  0  0  0  0  0  0  0  0
    2.6517    2.1604   -7.1399 H   0  0  0  0  0  0  0  0  0  0  0  0
    4.0932    2.8649   -6.3005 H   0  0  0  0  0  0  0  0  0  0  0  0
    4.1807    1.2139   -7.0412 H   0  0  0  0  0  0  0  0  0  0  0  0
    6.5661   -0.4281   -4.3251 H   0  0  0  0  0  0  0  0  0  0  0  0
    6.8499    0.9427   -3.1863 H   0  0  0  0  0  0  0  0  0  0  0  0
    8.5330   -0.7627   -3.0931 H   0  0  0  0  0  0  0  0  0  0  0  0
    7.7694   -0.5386   -1.6214 H   0  0  0  0  0  0  0  0  0  0  0  0
    4.4004   -4.0586    0.1505 H   0  0  0  0  0  0  0  0  0  0  0  0
    6.0092   -3.9886    1.7596 H   0  0  0  0  0  0  0  0  0  0  0  0
    1.3921    0.4669    1.6361 H   0  0  0  0  0  0  0  0  0  0  0  0
    2.4673    1.2221    0.3655 H   0  0  0  0  0  0  0  0  0  0  0  0
    1.3073    3.3702    0.6102 H   0  0  0  0  0  0  0  0  0  0  0  0
    0.3221    2.7294    1.9908 H   0  0  0  0  0  0  0  0  0  0  0  0
    0.0784    2.0919    0.3295 H   0  0  0  0  0  0  0  0  0  0  0  0
    4.1770    3.8412    3.6729 H   0  0  0  0  0  0  0  0  0  0  0  0
    3.0456    2.9980    4.7944 H   0  0  0  0  0  0  0  0  0  0  0  0
    5.8750    3.7210    5.2605 H   0  0  0  0  0  0  0  0  0  0  0  0
    4.5109    4.3297    6.0209 H   0  0  0  0  0  0  0  0  0  0  0  0
    8.7818   -0.8519    5.8509 H   0  0  0  0  0  0  0  0  0  0  0  0
    6.0516    0.1604    6.7875 H   0  0  0  0  0  0  0  0  0  0  0  0
    2.1448    2.6647    9.3144 H   0  0  0  0  0  0  0  0  0  0  0  0
    3.4675    2.1598    8.2104 H   0  0  0  0  0  0  0  0  0  0  0  0
    1.9298    0.2566    8.7327 H   0  0  0  0  0  0  0  0  0  0  0  0
    3.5704   -0.0691    9.4153 H   0  0  0  0  0  0  0  0  0  0  0  0
    2.2349    0.4831   10.5008 H   0  0  0  0  0  0  0  0  0  0  0  0
    5.3026    2.6863   13.1152 H   0  0  0  0  0  0  0  0  0  0  0  0
    4.8932    4.0757   12.0359 H   0  0  0  0  0  0  0  0  0  0  0  0
    6.3610    4.7071   13.7850 H   0  0  0  0  0  0  0  0  0  0  0  0
    7.0921    4.9045   12.2864 H   0  0  0  0  0  0  0  0  0  0  0  0
   11.5371    1.1187   10.3382 H   0  0  0  0  0  0  0  0  0  0  0  0
   11.5075    2.2973   12.3943 H   0  0  0  0  0  0  0  0  0  0  0  0
    9.6744    2.5108   12.3233 H   0  0  0  0  0  0  0  0  0  0  0  0
  1  2  2  0
  2  3  1  0
  3  4  2  0
  4  5  1  0
  5  6  1  0
  6  7  1  0
  7  8  1  0
  8  9  1  0
  7 10  2  0
 10 11  1  0
 10 12  1  0
 12 13  1  0
  4 14  1  0
 14 15  2  0
 15 16  1  0
 16 17  1  0
 17 18  1  0
 18 19  1  0
 19 20  1  0
 20 21  1  0
 19 22  2  0
 22 23  1  0
 23 24  1  0
 22 25  1  0
 16 26  2  0
 26 27  1  0
 15 28  1  0
 28 29  2  0
 29 30  1  0
 29 31  1  0
 31 32  1  0
 32 33  1  0
 33 34  2  0
 34 35  1  0
 35 36  1  0
 36 37  2  0
 37 38  1  0
 38 39  1  0
 39 40  1  0
 37 41  1  0
 41 42  1  0
 42 43  1  0
 41 44  2  0
 33 45  1  0
 45 46  2  3
 46 47  1  0
 47 48  2  0
 48 49  1  0
 49 50  2  0
 50 51  1  0
 51 52  1  0
 52 53  1  0
 53 54  1  0
 54 55  1  0
 53 56  2  0
 56 57  1  0
 56 58  1  0
 58 59  1  0
 50 60  1  0
 60 61  2  0
 61 62  1  0
 62 63  1  0
 63 64  1  0
 64 65  1  0
 65 66  1  0
 66 67  1  0
 65 68  2  0
 68 69  1  0
 69 70  1  0
 68 71  1  0
 62 72  2  0
 72 73  1  0
 61 74  1  0
 74 75  2  0
 75 76  1  0
 75 77  1  0
 77 78  1  0
 78 79  1  0
 79 80  2  0
 80 81  1  0
 81 82  1  0
 82 83  2  0
 83 84  1  0
 84 85  1  0
 85 86  1  0
 83 87  1  0
 87 88  1  0
 88 89  1  0
 87 90  2  0
 79 91  1  0
 91 92  2  3
 92 93  1  0
 93 94  1  0
 94 95  1  0
 95 96  2  0
 96 97  1  0
 97 98  1  0
 98 99  2  0
 99100  1  0
100101  1  0
101102  1  0
 99103  1  0
103104  1  0
104105  1  0
103106  2  0
 95107  1  0
107108  2  3
108109  1  0
109110  1  0
110111  1  0
111112  2  0
112113  1  0
113114  1  0
114115  2  0
115116  1  0
116117  1  0
117118  1  0
115119  1  0
119120  1  0
120121  1  0
119122  2  0
111123  1  0
123124  2  3
 27  1  1  0
 35 31  2  0
 73 47  1  0
 81 77  2  0
 97 93  2  0
113109  2  0
 26  3  1  0
 44 34  1  0
 72 49  1  0
 90 80  1  0
106 96  1  0
122112  1  0
 12  5  2  0
 30 14  1  0
 58 51  2  0
 76 60  1  0
 23 17  2  0
 69 63  2  0
  1125  1  0
  2126  1  0
  8127  1  0
  8128  1  0
  9129  1  0
  9130  1  0
  9131  1  0
 20132  1  0
 20133  1  0
 21134  1  0
 21135  1  0
 21136  1  0
 28137  1  0
 39138  1  0
 39139  1  0
 40140  1  0
 40141  1  0
 40142  1  0
 42143  1  0
 42144  1  0
 43145  1  0
 43146  1  0
 45147  1  0
 46148  1  0
 48149  1  0
 54150  1  0
 54151  1  0
 55152  1  0
 55153  1  0
 55154  1  0
 66155  1  0
 66156  1  0
 67157  1  0
 67158  1  0
 67159  1  0
 74160  1  0
 85161  1  0
 85162  1  0
 86163  1  0
 86164  1  0
 86165  1  0
 88166  1  0
 88167  1  0
 89168  1  0
 89169  1  0
 91170  1  0
 92171  1  0
101172  1  0
101173  1  0
102174  1  0
102175  1  0
102176  1  0
104177  1  0
104178  1  0
105179  1  0
105180  1  0
107181  1  0
108182  1  0
117183  1  0
117184  1  0
118185  1  0
118186  1  0
118187  1  0
120188  1  0
120189  1  0
121190  1  0
121191  1  0
123192  1  0
124193  1  0
124194  1  0
M  END

