
     RDKit          3D

224247  0  0  0  0  0  0  0  0999 V2000
    1.6863   -8.6945    9.4626 C   0  0  0  0  0  0  0  0  0  0  0  0
    1.8414   -7.3232    9.2772 C   0  0  0  0  0  0  0  0  0  0  0  0
    1.2211   -6.8517    8.1077 C   0  0  0  0  0  0  0  0  0  0  0  0
    1.1590   -5.5132    7.6780 C   0  0  0  0  0  0  0  0  0  0  0  0
    1.6796   -4.4130    8.4869 C   0  0  0  0  0  0  0  0  0  0  0  0
    3.2811   -3.8990    8.5426 S   0  0  0  0  0  0  0  0  0  0  0  0
    3.0179   -2.6063    9.5912 C   0  0  0  0  0  0  0  0  0  0  0  0
    4.0495   -1.5797    9.9612 C   0  0  0  0  0  0  0  0  0  0  0  0
    4.3203   -0.6453    8.7865 C   0  0  0  0  0  0  0  0  0  0  0  0
    1.6604   -2.5623    9.9052 C   0  0  0  0  0  0  0  0  0  0  0  0
    0.9266   -1.3179   10.9077 Cl  0  0  0  0  0  0  0  0  0  0  0  0
    0.9117   -3.5795    9.2858 C   0  0  0  0  0  0  0  0  0  0  0  0
   -0.8318   -3.7455    9.4304 Cl  0  0  0  0  0  0  0  0  0  0  0  0
    0.4426   -5.2503    6.4982 C   0  0  0  0  0  0  0  0  0  0  0  0
   -0.1755   -6.2609    5.7646 C   0  0  0  0  0  0  0  0  0  0  0  0
   -0.1210   -7.5938    6.1991 C   0  0  0  0  0  0  0  0  0  0  0  0
   -0.8427   -8.6459    5.4852 C   0  0  0  0  0  0  0  0  0  0  0  0
   -0.3407   -9.3424    4.0416 S   0  0  0  0  0  0  0  0  0  0  0  0
   -1.7634  -10.1873    3.7435 C   0  0  0  0  0  0  0  0  0  0  0  0
   -1.9519  -11.1313    2.5880 C   0  0  0  0  0  0  0  0  0  0  0  0
   -3.0945  -10.7048    1.6703 C   0  0  0  0  0  0  0  0  0  0  0  0
   -2.6686   -9.9045    4.7704 C   0  0  0  0  0  0  0  0  0  0  0  0
   -2.1485   -9.0302    5.7403 C   0  0  0  0  0  0  0  0  0  0  0  0
   -3.0579   -8.4567    7.1332 Cl  0  0  0  0  0  0  0  0  0  0  0  0
   -4.2941  -10.5611    4.8623 Cl  0  0  0  0  0  0  0  0  0  0  0  0
    0.5768   -7.8554    7.3848 C   0  0  0  0  0  0  0  0  0  0  0  0
    0.7687   -9.3200    8.1904 S   0  0  0  0  0  0  0  0  0  0  0  0
   -0.8252   -5.8014    4.6091 C   0  0  0  0  0  0  0  0  0  0  0  0
   -0.7201   -4.4239    4.4411 C   0  0  0  0  0  0  0  0  0  0  0  0
    0.1835   -3.7787    5.7207 S   0  0  0  0  0  0  0  0  0  0  0  0
   -1.1005   -3.7013    3.2172 C   0  0  0  0  0  0  0  0  0  0  0  0
   -0.4209   -2.5873    2.7303 C   0  0  0  0  0  0  0  0  0  0  0  0
   -0.6959   -2.3099    1.3764 C   0  0  0  0  0  0  0  0  0  0  0  0
   -0.0660   -1.3408    0.5585 C   0  0  0  0  0  0  0  0  0  0  0  0
    0.8141   -0.3321    1.1711 C   0  0  0  0  0  0  0  0  0  0  0  0
    2.1661   -0.7361    2.0991 S   0  0  0  0  0  0  0  0  0  0  0  0
    2.0179    0.4671    3.2638 C   0  0  0  0  0  0  0  0  0  0  0  0
    2.6568    0.3815    4.6288 C   0  0  0  0  0  0  0  0  0  0  0  0
    3.2506    1.7038    5.1155 C   0  0  0  0  0  0  0  0  0  0  0  0
    0.8893    1.2145    2.9349 C   0  0  0  0  0  0  0  0  0  0  0  0
    0.1617    2.3837    4.0217 Cl  0  0  0  0  0  0  0  0  0  0  0  0
    0.2540    0.7955    1.7525 C   0  0  0  0  0  0  0  0  0  0  0  0
   -1.2791    1.4717    1.2106 Cl  0  0  0  0  0  0  0  0  0  0  0  0
   -0.4837   -1.2798   -0.7929 C   0  0  0  0  0  0  0  0  0  0  0  0
   -1.4801   -2.1232   -1.2934 C   0  0  0  0  0  0  0  0  0  0  0  0
   -2.1397   -3.0308   -0.4591 C   0  0  0  0  0  0  0  0  0  0  0  0
   -3.4149   -3.6536   -0.8307 C   0  0  0  0  0  0  0  0  0  0  0  0
   -3.6419   -5.2949   -1.1048 S   0  0  0  0  0  0  0  0  0  0  0  0
   -5.3282   -5.2740   -1.0164 C   0  0  0  0  0  0  0  0  0  0  0  0
   -6.2311   -6.4757   -1.0333 C   0  0  0  0  0  0  0  0  0  0  0  0
   -5.7645   -7.5098   -2.0489 C   0  0  0  0  0  0  0  0  0  0  0  0
   -5.7263   -3.9770   -0.6995 C   0  0  0  0  0  0  0  0  0  0  0  0
   -4.6543   -3.0772   -0.5934 C   0  0  0  0  0  0  0  0  0  0  0  0
   -4.8415   -1.4113   -0.0695 Cl  0  0  0  0  0  0  0  0  0  0  0  0
   -7.3860   -3.5315   -0.3479 Cl  0  0  0  0  0  0  0  0  0  0  0  0
   -1.6799   -3.1460    0.8526 C   0  0  0  0  0  0  0  0  0  0  0  0
   -2.1405   -4.2728    2.0155 S   0  0  0  0  0  0  0  0  0  0  0  0
   -1.7014   -1.9798   -2.6663 C   0  0  0  0  0  0  0  0  0  0  0  0
   -0.8953   -1.0141   -3.2594 C   0  0  0  0  0  0  0  0  0  0  0  0
    0.0789   -0.3093   -2.0618 S   0  0  0  0  0  0  0  0  0  0  0  0
   -0.8620   -0.7671   -4.7182 C   0  0  0  0  0  0  0  0  0  0  0  0
   -0.6886    0.7099   -5.5254 S   0  0  0  0  0  0  0  0  0  0  0  0
   -0.9239    0.1315   -7.1151 C   0  0  0  0  0  0  0  0  0  0  0  0
   -1.0912   -1.2415   -7.0087 C   0  0  0  0  0  0  0  0  0  0  0  0
   -1.0603   -1.7361   -5.6986 C   0  0  0  0  0  0  0  0  0  0  0  0
   -1.1502   -3.0661   -5.4687 N   0  0  0  0  0  0  0  0  0  0  0  0
   -1.3010   -3.9350   -6.5017 C   0  0  0  0  0  0  0  0  0  0  0  0
   -1.3463   -5.2999   -6.2395 O   0  0  0  0  0  0  0  0  0  0  0  0
   -2.5646   -6.0417   -6.2755 C   0  0  0  0  0  0  0  0  0  0  0  0
   -3.2269   -6.0105   -4.9102 C   0  0  0  0  0  0  0  0  0  0  0  0
   -1.3655   -3.4429   -7.8269 C   0  0  0  0  0  0  0  0  0  0  0  0
   -1.5271   -4.3718   -9.0093 C   0  0  0  0  0  0  0  0  0  0  0  0
   -2.7638   -4.0926   -9.7484 N   0  0  0  0  0  0  0  0  0  0  0  0
   -1.2499   -2.0968   -8.0465 N   0  0  0  0  0  0  0  0  0  0  0  0
   -0.7810    0.8659   -8.3962 C   0  0  0  0  0  0  0  0  0  0  0  0
   -1.1220    2.1441   -8.6225 C   0  0  0  0  0  0  0  0  0  0  0  0
   -1.8419    2.9906   -7.6606 C   0  0  0  0  0  0  0  0  0  0  0  0
   -1.5413    4.3250   -7.3928 C   0  0  0  0  0  0  0  0  0  0  0  0
   -2.2272    4.8116   -6.2645 C   0  0  0  0  0  0  0  0  0  0  0  0
   -1.9998    6.0479   -5.6233 C   0  0  0  0  0  0  0  0  0  0  0  0
   -1.4199    7.2035   -6.3461 C   0  0  0  0  0  0  0  0  0  0  0  0
   -0.2336    8.2553   -5.7817 S   0  0  0  0  0  0  0  0  0  0  0  0
   -0.3016    9.3334   -7.0736 C   0  0  0  0  0  0  0  0  0  0  0  0
    0.4495   10.6308   -7.1661 C   0  0  0  0  0  0  0  0  0  0  0  0
   -0.4351   11.7967   -6.7307 C   0  0  0  0  0  0  0  0  0  0  0  0
   -1.2728    8.8880   -7.9614 C   0  0  0  0  0  0  0  0  0  0  0  0
   -1.7140    9.7554   -9.4287 Cl  0  0  0  0  0  0  0  0  0  0  0  0
   -1.8942    7.6964   -7.5620 C   0  0  0  0  0  0  0  0  0  0  0  0
   -3.2327    6.9848   -8.4556 Cl  0  0  0  0  0  0  0  0  0  0  0  0
   -2.4415    6.1423   -4.2877 C   0  0  0  0  0  0  0  0  0  0  0  0
   -3.2060    5.1426   -3.6693 C   0  0  0  0  0  0  0  0  0  0  0  0
   -3.6561    4.0480   -4.4239 C   0  0  0  0  0  0  0  0  0  0  0  0
   -4.6637    3.0616   -3.9895 C   0  0  0  0  0  0  0  0  0  0  0  0
   -5.9997    2.8586   -5.0088 S   0  0  0  0  0  0  0  0  0  0  0  0
   -5.9863    1.1922   -5.0870 C   0  0  0  0  0  0  0  0  0  0  0  0
   -6.8293    0.4229   -6.0730 C   0  0  0  0  0  0  0  0  0  0  0  0
   -6.1074   -0.7562   -6.7275 C   0  0  0  0  0  0  0  0  0  0  0  0
   -5.0047    0.7389   -4.1990 C   0  0  0  0  0  0  0  0  0  0  0  0
   -4.2658    1.7810   -3.6122 C   0  0  0  0  0  0  0  0  0  0  0  0
   -2.9631    1.5106   -2.4602 Cl  0  0  0  0  0  0  0  0  0  0  0  0
   -4.6928   -0.9494   -3.8386 Cl  0  0  0  0  0  0  0  0  0  0  0  0
   -3.0689    3.8742   -5.6902 C   0  0  0  0  0  0  0  0  0  0  0  0
   -3.0458    2.4788   -6.6139 S   0  0  0  0  0  0  0  0  0  0  0  0
   -3.2318    5.2429   -2.2706 C   0  0  0  0  0  0  0  0  0  0  0  0
   -2.4190    6.2692   -1.7727 C   0  0  0  0  0  0  0  0  0  0  0  0
   -1.8280    7.1400   -3.0924 S   0  0  0  0  0  0  0  0  0  0  0  0
   -1.4991    5.9983   -0.6618 C   0  0  0  0  0  0  0  0  0  0  0  0
    0.0513    5.4050   -0.9310 S   0  0  0  0  0  0  0  0  0  0  0  0
    0.4289    4.9340    0.6385 C   0  0  0  0  0  0  0  0  0  0  0  0
   -0.6884    5.2627    1.4155 C   0  0  0  0  0  0  0  0  0  0  0  0
   -1.7662    5.8033    0.6932 C   0  0  0  0  0  0  0  0  0  0  0  0
   -2.9501    6.0427    1.2991 N   0  0  0  0  0  0  0  0  0  0  0  0
   -3.0955    5.8047    2.6367 C   0  0  0  0  0  0  0  0  0  0  0  0
   -4.3302    6.0201    3.2616 O   0  0  0  0  0  0  0  0  0  0  0  0
   -5.5174    6.3204    2.5420 C   0  0  0  0  0  0  0  0  0  0  0  0
   -6.6768    6.5018    3.5028 C   0  0  0  0  0  0  0  0  0  0  0  0
   -1.9912    5.3398    3.3863 C   0  0  0  0  0  0  0  0  0  0  0  0
   -2.0862    5.1334    4.8701 C   0  0  0  0  0  0  0  0  0  0  0  0
   -0.9935    5.8403    5.5280 N   0  0  0  0  0  0  0  0  0  0  0  0
   -0.8132    5.0528    2.7454 N   0  0  0  0  0  0  0  0  0  0  0  0
    1.5874    4.0863    0.9950 C   0  0  0  0  0  0  0  0  0  0  0  0
    2.1568    3.3234    0.0504 C   0  0  0  0  0  0  0  0  0  0  0  0
    3.2442    2.3553    0.2825 C   0  0  0  0  0  0  0  0  0  0  0  0
    3.5171    1.2989   -0.5808 C   0  0  0  0  0  0  0  0  0  0  0  0
    4.5498    0.4671   -0.1273 C   0  0  0  0  0  0  0  0  0  0  0  0
    5.0578   -0.6629   -0.7933 C   0  0  0  0  0  0  0  0  0  0  0  0
    4.7525   -0.9408   -2.2030 C   0  0  0  0  0  0  0  0  0  0  0  0
    3.2874   -1.4914   -2.8256 S   0  0  0  0  0  0  0  0  0  0  0  0
    3.7837   -1.5304   -4.4320 C   0  0  0  0  0  0  0  0  0  0  0  0
    2.9251   -1.9183   -5.5958 C   0  0  0  0  0  0  0  0  0  0  0  0
    2.5078   -0.6822   -6.3835 C   0  0  0  0  0  0  0  0  0  0  0  0
    5.1101   -1.1083   -4.5026 C   0  0  0  0  0  0  0  0  0  0  0  0
    6.0206   -0.9717   -5.9963 Cl  0  0  0  0  0  0  0  0  0  0  0  0
    5.6533   -0.7827   -3.2502 C   0  0  0  0  0  0  0  0  0  0  0  0
    7.2905   -0.1842   -3.0263 Cl  0  0  0  0  0  0  0  0  0  0  0  0
    6.0644   -1.3904   -0.1468 C   0  0  0  0  0  0  0  0  0  0  0  0
    6.6150   -0.9884    1.0649 C   0  0  0  0  0  0  0  0  0  0  0  0
    6.1887    0.2049    1.6859 C   0  0  0  0  0  0  0  0  0  0  0  0
    6.9793    0.8034    2.7684 C   0  0  0  0  0  0  0  0  0  0  0  0
    6.5020    0.9931    4.3669 S   0  0  0  0  0  0  0  0  0  0  0  0
    7.9668    1.6043    4.9239 C   0  0  0  0  0  0  0  0  0  0  0  0
    8.2271    2.0734    6.3245 C   0  0  0  0  0  0  0  0  0  0  0  0
    8.1378    3.5944    6.3918 C   0  0  0  0  0  0  0  0  0  0  0  0
    8.8598    1.6618    3.8564 C   0  0  0  0  0  0  0  0  0  0  0  0
    8.3077    1.2068    2.6506 C   0  0  0  0  0  0  0  0  0  0  0  0
    9.2085    1.1565    1.1376 Cl  0  0  0  0  0  0  0  0  0  0  0  0
   10.5153    2.2357    4.0052 Cl  0  0  0  0  0  0  0  0  0  0  0  0
    5.1107    0.8899    1.0819 C   0  0  0  0  0  0  0  0  0  0  0  0
    4.3320    2.3016    1.5769 S   0  0  0  0  0  0  0  0  0  0  0  0
    7.6232   -1.8569    1.5278 C   0  0  0  0  0  0  0  0  0  0  0  0
    7.8671   -2.9213    0.6703 C   0  0  0  0  0  0  0  0  0  0  0  0
    6.8447   -2.7929   -0.6656 S   0  0  0  0  0  0  0  0  0  0  0  0
    2.0843   -9.2598   10.2919 H   0  0  0  0  0  0  0  0  0  0  0  0
    2.3969   -6.6979    9.9618 H   0  0  0  0  0  0  0  0  0  0  0  0
    3.7058   -0.9884   10.8356 H   0  0  0  0  0  0  0  0  0  0  0  0
    4.9907   -2.0916   10.2461 H   0  0  0  0  0  0  0  0  0  0  0  0
    3.3680   -0.1881    8.4364 H   0  0  0  0  0  0  0  0  0  0  0  0
    4.9928    0.1728    9.1060 H   0  0  0  0  0  0  0  0  0  0  0  0
    4.7879   -1.2091    7.9501 H   0  0  0  0  0  0  0  0  0  0  0  0
   -1.0169  -11.1360    1.9786 H   0  0  0  0  0  0  0  0  0  0  0  0
   -2.1207  -12.1623    2.9658 H   0  0  0  0  0  0  0  0  0  0  0  0
   -3.0134  -11.2517    0.7084 H   0  0  0  0  0  0  0  0  0  0  0  0
   -4.0762  -10.9669    2.1204 H   0  0  0  0  0  0  0  0  0  0  0  0
   -3.0522   -9.6094    1.4678 H   0  0  0  0  0  0  0  0  0  0  0  0
   -1.3025   -6.4523    3.8907 H   0  0  0  0  0  0  0  0  0  0  0  0
    0.2855   -2.0594    3.3401 H   0  0  0  0  0  0  0  0  0  0  0  0
    1.8887    0.0464    5.3586 H   0  0  0  0  0  0  0  0  0  0  0  0
    3.4544   -0.3884    4.6132 H   0  0  0  0  0  0  0  0  0  0  0  0
    2.4604    2.4379    5.3703 H   0  0  0  0  0  0  0  0  0  0  0  0
    3.9143    2.1492    4.3545 H   0  0  0  0  0  0  0  0  0  0  0  0
    3.8315    1.5196    6.0491 H   0  0  0  0  0  0  0  0  0  0  0  0
   -7.2630   -6.1668   -1.2973 H   0  0  0  0  0  0  0  0  0  0  0  0
   -6.2580   -6.9327   -0.0162 H   0  0  0  0  0  0  0  0  0  0  0  0
   -4.7574   -7.8911   -1.7802 H   0  0  0  0  0  0  0  0  0  0  0  0
   -6.4621   -8.3693   -2.0505 H   0  0  0  0  0  0  0  0  0  0  0  0
   -5.7399   -7.0625   -3.0638 H   0  0  0  0  0  0  0  0  0  0  0  0
   -2.4172   -2.5822   -3.2127 H   0  0  0  0  0  0  0  0  0  0  0  0
   -3.2483   -5.6151   -7.0445 H   0  0  0  0  0  0  0  0  0  0  0  0
   -2.3410   -7.0918   -6.5509 H   0  0  0  0  0  0  0  0  0  0  0  0
   -3.5474   -4.9738   -4.6629 H   0  0  0  0  0  0  0  0  0  0  0  0
   -4.1205   -6.6729   -4.9083 H   0  0  0  0  0  0  0  0  0  0  0  0
   -2.5162   -6.3713   -4.1394 H   0  0  0  0  0  0  0  0  0  0  0  0
   -1.5196   -5.4435   -8.6868 H   0  0  0  0  0  0  0  0  0  0  0  0
   -0.6570   -4.2406   -9.6921 H   0  0  0  0  0  0  0  0  0  0  0  0
   -2.5815   -3.2855  -10.3918 H   0  0  0  0  0  0  0  0  0  0  0  0
   -3.5016   -3.7901   -9.0825 H   0  0  0  0  0  0  0  0  0  0  0  0
   -0.3251    0.3237   -9.2132 H   0  0  0  0  0  0  0  0  0  0  0  0
   -0.8575    2.5809   -9.5760 H   0  0  0  0  0  0  0  0  0  0  0  0
   -0.7746    4.8738   -7.9191 H   0  0  0  0  0  0  0  0  0  0  0  0
    0.7856   10.7922   -8.2118 H   0  0  0  0  0  0  0  0  0  0  0  0
    1.3449   10.5954   -6.5144 H   0  0  0  0  0  0  0  0  0  0  0  0
   -1.3215   11.8812   -7.3982 H   0  0  0  0  0  0  0  0  0  0  0  0
   -0.7681   11.6567   -5.6836 H   0  0  0  0  0  0  0  0  0  0  0  0
    0.1348   12.7454   -6.7918 H   0  0  0  0  0  0  0  0  0  0  0  0
   -7.0597    1.1154   -6.9170 H   0  0  0  0  0  0  0  0  0  0  0  0
   -7.7989    0.1092   -5.6249 H   0  0  0  0  0  0  0  0  0  0  0  0
   -6.1391   -1.6451   -6.0665 H   0  0  0  0  0  0  0  0  0  0  0  0
   -6.6143   -1.0354   -7.6737 H   0  0  0  0  0  0  0  0  0  0  0  0
   -5.0476   -0.5064   -6.9613 H   0  0  0  0  0  0  0  0  0  0  0  0
   -3.6192    4.4519   -1.6380 H   0  0  0  0  0  0  0  0  0  0  0  0
   -5.7506    5.4852    1.8372 H   0  0  0  0  0  0  0  0  0  0  0  0
   -5.3827    7.2548    1.9539 H   0  0  0  0  0  0  0  0  0  0  0  0
   -6.4483    7.3148    4.2264 H   0  0  0  0  0  0  0  0  0  0  0  0
   -6.8651    5.5584    4.0624 H   0  0  0  0  0  0  0  0  0  0  0  0
   -7.5966    6.7736    2.9423 H   0  0  0  0  0  0  0  0  0  0  0  0
   -3.0574    5.5015    5.2780 H   0  0  0  0  0  0  0  0  0  0  0  0
   -2.0107    4.0467    5.0809 H   0  0  0  0  0  0  0  0  0  0  0  0
   -0.8992    5.4604    6.5006 H   0  0  0  0  0  0  0  0  0  0  0  0
   -1.2564    6.8539    5.6171 H   0  0  0  0  0  0  0  0  0  0  0  0
    1.9106    4.0183    2.0236 H   0  0  0  0  0  0  0  0  0  0  0  0
    1.7454    3.3237   -0.9515 H   0  0  0  0  0  0  0  0  0  0  0  0
    2.9673    1.1254   -1.4977 H   0  0  0  0  0  0  0  0  0  0  0  0
    2.0262   -2.4539   -5.2298 H   0  0  0  0  0  0  0  0  0  0  0  0
    3.4916   -2.6045   -6.2606 H   0  0  0  0  0  0  0  0  0  0  0  0
    3.3946   -0.2017   -6.8501 H   0  0  0  0  0  0  0  0  0  0  0  0
    1.8060   -0.9737   -7.1863 H   0  0  0  0  0  0  0  0  0  0  0  0
    2.0151    0.0475   -5.7100 H   0  0  0  0  0  0  0  0  0  0  0  0
    7.4680    1.6395    7.0128 H   0  0  0  0  0  0  0  0  0  0  0  0
    9.2344    1.7395    6.6549 H   0  0  0  0  0  0  0  0  0  0  0  0
    7.1149    3.9310    6.1209 H   0  0  0  0  0  0  0  0  0  0  0  0
    8.3719    3.9369    7.4220 H   0  0  0  0  0  0  0  0  0  0  0  0
    8.8665    4.0616    5.6953 H   0  0  0  0  0  0  0  0  0  0  0  0
    8.1595   -1.7142    2.4575 H   0  0  0  0  0  0  0  0  0  0  0  0
    8.5925   -3.7042    0.8446 H   0  0  0  0  0  0  0  0  0  0  0  0
  1  2  2  0
  2  3  1  0
  3  4  2  0
  4  5  1  0
  5  6  1  0
  6  7  1  0
  7  8  1  0
  8  9  1  0
  7 10  2  0
 10 11  1  0
 10 12  1  0
 12 13  1  0
  4 14  1  0
 14 15  2  0
 15 16  1  0
 16 17  1  0
 17 18  1  0
 18 19  1  0
 19 20  1  0
 20 21  1  0
 19 22  2  0
 22 23  1  0
 23 24  1  0
 22 25  1  0
 16 26  2  0
 26 27  1  0
 15 28  1  0
 28 29  2  0
 29 30  1  0
 29 31  1  0
 31 32  2  0
 32 33  1  0
 33 34  2  0
 34 35  1  0
 35 36  1  0
 36 37  1  0
 37 38  1  0
 38 39  1  0
 37 40  2  0
 40 41  1  0
 40 42  1  0
 42 43  1  0
 34 44  1  0
 44 45  2  0
 45 46  1  0
 46 47  1  0
 47 48  1  0
 48 49  1  0
 49 50  1  0
 50 51  1  0
 49 52  2  0
 52 53  1  0
 53 54  1  0
 52 55  1  0
 46 56  2  0
 56 57  1  0
 45 58  1  0
 58 59  2  0
 59 60  1  0
 59 61  1  0
 61 62  1  0
 62 63  1  0
 63 64  2  0
 64 65  1  0
 65 66  1  0
 66 67  2  0
 67 68  1  0
 68 69  1  0
 69 70  1  0
 67 71  1  0
 71 72  1  0
 72 73  1  0
 71 74  2  0
 63 75  1  0
 75 76  2  3
 76 77  1  0
 77 78  2  0
 78 79  1  0
 79 80  2  0
 80 81  1  0
 81 82  1  0
 82 83  1  0
 83 84  1  0
 84 85  1  0
 83 86  2  0
 86 87  1  0
 86 88  1  0
 88 89  1  0
 80 90  1  0
 90 91  2  0
 91 92  1  0
 92 93  1  0
 93 94  1  0
 94 95  1  0
 95 96  1  0
 96 97  1  0
 95 98  2  0
 98 99  1  0
 99100  1  0
 98101  1  0
 92102  2  0
102103  1  0
 91104  1  0
104105  2  0
105106  1  0
105107  1  0
107108  1  0
108109  1  0
109110  2  0
110111  1  0
111112  1  0
112113  2  0
113114  1  0
114115  1  0
115116  1  0
113117  1  0
117118  1  0
118119  1  0
117120  2  0
109121  1  0
121122  2  3
122123  1  0
123124  2  0
124125  1  0
125126  2  0
126127  1  0
127128  1  0
128129  1  0
129130  1  0
130131  1  0
129132  2  0
132133  1  0
132134  1  0
134135  1  0
126136  1  0
136137  2  0
137138  1  0
138139  1  0
139140  1  0
140141  1  0
141142  1  0
142143  1  0
141144  2  0
144145  1  0
145146  1  0
144147  1  0
138148  2  0
148149  1  0
137150  1  0
150151  2  0
151152  1  0
 27  1  1  0
 57 31  1  0
 65 61  2  0
103 77  1  0
111107  2  0
149123  1  0
 26  3  1  0
 56 33  1  0
 74 64  1  0
102 79  1  0
120110  1  0
148125  1  0
 12  5  2  0
 30 14  1  0
 42 35  2  0
 60 44  1  0
 88 81  2  0
106 90  1  0
134127  2  0
152136  1  0
 23 17  2  0
 53 47  2  0
 99 93  2  0
145139  2  0
  1153  1  0
  2154  1  0
  8155  1  0
  8156  1  0
  9157  1  0
  9158  1  0
  9159  1  0
 20160  1  0
 20161  1  0
 21162  1  0
 21163  1  0
 21164  1  0
 28165  1  0
 32166  1  0
 38167  1  0
 38168  1  0
 39169  1  0
 39170  1  0
 39171  1  0
 50172  1  0
 50173  1  0
 51174  1  0
 51175  1  0
 51176  1  0
 58177  1  0
 69178  1  0
 69179  1  0
 70180  1  0
 70181  1  0
 70182  1  0
 72183  1  0
 72184  1  0
 73185  1  0
 73186  1  0
 75187  1  0
 76188  1  0
 78189  1  0
 84190  1  0
 84191  1  0
 85192  1  0
 85193  1  0
 85194  1  0
 96195  1  0
 96196  1  0
 97197  1  0
 97198  1  0
 97199  1  0
104200  1  0
115201  1  0
115202  1  0
116203  1  0
116204  1  0
116205  1  0
118206  1  0
118207  1  0
119208  1  0
119209  1  0
121210  1  0
122211  1  0
124212  1  0
130213  1  0
130214  1  0
131215  1  0
131216  1  0
131217  1  0
142218  1  0
142219  1  0
143220  1  0
143221  1  0
143222  1  0
150223  1  0
151224  1  0
M  END

