
     RDKit          3D

 86 97  0  0  0  0  0  0  0  0999 V2000
   -1.1606    5.3884    7.2692 C   0  0  0  0  0  0  0  0  0  0  0  0
   -2.3718    6.0943    6.3042 S   0  0  0  0  0  0  0  0  0  0  0  0
   -3.0113    4.6756    5.6250 C   0  0  0  0  0  0  0  0  0  0  0  0
   -2.2856    3.6519    6.2113 C   0  0  0  0  0  0  0  0  0  0  0  0
   -1.3097    4.0309    7.0578 C   0  0  0  0  0  0  0  0  0  0  0  0
   -0.6495    2.9241    7.5498 O   0  0  0  0  0  0  0  0  0  0  0  0
   -1.2720    1.7643    6.9613 C   0  0  0  0  0  0  0  0  0  0  0  0
   -2.3268    2.2740    6.1207 O   0  0  0  0  0  0  0  0  0  0  0  0
   -4.1516    4.6015    4.6955 C   0  0  0  0  0  0  0  0  0  0  0  0
   -4.2861    3.7087    3.7014 C   0  0  0  0  0  0  0  0  0  0  0  0
   -3.2486    2.7637    3.2548 C   0  0  0  0  0  0  0  0  0  0  0  0
   -3.5366    1.2264    2.5929 S   0  0  0  0  0  0  0  0  0  0  0  0
   -1.9200    0.7921    2.2967 C   0  0  0  0  0  0  0  0  0  0  0  0
   -1.1740    1.8902    2.6962 C   0  0  0  0  0  0  0  0  0  0  0  0
   -1.8739    2.9345    3.1757 C   0  0  0  0  0  0  0  0  0  0  0  0
   -1.0212    3.9775    3.4794 O   0  0  0  0  0  0  0  0  0  0  0  0
    0.3193    3.5283    3.1909 C   0  0  0  0  0  0  0  0  0  0  0  0
    0.1756    2.1854    2.6888 O   0  0  0  0  0  0  0  0  0  0  0  0
   -1.4689   -0.4757    1.7025 C   0  0  0  0  0  0  0  0  0  0  0  0
   -0.2006   -0.8948    1.7677 C   0  0  0  0  0  0  0  0  0  0  0  0
    0.2206   -2.2005    1.2300 C   0  0  0  0  0  0  0  0  0  0  0  0
    1.6392   -3.0383    1.6530 S   0  0  0  0  0  0  0  0  0  0  0  0
    1.4045   -4.4019    0.6602 C   0  0  0  0  0  0  0  0  0  0  0  0
    0.1822   -4.1973    0.0513 C   0  0  0  0  0  0  0  0  0  0  0  0
   -0.4361   -3.0368    0.3356 C   0  0  0  0  0  0  0  0  0  0  0  0
   -1.6353   -2.9648   -0.3432 O   0  0  0  0  0  0  0  0  0  0  0  0
   -1.7680   -4.1825   -1.1048 C   0  0  0  0  0  0  0  0  0  0  0  0
   -0.5822   -4.9500   -0.8166 O   0  0  0  0  0  0  0  0  0  0  0  0
    2.1868   -5.6451    0.6522 C   0  0  0  0  0  0  0  0  0  0  0  0
    3.4682   -5.7583    0.2731 C   0  0  0  0  0  0  0  0  0  0  0  0
    4.3061   -4.6976   -0.3288 C   0  0  0  0  0  0  0  0  0  0  0  0
    3.8995   -3.1063   -0.7624 S   0  0  0  0  0  0  0  0  0  0  0  0
    5.3783   -2.6385   -1.4634 C   0  0  0  0  0  0  0  0  0  0  0  0
    6.1841   -3.7523   -1.3180 C   0  0  0  0  0  0  0  0  0  0  0  0
    5.6228   -4.8292   -0.7349 C   0  0  0  0  0  0  0  0  0  0  0  0
    6.5379   -5.8574   -0.6605 O   0  0  0  0  0  0  0  0  0  0  0  0
    7.7672   -5.3726   -1.2365 C   0  0  0  0  0  0  0  0  0  0  0  0
    7.4969   -4.0175   -1.6453 O   0  0  0  0  0  0  0  0  0  0  0  0
    5.8120   -1.3123   -1.9448 C   0  0  0  0  0  0  0  0  0  0  0  0
    5.0137   -0.2641   -2.1883 C   0  0  0  0  0  0  0  0  0  0  0  0
    3.5457   -0.3085   -2.2329 C   0  0  0  0  0  0  0  0  0  0  0  0
    2.5582   -1.3198   -3.1865 S   0  0  0  0  0  0  0  0  0  0  0  0
    1.0657   -0.5767   -2.8427 C   0  0  0  0  0  0  0  0  0  0  0  0
    1.3815    0.4871   -2.0102 C   0  0  0  0  0  0  0  0  0  0  0  0
    2.6858    0.6327   -1.7080 C   0  0  0  0  0  0  0  0  0  0  0  0
    2.8753    1.7439   -0.9176 O   0  0  0  0  0  0  0  0  0  0  0  0
    1.5772    2.3310   -0.7004 C   0  0  0  0  0  0  0  0  0  0  0  0
    0.6478    1.4931   -1.4170 O   0  0  0  0  0  0  0  0  0  0  0  0
   -0.2339   -0.9656   -3.4156 C   0  0  0  0  0  0  0  0  0  0  0  0
   -1.3015   -0.1576   -3.3930 C   0  0  0  0  0  0  0  0  0  0  0  0
   -2.5743   -0.4970   -4.0467 C   0  0  0  0  0  0  0  0  0  0  0  0
   -3.8221    0.5988   -4.4172 S   0  0  0  0  0  0  0  0  0  0  0  0
   -4.8883   -0.5035   -5.1559 C   0  0  0  0  0  0  0  0  0  0  0  0
   -4.2417   -1.7207   -5.0902 C   0  0  0  0  0  0  0  0  0  0  0  0
   -3.0253   -1.7210   -4.5171 C   0  0  0  0  0  0  0  0  0  0  0  0
   -2.4985   -2.9963   -4.5310 O   0  0  0  0  0  0  0  0  0  0  0  0
   -3.4771   -3.8534   -5.1514 C   0  0  0  0  0  0  0  0  0  0  0  0
   -4.5775   -2.9925   -5.5027 O   0  0  0  0  0  0  0  0  0  0  0  0
   -6.1973   -0.2433   -5.7745 C   0  0  0  0  0  0  0  0  0  0  0  0
   -6.7038    0.9834   -5.8754 C   0  0  0  0  0  0  0  0  0  0  0  0
   -0.4418    5.8819    7.9138 H   0  0  0  0  0  0  0  0  0  0  0  0
   -0.5335    1.2069    6.3479 H   0  0  0  0  0  0  0  0  0  0  0  0
   -1.6980    1.1145    7.7535 H   0  0  0  0  0  0  0  0  0  0  0  0
   -4.9449    5.3257    4.8406 H   0  0  0  0  0  0  0  0  0  0  0  0
   -5.2307    3.6793    3.1745 H   0  0  0  0  0  0  0  0  0  0  0  0
    0.7828    4.1771    2.4154 H   0  0  0  0  0  0  0  0  0  0  0  0
    0.9300    3.5297    4.1219 H   0  0  0  0  0  0  0  0  0  0  0  0
   -2.2278   -1.1070    1.2605 H   0  0  0  0  0  0  0  0  0  0  0  0
    0.5428   -0.3037    2.2862 H   0  0  0  0  0  0  0  0  0  0  0  0
   -1.8159   -3.9507   -2.1885 H   0  0  0  0  0  0  0  0  0  0  0  0
   -2.6716   -4.7363   -0.7794 H   0  0  0  0  0  0  0  0  0  0  0  0
    1.6674   -6.5488    0.9409 H   0  0  0  0  0  0  0  0  0  0  0  0
    3.9202   -6.7414    0.3489 H   0  0  0  0  0  0  0  0  0  0  0  0
    8.0395   -5.9836   -2.1213 H   0  0  0  0  0  0  0  0  0  0  0  0
    8.5790   -5.3914   -0.4781 H   0  0  0  0  0  0  0  0  0  0  0  0
    6.8813   -1.1570   -2.0357 H   0  0  0  0  0  0  0  0  0  0  0  0
    5.4817    0.6947   -2.3832 H   0  0  0  0  0  0  0  0  0  0  0  0
    1.3395    2.3309    0.3828 H   0  0  0  0  0  0  0  0  0  0  0  0
    1.5489    3.3610   -1.1083 H   0  0  0  0  0  0  0  0  0  0  0  0
   -0.2790   -1.9135   -3.9378 H   0  0  0  0  0  0  0  0  0  0  0  0
   -1.2353    0.8224   -2.9368 H   0  0  0  0  0  0  0  0  0  0  0  0
   -3.8157   -4.6362   -4.4356 H   0  0  0  0  0  0  0  0  0  0  0  0
   -3.0501   -4.3186   -6.0633 H   0  0  0  0  0  0  0  0  0  0  0  0
   -6.7622   -1.0801   -6.1758 H   0  0  0  0  0  0  0  0  0  0  0  0
   -6.1761    1.8538   -5.5038 H   0  0  0  0  0  0  0  0  0  0  0  0
   -7.6635    1.1299   -6.3555 H   0  0  0  0  0  0  0  0  0  0  0  0
  1  2  1  0
  2  3  1  0
  3  4  2  0
  4  5  1  0
  5  6  1  0
  6  7  1  0
  7  8  1  0
  3  9  1  0
  9 10  2  3
 10 11  1  0
 11 12  1  0
 12 13  1  0
 13 14  2  0
 14 15  1  0
 15 16  1  0
 16 17  1  0
 17 18  1  0
 13 19  1  0
 19 20  2  3
 20 21  1  0
 21 22  1  0
 22 23  1  0
 23 24  2  0
 24 25  1  0
 25 26  1  0
 26 27  1  0
 27 28  1  0
 23 29  1  0
 29 30  2  3
 30 31  1  0
 31 32  1  0
 32 33  1  0
 33 34  2  0
 34 35  1  0
 35 36  1  0
 36 37  1  0
 37 38  1  0
 33 39  1  0
 39 40  2  3
 40 41  1  0
 41 42  1  0
 42 43  1  0
 43 44  2  0
 44 45  1  0
 45 46  1  0
 46 47  1  0
 47 48  1  0
 43 49  1  0
 49 50  2  3
 50 51  1  0
 51 52  1  0
 52 53  1  0
 53 54  2  0
 54 55  1  0
 55 56  1  0
 56 57  1  0
 57 58  1  0
 53 59  1  0
 59 60  2  3
  5  1  2  0
 15 11  2  0
 25 21  2  0
 35 31  2  0
 45 41  2  0
 55 51  2  0
  8  4  1  0
 18 14  1  0
 28 24  1  0
 38 34  1  0
 48 44  1  0
 58 54  1  0
  1 61  1  0
  7 62  1  0
  7 63  1  0
  9 64  1  0
 10 65  1  0
 17 66  1  0
 17 67  1  0
 19 68  1  0
 20 69  1  0
 27 70  1  0
 27 71  1  0
 29 72  1  0
 30 73  1  0
 37 74  1  0
 37 75  1  0
 39 76  1  0
 40 77  1  0
 47 78  1  0
 47 79  1  0
 49 80  1  0
 50 81  1  0
 57 82  1  0
 57 83  1  0
 59 84  1  0
 60 85  1  0
 60 86  1  0
M  END

