
     RDKit          3D

224247  0  0  0  0  0  0  0  0999 V2000
   -9.7794   -4.9133   -5.9471 C   0  0  0  0  0  0  0  0  0  0  0  0
   -8.9015   -5.8939   -5.4954 C   0  0  0  0  0  0  0  0  0  0  0  0
   -7.5289   -5.4935   -5.4555 C   0  0  0  0  0  0  0  0  0  0  0  0
   -6.4042   -6.2641   -5.0255 C   0  0  0  0  0  0  0  0  0  0  0  0
   -6.6410   -7.6980   -4.7163 C   0  0  0  0  0  0  0  0  0  0  0  0
   -7.6659   -8.7659   -5.4513 S   0  0  0  0  0  0  0  0  0  0  0  0
   -7.3514  -10.0972   -4.5453 C   0  0  0  0  0  0  0  0  0  0  0  0
   -7.9661  -11.4442   -4.6805 C   0  0  0  0  0  0  0  0  0  0  0  0
   -8.9567  -11.7166   -3.5161 C   0  0  0  0  0  0  0  0  0  0  0  0
   -6.3494   -9.7697   -3.6200 C   0  0  0  0  0  0  0  0  0  0  0  0
   -5.6988  -10.8797   -2.4826 Cl  0  0  0  0  0  0  0  0  0  0  0  0
   -5.9324   -8.4029   -3.6994 C   0  0  0  0  0  0  0  0  0  0  0  0
   -4.8556   -7.8060   -2.5010 Cl  0  0  0  0  0  0  0  0  0  0  0  0
   -5.1357   -5.6425   -5.0382 C   0  0  0  0  0  0  0  0  0  0  0  0
   -4.9614   -4.3091   -5.4605 C   0  0  0  0  0  0  0  0  0  0  0  0
   -6.1286   -3.5319   -5.8753 C   0  0  0  0  0  0  0  0  0  0  0  0
   -6.0165   -2.0812   -6.1409 C   0  0  0  0  0  0  0  0  0  0  0  0
   -6.9268   -1.2663   -7.2784 S   0  0  0  0  0  0  0  0  0  0  0  0
   -6.5115    0.2910   -6.8262 C   0  0  0  0  0  0  0  0  0  0  0  0
   -6.9728    1.5880   -7.4106 C   0  0  0  0  0  0  0  0  0  0  0  0
   -8.0331    2.2669   -6.5256 C   0  0  0  0  0  0  0  0  0  0  0  0
   -5.6503    0.2061   -5.7303 C   0  0  0  0  0  0  0  0  0  0  0  0
   -5.3753   -1.1521   -5.3161 C   0  0  0  0  0  0  0  0  0  0  0  0
   -4.4677   -1.4721   -3.9036 Cl  0  0  0  0  0  0  0  0  0  0  0  0
   -4.9842    1.5637   -4.9257 Cl  0  0  0  0  0  0  0  0  0  0  0  0
   -7.3440   -4.1639   -5.8836 C   0  0  0  0  0  0  0  0  0  0  0  0
   -8.8493   -3.5559   -6.2763 S   0  0  0  0  0  0  0  0  0  0  0  0
   -3.6019   -3.8991   -5.4461 C   0  0  0  0  0  0  0  0  0  0  0  0
   -2.7094   -4.8311   -4.9781 C   0  0  0  0  0  0  0  0  0  0  0  0
   -3.5992   -6.2276   -4.6775 S   0  0  0  0  0  0  0  0  0  0  0  0
   -1.2742   -4.5639   -4.7630 C   0  0  0  0  0  0  0  0  0  0  0  0
   -0.4546   -5.1642   -3.8100 C   0  0  0  0  0  0  0  0  0  0  0  0
    0.7828   -4.4737   -3.5855 C   0  0  0  0  0  0  0  0  0  0  0  0
    1.7472   -4.7486   -2.5499 C   0  0  0  0  0  0  0  0  0  0  0  0
    1.5478   -5.9131   -1.6599 C   0  0  0  0  0  0  0  0  0  0  0  0
    0.1654   -6.6577   -1.0953 S   0  0  0  0  0  0  0  0  0  0  0  0
    0.8693   -7.8938   -0.2567 C   0  0  0  0  0  0  0  0  0  0  0  0
    0.2246   -8.9870    0.5264 C   0  0  0  0  0  0  0  0  0  0  0  0
    0.2648   -8.6855    2.0338 C   0  0  0  0  0  0  0  0  0  0  0  0
    2.2483   -7.7311   -0.3314 C   0  0  0  0  0  0  0  0  0  0  0  0
    3.3859   -8.7703    0.4427 Cl  0  0  0  0  0  0  0  0  0  0  0  0
    2.6583   -6.6194   -1.1372 C   0  0  0  0  0  0  0  0  0  0  0  0
    4.3294   -6.4455   -1.5125 Cl  0  0  0  0  0  0  0  0  0  0  0  0
    2.8019   -3.8251   -2.3955 C   0  0  0  0  0  0  0  0  0  0  0  0
    2.9932   -2.7210   -3.2643 C   0  0  0  0  0  0  0  0  0  0  0  0
    2.0486   -2.5150   -4.3605 C   0  0  0  0  0  0  0  0  0  0  0  0
    2.3198   -1.4955   -5.3614 C   0  0  0  0  0  0  0  0  0  0  0  0
    1.1629   -0.5556   -6.1357 S   0  0  0  0  0  0  0  0  0  0  0  0
    2.1789    0.1089   -7.2917 C   0  0  0  0  0  0  0  0  0  0  0  0
    1.8433    1.1011   -8.3420 C   0  0  0  0  0  0  0  0  0  0  0  0
    2.3124    2.5138   -7.9729 C   0  0  0  0  0  0  0  0  0  0  0  0
    3.4615   -0.3977   -7.1006 C   0  0  0  0  0  0  0  0  0  0  0  0
    3.5402   -1.3395   -6.0155 C   0  0  0  0  0  0  0  0  0  0  0  0
    4.9732   -2.2243   -5.6722 Cl  0  0  0  0  0  0  0  0  0  0  0  0
    4.8176    0.0092   -8.0650 Cl  0  0  0  0  0  0  0  0  0  0  0  0
    0.9593   -3.3692   -4.4315 C   0  0  0  0  0  0  0  0  0  0  0  0
   -0.4057   -3.2276   -5.3755 S   0  0  0  0  0  0  0  0  0  0  0  0
    3.9923   -1.8025   -2.8171 C   0  0  0  0  0  0  0  0  0  0  0  0
    4.5391   -2.1443   -1.5510 C   0  0  0  0  0  0  0  0  0  0  0  0
    3.7693   -3.5193   -1.0736 S   0  0  0  0  0  0  0  0  0  0  0  0
    5.3192   -1.2683   -0.6646 C   0  0  0  0  0  0  0  0  0  0  0  0
    5.4354   -1.4553    0.9871 S   0  0  0  0  0  0  0  0  0  0  0  0
    6.1975   -0.0190    1.3489 C   0  0  0  0  0  0  0  0  0  0  0  0
    6.4088    0.6590    0.1567 C   0  0  0  0  0  0  0  0  0  0  0  0
    5.9206   -0.0369   -0.9369 C   0  0  0  0  0  0  0  0  0  0  0  0
    6.0703    0.5308   -2.2182 N   0  0  0  0  0  0  0  0  0  0  0  0
    6.6764    1.6926   -2.3388 C   0  0  0  0  0  0  0  0  0  0  0  0
    6.8692    2.2871   -3.6018 O   0  0  0  0  0  0  0  0  0  0  0  0
    6.4017    1.6256   -4.7718 C   0  0  0  0  0  0  0  0  0  0  0  0
    7.1874    0.3605   -5.0120 C   0  0  0  0  0  0  0  0  0  0  0  0
    7.1522    2.3966   -1.2219 C   0  0  0  0  0  0  0  0  0  0  0  0
    7.8193    3.7161   -1.4649 C   0  0  0  0  0  0  0  0  0  0  0  0
    8.2684    4.2981   -0.1837 N   0  0  0  0  0  0  0  0  0  0  0  0
    7.0217    1.8496    0.0253 N   0  0  0  0  0  0  0  0  0  0  0  0
    6.4553    0.5243    2.6790 C   0  0  0  0  0  0  0  0  0  0  0  0
    6.3020   -0.1816    3.8114 C   0  0  0  0  0  0  0  0  0  0  0  0
    6.5160    0.4471    5.0959 C   0  0  0  0  0  0  0  0  0  0  0  0
    6.5436    2.0735    5.4125 S   0  0  0  0  0  0  0  0  0  0  0  0
    6.8139    1.9972    7.0534 C   0  0  0  0  0  0  0  0  0  0  0  0
    6.9487    0.6545    7.3609 C   0  0  0  0  0  0  0  0  0  0  0  0
    6.7722   -0.2139    6.2952 C   0  0  0  0  0  0  0  0  0  0  0  0
    6.8547   -1.5593    6.4143 N   0  0  0  0  0  0  0  0  0  0  0  0
    7.1168   -2.0741    7.6631 C   0  0  0  0  0  0  0  0  0  0  0  0
    7.2146   -3.4549    7.8132 O   0  0  0  0  0  0  0  0  0  0  0  0
    6.9653   -4.2713    6.6868 C   0  0  0  0  0  0  0  0  0  0  0  0
    7.1040   -5.7570    7.0017 C   0  0  0  0  0  0  0  0  0  0  0  0
    7.2983   -1.2033    8.7748 C   0  0  0  0  0  0  0  0  0  0  0  0
    7.5576   -1.7982   10.1147 C   0  0  0  0  0  0  0  0  0  0  0  0
    7.7218   -0.7389   11.0801 N   0  0  0  0  0  0  0  0  0  0  0  0
    7.2102    0.1371    8.6376 N   0  0  0  0  0  0  0  0  0  0  0  0
    6.8358    3.1412    7.9977 C   0  0  0  0  0  0  0  0  0  0  0  0
    5.9757    4.2092    7.9188 C   0  0  0  0  0  0  0  0  0  0  0  0
    4.8259    4.3096    6.9651 C   0  0  0  0  0  0  0  0  0  0  0  0
    4.0207    3.2696    6.5321 C   0  0  0  0  0  0  0  0  0  0  0  0
    2.9878    3.6745    5.6510 C   0  0  0  0  0  0  0  0  0  0  0  0
    1.9924    2.8496    5.0507 C   0  0  0  0  0  0  0  0  0  0  0  0
    2.0482    1.3847    5.2568 C   0  0  0  0  0  0  0  0  0  0  0  0
    2.4796    0.4806    6.5785 S   0  0  0  0  0  0  0  0  0  0  0  0
    2.3495   -1.0249    5.8969 C   0  0  0  0  0  0  0  0  0  0  0  0
    2.6909   -2.3537    6.5423 C   0  0  0  0  0  0  0  0  0  0  0  0
    1.4094   -3.1553    6.9176 C   0  0  0  0  0  0  0  0  0  0  0  0
    1.9021   -0.8690    4.5784 C   0  0  0  0  0  0  0  0  0  0  0  0
    1.6087   -2.1729    3.4949 Cl  0  0  0  0  0  0  0  0  0  0  0  0
    1.7366    0.5014    4.2002 C   0  0  0  0  0  0  0  0  0  0  0  0
    1.4230    0.8577    2.5479 Cl  0  0  0  0  0  0  0  0  0  0  0  0
    0.9885    3.4978    4.2801 C   0  0  0  0  0  0  0  0  0  0  0  0
    0.9813    4.8927    4.0404 C   0  0  0  0  0  0  0  0  0  0  0  0
    2.0608    5.6970    4.6253 C   0  0  0  0  0  0  0  0  0  0  0  0
    2.2357    7.1130    4.2724 C   0  0  0  0  0  0  0  0  0  0  0  0
    2.9120    8.2414    5.3012 S   0  0  0  0  0  0  0  0  0  0  0  0
    3.1948    9.4409    4.2162 C   0  0  0  0  0  0  0  0  0  0  0  0
    3.8814   10.7548    4.4750 C   0  0  0  0  0  0  0  0  0  0  0  0
    2.8993   11.9665    4.3992 C   0  0  0  0  0  0  0  0  0  0  0  0
    2.7566    9.0005    2.9621 C   0  0  0  0  0  0  0  0  0  0  0  0
    2.2301    7.6594    2.9751 C   0  0  0  0  0  0  0  0  0  0  0  0
    1.7560    6.8753    1.5288 Cl  0  0  0  0  0  0  0  0  0  0  0  0
    2.8470    9.9337    1.5354 Cl  0  0  0  0  0  0  0  0  0  0  0  0
    2.9615    5.0616    5.4322 C   0  0  0  0  0  0  0  0  0  0  0  0
    4.2465    5.7031    6.3149 S   0  0  0  0  0  0  0  0  0  0  0  0
   -0.1828    5.3201    3.3174 C   0  0  0  0  0  0  0  0  0  0  0  0
   -1.0670    4.2576    3.0043 C   0  0  0  0  0  0  0  0  0  0  0  0
   -0.4518    2.9155    3.6940 S   0  0  0  0  0  0  0  0  0  0  0  0
   -2.3585    4.3201    2.2802 C   0  0  0  0  0  0  0  0  0  0  0  0
   -2.7716    5.3793    1.4565 C   0  0  0  0  0  0  0  0  0  0  0  0
   -4.0308    5.1278    0.8182 C   0  0  0  0  0  0  0  0  0  0  0  0
   -4.7205    5.9729   -0.0970 C   0  0  0  0  0  0  0  0  0  0  0  0
   -4.1905    7.3494   -0.2648 C   0  0  0  0  0  0  0  0  0  0  0  0
   -3.5320    8.3337    0.8749 S   0  0  0  0  0  0  0  0  0  0  0  0
   -3.1866    9.6340   -0.0776 C   0  0  0  0  0  0  0  0  0  0  0  0
   -2.5445   10.9080    0.3618 C   0  0  0  0  0  0  0  0  0  0  0  0
   -1.0541   11.0055   -0.0521 C   0  0  0  0  0  0  0  0  0  0  0  0
   -3.6457    9.3563   -1.3844 C   0  0  0  0  0  0  0  0  0  0  0  0
   -3.5318   10.4519   -2.6958 Cl  0  0  0  0  0  0  0  0  0  0  0  0
   -4.2234    8.0488   -1.5033 C   0  0  0  0  0  0  0  0  0  0  0  0
   -4.6922    7.4742   -3.0510 Cl  0  0  0  0  0  0  0  0  0  0  0  0
   -5.9328    5.4855   -0.6506 C   0  0  0  0  0  0  0  0  0  0  0  0
   -6.4865    4.2334   -0.3088 C   0  0  0  0  0  0  0  0  0  0  0  0
   -5.7628    3.3903    0.6319 C   0  0  0  0  0  0  0  0  0  0  0  0
   -6.2996    2.0884    1.0790 C   0  0  0  0  0  0  0  0  0  0  0  0
   -6.2443    1.5698    2.6484 S   0  0  0  0  0  0  0  0  0  0  0  0
   -6.8393    0.0454    2.4258 C   0  0  0  0  0  0  0  0  0  0  0  0
   -7.0623   -1.0165    3.4513 C   0  0  0  0  0  0  0  0  0  0  0  0
   -6.0507   -2.1858    3.2826 C   0  0  0  0  0  0  0  0  0  0  0  0
   -7.0825   -0.1322    1.0533 C   0  0  0  0  0  0  0  0  0  0  0  0
   -6.7690    1.0260    0.2626 C   0  0  0  0  0  0  0  0  0  0  0  0
   -6.8674    0.9952   -1.4446 Cl  0  0  0  0  0  0  0  0  0  0  0  0
   -7.7131   -1.5768    0.3669 Cl  0  0  0  0  0  0  0  0  0  0  0  0
   -4.5921    3.8770    1.1531 C   0  0  0  0  0  0  0  0  0  0  0  0
   -3.4992    3.1311    2.2028 S   0  0  0  0  0  0  0  0  0  0  0  0
   -7.7415    3.9897   -0.9221 C   0  0  0  0  0  0  0  0  0  0  0  0
   -8.1736    5.0171   -1.7629 C   0  0  0  0  0  0  0  0  0  0  0  0
   -7.0449    6.2275   -1.6574 S   0  0  0  0  0  0  0  0  0  0  0  0
  -10.8452   -5.0800   -6.0303 H   0  0  0  0  0  0  0  0  0  0  0  0
   -9.2556   -6.8184   -5.1884 H   0  0  0  0  0  0  0  0  0  0  0  0
   -7.1336  -12.2130   -4.6319 H   0  0  0  0  0  0  0  0  0  0  0  0
   -8.4984  -11.5467   -5.6354 H   0  0  0  0  0  0  0  0  0  0  0  0
   -9.2713  -12.7835   -3.4920 H   0  0  0  0  0  0  0  0  0  0  0  0
   -8.4818  -11.4617   -2.5368 H   0  0  0  0  0  0  0  0  0  0  0  0
   -9.8247  -11.0630   -3.6504 H   0  0  0  0  0  0  0  0  0  0  0  0
   -7.4050    1.4040   -8.4199 H   0  0  0  0  0  0  0  0  0  0  0  0
   -6.1083    2.3057   -7.5509 H   0  0  0  0  0  0  0  0  0  0  0  0
   -7.9276    1.9157   -5.4619 H   0  0  0  0  0  0  0  0  0  0  0  0
   -9.0314    1.9809   -6.8840 H   0  0  0  0  0  0  0  0  0  0  0  0
   -7.9459    3.3729   -6.5440 H   0  0  0  0  0  0  0  0  0  0  0  0
   -3.2808   -2.9626   -5.7662 H   0  0  0  0  0  0  0  0  0  0  0  0
   -0.7799   -5.9865   -3.3050 H   0  0  0  0  0  0  0  0  0  0  0  0
   -0.8467   -9.1307    0.2355 H   0  0  0  0  0  0  0  0  0  0  0  0
    0.7930   -9.9416    0.3348 H   0  0  0  0  0  0  0  0  0  0  0  0
   -0.6636   -8.1656    2.3065 H   0  0  0  0  0  0  0  0  0  0  0  0
    0.3632   -9.5934    2.6394 H   0  0  0  0  0  0  0  0  0  0  0  0
    1.1437   -8.0104    2.2476 H   0  0  0  0  0  0  0  0  0  0  0  0
    0.7359    1.1256   -8.5159 H   0  0  0  0  0  0  0  0  0  0  0  0
    2.3429    0.8037   -9.3197 H   0  0  0  0  0  0  0  0  0  0  0  0
    2.2850    2.6453   -6.8674 H   0  0  0  0  0  0  0  0  0  0  0  0
    1.6312    3.2598   -8.4137 H   0  0  0  0  0  0  0  0  0  0  0  0
    3.3470    2.6948   -8.3507 H   0  0  0  0  0  0  0  0  0  0  0  0
    4.2313   -0.9092   -3.2937 H   0  0  0  0  0  0  0  0  0  0  0  0
    5.3542    1.3846   -4.6595 H   0  0  0  0  0  0  0  0  0  0  0  0
    6.5166    2.3206   -5.6505 H   0  0  0  0  0  0  0  0  0  0  0  0
    8.2722    0.4988   -4.9425 H   0  0  0  0  0  0  0  0  0  0  0  0
    6.8825   -0.3744   -4.2118 H   0  0  0  0  0  0  0  0  0  0  0  0
    6.9385   -0.0323   -6.0167 H   0  0  0  0  0  0  0  0  0  0  0  0
    7.1477    4.4140   -2.0099 H   0  0  0  0  0  0  0  0  0  0  0  0
    8.7125    3.5460   -2.0917 H   0  0  0  0  0  0  0  0  0  0  0  0
    8.1211    5.3460   -0.1614 H   0  0  0  0  0  0  0  0  0  0  0  0
    7.8132    3.8357    0.6495 H   0  0  0  0  0  0  0  0  0  0  0  0
    6.7803    1.5826    2.7887 H   0  0  0  0  0  0  0  0  0  0  0  0
    6.0107   -1.2528    3.7120 H   0  0  0  0  0  0  0  0  0  0  0  0
    5.9480   -4.1243    6.3687 H   0  0  0  0  0  0  0  0  0  0  0  0
    7.6690   -3.9916    5.8543 H   0  0  0  0  0  0  0  0  0  0  0  0
    6.8719   -6.2997    6.0908 H   0  0  0  0  0  0  0  0  0  0  0  0
    6.3737   -6.0210    7.7788 H   0  0  0  0  0  0  0  0  0  0  0  0
    8.1573   -6.0372    7.3228 H   0  0  0  0  0  0  0  0  0  0  0  0
    6.6912   -2.4441   10.3664 H   0  0  0  0  0  0  0  0  0  0  0  0
    8.5054   -2.3895   10.0617 H   0  0  0  0  0  0  0  0  0  0  0  0
    7.9536   -1.1807   12.0107 H   0  0  0  0  0  0  0  0  0  0  0  0
    8.5485   -0.1639   10.7728 H   0  0  0  0  0  0  0  0  0  0  0  0
    7.6142    3.1811    8.7601 H   0  0  0  0  0  0  0  0  0  0  0  0
    6.1293    5.0039    8.5789 H   0  0  0  0  0  0  0  0  0  0  0  0
    4.1928    2.3006    6.8197 H   0  0  0  0  0  0  0  0  0  0  0  0
    3.3026   -2.9770    5.8625 H   0  0  0  0  0  0  0  0  0  0  0  0
    3.2625   -2.1882    7.4622 H   0  0  0  0  0  0  0  0  0  0  0  0
    1.1736   -2.9349    7.9574 H   0  0  0  0  0  0  0  0  0  0  0  0
    1.6273   -4.2364    6.8164 H   0  0  0  0  0  0  0  0  0  0  0  0
    0.5418   -2.8700    6.2949 H   0  0  0  0  0  0  0  0  0  0  0  0
    4.6833   10.9406    3.7097 H   0  0  0  0  0  0  0  0  0  0  0  0
    4.3346   10.7344    5.4674 H   0  0  0  0  0  0  0  0  0  0  0  0
    1.9692   11.7561    5.0030 H   0  0  0  0  0  0  0  0  0  0  0  0
    3.4131   12.8448    4.8263 H   0  0  0  0  0  0  0  0  0  0  0  0
    2.6114   12.1887    3.3807 H   0  0  0  0  0  0  0  0  0  0  0  0
   -0.3803    6.3194    3.1099 H   0  0  0  0  0  0  0  0  0  0  0  0
   -2.1924    6.2205    1.2991 H   0  0  0  0  0  0  0  0  0  0  0  0
   -3.0637   11.7864   -0.1270 H   0  0  0  0  0  0  0  0  0  0  0  0
   -2.5978   10.9953    1.4527 H   0  0  0  0  0  0  0  0  0  0  0  0
   -0.9235   10.7583   -1.1307 H   0  0  0  0  0  0  0  0  0  0  0  0
   -0.4433   10.3409    0.5848 H   0  0  0  0  0  0  0  0  0  0  0  0
   -0.7298   12.0383    0.1115 H   0  0  0  0  0  0  0  0  0  0  0  0
   -7.0083   -0.6028    4.4797 H   0  0  0  0  0  0  0  0  0  0  0  0
   -8.1077   -1.4588    3.2954 H   0  0  0  0  0  0  0  0  0  0  0  0
   -5.6166   -2.4651    4.2613 H   0  0  0  0  0  0  0  0  0  0  0  0
   -5.2187   -1.8633    2.6074 H   0  0  0  0  0  0  0  0  0  0  0  0
   -6.5269   -3.0287    2.7925 H   0  0  0  0  0  0  0  0  0  0  0  0
   -8.3125    3.1402   -0.7389 H   0  0  0  0  0  0  0  0  0  0  0  0
   -9.0982    4.9866   -2.3114 H   0  0  0  0  0  0  0  0  0  0  0  0
  1  2  2  0
  2  3  1  0
  3  4  2  0
  4  5  1  0
  5  6  1  0
  6  7  1  0
  7  8  1  0
  8  9  1  0
  7 10  2  0
 10 11  1  0
 10 12  1  0
 12 13  1  0
  4 14  1  0
 14 15  2  0
 15 16  1  0
 16 17  1  0
 17 18  1  0
 18 19  1  0
 19 20  1  0
 20 21  1  0
 19 22  2  0
 22 23  1  0
 23 24  1  0
 22 25  1  0
 16 26  2  0
 26 27  1  0
 15 28  1  0
 28 29  2  0
 29 30  1  0
 29 31  1  0
 31 32  2  0
 32 33  1  0
 33 34  2  0
 34 35  1  0
 35 36  1  0
 36 37  1  0
 37 38  1  0
 38 39  1  0
 37 40  2  0
 40 41  1  0
 40 42  1  0
 42 43  1  0
 34 44  1  0
 44 45  2  0
 45 46  1  0
 46 47  1  0
 47 48  1  0
 48 49  1  0
 49 50  1  0
 50 51  1  0
 49 52  2  0
 52 53  1  0
 53 54  1  0
 52 55  1  0
 46 56  2  0
 56 57  1  0
 45 58  1  0
 58 59  2  0
 59 60  1  0
 59 61  1  0
 61 62  1  0
 62 63  1  0
 63 64  2  0
 64 65  1  0
 65 66  1  0
 66 67  2  0
 67 68  1  0
 68 69  1  0
 69 70  1  0
 67 71  1  0
 71 72  1  0
 72 73  1  0
 71 74  2  0
 63 75  1  0
 75 76  2  3
 76 77  1  0
 77 78  1  0
 78 79  1  0
 79 80  2  0
 80 81  1  0
 81 82  1  0
 82 83  2  0
 83 84  1  0
 84 85  1  0
 85 86  1  0
 83 87  1  0
 87 88  1  0
 88 89  1  0
 87 90  2  0
 79 91  1  0
 91 92  2  3
 92 93  1  0
 93 94  2  0
 94 95  1  0
 95 96  2  0
 96 97  1  0
 97 98  1  0
 98 99  1  0
 99100  1  0
100101  1  0
 99102  2  0
102103  1  0
102104  1  0
104105  1  0
 96106  1  0
106107  2  0
107108  1  0
108109  1  0
109110  1  0
110111  1  0
111112  1  0
112113  1  0
111114  2  0
114115  1  0
115116  1  0
114117  1  0
108118  2  0
118119  1  0
107120  1  0
120121  2  0
121122  1  0
121123  1  0
123124  2  0
124125  1  0
125126  2  0
126127  1  0
127128  1  0
128129  1  0
129130  1  0
130131  1  0
129132  2  0
132133  1  0
132134  1  0
134135  1  0
126136  1  0
136137  2  0
137138  1  0
138139  1  0
139140  1  0
140141  1  0
141142  1  0
142143  1  0
141144  2  0
144145  1  0
145146  1  0
144147  1  0
138148  2  0
148149  1  0
137150  1  0
150151  2  0
151152  1  0
 27  1  1  0
 57 31  1  0
 65 61  2  0
 81 77  2  0
119 93  1  0
149123  1  0
 26  3  1  0
 56 33  1  0
 74 64  1  0
 90 80  1  0
118 95  1  0
148125  1  0
 12  5  2  0
 30 14  1  0
 42 35  2  0
 60 44  1  0
104 97  2  0
122106  1  0
134127  2  0
152136  1  0
 23 17  2  0
 53 47  2  0
115109  2  0
145139  2  0
  1153  1  0
  2154  1  0
  8155  1  0
  8156  1  0
  9157  1  0
  9158  1  0
  9159  1  0
 20160  1  0
 20161  1  0
 21162  1  0
 21163  1  0
 21164  1  0
 28165  1  0
 32166  1  0
 38167  1  0
 38168  1  0
 39169  1  0
 39170  1  0
 39171  1  0
 50172  1  0
 50173  1  0
 51174  1  0
 51175  1  0
 51176  1  0
 58177  1  0
 69178  1  0
 69179  1  0
 70180  1  0
 70181  1  0
 70182  1  0
 72183  1  0
 72184  1  0
 73185  1  0
 73186  1  0
 75187  1  0
 76188  1  0
 85189  1  0
 85190  1  0
 86191  1  0
 86192  1  0
 86193  1  0
 88194  1  0
 88195  1  0
 89196  1  0
 89197  1  0
 91198  1  0
 92199  1  0
 94200  1  0
100201  1  0
100202  1  0
101203  1  0
101204  1  0
101205  1  0
112206  1  0
112207  1  0
113208  1  0
113209  1  0
113210  1  0
120211  1  0
124212  1  0
130213  1  0
130214  1  0
131215  1  0
131216  1  0
131217  1  0
142218  1  0
142219  1  0
143220  1  0
143221  1  0
143222  1  0
150223  1  0
151224  1  0
M  END

