
     RDKit          3D

128136  0  0  0  0  0  0  0  0999 V2000
    3.8042   -4.8409    3.0837 C   0  0  0  0  0  0  0  0  0  0  0  0
    5.1165   -5.0779    2.0729 S   0  0  0  0  0  0  0  0  0  0  0  0
    4.7431   -6.6327    1.5587 C   0  0  0  0  0  0  0  0  0  0  0  0
    3.5418   -6.9915    2.1524 C   0  0  0  0  0  0  0  0  0  0  0  0
    2.8990   -8.2863    1.8442 C   0  0  0  0  0  0  0  0  0  0  0  0
    1.7429   -8.5642    2.2760 O   0  0  0  0  0  0  0  0  0  0  0  0
    3.5448   -9.2025    1.0260 O   0  0  0  0  0  0  0  0  0  0  0  0
    3.0013   -5.9649    2.9881 C   0  0  0  0  0  0  0  0  0  0  0  0
    1.3609   -6.0764    3.7427 S   0  0  0  0  0  0  0  0  0  0  0  0
    0.7453   -4.4199    3.4080 C   0  0  0  0  0  0  0  0  0  0  0  0
    0.0713   -4.0641    2.3074 C   0  0  0  0  0  0  0  0  0  0  0  0
    0.1768   -4.7854    1.0262 C   0  0  0  0  0  0  0  0  0  0  0  0
    1.6511   -5.1478    0.3071 S   0  0  0  0  0  0  0  0  0  0  0  0
    1.0517   -5.8839   -1.0598 C   0  0  0  0  0  0  0  0  0  0  0  0
   -0.3339   -5.8079   -1.0097 C   0  0  0  0  0  0  0  0  0  0  0  0
   -1.1594   -6.3704   -2.0781 C   0  0  0  0  0  0  0  0  0  0  0  0
   -2.3275   -6.7578   -1.8546 O   0  0  0  0  0  0  0  0  0  0  0  0
   -0.5948   -6.6153   -3.3222 O   0  0  0  0  0  0  0  0  0  0  0  0
   -0.8333   -5.1426    0.1351 C   0  0  0  0  0  0  0  0  0  0  0  0
   -2.5981   -4.7626    0.3695 S   0  0  0  0  0  0  0  0  0  0  0  0
   -2.4641   -2.9544    0.3270 C   0  0  0  0  0  0  0  0  0  0  0  0
   -2.7468   -2.2161   -0.7539 C   0  0  0  0  0  0  0  0  0  0  0  0
   -2.4934   -0.7591   -0.7173 C   0  0  0  0  0  0  0  0  0  0  0  0
   -1.5139    0.0523    0.4052 S   0  0  0  0  0  0  0  0  0  0  0  0
   -1.6386    1.5969   -0.2505 C   0  0  0  0  0  0  0  0  0  0  0  0
   -2.4953    1.4978   -1.3472 C   0  0  0  0  0  0  0  0  0  0  0  0
   -2.9670    0.2032   -1.6012 C   0  0  0  0  0  0  0  0  0  0  0  0
   -3.8349   -0.0130   -2.6167 N   0  0  0  0  0  0  0  0  0  0  0  0
   -4.2408    1.0352   -3.3975 C   0  0  0  0  0  0  0  0  0  0  0  0
   -5.1782    0.8568   -4.4305 O   0  0  0  0  0  0  0  0  0  0  0  0
   -5.9534   -0.3239   -4.5827 C   0  0  0  0  0  0  0  0  0  0  0  0
   -6.8643   -0.1563   -5.7801 C   0  0  0  0  0  0  0  0  0  0  0  0
   -3.7399    2.3314   -3.1517 C   0  0  0  0  0  0  0  0  0  0  0  0
   -4.2299    3.5043   -3.9611 C   0  0  0  0  0  0  0  0  0  0  0  0
   -3.4226    4.7067   -3.7522 N   0  0  0  0  0  0  0  0  0  0  0  0
   -2.8978    2.5376   -2.1037 N   0  0  0  0  0  0  0  0  0  0  0  0
   -0.9191    2.8065    0.2119 C   0  0  0  0  0  0  0  0  0  0  0  0
   -0.5867    3.7824   -0.6359 C   0  0  0  0  0  0  0  0  0  0  0  0
    0.1735    4.9873   -0.2556 C   0  0  0  0  0  0  0  0  0  0  0  0
    0.7828    5.3737    1.2611 S   0  0  0  0  0  0  0  0  0  0  0  0
    1.6047    6.7630    0.7866 C   0  0  0  0  0  0  0  0  0  0  0  0
    1.3886    6.9539   -0.5707 C   0  0  0  0  0  0  0  0  0  0  0  0
    2.0073    8.0702   -1.3085 C   0  0  0  0  0  0  0  0  0  0  0  0
    1.4212    8.5555   -2.3131 O   0  0  0  0  0  0  0  0  0  0  0  0
    3.2507    8.5589   -0.9238 O   0  0  0  0  0  0  0  0  0  0  0  0
    0.5994    5.9418   -1.1634 C   0  0  0  0  0  0  0  0  0  0  0  0
    0.2612    5.7951   -2.9257 S   0  0  0  0  0  0  0  0  0  0  0  0
    1.9384    5.6009   -3.5510 C   0  0  0  0  0  0  0  0  0  0  0  0
    2.7050    4.5256   -3.3834 C   0  0  0  0  0  0  0  0  0  0  0  0
    2.4008    3.4502   -2.4329 C   0  0  0  0  0  0  0  0  0  0  0  0
    2.8617    3.4586   -0.8179 S   0  0  0  0  0  0  0  0  0  0  0  0
    2.4230    1.8808   -0.4333 C   0  0  0  0  0  0  0  0  0  0  0  0
    1.9929    1.2808   -1.6258 C   0  0  0  0  0  0  0  0  0  0  0  0
    1.9781    2.1567   -2.7270 C   0  0  0  0  0  0  0  0  0  0  0  0
    1.7182    1.7003   -3.9692 N   0  0  0  0  0  0  0  0  0  0  0  0
    1.5045    0.3696   -4.1671 C   0  0  0  0  0  0  0  0  0  0  0  0
    1.2628   -0.1174   -5.4615 O   0  0  0  0  0  0  0  0  0  0  0  0
    1.2097    0.7228   -6.6186 C   0  0  0  0  0  0  0  0  0  0  0  0
    0.8384   -0.1054   -7.8348 C   0  0  0  0  0  0  0  0  0  0  0  0
    1.5676   -0.5284   -3.0851 C   0  0  0  0  0  0  0  0  0  0  0  0
    1.5735   -2.0004   -3.3714 C   0  0  0  0  0  0  0  0  0  0  0  0
    1.4585   -2.7872   -2.1439 N   0  0  0  0  0  0  0  0  0  0  0  0
    1.8243   -0.0495   -1.8290 N   0  0  0  0  0  0  0  0  0  0  0  0
    2.7157    1.2741    0.8794 C   0  0  0  0  0  0  0  0  0  0  0  0
    2.0530    0.2583    1.4566 C   0  0  0  0  0  0  0  0  0  0  0  0
    2.5453   -0.2430    2.7542 C   0  0  0  0  0  0  0  0  0  0  0  0
    4.1842   -0.2311    3.2005 S   0  0  0  0  0  0  0  0  0  0  0  0
    4.0281   -0.8067    4.7614 C   0  0  0  0  0  0  0  0  0  0  0  0
    2.6710   -1.0551    4.9455 C   0  0  0  0  0  0  0  0  0  0  0  0
    1.8379   -0.7321    3.8624 C   0  0  0  0  0  0  0  0  0  0  0  0
    0.4923   -0.7774    4.0228 N   0  0  0  0  0  0  0  0  0  0  0  0
   -0.0376   -1.2510    5.1942 C   0  0  0  0  0  0  0  0  0  0  0  0
   -1.4175   -1.2715    5.3815 O   0  0  0  0  0  0  0  0  0  0  0  0
   -2.3867   -1.4969    4.3385 C   0  0  0  0  0  0  0  0  0  0  0  0
   -3.5601   -0.5656    4.5673 C   0  0  0  0  0  0  0  0  0  0  0  0
    0.7932   -1.7031    6.2217 C   0  0  0  0  0  0  0  0  0  0  0  0
    0.2505   -2.4444    7.4225 C   0  0  0  0  0  0  0  0  0  0  0  0
    1.1055   -2.2830    8.6012 N   0  0  0  0  0  0  0  0  0  0  0  0
    2.1366   -1.5772    6.0665 N   0  0  0  0  0  0  0  0  0  0  0  0
    5.1393   -0.8526    5.7455 C   0  0  0  0  0  0  0  0  0  0  0  0
    4.9756   -0.9254    7.0708 C   0  0  0  0  0  0  0  0  0  0  0  0
    3.5725   -3.9355    3.6205 H   0  0  0  0  0  0  0  0  0  0  0  0
    5.3281   -7.2196    0.8493 H   0  0  0  0  0  0  0  0  0  0  0  0
    3.0635  -10.0064    0.6434 H   0  0  0  0  0  0  0  0  0  0  0  0
    0.7825   -3.7357    4.2254 H   0  0  0  0  0  0  0  0  0  0  0  0
   -0.5204   -3.1565    2.3793 H   0  0  0  0  0  0  0  0  0  0  0  0
    1.6598   -6.3541   -1.8209 H   0  0  0  0  0  0  0  0  0  0  0  0
   -1.1127   -7.0846   -4.0574 H   0  0  0  0  0  0  0  0  0  0  0  0
   -2.2461   -2.4531    1.2482 H   0  0  0  0  0  0  0  0  0  0  0  0
   -3.1242   -2.6784   -1.6637 H   0  0  0  0  0  0  0  0  0  0  0  0
   -6.5706   -0.4708   -3.6693 H   0  0  0  0  0  0  0  0  0  0  0  0
   -5.2939   -1.1951   -4.7336 H   0  0  0  0  0  0  0  0  0  0  0  0
   -6.2573   -0.1150   -6.7160 H   0  0  0  0  0  0  0  0  0  0  0  0
   -7.5586   -1.0285   -5.8397 H   0  0  0  0  0  0  0  0  0  0  0  0
   -7.4701    0.7732   -5.6827 H   0  0  0  0  0  0  0  0  0  0  0  0
   -4.2018    3.2458   -5.0538 H   0  0  0  0  0  0  0  0  0  0  0  0
   -5.2870    3.7226   -3.6872 H   0  0  0  0  0  0  0  0  0  0  0  0
   -3.4272    4.9409   -2.7280 H   0  0  0  0  0  0  0  0  0  0  0  0
   -2.4338    4.4979   -4.0294 H   0  0  0  0  0  0  0  0  0  0  0  0
   -0.5782    2.8465    1.2465 H   0  0  0  0  0  0  0  0  0  0  0  0
   -0.8253    3.6756   -1.6740 H   0  0  0  0  0  0  0  0  0  0  0  0
    2.2296    7.3875    1.4365 H   0  0  0  0  0  0  0  0  0  0  0  0
    3.7103    9.2597   -1.4866 H   0  0  0  0  0  0  0  0  0  0  0  0
    2.3326    6.4291   -4.1236 H   0  0  0  0  0  0  0  0  0  0  0  0
    3.6934    4.5393   -3.8364 H   0  0  0  0  0  0  0  0  0  0  0  0
    2.1870    1.2169   -6.7741 H   0  0  0  0  0  0  0  0  0  0  0  0
    0.4376    1.4960   -6.4607 H   0  0  0  0  0  0  0  0  0  0  0  0
    1.5649   -0.9225   -7.9990 H   0  0  0  0  0  0  0  0  0  0  0  0
    0.8240    0.5323   -8.7400 H   0  0  0  0  0  0  0  0  0  0  0  0
   -0.1696   -0.5486   -7.6995 H   0  0  0  0  0  0  0  0  0  0  0  0
    0.7440   -2.2628   -4.0652 H   0  0  0  0  0  0  0  0  0  0  0  0
    2.5334   -2.2418   -3.8532 H   0  0  0  0  0  0  0  0  0  0  0  0
    0.4543   -2.7608   -1.8334 H   0  0  0  0  0  0  0  0  0  0  0  0
    1.6580   -3.7746   -2.4188 H   0  0  0  0  0  0  0  0  0  0  0  0
    3.4939    1.7695    1.4426 H   0  0  0  0  0  0  0  0  0  0  0  0
    1.2114   -0.2056    0.9763 H   0  0  0  0  0  0  0  0  0  0  0  0
   -1.9730   -1.1414    3.3756 H   0  0  0  0  0  0  0  0  0  0  0  0
   -2.6974   -2.5633    4.2957 H   0  0  0  0  0  0  0  0  0  0  0  0
   -3.3026    0.5057    4.3066 H   0  0  0  0  0  0  0  0  0  0  0  0
   -4.3952   -0.8756    3.8960 H   0  0  0  0  0  0  0  0  0  0  0  0
   -3.9512   -0.6431    5.6075 H   0  0  0  0  0  0  0  0  0  0  0  0
   -0.7681   -2.1369    7.6772 H   0  0  0  0  0  0  0  0  0  0  0  0
    0.2133   -3.5098    7.1542 H   0  0  0  0  0  0  0  0  0  0  0  0
    1.2108   -1.2625    8.8058 H   0  0  0  0  0  0  0  0  0  0  0  0
    2.0501   -2.6718    8.4032 H   0  0  0  0  0  0  0  0  0  0  0  0
    6.1485   -0.7637    5.3620 H   0  0  0  0  0  0  0  0  0  0  0  0
    5.8417   -0.8959    7.7093 H   0  0  0  0  0  0  0  0  0  0  0  0
    3.9961   -1.0017    7.5298 H   0  0  0  0  0  0  0  0  0  0  0  0
  1  2  1  0
  2  3  1  0
  3  4  2  0
  4  5  1  0
  5  6  2  0
  5  7  1  0
  4  8  1  0
  8  9  1  0
  9 10  1  0
 10 11  2  3
 11 12  1  0
 12 13  1  0
 13 14  1  0
 14 15  2  0
 15 16  1  0
 16 17  2  0
 16 18  1  0
 15 19  1  0
 19 20  1  0
 20 21  1  0
 21 22  2  3
 22 23  1  0
 23 24  1  0
 24 25  1  0
 25 26  2  0
 26 27  1  0
 27 28  1  0
 28 29  2  0
 29 30  1  0
 30 31  1  0
 31 32  1  0
 29 33  1  0
 33 34  1  0
 34 35  1  0
 33 36  2  0
 25 37  1  0
 37 38  2  3
 38 39  1  0
 39 40  1  0
 40 41  1  0
 41 42  2  0
 42 43  1  0
 43 44  2  0
 43 45  1  0
 42 46  1  0
 46 47  1  0
 47 48  1  0
 48 49  2  3
 49 50  1  0
 50 51  1  0
 51 52  1  0
 52 53  2  0
 53 54  1  0
 54 55  1  0
 55 56  2  0
 56 57  1  0
 57 58  1  0
 58 59  1  0
 56 60  1  0
 60 61  1  0
 61 62  1  0
 60 63  2  0
 52 64  1  0
 64 65  2  3
 65 66  1  0
 66 67  1  0
 67 68  1  0
 68 69  2  0
 69 70  1  0
 70 71  1  0
 71 72  2  0
 72 73  1  0
 73 74  1  0
 74 75  1  0
 72 76  1  0
 76 77  1  0
 77 78  1  0
 76 79  2  0
 68 80  1  0
 80 81  2  3
  8  1  2  0
 19 12  2  0
 27 23  2  0
 46 39  2  0
 54 50  2  0
 70 66  2  0
 36 26  1  0
 63 53  1  0
 79 69  1  0
  1 82  1  0
  3 83  1  0
  7 84  1  0
 10 85  1  0
 11 86  1  0
 14 87  1  0
 18 88  1  0
 21 89  1  0
 22 90  1  0
 31 91  1  0
 31 92  1  0
 32 93  1  0
 32 94  1  0
 32 95  1  0
 34 96  1  0
 34 97  1  0
 35 98  1  0
 35 99  1  0
 37100  1  0
 38101  1  0
 41102  1  0
 45103  1  0
 48104  1  0
 49105  1  0
 58106  1  0
 58107  1  0
 59108  1  0
 59109  1  0
 59110  1  0
 61111  1  0
 61112  1  0
 62113  1  0
 62114  1  0
 64115  1  0
 65116  1  0
 74117  1  0
 74118  1  0
 75119  1  0
 75120  1  0
 75121  1  0
 77122  1  0
 77123  1  0
 78124  1  0
 78125  1  0
 80126  1  0
 81127  1  0
 81128  1  0
M  END

