
     RDKit          3D

238265  0  0  0  0  0  0  0  0999 V2000
   -0.8995  -10.8672    8.5147 C   0  0  0  0  0  0  0  0  0  0  0  0
   -0.4141   -9.5957    8.2251 C   0  0  0  0  0  0  0  0  0  0  0  0
   -1.0940   -8.9764    7.1627 C   0  0  0  0  0  0  0  0  0  0  0  0
   -0.8452   -7.6882    6.6427 C   0  0  0  0  0  0  0  0  0  0  0  0
    0.2280   -6.8234    7.1699 C   0  0  0  0  0  0  0  0  0  0  0  0
    0.2544   -6.1483    8.7113 S   0  0  0  0  0  0  0  0  0  0  0  0
    1.6929   -5.2963    8.5066 C   0  0  0  0  0  0  0  0  0  0  0  0
    2.3520   -4.4718    9.5733 C   0  0  0  0  0  0  0  0  0  0  0  0
    3.2965   -5.3243   10.4146 C   0  0  0  0  0  0  0  0  0  0  0  0
    2.1856   -5.5486    7.2274 C   0  0  0  0  0  0  0  0  0  0  0  0
    3.6979   -4.8911    6.6146 Cl  0  0  0  0  0  0  0  0  0  0  0  0
    1.3570   -6.3966    6.4741 C   0  0  0  0  0  0  0  0  0  0  0  0
    1.7337   -6.9014    4.8301 Cl  0  0  0  0  0  0  0  0  0  0  0  0
   -1.6705   -7.2597    5.5902 C   0  0  0  0  0  0  0  0  0  0  0  0
   -2.6639   -8.0720    5.0308 C   0  0  0  0  0  0  0  0  0  0  0  0
   -2.9016   -9.3613    5.5407 C   0  0  0  0  0  0  0  0  0  0  0  0
   -3.9953  -10.2013    5.0335 C   0  0  0  0  0  0  0  0  0  0  0  0
   -3.8852  -11.2147    3.7001 S   0  0  0  0  0  0  0  0  0  0  0  0
   -5.4655  -11.7937    3.7987 C   0  0  0  0  0  0  0  0  0  0  0  0
   -6.0771  -12.7787    2.8450 C   0  0  0  0  0  0  0  0  0  0  0  0
   -6.8859  -12.0618    1.7718 C   0  0  0  0  0  0  0  0  0  0  0  0
   -6.1034  -11.1790    4.8744 C   0  0  0  0  0  0  0  0  0  0  0  0
   -5.2745  -10.2873    5.5687 C   0  0  0  0  0  0  0  0  0  0  0  0
   -5.7919   -9.3625    6.9713 Cl  0  0  0  0  0  0  0  0  0  0  0  0
   -7.7788  -11.4811    5.3216 Cl  0  0  0  0  0  0  0  0  0  0  0  0
   -2.1023   -9.7775    6.6168 C   0  0  0  0  0  0  0  0  0  0  0  0
   -2.1568  -11.2336    7.4541 S   0  0  0  0  0  0  0  0  0  0  0  0
   -3.3832   -7.4380    4.0038 C   0  0  0  0  0  0  0  0  0  0  0  0
   -2.9768   -6.1225    3.8020 C   0  0  0  0  0  0  0  0  0  0  0  0
   -1.7202   -5.7455    4.8631 S   0  0  0  0  0  0  0  0  0  0  0  0
   -3.5847   -5.1740    2.8694 C   0  0  0  0  0  0  0  0  0  0  0  0
   -3.7772   -3.8237    3.1323 C   0  0  0  0  0  0  0  0  0  0  0  0
   -4.3310   -3.1347    2.0461 C   0  0  0  0  0  0  0  0  0  0  0  0
   -4.6190   -1.7575    2.0013 C   0  0  0  0  0  0  0  0  0  0  0  0
   -4.4617   -0.8868    3.1839 C   0  0  0  0  0  0  0  0  0  0  0  0
   -3.4204    0.4335    3.2777 S   0  0  0  0  0  0  0  0  0  0  0  0
   -3.8344    0.8756    4.8454 C   0  0  0  0  0  0  0  0  0  0  0  0
   -3.2213    2.0186    5.5991 C   0  0  0  0  0  0  0  0  0  0  0  0
   -2.0962    1.5281    6.5046 C   0  0  0  0  0  0  0  0  0  0  0  0
   -4.7872   -0.0194    5.3266 C   0  0  0  0  0  0  0  0  0  0  0  0
   -5.4815    0.0791    6.9383 Cl  0  0  0  0  0  0  0  0  0  0  0  0
   -5.1446   -1.0036    4.3930 C   0  0  0  0  0  0  0  0  0  0  0  0
   -6.3713   -2.2248    4.7032 Cl  0  0  0  0  0  0  0  0  0  0  0  0
   -5.0190   -1.2377    0.7617 C   0  0  0  0  0  0  0  0  0  0  0  0
   -5.1365   -2.0223   -0.3920 C   0  0  0  0  0  0  0  0  0  0  0  0
   -4.9207   -3.4147   -0.3258 C   0  0  0  0  0  0  0  0  0  0  0  0
   -5.0564   -4.2817   -1.5062 C   0  0  0  0  0  0  0  0  0  0  0  0
   -4.0185   -4.2699   -2.8282 S   0  0  0  0  0  0  0  0  0  0  0  0
   -4.7820   -5.5157   -3.6655 C   0  0  0  0  0  0  0  0  0  0  0  0
   -4.2920   -6.1004   -4.9557 C   0  0  0  0  0  0  0  0  0  0  0  0
   -3.4003   -7.3114   -4.6966 C   0  0  0  0  0  0  0  0  0  0  0  0
   -5.8583   -5.9693   -2.9018 C   0  0  0  0  0  0  0  0  0  0  0  0
   -6.0131   -5.2734   -1.6936 C   0  0  0  0  0  0  0  0  0  0  0  0
   -7.2925   -5.6151   -0.5342 Cl  0  0  0  0  0  0  0  0  0  0  0  0
   -6.9074   -7.2935   -3.3905 Cl  0  0  0  0  0  0  0  0  0  0  0  0
   -4.5204   -3.9387    0.9163 C   0  0  0  0  0  0  0  0  0  0  0  0
   -4.0615   -5.5181    1.2874 S   0  0  0  0  0  0  0  0  0  0  0  0
   -5.4326   -1.2699   -1.5446 C   0  0  0  0  0  0  0  0  0  0  0  0
   -5.5803    0.0879   -1.2685 C   0  0  0  0  0  0  0  0  0  0  0  0
   -5.3340    0.3613    0.3764 S   0  0  0  0  0  0  0  0  0  0  0  0
   -5.6824    1.1717   -2.2445 C   0  0  0  0  0  0  0  0  0  0  0  0
   -4.7647    1.3941   -3.2699 C   0  0  0  0  0  0  0  0  0  0  0  0
   -4.7933    2.7157   -3.7497 C   0  0  0  0  0  0  0  0  0  0  0  0
   -3.8942    3.2889   -4.6790 C   0  0  0  0  0  0  0  0  0  0  0  0
   -2.9189    2.4736   -5.4402 C   0  0  0  0  0  0  0  0  0  0  0  0
   -1.2699    2.7951   -5.5652 S   0  0  0  0  0  0  0  0  0  0  0  0
   -0.9137    1.5580   -6.6466 C   0  0  0  0  0  0  0  0  0  0  0  0
    0.4230    1.3604   -7.2948 C   0  0  0  0  0  0  0  0  0  0  0  0
    0.5094    2.1413   -8.6011 C   0  0  0  0  0  0  0  0  0  0  0  0
   -2.0929    0.8806   -6.9456 C   0  0  0  0  0  0  0  0  0  0  0  0
   -2.1784   -0.4471   -8.0966 Cl  0  0  0  0  0  0  0  0  0  0  0  0
   -3.2158    1.3899   -6.2687 C   0  0  0  0  0  0  0  0  0  0  0  0
   -4.8485    0.7937   -6.5501 Cl  0  0  0  0  0  0  0  0  0  0  0  0
   -3.9544    4.6895   -4.8329 C   0  0  0  0  0  0  0  0  0  0  0  0
   -4.8963    5.4828   -4.1654 C   0  0  0  0  0  0  0  0  0  0  0  0
   -5.8240    4.9019   -3.2829 C   0  0  0  0  0  0  0  0  0  0  0  0
   -6.7845    5.7203   -2.5216 C   0  0  0  0  0  0  0  0  0  0  0  0
   -8.0723    6.5587   -3.2042 S   0  0  0  0  0  0  0  0  0  0  0  0
   -8.6591    7.1907   -1.7555 C   0  0  0  0  0  0  0  0  0  0  0  0
   -9.8674    8.0735   -1.6446 C   0  0  0  0  0  0  0  0  0  0  0  0
  -11.1459    7.2869   -1.9192 C   0  0  0  0  0  0  0  0  0  0  0  0
   -7.8421    6.7511   -0.7133 C   0  0  0  0  0  0  0  0  0  0  0  0
   -6.7847    5.9375   -1.1454 C   0  0  0  0  0  0  0  0  0  0  0  0
   -5.5484    5.3129   -0.0600 Cl  0  0  0  0  0  0  0  0  0  0  0  0
   -8.0990    7.1722    0.9739 Cl  0  0  0  0  0  0  0  0  0  0  0  0
   -5.7330    3.5162   -3.0894 C   0  0  0  0  0  0  0  0  0  0  0  0
   -6.5284    2.5935   -1.9380 S   0  0  0  0  0  0  0  0  0  0  0  0
   -4.7046    6.8617   -4.3578 C   0  0  0  0  0  0  0  0  0  0  0  0
   -3.6198    7.1611   -5.1773 C   0  0  0  0  0  0  0  0  0  0  0  0
   -2.8839    5.7097   -5.6326 S   0  0  0  0  0  0  0  0  0  0  0  0
   -2.9335    8.4187   -5.0925 N   0  0  0  0  0  0  0  0  0  0  0  0
   -2.1507    9.0529   -6.1643 C   0  0  2  0  0  0  0  0  0  0  0  0
   -2.4235    8.4877   -7.5794 C   0  0  0  0  0  0  0  0  0  0  0  0
   -1.3944    9.0406   -8.5907 C   0  0  2  0  0  0  0  0  0  0  0  0
   -1.6015    8.4640   -9.9191 N   0  0  0  0  0  0  0  0  0  0  0  0
   -0.0095    8.3735  -10.6784 S   0  0  0  0  0  0  0  0  0  0  0  0
    0.7487    7.9699   -9.1408 N   0  0  0  0  0  0  0  0  0  0  0  0
    0.0731    8.8010   -8.1449 C   0  0  2  0  0  0  0  0  0  0  0  0
    0.2129    8.2032   -6.7255 C   0  0  0  0  0  0  0  0  0  0  0  0
   -0.6531    9.0028   -5.7284 C   0  0  2  0  0  0  0  0  0  0  0  0
   -0.6385    8.4648   -4.3627 N   0  0  0  0  0  0  0  0  0  0  0  0
   -2.1735    8.7546   -3.5467 S   0  0  0  0  0  0  0  0  0  0  0  0
    0.2897    7.4702   -3.8971 C   0  0  0  0  0  0  0  0  0  0  0  0
   -0.1376    6.3519   -3.2959 C   0  0  0  0  0  0  0  0  0  0  0  0
    0.7736    5.3035   -2.8089 C   0  0  0  0  0  0  0  0  0  0  0  0
    2.1294    5.4435   -2.5015 C   0  0  0  0  0  0  0  0  0  0  0  0
    2.6933    4.2677   -1.9767 C   0  0  0  0  0  0  0  0  0  0  0  0
    4.0158    4.1113   -1.5087 C   0  0  0  0  0  0  0  0  0  0  0  0
    4.9981    5.2080   -1.5947 C   0  0  0  0  0  0  0  0  0  0  0  0
    5.5690    5.8653   -3.0343 S   0  0  0  0  0  0  0  0  0  0  0  0
    6.5386    7.0403   -2.3217 C   0  0  0  0  0  0  0  0  0  0  0  0
    7.4002    8.0062   -3.0768 C   0  0  0  0  0  0  0  0  0  0  0  0
    8.8332    7.4932   -3.1717 C   0  0  0  0  0  0  0  0  0  0  0  0
    6.4338    6.9242   -0.9356 C   0  0  0  0  0  0  0  0  0  0  0  0
    7.2830    7.9701    0.1934 Cl  0  0  0  0  0  0  0  0  0  0  0  0
    5.5667    5.8992   -0.5299 C   0  0  0  0  0  0  0  0  0  0  0  0
    5.1969    5.5575    1.1565 Cl  0  0  0  0  0  0  0  0  0  0  0  0
    4.3558    2.8588   -0.9655 C   0  0  0  0  0  0  0  0  0  0  0  0
    3.4503    1.7935   -0.9085 C   0  0  0  0  0  0  0  0  0  0  0  0
    2.1243    1.9577   -1.3567 C   0  0  0  0  0  0  0  0  0  0  0  0
    1.1254    0.8828   -1.2285 C   0  0  0  0  0  0  0  0  0  0  0  0
    0.4823    0.3448    0.2284 S   0  0  0  0  0  0  0  0  0  0  0  0
   -0.5546   -0.7954   -0.4485 C   0  0  0  0  0  0  0  0  0  0  0  0
   -1.4356   -1.7174    0.3354 C   0  0  0  0  0  0  0  0  0  0  0  0
   -0.7514   -3.0558    0.5813 C   0  0  0  0  0  0  0  0  0  0  0  0
   -0.3984   -0.7749   -1.8327 C   0  0  0  0  0  0  0  0  0  0  0  0
    0.5460    0.1665   -2.2689 C   0  0  0  0  0  0  0  0  0  0  0  0
    1.0106    0.3644   -3.9509 Cl  0  0  0  0  0  0  0  0  0  0  0  0
   -1.2882   -1.8212   -2.9299 Cl  0  0  0  0  0  0  0  0  0  0  0  0
    1.7816    3.2126   -1.8827 C   0  0  0  0  0  0  0  0  0  0  0  0
    0.2760    3.7388   -2.4175 S   0  0  0  0  0  0  0  0  0  0  0  0
    4.0108    0.6158   -0.3911 C   0  0  0  0  0  0  0  0  0  0  0  0
    5.3379    0.7783   -0.0093 C   0  0  0  0  0  0  0  0  0  0  0  0
    5.8357    2.3582   -0.3353 S   0  0  0  0  0  0  0  0  0  0  0  0
    6.1858   -0.2721    0.5584 C   0  0  0  0  0  0  0  0  0  0  0  0
    6.3361   -1.5551    0.0367 C   0  0  0  0  0  0  0  0  0  0  0  0
    7.2157   -2.3494    0.7928 C   0  0  0  0  0  0  0  0  0  0  0  0
    7.6362   -3.6599    0.4845 C   0  0  0  0  0  0  0  0  0  0  0  0
    7.1975   -4.3523   -0.7412 C   0  0  0  0  0  0  0  0  0  0  0  0
    5.6032   -4.7410   -1.1196 S   0  0  0  0  0  0  0  0  0  0  0  0
    5.9347   -5.4142   -2.6256 C   0  0  0  0  0  0  0  0  0  0  0  0
    4.8929   -5.8865   -3.5920 C   0  0  0  0  0  0  0  0  0  0  0  0
    4.4847   -4.7565   -4.5322 C   0  0  0  0  0  0  0  0  0  0  0  0
    7.3059   -5.3258   -2.8621 C   0  0  0  0  0  0  0  0  0  0  0  0
    8.0737   -5.8669   -4.3471 Cl  0  0  0  0  0  0  0  0  0  0  0  0
    8.0139   -4.7322   -1.8071 C   0  0  0  0  0  0  0  0  0  0  0  0
    9.7472   -4.4231   -1.8653 Cl  0  0  0  0  0  0  0  0  0  0  0  0
    8.5409   -4.2612    1.3774 C   0  0  0  0  0  0  0  0  0  0  0  0
    9.0246   -3.6114    2.5158 C   0  0  0  0  0  0  0  0  0  0  0  0
    8.6247   -2.2902    2.8093 C   0  0  0  0  0  0  0  0  0  0  0  0
    9.1042   -1.5686    4.0052 C   0  0  0  0  0  0  0  0  0  0  0  0
    8.1121   -1.0233    5.2495 S   0  0  0  0  0  0  0  0  0  0  0  0
    9.3361   -0.3184    6.1614 C   0  0  0  0  0  0  0  0  0  0  0  0
    9.1343    0.3419    7.4929 C   0  0  0  0  0  0  0  0  0  0  0  0
    9.1643   -0.6909    8.6155 C   0  0  0  0  0  0  0  0  0  0  0  0
   10.5506   -0.5123    5.5041 C   0  0  0  0  0  0  0  0  0  0  0  0
   10.4176   -1.2029    4.2875 C   0  0  0  0  0  0  0  0  0  0  0  0
   11.7673   -1.5287    3.2093 Cl  0  0  0  0  0  0  0  0  0  0  0  0
   12.0936    0.0585    6.1240 Cl  0  0  0  0  0  0  0  0  0  0  0  0
    7.7217   -1.6867    1.9185 C   0  0  0  0  0  0  0  0  0  0  0  0
    7.1228   -0.1117    1.9529 S   0  0  0  0  0  0  0  0  0  0  0  0
    9.8888   -4.4119    3.2817 C   0  0  0  0  0  0  0  0  0  0  0  0
   10.0863   -5.6782    2.7409 C   0  0  0  0  0  0  0  0  0  0  0  0
    9.1819   -5.8155    1.3237 S   0  0  0  0  0  0  0  0  0  0  0  0
   -0.5305  -11.5163    9.2973 H   0  0  0  0  0  0  0  0  0  0  0  0
    0.3980   -9.1418    8.7781 H   0  0  0  0  0  0  0  0  0  0  0  0
    2.9214   -3.6397    9.1108 H   0  0  0  0  0  0  0  0  0  0  0  0
    1.5725   -4.0262   10.2236 H   0  0  0  0  0  0  0  0  0  0  0  0
    4.1172   -5.7323    9.7837 H   0  0  0  0  0  0  0  0  0  0  0  0
    2.7439   -6.1627   10.8874 H   0  0  0  0  0  0  0  0  0  0  0  0
    3.7423   -4.6959   11.2146 H   0  0  0  0  0  0  0  0  0  0  0  0
   -5.2744  -13.3727    2.3599 H   0  0  0  0  0  0  0  0  0  0  0  0
   -6.7321  -13.4823    3.4037 H   0  0  0  0  0  0  0  0  0  0  0  0
   -7.3160  -12.8095    1.0738 H   0  0  0  0  0  0  0  0  0  0  0  0
   -7.7166  -11.4804    2.2283 H   0  0  0  0  0  0  0  0  0  0  0  0
   -6.2321  -11.3728    1.1928 H   0  0  0  0  0  0  0  0  0  0  0  0
   -4.1998   -7.8976    3.4612 H   0  0  0  0  0  0  0  0  0  0  0  0
   -3.5127   -3.3601    4.0742 H   0  0  0  0  0  0  0  0  0  0  0  0
   -2.8116    2.7602    4.8815 H   0  0  0  0  0  0  0  0  0  0  0  0
   -3.9970    2.5280    6.2086 H   0  0  0  0  0  0  0  0  0  0  0  0
   -2.4898    0.8175    7.2630 H   0  0  0  0  0  0  0  0  0  0  0  0
   -1.6443    2.3954    7.0321 H   0  0  0  0  0  0  0  0  0  0  0  0
   -1.3075    1.0258    5.9049 H   0  0  0  0  0  0  0  0  0  0  0  0
   -3.7094   -5.3359   -5.5103 H   0  0  0  0  0  0  0  0  0  0  0  0
   -5.1559   -6.4009   -5.5866 H   0  0  0  0  0  0  0  0  0  0  0  0
   -3.9634   -8.1049   -4.1598 H   0  0  0  0  0  0  0  0  0  0  0  0
   -2.5173   -7.0143   -4.0922 H   0  0  0  0  0  0  0  0  0  0  0  0
   -3.0461   -7.7250   -5.6629 H   0  0  0  0  0  0  0  0  0  0  0  0
   -5.5141   -1.6857   -2.5396 H   0  0  0  0  0  0  0  0  0  0  0  0
   -4.0229    0.6612   -3.5636 H   0  0  0  0  0  0  0  0  0  0  0  0
    0.5926    0.2806   -7.4899 H   0  0  0  0  0  0  0  0  0  0  0  0
    1.2211    1.7154   -6.6089 H   0  0  0  0  0  0  0  0  0  0  0  0
   -0.2808    1.8079   -9.3072 H   0  0  0  0  0  0  0  0  0  0  0  0
    1.5011    1.9697   -9.0702 H   0  0  0  0  0  0  0  0  0  0  0  0
    0.3914    3.2293   -8.4073 H   0  0  0  0  0  0  0  0  0  0  0  0
   -9.9315    8.5291   -0.6316 H   0  0  0  0  0  0  0  0  0  0  0  0
   -9.7839    8.8998   -2.3824 H   0  0  0  0  0  0  0  0  0  0  0  0
  -11.1366    6.8859   -2.9548 H   0  0  0  0  0  0  0  0  0  0  0  0
  -11.2481    6.4438   -1.1989 H   0  0  0  0  0  0  0  0  0  0  0  0
  -12.0250    7.9589   -1.8065 H   0  0  0  0  0  0  0  0  0  0  0  0
   -5.2564    7.6224   -3.8229 H   0  0  0  0  0  0  0  0  0  0  0  0
   -2.4505   10.1253   -6.1912 H   0  0  0  0  0  0  0  0  0  0  0  0
   -2.3511    7.3870   -7.5899 H   0  0  0  0  0  0  0  0  0  0  0  0
   -3.4527    8.7633   -7.8989 H   0  0  0  0  0  0  0  0  0  0  0  0
   -1.5615   10.1395   -8.6717 H   0  0  0  0  0  0  0  0  0  0  0  0
   -1.9213    7.4688   -9.8370 H   0  0  0  0  0  0  0  0  0  0  0  0
    0.5231    6.9622   -8.9640 H   0  0  0  0  0  0  0  0  0  0  0  0
    0.5891    9.7856   -8.1354 H   0  0  0  0  0  0  0  0  0  0  0  0
    1.2799    8.2557   -6.4231 H   0  0  0  0  0  0  0  0  0  0  0  0
   -0.0987    7.1325   -6.7204 H   0  0  0  0  0  0  0  0  0  0  0  0
   -0.2508   10.0395   -5.6917 H   0  0  0  0  0  0  0  0  0  0  0  0
    1.3416    7.6124   -4.0947 H   0  0  0  0  0  0  0  0  0  0  0  0
   -1.1988    6.1709   -3.1868 H   0  0  0  0  0  0  0  0  0  0  0  0
    2.6711    6.3744   -2.6054 H   0  0  0  0  0  0  0  0  0  0  0  0
    7.3860    8.9992   -2.5795 H   0  0  0  0  0  0  0  0  0  0  0  0
    6.9963    8.1339   -4.1038 H   0  0  0  0  0  0  0  0  0  0  0  0
    8.8572    6.5059   -3.6813 H   0  0  0  0  0  0  0  0  0  0  0  0
    9.2747    7.3906   -2.1577 H   0  0  0  0  0  0  0  0  0  0  0  0
    9.4492    8.2122   -3.7532 H   0  0  0  0  0  0  0  0  0  0  0  0
   -2.3795   -1.8823   -0.2206 H   0  0  0  0  0  0  0  0  0  0  0  0
   -1.6886   -1.2489    1.3083 H   0  0  0  0  0  0  0  0  0  0  0  0
   -0.5145   -3.5541   -0.3823 H   0  0  0  0  0  0  0  0  0  0  0  0
    0.1837   -2.9108    1.1625 H   0  0  0  0  0  0  0  0  0  0  0  0
   -1.4248   -3.7167    1.1655 H   0  0  0  0  0  0  0  0  0  0  0  0
    3.4718   -0.3178   -0.2860 H   0  0  0  0  0  0  0  0  0  0  0  0
    5.8510   -1.8724   -0.8756 H   0  0  0  0  0  0  0  0  0  0  0  0
    4.0006   -6.2437   -3.0340 H   0  0  0  0  0  0  0  0  0  0  0  0
    5.2874   -6.7389   -4.1841 H   0  0  0  0  0  0  0  0  0  0  0  0
    3.7367   -5.1355   -5.2620 H   0  0  0  0  0  0  0  0  0  0  0  0
    4.0312   -3.9239   -3.9581 H   0  0  0  0  0  0  0  0  0  0  0  0
    5.3682   -4.3797   -5.0894 H   0  0  0  0  0  0  0  0  0  0  0  0
    8.1526    0.8592    7.5016 H   0  0  0  0  0  0  0  0  0  0  0  0
    9.9210    1.1056    7.6699 H   0  0  0  0  0  0  0  0  0  0  0  0
    9.0413   -0.1760    9.5941 H   0  0  0  0  0  0  0  0  0  0  0  0
   10.1355   -1.2366    8.6180 H   0  0  0  0  0  0  0  0  0  0  0  0
    8.3340   -1.4215    8.4944 H   0  0  0  0  0  0  0  0  0  0  0  0
   10.3515   -4.0923    4.2058 H   0  0  0  0  0  0  0  0  0  0  0  0
   10.7165   -6.4500    3.1628 H   0  0  0  0  0  0  0  0  0  0  0  0
  1  2  2  0
  2  3  1  0
  3  4  2  0
  4  5  1  0
  5  6  1  0
  6  7  1  0
  7  8  1  0
  8  9  1  0
  7 10  2  0
 10 11  1  0
 10 12  1  0
 12 13  1  0
  4 14  1  0
 14 15  2  0
 15 16  1  0
 16 17  1  0
 17 18  1  0
 18 19  1  0
 19 20  1  0
 20 21  1  0
 19 22  2  0
 22 23  1  0
 23 24  1  0
 22 25  1  0
 16 26  2  0
 26 27  1  0
 15 28  1  0
 28 29  2  0
 29 30  1  0
 29 31  1  0
 31 32  2  0
 32 33  1  0
 33 34  2  0
 34 35  1  0
 35 36  1  0
 36 37  1  0
 37 38  1  0
 38 39  1  0
 37 40  2  0
 40 41  1  0
 40 42  1  0
 42 43  1  0
 34 44  1  0
 44 45  2  0
 45 46  1  0
 46 47  1  0
 47 48  1  0
 48 49  1  0
 49 50  1  0
 50 51  1  0
 49 52  2  0
 52 53  1  0
 53 54  1  0
 52 55  1  0
 46 56  2  0
 56 57  1  0
 45 58  1  0
 58 59  2  0
 59 60  1  0
 59 61  1  0
 61 62  2  0
 62 63  1  0
 63 64  2  0
 64 65  1  0
 65 66  1  0
 66 67  1  0
 67 68  1  0
 68 69  1  0
 67 70  2  0
 70 71  1  0
 70 72  1  0
 72 73  1  0
 64 74  1  0
 74 75  2  0
 75 76  1  0
 76 77  1  0
 77 78  1  0
 78 79  1  0
 79 80  1  0
 80 81  1  0
 79 82  2  0
 82 83  1  0
 83 84  1  0
 82 85  1  0
 76 86  2  0
 86 87  1  0
 75 88  1  0
 88 89  2  0
 89 90  1  0
 89 91  1  0
 91 92  1  0
 92 93  1  0
 93 94  1  0
 94 95  1  0
 95 96  1  0
 96 97  1  0
 97 98  1  0
 98 99  1  0
 99100  1  0
100101  1  0
101102  1  0
101103  1  0
103104  2  3
104105  1  0
105106  2  0
106107  1  0
107108  2  0
108109  1  0
109110  1  0
110111  1  0
111112  1  0
112113  1  0
111114  2  0
114115  1  0
114116  1  0
116117  1  0
108118  1  0
118119  2  0
119120  1  0
120121  1  0
121122  1  0
122123  1  0
123124  1  0
124125  1  0
123126  2  0
126127  1  0
127128  1  0
126129  1  0
120130  2  0
130131  1  0
119132  1  0
132133  2  0
133134  1  0
133135  1  0
135136  2  0
136137  1  0
137138  2  0
138139  1  0
139140  1  0
140141  1  0
141142  1  0
142143  1  0
141144  2  0
144145  1  0
144146  1  0
146147  1  0
138148  1  0
148149  2  0
149150  1  0
150151  1  0
151152  1  0
152153  1  0
153154  1  0
154155  1  0
153156  2  0
156157  1  0
157158  1  0
156159  1  0
150160  2  0
160161  1  0
149162  1  0
162163  2  0
163164  1  0
 27  1  1  0
 57 31  1  0
 87 61  1  0
102 91  1  0
131105  1  0
161135  1  0
 26  3  1  0
 56 33  1  0
 86 63  1  0
100 92  1  0
130107  1  0
160137  1  0
 12  5  2  0
 30 14  1  0
 42 35  2  0
 60 44  1  0
 72 65  2  0
 90 74  1  0
 98 94  1  0
116109  2  0
134118  1  0
146139  2  0
164148  1  0
 23 17  2  0
 53 47  2  0
 83 77  2  0
127121  2  0
157151  2  0
  1165  1  0
  2166  1  0
  8167  1  0
  8168  1  0
  9169  1  0
  9170  1  0
  9171  1  0
 20172  1  0
 20173  1  0
 21174  1  0
 21175  1  0
 21176  1  0
 28177  1  0
 32178  1  0
 38179  1  0
 38180  1  0
 39181  1  0
 39182  1  0
 39183  1  0
 50184  1  0
 50185  1  0
 51186  1  0
 51187  1  0
 51188  1  0
 58189  1  0
 62190  1  0
 68191  1  0
 68192  1  0
 69193  1  0
 69194  1  0
 69195  1  0
 80196  1  0
 80197  1  0
 81198  1  0
 81199  1  0
 81200  1  0
 88201  1  0
 92202  1  6
 93203  1  0
 93204  1  0
 94205  1  6
 95206  1  0
 97207  1  0
 98208  1  1
 99209  1  0
 99210  1  0
100211  1  1
103212  1  0
104213  1  0
106214  1  0
112215  1  0
112216  1  0
113217  1  0
113218  1  0
113219  1  0
124220  1  0
124221  1  0
125222  1  0
125223  1  0
125224  1  0
132225  1  0
136226  1  0
142227  1  0
142228  1  0
143229  1  0
143230  1  0
143231  1  0
154232  1  0
154233  1  0
155234  1  0
155235  1  0
155236  1  0
162237  1  0
163238  1  0
M  END

