
     RDKit          3D

 74 86  0  0  0  0  0  0  0  0999 V2000
   13.0409   -1.5414   -2.9453 C   0  0  0  0  0  0  0  0  0  0  0  0
   12.4610   -2.2788   -2.0146 C   0  0  0  0  0  0  0  0  0  0  0  0
   11.6569   -1.5983   -1.0733 C   0  0  0  0  0  0  0  0  0  0  0  0
   11.6426   -0.1752   -1.3378 C   0  0  0  0  0  0  0  0  0  0  0  0
   10.8352    0.6449   -0.8308 O   0  0  0  0  0  0  0  0  0  0  0  0
   12.7887    0.2380   -2.6698 S   0  0  0  0  0  0  0  0  0  0  0  0
   10.8890   -2.4718   -0.4150 C   0  0  0  0  0  0  0  0  0  0  0  0
   11.1692   -3.7765   -0.8573 O   0  0  0  0  0  0  0  0  0  0  0  0
   12.1260   -3.6734   -1.8657 C   0  0  0  0  0  0  0  0  0  0  0  0
   12.5684   -4.6358   -2.5455 O   0  0  0  0  0  0  0  0  0  0  0  0
    9.8684   -2.1578    0.5992 C   0  0  0  0  0  0  0  0  0  0  0  0
    8.7803   -2.8886    0.8081 C   0  0  0  0  0  0  0  0  0  0  0  0
    7.8685   -2.4019    1.7738 C   0  0  0  0  0  0  0  0  0  0  0  0
    8.3337   -1.1619    2.3565 C   0  0  0  0  0  0  0  0  0  0  0  0
    7.6411   -0.3959    3.0746 O   0  0  0  0  0  0  0  0  0  0  0  0
    9.9812   -0.7500    1.7507 S   0  0  0  0  0  0  0  0  0  0  0  0
    6.7349   -3.1078    1.7360 C   0  0  0  0  0  0  0  0  0  0  0  0
    6.8400   -4.1156    0.7633 O   0  0  0  0  0  0  0  0  0  0  0  0
    8.0931   -3.9893    0.1674 C   0  0  0  0  0  0  0  0  0  0  0  0
    8.5059   -4.6909   -0.7919 O   0  0  0  0  0  0  0  0  0  0  0  0
    5.5274   -2.8894    2.5504 C   0  0  0  0  0  0  0  0  0  0  0  0
    4.2956   -3.1480    2.1287 C   0  0  0  0  0  0  0  0  0  0  0  0
    3.2408   -2.7638    2.9895 C   0  0  0  0  0  0  0  0  0  0  0  0
    3.7477   -2.1643    4.2047 C   0  0  0  0  0  0  0  0  0  0  0  0
    3.0514   -1.5488    5.0516 O   0  0  0  0  0  0  0  0  0  0  0  0
    5.5481   -2.2473    4.2544 S   0  0  0  0  0  0  0  0  0  0  0  0
    2.0721   -2.8354    2.3481 C   0  0  0  0  0  0  0  0  0  0  0  0
    2.2789   -3.3054    1.0414 O   0  0  0  0  0  0  0  0  0  0  0  0
    3.6502   -3.4892    0.8787 C   0  0  0  0  0  0  0  0  0  0  0  0
    4.2048   -3.8433   -0.1935 O   0  0  0  0  0  0  0  0  0  0  0  0
    0.7515   -2.4544    2.8755 C   0  0  0  0  0  0  0  0  0  0  0  0
   -0.2490   -2.0231    2.1180 C   0  0  0  0  0  0  0  0  0  0  0  0
   -1.4918   -1.8253    2.7598 C   0  0  0  0  0  0  0  0  0  0  0  0
   -1.4293   -2.1993    4.1545 C   0  0  0  0  0  0  0  0  0  0  0  0
   -2.4189   -2.2830    4.9255 O   0  0  0  0  0  0  0  0  0  0  0  0
    0.2473   -2.6842    4.6113 S   0  0  0  0  0  0  0  0  0  0  0  0
   -2.4145   -1.4395    1.8751 C   0  0  0  0  0  0  0  0  0  0  0  0
   -1.8359   -1.3575    0.5981 O   0  0  0  0  0  0  0  0  0  0  0  0
   -0.4948   -1.7136    0.7260 C   0  0  0  0  0  0  0  0  0  0  0  0
    0.3372   -1.7289   -0.2176 O   0  0  0  0  0  0  0  0  0  0  0  0
   -3.8232   -1.1152    2.1534 C   0  0  0  0  0  0  0  0  0  0  0  0
   -4.7817   -1.1522    1.2337 C   0  0  0  0  0  0  0  0  0  0  0  0
   -5.9772   -0.4703    1.5500 C   0  0  0  0  0  0  0  0  0  0  0  0
   -5.9167    0.1427    2.8544 C   0  0  0  0  0  0  0  0  0  0  0  0
   -6.7704    0.9460    3.3136 O   0  0  0  0  0  0  0  0  0  0  0  0
   -4.3737   -0.2825    3.6816 S   0  0  0  0  0  0  0  0  0  0  0  0
   -6.7425   -0.3444    0.4667 C   0  0  0  0  0  0  0  0  0  0  0  0
   -6.1385   -0.9954   -0.6197 O   0  0  0  0  0  0  0  0  0  0  0  0
   -4.9111   -1.4836   -0.1722 C   0  0  0  0  0  0  0  0  0  0  0  0
   -4.0842   -2.1081   -0.8862 O   0  0  0  0  0  0  0  0  0  0  0  0
   -8.0206    0.3831    0.3906 C   0  0  0  0  0  0  0  0  0  0  0  0
   -9.0502    0.0899    1.2897 C   0  0  0  0  0  0  0  0  0  0  0  0
  -10.4514    0.8951    0.8247 S   0  0  0  0  0  0  0  0  0  0  0  0
   -9.7592    1.6329   -0.5125 C   0  0  0  0  0  0  0  0  0  0  0  0
   -8.4116    1.2943   -0.6293 C   0  0  0  0  0  0  0  0  0  0  0  0
   -7.6227    1.8959   -1.6619 C   0  0  0  0  0  0  0  0  0  0  0  0
   -6.1146    1.7843   -1.6691 C   0  0  0  0  0  0  0  0  0  0  0  0
   -8.2835    2.6816   -2.6657 C   0  0  0  0  0  0  0  0  0  0  0  0
   -7.5297    3.2240   -3.8601 C   0  0  0  0  0  0  0  0  0  0  0  0
   -9.6562    2.9944   -2.4937 C   0  0  0  0  0  0  0  0  0  0  0  0
  -10.3659    2.4763   -1.4223 C   0  0  0  0  0  0  0  0  0  0  0  0
  -11.9526    3.0230   -1.4547 S   0  0  0  0  0  0  0  0  0  0  0  0
  -11.7604    3.9517   -2.8501 C   0  0  0  0  0  0  0  0  0  0  0  0
  -10.4467    3.8351   -3.2997 C   0  0  0  0  0  0  0  0  0  0  0  0
   13.4984   -1.9571   -3.8330 H   0  0  0  0  0  0  0  0  0  0  0  0
   -8.9803   -0.5964    2.1239 H   0  0  0  0  0  0  0  0  0  0  0  0
   -5.7095    1.7191   -0.6401 H   0  0  0  0  0  0  0  0  0  0  0  0
   -5.6445    2.6962   -2.0921 H   0  0  0  0  0  0  0  0  0  0  0  0
   -5.7999    0.9090   -2.2738 H   0  0  0  0  0  0  0  0  0  0  0  0
   -7.1159    4.2260   -3.6177 H   0  0  0  0  0  0  0  0  0  0  0  0
   -6.7061    2.5428   -4.1600 H   0  0  0  0  0  0  0  0  0  0  0  0
   -8.1852    3.3021   -4.7505 H   0  0  0  0  0  0  0  0  0  0  0  0
  -12.5300    4.5513   -3.3174 H   0  0  0  0  0  0  0  0  0  0  0  0
  -10.0899    4.3652   -4.1720 H   0  0  0  0  0  0  0  0  0  0  0  0
  1  2  2  0
  2  3  1  0
  3  4  1  0
  4  5  2  0
  4  6  1  0
  3  7  2  0
  7  8  1  0
  8  9  1  0
  9 10  2  0
  7 11  1  0
 11 12  2  0
 12 13  1  0
 13 14  1  0
 14 15  2  0
 14 16  1  0
 13 17  2  0
 17 18  1  0
 18 19  1  0
 19 20  2  0
 17 21  1  0
 21 22  2  0
 22 23  1  0
 23 24  1  0
 24 25  2  0
 24 26  1  0
 23 27  2  0
 27 28  1  0
 28 29  1  0
 29 30  2  0
 27 31  1  0
 31 32  2  0
 32 33  1  0
 33 34  1  0
 34 35  2  0
 34 36  1  0
 33 37  2  0
 37 38  1  0
 38 39  1  0
 39 40  2  0
 37 41  1  0
 41 42  2  0
 42 43  1  0
 43 44  1  0
 44 45  2  0
 44 46  1  0
 43 47  2  0
 47 48  1  0
 48 49  1  0
 49 50  2  0
 47 51  1  0
 51 52  2  0
 52 53  1  0
 53 54  1  0
 54 55  2  0
 55 56  1  0
 56 57  1  0
 56 58  2  0
 58 59  1  0
 58 60  1  0
 60 61  2  0
 61 62  1  0
 62 63  1  0
 63 64  2  0
  6  1  1  0
 16 11  1  0
 26 21  1  0
 36 31  1  0
 46 41  1  0
 55 51  1  0
 64 60  1  0
  9  2  1  0
 19 12  1  0
 29 22  1  0
 39 32  1  0
 49 42  1  0
 61 54  1  0
  1 65  1  0
 52 66  1  0
 57 67  1  0
 57 68  1  0
 57 69  1  0
 59 70  1  0
 59 71  1  0
 59 72  1  0
 63 73  1  0
 64 74  1  0
M  END

