
     RDKit          3D

226253  0  0  0  0  0  0  0  0999 V2000
    2.7681  -10.5340    9.2907 C   0  0  0  0  0  0  0  0  0  0  0  0
    3.1170   -9.4440    8.4983 C   0  0  0  0  0  0  0  0  0  0  0  0
    2.2462   -9.2490    7.4152 C   0  0  0  0  0  0  0  0  0  0  0  0
    2.3407   -8.2383    6.4392 C   0  0  0  0  0  0  0  0  0  0  0  0
    3.3924   -7.2088    6.4689 C   0  0  0  0  0  0  0  0  0  0  0  0
    3.4199   -5.9095    7.5353 S   0  0  0  0  0  0  0  0  0  0  0  0
    4.7127   -5.1108    6.8115 C   0  0  0  0  0  0  0  0  0  0  0  0
    5.1846   -3.7411    7.1948 C   0  0  0  0  0  0  0  0  0  0  0  0
    4.3762   -2.6746    6.4625 C   0  0  0  0  0  0  0  0  0  0  0  0
    5.1215   -5.8430    5.6988 C   0  0  0  0  0  0  0  0  0  0  0  0
    6.3901   -5.3139    4.5978 Cl  0  0  0  0  0  0  0  0  0  0  0  0
    4.3817   -7.0216    5.5077 C   0  0  0  0  0  0  0  0  0  0  0  0
    4.6628   -8.1315    4.1754 Cl  0  0  0  0  0  0  0  0  0  0  0  0
    1.3552   -8.2297    5.4382 C   0  0  0  0  0  0  0  0  0  0  0  0
    0.3317   -9.1802    5.3721 C   0  0  0  0  0  0  0  0  0  0  0  0
    0.2353  -10.1866    6.3519 C   0  0  0  0  0  0  0  0  0  0  0  0
   -0.8708  -11.1544    6.3615 C   0  0  0  0  0  0  0  0  0  0  0  0
   -1.0233  -12.4518    5.3028 S   0  0  0  0  0  0  0  0  0  0  0  0
   -2.4502  -13.0485    5.9657 C   0  0  0  0  0  0  0  0  0  0  0  0
   -3.1186  -14.3219    5.5391 C   0  0  0  0  0  0  0  0  0  0  0  0
   -2.6259  -15.4948    6.3792 C   0  0  0  0  0  0  0  0  0  0  0  0
   -2.8183  -12.2409    7.0428 C   0  0  0  0  0  0  0  0  0  0  0  0
   -1.9346  -11.1736    7.2586 C   0  0  0  0  0  0  0  0  0  0  0  0
   -2.1545   -9.9728    8.5250 Cl  0  0  0  0  0  0  0  0  0  0  0  0
   -4.2322  -12.5395    8.0455 Cl  0  0  0  0  0  0  0  0  0  0  0  0
    1.2154  -10.1908    7.3601 C   0  0  0  0  0  0  0  0  0  0  0  0
    1.3861  -11.2580    8.6494 S   0  0  0  0  0  0  0  0  0  0  0  0
   -0.5562   -8.9629    4.3036 C   0  0  0  0  0  0  0  0  0  0  0  0
   -0.2353   -7.8241    3.5661 C   0  0  0  0  0  0  0  0  0  0  0  0
    1.1398   -7.0973    4.2169 S   0  0  0  0  0  0  0  0  0  0  0  0
   -0.9933   -7.2787    2.4334 C   0  0  0  0  0  0  0  0  0  0  0  0
   -1.0386   -5.9291    2.0950 C   0  0  0  0  0  0  0  0  0  0  0  0
   -1.7997   -5.6855    0.9468 C   0  0  0  0  0  0  0  0  0  0  0  0
   -2.0460   -4.4253    0.3798 C   0  0  0  0  0  0  0  0  0  0  0  0
   -1.6150   -3.1824    1.0372 C   0  0  0  0  0  0  0  0  0  0  0  0
   -0.0939   -2.4872    0.8986 S   0  0  0  0  0  0  0  0  0  0  0  0
   -0.3841   -1.2118    1.9608 C   0  0  0  0  0  0  0  0  0  0  0  0
    0.5988   -0.1277    2.2897 C   0  0  0  0  0  0  0  0  0  0  0  0
    0.6266    0.9396    1.1999 C   0  0  0  0  0  0  0  0  0  0  0  0
   -1.6913   -1.3175    2.4351 C   0  0  0  0  0  0  0  0  0  0  0  0
   -2.4036   -0.2054    3.5965 Cl  0  0  0  0  0  0  0  0  0  0  0  0
   -2.3808   -2.4239    1.9158 C   0  0  0  0  0  0  0  0  0  0  0  0
   -4.0407   -2.8225    2.3342 Cl  0  0  0  0  0  0  0  0  0  0  0  0
   -2.8034   -4.3978   -0.7975 C   0  0  0  0  0  0  0  0  0  0  0  0
   -3.3066   -5.5546   -1.4043 C   0  0  0  0  0  0  0  0  0  0  0  0
   -3.0932   -6.8168   -0.8125 C   0  0  0  0  0  0  0  0  0  0  0  0
   -3.6270   -8.0553   -1.4008 C   0  0  0  0  0  0  0  0  0  0  0  0
   -3.0639   -8.7644   -2.8182 S   0  0  0  0  0  0  0  0  0  0  0  0
   -4.0841  -10.1007   -2.7658 C   0  0  0  0  0  0  0  0  0  0  0  0
   -4.1117  -11.1950   -3.7893 C   0  0  0  0  0  0  0  0  0  0  0  0
   -5.1497  -10.9043   -4.8673 C   0  0  0  0  0  0  0  0  0  0  0  0
   -4.9037   -9.9939   -1.6416 C   0  0  0  0  0  0  0  0  0  0  0  0
   -4.6386   -8.8521   -0.8696 C   0  0  0  0  0  0  0  0  0  0  0  0
   -5.5230   -8.4458    0.5959 Cl  0  0  0  0  0  0  0  0  0  0  0  0
   -6.1439  -11.1701   -1.2283 Cl  0  0  0  0  0  0  0  0  0  0  0  0
   -2.3339   -6.8448    0.3735 C   0  0  0  0  0  0  0  0  0  0  0  0
   -1.8841   -8.1752    1.3096 S   0  0  0  0  0  0  0  0  0  0  0  0
   -4.0331   -5.2873   -2.5800 C   0  0  0  0  0  0  0  0  0  0  0  0
   -4.0887   -3.9244   -2.8639 C   0  0  0  0  0  0  0  0  0  0  0  0
   -3.2597   -3.0523   -1.6859 S   0  0  0  0  0  0  0  0  0  0  0  0
   -4.7648   -3.2828   -3.9870 C   0  0  0  0  0  0  0  0  0  0  0  0
   -5.8387   -2.4196   -3.7959 C   0  0  0  0  0  0  0  0  0  0  0  0
   -5.9493   -1.4427   -4.7974 C   0  0  0  0  0  0  0  0  0  0  0  0
   -6.8029   -0.3273   -4.7563 C   0  0  0  0  0  0  0  0  0  0  0  0
   -7.7826   -0.1478   -3.6746 C   0  0  0  0  0  0  0  0  0  0  0  0
   -9.4310   -0.4444   -3.8109 S   0  0  0  0  0  0  0  0  0  0  0  0
   -9.8010   -0.1131   -2.2012 C   0  0  0  0  0  0  0  0  0  0  0  0
  -11.1825   -0.1613   -1.6205 C   0  0  0  0  0  0  0  0  0  0  0  0
  -11.8676    1.1920   -1.7454 C   0  0  0  0  0  0  0  0  0  0  0  0
   -8.6293    0.2575   -1.5390 C   0  0  0  0  0  0  0  0  0  0  0  0
   -8.5703    0.7126    0.1584 Cl  0  0  0  0  0  0  0  0  0  0  0  0
   -7.4972    0.2203   -2.3644 C   0  0  0  0  0  0  0  0  0  0  0  0
   -5.8704    0.5718   -1.8014 Cl  0  0  0  0  0  0  0  0  0  0  0  0
   -6.5762    0.6825   -5.7015 C   0  0  0  0  0  0  0  0  0  0  0  0
   -5.5836    0.5906   -6.6842 C   0  0  0  0  0  0  0  0  0  0  0  0
   -4.7771   -0.5680   -6.7761 C   0  0  0  0  0  0  0  0  0  0  0  0
   -3.6908   -0.6981   -7.7647 C   0  0  0  0  0  0  0  0  0  0  0  0
   -2.3669    0.3356   -7.8999 S   0  0  0  0  0  0  0  0  0  0  0  0
   -1.6019   -0.5092   -9.1391 C   0  0  0  0  0  0  0  0  0  0  0  0
   -0.2853   -0.1202   -9.7457 C   0  0  0  0  0  0  0  0  0  0  0  0
    0.8653   -0.4372   -8.7961 C   0  0  0  0  0  0  0  0  0  0  0  0
   -2.3625   -1.6355   -9.4469 C   0  0  0  0  0  0  0  0  0  0  0  0
   -3.5331   -1.7400   -8.6795 C   0  0  0  0  0  0  0  0  0  0  0  0
   -4.7080   -3.0315   -8.8887 Cl  0  0  0  0  0  0  0  0  0  0  0  0
   -1.9066   -2.8194  -10.6653 Cl  0  0  0  0  0  0  0  0  0  0  0  0
   -4.9756   -1.5569   -5.7936 C   0  0  0  0  0  0  0  0  0  0  0  0
   -3.9552   -2.8345   -5.3971 S   0  0  0  0  0  0  0  0  0  0  0  0
   -5.4216    1.7831   -7.4147 C   0  0  0  0  0  0  0  0  0  0  0  0
   -6.2395    2.8199   -6.9565 C   0  0  0  0  0  0  0  0  0  0  0  0
   -7.2104    2.2367   -5.7028 S   0  0  0  0  0  0  0  0  0  0  0  0
   -6.0474    4.2539   -7.2406 C   0  0  0  0  0  0  0  0  0  0  0  0
   -6.5070    5.4737   -6.1585 S   0  0  0  0  0  0  0  0  0  0  0  0
   -5.1358    4.7904   -8.1608 C   0  0  0  0  0  0  0  0  0  0  0  0
   -4.9129    6.1585   -7.9431 C   0  0  0  0  0  0  0  0  0  0  0  0
   -3.6697    6.9257   -8.1432 C   0  0  0  0  0  0  0  0  0  0  0  0
   -2.3254    6.3067   -8.8473 S   0  0  0  0  0  0  0  0  0  0  0  0
   -5.6210    6.6906   -6.8928 C   0  0  0  0  0  0  0  0  0  0  0  0
   -4.8142    7.7266   -6.2736 C   0  0  0  0  0  0  0  0  0  0  0  0
   -4.4809    7.9501   -4.6465 S   0  0  0  0  0  0  0  0  0  0  0  0
   -3.6426    7.8419   -6.9873 C   0  0  0  0  0  0  0  0  0  0  0  0
   -2.5322    8.2165   -6.2204 C   0  0  0  0  0  0  0  0  0  0  0  0
   -2.8450    8.3367   -4.8648 C   0  0  0  0  0  0  0  0  0  0  0  0
   -1.8440    8.3272   -3.7903 C   0  0  0  0  0  0  0  0  0  0  0  0
   -1.9625    7.6016   -2.6059 C   0  0  0  0  0  0  0  0  0  0  0  0
   -0.7534    7.4973   -1.8982 C   0  0  0  0  0  0  0  0  0  0  0  0
   -0.5239    6.7170   -0.7491 C   0  0  0  0  0  0  0  0  0  0  0  0
   -1.5886    5.9104   -0.1315 C   0  0  0  0  0  0  0  0  0  0  0  0
   -2.3674    4.6150   -0.8685 S   0  0  0  0  0  0  0  0  0  0  0  0
   -3.3870    4.2673    0.4224 C   0  0  0  0  0  0  0  0  0  0  0  0
   -4.3721    3.1390    0.4474 C   0  0  0  0  0  0  0  0  0  0  0  0
   -3.7416    1.8903    1.0532 C   0  0  0  0  0  0  0  0  0  0  0  0
   -3.1104    5.1502    1.4638 C   0  0  0  0  0  0  0  0  0  0  0  0
   -3.9390    5.1162    3.0153 Cl  0  0  0  0  0  0  0  0  0  0  0  0
   -2.1028    6.0743    1.1534 C   0  0  0  0  0  0  0  0  0  0  0  0
   -1.5679    7.3334    2.2567 Cl  0  0  0  0  0  0  0  0  0  0  0  0
    0.7946    6.6664   -0.2668 C   0  0  0  0  0  0  0  0  0  0  0  0
    1.8408    7.3886   -0.8545 C   0  0  0  0  0  0  0  0  0  0  0  0
    1.6074    8.1782   -1.9983 C   0  0  0  0  0  0  0  0  0  0  0  0
    2.7024    8.8596   -2.7011 C   0  0  0  0  0  0  0  0  0  0  0  0
    3.4847   10.2410   -2.1505 S   0  0  0  0  0  0  0  0  0  0  0  0
    4.5480   10.3712   -3.4488 C   0  0  0  0  0  0  0  0  0  0  0  0
    5.5367   11.4832   -3.6357 C   0  0  0  0  0  0  0  0  0  0  0  0
    4.9272   12.6162   -4.4534 C   0  0  0  0  0  0  0  0  0  0  0  0
    4.2910    9.3321   -4.3435 C   0  0  0  0  0  0  0  0  0  0  0  0
    3.2609    8.4798   -3.9178 C   0  0  0  0  0  0  0  0  0  0  0  0
    2.7459    7.0576   -4.8159 Cl  0  0  0  0  0  0  0  0  0  0  0  0
    5.1625    9.1096   -5.8541 Cl  0  0  0  0  0  0  0  0  0  0  0  0
    0.2968    8.1928   -2.5064 C   0  0  0  0  0  0  0  0  0  0  0  0
   -0.2565    8.8834   -3.9370 S   0  0  0  0  0  0  0  0  0  0  0  0
    3.0928    7.1110   -0.2808 C   0  0  0  0  0  0  0  0  0  0  0  0
    3.0226    6.1381    0.7136 C   0  0  0  0  0  0  0  0  0  0  0  0
    1.4230    5.6409    0.9094 S   0  0  0  0  0  0  0  0  0  0  0  0
    4.1821    5.4746    1.3194 C   0  0  0  0  0  0  0  0  0  0  0  0
    4.3228    4.0972    1.4647 C   0  0  0  0  0  0  0  0  0  0  0  0
    5.5963    3.7253    1.9266 C   0  0  0  0  0  0  0  0  0  0  0  0
    6.0656    2.4073    2.1088 C   0  0  0  0  0  0  0  0  0  0  0  0
    5.2732    1.2327    1.6926 C   0  0  0  0  0  0  0  0  0  0  0  0
    4.7233    0.9669    0.1239 S   0  0  0  0  0  0  0  0  0  0  0  0
    4.0630   -0.5497    0.4146 C   0  0  0  0  0  0  0  0  0  0  0  0
    3.4108   -1.4073   -0.6291 C   0  0  0  0  0  0  0  0  0  0  0  0
    4.4311   -2.3232   -1.2916 C   0  0  0  0  0  0  0  0  0  0  0  0
    4.2907   -0.8896    1.7464 C   0  0  0  0  0  0  0  0  0  0  0  0
    3.8239   -2.4337    2.4464 Cl  0  0  0  0  0  0  0  0  0  0  0  0
    4.9509    0.1187    2.4684 C   0  0  0  0  0  0  0  0  0  0  0  0
    5.2748    0.0059    4.1926 Cl  0  0  0  0  0  0  0  0  0  0  0  0
    7.3846    2.2679    2.5781 C   0  0  0  0  0  0  0  0  0  0  0  0
    8.2041    3.3639    2.8716 C   0  0  0  0  0  0  0  0  0  0  0  0
    7.7292    4.6797    2.6984 C   0  0  0  0  0  0  0  0  0  0  0  0
    8.5530    5.8541    3.0359 C   0  0  0  0  0  0  0  0  0  0  0  0
    9.0140    7.0549    1.9512 S   0  0  0  0  0  0  0  0  0  0  0  0
    9.8882    7.9726    3.0575 C   0  0  0  0  0  0  0  0  0  0  0  0
   10.5261    9.2937    2.7559 C   0  0  0  0  0  0  0  0  0  0  0  0
    9.5978   10.4374    3.1460 C   0  0  0  0  0  0  0  0  0  0  0  0
    9.8089    7.3596    4.3072 C   0  0  0  0  0  0  0  0  0  0  0  0
    9.0615    6.1726    4.2953 C   0  0  0  0  0  0  0  0  0  0  0  0
    8.7335    5.2288    5.7426 Cl  0  0  0  0  0  0  0  0  0  0  0  0
   10.5535    8.0147    5.7603 Cl  0  0  0  0  0  0  0  0  0  0  0  0
    6.4259    4.8220    2.1934 C   0  0  0  0  0  0  0  0  0  0  0  0
    5.6082    6.2395    1.7952 S   0  0  0  0  0  0  0  0  0  0  0  0
    9.5016    2.9927    3.2616 C   0  0  0  0  0  0  0  0  0  0  0  0
    9.6994    1.6165    3.2776 C   0  0  0  0  0  0  0  0  0  0  0  0
    8.2768    0.8546    2.7897 S   0  0  0  0  0  0  0  0  0  0  0  0
    3.3020  -10.8610   10.1734 H   0  0  0  0  0  0  0  0  0  0  0  0
    3.9758   -8.8184    8.7045 H   0  0  0  0  0  0  0  0  0  0  0  0
    5.0683   -3.5997    8.2877 H   0  0  0  0  0  0  0  0  0  0  0  0
    6.2610   -3.6253    6.9449 H   0  0  0  0  0  0  0  0  0  0  0  0
    4.4629   -2.8161    5.3647 H   0  0  0  0  0  0  0  0  0  0  0  0
    3.3057   -2.7386    6.7518 H   0  0  0  0  0  0  0  0  0  0  0  0
    4.7584   -1.6683    6.7265 H   0  0  0  0  0  0  0  0  0  0  0  0
   -4.2212  -14.2252    5.6435 H   0  0  0  0  0  0  0  0  0  0  0  0
   -2.8909  -14.5177    4.4697 H   0  0  0  0  0  0  0  0  0  0  0  0
   -2.8858  -15.3372    7.4475 H   0  0  0  0  0  0  0  0  0  0  0  0
   -3.1088  -16.4293    6.0305 H   0  0  0  0  0  0  0  0  0  0  0  0
   -1.5253  -15.6024    6.2835 H   0  0  0  0  0  0  0  0  0  0  0  0
   -1.4188   -9.5815    4.0976 H   0  0  0  0  0  0  0  0  0  0  0  0
   -0.5444   -5.1537    2.6676 H   0  0  0  0  0  0  0  0  0  0  0  0
    1.6066   -0.5704    2.3933 H   0  0  0  0  0  0  0  0  0  0  0  0
    0.3428    0.3461    3.2611 H   0  0  0  0  0  0  0  0  0  0  0  0
    1.3375    1.7426    1.4857 H   0  0  0  0  0  0  0  0  0  0  0  0
   -0.3819    1.3845    1.0691 H   0  0  0  0  0  0  0  0  0  0  0  0
    0.9632    0.4973    0.2385 H   0  0  0  0  0  0  0  0  0  0  0  0
   -4.3487  -12.1644   -3.2988 H   0  0  0  0  0  0  0  0  0  0  0  0
   -3.1106  -11.2910   -4.2583 H   0  0  0  0  0  0  0  0  0  0  0  0
   -5.1461  -11.7254   -5.6138 H   0  0  0  0  0  0  0  0  0  0  0  0
   -6.1634  -10.8396   -4.4165 H   0  0  0  0  0  0  0  0  0  0  0  0
   -4.9142   -9.9485   -5.3827 H   0  0  0  0  0  0  0  0  0  0  0  0
   -4.5058   -6.0450   -3.1924 H   0  0  0  0  0  0  0  0  0  0  0  0
   -6.4242   -2.4132   -2.8855 H   0  0  0  0  0  0  0  0  0  0  0  0
  -11.1360   -0.4586   -0.5514 H   0  0  0  0  0  0  0  0  0  0  0  0
  -11.7784   -0.9276   -2.1594 H   0  0  0  0  0  0  0  0  0  0  0  0
  -12.9077    1.1227   -1.3541 H   0  0  0  0  0  0  0  0  0  0  0  0
  -11.3185    1.9588   -1.1575 H   0  0  0  0  0  0  0  0  0  0  0  0
  -11.9104    1.5061   -2.8098 H   0  0  0  0  0  0  0  0  0  0  0  0
   -0.2927    0.9687   -9.9633 H   0  0  0  0  0  0  0  0  0  0  0  0
   -0.1278   -0.6583  -10.7054 H   0  0  0  0  0  0  0  0  0  0  0  0
    0.8673   -1.5196   -8.5410 H   0  0  0  0  0  0  0  0  0  0  0  0
    0.7720    0.1576   -7.8624 H   0  0  0  0  0  0  0  0  0  0  0  0
    1.8311   -0.1841   -9.2819 H   0  0  0  0  0  0  0  0  0  0  0  0
   -4.6690    1.9219   -8.1757 H   0  0  0  0  0  0  0  0  0  0  0  0
   -4.5270    4.1936   -8.8250 H   0  0  0  0  0  0  0  0  0  0  0  0
   -1.5164    8.1806   -6.5920 H   0  0  0  0  0  0  0  0  0  0  0  0
   -2.8725    7.0962   -2.3132 H   0  0  0  0  0  0  0  0  0  0  0  0
   -5.2679    3.4291    1.0351 H   0  0  0  0  0  0  0  0  0  0  0  0
   -4.6983    2.9202   -0.5879 H   0  0  0  0  0  0  0  0  0  0  0  0
   -3.4253    2.0930    2.0992 H   0  0  0  0  0  0  0  0  0  0  0  0
   -2.8601    1.5759    0.4588 H   0  0  0  0  0  0  0  0  0  0  0  0
   -4.4822    1.0630    1.0583 H   0  0  0  0  0  0  0  0  0  0  0  0
    5.8440   11.8741   -2.6428 H   0  0  0  0  0  0  0  0  0  0  0  0
    6.4455   11.1009   -4.1484 H   0  0  0  0  0  0  0  0  0  0  0  0
    4.0347   13.0276   -3.9398 H   0  0  0  0  0  0  0  0  0  0  0  0
    4.6326   12.2501   -5.4609 H   0  0  0  0  0  0  0  0  0  0  0  0
    5.6752   13.4268   -4.5755 H   0  0  0  0  0  0  0  0  0  0  0  0
    4.0247    7.5264   -0.6378 H   0  0  0  0  0  0  0  0  0  0  0  0
    3.5431    3.3957    1.2056 H   0  0  0  0  0  0  0  0  0  0  0  0
    2.6085   -2.0195   -0.1663 H   0  0  0  0  0  0  0  0  0  0  0  0
    2.9416   -0.7561   -1.3997 H   0  0  0  0  0  0  0  0  0  0  0  0
    3.9307   -2.9343   -2.0703 H   0  0  0  0  0  0  0  0  0  0  0  0
    5.2329   -1.7233   -1.7715 H   0  0  0  0  0  0  0  0  0  0  0  0
    4.8817   -3.0056   -0.5400 H   0  0  0  0  0  0  0  0  0  0  0  0
   11.4859    9.3828    3.3096 H   0  0  0  0  0  0  0  0  0  0  0  0
   10.7501    9.3563    1.6698 H   0  0  0  0  0  0  0  0  0  0  0  0
   10.0779   11.4081    2.8998 H   0  0  0  0  0  0  0  0  0  0  0  0
    9.3893   10.4119    4.2368 H   0  0  0  0  0  0  0  0  0  0  0  0
    8.6385   10.3598    2.5915 H   0  0  0  0  0  0  0  0  0  0  0  0
   10.2867    3.6944    3.5043 H   0  0  0  0  0  0  0  0  0  0  0  0
   10.6211    1.1185    3.5420 H   0  0  0  0  0  0  0  0  0  0  0  0
  1  2  2  0
  2  3  1  0
  3  4  2  0
  4  5  1  0
  5  6  1  0
  6  7  1  0
  7  8  1  0
  8  9  1  0
  7 10  2  0
 10 11  1  0
 10 12  1  0
 12 13  1  0
  4 14  1  0
 14 15  2  0
 15 16  1  0
 16 17  1  0
 17 18  1  0
 18 19  1  0
 19 20  1  0
 20 21  1  0
 19 22  2  0
 22 23  1  0
 23 24  1  0
 22 25  1  0
 16 26  2  0
 26 27  1  0
 15 28  1  0
 28 29  2  0
 29 30  1  0
 29 31  1  0
 31 32  2  0
 32 33  1  0
 33 34  2  0
 34 35  1  0
 35 36  1  0
 36 37  1  0
 37 38  1  0
 38 39  1  0
 37 40  2  0
 40 41  1  0
 40 42  1  0
 42 43  1  0
 34 44  1  0
 44 45  2  0
 45 46  1  0
 46 47  1  0
 47 48  1  0
 48 49  1  0
 49 50  1  0
 50 51  1  0
 49 52  2  0
 52 53  1  0
 53 54  1  0
 52 55  1  0
 46 56  2  0
 56 57  1  0
 45 58  1  0
 58 59  2  0
 59 60  1  0
 59 61  1  0
 61 62  2  0
 62 63  1  0
 63 64  2  0
 64 65  1  0
 65 66  1  0
 66 67  1  0
 67 68  1  0
 68 69  1  0
 67 70  2  0
 70 71  1  0
 70 72  1  0
 72 73  1  0
 64 74  1  0
 74 75  2  0
 75 76  1  0
 76 77  1  0
 77 78  1  0
 78 79  1  0
 79 80  1  0
 80 81  1  0
 79 82  2  0
 82 83  1  0
 83 84  1  0
 82 85  1  0
 76 86  2  0
 86 87  1  0
 75 88  1  0
 88 89  2  0
 89 90  1  0
 89 91  1  0
 91 92  1  0
 91 93  2  0
 93 94  1  0
 94 95  1  0
 95 96  2  0
 94 97  2  0
 97 98  1  0
 98 99  1  0
 98100  2  0
100101  1  0
101102  2  0
102103  1  0
103104  2  0
104105  1  0
105106  2  0
106107  1  0
107108  1  0
108109  1  0
109110  1  0
110111  1  0
109112  2  0
112113  1  0
112114  1  0
114115  1  0
106116  1  0
116117  2  0
117118  1  0
118119  1  0
119120  1  0
120121  1  0
121122  1  0
122123  1  0
121124  2  0
124125  1  0
125126  1  0
124127  1  0
118128  2  0
128129  1  0
117130  1  0
130131  2  0
131132  1  0
131133  1  0
133134  2  0
134135  1  0
135136  2  0
136137  1  0
137138  1  0
138139  1  0
139140  1  0
140141  1  0
139142  2  0
142143  1  0
142144  1  0
144145  1  0
136146  1  0
146147  2  0
147148  1  0
148149  1  0
149150  1  0
150151  1  0
151152  1  0
152153  1  0
151154  2  0
154155  1  0
155156  1  0
154157  1  0
148158  2  0
158159  1  0
147160  1  0
160161  2  0
161162  1  0
 27  1  1  0
 57 31  1  0
 87 61  1  0
 97 92  1  0
129103  1  0
159133  1  0
 26  3  1  0
 56 33  1  0
 86 63  1  0
100 95  1  0
128105  1  0
158135  1  0
 12  5  2  0
 30 14  1  0
 42 35  2  0
 60 44  1  0
 72 65  2  0
 90 74  1  0
102 99  1  0
114107  2  0
132116  1  0
144137  2  0
162146  1  0
 23 17  2  0
 53 47  2  0
 83 77  2  0
125119  2  0
155149  2  0
  1163  1  0
  2164  1  0
  8165  1  0
  8166  1  0
  9167  1  0
  9168  1  0
  9169  1  0
 20170  1  0
 20171  1  0
 21172  1  0
 21173  1  0
 21174  1  0
 28175  1  0
 32176  1  0
 38177  1  0
 38178  1  0
 39179  1  0
 39180  1  0
 39181  1  0
 50182  1  0
 50183  1  0
 51184  1  0
 51185  1  0
 51186  1  0
 58187  1  0
 62188  1  0
 68189  1  0
 68190  1  0
 69191  1  0
 69192  1  0
 69193  1  0
 80194  1  0
 80195  1  0
 81196  1  0
 81197  1  0
 81198  1  0
 88199  1  0
 93200  1  0
101201  1  0
104202  1  0
110203  1  0
110204  1  0
111205  1  0
111206  1  0
111207  1  0
122208  1  0
122209  1  0
123210  1  0
123211  1  0
123212  1  0
130213  1  0
134214  1  0
140215  1  0
140216  1  0
141217  1  0
141218  1  0
141219  1  0
152220  1  0
152221  1  0
153222  1  0
153223  1  0
153224  1  0
160225  1  0
161226  1  0
M  END

