
     RDKit          3D

230253  0  0  0  0  0  0  0  0999 V2000
    6.5341   -9.2812    8.4239 C   0  0  0  0  0  0  0  0  0  0  0  0
    6.5805   -7.9032    8.6766 C   0  0  0  0  0  0  0  0  0  0  0  0
    5.4443   -7.1988    8.2180 C   0  0  0  0  0  0  0  0  0  0  0  0
    5.1521   -5.8002    8.2901 C   0  0  0  0  0  0  0  0  0  0  0  0
    6.1595   -4.8574    8.7344 C   0  0  0  0  0  0  0  0  0  0  0  0
    6.4864   -3.8445    7.8008 C   0  0  0  0  0  0  0  0  0  0  0  0
    7.2329   -2.7537    8.1733 C   0  0  0  0  0  0  0  0  0  0  0  0
    7.6970   -2.6314    9.4900 C   0  0  0  0  0  0  0  0  0  0  0  0
    8.6523   -1.1761   10.0381 S   0  0  0  0  0  0  0  0  0  0  0  0
    8.4270    0.0320    8.6135 C   0  0  0  0  0  0  0  0  0  0  0  0
    8.9427    1.4441    8.9787 C   0  0  0  0  0  0  0  0  0  0  0  0
    7.3922   -3.6404   10.4206 C   0  0  0  0  0  0  0  0  0  0  0  0
    7.8364   -3.5557   11.6942 F   0  0  0  0  0  0  0  0  0  0  0  0
    6.6241   -4.7589   10.0608 C   0  0  0  0  0  0  0  0  0  0  0  0
    3.9321   -5.3295    7.7172 C   0  0  0  0  0  0  0  0  0  0  0  0
    3.0410   -6.1853    7.0744 C   0  0  0  0  0  0  0  0  0  0  0  0
    3.3222   -7.5626    7.0113 C   0  0  0  0  0  0  0  0  0  0  0  0
    2.3899   -8.4636    6.3846 C   0  0  0  0  0  0  0  0  0  0  0  0
    2.4487   -8.6941    4.9933 C   0  0  0  0  0  0  0  0  0  0  0  0
    1.7370   -9.7672    4.4512 C   0  0  0  0  0  0  0  0  0  0  0  0
    0.9311  -10.6057    5.2457 C   0  0  0  0  0  0  0  0  0  0  0  0
    0.2310  -12.1447    4.5681 S   0  0  0  0  0  0  0  0  0  0  0  0
   -1.4908  -11.5810    4.1664 C   0  0  0  0  0  0  0  0  0  0  0  0
   -1.4941  -10.6677    2.9463 C   0  0  0  0  0  0  0  0  0  0  0  0
    0.9664  -10.3948    6.6503 C   0  0  0  0  0  0  0  0  0  0  0  0
    1.6674   -9.3364    7.2112 C   0  0  0  0  0  0  0  0  0  0  0  0
    0.2597  -11.2299    7.4414 F   0  0  0  0  0  0  0  0  0  0  0  0
    4.5231   -8.0512    7.5938 C   0  0  0  0  0  0  0  0  0  0  0  0
    5.1026   -9.6410    7.6027 S   0  0  0  0  0  0  0  0  0  0  0  0
    1.9702   -5.4365    6.5320 C   0  0  0  0  0  0  0  0  0  0  0  0
    2.0430   -4.0593    6.6960 C   0  0  0  0  0  0  0  0  0  0  0  0
    3.4224   -3.7389    7.6469 S   0  0  0  0  0  0  0  0  0  0  0  0
    1.2290   -2.9114    6.1546 C   0  0  0  0  0  0  0  0  0  0  0  0
    1.3560   -1.6112    6.6173 C   0  0  0  0  0  0  0  0  0  0  0  0
    0.7709   -0.6329    5.8028 C   0  0  0  0  0  0  0  0  0  0  0  0
    0.8330    0.7801    6.0194 C   0  0  0  0  0  0  0  0  0  0  0  0
    1.2790    1.2467    7.2899 C   0  0  0  0  0  0  0  0  0  0  0  0
    0.4764    0.9064    8.4274 C   0  0  0  0  0  0  0  0  0  0  0  0
    0.8867    1.3550    9.6548 C   0  0  0  0  0  0  0  0  0  0  0  0
    2.0689    2.0964    9.8316 C   0  0  0  0  0  0  0  0  0  0  0  0
    2.5073    2.4704   11.5878 S   0  0  0  0  0  0  0  0  0  0  0  0
    3.8432    3.7537   11.4712 C   0  0  0  0  0  0  0  0  0  0  0  0
    3.3730    5.0536   10.8440 C   0  0  0  0  0  0  0  0  0  0  0  0
    2.8739    2.3456    8.6867 C   0  0  0  0  0  0  0  0  0  0  0  0
    4.0317    3.0236    8.8026 F   0  0  0  0  0  0  0  0  0  0  0  0
    2.4596    1.9267    7.4311 C   0  0  0  0  0  0  0  0  0  0  0  0
    0.2538    1.6324    5.0623 C   0  0  0  0  0  0  0  0  0  0  0  0
   -0.3741    1.1114    3.9364 C   0  0  0  0  0  0  0  0  0  0  0  0
   -0.4483   -0.2791    3.7479 C   0  0  0  0  0  0  0  0  0  0  0  0
   -1.2191   -0.8362    2.6604 C   0  0  0  0  0  0  0  0  0  0  0  0
   -2.4873   -1.3829    2.9883 C   0  0  0  0  0  0  0  0  0  0  0  0
   -3.1962   -2.0271    1.9931 C   0  0  0  0  0  0  0  0  0  0  0  0
   -2.7079   -2.1264    0.6823 C   0  0  0  0  0  0  0  0  0  0  0  0
   -3.5675   -3.2052   -0.4981 S   0  0  0  0  0  0  0  0  0  0  0  0
   -4.6790   -1.9667   -1.3620 C   0  0  0  0  0  0  0  0  0  0  0  0
   -3.9542   -0.9920   -2.3070 C   0  0  0  0  0  0  0  0  0  0  0  0
   -1.3958   -1.6730    0.4142 C   0  0  0  0  0  0  0  0  0  0  0  0
   -0.6600   -1.0149    1.4028 C   0  0  0  0  0  0  0  0  0  0  0  0
   -0.8744   -1.8286   -0.8124 F   0  0  0  0  0  0  0  0  0  0  0  0
    0.1326   -1.1482    4.7185 C   0  0  0  0  0  0  0  0  0  0  0  0
    0.3167   -2.8451    4.6907 S   0  0  0  0  0  0  0  0  0  0  0  0
   -0.8519    2.1554    3.0704 C   0  0  0  0  0  0  0  0  0  0  0  0
   -0.5763    3.4435    3.5093 C   0  0  0  0  0  0  0  0  0  0  0  0
    0.2390    3.3284    5.0260 S   0  0  0  0  0  0  0  0  0  0  0  0
   -0.9548    4.7269    2.7418 C   0  0  0  0  0  0  0  0  0  0  0  0
   -1.4912    4.6742    1.5491 O   0  0  0  0  0  0  0  0  0  0  0  0
   -1.6445    5.9230    1.1878 C   0  0  0  0  0  0  0  0  0  0  0  0
   -2.0250    6.6052    0.1142 C   0  0  0  0  0  0  0  0  0  0  0  0
   -1.8789    7.9536    0.5296 C   0  0  0  0  0  0  0  0  0  0  0  0
   -1.3860    8.0435    1.7885 O   0  0  0  0  0  0  0  0  0  0  0  0
   -1.2687    6.8227    2.1725 C   0  0  0  0  0  0  0  0  0  0  0  0
   -0.7859    6.0784    3.1716 C   0  0  0  0  0  0  0  0  0  0  0  0
   -2.1964    9.0635   -0.4298 C   0  0  0  0  0  0  0  0  0  0  0  0
   -3.3503    8.9602   -1.1568 C   0  0  0  0  0  0  0  0  0  0  0  0
   -3.6737    9.0250   -2.6352 C   0  0  0  0  0  0  0  0  0  0  0  0
   -4.3770    9.9887   -3.2262 O   0  0  0  0  0  0  0  0  0  0  0  0
   -4.8836    9.4684   -4.2828 C   0  0  0  0  0  0  0  0  0  0  0  0
   -5.6558    9.7382   -5.3670 C   0  0  0  0  0  0  0  0  0  0  0  0
   -5.7720    8.5180   -6.0387 C   0  0  0  0  0  0  0  0  0  0  0  0
   -5.0420    7.5894   -5.4163 O   0  0  0  0  0  0  0  0  0  0  0  0
   -4.5530    8.1459   -4.3649 C   0  0  0  0  0  0  0  0  0  0  0  0
   -3.8167    7.7712   -3.3381 C   0  0  0  0  0  0  0  0  0  0  0  0
   -6.5588    8.3200   -7.3291 C   0  0  0  0  0  0  0  0  0  0  0  0
   -6.6709    7.1620   -7.9983 C   0  0  0  0  0  0  0  0  0  0  0  0
   -6.1141    5.8648   -7.5633 C   0  0  0  0  0  0  0  0  0  0  0  0
   -5.5029    4.9075   -8.3290 C   0  0  0  0  0  0  0  0  0  0  0  0
   -4.9552    3.8420   -7.6098 C   0  0  0  0  0  0  0  0  0  0  0  0
   -4.1179    2.7989   -8.0756 C   0  0  0  0  0  0  0  0  0  0  0  0
   -4.0816    2.4913   -9.4836 C   0  0  0  0  0  0  0  0  0  0  0  0
   -3.0910    2.9883  -10.3407 C   0  0  0  0  0  0  0  0  0  0  0  0
   -3.0208    2.4758  -11.6560 C   0  0  0  0  0  0  0  0  0  0  0  0
   -3.9539    1.5277  -12.1022 C   0  0  0  0  0  0  0  0  0  0  0  0
   -3.8984    1.0420  -13.8735 S   0  0  0  0  0  0  0  0  0  0  0  0
   -4.9201   -0.5301  -14.0316 C   0  0  0  0  0  0  0  0  0  0  0  0
   -4.3994   -1.7309  -13.2093 C   0  0  0  0  0  0  0  0  0  0  0  0
   -4.9460    1.0756  -11.2081 C   0  0  0  0  0  0  0  0  0  0  0  0
   -5.9532    0.3156  -11.6169 F   0  0  0  0  0  0  0  0  0  0  0  0
   -4.9669    1.4859   -9.9191 C   0  0  0  0  0  0  0  0  0  0  0  0
   -3.5549    1.9262   -7.1460 C   0  0  0  0  0  0  0  0  0  0  0  0
   -3.8032    2.0256   -5.7676 C   0  0  0  0  0  0  0  0  0  0  0  0
   -4.6921    3.0349   -5.2869 C   0  0  0  0  0  0  0  0  0  0  0  0
   -5.0163    3.1454   -3.8953 C   0  0  0  0  0  0  0  0  0  0  0  0
   -5.5723    2.0597   -3.2049 C   0  0  0  0  0  0  0  0  0  0  0  0
   -6.1530    2.2937   -1.9686 C   0  0  0  0  0  0  0  0  0  0  0  0
   -6.1451    3.5637   -1.3701 C   0  0  0  0  0  0  0  0  0  0  0  0
   -7.2061    3.7884    0.1157 S   0  0  0  0  0  0  0  0  0  0  0  0
   -5.9515    4.2101    1.4598 C   0  0  0  0  0  0  0  0  0  0  0  0
   -5.4982    5.6480    1.3761 C   0  0  0  0  0  0  0  0  0  0  0  0
   -5.6802    4.6595   -2.1286 C   0  0  0  0  0  0  0  0  0  0  0  0
   -5.0387    4.4180   -3.3402 C   0  0  0  0  0  0  0  0  0  0  0  0
   -5.7207    5.9175   -1.6474 F   0  0  0  0  0  0  0  0  0  0  0  0
   -5.2158    3.9375   -6.2573 C   0  0  0  0  0  0  0  0  0  0  0  0
   -6.2200    5.2356   -6.0120 S   0  0  0  0  0  0  0  0  0  0  0  0
   -3.0049    1.0797   -5.0501 C   0  0  0  0  0  0  0  0  0  0  0  0
   -2.1382    0.3159   -5.8344 C   0  0  0  0  0  0  0  0  0  0  0  0
   -2.4096    0.7592   -7.4770 S   0  0  0  0  0  0  0  0  0  0  0  0
   -0.9976   -0.6021   -5.4474 C   0  0  0  0  0  0  0  0  0  0  0  0
   -0.1270   -1.0879   -6.3850 C   0  0  0  0  0  0  0  0  0  0  0  0
    0.9503   -1.8459   -5.8906 C   0  0  0  0  0  0  0  0  0  0  0  0
    2.0045   -2.4000   -6.6302 C   0  0  0  0  0  0  0  0  0  0  0  0
    2.1146   -2.1197   -8.0504 C   0  0  0  0  0  0  0  0  0  0  0  0
    2.5995   -0.8563   -8.4571 C   0  0  0  0  0  0  0  0  0  0  0  0
    2.7914   -0.6086   -9.8030 C   0  0  0  0  0  0  0  0  0  0  0  0
    2.4943   -1.5921  -10.7750 C   0  0  0  0  0  0  0  0  0  0  0  0
    2.9420   -1.3270  -12.5283 S   0  0  0  0  0  0  0  0  0  0  0  0
    1.3317   -0.7003  -13.2065 C   0  0  0  0  0  0  0  0  0  0  0  0
    0.2138   -1.7694  -13.2488 C   0  0  0  0  0  0  0  0  0  0  0  0
    2.1120   -2.8676  -10.3385 C   0  0  0  0  0  0  0  0  0  0  0  0
    1.8808   -3.8406  -11.2474 F   0  0  0  0  0  0  0  0  0  0  0  0
    1.9011   -3.1234   -8.9929 C   0  0  0  0  0  0  0  0  0  0  0  0
    3.0243   -3.0974   -5.9370 C   0  0  0  0  0  0  0  0  0  0  0  0
    2.9753   -3.2392   -4.5432 C   0  0  0  0  0  0  0  0  0  0  0  0
    1.8956   -2.6758   -3.7901 C   0  0  0  0  0  0  0  0  0  0  0  0
    2.0058   -2.7162   -2.3530 C   0  0  0  0  0  0  0  0  0  0  0  0
    2.3515   -1.5442   -1.6843 C   0  0  0  0  0  0  0  0  0  0  0  0
    2.5742   -1.5795   -0.3188 C   0  0  0  0  0  0  0  0  0  0  0  0
    2.4658   -2.7868    0.4189 C   0  0  0  0  0  0  0  0  0  0  0  0
    2.8070   -2.6606    2.2101 S   0  0  0  0  0  0  0  0  0  0  0  0
    2.7187   -4.4004    2.9135 C   0  0  0  0  0  0  0  0  0  0  0  0
    3.8824   -5.3217    2.5091 C   0  0  0  0  0  0  0  0  0  0  0  0
    2.0801   -3.9520   -0.2646 C   0  0  0  0  0  0  0  0  0  0  0  0
    1.8740   -3.9248   -1.6452 C   0  0  0  0  0  0  0  0  0  0  0  0
    1.9365   -5.1058    0.3870 F   0  0  0  0  0  0  0  0  0  0  0  0
    0.8931   -1.9678   -4.4936 C   0  0  0  0  0  0  0  0  0  0  0  0
   -0.4746   -1.1311   -3.8792 S   0  0  0  0  0  0  0  0  0  0  0  0
    4.0846   -3.9639   -4.0699 C   0  0  0  0  0  0  0  0  0  0  0  0
    4.9779   -4.3858   -5.0508 C   0  0  0  0  0  0  0  0  0  0  0  0
    4.3968   -3.8292   -6.5470 S   0  0  0  0  0  0  0  0  0  0  0  0
    7.3181   -9.9834    8.6998 H   0  0  0  0  0  0  0  0  0  0  0  0
    7.4051   -7.4472    9.1757 H   0  0  0  0  0  0  0  0  0  0  0  0
    6.0642   -3.9052    6.8121 H   0  0  0  0  0  0  0  0  0  0  0  0
    7.4544   -2.0257    7.4472 H   0  0  0  0  0  0  0  0  0  0  0  0
    9.0430   -0.3278    7.7474 H   0  0  0  0  0  0  0  0  0  0  0  0
    7.3528    0.1379    8.3153 H   0  0  0  0  0  0  0  0  0  0  0  0
   10.0240    1.4203    9.2552 H   0  0  0  0  0  0  0  0  0  0  0  0
    8.3377    1.8765    9.8002 H   0  0  0  0  0  0  0  0  0  0  0  0
    8.8276    2.0771    8.1115 H   0  0  0  0  0  0  0  0  0  0  0  0
    6.3685   -5.5038   10.8121 H   0  0  0  0  0  0  0  0  0  0  0  0
    3.0434   -8.0563    4.3675 H   0  0  0  0  0  0  0  0  0  0  0  0
    1.7868   -9.9401    3.3996 H   0  0  0  0  0  0  0  0  0  0  0  0
   -2.0286  -11.1143    5.0155 H   0  0  0  0  0  0  0  0  0  0  0  0
   -2.0703  -12.4965    3.8954 H   0  0  0  0  0  0  0  0  0  0  0  0
   -2.5065  -10.2224    2.8214 H   0  0  0  0  0  0  0  0  0  0  0  0
   -1.2019  -11.2461    2.0536 H   0  0  0  0  0  0  0  0  0  0  0  0
   -0.7647   -9.8420    3.0903 H   0  0  0  0  0  0  0  0  0  0  0  0
    1.6852   -9.1591    8.3049 H   0  0  0  0  0  0  0  0  0  0  0  0
    1.1748   -5.9045    5.9715 H   0  0  0  0  0  0  0  0  0  0  0  0
    1.9268   -1.4105    7.5265 H   0  0  0  0  0  0  0  0  0  0  0  0
   -0.4140    0.3296    8.2688 H   0  0  0  0  0  0  0  0  0  0  0  0
    0.2447    1.1003   10.5179 H   0  0  0  0  0  0  0  0  0  0  0  0
    4.7518    3.3852   10.9345 H   0  0  0  0  0  0  0  0  0  0  0  0
    4.1737    3.9588   12.5193 H   0  0  0  0  0  0  0  0  0  0  0  0
    4.1586    5.4417   10.1459 H   0  0  0  0  0  0  0  0  0  0  0  0
    3.1772    5.8185   11.6415 H   0  0  0  0  0  0  0  0  0  0  0  0
    2.4487    4.8746   10.2593 H   0  0  0  0  0  0  0  0  0  0  0  0
    3.0795    2.1549    6.5789 H   0  0  0  0  0  0  0  0  0  0  0  0
   -2.8770   -1.2658    3.9938 H   0  0  0  0  0  0  0  0  0  0  0  0
   -4.1594   -2.4199    2.2481 H   0  0  0  0  0  0  0  0  0  0  0  0
   -5.3316   -1.4035   -0.6660 H   0  0  0  0  0  0  0  0  0  0  0  0
   -5.3199   -2.6026   -1.9910 H   0  0  0  0  0  0  0  0  0  0  0  0
   -4.0068    0.0378   -1.9024 H   0  0  0  0  0  0  0  0  0  0  0  0
   -4.4612   -1.0060   -3.2852 H   0  0  0  0  0  0  0  0  0  0  0  0
   -2.9035   -1.2908   -2.4446 H   0  0  0  0  0  0  0  0  0  0  0  0
    0.3338   -0.6388    1.1509 H   0  0  0  0  0  0  0  0  0  0  0  0
   -1.3527    1.9420    2.1270 H   0  0  0  0  0  0  0  0  0  0  0  0
   -2.3629    6.1231   -0.7840 H   0  0  0  0  0  0  0  0  0  0  0  0
   -0.3410    6.3785    4.0988 H   0  0  0  0  0  0  0  0  0  0  0  0
   -1.8459   10.1650   -0.2555 H   0  0  0  0  0  0  0  0  0  0  0  0
   -4.2353    8.4015   -1.0875 H   0  0  0  0  0  0  0  0  0  0  0  0
   -6.1107   10.6822   -5.6733 H   0  0  0  0  0  0  0  0  0  0  0  0
   -3.4293    6.8025   -2.9649 H   0  0  0  0  0  0  0  0  0  0  0  0
   -7.0298    9.2125   -7.7932 H   0  0  0  0  0  0  0  0  0  0  0  0
   -7.2179    7.2009   -8.9670 H   0  0  0  0  0  0  0  0  0  0  0  0
   -5.3753    5.0690   -9.3555 H   0  0  0  0  0  0  0  0  0  0  0  0
   -2.3846    3.7854  -10.0185 H   0  0  0  0  0  0  0  0  0  0  0  0
   -2.2909    2.8620  -12.3482 H   0  0  0  0  0  0  0  0  0  0  0  0
   -6.0035   -0.3632  -13.8502 H   0  0  0  0  0  0  0  0  0  0  0  0
   -4.8098   -0.7959  -15.0911 H   0  0  0  0  0  0  0  0  0  0  0  0
   -5.2690   -2.3420  -12.8675 H   0  0  0  0  0  0  0  0  0  0  0  0
   -3.7512   -2.3476  -13.8241 H   0  0  0  0  0  0  0  0  0  0  0  0
   -3.7957   -1.3693  -12.3427 H   0  0  0  0  0  0  0  0  0  0  0  0
   -5.7112    1.1510   -9.2383 H   0  0  0  0  0  0  0  0  0  0  0  0
   -5.5492    1.0683   -3.6473 H   0  0  0  0  0  0  0  0  0  0  0  0
   -6.5518    1.4749   -1.4218 H   0  0  0  0  0  0  0  0  0  0  0  0
   -6.5522    4.1384    2.3969 H   0  0  0  0  0  0  0  0  0  0  0  0
   -5.0967    3.4828    1.5902 H   0  0  0  0  0  0  0  0  0  0  0  0
   -4.5978    5.7501    0.7258 H   0  0  0  0  0  0  0  0  0  0  0  0
   -6.3231    6.2855    1.0089 H   0  0  0  0  0  0  0  0  0  0  0  0
   -5.2211    5.9711    2.4073 H   0  0  0  0  0  0  0  0  0  0  0  0
   -4.6230    5.2503   -3.8928 H   0  0  0  0  0  0  0  0  0  0  0  0
   -3.0147    1.0420   -3.9732 H   0  0  0  0  0  0  0  0  0  0  0  0
   -0.2437   -0.8931   -7.4222 H   0  0  0  0  0  0  0  0  0  0  0  0
    2.7848   -0.1118   -7.6957 H   0  0  0  0  0  0  0  0  0  0  0  0
    3.1223    0.3583  -10.1251 H   0  0  0  0  0  0  0  0  0  0  0  0
    1.5349   -0.3482  -14.2747 H   0  0  0  0  0  0  0  0  0  0  0  0
    0.9622    0.1806  -12.6607 H   0  0  0  0  0  0  0  0  0  0  0  0
    0.6752   -2.7607  -13.4551 H   0  0  0  0  0  0  0  0  0  0  0  0
   -0.2914   -1.7959  -12.2725 H   0  0  0  0  0  0  0  0  0  0  0  0
   -0.5421   -1.5137  -14.0300 H   0  0  0  0  0  0  0  0  0  0  0  0
    1.5563   -4.1083   -8.6520 H   0  0  0  0  0  0  0  0  0  0  0  0
    2.4538   -0.6370   -2.2666 H   0  0  0  0  0  0  0  0  0  0  0  0
    2.8445   -0.6855    0.2051 H   0  0  0  0  0  0  0  0  0  0  0  0
    2.7977   -4.2513    4.0059 H   0  0  0  0  0  0  0  0  0  0  0  0
    1.7196   -4.8721    2.7533 H   0  0  0  0  0  0  0  0  0  0  0  0
    4.2728   -5.0541    1.5058 H   0  0  0  0  0  0  0  0  0  0  0  0
    4.7016   -5.2193    3.2260 H   0  0  0  0  0  0  0  0  0  0  0  0
    3.5111   -6.3744    2.5187 H   0  0  0  0  0  0  0  0  0  0  0  0
    1.6006   -4.8282   -2.1817 H   0  0  0  0  0  0  0  0  0  0  0  0
    4.2244   -4.1935   -3.0340 H   0  0  0  0  0  0  0  0  0  0  0  0
    5.8759   -4.9469   -4.8358 H   0  0  0  0  0  0  0  0  0  0  0  0
  1  2  2  0
  2  3  1  0
  3  4  2  0
  4  5  1  0
  5  6  2  0
  6  7  1  0
  7  8  2  0
  8  9  1  0
  9 10  1  0
 10 11  1  0
  8 12  1  0
 12 13  1  0
 12 14  2  0
  4 15  1  0
 15 16  2  0
 16 17  1  0
 17 18  1  0
 18 19  2  0
 19 20  1  0
 20 21  2  0
 21 22  1  0
 22 23  1  0
 23 24  1  0
 21 25  1  0
 25 26  2  0
 25 27  1  0
 17 28  2  0
 28 29  1  0
 16 30  1  0
 30 31  2  0
 31 32  1  0
 31 33  1  0
 33 34  2  0
 34 35  1  0
 35 36  2  0
 36 37  1  0
 37 38  2  0
 38 39  1  0
 39 40  2  0
 40 41  1  0
 41 42  1  0
 42 43  1  0
 40 44  1  0
 44 45  1  0
 44 46  2  0
 36 47  1  0
 47 48  2  0
 48 49  1  0
 49 50  1  0
 50 51  2  0
 51 52  1  0
 52 53  2  0
 53 54  1  0
 54 55  1  0
 55 56  1  0
 53 57  1  0
 57 58  2  0
 57 59  1  0
 49 60  2  0
 60 61  1  0
 48 62  1  0
 62 63  2  0
 63 64  1  0
 63 65  1  0
 65 66  1  0
 66 67  1  0
 67 68  1  0
 68 69  2  0
 69 70  1  0
 70 71  1  0
 71 72  1  0
 69 73  1  0
 73 74  2  3
 74 75  1  0
 75 76  1  0
 76 77  1  0
 77 78  1  0
 78 79  2  0
 79 80  1  0
 80 81  1  0
 81 82  1  0
 79 83  1  0
 83 84  2  3
 84 85  1  0
 85 86  2  0
 86 87  1  0
 87 88  2  0
 88 89  1  0
 89 90  2  0
 90 91  1  0
 91 92  2  0
 92 93  1  0
 93 94  1  0
 94 95  1  0
 92 96  1  0
 96 97  1  0
 96 98  2  0
 88 99  1  0
 99100  2  0
100101  1  0
101102  1  0
102103  2  0
103104  1  0
104105  2  0
105106  1  0
106107  1  0
107108  1  0
105109  1  0
109110  2  0
109111  1  0
101112  2  0
112113  1  0
100114  1  0
114115  2  0
115116  1  0
115117  1  0
117118  2  0
118119  1  0
119120  2  0
120121  1  0
121122  2  0
122123  1  0
123124  2  0
124125  1  0
125126  1  0
126127  1  0
124128  1  0
128129  1  0
128130  2  0
120131  1  0
131132  2  0
132133  1  0
133134  1  0
134135  2  0
135136  1  0
136137  2  0
137138  1  0
138139  1  0
139140  1  0
137141  1  0
141142  2  0
141143  1  0
133144  2  0
144145  1  0
132146  1  0
146147  2  0
147148  1  0
 29  1  1  0
 61 33  1  0
 72 65  2  0
 82 75  2  0
113 85  1  0
145117  1  0
 28  3  1  0
 60 35  1  0
 71 67  2  0
 81 77  2  0
112 87  1  0
144119  1  0
 14  5  1  0
 32 15  1  0
 46 37  1  0
 64 47  1  0
 98 89  1  0
116 99  1  0
130121  1  0
148131  1  0
 26 18  1  0
 58 50  1  0
110102  1  0
142134  1  0
  1149  1  0
  2150  1  0
  6151  1  0
  7152  1  0
 10153  1  0
 10154  1  0
 11155  1  0
 11156  1  0
 11157  1  0
 14158  1  0
 19159  1  0
 20160  1  0
 23161  1  0
 23162  1  0
 24163  1  0
 24164  1  0
 24165  1  0
 26166  1  0
 30167  1  0
 34168  1  0
 38169  1  0
 39170  1  0
 42171  1  0
 42172  1  0
 43173  1  0
 43174  1  0
 43175  1  0
 46176  1  0
 51177  1  0
 52178  1  0
 55179  1  0
 55180  1  0
 56181  1  0
 56182  1  0
 56183  1  0
 58184  1  0
 62185  1  0
 68186  1  0
 72187  1  0
 73188  1  0
 74189  1  0
 78190  1  0
 82191  1  0
 83192  1  0
 84193  1  0
 86194  1  0
 90195  1  0
 91196  1  0
 94197  1  0
 94198  1  0
 95199  1  0
 95200  1  0
 95201  1  0
 98202  1  0
103203  1  0
104204  1  0
107205  1  0
107206  1  0
108207  1  0
108208  1  0
108209  1  0
110210  1  0
114211  1  0
118212  1  0
122213  1  0
123214  1  0
126215  1  0
126216  1  0
127217  1  0
127218  1  0
127219  1  0
130220  1  0
135221  1  0
136222  1  0
139223  1  0
139224  1  0
140225  1  0
140226  1  0
140227  1  0
142228  1  0
146229  1  0
147230  1  0
M  END

