
     RDKit          3D

230253  0  0  0  0  0  0  0  0999 V2000
    6.4312   -3.1040   10.9304 C   0  0  0  0  0  0  0  0  0  0  0  0
    6.4814   -1.9627   10.2440 O   0  0  0  0  0  0  0  0  0  0  0  0
    5.4038   -1.9587    9.5081 C   0  0  0  0  0  0  0  0  0  0  0  0
    4.7970   -1.1454    8.5917 C   0  0  0  0  0  0  0  0  0  0  0  0
    3.6405   -1.8833    8.2751 C   0  0  0  0  0  0  0  0  0  0  0  0
    3.5866   -3.0230    8.9657 O   0  0  0  0  0  0  0  0  0  0  0  0
    4.6714   -3.0315    9.6893 C   0  0  0  0  0  0  0  0  0  0  0  0
    5.2749   -3.8421   10.6097 C   0  0  0  0  0  0  0  0  0  0  0  0
    2.5935   -1.4132    7.3483 C   0  0  0  0  0  0  0  0  0  0  0  0
    1.6981   -2.1917    6.7268 C   0  0  0  0  0  0  0  0  0  0  0  0
    1.7307   -3.6648    6.6732 C   0  0  0  0  0  0  0  0  0  0  0  0
    2.8196   -4.4114    6.8611 O   0  0  0  0  0  0  0  0  0  0  0  0
    2.4295   -5.6391    6.6566 C   0  0  0  0  0  0  0  0  0  0  0  0
    2.9754   -6.8947    6.6344 C   0  0  0  0  0  0  0  0  0  0  0  0
    1.8727   -7.6733    6.2318 C   0  0  0  0  0  0  0  0  0  0  0  0
    0.7780   -6.9296    6.0786 O   0  0  0  0  0  0  0  0  0  0  0  0
    1.1590   -5.7102    6.3377 C   0  0  0  0  0  0  0  0  0  0  0  0
    0.6186   -4.4551    6.3293 C   0  0  0  0  0  0  0  0  0  0  0  0
    1.9130   -9.1236    5.9841 C   0  0  0  0  0  0  0  0  0  0  0  0
    1.2165   -9.7316    5.0127 C   0  0  0  0  0  0  0  0  0  0  0  0
    0.5081   -9.0240    3.9299 C   0  0  0  0  0  0  0  0  0  0  0  0
   -0.6648   -9.4667    3.3231 C   0  0  0  0  0  0  0  0  0  0  0  0
   -1.1160   -8.6085    2.3042 C   0  0  0  0  0  0  0  0  0  0  0  0
   -2.2922   -8.7622    1.5356 C   0  0  0  0  0  0  0  0  0  0  0  0
   -3.1423   -9.9690    1.6524 C   0  0  0  0  0  0  0  0  0  0  0  0
   -2.5911  -11.2393    1.4176 C   0  0  0  0  0  0  0  0  0  0  0  0
   -3.3766  -12.3857    1.5513 C   0  0  0  0  0  0  0  0  0  0  0  0
   -4.7265  -12.2776    1.9028 C   0  0  0  0  0  0  0  0  0  0  0  0
   -5.7174  -13.7638    2.1011 S   0  0  0  0  0  0  0  0  0  0  0  0
   -6.0631  -13.9788    0.3183 C   0  0  0  0  0  0  0  0  0  0  0  0
   -7.1654  -13.0366   -0.1456 C   0  0  0  0  0  0  0  0  0  0  0  0
   -5.2859  -11.0121    2.1336 C   0  0  0  0  0  0  0  0  0  0  0  0
   -6.5883  -10.8927    2.4927 F   0  0  0  0  0  0  0  0  0  0  0  0
   -4.4957   -9.8633    2.0080 C   0  0  0  0  0  0  0  0  0  0  0  0
   -2.5920   -7.7309    0.6229 C   0  0  0  0  0  0  0  0  0  0  0  0
   -1.7486   -6.6289    0.4333 C   0  0  0  0  0  0  0  0  0  0  0  0
   -0.5651   -6.4832    1.1880 C   0  0  0  0  0  0  0  0  0  0  0  0
    0.3162   -5.2984    1.0597 C   0  0  0  0  0  0  0  0  0  0  0  0
    0.9159   -4.9900   -0.1713 C   0  0  0  0  0  0  0  0  0  0  0  0
    1.7458   -3.8722   -0.2893 C   0  0  0  0  0  0  0  0  0  0  0  0
    1.9831   -3.0522    0.8198 C   0  0  0  0  0  0  0  0  0  0  0  0
    3.0550   -1.6211    0.6603 S   0  0  0  0  0  0  0  0  0  0  0  0
    1.7135   -0.5141    0.1086 C   0  0  0  0  0  0  0  0  0  0  0  0
    2.2361    0.9072   -0.0210 C   0  0  0  0  0  0  0  0  0  0  0  0
    1.3941   -3.3581    2.0530 C   0  0  0  0  0  0  0  0  0  0  0  0
    0.5614   -4.4756    2.1718 C   0  0  0  0  0  0  0  0  0  0  0  0
    1.6272   -2.5752    3.1360 F   0  0  0  0  0  0  0  0  0  0  0  0
   -0.2855   -7.4992    2.1164 C   0  0  0  0  0  0  0  0  0  0  0  0
    1.0199   -7.6059    3.1653 S   0  0  0  0  0  0  0  0  0  0  0  0
   -2.2426   -5.7130   -0.5033 C   0  0  0  0  0  0  0  0  0  0  0  0
   -3.4646   -6.0927   -1.0456 C   0  0  0  0  0  0  0  0  0  0  0  0
   -3.9560   -7.5549   -0.3606 S   0  0  0  0  0  0  0  0  0  0  0  0
   -4.2649   -5.2189   -1.9074 C   0  0  0  0  0  0  0  0  0  0  0  0
   -3.7247   -4.5284   -2.9902 C   0  0  0  0  0  0  0  0  0  0  0  0
   -4.4150   -3.3449   -3.2952 C   0  0  0  0  0  0  0  0  0  0  0  0
   -3.9924   -2.3537   -4.2040 C   0  0  0  0  0  0  0  0  0  0  0  0
   -2.7837   -2.5141   -5.0385 C   0  0  0  0  0  0  0  0  0  0  0  0
   -1.5124   -2.5686   -4.4487 C   0  0  0  0  0  0  0  0  0  0  0  0
   -0.3711   -2.6840   -5.2481 C   0  0  0  0  0  0  0  0  0  0  0  0
   -0.4910   -2.7307   -6.6421 C   0  0  0  0  0  0  0  0  0  0  0  0
    0.9793   -2.8998   -7.6622 S   0  0  0  0  0  0  0  0  0  0  0  0
    1.1683   -1.1127   -7.9987 C   0  0  0  0  0  0  0  0  0  0  0  0
    1.8982   -0.4150   -6.8593 C   0  0  0  0  0  0  0  0  0  0  0  0
   -1.7600   -2.6745   -7.2348 C   0  0  0  0  0  0  0  0  0  0  0  0
   -1.8916   -2.7243   -8.5839 F   0  0  0  0  0  0  0  0  0  0  0  0
   -2.9006   -2.5558   -6.4360 C   0  0  0  0  0  0  0  0  0  0  0  0
   -4.6645   -1.1227   -4.1544 C   0  0  0  0  0  0  0  0  0  0  0  0
   -5.7076   -0.8665   -3.2595 C   0  0  0  0  0  0  0  0  0  0  0  0
   -6.2015   -1.8951   -2.4273 C   0  0  0  0  0  0  0  0  0  0  0  0
   -7.3037   -1.6704   -1.4733 C   0  0  0  0  0  0  0  0  0  0  0  0
   -7.1293   -0.8271   -0.3663 C   0  0  0  0  0  0  0  0  0  0  0  0
   -8.1921   -0.5894    0.5083 C   0  0  0  0  0  0  0  0  0  0  0  0
   -9.4286   -1.2092    0.2969 C   0  0  0  0  0  0  0  0  0  0  0  0
  -10.8002   -0.8670    1.4058 S   0  0  0  0  0  0  0  0  0  0  0  0
  -10.5251   -2.3218    2.4752 C   0  0  0  0  0  0  0  0  0  0  0  0
   -9.4347   -2.0501    3.5045 C   0  0  0  0  0  0  0  0  0  0  0  0
   -9.6016   -2.0654   -0.8001 C   0  0  0  0  0  0  0  0  0  0  0  0
   -8.5401   -2.2989   -1.6795 C   0  0  0  0  0  0  0  0  0  0  0  0
  -10.7951   -2.6710   -1.0189 F   0  0  0  0  0  0  0  0  0  0  0  0
   -5.5185   -3.1243   -2.4637 C   0  0  0  0  0  0  0  0  0  0  0  0
   -5.6184   -4.3827   -1.3486 S   0  0  0  0  0  0  0  0  0  0  0  0
   -6.0179    0.5030   -3.1547 C   0  0  0  0  0  0  0  0  0  0  0  0
   -5.1930    1.3183   -3.9291 C   0  0  0  0  0  0  0  0  0  0  0  0
   -4.1375    0.3310   -4.7997 S   0  0  0  0  0  0  0  0  0  0  0  0
   -4.7649    2.6594   -3.5106 C   0  0  0  0  0  0  0  0  0  0  0  0
   -3.9727    3.4685   -4.3273 C   0  0  0  0  0  0  0  0  0  0  0  0
   -3.0120    4.2094   -3.6169 C   0  0  0  0  0  0  0  0  0  0  0  0
   -1.9167    4.8954   -4.1813 C   0  0  0  0  0  0  0  0  0  0  0  0
   -1.7608    5.0918   -5.6381 C   0  0  0  0  0  0  0  0  0  0  0  0
   -1.6114    3.9970   -6.5041 C   0  0  0  0  0  0  0  0  0  0  0  0
   -1.4559    4.2037   -7.8770 C   0  0  0  0  0  0  0  0  0  0  0  0
   -1.4296    5.5048   -8.3949 C   0  0  0  0  0  0  0  0  0  0  0  0
   -1.2077    5.7639  -10.1605 S   0  0  0  0  0  0  0  0  0  0  0  0
   -2.9861    5.9966  -10.5211 C   0  0  0  0  0  0  0  0  0  0  0  0
   -3.7080    4.6579  -10.6131 C   0  0  0  0  0  0  0  0  0  0  0  0
   -1.5412    6.6007   -7.5302 C   0  0  0  0  0  0  0  0  0  0  0  0
   -1.4953    7.8668   -8.0165 F   0  0  0  0  0  0  0  0  0  0  0  0
   -1.7116    6.3928   -6.1593 C   0  0  0  0  0  0  0  0  0  0  0  0
   -0.9054    5.3061   -3.2974 C   0  0  0  0  0  0  0  0  0  0  0  0
   -0.9744    5.1070   -1.9133 C   0  0  0  0  0  0  0  0  0  0  0  0
   -2.1113    4.4946   -1.3407 C   0  0  0  0  0  0  0  0  0  0  0  0
   -2.2001    4.1790    0.1013 C   0  0  0  0  0  0  0  0  0  0  0  0
   -3.2610    4.6875    0.8641 C   0  0  0  0  0  0  0  0  0  0  0  0
   -3.3736    4.3612    2.2169 C   0  0  0  0  0  0  0  0  0  0  0  0
   -2.4249    3.5259    2.8227 C   0  0  0  0  0  0  0  0  0  0  0  0
   -2.5813    3.1228    4.5666 S   0  0  0  0  0  0  0  0  0  0  0  0
   -1.7561    4.6396    5.1647 C   0  0  0  0  0  0  0  0  0  0  0  0
   -0.2456    4.4540    5.2139 C   0  0  0  0  0  0  0  0  0  0  0  0
   -1.3763    2.9939    2.0569 C   0  0  0  0  0  0  0  0  0  0  0  0
   -1.2699    3.3155    0.7021 C   0  0  0  0  0  0  0  0  0  0  0  0
   -0.4728    2.1522    2.6191 F   0  0  0  0  0  0  0  0  0  0  0  0
   -3.1055    4.0479   -2.2298 C   0  0  0  0  0  0  0  0  0  0  0  0
   -4.3395    2.9579   -1.9039 S   0  0  0  0  0  0  0  0  0  0  0  0
    0.2259    5.4361   -1.2508 C   0  0  0  0  0  0  0  0  0  0  0  0
    1.2383    5.8235   -2.1277 C   0  0  0  0  0  0  0  0  0  0  0  0
    0.6411    5.8185   -3.7024 S   0  0  0  0  0  0  0  0  0  0  0  0
    2.6697    5.8661   -1.8079 C   0  0  0  0  0  0  0  0  0  0  0  0
    3.2447    6.1936   -0.5799 C   0  0  0  0  0  0  0  0  0  0  0  0
    4.6379    5.9815   -0.5581 C   0  0  0  0  0  0  0  0  0  0  0  0
    5.5021    6.1865    0.5391 C   0  0  0  0  0  0  0  0  0  0  0  0
    5.0388    6.7959    1.8055 C   0  0  0  0  0  0  0  0  0  0  0  0
    4.4802    8.0837    1.8054 C   0  0  0  0  0  0  0  0  0  0  0  0
    4.1195    8.6941    3.0091 C   0  0  0  0  0  0  0  0  0  0  0  0
    4.3269    8.0301    4.2237 C   0  0  0  0  0  0  0  0  0  0  0  0
    3.9338    8.8558    5.7694 S   0  0  0  0  0  0  0  0  0  0  0  0
    5.5207    9.7619    5.8806 C   0  0  0  0  0  0  0  0  0  0  0  0
    6.6428    8.8647    6.3904 C   0  0  0  0  0  0  0  0  0  0  0  0
    4.8436    6.7277    4.2263 C   0  0  0  0  0  0  0  0  0  0  0  0
    5.0206    6.0606    5.3942 F   0  0  0  0  0  0  0  0  0  0  0  0
    5.2017    6.1150    3.0231 C   0  0  0  0  0  0  0  0  0  0  0  0
    6.8493    5.8122    0.3632 C   0  0  0  0  0  0  0  0  0  0  0  0
    7.3338    5.2561   -0.8259 C   0  0  0  0  0  0  0  0  0  0  0  0
    6.4721    5.0520   -1.9238 C   0  0  0  0  0  0  0  0  0  0  0  0
    6.9073    4.3546   -3.1566 C   0  0  0  0  0  0  0  0  0  0  0  0
    7.4285    3.0533   -3.0785 C   0  0  0  0  0  0  0  0  0  0  0  0
    7.7328    2.3444   -4.2441 C   0  0  0  0  0  0  0  0  0  0  0  0
    7.5009    2.9194   -5.4985 C   0  0  0  0  0  0  0  0  0  0  0  0
    7.8122    1.9636   -6.9844 S   0  0  0  0  0  0  0  0  0  0  0  0
    6.1533    1.2016   -6.9895 C   0  0  0  0  0  0  0  0  0  0  0  0
    6.0275    0.2269   -8.1480 C   0  0  0  0  0  0  0  0  0  0  0  0
    7.0104    4.2305   -5.5841 C   0  0  0  0  0  0  0  0  0  0  0  0
    6.7188    4.9463   -4.4174 C   0  0  0  0  0  0  0  0  0  0  0  0
    6.7870    4.8042   -6.7934 F   0  0  0  0  0  0  0  0  0  0  0  0
    5.1328    5.4513   -1.7561 C   0  0  0  0  0  0  0  0  0  0  0  0
    3.8630    5.2793   -2.8412 S   0  0  0  0  0  0  0  0  0  0  0  0
    8.7120    4.9779   -0.7820 C   0  0  0  0  0  0  0  0  0  0  0  0
    9.3016    5.3116    0.4333 C   0  0  0  0  0  0  0  0  0  0  0  0
    8.1235    5.9590    1.4512 S   0  0  0  0  0  0  0  0  0  0  0  0
    7.1862   -3.4100   11.6403 H   0  0  0  0  0  0  0  0  0  0  0  0
    5.1178   -0.1816    8.2206 H   0  0  0  0  0  0  0  0  0  0  0  0
    4.9474   -4.7955   10.9944 H   0  0  0  0  0  0  0  0  0  0  0  0
    2.5194   -0.3425    7.1965 H   0  0  0  0  0  0  0  0  0  0  0  0
    0.9076   -1.7005    6.1711 H   0  0  0  0  0  0  0  0  0  0  0  0
    3.9982   -7.1960    6.8169 H   0  0  0  0  0  0  0  0  0  0  0  0
   -0.3897   -4.1501    6.0883 H   0  0  0  0  0  0  0  0  0  0  0  0
    2.5119   -9.7315    6.6520 H   0  0  0  0  0  0  0  0  0  0  0  0
    1.2037  -10.8150    4.9935 H   0  0  0  0  0  0  0  0  0  0  0  0
   -1.1839  -10.3603    3.6386 H   0  0  0  0  0  0  0  0  0  0  0  0
   -1.5499  -11.3419    1.1373 H   0  0  0  0  0  0  0  0  0  0  0  0
   -2.9360  -13.3595    1.3752 H   0  0  0  0  0  0  0  0  0  0  0  0
   -6.3954  -15.0270    0.1544 H   0  0  0  0  0  0  0  0  0  0  0  0
   -5.1417  -13.8149   -0.2842 H   0  0  0  0  0  0  0  0  0  0  0  0
   -6.8191  -11.9827   -0.0983 H   0  0  0  0  0  0  0  0  0  0  0  0
   -7.4381  -13.2703   -1.1960 H   0  0  0  0  0  0  0  0  0  0  0  0
   -8.0684  -13.1573    0.4917 H   0  0  0  0  0  0  0  0  0  0  0  0
   -4.9337   -8.8929    2.2036 H   0  0  0  0  0  0  0  0  0  0  0  0
    0.7455   -5.6186   -1.0369 H   0  0  0  0  0  0  0  0  0  0  0  0
    2.2023   -3.6424   -1.2425 H   0  0  0  0  0  0  0  0  0  0  0  0
    0.8805   -0.5334    0.8430 H   0  0  0  0  0  0  0  0  0  0  0  0
    1.3378   -0.8591   -0.8788 H   0  0  0  0  0  0  0  0  0  0  0  0
    1.4423    1.5627   -0.4329 H   0  0  0  0  0  0  0  0  0  0  0  0
    3.1116    0.9374   -0.7046 H   0  0  0  0  0  0  0  0  0  0  0  0
    2.5325    1.2972    0.9756 H   0  0  0  0  0  0  0  0  0  0  0  0
    0.1040   -4.6967    3.1284 H   0  0  0  0  0  0  0  0  0  0  0  0
   -1.7652   -4.7711   -0.7418 H   0  0  0  0  0  0  0  0  0  0  0  0
   -2.7872   -4.8116   -3.4490 H   0  0  0  0  0  0  0  0  0  0  0  0
   -1.4056   -2.5193   -3.3718 H   0  0  0  0  0  0  0  0  0  0  0  0
    0.6045   -2.7339   -4.7824 H   0  0  0  0  0  0  0  0  0  0  0  0
    0.1785   -0.6355   -8.1698 H   0  0  0  0  0  0  0  0  0  0  0  0
    1.7659   -0.9985   -8.9274 H   0  0  0  0  0  0  0  0  0  0  0  0
    2.8860   -0.8936   -6.6873 H   0  0  0  0  0  0  0  0  0  0  0  0
    1.3000   -0.4615   -5.9271 H   0  0  0  0  0  0  0  0  0  0  0  0
    2.0599    0.6517   -7.1215 H   0  0  0  0  0  0  0  0  0  0  0  0
   -3.8763   -2.4989   -6.9013 H   0  0  0  0  0  0  0  0  0  0  0  0
   -6.1758   -0.3445   -0.1896 H   0  0  0  0  0  0  0  0  0  0  0  0
   -8.0561    0.0812    1.3470 H   0  0  0  0  0  0  0  0  0  0  0  0
  -11.4753   -2.5380    3.0084 H   0  0  0  0  0  0  0  0  0  0  0  0
  -10.2638   -3.2139    1.8679 H   0  0  0  0  0  0  0  0  0  0  0  0
   -9.6771   -1.1365    4.0873 H   0  0  0  0  0  0  0  0  0  0  0  0
   -9.3711   -2.9086    4.2066 H   0  0  0  0  0  0  0  0  0  0  0  0
   -8.4502   -1.9264    3.0088 H   0  0  0  0  0  0  0  0  0  0  0  0
   -8.6823   -2.9578   -2.5285 H   0  0  0  0  0  0  0  0  0  0  0  0
   -6.6983    0.9095   -2.4181 H   0  0  0  0  0  0  0  0  0  0  0  0
   -3.9805    3.3780   -5.4036 H   0  0  0  0  0  0  0  0  0  0  0  0
   -1.6137    2.9856   -6.1147 H   0  0  0  0  0  0  0  0  0  0  0  0
   -1.3491    3.3524   -8.5371 H   0  0  0  0  0  0  0  0  0  0  0  0
   -3.0750    6.5178  -11.4983 H   0  0  0  0  0  0  0  0  0  0  0  0
   -3.4644    6.6362   -9.7477 H   0  0  0  0  0  0  0  0  0  0  0  0
   -3.7137    4.1515   -9.6261 H   0  0  0  0  0  0  0  0  0  0  0  0
   -4.7603    4.8259  -10.9285 H   0  0  0  0  0  0  0  0  0  0  0  0
   -3.2103    4.0056  -11.3611 H   0  0  0  0  0  0  0  0  0  0  0  0
   -1.8056    7.2479   -5.4999 H   0  0  0  0  0  0  0  0  0  0  0  0
   -3.9990    5.3383    0.4102 H   0  0  0  0  0  0  0  0  0  0  0  0
   -4.1949    4.7598    2.7970 H   0  0  0  0  0  0  0  0  0  0  0  0
   -2.0124    5.5107    4.5258 H   0  0  0  0  0  0  0  0  0  0  0  0
   -2.1247    4.8521    6.1907 H   0  0  0  0  0  0  0  0  0  0  0  0
    0.2313    5.3814    5.5933 H   0  0  0  0  0  0  0  0  0  0  0  0
    0.0109    3.6162    5.8958 H   0  0  0  0  0  0  0  0  0  0  0  0
    0.1542    4.2422    4.2025 H   0  0  0  0  0  0  0  0  0  0  0  0
   -0.4686    2.8876    0.1155 H   0  0  0  0  0  0  0  0  0  0  0  0
    0.3930    5.2885   -0.1936 H   0  0  0  0  0  0  0  0  0  0  0  0
    2.6701    6.5382    0.2697 H   0  0  0  0  0  0  0  0  0  0  0  0
    4.3491    8.6233    0.8763 H   0  0  0  0  0  0  0  0  0  0  0  0
    3.7074    9.6942    2.9978 H   0  0  0  0  0  0  0  0  0  0  0  0
    5.7971   10.1905    4.8931 H   0  0  0  0  0  0  0  0  0  0  0  0
    5.3871   10.6048    6.5899 H   0  0  0  0  0  0  0  0  0  0  0  0
    6.8714    8.0689    5.6524 H   0  0  0  0  0  0  0  0  0  0  0  0
    6.3559    8.4026    7.3587 H   0  0  0  0  0  0  0  0  0  0  0  0
    7.5606    9.4701    6.5423 H   0  0  0  0  0  0  0  0  0  0  0  0
    5.6182    5.1156    3.0384 H   0  0  0  0  0  0  0  0  0  0  0  0
    7.5668    2.5746   -2.1179 H   0  0  0  0  0  0  0  0  0  0  0  0
    8.1156    1.3346   -4.1714 H   0  0  0  0  0  0  0  0  0  0  0  0
    5.3767    1.9904   -7.0862 H   0  0  0  0  0  0  0  0  0  0  0  0
    5.9904    0.6551   -6.0357 H   0  0  0  0  0  0  0  0  0  0  0  0
    6.8165   -0.5531   -8.0837 H   0  0  0  0  0  0  0  0  0  0  0  0
    6.1263    0.7689   -9.1131 H   0  0  0  0  0  0  0  0  0  0  0  0
    5.0324   -0.2657   -8.1164 H   0  0  0  0  0  0  0  0  0  0  0  0
    6.3196    5.9500   -4.4957 H   0  0  0  0  0  0  0  0  0  0  0  0
    9.2748    4.5632   -1.6071 H   0  0  0  0  0  0  0  0  0  0  0  0
   10.3475    5.1832    0.6795 H   0  0  0  0  0  0  0  0  0  0  0  0
  1  2  1  0
  2  3  1  0
  3  4  1  0
  4  5  2  0
  5  6  1  0
  6  7  1  0
  7  8  1  0
  5  9  1  0
  9 10  2  3
 10 11  1  0
 11 12  1  0
 12 13  1  0
 13 14  1  0
 14 15  2  0
 15 16  1  0
 16 17  1  0
 17 18  1  0
 15 19  1  0
 19 20  2  3
 20 21  1  0
 21 22  2  0
 22 23  1  0
 23 24  2  0
 24 25  1  0
 25 26  2  0
 26 27  1  0
 27 28  2  0
 28 29  1  0
 29 30  1  0
 30 31  1  0
 28 32  1  0
 32 33  1  0
 32 34  2  0
 24 35  1  0
 35 36  2  0
 36 37  1  0
 37 38  1  0
 38 39  2  0
 39 40  1  0
 40 41  2  0
 41 42  1  0
 42 43  1  0
 43 44  1  0
 41 45  1  0
 45 46  2  0
 45 47  1  0
 37 48  2  0
 48 49  1  0
 36 50  1  0
 50 51  2  0
 51 52  1  0
 51 53  1  0
 53 54  2  0
 54 55  1  0
 55 56  2  0
 56 57  1  0
 57 58  2  0
 58 59  1  0
 59 60  2  0
 60 61  1  0
 61 62  1  0
 62 63  1  0
 60 64  1  0
 64 65  1  0
 64 66  2  0
 56 67  1  0
 67 68  2  0
 68 69  1  0
 69 70  1  0
 70 71  2  0
 71 72  1  0
 72 73  2  0
 73 74  1  0
 74 75  1  0
 75 76  1  0
 73 77  1  0
 77 78  2  0
 77 79  1  0
 69 80  2  0
 80 81  1  0
 68 82  1  0
 82 83  2  0
 83 84  1  0
 83 85  1  0
 85 86  2  0
 86 87  1  0
 87 88  2  0
 88 89  1  0
 89 90  2  0
 90 91  1  0
 91 92  2  0
 92 93  1  0
 93 94  1  0
 94 95  1  0
 92 96  1  0
 96 97  1  0
 96 98  2  0
 88 99  1  0
 99100  2  0
100101  1  0
101102  1  0
102103  2  0
103104  1  0
104105  2  0
105106  1  0
106107  1  0
107108  1  0
105109  1  0
109110  2  0
109111  1  0
101112  2  0
112113  1  0
100114  1  0
114115  2  0
115116  1  0
115117  1  0
117118  2  0
118119  1  0
119120  2  0
120121  1  0
121122  2  0
122123  1  0
123124  2  0
124125  1  0
125126  1  0
126127  1  0
124128  1  0
128129  1  0
128130  2  0
120131  1  0
131132  2  0
132133  1  0
133134  1  0
134135  2  0
135136  1  0
136137  2  0
137138  1  0
138139  1  0
139140  1  0
137141  1  0
141142  2  0
141143  1  0
133144  2  0
144145  1  0
132146  1  0
146147  2  0
147148  1  0
  8  1  2  0
 18 11  2  0
 49 21  1  0
 81 53  1  0
113 85  1  0
145117  1  0
  7  3  2  0
 17 13  2  0
 48 23  1  0
 80 55  1  0
112 87  1  0
144119  1  0
 34 25  1  0
 52 35  1  0
 66 57  1  0
 84 67  1  0
 98 89  1  0
116 99  1  0
130121  1  0
148131  1  0
 46 38  1  0
 78 70  1  0
110102  1  0
142134  1  0
  1149  1  0
  4150  1  0
  8151  1  0
  9152  1  0
 10153  1  0
 14154  1  0
 18155  1  0
 19156  1  0
 20157  1  0
 22158  1  0
 26159  1  0
 27160  1  0
 30161  1  0
 30162  1  0
 31163  1  0
 31164  1  0
 31165  1  0
 34166  1  0
 39167  1  0
 40168  1  0
 43169  1  0
 43170  1  0
 44171  1  0
 44172  1  0
 44173  1  0
 46174  1  0
 50175  1  0
 54176  1  0
 58177  1  0
 59178  1  0
 62179  1  0
 62180  1  0
 63181  1  0
 63182  1  0
 63183  1  0
 66184  1  0
 71185  1  0
 72186  1  0
 75187  1  0
 75188  1  0
 76189  1  0
 76190  1  0
 76191  1  0
 78192  1  0
 82193  1  0
 86194  1  0
 90195  1  0
 91196  1  0
 94197  1  0
 94198  1  0
 95199  1  0
 95200  1  0
 95201  1  0
 98202  1  0
103203  1  0
104204  1  0
107205  1  0
107206  1  0
108207  1  0
108208  1  0
108209  1  0
110210  1  0
114211  1  0
118212  1  0
122213  1  0
123214  1  0
126215  1  0
126216  1  0
127217  1  0
127218  1  0
127219  1  0
130220  1  0
135221  1  0
136222  1  0
139223  1  0
139224  1  0
140225  1  0
140226  1  0
140227  1  0
142228  1  0
146229  1  0
147230  1  0
M  END

