
     RDKit          3D

226251  0  0  0  0  0  0  0  0999 V2000
    1.2900   -8.3466    9.2687 C   0  0  0  0  0  0  0  0  0  0  0  0
    1.4788   -8.7130    7.9421 C   0  0  0  0  0  0  0  0  0  0  0  0
    0.3800   -8.4652    7.1142 C   0  0  0  0  0  0  0  0  0  0  0  0
    0.2595   -8.7663    5.7263 C   0  0  0  0  0  0  0  0  0  0  0  0
    1.3882   -9.2941    4.9252 C   0  0  0  0  0  0  0  0  0  0  0  0
    1.2723  -10.5194    3.7675 S   0  0  0  0  0  0  0  0  0  0  0  0
    2.8120  -10.3818    3.1556 C   0  0  0  0  0  0  0  0  0  0  0  0
    3.3370  -11.1340    1.9778 C   0  0  0  0  0  0  0  0  0  0  0  0
    3.3159  -10.2691    0.7158 C   0  0  0  0  0  0  0  0  0  0  0  0
    3.4700   -9.3444    3.8184 C   0  0  0  0  0  0  0  0  0  0  0  0
    5.0854   -8.8093    3.4288 Cl  0  0  0  0  0  0  0  0  0  0  0  0
    2.6668   -8.7116    4.8056 C   0  0  0  0  0  0  0  0  0  0  0  0
    3.1884   -7.2668    5.6615 Cl  0  0  0  0  0  0  0  0  0  0  0  0
   -0.9888   -8.5017    5.1141 C   0  0  0  0  0  0  0  0  0  0  0  0
   -2.0385   -7.8876    5.8100 C   0  0  0  0  0  0  0  0  0  0  0  0
   -1.9186   -7.5744    7.1764 C   0  0  0  0  0  0  0  0  0  0  0  0
   -3.0585   -6.9936    7.9022 C   0  0  0  0  0  0  0  0  0  0  0  0
   -3.8449   -5.5603    7.4795 S   0  0  0  0  0  0  0  0  0  0  0  0
   -5.0785   -5.7039    8.5999 C   0  0  0  0  0  0  0  0  0  0  0  0
   -6.0822   -4.6277    8.9073 C   0  0  0  0  0  0  0  0  0  0  0  0
   -5.5457   -3.6936    9.9980 C   0  0  0  0  0  0  0  0  0  0  0  0
   -4.8541   -6.8450    9.3763 C   0  0  0  0  0  0  0  0  0  0  0  0
   -3.7255   -7.5728    8.9732 C   0  0  0  0  0  0  0  0  0  0  0  0
   -3.2640   -9.1170    9.6883 Cl  0  0  0  0  0  0  0  0  0  0  0  0
   -5.9662   -7.4233   10.5947 Cl  0  0  0  0  0  0  0  0  0  0  0  0
   -0.7056   -7.8953    7.8072 C   0  0  0  0  0  0  0  0  0  0  0  0
   -0.2441   -7.6988    9.4099 S   0  0  0  0  0  0  0  0  0  0  0  0
   -3.1466   -7.6520    5.0040 C   0  0  0  0  0  0  0  0  0  0  0  0
   -3.0035   -8.0569    3.6735 C   0  0  0  0  0  0  0  0  0  0  0  0
   -1.4415   -8.6695    3.5036 S   0  0  0  0  0  0  0  0  0  0  0  0
   -3.8060   -7.5172    2.5890 C   0  0  0  0  0  0  0  0  0  0  0  0
   -3.9862   -6.1821    2.3847 C   0  0  0  0  0  0  0  0  0  0  0  0
   -4.6844   -5.8494    1.2227 C   0  0  0  0  0  0  0  0  0  0  0  0
   -4.9153   -4.5366    0.7273 C   0  0  0  0  0  0  0  0  0  0  0  0
   -4.4857   -3.3437    1.4792 C   0  0  0  0  0  0  0  0  0  0  0  0
   -3.5273   -2.1178    0.8415 S   0  0  0  0  0  0  0  0  0  0  0  0
   -3.6180   -1.1047    2.1734 C   0  0  0  0  0  0  0  0  0  0  0  0
   -2.9375    0.2223    2.2779 C   0  0  0  0  0  0  0  0  0  0  0  0
   -1.7269    0.1781    3.2050 C   0  0  0  0  0  0  0  0  0  0  0  0
   -4.4032   -1.7140    3.1519 C   0  0  0  0  0  0  0  0  0  0  0  0
   -4.8196   -0.9512    4.6644 Cl  0  0  0  0  0  0  0  0  0  0  0  0
   -4.8896   -2.9841    2.7738 C   0  0  0  0  0  0  0  0  0  0  0  0
   -5.9800   -3.9236    3.7776 Cl  0  0  0  0  0  0  0  0  0  0  0  0
   -5.5220   -4.4259   -0.5125 C   0  0  0  0  0  0  0  0  0  0  0  0
   -5.9613   -5.5430   -1.2514 C   0  0  0  0  0  0  0  0  0  0  0  0
   -5.8216   -6.8553   -0.7164 C   0  0  0  0  0  0  0  0  0  0  0  0
   -6.5610   -8.0005   -1.2928 C   0  0  0  0  0  0  0  0  0  0  0  0
   -5.9916   -9.5841   -1.3822 S   0  0  0  0  0  0  0  0  0  0  0  0
   -7.4475  -10.2870   -1.8077 C   0  0  0  0  0  0  0  0  0  0  0  0
   -7.6989  -11.7511   -2.0527 C   0  0  0  0  0  0  0  0  0  0  0  0
   -7.4848  -12.1080   -3.5343 C   0  0  0  0  0  0  0  0  0  0  0  0
   -8.4114   -9.2940   -1.9170 C   0  0  0  0  0  0  0  0  0  0  0  0
   -7.9305   -8.0149   -1.6061 C   0  0  0  0  0  0  0  0  0  0  0  0
   -9.0051   -6.6179   -1.4816 Cl  0  0  0  0  0  0  0  0  0  0  0  0
  -10.0804   -9.6027   -2.3199 Cl  0  0  0  0  0  0  0  0  0  0  0  0
   -5.0974   -6.9709    0.4812 C   0  0  0  0  0  0  0  0  0  0  0  0
   -4.5724   -8.3625    1.3200 S   0  0  0  0  0  0  0  0  0  0  0  0
   -6.4430   -5.1614   -2.5293 C   0  0  0  0  0  0  0  0  0  0  0  0
   -6.4685   -3.7588   -2.7273 C   0  0  0  0  0  0  0  0  0  0  0  0
   -5.8199   -3.0177   -1.3804 S   0  0  0  0  0  0  0  0  0  0  0  0
   -6.5983   -3.0361   -3.9950 C   0  0  0  0  0  0  0  0  0  0  0  0
   -5.6600   -3.1474   -5.0190 C   0  0  0  0  0  0  0  0  0  0  0  0
   -5.4458   -1.9644   -5.7579 C   0  0  0  0  0  0  0  0  0  0  0  0
   -4.5060   -1.7756   -6.7730 C   0  0  0  0  0  0  0  0  0  0  0  0
   -3.7800   -2.9139   -7.3704 C   0  0  0  0  0  0  0  0  0  0  0  0
   -2.8370   -4.0340   -6.5512 S   0  0  0  0  0  0  0  0  0  0  0  0
   -2.4637   -4.9734   -7.8949 C   0  0  0  0  0  0  0  0  0  0  0  0
   -1.5819   -6.1765   -7.9036 C   0  0  0  0  0  0  0  0  0  0  0  0
   -2.4171   -7.4495   -7.8572 C   0  0  0  0  0  0  0  0  0  0  0  0
   -3.0815   -4.4171   -9.0040 C   0  0  0  0  0  0  0  0  0  0  0  0
   -3.0171   -5.0969  -10.6093 Cl  0  0  0  0  0  0  0  0  0  0  0  0
   -3.7860   -3.2268   -8.7359 C   0  0  0  0  0  0  0  0  0  0  0  0
   -4.7197   -2.3541   -9.9303 Cl  0  0  0  0  0  0  0  0  0  0  0  0
   -4.2824   -0.4585   -7.2148 C   0  0  0  0  0  0  0  0  0  0  0  0
   -5.0002    0.6295   -6.7069 C   0  0  0  0  0  0  0  0  0  0  0  0
   -6.0590    0.4245   -5.7913 C   0  0  0  0  0  0  0  0  0  0  0  0
   -7.0268    1.5017   -5.5950 C   0  0  0  0  0  0  0  0  0  0  0  0
   -7.6413    2.4528   -6.8441 S   0  0  0  0  0  0  0  0  0  0  0  0
   -8.6120    3.4262   -5.9137 C   0  0  0  0  0  0  0  0  0  0  0  0
   -9.3339    4.6303   -6.3974 C   0  0  0  0  0  0  0  0  0  0  0  0
   -8.5085    5.8942   -6.1230 C   0  0  0  0  0  0  0  0  0  0  0  0
   -8.4823    3.0224   -4.5767 C   0  0  0  0  0  0  0  0  0  0  0  0
   -7.6075    1.9363   -4.3872 C   0  0  0  0  0  0  0  0  0  0  0  0
   -7.0842    1.4325   -2.7984 Cl  0  0  0  0  0  0  0  0  0  0  0  0
   -9.2719    3.8532   -3.2574 Cl  0  0  0  0  0  0  0  0  0  0  0  0
   -6.2314   -0.8916   -5.3160 C   0  0  0  0  0  0  0  0  0  0  0  0
   -7.1953   -1.4709   -4.0626 S   0  0  0  0  0  0  0  0  0  0  0  0
   -4.4823    1.8620   -7.1481 C   0  0  0  0  0  0  0  0  0  0  0  0
   -3.4060    1.7547   -8.0245 C   0  0  0  0  0  0  0  0  0  0  0  0
   -3.0712    0.1246   -8.2311 S   0  0  0  0  0  0  0  0  0  0  0  0
   -2.4750    2.8471   -8.4006 C   0  0  0  0  0  0  0  0  0  0  0  0
   -1.2572    2.7282   -9.5637 S   0  0  0  0  0  0  0  0  0  0  0  0
   -0.3535    4.0622   -9.0737 C   0  0  0  0  0  0  0  0  0  0  0  0
    0.9892    4.3665   -9.6242 C   0  0  0  0  0  0  0  0  0  0  0  0
    1.7462    5.2433   -9.0762 O   0  0  0  0  0  0  0  0  0  0  0  0
    1.4585    3.6867  -10.7357 O   0  0  0  0  0  0  0  0  0  0  0  0
   -0.9927    4.6237   -7.9556 C   0  0  0  0  0  0  0  0  0  0  0  0
   -2.2155    3.9829   -7.6404 C   0  0  0  0  0  0  0  0  0  0  0  0
   -0.3235    5.5928   -7.0310 C   0  0  0  0  0  0  0  0  0  0  0  0
   -0.5666    5.5876   -5.7240 C   0  0  0  0  0  0  0  0  0  0  0  0
    0.4195    6.0769   -4.7504 C   0  0  0  0  0  0  0  0  0  0  0  0
    0.1331    6.2832   -3.4245 C   0  0  0  0  0  0  0  0  0  0  0  0
    1.2456    6.2316   -2.5774 C   0  0  0  0  0  0  0  0  0  0  0  0
    1.2240    6.2208   -1.1650 C   0  0  0  0  0  0  0  0  0  0  0  0
   -0.0727    5.9830   -0.4968 C   0  0  0  0  0  0  0  0  0  0  0  0
   -1.1802    4.8173   -0.9949 S   0  0  0  0  0  0  0  0  0  0  0  0
   -2.4374    5.2991   -0.0050 C   0  0  0  0  0  0  0  0  0  0  0  0
   -3.7919    4.6557   -0.0036 C   0  0  0  0  0  0  0  0  0  0  0  0
   -3.7585    3.3390    0.7571 C   0  0  0  0  0  0  0  0  0  0  0  0
   -1.9547    6.3024    0.8301 C   0  0  0  0  0  0  0  0  0  0  0  0
   -2.8963    6.9831    2.1455 Cl  0  0  0  0  0  0  0  0  0  0  0  0
   -0.6255    6.6842    0.5863 C   0  0  0  0  0  0  0  0  0  0  0  0
    0.1250    8.0063    1.4713 Cl  0  0  0  0  0  0  0  0  0  0  0  0
    2.4792    6.1602   -0.5217 C   0  0  0  0  0  0  0  0  0  0  0  0
    3.6929    6.0099   -1.2300 C   0  0  0  0  0  0  0  0  0  0  0  0
    3.6870    6.0765   -2.6466 C   0  0  0  0  0  0  0  0  0  0  0  0
    4.8383    6.6458   -3.3516 C   0  0  0  0  0  0  0  0  0  0  0  0
    4.8025    8.1692   -4.0231 S   0  0  0  0  0  0  0  0  0  0  0  0
    6.3511    8.1703   -4.6524 C   0  0  0  0  0  0  0  0  0  0  0  0
    6.9344    9.2813   -5.4740 C   0  0  0  0  0  0  0  0  0  0  0  0
    6.7377    9.0270   -6.9625 C   0  0  0  0  0  0  0  0  0  0  0  0
    6.9288    6.9375   -4.3613 C   0  0  0  0  0  0  0  0  0  0  0  0
    6.0970    6.0733   -3.6011 C   0  0  0  0  0  0  0  0  0  0  0  0
    6.5693    4.4312   -3.1642 Cl  0  0  0  0  0  0  0  0  0  0  0  0
    8.5710    6.5193   -4.8428 Cl  0  0  0  0  0  0  0  0  0  0  0  0
    2.4517    6.1414   -3.2721 C   0  0  0  0  0  0  0  0  0  0  0  0
    2.0939    5.9537   -4.9280 S   0  0  0  0  0  0  0  0  0  0  0  0
    4.8019    5.7695   -0.3962 C   0  0  0  0  0  0  0  0  0  0  0  0
    4.5178    5.9093    0.9487 C   0  0  0  0  0  0  0  0  0  0  0  0
    2.8638    6.1594    1.1283 S   0  0  0  0  0  0  0  0  0  0  0  0
    5.4274    5.6438    2.0622 C   0  0  0  0  0  0  0  0  0  0  0  0
    6.2166    4.5098    2.2428 C   0  0  0  0  0  0  0  0  0  0  0  0
    7.1448    4.6342    3.2931 C   0  0  0  0  0  0  0  0  0  0  0  0
    8.1154    3.6766    3.7508 C   0  0  0  0  0  0  0  0  0  0  0  0
    8.0717    2.2469    3.3392 C   0  0  0  0  0  0  0  0  0  0  0  0
    7.8914    0.9773    4.4382 S   0  0  0  0  0  0  0  0  0  0  0  0
    7.9554   -0.2657    3.3137 C   0  0  0  0  0  0  0  0  0  0  0  0
    7.7341   -1.7118    3.6438 C   0  0  0  0  0  0  0  0  0  0  0  0
    6.2406   -2.0519    3.6801 C   0  0  0  0  0  0  0  0  0  0  0  0
    8.0775    0.2988    2.0366 C   0  0  0  0  0  0  0  0  0  0  0  0
    8.0978   -0.6475    0.5569 Cl  0  0  0  0  0  0  0  0  0  0  0  0
    8.1762    1.7056    2.0480 C   0  0  0  0  0  0  0  0  0  0  0  0
    8.6340    2.6414    0.6366 Cl  0  0  0  0  0  0  0  0  0  0  0  0
    8.9015    4.0520    4.8443 C   0  0  0  0  0  0  0  0  0  0  0  0
    8.8266    5.3247    5.4185 C   0  0  0  0  0  0  0  0  0  0  0  0
    8.1142    6.3481    4.7740 C   0  0  0  0  0  0  0  0  0  0  0  0
    8.9820    7.4736    4.3498 C   0  0  0  0  0  0  0  0  0  0  0  0
    9.7599    8.5428    5.3819 S   0  0  0  0  0  0  0  0  0  0  0  0
   11.0909    8.8183    4.4047 C   0  0  0  0  0  0  0  0  0  0  0  0
   12.2868    9.6500    4.7430 C   0  0  0  0  0  0  0  0  0  0  0  0
   11.8967   11.0689    5.1616 C   0  0  0  0  0  0  0  0  0  0  0  0
   10.9014    8.1399    3.2012 C   0  0  0  0  0  0  0  0  0  0  0  0
    9.6886    7.4500    3.1371 C   0  0  0  0  0  0  0  0  0  0  0  0
    9.3421    6.3546    1.7967 Cl  0  0  0  0  0  0  0  0  0  0  0  0
   12.1262    7.9980    1.9470 Cl  0  0  0  0  0  0  0  0  0  0  0  0
    7.1353    5.9235    3.8686 C   0  0  0  0  0  0  0  0  0  0  0  0
    5.9620    6.8504    3.1026 S   0  0  0  0  0  0  0  0  0  0  0  0
    9.6096    5.4543    6.5746 C   0  0  0  0  0  0  0  0  0  0  0  0
   10.4261    4.3658    6.8220 C   0  0  0  0  0  0  0  0  0  0  0  0
   10.1537    3.2297    5.6166 S   0  0  0  0  0  0  0  0  0  0  0  0
    1.9903   -8.4582   10.0704 H   0  0  0  0  0  0  0  0  0  0  0  0
    2.3895   -9.1817    7.6261 H   0  0  0  0  0  0  0  0  0  0  0  0
    4.3815  -11.4591    2.1701 H   0  0  0  0  0  0  0  0  0  0  0  0
    2.7013  -12.0342    1.8112 H   0  0  0  0  0  0  0  0  0  0  0  0
    3.5752  -10.8894   -0.1680 H   0  0  0  0  0  0  0  0  0  0  0  0
    2.3002   -9.8403    0.5638 H   0  0  0  0  0  0  0  0  0  0  0  0
    4.0606   -9.4483    0.7947 H   0  0  0  0  0  0  0  0  0  0  0  0
   -7.0411   -5.0699    9.2471 H   0  0  0  0  0  0  0  0  0  0  0  0
   -6.2750   -4.0363    7.9956 H   0  0  0  0  0  0  0  0  0  0  0  0
   -5.2832   -4.2751   10.9112 H   0  0  0  0  0  0  0  0  0  0  0  0
   -4.6371   -3.1809    9.6066 H   0  0  0  0  0  0  0  0  0  0  0  0
   -6.3056   -2.9302   10.2495 H   0  0  0  0  0  0  0  0  0  0  0  0
   -4.0366   -7.1750    5.3307 H   0  0  0  0  0  0  0  0  0  0  0  0
   -3.5461   -5.4491    3.0463 H   0  0  0  0  0  0  0  0  0  0  0  0
   -2.6075    0.5525    1.2714 H   0  0  0  0  0  0  0  0  0  0  0  0
   -3.6426    0.9858    2.6849 H   0  0  0  0  0  0  0  0  0  0  0  0
   -2.0438    0.0179    4.2501 H   0  0  0  0  0  0  0  0  0  0  0  0
   -1.0596   -0.6627    2.9022 H   0  0  0  0  0  0  0  0  0  0  0  0
   -1.1654    1.1352    3.1492 H   0  0  0  0  0  0  0  0  0  0  0  0
   -8.7406  -12.0014   -1.7690 H   0  0  0  0  0  0  0  0  0  0  0  0
   -7.0314  -12.3619   -1.4093 H   0  0  0  0  0  0  0  0  0  0  0  0
   -7.9582  -11.3553   -4.1938 H   0  0  0  0  0  0  0  0  0  0  0  0
   -7.9289  -13.1071   -3.7505 H   0  0  0  0  0  0  0  0  0  0  0  0
   -6.3973  -12.1521   -3.7478 H   0  0  0  0  0  0  0  0  0  0  0  0
   -6.7621   -5.8680   -3.2824 H   0  0  0  0  0  0  0  0  0  0  0  0
   -5.0475   -4.0096   -5.1023 H   0  0  0  0  0  0  0  0  0  0  0  0
   -0.8903   -6.1458   -7.0382 H   0  0  0  0  0  0  0  0  0  0  0  0
   -0.9873   -6.2022   -8.8354 H   0  0  0  0  0  0  0  0  0  0  0  0
   -3.1085   -7.4230   -6.9865 H   0  0  0  0  0  0  0  0  0  0  0  0
   -2.9888   -7.5573   -8.7928 H   0  0  0  0  0  0  0  0  0  0  0  0
   -1.7572   -8.3371   -7.7475 H   0  0  0  0  0  0  0  0  0  0  0  0
  -10.3254    4.6951   -5.8990 H   0  0  0  0  0  0  0  0  0  0  0  0
   -9.5146    4.5239   -7.4927 H   0  0  0  0  0  0  0  0  0  0  0  0
   -7.8128    6.0544   -6.9730 H   0  0  0  0  0  0  0  0  0  0  0  0
   -7.9074    5.8109   -5.1901 H   0  0  0  0  0  0  0  0  0  0  0  0
   -9.1784    6.7750   -6.0394 H   0  0  0  0  0  0  0  0  0  0  0  0
   -4.8681    2.8069   -6.8128 H   0  0  0  0  0  0  0  0  0  0  0  0
    2.3726    3.8659  -11.1217 H   0  0  0  0  0  0  0  0  0  0  0  0
   -2.8415    4.2988   -6.8344 H   0  0  0  0  0  0  0  0  0  0  0  0
    0.5058    6.1784   -7.3892 H   0  0  0  0  0  0  0  0  0  0  0  0
   -1.4748    5.1094   -5.3534 H   0  0  0  0  0  0  0  0  0  0  0  0
   -0.8475    6.5505   -3.1214 H   0  0  0  0  0  0  0  0  0  0  0  0
   -4.5750    5.3150    0.4100 H   0  0  0  0  0  0  0  0  0  0  0  0
   -4.0751    4.4521   -1.0432 H   0  0  0  0  0  0  0  0  0  0  0  0
   -3.4488    3.4974    1.8124 H   0  0  0  0  0  0  0  0  0  0  0  0
   -3.0317    2.6576    0.2584 H   0  0  0  0  0  0  0  0  0  0  0  0
   -4.7453    2.8562    0.7189 H   0  0  0  0  0  0  0  0  0  0  0  0
    6.4162   10.2340   -5.2163 H   0  0  0  0  0  0  0  0  0  0  0  0
    8.0185    9.3909   -5.2584 H   0  0  0  0  0  0  0  0  0  0  0  0
    7.2881    8.1067   -7.2593 H   0  0  0  0  0  0  0  0  0  0  0  0
    7.1644    9.8630   -7.5361 H   0  0  0  0  0  0  0  0  0  0  0  0
    5.6540    8.8980   -7.1961 H   0  0  0  0  0  0  0  0  0  0  0  0
    5.7732    5.4857   -0.7219 H   0  0  0  0  0  0  0  0  0  0  0  0
    6.1764    3.6944    1.5491 H   0  0  0  0  0  0  0  0  0  0  0  0
    8.1701   -1.9341    4.6376 H   0  0  0  0  0  0  0  0  0  0  0  0
    8.2307   -2.3752    2.9014 H   0  0  0  0  0  0  0  0  0  0  0  0
    5.7752   -1.8527    2.7003 H   0  0  0  0  0  0  0  0  0  0  0  0
    6.0950   -3.1244    3.9181 H   0  0  0  0  0  0  0  0  0  0  0  0
    5.7298   -1.4308    4.4447 H   0  0  0  0  0  0  0  0  0  0  0  0
   12.9662    9.7327    3.8768 H   0  0  0  0  0  0  0  0  0  0  0  0
   12.8454    9.1497    5.5644 H   0  0  0  0  0  0  0  0  0  0  0  0
   12.8130   11.6126    5.4387 H   0  0  0  0  0  0  0  0  0  0  0  0
   11.4462   11.5939    4.2966 H   0  0  0  0  0  0  0  0  0  0  0  0
   11.1873   11.0527    6.0093 H   0  0  0  0  0  0  0  0  0  0  0  0
    9.4731    6.2348    7.3110 H   0  0  0  0  0  0  0  0  0  0  0  0
   11.1047    4.2330    7.6592 H   0  0  0  0  0  0  0  0  0  0  0  0
  1  2  2  0
  2  3  1  0
  3  4  2  0
  4  5  1  0
  5  6  1  0
  6  7  1  0
  7  8  1  0
  8  9  1  0
  7 10  2  0
 10 11  1  0
 10 12  1  0
 12 13  1  0
  4 14  1  0
 14 15  2  0
 15 16  1  0
 16 17  1  0
 17 18  1  0
 18 19  1  0
 19 20  1  0
 20 21  1  0
 19 22  2  0
 22 23  1  0
 23 24  1  0
 22 25  1  0
 16 26  2  0
 26 27  1  0
 15 28  1  0
 28 29  2  0
 29 30  1  0
 29 31  1  0
 31 32  2  0
 32 33  1  0
 33 34  2  0
 34 35  1  0
 35 36  1  0
 36 37  1  0
 37 38  1  0
 38 39  1  0
 37 40  2  0
 40 41  1  0
 40 42  1  0
 42 43  1  0
 34 44  1  0
 44 45  2  0
 45 46  1  0
 46 47  1  0
 47 48  1  0
 48 49  1  0
 49 50  1  0
 50 51  1  0
 49 52  2  0
 52 53  1  0
 53 54  1  0
 52 55  1  0
 46 56  2  0
 56 57  1  0
 45 58  1  0
 58 59  2  0
 59 60  1  0
 59 61  1  0
 61 62  2  0
 62 63  1  0
 63 64  2  0
 64 65  1  0
 65 66  1  0
 66 67  1  0
 67 68  1  0
 68 69  1  0
 67 70  2  0
 70 71  1  0
 70 72  1  0
 72 73  1  0
 64 74  1  0
 74 75  2  0
 75 76  1  0
 76 77  1  0
 77 78  1  0
 78 79  1  0
 79 80  1  0
 80 81  1  0
 79 82  2  0
 82 83  1  0
 83 84  1  0
 82 85  1  0
 76 86  2  0
 86 87  1  0
 75 88  1  0
 88 89  2  0
 89 90  1  0
 89 91  1  0
 91 92  1  0
 92 93  1  0
 93 94  1  0
 94 95  2  0
 94 96  1  0
 93 97  2  0
 97 98  1  0
 97 99  1  0
 99100  2  3
100101  1  0
101102  2  0
102103  1  0
103104  2  0
104105  1  0
105106  1  0
106107  1  0
107108  1  0
108109  1  0
107110  2  0
110111  1  0
110112  1  0
112113  1  0
104114  1  0
114115  2  0
115116  1  0
116117  1  0
117118  1  0
118119  1  0
119120  1  0
120121  1  0
119122  2  0
122123  1  0
123124  1  0
122125  1  0
116126  2  0
126127  1  0
115128  1  0
128129  2  0
129130  1  0
129131  1  0
131132  2  0
132133  1  0
133134  2  0
134135  1  0
135136  1  0
136137  1  0
137138  1  0
138139  1  0
137140  2  0
140141  1  0
140142  1  0
142143  1  0
134144  1  0
144145  2  0
145146  1  0
146147  1  0
147148  1  0
148149  1  0
149150  1  0
150151  1  0
149152  2  0
152153  1  0
153154  1  0
152155  1  0
146156  2  0
156157  1  0
145158  1  0
158159  2  0
159160  1  0
 27  1  1  0
 57 31  1  0
 87 61  1  0
 98 91  2  0
127101  1  0
157131  1  0
 26  3  1  0
 56 33  1  0
 86 63  1  0
126103  1  0
156133  1  0
 12  5  2  0
 30 14  1  0
 42 35  2  0
 60 44  1  0
 72 65  2  0
 90 74  1  0
112105  2  0
130114  1  0
142135  2  0
160144  1  0
 23 17  2  0
 53 47  2  0
 83 77  2  0
123117  2  0
153147  2  0
  1161  1  0
  2162  1  0
  8163  1  0
  8164  1  0
  9165  1  0
  9166  1  0
  9167  1  0
 20168  1  0
 20169  1  0
 21170  1  0
 21171  1  0
 21172  1  0
 28173  1  0
 32174  1  0
 38175  1  0
 38176  1  0
 39177  1  0
 39178  1  0
 39179  1  0
 50180  1  0
 50181  1  0
 51182  1  0
 51183  1  0
 51184  1  0
 58185  1  0
 62186  1  0
 68187  1  0
 68188  1  0
 69189  1  0
 69190  1  0
 69191  1  0
 80192  1  0
 80193  1  0
 81194  1  0
 81195  1  0
 81196  1  0
 88197  1  0
 96198  1  0
 98199  1  0
 99200  1  0
100201  1  0
102202  1  0
108203  1  0
108204  1  0
109205  1  0
109206  1  0
109207  1  0
120208  1  0
120209  1  0
121210  1  0
121211  1  0
121212  1  0
128213  1  0
132214  1  0
138215  1  0
138216  1  0
139217  1  0
139218  1  0
139219  1  0
150220  1  0
150221  1  0
151222  1  0
151223  1  0
151224  1  0
158225  1  0
159226  1  0
M  END

