
     RDKit          3D

224249  0  0  0  0  0  0  0  0999 V2000
    2.4666  -10.0465    7.4460 C   0  0  0  0  0  0  0  0  0  0  0  0
    2.0649   -8.7312    7.2680 C   0  0  0  0  0  0  0  0  0  0  0  0
    1.4926   -8.4832    5.9953 C   0  0  0  0  0  0  0  0  0  0  0  0
    1.2646   -7.2140    5.3767 C   0  0  0  0  0  0  0  0  0  0  0  0
    2.2249   -6.0633    5.6304 C   0  0  0  0  0  0  0  0  0  0  0  0
    2.9773   -5.7642    7.1141 S   0  0  0  0  0  0  0  0  0  0  0  0
    4.2969   -4.8910    6.5978 C   0  0  0  0  0  0  0  0  0  0  0  0
    5.5656   -4.7375    7.3928 C   0  0  0  0  0  0  0  0  0  0  0  0
    5.8965   -3.2695    7.6556 C   0  0  0  0  0  0  0  0  0  0  0  0
    4.1848   -4.7597    5.2234 C   0  0  0  0  0  0  0  0  0  0  0  0
    5.4566   -4.0756    4.2159 Cl  0  0  0  0  0  0  0  0  0  0  0  0
    3.0546   -5.4229    4.6749 C   0  0  0  0  0  0  0  0  0  0  0  0
    2.9689   -5.5801    2.9284 Cl  0  0  0  0  0  0  0  0  0  0  0  0
    0.4823   -7.2621    4.1938 C   0  0  0  0  0  0  0  0  0  0  0  0
    0.2197   -8.4679    3.5329 C   0  0  0  0  0  0  0  0  0  0  0  0
    0.4564   -9.7211    4.1438 C   0  0  0  0  0  0  0  0  0  0  0  0
   -0.4289  -10.9048    3.8402 C   0  0  0  0  0  0  0  0  0  0  0  0
   -1.3135  -11.0468    2.4066 S   0  0  0  0  0  0  0  0  0  0  0  0
   -2.5696  -12.0049    2.9190 C   0  0  0  0  0  0  0  0  0  0  0  0
   -3.9106  -12.0038    2.2524 C   0  0  0  0  0  0  0  0  0  0  0  0
   -4.6376  -10.6866    2.5219 C   0  0  0  0  0  0  0  0  0  0  0  0
   -2.3336  -12.2770    4.2569 C   0  0  0  0  0  0  0  0  0  0  0  0
   -1.1621  -11.6674    4.7845 C   0  0  0  0  0  0  0  0  0  0  0  0
   -0.9063  -11.7030    6.5300 Cl  0  0  0  0  0  0  0  0  0  0  0  0
   -3.5130  -13.1064    5.2711 Cl  0  0  0  0  0  0  0  0  0  0  0  0
    1.2355   -9.6677    5.3106 C   0  0  0  0  0  0  0  0  0  0  0  0
    2.0061  -10.9364    6.1025 S   0  0  0  0  0  0  0  0  0  0  0  0
   -0.1441   -8.2716    2.1866 C   0  0  0  0  0  0  0  0  0  0  0  0
   -0.3388   -6.9434    1.8305 C   0  0  0  0  0  0  0  0  0  0  0  0
   -0.0004   -5.9995    3.1844 S   0  0  0  0  0  0  0  0  0  0  0  0
   -0.2893   -6.4614    0.4330 C   0  0  0  0  0  0  0  0  0  0  0  0
   -0.6697   -7.1465   -0.7215 C   0  0  0  0  0  0  0  0  0  0  0  0
   -1.5512   -8.3574   -0.7693 C   0  0  0  0  0  0  0  0  0  0  0  0
   -0.8014   -9.5467   -1.3481 C   0  0  0  0  0  0  0  0  0  0  0  0
   -0.2358   -6.5923   -1.8877 N   0  0  0  0  0  0  0  0  0  0  0  0
    0.5360   -5.5022   -1.6883 C   0  0  0  0  0  0  0  0  0  0  0  0
    0.6348   -5.1352   -0.0565 S   0  0  0  0  0  0  0  0  0  0  0  0
    1.0307   -4.6698   -2.7905 C   0  0  0  0  0  0  0  0  0  0  0  0
    2.3599   -4.2913   -2.9787 C   0  0  0  0  0  0  0  0  0  0  0  0
    2.5156   -3.4263   -4.0865 C   0  0  0  0  0  0  0  0  0  0  0  0
    3.7005   -2.8179   -4.5261 C   0  0  0  0  0  0  0  0  0  0  0  0
    5.0163   -3.1486   -3.9637 C   0  0  0  0  0  0  0  0  0  0  0  0
    5.4635   -2.9826   -2.3604 S   0  0  0  0  0  0  0  0  0  0  0  0
    7.0826   -3.3982   -2.5656 C   0  0  0  0  0  0  0  0  0  0  0  0
    8.1129   -3.4415   -1.4755 C   0  0  0  0  0  0  0  0  0  0  0  0
    8.2591   -4.8620   -0.9492 C   0  0  0  0  0  0  0  0  0  0  0  0
    7.2895   -3.6736   -3.9166 C   0  0  0  0  0  0  0  0  0  0  0  0
    8.8463   -4.1283   -4.5849 Cl  0  0  0  0  0  0  0  0  0  0  0  0
    6.1389   -3.5117   -4.7012 C   0  0  0  0  0  0  0  0  0  0  0  0
    6.1095   -3.7604   -6.4390 Cl  0  0  0  0  0  0  0  0  0  0  0  0
    3.5874   -1.8147   -5.5146 C   0  0  0  0  0  0  0  0  0  0  0  0
    2.3687   -1.4979   -6.1125 C   0  0  0  0  0  0  0  0  0  0  0  0
    1.2096   -2.1991   -5.7594 C   0  0  0  0  0  0  0  0  0  0  0  0
   -0.1097   -1.9091   -6.3265 C   0  0  0  0  0  0  0  0  0  0  0  0
   -1.0558   -3.0586   -7.1079 S   0  0  0  0  0  0  0  0  0  0  0  0
   -2.4755   -2.1623   -7.1163 C   0  0  0  0  0  0  0  0  0  0  0  0
   -3.7705   -2.6216   -7.7250 C   0  0  0  0  0  0  0  0  0  0  0  0
   -3.8416   -2.1937   -9.1838 C   0  0  0  0  0  0  0  0  0  0  0  0
   -2.2301   -0.9419   -6.4920 C   0  0  0  0  0  0  0  0  0  0  0  0
   -0.9021   -0.8120   -6.0337 C   0  0  0  0  0  0  0  0  0  0  0  0
   -0.3467    0.5752   -5.0999 Cl  0  0  0  0  0  0  0  0  0  0  0  0
   -3.4556    0.2923   -6.2572 Cl  0  0  0  0  0  0  0  0  0  0  0  0
    1.3132   -3.1544   -4.7324 C   0  0  0  0  0  0  0  0  0  0  0  0
    0.0615   -3.9739   -3.9709 S   0  0  0  0  0  0  0  0  0  0  0  0
    2.4243   -0.3247   -6.8875 C   0  0  0  0  0  0  0  0  0  0  0  0
    3.6764    0.3164   -6.8586 C   0  0  0  0  0  0  0  0  0  0  0  0
    4.7251   -0.6507   -5.9465 S   0  0  0  0  0  0  0  0  0  0  0  0
    3.7976    1.7927   -6.9554 C   0  0  0  0  0  0  0  0  0  0  0  0
    4.5921    2.5100   -6.0565 C   0  0  0  0  0  0  0  0  0  0  0  0
    4.0570    3.7586   -5.6997 C   0  0  0  0  0  0  0  0  0  0  0  0
    4.4721    4.5594   -4.6276 C   0  0  0  0  0  0  0  0  0  0  0  0
    5.7915    4.4292   -3.9962 C   0  0  0  0  0  0  0  0  0  0  0  0
    6.4341    3.0644   -3.2710 S   0  0  0  0  0  0  0  0  0  0  0  0
    7.8929    3.7598   -2.8051 C   0  0  0  0  0  0  0  0  0  0  0  0
    9.0386    3.0177   -2.1817 C   0  0  0  0  0  0  0  0  0  0  0  0
   10.0145    2.5790   -3.2705 C   0  0  0  0  0  0  0  0  0  0  0  0
    7.8948    5.0914   -3.2218 C   0  0  0  0  0  0  0  0  0  0  0  0
    9.2508    6.1787   -3.0045 Cl  0  0  0  0  0  0  0  0  0  0  0  0
    6.6990    5.4666   -3.8664 C   0  0  0  0  0  0  0  0  0  0  0  0
    6.4030    7.0890   -4.4842 Cl  0  0  0  0  0  0  0  0  0  0  0  0
    3.5672    5.5254   -4.1576 C   0  0  0  0  0  0  0  0  0  0  0  0
    2.3678    5.7894   -4.8167 C   0  0  0  0  0  0  0  0  0  0  0  0
    2.0392    5.1069   -5.9893 C   0  0  0  0  0  0  0  0  0  0  0  0
    0.9014    5.5104   -6.8170 C   0  0  0  0  0  0  0  0  0  0  0  0
   -0.7231    5.3183   -6.4480 S   0  0  0  0  0  0  0  0  0  0  0  0
   -1.2992    6.1825   -7.7753 C   0  0  0  0  0  0  0  0  0  0  0  0
   -2.7563    6.3904   -8.1046 C   0  0  0  0  0  0  0  0  0  0  0  0
   -3.4476    5.0773   -8.4311 C   0  0  0  0  0  0  0  0  0  0  0  0
   -0.2139    6.6171   -8.5327 C   0  0  0  0  0  0  0  0  0  0  0  0
    1.0226    6.2328   -7.9876 C   0  0  0  0  0  0  0  0  0  0  0  0
    2.5864    6.6311   -8.6697 Cl  0  0  0  0  0  0  0  0  0  0  0  0
   -0.3449    7.5784   -9.9987 Cl  0  0  0  0  0  0  0  0  0  0  0  0
    2.8922    4.0659   -6.3945 C   0  0  0  0  0  0  0  0  0  0  0  0
    2.5206    2.8011   -7.4340 S   0  0  0  0  0  0  0  0  0  0  0  0
    1.4893    6.5921   -4.0660 C   0  0  0  0  0  0  0  0  0  0  0  0
    1.9710    6.8968   -2.7834 C   0  0  0  0  0  0  0  0  0  0  0  0
    3.5318    6.2636   -2.6466 S   0  0  0  0  0  0  0  0  0  0  0  0
    1.0688    7.1408   -1.6391 C   0  0  0  0  0  0  0  0  0  0  0  0
    1.3400    6.7179   -0.3315 C   0  0  0  0  0  0  0  0  0  0  0  0
    0.1769    6.4832    0.4412 C   0  0  0  0  0  0  0  0  0  0  0  0
    0.1117    5.8541    1.6999 C   0  0  0  0  0  0  0  0  0  0  0  0
    1.3174    5.5435    2.4904 C   0  0  0  0  0  0  0  0  0  0  0  0
    2.6643    4.6901    1.9550 S   0  0  0  0  0  0  0  0  0  0  0  0
    3.6013    4.8931    3.3366 C   0  0  0  0  0  0  0  0  0  0  0  0
    5.0171    4.4360    3.5059 C   0  0  0  0  0  0  0  0  0  0  0  0
    5.9913    5.5975    3.3003 C   0  0  0  0  0  0  0  0  0  0  0  0
    2.8542    5.6413    4.2438 C   0  0  0  0  0  0  0  0  0  0  0  0
    3.4524    6.1073    5.8307 Cl  0  0  0  0  0  0  0  0  0  0  0  0
    1.5787    5.9968    3.7783 C   0  0  0  0  0  0  0  0  0  0  0  0
    0.4398    6.9648    4.7022 Cl  0  0  0  0  0  0  0  0  0  0  0  0
   -1.1697    5.4803    2.1748 C   0  0  0  0  0  0  0  0  0  0  0  0
   -2.3198    5.7398    1.4525 C   0  0  0  0  0  0  0  0  0  0  0  0
   -2.2608    6.4330    0.2322 C   0  0  0  0  0  0  0  0  0  0  0  0
   -3.4287    6.6365   -0.6401 C   0  0  0  0  0  0  0  0  0  0  0  0
   -3.9953    8.1393   -1.1310 S   0  0  0  0  0  0  0  0  0  0  0  0
   -5.0481    7.5645   -2.3084 C   0  0  0  0  0  0  0  0  0  0  0  0
   -5.9359    8.4224   -3.1591 C   0  0  0  0  0  0  0  0  0  0  0  0
   -7.3431    8.4705   -2.5739 C   0  0  0  0  0  0  0  0  0  0  0  0
   -4.9683    6.1789   -2.3313 C   0  0  0  0  0  0  0  0  0  0  0  0
   -4.0545    5.6521   -1.3993 C   0  0  0  0  0  0  0  0  0  0  0  0
   -3.6701    3.9452   -1.2897 Cl  0  0  0  0  0  0  0  0  0  0  0  0
   -5.8913    5.1720   -3.4398 Cl  0  0  0  0  0  0  0  0  0  0  0  0
   -0.9910    6.7895   -0.2470 C   0  0  0  0  0  0  0  0  0  0  0  0
   -0.6056    7.3148   -1.7962 S   0  0  0  0  0  0  0  0  0  0  0  0
   -3.4740    5.1423    1.9896 C   0  0  0  0  0  0  0  0  0  0  0  0
   -3.2209    4.3875    3.1336 C   0  0  0  0  0  0  0  0  0  0  0  0
   -1.5726    4.4962    3.4904 S   0  0  0  0  0  0  0  0  0  0  0  0
   -4.1772    3.4322    3.7305 C   0  0  0  0  0  0  0  0  0  0  0  0
   -5.3862    3.0519    3.1490 C   0  0  0  0  0  0  0  0  0  0  0  0
   -6.0063    1.9625    3.7955 C   0  0  0  0  0  0  0  0  0  0  0  0
   -7.1309    1.2798    3.3201 C   0  0  0  0  0  0  0  0  0  0  0  0
   -7.6414    1.5474    1.9762 C   0  0  0  0  0  0  0  0  0  0  0  0
   -8.5501    2.8826    1.4965 S   0  0  0  0  0  0  0  0  0  0  0  0
   -8.4393    2.5950   -0.1573 C   0  0  0  0  0  0  0  0  0  0  0  0
   -9.1365    3.3904   -1.2186 C   0  0  0  0  0  0  0  0  0  0  0  0
  -10.5607    2.8945   -1.4274 C   0  0  0  0  0  0  0  0  0  0  0  0
   -7.6904    1.4391   -0.3524 C   0  0  0  0  0  0  0  0  0  0  0  0
   -7.3341    0.7600   -1.9347 Cl  0  0  0  0  0  0  0  0  0  0  0  0
   -7.2456    0.8513    0.8478 C   0  0  0  0  0  0  0  0  0  0  0  0
   -6.2567   -0.6036    0.9341 Cl  0  0  0  0  0  0  0  0  0  0  0  0
   -7.5346    0.1421    4.0315 C   0  0  0  0  0  0  0  0  0  0  0  0
   -6.8639   -0.2985    5.1739 C   0  0  0  0  0  0  0  0  0  0  0  0
   -5.6944    0.3460    5.6256 C   0  0  0  0  0  0  0  0  0  0  0  0
   -4.7894   -0.2494    6.6204 C   0  0  0  0  0  0  0  0  0  0  0  0
   -3.2000   -0.6866    6.3219 S   0  0  0  0  0  0  0  0  0  0  0  0
   -2.8358   -1.2071    7.8791 C   0  0  0  0  0  0  0  0  0  0  0  0
   -1.4763   -1.6601    8.3317 C   0  0  0  0  0  0  0  0  0  0  0  0
   -1.4299   -3.1621    8.5900 C   0  0  0  0  0  0  0  0  0  0  0  0
   -3.9754   -1.0442    8.6690 C   0  0  0  0  0  0  0  0  0  0  0  0
   -5.0698   -0.5016    7.9641 C   0  0  0  0  0  0  0  0  0  0  0  0
   -6.5665   -0.0543    8.7481 Cl  0  0  0  0  0  0  0  0  0  0  0  0
   -4.0282   -1.4222   10.3794 Cl  0  0  0  0  0  0  0  0  0  0  0  0
   -5.2956    1.4953    4.9002 C   0  0  0  0  0  0  0  0  0  0  0  0
   -3.8954    2.4260    5.0572 S   0  0  0  0  0  0  0  0  0  0  0  0
   -7.4056   -1.4896    5.6867 C   0  0  0  0  0  0  0  0  0  0  0  0
   -8.4857   -1.9813    4.9439 C   0  0  0  0  0  0  0  0  0  0  0  0
   -8.7387   -0.9547    3.6350 S   0  0  0  0  0  0  0  0  0  0  0  0
    2.9549  -10.4367    8.3344 H   0  0  0  0  0  0  0  0  0  0  0  0
    2.1506   -7.9995    8.0577 H   0  0  0  0  0  0  0  0  0  0  0  0
    6.4181   -5.2145    6.8455 H   0  0  0  0  0  0  0  0  0  0  0  0
    5.4668   -5.2564    8.3647 H   0  0  0  0  0  0  0  0  0  0  0  0
    5.1678   -2.8358    8.3735 H   0  0  0  0  0  0  0  0  0  0  0  0
    6.9153   -3.1943    8.0935 H   0  0  0  0  0  0  0  0  0  0  0  0
    5.8854   -2.6770    6.7200 H   0  0  0  0  0  0  0  0  0  0  0  0
   -3.7790  -12.0992    1.1513 H   0  0  0  0  0  0  0  0  0  0  0  0
   -4.5319  -12.8545    2.6034 H   0  0  0  0  0  0  0  0  0  0  0  0
   -5.6355  -10.6984    2.0436 H   0  0  0  0  0  0  0  0  0  0  0  0
   -4.7586  -10.5289    3.6177 H   0  0  0  0  0  0  0  0  0  0  0  0
   -4.0767   -9.8334    2.0838 H   0  0  0  0  0  0  0  0  0  0  0  0
   -0.0084   -9.0517    1.4565 H   0  0  0  0  0  0  0  0  0  0  0  0
   -1.9431   -8.6151    0.2348 H   0  0  0  0  0  0  0  0  0  0  0  0
   -2.4272   -8.1379   -1.4209 H   0  0  0  0  0  0  0  0  0  0  0  0
    0.1264   -9.7394   -0.7616 H   0  0  0  0  0  0  0  0  0  0  0  0
   -1.4344  -10.4552   -1.2895 H   0  0  0  0  0  0  0  0  0  0  0  0
   -0.5102   -9.3636   -2.4053 H   0  0  0  0  0  0  0  0  0  0  0  0
    3.1532   -4.6029   -2.3335 H   0  0  0  0  0  0  0  0  0  0  0  0
    9.0875   -3.0820   -1.8637 H   0  0  0  0  0  0  0  0  0  0  0  0
    7.7941   -2.7746   -0.6447 H   0  0  0  0  0  0  0  0  0  0  0  0
    7.2962   -5.2084   -0.5248 H   0  0  0  0  0  0  0  0  0  0  0  0
    8.5528   -5.5424   -1.7760 H   0  0  0  0  0  0  0  0  0  0  0  0
    9.0409   -4.8894   -0.1646 H   0  0  0  0  0  0  0  0  0  0  0  0
   -3.8400   -3.7308   -7.6594 H   0  0  0  0  0  0  0  0  0  0  0  0
   -4.6274   -2.1861   -7.1654 H   0  0  0  0  0  0  0  0  0  0  0  0
   -4.8006   -2.5362   -9.6281 H   0  0  0  0  0  0  0  0  0  0  0  0
   -2.9991   -2.6387   -9.7581 H   0  0  0  0  0  0  0  0  0  0  0  0
   -3.7732   -1.0889   -9.2477 H   0  0  0  0  0  0  0  0  0  0  0  0
    1.5558    0.1292   -7.3186 H   0  0  0  0  0  0  0  0  0  0  0  0
    5.4288    2.0564   -5.5372 H   0  0  0  0  0  0  0  0  0  0  0  0
    9.5612    3.6673   -1.4454 H   0  0  0  0  0  0  0  0  0  0  0  0
    8.6514    2.1213   -1.6622 H   0  0  0  0  0  0  0  0  0  0  0  0
   10.3998    3.4669   -3.8209 H   0  0  0  0  0  0  0  0  0  0  0  0
    9.5070    1.9026   -3.9998 H   0  0  0  0  0  0  0  0  0  0  0  0
   10.8622    2.0314   -2.8144 H   0  0  0  0  0  0  0  0  0  0  0  0
   -3.2521    6.8730   -7.2361 H   0  0  0  0  0  0  0  0  0  0  0  0
   -2.8570    7.0696   -8.9736 H   0  0  0  0  0  0  0  0  0  0  0  0
   -4.4827    5.2729   -8.7688 H   0  0  0  0  0  0  0  0  0  0  0  0
   -3.4790    4.4307   -7.5258 H   0  0  0  0  0  0  0  0  0  0  0  0
   -2.8975    4.5496   -9.2403 H   0  0  0  0  0  0  0  0  0  0  0  0
    0.4816    6.8076   -4.3862 H   0  0  0  0  0  0  0  0  0  0  0  0
    2.3241    6.4577   -0.0150 H   0  0  0  0  0  0  0  0  0  0  0  0
    5.1613    3.9993    4.5238 H   0  0  0  0  0  0  0  0  0  0  0  0
    5.2405    3.6495    2.7508 H   0  0  0  0  0  0  0  0  0  0  0  0
    5.8894    6.0119    2.2737 H   0  0  0  0  0  0  0  0  0  0  0  0
    5.7981    6.4059    4.0341 H   0  0  0  0  0  0  0  0  0  0  0  0
    7.0293    5.2421    3.4398 H   0  0  0  0  0  0  0  0  0  0  0  0
   -5.9776    8.0155   -4.1898 H   0  0  0  0  0  0  0  0  0  0  0  0
   -5.5192    9.4523   -3.1973 H   0  0  0  0  0  0  0  0  0  0  0  0
   -8.0022    9.0499   -3.2487 H   0  0  0  0  0  0  0  0  0  0  0  0
   -7.7517    7.4430   -2.4655 H   0  0  0  0  0  0  0  0  0  0  0  0
   -7.3218    8.9651   -1.5778 H   0  0  0  0  0  0  0  0  0  0  0  0
   -4.4444    5.2121    1.5292 H   0  0  0  0  0  0  0  0  0  0  0  0
   -5.7792    3.4957    2.2489 H   0  0  0  0  0  0  0  0  0  0  0  0
   -9.1588    4.4577   -0.9221 H   0  0  0  0  0  0  0  0  0  0  0  0
   -8.5812    3.3240   -2.1870 H   0  0  0  0  0  0  0  0  0  0  0  0
  -11.1184    2.9613   -0.4638 H   0  0  0  0  0  0  0  0  0  0  0  0
  -11.0750    3.5123   -2.1923 H   0  0  0  0  0  0  0  0  0  0  0  0
  -10.5391    1.8360   -1.7558 H   0  0  0  0  0  0  0  0  0  0  0  0
   -0.7382   -1.4123    7.5380 H   0  0  0  0  0  0  0  0  0  0  0  0
   -1.1845   -1.1118    9.2582 H   0  0  0  0  0  0  0  0  0  0  0  0
   -1.7079   -3.7190    7.6636 H   0  0  0  0  0  0  0  0  0  0  0  0
   -2.1199   -3.4346    9.4169 H   0  0  0  0  0  0  0  0  0  0  0  0
   -0.3916   -3.4535    8.8612 H   0  0  0  0  0  0  0  0  0  0  0  0
   -7.0271   -2.0133    6.5563 H   0  0  0  0  0  0  0  0  0  0  0  0
   -9.0366   -2.8830    5.1726 H   0  0  0  0  0  0  0  0  0  0  0  0
  1  2  2  0
  2  3  1  0
  3  4  2  0
  4  5  1  0
  5  6  1  0
  6  7  1  0
  7  8  1  0
  8  9  1  0
  7 10  2  0
 10 11  1  0
 10 12  1  0
 12 13  1  0
  4 14  1  0
 14 15  2  0
 15 16  1  0
 16 17  1  0
 17 18  1  0
 18 19  1  0
 19 20  1  0
 20 21  1  0
 19 22  2  0
 22 23  1  0
 23 24  1  0
 22 25  1  0
 16 26  2  0
 26 27  1  0
 15 28  1  0
 28 29  2  0
 29 30  1  0
 29 31  1  0
 31 32  2  0
 32 33  1  0
 33 34  1  0
 32 35  1  0
 35 36  2  0
 36 37  1  0
 36 38  1  0
 38 39  2  0
 39 40  1  0
 40 41  2  0
 41 42  1  0
 42 43  1  0
 43 44  1  0
 44 45  1  0
 45 46  1  0
 44 47  2  0
 47 48  1  0
 47 49  1  0
 49 50  1  0
 41 51  1  0
 51 52  2  0
 52 53  1  0
 53 54  1  0
 54 55  1  0
 55 56  1  0
 56 57  1  0
 57 58  1  0
 56 59  2  0
 59 60  1  0
 60 61  1  0
 59 62  1  0
 53 63  2  0
 63 64  1  0
 52 65  1  0
 65 66  2  0
 66 67  1  0
 66 68  1  0
 68 69  2  0
 69 70  1  0
 70 71  2  0
 71 72  1  0
 72 73  1  0
 73 74  1  0
 74 75  1  0
 75 76  1  0
 74 77  2  0
 77 78  1  0
 77 79  1  0
 79 80  1  0
 71 81  1  0
 81 82  2  0
 82 83  1  0
 83 84  1  0
 84 85  1  0
 85 86  1  0
 86 87  1  0
 87 88  1  0
 86 89  2  0
 89 90  1  0
 90 91  1  0
 89 92  1  0
 83 93  2  0
 93 94  1  0
 82 95  1  0
 95 96  2  0
 96 97  1  0
 96 98  1  0
 98 99  2  0
 99100  1  0
100101  2  0
101102  1  0
102103  1  0
103104  1  0
104105  1  0
105106  1  0
104107  2  0
107108  1  0
107109  1  0
109110  1  0
101111  1  0
111112  2  0
112113  1  0
113114  1  0
114115  1  0
115116  1  0
116117  1  0
117118  1  0
116119  2  0
119120  1  0
120121  1  0
119122  1  0
113123  2  0
123124  1  0
112125  1  0
125126  2  0
126127  1  0
126128  1  0
128129  2  0
129130  1  0
130131  2  0
131132  1  0
132133  1  0
133134  1  0
134135  1  0
135136  1  0
134137  2  0
137138  1  0
137139  1  0
139140  1  0
131141  1  0
141142  2  0
142143  1  0
143144  1  0
144145  1  0
145146  1  0
146147  1  0
147148  1  0
146149  2  0
149150  1  0
150151  1  0
149152  1  0
143153  2  0
153154  1  0
142155  1  0
155156  2  0
156157  1  0
 27  1  1  0
 37 31  1  0
 64 38  1  0
 94 68  1  0
124 98  1  0
154128  1  0
 26  3  1  0
 63 40  1  0
 93 70  1  0
123100  1  0
153130  1  0
 12  5  2  0
 30 14  1  0
 49 42  2  0
 67 51  1  0
 79 72  2  0
 97 81  1  0
109102  2  0
127111  1  0
139132  2  0
157141  1  0
 23 17  2  0
 60 54  2  0
 90 84  2  0
120114  2  0
150144  2  0
  1158  1  0
  2159  1  0
  8160  1  0
  8161  1  0
  9162  1  0
  9163  1  0
  9164  1  0
 20165  1  0
 20166  1  0
 21167  1  0
 21168  1  0
 21169  1  0
 28170  1  0
 33171  1  0
 33172  1  0
 34173  1  0
 34174  1  0
 34175  1  0
 39176  1  0
 45177  1  0
 45178  1  0
 46179  1  0
 46180  1  0
 46181  1  0
 57182  1  0
 57183  1  0
 58184  1  0
 58185  1  0
 58186  1  0
 65187  1  0
 69188  1  0
 75189  1  0
 75190  1  0
 76191  1  0
 76192  1  0
 76193  1  0
 87194  1  0
 87195  1  0
 88196  1  0
 88197  1  0
 88198  1  0
 95199  1  0
 99200  1  0
105201  1  0
105202  1  0
106203  1  0
106204  1  0
106205  1  0
117206  1  0
117207  1  0
118208  1  0
118209  1  0
118210  1  0
125211  1  0
129212  1  0
135213  1  0
135214  1  0
136215  1  0
136216  1  0
136217  1  0
147218  1  0
147219  1  0
148220  1  0
148221  1  0
148222  1  0
155223  1  0
156224  1  0
M  END

