
     RDKit          3D

154167  0  0  0  0  0  0  0  0999 V2000
   -3.8977    7.6957   -0.0125 C   0  0  0  0  0  0  0  0  0  0  0  0
   -5.2639    7.3327   -0.9303 S   0  0  0  0  0  0  0  0  0  0  0  0
   -4.4768    7.3172   -2.4118 C   0  0  0  0  0  0  0  0  0  0  0  0
   -3.1288    7.5749   -2.2122 C   0  0  0  0  0  0  0  0  0  0  0  0
   -2.8085    7.8003   -0.8687 C   0  0  0  0  0  0  0  0  0  0  0  0
   -5.0664    6.9163   -3.6600 C   0  0  0  0  0  0  0  0  0  0  0  0
   -5.5064    6.5106   -4.7068 C   0  0  0  0  0  0  0  0  0  0  0  0
   -5.9788    5.9513   -5.9460 C   0  0  0  0  0  0  0  0  0  0  0  0
   -5.6486    4.7201   -6.3679 C   0  0  0  0  0  0  0  0  0  0  0  0
   -4.7249    3.7902   -5.6740 C   0  0  0  0  0  0  0  0  0  0  0  0
   -4.7478    2.4029   -5.8249 C   0  0  0  0  0  0  0  0  0  0  0  0
   -3.8130    1.7330   -5.0062 C   0  0  0  0  0  0  0  0  0  0  0  0
   -3.6828    0.3315   -4.8416 C   0  0  0  0  0  0  0  0  0  0  0  0
   -4.6274   -0.6031   -5.4978 C   0  0  0  0  0  0  0  0  0  0  0  0
   -4.7470   -0.6410   -6.8957 C   0  0  0  0  0  0  0  0  0  0  0  0
   -5.7720   -1.3776   -7.4993 C   0  0  0  0  0  0  0  0  0  0  0  0
   -6.6815   -2.0931   -6.7101 C   0  0  0  0  0  0  0  0  0  0  0  0
   -8.0360   -2.9739   -7.4975 S   0  0  0  0  0  0  0  0  0  0  0  0
   -9.2984   -1.6935   -7.1404 C   0  0  0  0  0  0  0  0  0  0  0  0
   -9.1179   -0.4630   -8.0237 C   0  0  0  0  0  0  0  0  0  0  0  0
   -6.5293   -2.1089   -5.3175 C   0  0  0  0  0  0  0  0  0  0  0  0
   -7.4059   -2.7956   -4.5392 F   0  0  0  0  0  0  0  0  0  0  0  0
   -5.5191   -1.3553   -4.7133 C   0  0  0  0  0  0  0  0  0  0  0  0
   -2.7455   -0.1090   -3.8815 C   0  0  0  0  0  0  0  0  0  0  0  0
   -2.0280    0.7796   -3.0720 C   0  0  0  0  0  0  0  0  0  0  0  0
   -2.2050    2.1758   -3.1961 C   0  0  0  0  0  0  0  0  0  0  0  0
   -1.7772    3.0962   -2.1182 C   0  0  0  0  0  0  0  0  0  0  0  0
   -2.7588    3.7454   -1.3502 C   0  0  0  0  0  0  0  0  0  0  0  0
   -2.4268    4.3335   -0.1328 C   0  0  0  0  0  0  0  0  0  0  0  0
   -1.1201    4.2379    0.3481 C   0  0  0  0  0  0  0  0  0  0  0  0
   -0.7979    4.5939    2.0741 S   0  0  0  0  0  0  0  0  0  0  0  0
   -1.6419    3.0903    2.7212 C   0  0  0  0  0  0  0  0  0  0  0  0
   -1.1269    1.7873    2.1075 C   0  0  0  0  0  0  0  0  0  0  0  0
   -0.1119    3.7027   -0.4642 C   0  0  0  0  0  0  0  0  0  0  0  0
   -0.4346    3.1596   -1.7118 C   0  0  0  0  0  0  0  0  0  0  0  0
    1.1652    3.6161   -0.0081 F   0  0  0  0  0  0  0  0  0  0  0  0
   -3.0681    2.6105   -4.2130 C   0  0  0  0  0  0  0  0  0  0  0  0
   -3.5329    4.1843   -4.5467 S   0  0  0  0  0  0  0  0  0  0  0  0
   -1.2797    0.1305   -2.0757 C   0  0  0  0  0  0  0  0  0  0  0  0
   -1.3724   -1.2534   -2.1278 C   0  0  0  0  0  0  0  0  0  0  0  0
   -2.4384   -1.6880   -3.3605 S   0  0  0  0  0  0  0  0  0  0  0  0
   -0.9247   -2.1117   -1.0333 C   0  0  0  0  0  0  0  0  0  0  0  0
   -1.6464   -2.1027    0.4844 S   0  0  0  0  0  0  0  0  0  0  0  0
   -0.3912   -2.8755    1.2834 C   0  0  0  0  0  0  0  0  0  0  0  0
    0.6371   -3.1204    0.3839 C   0  0  0  0  0  0  0  0  0  0  0  0
    0.3411   -2.6839   -0.9171 C   0  0  0  0  0  0  0  0  0  0  0  0
   -0.3705   -3.1189    2.6992 C   0  0  0  0  0  0  0  0  0  0  0  0
   -0.4143   -3.3005    3.8904 C   0  0  0  0  0  0  0  0  0  0  0  0
   -0.5412   -3.5022    5.3126 C   0  0  0  0  0  0  0  0  0  0  0  0
   -0.6652   -2.4979    6.1889 C   0  0  0  0  0  0  0  0  0  0  0  0
   -0.4761   -1.0674    5.8740 C   0  0  0  0  0  0  0  0  0  0  0  0
    0.6271   -0.4259    4.7749 S   0  0  0  0  0  0  0  0  0  0  0  0
    0.3941    1.1743    5.2186 C   0  0  0  0  0  0  0  0  0  0  0  0
   -0.5451    1.2427    6.2378 C   0  0  0  0  0  0  0  0  0  0  0  0
   -1.0232   -0.0186    6.6135 C   0  0  0  0  0  0  0  0  0  0  0  0
    1.0878    2.2727    4.6128 C   0  0  0  0  0  0  0  0  0  0  0  0
    1.7033    3.1052    3.9933 C   0  0  0  0  0  0  0  0  0  0  0  0
    2.4707    3.9658    3.1313 C   0  0  0  0  0  0  0  0  0  0  0  0
    3.3488    3.4603    2.2545 C   0  0  0  0  0  0  0  0  0  0  0  0
    3.7432    2.0330    2.2365 C   0  0  0  0  0  0  0  0  0  0  0  0
    3.9110    1.2432    1.0988 C   0  0  0  0  0  0  0  0  0  0  0  0
    4.1863   -0.1036    1.4100 C   0  0  0  0  0  0  0  0  0  0  0  0
    4.3450   -1.1665    0.4968 C   0  0  0  0  0  0  0  0  0  0  0  0
    4.2905   -0.9600   -0.9634 C   0  0  0  0  0  0  0  0  0  0  0  0
    3.0980   -0.5658   -1.5863 C   0  0  0  0  0  0  0  0  0  0  0  0
    3.0495   -0.4000   -2.9747 C   0  0  0  0  0  0  0  0  0  0  0  0
    4.1987   -0.6026   -3.7484 C   0  0  0  0  0  0  0  0  0  0  0  0
    4.1221   -0.4103   -5.5296 S   0  0  0  0  0  0  0  0  0  0  0  0
    4.5877    1.3602   -5.5260 C   0  0  0  0  0  0  0  0  0  0  0  0
    3.3838    2.2445   -5.2102 C   0  0  0  0  0  0  0  0  0  0  0  0
    5.3963   -0.9848   -3.1285 C   0  0  0  0  0  0  0  0  0  0  0  0
    6.5162   -1.1942   -3.8665 F   0  0  0  0  0  0  0  0  0  0  0  0
    5.4419   -1.1672   -1.7423 C   0  0  0  0  0  0  0  0  0  0  0  0
    4.5751   -2.4455    1.0394 C   0  0  0  0  0  0  0  0  0  0  0  0
    4.6549   -2.6803    2.4178 C   0  0  0  0  0  0  0  0  0  0  0  0
    4.5065   -1.6183    3.3304 C   0  0  0  0  0  0  0  0  0  0  0  0
    4.4857   -1.8211    4.7973 C   0  0  0  0  0  0  0  0  0  0  0  0
    5.3687   -1.1067    5.6224 C   0  0  0  0  0  0  0  0  0  0  0  0
    5.2215   -1.1399    7.0111 C   0  0  0  0  0  0  0  0  0  0  0  0
    4.1900   -1.8848    7.5895 C   0  0  0  0  0  0  0  0  0  0  0  0
    3.9136   -1.7994    9.3621 S   0  0  0  0  0  0  0  0  0  0  0  0
    3.0401   -0.1901    9.3140 C   0  0  0  0  0  0  0  0  0  0  0  0
    1.6639   -0.3131    8.6756 C   0  0  0  0  0  0  0  0  0  0  0  0
    3.3506   -2.6593    6.7769 C   0  0  0  0  0  0  0  0  0  0  0  0
    3.4944   -2.6210    5.3844 C   0  0  0  0  0  0  0  0  0  0  0  0
    2.3590   -3.4054    7.3244 F   0  0  0  0  0  0  0  0  0  0  0  0
    4.2815   -0.3452    2.7848 C   0  0  0  0  0  0  0  0  0  0  0  0
    4.0121    1.0862    3.6080 S   0  0  0  0  0  0  0  0  0  0  0  0
    4.8991   -4.0251    2.7388 C   0  0  0  0  0  0  0  0  0  0  0  0
    4.9798   -4.8421    1.6120 C   0  0  0  0  0  0  0  0  0  0  0  0
    4.7652   -3.9058    0.2241 S   0  0  0  0  0  0  0  0  0  0  0  0
    5.2162   -6.2941    1.6273 C   0  0  0  0  0  0  0  0  0  0  0  0
    5.6636   -7.1926    2.9826 S   0  0  0  0  0  0  0  0  0  0  0  0
    5.7143   -8.6738    2.1891 C   0  0  0  0  0  0  0  0  0  0  0  0
    5.3721   -8.4904    0.8580 C   0  0  0  0  0  0  0  0  0  0  0  0
    5.0914   -7.1542    0.5411 C   0  0  0  0  0  0  0  0  0  0  0  0
    6.0615   -9.9262    2.7971 C   0  0  0  0  0  0  0  0  0  0  0  0
    6.3584  -10.9859    3.2834 C   0  0  0  0  0  0  0  0  0  0  0  0
    6.7120  -12.2481    3.8689 C   0  0  0  0  0  0  0  0  0  0  0  0
    7.4669  -12.3067    4.9611 C   0  0  0  0  0  0  0  0  0  0  0  0
   -3.8691    7.8121    1.0633 H   0  0  0  0  0  0  0  0  0  0  0  0
   -2.3943    7.5800   -3.0087 H   0  0  0  0  0  0  0  0  0  0  0  0
   -1.8078    8.0223   -0.5315 H   0  0  0  0  0  0  0  0  0  0  0  0
   -6.6797    6.5317   -6.5258 H   0  0  0  0  0  0  0  0  0  0  0  0
   -6.1373    4.3486   -7.2585 H   0  0  0  0  0  0  0  0  0  0  0  0
   -5.4570    1.9077   -6.4761 H   0  0  0  0  0  0  0  0  0  0  0  0
   -4.0716   -0.0691   -7.5204 H   0  0  0  0  0  0  0  0  0  0  0  0
   -5.8803   -1.3698   -8.5780 H   0  0  0  0  0  0  0  0  0  0  0  0
  -10.2954   -2.1366   -7.3486 H   0  0  0  0  0  0  0  0  0  0  0  0
   -9.2702   -1.4062   -6.0663 H   0  0  0  0  0  0  0  0  0  0  0  0
   -8.2159    0.1050   -7.7159 H   0  0  0  0  0  0  0  0  0  0  0  0
   -9.0162   -0.7709   -9.0840 H   0  0  0  0  0  0  0  0  0  0  0  0
  -10.0031    0.1993   -7.9247 H   0  0  0  0  0  0  0  0  0  0  0  0
   -5.4626   -1.3180   -3.6340 H   0  0  0  0  0  0  0  0  0  0  0  0
   -3.8001    3.7057   -1.6334 H   0  0  0  0  0  0  0  0  0  0  0  0
   -3.2064    4.7429    0.4930 H   0  0  0  0  0  0  0  0  0  0  0  0
   -1.4778    3.0618    3.8183 H   0  0  0  0  0  0  0  0  0  0  0  0
   -2.7349    3.1726    2.5545 H   0  0  0  0  0  0  0  0  0  0  0  0
   -1.5277    1.6557    1.0817 H   0  0  0  0  0  0  0  0  0  0  0  0
   -1.4737    0.9242    2.7164 H   0  0  0  0  0  0  0  0  0  0  0  0
   -0.0171    1.7715    2.0632 H   0  0  0  0  0  0  0  0  0  0  0  0
    0.3339    2.6742   -2.2981 H   0  0  0  0  0  0  0  0  0  0  0  0
   -0.7337    0.6309   -1.2875 H   0  0  0  0  0  0  0  0  0  0  0  0
    1.5872   -3.5597    0.6688 H   0  0  0  0  0  0  0  0  0  0  0  0
    1.0582   -2.7230   -1.7276 H   0  0  0  0  0  0  0  0  0  0  0  0
   -0.6773   -4.5167    5.6631 H   0  0  0  0  0  0  0  0  0  0  0  0
   -0.9277   -2.7472    7.2136 H   0  0  0  0  0  0  0  0  0  0  0  0
   -0.8537    2.1670    6.7104 H   0  0  0  0  0  0  0  0  0  0  0  0
   -1.7328   -0.1611    7.4201 H   0  0  0  0  0  0  0  0  0  0  0  0
    2.2060    5.0137    3.0772 H   0  0  0  0  0  0  0  0  0  0  0  0
    3.7468    4.1148    1.4886 H   0  0  0  0  0  0  0  0  0  0  0  0
    3.7819    1.6233    0.0981 H   0  0  0  0  0  0  0  0  0  0  0  0
    2.2060   -0.3984   -1.0010 H   0  0  0  0  0  0  0  0  0  0  0  0
    2.1171   -0.1289   -3.4464 H   0  0  0  0  0  0  0  0  0  0  0  0
    5.4048    1.5523   -4.7989 H   0  0  0  0  0  0  0  0  0  0  0  0
    4.9629    1.6195   -6.5407 H   0  0  0  0  0  0  0  0  0  0  0  0
    2.5260    1.9702   -5.8592 H   0  0  0  0  0  0  0  0  0  0  0  0
    3.6455    3.3070   -5.3946 H   0  0  0  0  0  0  0  0  0  0  0  0
    3.0921    2.1346   -4.1437 H   0  0  0  0  0  0  0  0  0  0  0  0
    6.3702   -1.4643   -1.2718 H   0  0  0  0  0  0  0  0  0  0  0  0
    6.1391   -0.4871    5.1849 H   0  0  0  0  0  0  0  0  0  0  0  0
    5.8737   -0.5391    7.6287 H   0  0  0  0  0  0  0  0  0  0  0  0
    3.6435    0.5620    8.7601 H   0  0  0  0  0  0  0  0  0  0  0  0
    2.9178    0.1708   10.3562 H   0  0  0  0  0  0  0  0  0  0  0  0
    1.7633   -0.5437    7.5964 H   0  0  0  0  0  0  0  0  0  0  0  0
    1.0751   -1.1159    9.1693 H   0  0  0  0  0  0  0  0  0  0  0  0
    1.1172    0.6467    8.7720 H   0  0  0  0  0  0  0  0  0  0  0  0
    2.7959   -3.1733    4.7646 H   0  0  0  0  0  0  0  0  0  0  0  0
    5.0112   -4.3926    3.7499 H   0  0  0  0  0  0  0  0  0  0  0  0
    5.3209   -9.2927    0.1358 H   0  0  0  0  0  0  0  0  0  0  0  0
    4.8078   -6.8353   -0.4555 H   0  0  0  0  0  0  0  0  0  0  0  0
    6.3579  -13.1637    3.4099 H   0  0  0  0  0  0  0  0  0  0  0  0
    7.8391  -11.4061    5.4349 H   0  0  0  0  0  0  0  0  0  0  0  0
    7.7310  -13.2680    5.3807 H   0  0  0  0  0  0  0  0  0  0  0  0
  1  2  1  0
  2  3  1  0
  3  4  2  0
  4  5  1  0
  3  6  1  0
  6  7  3  0
  7  8  1  0
  8  9  2  3
  9 10  1  0
 10 11  2  0
 11 12  1  0
 12 13  2  0
 13 14  1  0
 14 15  2  0
 15 16  1  0
 16 17  2  0
 17 18  1  0
 18 19  1  0
 19 20  1  0
 17 21  1  0
 21 22  1  0
 21 23  2  0
 13 24  1  0
 24 25  2  0
 25 26  1  0
 26 27  1  0
 27 28  2  0
 28 29  1  0
 29 30  2  0
 30 31  1  0
 31 32  1  0
 32 33  1  0
 30 34  1  0
 34 35  2  0
 34 36  1  0
 26 37  2  0
 37 38  1  0
 25 39  1  0
 39 40  2  0
 40 41  1  0
 40 42  1  0
 42 43  1  0
 43 44  1  0
 44 45  2  0
 45 46  1  0
 44 47  1  0
 47 48  3  0
 48 49  1  0
 49 50  2  3
 50 51  1  0
 51 52  1  0
 52 53  1  0
 53 54  2  0
 54 55  1  0
 53 56  1  0
 56 57  3  0
 57 58  1  0
 58 59  2  3
 59 60  1  0
 60 61  2  0
 61 62  1  0
 62 63  2  0
 63 64  1  0
 64 65  2  0
 65 66  1  0
 66 67  2  0
 67 68  1  0
 68 69  1  0
 69 70  1  0
 67 71  1  0
 71 72  1  0
 71 73  2  0
 63 74  1  0
 74 75  2  0
 75 76  1  0
 76 77  1  0
 77 78  2  0
 78 79  1  0
 79 80  2  0
 80 81  1  0
 81 82  1  0
 82 83  1  0
 80 84  1  0
 84 85  2  0
 84 86  1  0
 76 87  2  0
 87 88  1  0
 75 89  1  0
 89 90  2  0
 90 91  1  0
 90 92  1  0
 92 93  1  0
 93 94  1  0
 94 95  2  0
 95 96  1  0
 94 97  1  0
 97 98  3  0
 98 99  1  0
 99100  2  3
  5  1  2  0
 38 10  1  0
 46 42  2  0
 55 51  2  0
 88 60  1  0
 96 92  2  0
 37 12  1  0
 87 62  1  0
 23 14  1  0
 41 24  1  0
 73 64  1  0
 91 74  1  0
 35 27  1  0
 85 77  1  0
  1101  1  0
  4102  1  0
  5103  1  0
  8104  1  0
  9105  1  0
 11106  1  0
 15107  1  0
 16108  1  0
 19109  1  0
 19110  1  0
 20111  1  0
 20112  1  0
 20113  1  0
 23114  1  0
 28115  1  0
 29116  1  0
 32117  1  0
 32118  1  0
 33119  1  0
 33120  1  0
 33121  1  0
 35122  1  0
 39123  1  0
 45124  1  0
 46125  1  0
 49126  1  0
 50127  1  0
 54128  1  0
 55129  1  0
 58130  1  0
 59131  1  0
 61132  1  0
 65133  1  0
 66134  1  0
 69135  1  0
 69136  1  0
 70137  1  0
 70138  1  0
 70139  1  0
 73140  1  0
 78141  1  0
 79142  1  0
 82143  1  0
 82144  1  0
 83145  1  0
 83146  1  0
 83147  1  0
 85148  1  0
 89149  1  0
 95150  1  0
 96151  1  0
 99152  1  0
100153  1  0
100154  1  0
M  END

