
     RDKit          3D

106119  0  0  0  0  0  0  0  0999 V2000
    0.4789   13.3446    0.5749 C   0  0  0  0  0  0  0  0  0  0  0  0
    0.3612   11.6872    0.1513 S   0  0  0  0  0  0  0  0  0  0  0  0
   -0.8212   11.4006    1.2947 C   0  0  0  0  0  0  0  0  0  0  0  0
   -1.5983   10.4069    1.8144 C   0  0  0  0  0  0  0  0  0  0  0  0
   -2.3381   10.9776    2.7964 C   0  0  0  0  0  0  0  0  0  0  0  0
   -2.0726   12.3029    2.9381 N   0  0  0  0  0  0  0  0  0  0  0  0
   -2.5851   13.2352    3.9401 C   0  0  0  0  0  0  0  0  0  0  0  0
   -1.6407   13.2980    5.1355 C   0  0  0  0  0  0  0  0  0  0  0  0
   -1.1231   12.5222    1.9922 C   0  0  0  0  0  0  0  0  0  0  0  0
   -0.4049   13.6535    1.6233 C   0  0  0  0  0  0  0  0  0  0  0  0
   -3.1905   10.1093    3.4683 C   0  0  0  0  0  0  0  0  0  0  0  0
   -3.0821    8.8178    2.9220 C   0  0  0  0  0  0  0  0  0  0  0  0
   -1.9156    8.7729    1.6632 S   0  0  0  0  0  0  0  0  0  0  0  0
   -3.8554    7.6435    3.3488 C   0  0  0  0  0  0  0  0  0  0  0  0
   -3.3566    6.4296    3.3556 O   0  0  0  0  0  0  0  0  0  0  0  0
   -4.2817    5.5951    3.7710 C   0  0  0  0  0  0  0  0  0  0  0  0
   -5.4457    6.2777    4.0622 C   0  0  0  0  0  0  0  0  0  0  0  0
   -5.1751    7.6013    3.7827 C   0  0  0  0  0  0  0  0  0  0  0  0
   -6.1605    8.6941    3.8575 C   0  0  0  0  0  0  0  0  0  0  0  0
   -6.8167    8.8480    4.9218 O   0  0  0  0  0  0  0  0  0  0  0  0
   -6.4423    9.6007    2.6917 C   0  0  0  0  0  0  0  0  0  0  0  0
   -6.0713   10.8934    3.0073 F   0  0  0  0  0  0  0  0  0  0  0  0
   -5.7577    9.1972    1.5590 F   0  0  0  0  0  0  0  0  0  0  0  0
   -7.7977    9.5803    2.4180 F   0  0  0  0  0  0  0  0  0  0  0  0
   -4.0804    4.1482    3.8760 C   0  0  0  0  0  0  0  0  0  0  0  0
   -2.5446    3.4120    4.0624 S   0  0  0  0  0  0  0  0  0  0  0  0
   -3.1932    1.8754    3.9593 C   0  0  0  0  0  0  0  0  0  0  0  0
   -2.7945    0.5939    3.7223 C   0  0  0  0  0  0  0  0  0  0  0  0
   -3.8970   -0.0861    3.3231 C   0  0  0  0  0  0  0  0  0  0  0  0
   -5.0026    0.7020    3.3038 N   0  0  0  0  0  0  0  0  0  0  0  0
   -6.3438    0.3724    2.8238 C   0  0  0  0  0  0  0  0  0  0  0  0
   -7.2151   -0.0940    3.9827 C   0  0  0  0  0  0  0  0  0  0  0  0
   -4.5271    1.9082    3.7127 C   0  0  0  0  0  0  0  0  0  0  0  0
   -5.0832    3.1816    3.6765 C   0  0  0  0  0  0  0  0  0  0  0  0
   -3.6479   -1.3586    2.8179 C   0  0  0  0  0  0  0  0  0  0  0  0
   -2.2691   -1.6348    2.8763 C   0  0  0  0  0  0  0  0  0  0  0  0
   -1.3995   -0.2895    3.4934 S   0  0  0  0  0  0  0  0  0  0  0  0
   -1.6322   -2.8671    2.3932 C   0  0  0  0  0  0  0  0  0  0  0  0
   -2.2274   -3.8364    1.1056 S   0  0  0  0  0  0  0  0  0  0  0  0
   -0.9146   -4.8722    1.1826 C   0  0  0  0  0  0  0  0  0  0  0  0
   -0.2695   -5.8086    0.4239 C   0  0  0  0  0  0  0  0  0  0  0  0
    0.9699   -5.9450    0.9619 C   0  0  0  0  0  0  0  0  0  0  0  0
    1.1589   -5.1369    2.0362 N   0  0  0  0  0  0  0  0  0  0  0  0
    2.4162   -4.8243    2.7134 C   0  0  0  0  0  0  0  0  0  0  0  0
    3.1752   -3.7413    1.9541 C   0  0  0  0  0  0  0  0  0  0  0  0
   -0.0258   -4.4796    2.1316 C   0  0  0  0  0  0  0  0  0  0  0  0
   -0.3830   -3.3349    2.8329 C   0  0  0  0  0  0  0  0  0  0  0  0
    1.8708   -6.6602    0.1833 C   0  0  0  0  0  0  0  0  0  0  0  0
    1.2618   -7.0741   -1.0150 C   0  0  0  0  0  0  0  0  0  0  0  0
   -0.3590   -6.5095   -1.0932 S   0  0  0  0  0  0  0  0  0  0  0  0
    1.9461   -7.8072   -2.0945 C   0  0  0  0  0  0  0  0  0  0  0  0
    1.2775   -8.1105   -3.6490 S   0  0  0  0  0  0  0  0  0  0  0  0
    2.6575   -8.9002   -4.1707 C   0  0  0  0  0  0  0  0  0  0  0  0
    3.2500   -9.3720   -5.3084 C   0  0  0  0  0  0  0  0  0  0  0  0
    4.5353   -9.6522   -4.9796 C   0  0  0  0  0  0  0  0  0  0  0  0
    4.8059   -9.3815   -3.6763 N   0  0  0  0  0  0  0  0  0  0  0  0
    6.1071   -9.3481   -3.0130 C   0  0  0  0  0  0  0  0  0  0  0  0
    6.7650   -7.9861   -3.1992 C   0  0  0  0  0  0  0  0  0  0  0  0
    3.6192   -8.9098   -3.2144 C   0  0  0  0  0  0  0  0  0  0  0  0
    3.2644   -8.2991   -2.0193 C   0  0  0  0  0  0  0  0  0  0  0  0
    5.3552   -9.9813   -6.0518 C   0  0  0  0  0  0  0  0  0  0  0  0
    4.6179   -9.9760   -7.2502 C   0  0  0  0  0  0  0  0  0  0  0  0
    2.9970   -9.4778   -6.9585 S   0  0  0  0  0  0  0  0  0  0  0  0
    5.2347  -10.1741   -8.5743 C   0  0  0  0  0  0  0  0  0  0  0  0
    6.4998   -9.8975   -8.8027 O   0  0  0  0  0  0  0  0  0  0  0  0
    6.7749  -10.1398  -10.0622 C   0  0  0  0  0  0  0  0  0  0  0  0
    5.6468  -10.6025  -10.7026 C   0  0  0  0  0  0  0  0  0  0  0  0
    4.6457  -10.6406   -9.7475 C   0  0  0  0  0  0  0  0  0  0  0  0
    3.2890  -11.1976   -9.9550 C   0  0  0  0  0  0  0  0  0  0  0  0
    2.6251  -11.6220   -8.9704 O   0  0  0  0  0  0  0  0  0  0  0  0
    2.7196  -11.3398  -11.3397 C   0  0  0  0  0  0  0  0  0  0  0  0
    2.9215  -10.1779  -12.0661 F   0  0  0  0  0  0  0  0  0  0  0  0
    1.3604  -11.5845  -11.2702 F   0  0  0  0  0  0  0  0  0  0  0  0
    3.3382  -12.3921  -11.9920 F   0  0  0  0  0  0  0  0  0  0  0  0
    1.1504   14.0545    0.1112 H   0  0  0  0  0  0  0  0  0  0  0  0
   -3.5920   12.9145    4.2778 H   0  0  0  0  0  0  0  0  0  0  0  0
   -2.6865   14.2451    3.4903 H   0  0  0  0  0  0  0  0  0  0  0  0
   -0.6298   13.6151    4.8044 H   0  0  0  0  0  0  0  0  0  0  0  0
   -2.0200   14.0402    5.8696 H   0  0  0  0  0  0  0  0  0  0  0  0
   -1.5770   12.3011    5.6266 H   0  0  0  0  0  0  0  0  0  0  0  0
   -0.5102   14.6322    2.0695 H   0  0  0  0  0  0  0  0  0  0  0  0
   -3.8283   10.3832    4.2955 H   0  0  0  0  0  0  0  0  0  0  0  0
   -6.3819    5.8611    4.4076 H   0  0  0  0  0  0  0  0  0  0  0  0
   -6.2856   -0.4311    2.0581 H   0  0  0  0  0  0  0  0  0  0  0  0
   -6.8091    1.2619    2.3461 H   0  0  0  0  0  0  0  0  0  0  0  0
   -7.3086    0.7171    4.7363 H   0  0  0  0  0  0  0  0  0  0  0  0
   -8.2270   -0.3562    3.6066 H   0  0  0  0  0  0  0  0  0  0  0  0
   -6.7645   -0.9913    4.4587 H   0  0  0  0  0  0  0  0  0  0  0  0
   -6.1151    3.4013    3.4327 H   0  0  0  0  0  0  0  0  0  0  0  0
   -4.4003   -2.0184    2.4054 H   0  0  0  0  0  0  0  0  0  0  0  0
    2.2114   -4.4855    3.7515 H   0  0  0  0  0  0  0  0  0  0  0  0
    3.0450   -5.7380    2.7779 H   0  0  0  0  0  0  0  0  0  0  0  0
    3.4112   -4.0921    0.9257 H   0  0  0  0  0  0  0  0  0  0  0  0
    4.1279   -3.5171    2.4808 H   0  0  0  0  0  0  0  0  0  0  0  0
    2.5667   -2.8135    1.8963 H   0  0  0  0  0  0  0  0  0  0  0  0
    0.2329   -2.8498    3.5774 H   0  0  0  0  0  0  0  0  0  0  0  0
    2.9152   -6.8018    0.4312 H   0  0  0  0  0  0  0  0  0  0  0  0
    5.9804   -9.5530   -1.9286 H   0  0  0  0  0  0  0  0  0  0  0  0
    6.7605  -10.1399   -3.4349 H   0  0  0  0  0  0  0  0  0  0  0  0
    6.9158   -7.7827   -4.2792 H   0  0  0  0  0  0  0  0  0  0  0  0
    6.1229   -7.1895   -2.7697 H   0  0  0  0  0  0  0  0  0  0  0  0
    7.7498   -7.9735   -2.6877 H   0  0  0  0  0  0  0  0  0  0  0  0
    3.9271   -8.1910   -1.1727 H   0  0  0  0  0  0  0  0  0  0  0  0
    6.4165  -10.1722   -5.9755 H   0  0  0  0  0  0  0  0  0  0  0  0
    7.7471   -9.9971  -10.5163 H   0  0  0  0  0  0  0  0  0  0  0  0
    5.5796  -10.9116  -11.7377 H   0  0  0  0  0  0  0  0  0  0  0  0
  1  2  1  0
  2  3  1  0
  3  4  1  0
  4  5  2  0
  5  6  1  0
  6  7  1  0
  7  8  1  0
  6  9  1  0
  9 10  1  0
  5 11  1  0
 11 12  2  0
 12 13  1  0
 12 14  1  0
 14 15  1  0
 15 16  1  0
 16 17  2  0
 17 18  1  0
 18 19  1  0
 19 20  2  0
 19 21  1  0
 21 22  1  0
 21 23  1  0
 21 24  1  0
 16 25  1  0
 25 26  1  0
 26 27  1  0
 27 28  1  0
 28 29  2  0
 29 30  1  0
 30 31  1  0
 31 32  1  0
 30 33  1  0
 33 34  1  0
 29 35  1  0
 35 36  2  0
 36 37  1  0
 36 38  1  0
 38 39  1  0
 39 40  1  0
 40 41  1  0
 41 42  2  0
 42 43  1  0
 43 44  1  0
 44 45  1  0
 43 46  1  0
 46 47  1  0
 42 48  1  0
 48 49  2  0
 49 50  1  0
 49 51  1  0
 51 52  1  0
 52 53  1  0
 53 54  1  0
 54 55  2  0
 55 56  1  0
 56 57  1  0
 57 58  1  0
 56 59  1  0
 59 60  1  0
 55 61  1  0
 61 62  2  0
 62 63  1  0
 62 64  1  0
 64 65  1  0
 65 66  1  0
 66 67  2  0
 67 68  1  0
 68 69  1  0
 69 70  2  0
 69 71  1  0
 71 72  1  0
 71 73  1  0
 71 74  1  0
 10  1  2  0
 18 14  2  0
 34 25  2  0
 47 38  2  0
 60 51  2  0
 68 64  2  0
  9  3  2  0
 33 27  2  0
 46 40  2  0
 59 53  2  0
 13  4  1  0
 37 28  1  0
 50 41  1  0
 63 54  1  0
  1 75  1  0
  7 76  1  0
  7 77  1  0
  8 78  1  0
  8 79  1  0
  8 80  1  0
 10 81  1  0
 11 82  1  0
 17 83  1  0
 31 84  1  0
 31 85  1  0
 32 86  1  0
 32 87  1  0
 32 88  1  0
 34 89  1  0
 35 90  1  0
 44 91  1  0
 44 92  1  0
 45 93  1  0
 45 94  1  0
 45 95  1  0
 47 96  1  0
 48 97  1  0
 57 98  1  0
 57 99  1  0
 58100  1  0
 58101  1  0
 58102  1  0
 60103  1  0
 61104  1  0
 66105  1  0
 67106  1  0
M  END

