
     RDKit          3D

 92 99  0  0  0  0  0  0  0  0999 V2000
    2.8703    0.0757    6.1694 C   0  0  0  0  0  0  0  0  0  0  0  0
    1.4389    0.6919    5.5601 S   0  0  0  0  0  0  0  0  0  0  0  0
    1.9538    0.8685    3.9700 C   0  0  0  0  0  0  0  0  0  0  0  0
    3.3017    0.4693    3.8846 C   0  0  0  0  0  0  0  0  0  0  0  0
    3.8006   -0.0131    5.1310 C   0  0  0  0  0  0  0  0  0  0  0  0
    5.1807   -0.5790    5.3603 C   0  0  0  0  0  0  0  0  0  0  0  0
    5.3989   -1.6520    4.5029 F   0  0  0  0  0  0  0  0  0  0  0  0
    5.3394   -1.0368    6.6625 F   0  0  0  0  0  0  0  0  0  0  0  0
    6.1314    0.4082    5.1301 F   0  0  0  0  0  0  0  0  0  0  0  0
    4.0749    0.5355    2.5734 C   0  0  0  0  0  0  0  0  0  0  0  0
    5.3977    0.1743    2.6983 F   0  0  0  0  0  0  0  0  0  0  0  0
    4.0357    1.8299    2.0939 F   0  0  0  0  0  0  0  0  0  0  0  0
    3.4801   -0.3116    1.6566 F   0  0  0  0  0  0  0  0  0  0  0  0
    1.0996    1.3022    2.8386 C   0  0  0  0  0  0  0  0  0  0  0  0
   -0.2335    1.4109    2.9298 C   0  0  0  0  0  0  0  0  0  0  0  0
   -1.0803    1.7251    1.7468 C   0  0  0  0  0  0  0  0  0  0  0  0
   -0.4549    2.6835    0.5520 S   0  0  0  0  0  3  0  0  0  0  0  0
   -1.4882    3.0999   -0.8593 C   0  0  0  0  0  0  0  0  0  0  0  0
   -1.1310    3.9556   -1.8901 C   0  0  0  0  0  0  0  0  0  0  0  0
   -2.4675    4.0963   -2.9038 S   0  0  0  0  0  0  0  0  0  0  0  0
   -3.4932    3.0634   -2.0588 C   0  0  0  0  0  0  0  0  0  0  0  0
   -2.7855    2.6131   -0.9563 C   0  0  0  0  0  0  0  0  0  0  0  0
   -3.4373    1.5623    0.3297 S   0  0  0  0  0  3  0  0  0  0  0  0
   -2.4864    1.2045    1.6347 C   0  0  0  0  0  0  0  0  0  0  0  0
   -3.1023    0.3587    2.6770 C   0  0  0  0  0  0  0  0  0  0  0  0
   -4.4650    0.9579    3.3835 S   0  0  0  0  0  3  0  0  0  0  0  0
   -5.3834   -0.0807    4.5177 C   0  0  0  0  0  0  0  0  0  0  0  0
   -6.5499    0.2776    5.1785 C   0  0  0  0  0  0  0  0  0  0  0  0
   -7.0501   -1.0712    6.0654 S   0  0  0  0  0  0  0  0  0  0  0  0
   -5.7920   -2.0998    5.6168 C   0  0  0  0  0  0  0  0  0  0  0  0
   -4.9720   -1.3856    4.7519 C   0  0  0  0  0  0  0  0  0  0  0  0
   -3.4857   -2.0215    3.9759 S   0  0  0  0  0  3  0  0  0  0  0  0
   -2.6055   -1.0234    2.9975 C   0  0  0  0  0  0  0  0  0  0  0  0
   -1.3351   -1.5530    2.4400 C   0  0  0  0  0  0  0  0  0  0  0  0
   -0.8979   -1.4344    0.8267 S   0  0  0  0  0  0  0  0  0  0  0  0
    0.5548   -2.2654    0.9294 C   0  0  0  0  0  0  0  0  0  0  0  0
    0.7154   -2.7068    2.2516 C   0  0  0  0  0  0  0  0  0  0  0  0
   -0.3098   -2.2347    3.1242 C   0  0  0  0  0  0  0  0  0  0  0  0
   -0.2863   -2.4068    4.6339 C   0  0  0  0  0  0  0  0  0  0  0  0
   -0.9210   -1.3549    5.2645 F   0  0  0  0  0  0  0  0  0  0  0  0
   -0.9234   -3.5808    4.9753 F   0  0  0  0  0  0  0  0  0  0  0  0
    1.0036   -2.4405    5.1246 F   0  0  0  0  0  0  0  0  0  0  0  0
    1.8831   -3.5799    2.6921 C   0  0  0  0  0  0  0  0  0  0  0  0
    2.8918   -2.7781    3.2014 F   0  0  0  0  0  0  0  0  0  0  0  0
    1.4797   -4.4890    3.6527 F   0  0  0  0  0  0  0  0  0  0  0  0
    2.3827   -4.3196    1.6396 F   0  0  0  0  0  0  0  0  0  0  0  0
    1.5857   -2.3180   -0.1263 C   0  0  0  0  0  0  0  0  0  0  0  0
    1.3566   -2.2422   -1.4474 C   0  0  0  0  0  0  0  0  0  0  0  0
    0.0240   -2.1848   -2.0689 C   0  0  0  0  0  0  0  0  0  0  0  0
   -0.5720   -0.7999   -2.7897 S   0  0  0  0  0  0  0  0  0  0  0  0
   -1.8245   -1.5356   -3.6298 C   0  0  0  0  0  0  0  0  0  0  0  0
   -1.7958   -2.9156   -3.3701 C   0  0  0  0  0  0  0  0  0  0  0  0
   -0.7610   -3.2788   -2.4550 C   0  0  0  0  0  0  0  0  0  0  0  0
   -0.4122   -4.7005   -2.0567 C   0  0  0  0  0  0  0  0  0  0  0  0
   -1.5442   -5.4799   -1.9503 F   0  0  0  0  0  0  0  0  0  0  0  0
    0.4254   -5.2505   -3.0112 F   0  0  0  0  0  0  0  0  0  0  0  0
    0.2237   -4.7457   -0.8259 F   0  0  0  0  0  0  0  0  0  0  0  0
   -2.7234   -3.9202   -4.0386 C   0  0  0  0  0  0  0  0  0  0  0  0
   -2.0203   -5.0382   -4.4639 F   0  0  0  0  0  0  0  0  0  0  0  0
   -3.6935   -4.3119   -3.1370 F   0  0  0  0  0  0  0  0  0  0  0  0
   -3.3421   -3.3992   -5.1532 F   0  0  0  0  0  0  0  0  0  0  0  0
   -2.8019   -0.8167   -4.4762 C   0  0  0  0  0  0  0  0  0  0  0  0
   -2.4878    0.1777   -5.3233 C   0  0  0  0  0  0  0  0  0  0  0  0
   -1.1215    0.6762   -5.5560 C   0  0  0  0  0  0  0  0  0  0  0  0
   -0.6914    2.2618   -5.2831 S   0  0  0  0  0  0  0  0  0  0  0  0
    0.9402    2.1134   -5.6345 C   0  0  0  0  0  0  0  0  0  0  0  0
    1.1934    0.7732   -5.9653 C   0  0  0  0  0  0  0  0  0  0  0  0
    0.0109   -0.0284   -5.9978 C   0  0  0  0  0  0  0  0  0  0  0  0
   -0.0423   -1.4483   -6.5426 C   0  0  0  0  0  0  0  0  0  0  0  0
   -1.3357   -1.8279   -6.8518 F   0  0  0  0  0  0  0  0  0  0  0  0
    0.4634   -2.3307   -5.6057 F   0  0  0  0  0  0  0  0  0  0  0  0
    0.6980   -1.5373   -7.6996 F   0  0  0  0  0  0  0  0  0  0  0  0
    2.5859    0.2815   -6.3150 C   0  0  0  0  0  0  0  0  0  0  0  0
    2.8735    0.6211   -7.6265 F   0  0  0  0  0  0  0  0  0  0  0  0
    3.5217    0.8558   -5.4723 F   0  0  0  0  0  0  0  0  0  0  0  0
    2.7118   -1.0886   -6.1671 F   0  0  0  0  0  0  0  0  0  0  0  0
    1.9054    3.2384   -5.6252 C   0  0  0  0  0  0  0  0  0  0  0  0
    1.5804    4.4479   -5.1513 C   0  0  0  0  0  0  0  0  0  0  0  0
    3.0182   -0.2348    7.1953 H   0  0  0  0  0  0  0  0  0  0  0  0
    1.5775    1.4648    1.8820 H   0  0  0  0  0  0  0  0  0  0  0  0
   -0.7196    1.1566    3.8582 H   0  0  0  0  0  0  0  0  0  0  0  0
   -0.1816    4.4581   -2.0100 H   0  0  0  0  0  0  0  0  0  0  0  0
   -4.5113    2.8107   -2.3312 H   0  0  0  0  0  0  0  0  0  0  0  0
   -7.0515    1.2323    5.1355 H   0  0  0  0  0  0  0  0  0  0  0  0
   -5.6576   -3.1280    5.9270 H   0  0  0  0  0  0  0  0  0  0  0  0
    2.6158   -2.4053    0.1871 H   0  0  0  0  0  0  0  0  0  0  0  0
    2.2065   -2.2317   -2.1197 H   0  0  0  0  0  0  0  0  0  0  0  0
   -3.8429   -1.1059   -4.4038 H   0  0  0  0  0  0  0  0  0  0  0  0
   -3.2979    0.6892   -5.8222 H   0  0  0  0  0  0  0  0  0  0  0  0
    2.9059    3.0923   -6.0286 H   0  0  0  0  0  0  0  0  0  0  0  0
    0.5985    4.6587   -4.7417 H   0  0  0  0  0  0  0  0  0  0  0  0
    2.3121    5.2450   -5.1635 H   0  0  0  0  0  0  0  0  0  0  0  0
  1  2  1  0
  2  3  1  0
  3  4  2  0
  4  5  1  0
  5  6  1  0
  6  7  1  0
  6  8  1  0
  6  9  1  0
  4 10  1  0
 10 11  1  0
 10 12  1  0
 10 13  1  0
  3 14  1  0
 14 15  2  3
 15 16  1  0
 16 17  2  0
 17 18  1  0
 18 19  2  0
 19 20  1  0
 20 21  1  0
 21 22  2  0
 22 23  1  0
 23 24  2  0
 24 25  1  0
 25 26  2  0
 26 27  1  0
 27 28  2  0
 28 29  1  0
 29 30  1  0
 30 31  2  0
 31 32  1  0
 32 33  2  0
 33 34  1  0
 34 35  1  0
 35 36  1  0
 36 37  2  0
 37 38  1  0
 38 39  1  0
 39 40  1  0
 39 41  1  0
 39 42  1  0
 37 43  1  0
 43 44  1  0
 43 45  1  0
 43 46  1  0
 36 47  1  0
 47 48  2  3
 48 49  1  0
 49 50  1  0
 50 51  1  0
 51 52  2  0
 52 53  1  0
 53 54  1  0
 54 55  1  0
 54 56  1  0
 54 57  1  0
 52 58  1  0
 58 59  1  0
 58 60  1  0
 58 61  1  0
 51 62  1  0
 62 63  2  3
 63 64  1  0
 64 65  1  0
 65 66  1  0
 66 67  2  0
 67 68  1  0
 68 69  1  0
 69 70  1  0
 69 71  1  0
 69 72  1  0
 67 73  1  0
 73 74  1  0
 73 75  1  0
 73 76  1  0
 66 77  1  0
 77 78  2  3
  5  1  2  0
 24 16  1  0
 33 25  1  0
 38 34  2  0
 53 49  2  0
 68 64  2  0
 22 18  1  0
 31 27  1  0
  1 79  1  0
 14 80  1  0
 15 81  1  0
 19 82  1  0
 21 83  1  0
 28 84  1  0
 30 85  1  0
 47 86  1  0
 48 87  1  0
 62 88  1  0
 63 89  1  0
 77 90  1  0
 78 91  1  0
 78 92  1  0
M  RAD  4  17   2  23   2  26   2  32   2
M  END

