
     RDKit          3D

104119  0  0  0  0  0  0  0  0999 V2000
    1.6121   -2.0431   12.2727 C   0  0  0  0  0  0  0  0  0  0  0  0
    1.5641   -2.7234   10.7022 S   0  0  0  0  0  0  0  0  0  0  0  0
    1.6618   -1.2291    9.9636 C   0  0  0  0  0  0  0  0  0  0  0  0
    1.4276   -0.6430    8.7519 C   0  0  0  0  0  0  0  0  0  0  0  0
    1.3029    0.6888    8.9916 C   0  0  0  0  0  0  0  0  0  0  0  0
    1.4527    0.9928   10.3080 N   0  0  0  0  0  0  0  0  0  0  0  0
    1.0661    2.2281   10.9860 C   0  0  0  0  0  0  0  0  0  0  0  0
   -0.4128    2.1878   11.3661 C   0  0  0  0  0  0  0  0  0  0  0  0
    1.6728   -0.2248   10.8734 C   0  0  0  0  0  0  0  0  0  0  0  0
    1.6406   -0.6433   12.1974 C   0  0  0  0  0  0  0  0  0  0  0  0
    0.8183    1.4317    7.9220 C   0  0  0  0  0  0  0  0  0  0  0  0
    0.5469    0.5831    6.8367 C   0  0  0  0  0  0  0  0  0  0  0  0
    0.8611   -1.0566    7.2340 S   0  0  0  0  0  0  0  0  0  0  0  0
   -0.0765    1.0242    5.5832 C   0  0  0  0  0  0  0  0  0  0  0  0
    0.8562    1.8952    4.5458 S   0  0  0  0  0  3  0  0  0  0  0  0
    0.1295    2.4414    2.9955 C   0  0  0  0  0  0  0  0  0  0  0  0
    0.7945    3.1271    1.9895 C   0  0  0  0  0  0  0  0  0  0  0  0
   -0.3112    3.3604    0.7389 S   0  0  0  0  0  0  0  0  0  0  0  0
   -1.6247    2.5986    1.4673 C   0  0  0  0  0  0  0  0  0  0  0  0
   -1.1988    2.1540    2.7066 C   0  0  0  0  0  0  0  0  0  0  0  0
   -2.2032    1.2307    3.8733 S   0  0  0  0  0  3  0  0  0  0  0  0
   -1.5055    0.7003    5.2718 C   0  0  0  0  0  0  0  0  0  0  0  0
   -2.3433   -0.0587    6.2310 C   0  0  0  0  0  0  0  0  0  0  0  0
   -2.5463    0.5672    7.7446 S   0  0  0  0  0  3  0  0  0  0  0  0
   -3.5989   -0.3132    8.9000 C   0  0  0  0  0  0  0  0  0  0  0  0
   -3.8451    0.0729   10.2040 C   0  0  0  0  0  0  0  0  0  0  0  0
   -4.8872   -1.0717   10.8708 S   0  0  0  0  0  0  0  0  0  0  0  0
   -5.0275   -2.0546    9.5103 C   0  0  0  0  0  0  0  0  0  0  0  0
   -4.2502   -1.4800    8.5173 C   0  0  0  0  0  0  0  0  0  0  0  0
   -4.0497   -2.1187    6.8534 S   0  0  0  0  0  3  0  0  0  0  0  0
   -3.0577   -1.3113    5.8179 C   0  0  0  0  0  0  0  0  0  0  0  0
   -2.9276   -1.8473    4.4532 C   0  0  0  0  0  0  0  0  0  0  0  0
   -1.4428   -2.3370    3.7342 S   0  0  0  0  0  0  0  0  0  0  0  0
   -2.1564   -2.5242    2.2319 C   0  0  0  0  0  0  0  0  0  0  0  0
   -1.8061   -2.6197    0.9181 C   0  0  0  0  0  0  0  0  0  0  0  0
   -2.9175   -2.3107    0.2034 C   0  0  0  0  0  0  0  0  0  0  0  0
   -3.9702   -2.0067    1.0020 N   0  0  0  0  0  0  0  0  0  0  0  0
   -5.2810   -1.4872    0.6108 C   0  0  0  0  0  0  0  0  0  0  0  0
   -6.2557   -2.6368    0.3864 C   0  0  0  0  0  0  0  0  0  0  0  0
   -3.4636   -2.1605    2.2522 C   0  0  0  0  0  0  0  0  0  0  0  0
   -3.9501   -1.7752    3.4960 C   0  0  0  0  0  0  0  0  0  0  0  0
   -2.7074   -2.1374   -1.1590 C   0  0  0  0  0  0  0  0  0  0  0  0
   -1.3494   -2.3497   -1.4710 C   0  0  0  0  0  0  0  0  0  0  0  0
   -0.4489   -2.6936   -0.0525 S   0  0  0  0  0  0  0  0  0  0  0  0
   -0.7696   -2.2048   -2.8133 C   0  0  0  0  0  0  0  0  0  0  0  0
    0.7113   -2.9124   -3.3178 S   0  0  0  0  0  0  0  0  0  0  0  0
    0.5767   -2.2724   -4.8556 C   0  0  0  0  0  0  0  0  0  0  0  0
    1.2312   -2.2046   -6.0544 C   0  0  0  0  0  0  0  0  0  0  0  0
    0.4696   -1.4142   -6.8525 C   0  0  0  0  0  0  0  0  0  0  0  0
   -0.6573   -0.9797   -6.2301 N   0  0  0  0  0  0  0  0  0  0  0  0
   -1.6561   -0.0345   -6.7249 C   0  0  0  0  0  0  0  0  0  0  0  0
   -1.1891    1.3975   -6.4999 C   0  0  0  0  0  0  0  0  0  0  0  0
   -0.5468   -1.5260   -4.9908 C   0  0  0  0  0  0  0  0  0  0  0  0
   -1.3471   -1.4579   -3.8590 C   0  0  0  0  0  0  0  0  0  0  0  0
    0.9763   -1.1996   -8.1284 C   0  0  0  0  0  0  0  0  0  0  0  0
    2.1917   -1.8945   -8.2870 C   0  0  0  0  0  0  0  0  0  0  0  0
    2.6054   -2.7381   -6.8473 S   0  0  0  0  0  0  0  0  0  0  0  0
    2.9906   -1.9184   -9.5225 C   0  0  0  0  0  0  0  0  0  0  0  0
    4.3912   -2.8882   -9.7491 S   0  0  0  0  0  0  0  0  0  0  0  0
    4.6092   -2.3293  -11.3107 C   0  0  0  0  0  0  0  0  0  0  0  0
    5.5500   -2.3035  -12.2996 C   0  0  0  0  0  0  0  0  0  0  0  0
    5.1428   -1.3611  -13.1884 C   0  0  0  0  0  0  0  0  0  0  0  0
    3.9722   -0.7795  -12.8218 N   0  0  0  0  0  0  0  0  0  0  0  0
    3.3439    0.4088  -13.3908 C   0  0  0  0  0  0  0  0  0  0  0  0
    3.9105    1.6650  -12.7453 C   0  0  0  0  0  0  0  0  0  0  0  0
    3.6870   -1.3951  -11.6432 C   0  0  0  0  0  0  0  0  0  0  0  0
    2.7407   -1.1284  -10.6632 C   0  0  0  0  0  0  0  0  0  0  0  0
    6.0658   -1.0582  -14.1833 C   0  0  0  0  0  0  0  0  0  0  0  0
    7.2239   -1.8374  -14.0243 C   0  0  0  0  0  0  0  0  0  0  0  0
    7.0953   -2.8405  -12.6384 S   0  0  0  0  0  0  0  0  0  0  0  0
    1.5594   -2.6099   13.1937 H   0  0  0  0  0  0  0  0  0  0  0  0
    1.2530    3.0972   10.3201 H   0  0  0  0  0  0  0  0  0  0  0  0
    1.6870    2.3566   11.9012 H   0  0  0  0  0  0  0  0  0  0  0  0
   -1.0425    2.1545   10.4524 H   0  0  0  0  0  0  0  0  0  0  0  0
   -0.6299    1.2890   11.9786 H   0  0  0  0  0  0  0  0  0  0  0  0
   -0.6748    3.0874   11.9565 H   0  0  0  0  0  0  0  0  0  0  0  0
    1.5763    0.0155   13.0552 H   0  0  0  0  0  0  0  0  0  0  0  0
    0.5836    2.4893    7.9511 H   0  0  0  0  0  0  0  0  0  0  0  0
    1.8311    3.4364    2.0018 H   0  0  0  0  0  0  0  0  0  0  0  0
   -2.6125    2.4709    1.0473 H   0  0  0  0  0  0  0  0  0  0  0  0
   -3.4458    0.9445   10.7012 H   0  0  0  0  0  0  0  0  0  0  0  0
   -5.6158   -2.9554    9.4186 H   0  0  0  0  0  0  0  0  0  0  0  0
   -5.6852   -0.8231    1.4088 H   0  0  0  0  0  0  0  0  0  0  0  0
   -5.1942   -0.8933   -0.3284 H   0  0  0  0  0  0  0  0  0  0  0  0
   -5.9064   -3.2705   -0.4589 H   0  0  0  0  0  0  0  0  0  0  0  0
   -6.3340   -3.2596    1.3021 H   0  0  0  0  0  0  0  0  0  0  0  0
   -7.2668   -2.2341    0.1500 H   0  0  0  0  0  0  0  0  0  0  0  0
   -4.9423   -1.3767    3.6815 H   0  0  0  0  0  0  0  0  0  0  0  0
   -3.4680   -1.8356   -1.8631 H   0  0  0  0  0  0  0  0  0  0  0  0
   -2.6247   -0.1901   -6.2020 H   0  0  0  0  0  0  0  0  0  0  0  0
   -1.8219   -0.1968   -7.8097 H   0  0  0  0  0  0  0  0  0  0  0  0
   -0.2302    1.5750   -7.0352 H   0  0  0  0  0  0  0  0  0  0  0  0
   -1.9509    2.1100   -6.8868 H   0  0  0  0  0  0  0  0  0  0  0  0
   -1.0371    1.5802   -5.4166 H   0  0  0  0  0  0  0  0  0  0  0  0
   -2.2706   -0.8997   -3.7968 H   0  0  0  0  0  0  0  0  0  0  0  0
    0.4876   -0.6072   -8.8943 H   0  0  0  0  0  0  0  0  0  0  0  0
    3.5217    0.4449  -14.4842 H   0  0  0  0  0  0  0  0  0  0  0  0
    2.2469    0.3641  -13.2335 H   0  0  0  0  0  0  0  0  0  0  0  0
    3.4188    2.5614  -13.1841 H   0  0  0  0  0  0  0  0  0  0  0  0
    3.7137    1.6538  -11.6513 H   0  0  0  0  0  0  0  0  0  0  0  0
    5.0048    1.7318  -12.9254 H   0  0  0  0  0  0  0  0  0  0  0  0
    1.9664   -0.3820  -10.7520 H   0  0  0  0  0  0  0  0  0  0  0  0
    5.9316   -0.3025  -14.9450 H   0  0  0  0  0  0  0  0  0  0  0  0
    8.1016   -1.7746  -14.6542 H   0  0  0  0  0  0  0  0  0  0  0  0
  1  2  1  0
  2  3  1  0
  3  4  1  0
  4  5  2  0
  5  6  1  0
  6  7  1  0
  7  8  1  0
  6  9  1  0
  9 10  1  0
  5 11  1  0
 11 12  2  0
 12 13  1  0
 12 14  1  0
 14 15  2  0
 15 16  1  0
 16 17  2  0
 17 18  1  0
 18 19  1  0
 19 20  2  0
 20 21  1  0
 21 22  2  0
 22 23  1  0
 23 24  2  0
 24 25  1  0
 25 26  2  0
 26 27  1  0
 27 28  1  0
 28 29  2  0
 29 30  1  0
 30 31  2  0
 31 32  1  0
 32 33  1  0
 33 34  1  0
 34 35  1  0
 35 36  2  0
 36 37  1  0
 37 38  1  0
 38 39  1  0
 37 40  1  0
 40 41  1  0
 36 42  1  0
 42 43  2  0
 43 44  1  0
 43 45  1  0
 45 46  1  0
 46 47  1  0
 47 48  1  0
 48 49  2  0
 49 50  1  0
 50 51  1  0
 51 52  1  0
 50 53  1  0
 53 54  1  0
 49 55  1  0
 55 56  2  0
 56 57  1  0
 56 58  1  0
 58 59  1  0
 59 60  1  0
 60 61  1  0
 61 62  2  0
 62 63  1  0
 63 64  1  0
 64 65  1  0
 63 66  1  0
 66 67  1  0
 62 68  1  0
 68 69  2  0
 69 70  1  0
 10  1  2  0
 22 14  1  0
 31 23  1  0
 41 32  2  0
 54 45  2  0
 67 58  2  0
  9  3  2  0
 20 16  1  0
 29 25  1  0
 40 34  2  0
 53 47  2  0
 66 60  2  0
 13  4  1  0
 44 35  1  0
 57 48  1  0
 70 61  1  0
  1 71  1  0
  7 72  1  0
  7 73  1  0
  8 74  1  0
  8 75  1  0
  8 76  1  0
 10 77  1  0
 11 78  1  0
 17 79  1  0
 19 80  1  0
 26 81  1  0
 28 82  1  0
 38 83  1  0
 38 84  1  0
 39 85  1  0
 39 86  1  0
 39 87  1  0
 41 88  1  0
 42 89  1  0
 51 90  1  0
 51 91  1  0
 52 92  1  0
 52 93  1  0
 52 94  1  0
 54 95  1  0
 55 96  1  0
 64 97  1  0
 64 98  1  0
 65 99  1  0
 65100  1  0
 65101  1  0
 67102  1  0
 68103  1  0
 69104  1  0
M  RAD  4  15   2  21   2  24   2  30   2
M  END

