
     RDKit          3D

 92 97  0  0  0  0  0  0  0  0999 V2000
    5.4647   -3.0930    1.8319 C   0  0  0  0  0  0  0  0  0  0  0  0
    5.7649   -2.2886    2.8549 C   0  0  0  0  0  0  0  0  0  0  0  0
    4.7643   -1.5074    3.6158 C   0  0  0  0  0  0  0  0  0  0  0  0
    5.1477   -0.6287    4.6258 C   0  0  0  0  0  0  0  0  0  0  0  0
    3.7749    0.1009    5.2632 S   0  0  0  0  0  0  0  0  0  0  0  0
    2.6721   -0.7012    4.2731 C   0  0  0  0  0  0  0  0  0  0  0  0
    3.3708   -1.5486    3.4196 C   0  0  0  0  0  0  0  0  0  0  0  0
    1.2073   -0.5363    4.2664 C   0  0  0  0  0  0  0  0  0  0  0  0
    0.5546    0.2558    5.1249 C   0  0  0  0  0  0  0  0  0  0  0  0
   -0.9102    0.3993    5.0305 C   0  0  0  0  0  0  0  0  0  0  0  0
   -1.5955    1.2024    5.8549 C   0  0  0  0  0  0  0  0  0  0  0  0
   -3.0535    1.4321    5.7170 C   0  0  0  0  0  0  0  0  0  0  0  0
   -3.6995    2.5068    6.3219 C   0  0  0  0  0  0  0  0  0  0  0  0
   -5.3100    2.5229    5.8222 S   0  0  0  0  0  0  0  0  0  0  0  0
   -5.2044    1.1622    4.8376 C   0  0  0  0  0  0  0  0  0  0  0  0
   -3.9137    0.6533    4.9258 C   0  0  0  0  0  0  0  0  0  0  0  0
   -6.3113    0.6193    4.0218 C   0  0  0  0  0  0  0  0  0  0  0  0
   -6.1469    0.0021    2.8398 C   0  0  0  0  0  0  0  0  0  0  0  0
   -4.8630   -0.0325    2.1108 C   0  0  0  0  0  0  0  0  0  0  0  0
   -4.5441   -1.0488    1.3070 C   0  0  0  0  0  0  0  0  0  0  0  0
   -3.1989   -1.2197    0.7054 C   0  0  0  0  0  0  0  0  0  0  0  0
   -2.0837   -0.4241    0.9831 C   0  0  0  0  0  0  0  0  0  0  0  0
   -0.7534   -1.0833    0.1944 S   0  0  0  0  0  0  0  0  0  0  0  0
   -1.5687   -2.3657   -0.5326 C   0  0  0  0  0  0  0  0  0  0  0  0
   -2.9018   -2.3077   -0.1314 C   0  0  0  0  0  0  0  0  0  0  0  0
   -0.9874   -3.4892   -1.2979 C   0  0  0  0  0  0  0  0  0  0  0  0
    0.2360   -3.5436   -1.8314 C   0  0  0  0  0  0  0  0  0  0  0  0
    1.1621   -2.4027   -1.9515 C   0  0  0  0  0  0  0  0  0  0  0  0
    2.4766   -2.5922   -1.8164 C   0  0  0  0  0  0  0  0  0  0  0  0
    3.4759   -1.5212   -2.0144 C   0  0  0  0  0  0  0  0  0  0  0  0
    4.7878   -1.6674   -1.5769 C   0  0  0  0  0  0  0  0  0  0  0  0
    5.6799   -0.3572   -2.1141 S   0  0  0  0  0  0  0  0  0  0  0  0
    4.4180    0.4389   -2.8888 C   0  0  0  0  0  0  0  0  0  0  0  0
    3.2721   -0.3510   -2.7658 C   0  0  0  0  0  0  0  0  0  0  0  0
    4.6245    1.6151   -3.7559 C   0  0  0  0  0  0  0  0  0  0  0  0
    3.6887    2.5120   -4.1030 C   0  0  0  0  0  0  0  0  0  0  0  0
    2.3142    2.5613   -3.5682 C   0  0  0  0  0  0  0  0  0  0  0  0
    2.0568    2.5840   -2.2578 C   0  0  0  0  0  0  0  0  0  0  0  0
    0.6746    2.5721   -1.7459 C   0  0  0  0  0  0  0  0  0  0  0  0
    0.2885    3.2860   -0.6149 C   0  0  0  0  0  0  0  0  0  0  0  0
   -1.3487    3.0083   -0.3504 S   0  0  0  0  0  0  0  0  0  0  0  0
   -1.5764    1.9469   -1.6336 C   0  0  0  0  0  0  0  0  0  0  0  0
   -0.3654    1.8198   -2.3133 C   0  0  0  0  0  0  0  0  0  0  0  0
   -2.8377    1.2684   -1.9414 C   0  0  0  0  0  0  0  0  0  0  0  0
   -2.8606    0.1005   -2.5935 C   0  0  0  0  0  0  0  0  0  0  0  0
   -4.1194   -0.6112   -2.8822 C   0  0  0  0  0  0  0  0  0  0  0  0
   -4.1899   -1.7638   -3.5627 C   0  0  0  0  0  0  0  0  0  0  0  0
   -3.0485   -2.4346   -4.2243 C   0  0  0  0  0  0  0  0  0  0  0  0
   -2.8979   -3.8183   -4.2070 C   0  0  0  0  0  0  0  0  0  0  0  0
   -1.5093   -4.2118   -5.0677 S   0  0  0  0  0  0  0  0  0  0  0  0
   -1.1007   -2.6404   -5.5061 C   0  0  0  0  0  0  0  0  0  0  0  0
   -2.0632   -1.7749   -4.9842 C   0  0  0  0  0  0  0  0  0  0  0  0
    0.0783   -2.2956   -6.3209 C   0  0  0  0  0  0  0  0  0  0  0  0
    0.4654   -1.0429   -6.5617 C   0  0  0  0  0  0  0  0  0  0  0  0
    4.4545   -3.2303    1.4679 H   0  0  0  0  0  0  0  0  0  0  0  0
    6.2557   -3.6282    1.3247 H   0  0  0  0  0  0  0  0  0  0  0  0
    6.8079   -2.1898    3.1419 H   0  0  0  0  0  0  0  0  0  0  0  0
    6.1616   -0.4274    4.9397 H   0  0  0  0  0  0  0  0  0  0  0  0
    2.8742   -2.1663    2.6796 H   0  0  0  0  0  0  0  0  0  0  0  0
    0.6444   -1.0883    3.5202 H   0  0  0  0  0  0  0  0  0  0  0  0
    1.0915    0.8133    5.8839 H   0  0  0  0  0  0  0  0  0  0  0  0
   -1.4171   -0.1402    4.2417 H   0  0  0  0  0  0  0  0  0  0  0  0
   -1.0627    1.7688    6.6100 H   0  0  0  0  0  0  0  0  0  0  0  0
   -3.2373    3.2361    6.9719 H   0  0  0  0  0  0  0  0  0  0  0  0
   -3.6185   -0.2662    4.4365 H   0  0  0  0  0  0  0  0  0  0  0  0
   -7.3179    0.7103    4.4185 H   0  0  0  0  0  0  0  0  0  0  0  0
   -7.0083   -0.4696    2.3825 H   0  0  0  0  0  0  0  0  0  0  0  0
   -4.1561    0.7689    2.2802 H   0  0  0  0  0  0  0  0  0  0  0  0
   -5.2744   -1.8329    1.1360 H   0  0  0  0  0  0  0  0  0  0  0  0
   -2.0384    0.4438    1.6237 H   0  0  0  0  0  0  0  0  0  0  0  0
   -3.6344   -3.0526   -0.4104 H   0  0  0  0  0  0  0  0  0  0  0  0
   -1.5986   -4.3817   -1.3708 H   0  0  0  0  0  0  0  0  0  0  0  0
    0.5574   -4.4936   -2.2398 H   0  0  0  0  0  0  0  0  0  0  0  0
    0.7667   -1.4176   -2.1509 H   0  0  0  0  0  0  0  0  0  0  0  0
    2.8442   -3.5802   -1.5515 H   0  0  0  0  0  0  0  0  0  0  0  0
    5.1899   -2.5002   -1.0277 H   0  0  0  0  0  0  0  0  0  0  0  0
    2.3371   -0.1143   -3.2517 H   0  0  0  0  0  0  0  0  0  0  0  0
    5.6205    1.7418   -4.1708 H   0  0  0  0  0  0  0  0  0  0  0  0
    3.9488    3.2307   -4.8665 H   0  0  0  0  0  0  0  0  0  0  0  0
    1.5067    2.7135   -4.2740 H   0  0  0  0  0  0  0  0  0  0  0  0
    2.8678    2.6118   -1.5347 H   0  0  0  0  0  0  0  0  0  0  0  0
    0.9210    3.9243   -0.0194 H   0  0  0  0  0  0  0  0  0  0  0  0
   -0.2267    1.1929   -3.1870 H   0  0  0  0  0  0  0  0  0  0  0  0
   -3.7586    1.7119   -1.5820 H   0  0  0  0  0  0  0  0  0  0  0  0
   -1.9233   -0.3710   -2.8354 H   0  0  0  0  0  0  0  0  0  0  0  0
   -5.0352   -0.2210   -2.4610 H   0  0  0  0  0  0  0  0  0  0  0  0
   -5.1497   -2.2751   -3.5976 H   0  0  0  0  0  0  0  0  0  0  0  0
   -3.5481   -4.5244   -3.7062 H   0  0  0  0  0  0  0  0  0  0  0  0
   -2.0713   -0.7066   -5.1632 H   0  0  0  0  0  0  0  0  0  0  0  0
    0.6658   -3.1062   -6.7352 H   0  0  0  0  0  0  0  0  0  0  0  0
    1.3420   -0.8699   -7.1746 H   0  0  0  0  0  0  0  0  0  0  0  0
   -0.0586   -0.1857   -6.1574 H   0  0  0  0  0  0  0  0  0  0  0  0
  1  2  2  3
  2  3  1  0
  3  4  2  0
  4  5  1  0
  5  6  1  0
  6  7  2  0
  6  8  1  0
  8  9  2  3
  9 10  1  0
 10 11  2  3
 11 12  1  0
 12 13  2  0
 13 14  1  0
 14 15  1  0
 15 16  2  0
 15 17  1  0
 17 18  2  3
 18 19  1  0
 19 20  2  3
 20 21  1  0
 21 22  2  0
 22 23  1  0
 23 24  1  0
 24 25  2  0
 24 26  1  0
 26 27  2  3
 27 28  1  0
 28 29  2  3
 29 30  1  0
 30 31  2  0
 31 32  1  0
 32 33  1  0
 33 34  2  0
 33 35  1  0
 35 36  2  3
 36 37  1  0
 37 38  2  3
 38 39  1  0
 39 40  2  0
 40 41  1  0
 41 42  1  0
 42 43  2  0
 42 44  1  0
 44 45  2  3
 45 46  1  0
 46 47  2  3
 47 48  1  0
 48 49  2  0
 49 50  1  0
 50 51  1  0
 51 52  2  0
 51 53  1  0
 53 54  2  3
  7  3  1  0
 16 12  1  0
 25 21  1  0
 34 30  1  0
 43 39  1  0
 52 48  1  0
  1 55  1  0
  1 56  1  0
  2 57  1  0
  4 58  1  0
  7 59  1  0
  8 60  1  0
  9 61  1  0
 10 62  1  0
 11 63  1  0
 13 64  1  0
 16 65  1  0
 17 66  1  0
 18 67  1  0
 19 68  1  0
 20 69  1  0
 22 70  1  0
 25 71  1  0
 26 72  1  0
 27 73  1  0
 28 74  1  0
 29 75  1  0
 31 76  1  0
 34 77  1  0
 35 78  1  0
 36 79  1  0
 37 80  1  0
 38 81  1  0
 40 82  1  0
 43 83  1  0
 44 84  1  0
 45 85  1  0
 46 86  1  0
 47 87  1  0
 49 88  1  0
 52 89  1  0
 53 90  1  0
 54 91  1  0
 54 92  1  0
M  END

