
     RDKit          3D

242265  0  0  0  0  0  0  0  0999 V2000
   -0.1600   -6.2689    9.3463 C   0  0  0  0  0  0  0  0  0  0  0  0
   -0.5306   -5.0021    8.9113 C   0  0  0  0  0  0  0  0  0  0  0  0
   -1.0636   -5.0034    7.6114 C   0  0  0  0  0  0  0  0  0  0  0  0
   -1.5371   -3.8833    6.9049 C   0  0  0  0  0  0  0  0  0  0  0  0
   -1.5080   -2.5171    7.4725 C   0  0  0  0  0  0  0  0  0  0  0  0
   -0.2838   -1.8766    7.7192 C   0  0  0  0  0  0  0  0  0  0  0  0
   -0.2612   -0.5584    8.1834 C   0  0  0  0  0  0  0  0  0  0  0  0
   -1.4584    0.1339    8.4023 C   0  0  0  0  0  0  0  0  0  0  0  0
   -1.4124    1.8320    8.9843 S   0  0  0  0  0  0  0  0  0  0  0  0
   -1.2715    2.5869    7.3234 C   0  0  0  0  0  0  0  0  0  0  0  0
   -0.0661    3.5154    7.2896 C   0  0  0  0  0  0  0  0  0  0  0  0
   -2.6823   -0.5058    8.1663 C   0  0  0  0  0  0  0  0  0  0  0  0
   -3.8487    0.1543    8.3766 F   0  0  0  0  0  0  0  0  0  0  0  0
   -2.7081   -1.8218    7.7036 C   0  0  0  0  0  0  0  0  0  0  0  0
   -2.0625   -4.1188    5.6240 C   0  0  0  0  0  0  0  0  0  0  0  0
   -2.1331   -5.3927    5.0492 C   0  0  0  0  0  0  0  0  0  0  0  0
   -1.6444   -6.5124    5.7516 C   0  0  0  0  0  0  0  0  0  0  0  0
   -1.6472   -7.8707    5.1773 C   0  0  0  0  0  0  0  0  0  0  0  0
   -0.6368   -8.2559    4.2848 C   0  0  0  0  0  0  0  0  0  0  0  0
   -0.5684   -9.5762    3.8284 C   0  0  0  0  0  0  0  0  0  0  0  0
   -1.5310  -10.5105    4.2311 C   0  0  0  0  0  0  0  0  0  0  0  0
   -1.3872  -12.2270    3.7135 S   0  0  0  0  0  0  0  0  0  0  0  0
   -2.4045  -12.0594    2.2039 C   0  0  0  0  0  0  0  0  0  0  0  0
   -1.5340  -11.6833    1.0143 C   0  0  0  0  0  0  0  0  0  0  0  0
   -2.5545  -10.1217    5.1088 C   0  0  0  0  0  0  0  0  0  0  0  0
   -2.6085   -8.8063    5.5844 C   0  0  0  0  0  0  0  0  0  0  0  0
   -3.4849  -11.0151    5.5181 F   0  0  0  0  0  0  0  0  0  0  0  0
   -1.1230   -6.2764    7.0377 C   0  0  0  0  0  0  0  0  0  0  0  0
   -0.4954   -7.3906    8.1298 S   0  0  0  0  0  0  0  0  0  0  0  0
   -2.7414   -5.3934    3.7774 C   0  0  0  0  0  0  0  0  0  0  0  0
   -3.1696   -4.1230    3.3788 C   0  0  0  0  0  0  0  0  0  0  0  0
   -2.7118   -3.0045    4.5586 S   0  0  0  0  0  0  0  0  0  0  0  0
   -3.8497   -3.7947    2.1128 C   0  0  0  0  0  0  0  0  0  0  0  0
   -3.4188   -4.4370    0.6240 S   0  0  0  0  0  0  0  0  0  0  0  0
   -4.4139   -3.4727   -0.3397 C   0  0  0  0  0  0  0  0  0  0  0  0
   -5.1183   -2.6047    0.5158 C   0  0  0  0  0  0  0  0  0  0  0  0
   -4.7939   -2.7831    1.8827 C   0  0  0  0  0  0  0  0  0  0  0  0
   -5.4974   -1.9768    2.9438 C   0  0  0  0  0  0  0  0  0  0  0  0
   -5.7453   -0.5412    2.4279 C   0  0  2  0  0  0  0  0  0  0  0  0
   -6.3876    0.3414    3.5118 C   0  0  0  0  0  0  0  0  0  0  0  0
   -6.5811    1.6188    3.0207 F   0  0  0  0  0  0  0  0  0  0  0  0
   -7.6095   -0.1751    3.9083 F   0  0  0  0  0  0  0  0  0  0  0  0
   -5.5524    0.4220    4.6126 F   0  0  0  0  0  0  0  0  0  0  0  0
   -6.6265   -0.6294    1.1718 C   0  0  0  0  0  0  0  0  0  0  0  0
   -5.9389   -1.4179    0.0417 C   0  0  0  0  0  0  0  0  0  0  0  0
   -4.2547   -3.3477   -1.8106 C   0  0  0  0  0  0  0  0  0  0  0  0
   -5.1741   -2.7947   -2.7049 C   0  0  0  0  0  0  0  0  0  0  0  0
   -4.5996   -2.3937   -3.9197 C   0  0  0  0  0  0  0  0  0  0  0  0
   -5.2112   -1.5703   -4.8921 C   0  0  0  0  0  0  0  0  0  0  0  0
   -6.6055   -1.0931   -4.7713 C   0  0  0  0  0  0  0  0  0  0  0  0
   -7.0077   -0.3124   -3.6766 C   0  0  0  0  0  0  0  0  0  0  0  0
   -8.3278    0.1270   -3.5714 C   0  0  0  0  0  0  0  0  0  0  0  0
   -9.2618   -0.2064   -4.5631 C   0  0  0  0  0  0  0  0  0  0  0  0
  -10.9616    0.3558   -4.4139 S   0  0  0  0  0  0  0  0  0  0  0  0
  -11.5141   -1.0402   -3.3691 C   0  0  0  0  0  0  0  0  0  0  0  0
  -11.9113   -2.2384   -4.2203 C   0  0  0  0  0  0  0  0  0  0  0  0
   -8.8552   -0.9534   -5.6785 C   0  0  0  0  0  0  0  0  0  0  0  0
   -9.7350   -1.2441   -6.6682 F   0  0  0  0  0  0  0  0  0  0  0  0
   -7.5307   -1.3950   -5.7801 C   0  0  0  0  0  0  0  0  0  0  0  0
   -4.3766   -1.0660   -5.9045 C   0  0  0  0  0  0  0  0  0  0  0  0
   -3.0349   -1.4325   -6.0288 C   0  0  0  0  0  0  0  0  0  0  0  0
   -2.4435   -2.3123   -5.0975 C   0  0  0  0  0  0  0  0  0  0  0  0
   -1.0001   -2.6217   -5.1495 C   0  0  0  0  0  0  0  0  0  0  0  0
   -0.1242   -2.1058   -4.1815 C   0  0  0  0  0  0  0  0  0  0  0  0
    1.2481   -2.3610   -4.2651 C   0  0  0  0  0  0  0  0  0  0  0  0
    1.7564   -3.1389   -5.3108 C   0  0  0  0  0  0  0  0  0  0  0  0
    3.5231   -3.4572   -5.4128 S   0  0  0  0  0  0  0  0  0  0  0  0
    3.4584   -4.9042   -4.2987 C   0  0  0  0  0  0  0  0  0  0  0  0
    4.7591   -5.6852   -4.3961 C   0  0  0  0  0  0  0  0  0  0  0  0
    0.8874   -3.6567   -6.2798 C   0  0  0  0  0  0  0  0  0  0  0  0
   -0.4846   -3.3906   -6.2035 C   0  0  0  0  0  0  0  0  0  0  0  0
    1.3679   -4.4108   -7.3000 F   0  0  0  0  0  0  0  0  0  0  0  0
   -3.2496   -2.7328   -4.0274 C   0  0  0  0  0  0  0  0  0  0  0  0
   -2.7620   -3.4631   -2.5919 S   0  0  0  0  0  0  0  0  0  0  0  0
   -2.3199   -0.6135   -6.9212 C   0  0  0  0  0  0  0  0  0  0  0  0
   -3.0449    0.4913   -7.3949 C   0  0  0  0  0  0  0  0  0  0  0  0
   -4.6266    0.3205   -6.8152 S   0  0  0  0  0  0  0  0  0  0  0  0
   -2.3817    1.7978   -7.6521 C   0  0  0  0  0  0  0  0  0  0  0  0
   -0.7697    2.0210   -7.2157 S   0  0  0  0  0  0  0  0  0  0  0  0
   -0.8159    3.6556   -6.8600 C   0  0  0  0  0  0  0  0  0  0  0  0
   -2.1199    4.0820   -7.1057 C   0  0  0  0  0  0  0  0  0  0  0  0
   -2.9693    3.0776   -7.6047 C   0  0  0  0  0  0  0  0  0  0  0  0
   -4.3984    3.4414   -7.8883 C   0  0  0  0  0  0  0  0  0  0  0  0
   -4.9471    4.1852   -6.6531 C   0  0  2  0  0  0  0  0  0  0  0  0
   -6.4409    4.5075   -6.8167 C   0  0  0  0  0  0  0  0  0  0  0  0
   -6.9112    5.1576   -5.6880 F   0  0  0  0  0  0  0  0  0  0  0  0
   -7.1615    3.3352   -6.9775 F   0  0  0  0  0  0  0  0  0  0  0  0
   -6.6459    5.3159   -7.9209 F   0  0  0  0  0  0  0  0  0  0  0  0
   -4.1094    5.4590   -6.3142 C   0  0  0  0  0  0  0  0  0  0  0  0
   -2.6547    5.4677   -6.8601 C   0  0  0  0  0  0  0  0  0  0  0  0
    0.1532    4.2368   -5.9180 C   0  0  0  0  0  0  0  0  0  0  0  0
    1.4993    3.8600   -5.9096 C   0  0  0  0  0  0  0  0  0  0  0  0
    2.0994    3.9422   -4.6416 C   0  0  0  0  0  0  0  0  0  0  0  0
    3.3745    3.4454   -4.3049 C   0  0  0  0  0  0  0  0  0  0  0  0
    4.2950    2.9206   -5.3408 C   0  0  0  0  0  0  0  0  0  0  0  0
    4.6738    1.5712   -5.3447 C   0  0  0  0  0  0  0  0  0  0  0  0
    5.5300    1.0824   -6.3353 C   0  0  0  0  0  0  0  0  0  0  0  0
    6.0454    1.9468   -7.3075 C   0  0  0  0  0  0  0  0  0  0  0  0
    7.1537    1.3141   -8.5750 S   0  0  0  0  0  0  0  0  0  0  0  0
    8.6693    1.5103   -7.5718 C   0  0  0  0  0  0  0  0  0  0  0  0
    9.8734    1.7014   -8.4855 C   0  0  0  0  0  0  0  0  0  0  0  0
    5.6686    3.2949   -7.3092 C   0  0  0  0  0  0  0  0  0  0  0  0
    6.1627    4.1455   -8.2449 F   0  0  0  0  0  0  0  0  0  0  0  0
    4.7900    3.7791   -6.3355 C   0  0  0  0  0  0  0  0  0  0  0  0
    3.6904    3.3829   -2.9371 C   0  0  0  0  0  0  0  0  0  0  0  0
    2.8181    3.8270   -1.9363 C   0  0  0  0  0  0  0  0  0  0  0  0
    1.5593    4.3694   -2.2760 C   0  0  0  0  0  0  0  0  0  0  0  0
    0.5860    4.7648   -1.2319 C   0  0  0  0  0  0  0  0  0  0  0  0
    0.9048    5.7959   -0.3334 C   0  0  0  0  0  0  0  0  0  0  0  0
    0.0258    6.1214    0.7041 C   0  0  0  0  0  0  0  0  0  0  0  0
   -1.1918    5.4408    0.8379 C   0  0  0  0  0  0  0  0  0  0  0  0
   -2.3014    5.8539    2.1903 S   0  0  0  0  0  0  0  0  0  0  0  0
   -3.3151    7.0252    1.2170 C   0  0  0  0  0  0  0  0  0  0  0  0
   -2.6049    8.3664    1.0537 C   0  0  0  0  0  0  0  0  0  0  0  0
   -1.5105    4.4085   -0.0538 C   0  0  0  0  0  0  0  0  0  0  0  0
   -0.6250    4.0729   -1.0874 C   0  0  0  0  0  0  0  0  0  0  0  0
   -2.6710    3.7175    0.0805 F   0  0  0  0  0  0  0  0  0  0  0  0
    1.2254    4.3940   -3.6465 C   0  0  0  0  0  0  0  0  0  0  0  0
   -0.2753    4.6966   -4.3490 S   0  0  0  0  0  0  0  0  0  0  0  0
    3.2686    3.5346   -0.6361 C   0  0  0  0  0  0  0  0  0  0  0  0
    4.4855    2.8529   -0.6234 C   0  0  0  0  0  0  0  0  0  0  0  0
    5.0070    2.6330   -2.2158 S   0  0  0  0  0  0  0  0  0  0  0  0
    5.0595    2.1659    0.5379 C   0  0  0  0  0  0  0  0  0  0  0  0
    5.7741    0.9723    0.4641 C   0  0  0  0  0  0  0  0  0  0  0  0
    6.0522    0.4216    1.7219 C   0  0  0  0  0  0  0  0  0  0  0  0
    6.6757   -0.8188    1.9585 C   0  0  0  0  0  0  0  0  0  0  0  0
    7.0541   -1.7141    0.8454 C   0  0  0  0  0  0  0  0  0  0  0  0
    6.0579   -2.2738    0.0275 C   0  0  0  0  0  0  0  0  0  0  0  0
    6.4108   -3.0314   -1.0917 C   0  0  0  0  0  0  0  0  0  0  0  0
    7.7591   -3.2272   -1.4124 C   0  0  0  0  0  0  0  0  0  0  0  0
    8.1971   -4.1422   -2.8953 S   0  0  0  0  0  0  0  0  0  0  0  0
    8.4045   -2.6634   -3.9489 C   0  0  0  0  0  0  0  0  0  0  0  0
    7.0659   -2.1270   -4.4370 C   0  0  0  0  0  0  0  0  0  0  0  0
    8.7536   -2.7064   -0.5733 C   0  0  0  0  0  0  0  0  0  0  0  0
   10.0652   -2.8873   -0.8663 F   0  0  0  0  0  0  0  0  0  0  0  0
    8.4010   -1.9502    0.5516 C   0  0  0  0  0  0  0  0  0  0  0  0
    6.8669   -1.1847    3.3020 C   0  0  0  0  0  0  0  0  0  0  0  0
    6.4253   -0.3949    4.3667 C   0  0  0  0  0  0  0  0  0  0  0  0
    5.7601    0.8315    4.1266 C   0  0  0  0  0  0  0  0  0  0  0  0
    5.2552    1.6747    5.2338 C   0  0  0  0  0  0  0  0  0  0  0  0
    4.2533    1.2016    6.0928 C   0  0  0  0  0  0  0  0  0  0  0  0
    3.7889    1.9993    7.1420 C   0  0  0  0  0  0  0  0  0  0  0  0
    4.3438    3.2684    7.3576 C   0  0  0  0  0  0  0  0  0  0  0  0
    3.7703    4.2741    8.7313 S   0  0  0  0  0  0  0  0  0  0  0  0
    4.8559    3.4541    9.9480 C   0  0  0  0  0  0  0  0  0  0  0  0
    4.8768    4.2579   11.2393 C   0  0  0  0  0  0  0  0  0  0  0  0
    5.3400    3.7489    6.4961 C   0  0  0  0  0  0  0  0  0  0  0  0
    5.7824    2.9626    5.4283 C   0  0  0  0  0  0  0  0  0  0  0  0
    5.8753    4.9807    6.6859 F   0  0  0  0  0  0  0  0  0  0  0  0
    5.5946    1.2109    2.7834 C   0  0  0  0  0  0  0  0  0  0  0  0
    4.7880    2.5557    2.1598 S   0  0  0  0  0  0  0  0  0  0  0  0
    6.7151   -0.9599    5.6208 C   0  0  0  0  0  0  0  0  0  0  0  0
    7.3676   -2.1872    5.5332 C   0  0  0  0  0  0  0  0  0  0  0  0
    7.5884   -2.5754    3.9088 S   0  0  0  0  0  0  0  0  0  0  0  0
    0.2715   -6.4978   10.3149 H   0  0  0  0  0  0  0  0  0  0  0  0
   -0.4105   -4.1186    9.5197 H   0  0  0  0  0  0  0  0  0  0  0  0
    0.6478   -2.3927    7.5320 H   0  0  0  0  0  0  0  0  0  0  0  0
    0.6919   -0.0697    8.3514 H   0  0  0  0  0  0  0  0  0  0  0  0
   -1.1625    1.8246    6.5193 H   0  0  0  0  0  0  0  0  0  0  0  0
   -2.1945    3.1686    7.1212 H   0  0  0  0  0  0  0  0  0  0  0  0
   -0.1844    4.3199    8.0497 H   0  0  0  0  0  0  0  0  0  0  0  0
    0.8618    2.9421    7.5044 H   0  0  0  0  0  0  0  0  0  0  0  0
    0.0228    3.9784    6.2829 H   0  0  0  0  0  0  0  0  0  0  0  0
   -3.6610   -2.3046    7.5212 H   0  0  0  0  0  0  0  0  0  0  0  0
    0.1089   -7.5394    3.9664 H   0  0  0  0  0  0  0  0  0  0  0  0
    0.2442   -9.8715    3.1778 H   0  0  0  0  0  0  0  0  0  0  0  0
   -2.8833  -13.0412    2.0033 H   0  0  0  0  0  0  0  0  0  0  0  0
   -3.2184  -11.3122    2.3389 H   0  0  0  0  0  0  0  0  0  0  0  0
   -1.1230  -10.6634    1.1420 H   0  0  0  0  0  0  0  0  0  0  0  0
   -0.7030  -12.4127    0.9043 H   0  0  0  0  0  0  0  0  0  0  0  0
   -2.1440  -11.7106    0.0850 H   0  0  0  0  0  0  0  0  0  0  0  0
   -3.3863   -8.5178    6.2796 H   0  0  0  0  0  0  0  0  0  0  0  0
   -2.9003   -6.2876    3.1847 H   0  0  0  0  0  0  0  0  0  0  0  0
   -4.9450   -1.9304    3.8978 H   0  0  0  0  0  0  0  0  0  0  0  0
   -6.4733   -2.4748    3.1609 H   0  0  0  0  0  0  0  0  0  0  0  0
   -4.7690   -0.0834    2.1484 H   0  0  0  0  0  0  0  0  0  0  0  0
   -6.8846    0.3823    0.7977 H   0  0  0  0  0  0  0  0  0  0  0  0
   -7.5806   -1.1408    1.4308 H   0  0  0  0  0  0  0  0  0  0  0  0
   -6.7458   -1.7739   -0.6226 H   0  0  0  0  0  0  0  0  0  0  0  0
   -5.2738   -0.7303   -0.5283 H   0  0  0  0  0  0  0  0  0  0  0  0
   -6.2120   -2.6439   -2.4786 H   0  0  0  0  0  0  0  0  0  0  0  0
   -6.2935   -0.0352   -2.9124 H   0  0  0  0  0  0  0  0  0  0  0  0
   -8.6300    0.7239   -2.7235 H   0  0  0  0  0  0  0  0  0  0  0  0
  -10.7212   -1.3316   -2.6469 H   0  0  0  0  0  0  0  0  0  0  0  0
  -12.3977   -0.7061   -2.7851 H   0  0  0  0  0  0  0  0  0  0  0  0
  -12.7108   -1.9506   -4.9354 H   0  0  0  0  0  0  0  0  0  0  0  0
  -12.2912   -3.0459   -3.5639 H   0  0  0  0  0  0  0  0  0  0  0  0
  -11.0361   -2.6249   -4.7810 H   0  0  0  0  0  0  0  0  0  0  0  0
   -7.2299   -1.9707   -6.6458 H   0  0  0  0  0  0  0  0  0  0  0  0
   -0.5065   -1.4872   -3.3746 H   0  0  0  0  0  0  0  0  0  0  0  0
    1.9119   -1.9534   -3.5129 H   0  0  0  0  0  0  0  0  0  0  0  0
    2.6152   -5.5748   -4.5718 H   0  0  0  0  0  0  0  0  0  0  0  0
    3.3157   -4.5512   -3.2538 H   0  0  0  0  0  0  0  0  0  0  0  0
    4.9018   -6.0551   -5.4352 H   0  0  0  0  0  0  0  0  0  0  0  0
    5.6160   -5.0336   -4.1177 H   0  0  0  0  0  0  0  0  0  0  0  0
    4.7305   -6.5537   -3.7035 H   0  0  0  0  0  0  0  0  0  0  0  0
   -1.1465   -3.7831   -6.9680 H   0  0  0  0  0  0  0  0  0  0  0  0
   -1.2466   -0.7016   -7.0470 H   0  0  0  0  0  0  0  0  0  0  0  0
   -4.4189    4.1206   -8.7693 H   0  0  0  0  0  0  0  0  0  0  0  0
   -5.0142    2.5624   -8.1534 H   0  0  0  0  0  0  0  0  0  0  0  0
   -4.8585    3.4905   -5.7856 H   0  0  0  0  0  0  0  0  0  0  0  0
   -4.0683    5.5628   -5.2057 H   0  0  0  0  0  0  0  0  0  0  0  0
   -4.6179    6.3747   -6.6923 H   0  0  0  0  0  0  0  0  0  0  0  0
   -2.0038    6.0371   -6.1637 H   0  0  0  0  0  0  0  0  0  0  0  0
   -2.6410    6.0102   -7.8308 H   0  0  0  0  0  0  0  0  0  0  0  0
    1.9763    3.3928   -6.7641 H   0  0  0  0  0  0  0  0  0  0  0  0
    4.2858    0.8885   -4.5963 H   0  0  0  0  0  0  0  0  0  0  0  0
    5.7945    0.0357   -6.3452 H   0  0  0  0  0  0  0  0  0  0  0  0
    8.5962    2.3904   -6.8917 H   0  0  0  0  0  0  0  0  0  0  0  0
    8.8112    0.5959   -6.9555 H   0  0  0  0  0  0  0  0  0  0  0  0
    9.7708    2.6665   -9.0347 H   0  0  0  0  0  0  0  0  0  0  0  0
    9.9467    0.8684   -9.2190 H   0  0  0  0  0  0  0  0  0  0  0  0
   10.8066    1.7347   -7.8798 H   0  0  0  0  0  0  0  0  0  0  0  0
    4.4941    4.8191   -6.3555 H   0  0  0  0  0  0  0  0  0  0  0  0
    1.8400    6.3321   -0.4244 H   0  0  0  0  0  0  0  0  0  0  0  0
    0.2916    6.9064    1.4005 H   0  0  0  0  0  0  0  0  0  0  0  0
   -4.2685    7.1919    1.7643 H   0  0  0  0  0  0  0  0  0  0  0  0
   -3.5644    6.5998    0.2217 H   0  0  0  0  0  0  0  0  0  0  0  0
   -1.7274    8.2576    0.3800 H   0  0  0  0  0  0  0  0  0  0  0  0
   -2.2707    8.7470    2.0417 H   0  0  0  0  0  0  0  0  0  0  0  0
   -3.3036    9.1023    0.5999 H   0  0  0  0  0  0  0  0  0  0  0  0
   -0.8763    3.2589   -1.7587 H   0  0  0  0  0  0  0  0  0  0  0  0
    2.6873    3.7159    0.2577 H   0  0  0  0  0  0  0  0  0  0  0  0
    6.0328    0.4992   -0.4734 H   0  0  0  0  0  0  0  0  0  0  0  0
    5.0099   -2.1059    0.2516 H   0  0  0  0  0  0  0  0  0  0  0  0
    5.6350   -3.4467   -1.7216 H   0  0  0  0  0  0  0  0  0  0  0  0
    8.9545   -1.8694   -3.4046 H   0  0  0  0  0  0  0  0  0  0  0  0
    9.0100   -2.9520   -4.8376 H   0  0  0  0  0  0  0  0  0  0  0  0
    6.4217   -1.8417   -3.5830 H   0  0  0  0  0  0  0  0  0  0  0  0
    7.2425   -1.2236   -5.0513 H   0  0  0  0  0  0  0  0  0  0  0  0
    6.5513   -2.8836   -5.0565 H   0  0  0  0  0  0  0  0  0  0  0  0
    9.1790   -1.5202    1.1702 H   0  0  0  0  0  0  0  0  0  0  0  0
    3.8324    0.2166    5.9509 H   0  0  0  0  0  0  0  0  0  0  0  0
    3.0164    1.6264    7.8021 H   0  0  0  0  0  0  0  0  0  0  0  0
    4.4768    2.4293   10.1495 H   0  0  0  0  0  0  0  0  0  0  0  0
    5.8953    3.3722    9.5557 H   0  0  0  0  0  0  0  0  0  0  0  0
    5.3218    5.2609   11.0540 H   0  0  0  0  0  0  0  0  0  0  0  0
    5.4929    3.7278   11.9997 H   0  0  0  0  0  0  0  0  0  0  0  0
    3.8450    4.3838   11.6370 H   0  0  0  0  0  0  0  0  0  0  0  0
    6.5481    3.3450    4.7692 H   0  0  0  0  0  0  0  0  0  0  0  0
    6.4706   -0.4925    6.5677 H   0  0  0  0  0  0  0  0  0  0  0  0
    7.6795   -2.7894    6.3735 H   0  0  0  0  0  0  0  0  0  0  0  0
  1  2  2  0
  2  3  1  0
  3  4  2  0
  4  5  1  0
  5  6  2  0
  6  7  1  0
  7  8  2  0
  8  9  1  0
  9 10  1  0
 10 11  1  0
  8 12  1  0
 12 13  1  0
 12 14  2  0
  4 15  1  0
 15 16  2  0
 16 17  1  0
 17 18  1  0
 18 19  2  0
 19 20  1  0
 20 21  2  0
 21 22  1  0
 22 23  1  0
 23 24  1  0
 21 25  1  0
 25 26  2  0
 25 27  1  0
 17 28  2  0
 28 29  1  0
 16 30  1  0
 30 31  2  0
 31 32  1  0
 31 33  1  0
 33 34  1  0
 34 35  1  0
 35 36  2  0
 36 37  1  0
 37 38  1  0
 38 39  1  0
 39 40  1  0
 40 41  1  0
 40 42  1  0
 40 43  1  0
 39 44  1  0
 44 45  1  0
 35 46  1  0
 46 47  2  0
 47 48  1  0
 48 49  2  0
 49 50  1  0
 50 51  2  0
 51 52  1  0
 52 53  2  0
 53 54  1  0
 54 55  1  0
 55 56  1  0
 53 57  1  0
 57 58  1  0
 57 59  2  0
 49 60  1  0
 60 61  2  0
 61 62  1  0
 62 63  1  0
 63 64  2  0
 64 65  1  0
 65 66  2  0
 66 67  1  0
 67 68  1  0
 68 69  1  0
 66 70  1  0
 70 71  2  0
 70 72  1  0
 62 73  2  0
 73 74  1  0
 61 75  1  0
 75 76  2  0
 76 77  1  0
 76 78  1  0
 78 79  1  0
 79 80  1  0
 80 81  2  0
 81 82  1  0
 82 83  1  0
 83 84  1  0
 84 85  1  0
 85 86  1  0
 85 87  1  0
 85 88  1  0
 84 89  1  0
 89 90  1  0
 80 91  1  0
 91 92  2  0
 92 93  1  0
 93 94  2  0
 94 95  1  0
 95 96  2  0
 96 97  1  0
 97 98  2  0
 98 99  1  0
 99100  1  0
100101  1  0
 98102  1  0
102103  1  0
102104  2  0
 94105  1  0
105106  2  0
106107  1  0
107108  1  0
108109  2  0
109110  1  0
110111  2  0
111112  1  0
112113  1  0
113114  1  0
111115  1  0
115116  2  0
115117  1  0
107118  2  0
118119  1  0
106120  1  0
120121  2  0
121122  1  0
121123  1  0
123124  2  0
124125  1  0
125126  2  0
126127  1  0
127128  2  0
128129  1  0
129130  2  0
130131  1  0
131132  1  0
132133  1  0
130134  1  0
134135  1  0
134136  2  0
126137  1  0
137138  2  0
138139  1  0
139140  1  0
140141  2  0
141142  1  0
142143  2  0
143144  1  0
144145  1  0
145146  1  0
143147  1  0
147148  2  0
147149  1  0
139150  2  0
150151  1  0
138152  1  0
152153  2  0
153154  1  0
 29  1  1  0
 37 33  2  0
 74 46  1  0
 82 78  2  0
119 91  1  0
151123  1  0
 28  3  1  0
 45 36  1  0
 73 48  1  0
 90 81  1  0
118 93  1  0
150125  1  0
 14  5  1  0
 32 15  1  0
 59 50  1  0
 77 60  1  0
104 95  1  0
122105  1  0
136127  1  0
154137  1  0
 26 18  1  0
 71 63  1  0
116108  1  0
148140  1  0
  1155  1  0
  2156  1  0
  6157  1  0
  7158  1  0
 10159  1  0
 10160  1  0
 11161  1  0
 11162  1  0
 11163  1  0
 14164  1  0
 19165  1  0
 20166  1  0
 23167  1  0
 23168  1  0
 24169  1  0
 24170  1  0
 24171  1  0
 26172  1  0
 30173  1  0
 38174  1  0
 38175  1  0
 39176  1  6
 44177  1  0
 44178  1  0
 45179  1  0
 45180  1  0
 47181  1  0
 51182  1  0
 52183  1  0
 55184  1  0
 55185  1  0
 56186  1  0
 56187  1  0
 56188  1  0
 59189  1  0
 64190  1  0
 65191  1  0
 68192  1  0
 68193  1  0
 69194  1  0
 69195  1  0
 69196  1  0
 71197  1  0
 75198  1  0
 83199  1  0
 83200  1  0
 84201  1  1
 89202  1  0
 89203  1  0
 90204  1  0
 90205  1  0
 92206  1  0
 96207  1  0
 97208  1  0
100209  1  0
100210  1  0
101211  1  0
101212  1  0
101213  1  0
104214  1  0
109215  1  0
110216  1  0
113217  1  0
113218  1  0
114219  1  0
114220  1  0
114221  1  0
116222  1  0
120223  1  0
124224  1  0
128225  1  0
129226  1  0
132227  1  0
132228  1  0
133229  1  0
133230  1  0
133231  1  0
136232  1  0
141233  1  0
142234  1  0
145235  1  0
145236  1  0
146237  1  0
146238  1  0
146239  1  0
148240  1  0
152241  1  0
153242  1  0
M  END

