
     RDKit          3D

185205  0  0  0  0  0  0  0  0999 V2000
   13.7899   -7.8090    7.9410 C   0  0  0  0  0  0  0  0  0  0  0  0
   13.0775   -7.0378    6.6026 S   0  0  0  0  0  0  0  0  0  0  0  0
   11.4592   -7.4922    6.8658 C   0  0  0  0  0  0  0  0  0  0  0  0
   11.5037   -8.2582    8.0248 C   0  0  0  0  0  0  0  0  0  0  0  0
   12.7328   -8.4230    8.5852 C   0  0  0  0  0  0  0  0  0  0  0  0
   12.5910   -9.2075    9.7043 C   0  0  0  0  0  0  0  0  0  0  0  0
   11.2217   -9.4839    9.7588 C   0  0  0  0  0  0  0  0  0  0  0  0
   10.5575   -8.9008    8.7284 N   0  0  0  0  0  0  0  0  0  0  0  0
   10.3045   -7.1353    6.0232 C   0  0  0  0  0  0  0  0  0  0  0  0
   10.3665   -6.3755    4.8514 C   0  0  0  0  0  0  0  0  0  0  0  0
    9.1107   -6.1934    4.2448 C   0  0  0  0  0  0  0  0  0  0  0  0
    8.8393   -5.4826    3.0537 C   0  0  0  0  0  0  0  0  0  0  0  0
    9.9033   -4.7898    2.2956 C   0  0  0  0  0  0  0  0  0  0  0  0
   10.6477   -3.7627    2.8973 C   0  0  0  0  0  0  0  0  0  0  0  0
   11.6665   -3.1225    2.1874 C   0  0  0  0  0  0  0  0  0  0  0  0
   11.9430   -3.4932    0.8651 C   0  0  0  0  0  0  0  0  0  0  0  0
   13.2702   -2.6774   -0.0315 S   0  0  0  0  0  0  0  0  0  0  0  0
   12.1965   -1.4323   -0.8261 C   0  0  0  0  0  0  0  0  0  0  0  0
   11.9496   -0.2517    0.1040 C   0  0  0  0  0  0  0  0  0  0  0  0
   11.2062   -4.5210    0.2606 C   0  0  0  0  0  0  0  0  0  0  0  0
   11.4736   -4.9007   -1.0140 F   0  0  0  0  0  0  0  0  0  0  0  0
   10.1888   -5.1641    0.9728 C   0  0  0  0  0  0  0  0  0  0  0  0
    7.4995   -5.4667    2.6150 C   0  0  0  0  0  0  0  0  0  0  0  0
    6.4749   -6.1141    3.3135 C   0  0  0  0  0  0  0  0  0  0  0  0
    6.7434   -6.7975    4.5118 C   0  0  0  0  0  0  0  0  0  0  0  0
    5.6705   -7.4212    5.3058 C   0  0  0  0  0  0  0  0  0  0  0  0
    4.9034   -6.6375    6.1796 C   0  0  0  0  0  0  0  0  0  0  0  0
    3.8716   -7.2194    6.9200 C   0  0  0  0  0  0  0  0  0  0  0  0
    3.5926   -8.5866    6.7840 C   0  0  0  0  0  0  0  0  0  0  0  0
    2.2576   -9.3206    7.7364 S   0  0  0  0  0  0  0  0  0  0  0  0
    0.9327   -8.8253    6.5789 C   0  0  0  0  0  0  0  0  0  0  0  0
    0.8754   -9.7527    5.3718 C   0  0  0  0  0  0  0  0  0  0  0  0
    4.3692   -9.3748    5.9218 C   0  0  0  0  0  0  0  0  0  0  0  0
    5.4041   -8.7914    5.1833 C   0  0  0  0  0  0  0  0  0  0  0  0
    4.1227  -10.7016    5.7954 F   0  0  0  0  0  0  0  0  0  0  0  0
    8.0768   -6.8257    4.9421 C   0  0  0  0  0  0  0  0  0  0  0  0
    8.7030   -7.5851    6.3027 S   0  0  0  0  0  0  0  0  0  0  0  0
    5.2206   -5.9894    2.7052 C   0  0  0  0  0  0  0  0  0  0  0  0
    5.2558   -5.2271    1.5405 C   0  0  0  0  0  0  0  0  0  0  0  0
    6.8367   -4.6969    1.2662 S   0  0  0  0  0  0  0  0  0  0  0  0
    4.0861   -4.9224    0.7049 C   0  0  0  0  0  0  0  0  0  0  0  0
    3.7518   -3.4609   -0.1015 S   0  0  0  0  0  0  0  0  0  0  0  0
    2.1889   -3.8493   -0.6572 C   0  0  0  0  0  0  0  0  0  0  0  0
    1.9601   -5.1429   -0.2033 C   0  0  0  0  0  0  0  0  0  0  0  0
    2.9605   -5.7073    0.5211 C   0  0  0  0  0  0  0  0  0  0  0  0
    2.5711   -6.9831    0.8583 C   0  0  0  0  0  0  0  0  0  0  0  0
    1.3049   -7.1220    0.2824 C   0  0  0  0  0  0  0  0  0  0  0  0
    0.9337   -5.9918   -0.3710 N   0  0  0  0  0  0  0  0  0  0  0  0
    1.2294   -2.9218   -1.2795 C   0  0  0  0  0  0  0  0  0  0  0  0
   -0.1548   -2.9677   -1.1207 C   0  0  0  0  0  0  0  0  0  0  0  0
   -0.8107   -1.8639   -1.6827 C   0  0  0  0  0  0  0  0  0  0  0  0
   -2.1940   -1.6071   -1.6296 C   0  0  0  0  0  0  0  0  0  0  0  0
   -3.1399   -2.5383   -0.9817 C   0  0  0  0  0  0  0  0  0  0  0  0
   -4.0785   -3.2383   -1.7560 C   0  0  0  0  0  0  0  0  0  0  0  0
   -4.9672   -4.1290   -1.1477 C   0  0  0  0  0  0  0  0  0  0  0  0
   -4.9317   -4.3214    0.2376 C   0  0  0  0  0  0  0  0  0  0  0  0
   -6.0834   -5.4637    1.0080 S   0  0  0  0  0  0  0  0  0  0  0  0
   -7.3693   -4.1942    1.2512 C   0  0  0  0  0  0  0  0  0  0  0  0
   -8.5812   -4.8081    1.9356 C   0  0  0  0  0  0  0  0  0  0  0  0
   -3.9950   -3.6246    1.0160 C   0  0  0  0  0  0  0  0  0  0  0  0
   -3.9489   -3.8035    2.3591 F   0  0  0  0  0  0  0  0  0  0  0  0
   -3.1039   -2.7344    0.4073 C   0  0  0  0  0  0  0  0  0  0  0  0
   -2.6369   -0.4010   -2.1968 C   0  0  0  0  0  0  0  0  0  0  0  0
   -1.7711    0.5139   -2.8055 C   0  0  0  0  0  0  0  0  0  0  0  0
   -0.3859    0.2437   -2.8840 C   0  0  0  0  0  0  0  0  0  0  0  0
    0.5602    1.1715   -3.5412 C   0  0  0  0  0  0  0  0  0  0  0  0
    1.2986    0.7459   -4.6570 C   0  0  0  0  0  0  0  0  0  0  0  0
    2.1768    1.6243   -5.2955 C   0  0  0  0  0  0  0  0  0  0  0  0
    2.3170    2.9382   -4.8356 C   0  0  0  0  0  0  0  0  0  0  0  0
    3.4341    4.0662   -5.6794 S   0  0  0  0  0  0  0  0  0  0  0  0
    2.1510    4.7999   -6.7561 C   0  0  0  0  0  0  0  0  0  0  0  0
    1.8678    3.9095   -7.9593 C   0  0  0  0  0  0  0  0  0  0  0  0
    1.5992    3.3617   -3.7088 C   0  0  0  0  0  0  0  0  0  0  0  0
    0.7267    2.4805   -3.0611 C   0  0  0  0  0  0  0  0  0  0  0  0
    1.7422    4.6272   -3.2389 F   0  0  0  0  0  0  0  0  0  0  0  0
    0.0588   -0.9588   -2.2993 C   0  0  0  0  0  0  0  0  0  0  0  0
    1.6414   -1.5113   -2.1140 S   0  0  0  0  0  0  0  0  0  0  0  0
   -2.4290    1.6746   -3.2528 C   0  0  0  0  0  0  0  0  0  0  0  0
   -3.7928    1.6762   -2.9573 C   0  0  0  0  0  0  0  0  0  0  0  0
   -4.1921    0.2327   -2.1771 S   0  0  0  0  0  0  0  0  0  0  0  0
   -4.7117    2.8116   -3.1305 C   0  0  0  0  0  0  0  0  0  0  0  0
   -6.0093    2.8716   -2.6219 C   0  0  0  0  0  0  0  0  0  0  0  0
   -6.6062    4.1322   -2.7813 C   0  0  0  0  0  0  0  0  0  0  0  0
   -7.8777    4.5171   -2.3067 C   0  0  0  0  0  0  0  0  0  0  0  0
   -8.7392    3.5780   -1.5570 C   0  0  0  0  0  0  0  0  0  0  0  0
   -8.3131    3.0703   -0.3192 C   0  0  0  0  0  0  0  0  0  0  0  0
   -9.0770    2.1096    0.3481 C   0  0  0  0  0  0  0  0  0  0  0  0
  -10.2692    1.6417   -0.2185 C   0  0  0  0  0  0  0  0  0  0  0  0
  -11.2170    0.3714    0.6289 S   0  0  0  0  0  0  0  0  0  0  0  0
  -10.2061   -1.0305    0.0309 C   0  0  0  0  0  0  0  0  0  0  0  0
  -10.5352   -1.3768   -1.4154 C   0  0  0  0  0  0  0  0  0  0  0  0
  -10.7171    2.1747   -1.4363 C   0  0  0  0  0  0  0  0  0  0  0  0
  -11.8831    1.7482   -1.9837 F   0  0  0  0  0  0  0  0  0  0  0  0
   -9.9541    3.1406   -2.1021 C   0  0  0  0  0  0  0  0  0  0  0  0
   -8.2637    5.8492   -2.5388 C   0  0  0  0  0  0  0  0  0  0  0  0
   -7.4354    6.7671   -3.1939 C   0  0  0  0  0  0  0  0  0  0  0  0
   -6.1675    6.3793   -3.6700 C   0  0  0  0  0  0  0  0  0  0  0  0
   -5.2651    7.3424   -4.3278 C   0  0  0  0  0  0  0  0  0  0  0  0
   -5.0748    7.2943   -5.7167 C   0  0  0  0  0  0  0  0  0  0  0  0
   -4.2878    8.2613   -6.3495 C   0  0  0  0  0  0  0  0  0  0  0  0
   -3.6860    9.2804   -5.6009 C   0  0  0  0  0  0  0  0  0  0  0  0
   -2.6930   10.5270   -6.4301 S   0  0  0  0  0  0  0  0  0  0  0  0
   -4.1003   11.6211   -6.8407 C   0  0  0  0  0  0  0  0  0  0  0  0
   -4.4030   12.5778   -5.6954 C   0  0  0  0  0  0  0  0  0  0  0  0
   -3.8545    9.3138   -4.2080 C   0  0  0  0  0  0  0  0  0  0  0  0
   -4.6487    8.3530   -3.5770 C   0  0  0  0  0  0  0  0  0  0  0  0
   -3.2588   10.2804   -3.4652 F   0  0  0  0  0  0  0  0  0  0  0  0
   -5.7844    5.0470   -3.4460 C   0  0  0  0  0  0  0  0  0  0  0  0
   -4.3118    4.3118   -3.8015 S   0  0  0  0  0  0  0  0  0  0  0  0
   -7.9932    8.0513   -3.2854 C   0  0  0  0  0  0  0  0  0  0  0  0
   -9.2434    8.1481   -2.6788 C   0  0  0  0  0  0  0  0  0  0  0  0
   -9.6756    6.6338   -2.0589 S   0  0  0  0  0  0  0  0  0  0  0  0
  -10.0632    9.3675   -2.5752 C   0  0  0  0  0  0  0  0  0  0  0  0
  -11.7227    9.4365   -2.2076 S   0  0  0  0  0  0  0  0  0  0  0  0
  -11.9271   11.1232   -2.2442 C   0  0  0  0  0  0  0  0  0  0  0  0
  -10.6680   11.6100   -2.5411 C   0  0  0  0  0  0  0  0  0  0  0  0
   -9.6765   10.6935   -2.7148 C   0  0  0  0  0  0  0  0  0  0  0  0
   -8.5045   11.3912   -2.9290 C   0  0  0  0  0  0  0  0  0  0  0  0
   -8.8822   12.7366   -2.8830 C   0  0  0  0  0  0  0  0  0  0  0  0
  -10.2112   12.8667   -2.6430 N   0  0  0  0  0  0  0  0  0  0  0  0
   14.8332   -7.8228    8.2255 H   0  0  0  0  0  0  0  0  0  0  0  0
   13.3620   -9.5403   10.3874 H   0  0  0  0  0  0  0  0  0  0  0  0
   10.7389  -10.0872   10.5167 H   0  0  0  0  0  0  0  0  0  0  0  0
    9.5352   -8.9581    8.5391 H   0  0  0  0  0  0  0  0  0  0  0  0
   11.2910   -5.9791    4.4544 H   0  0  0  0  0  0  0  0  0  0  0  0
   10.4383   -3.4609    3.9162 H   0  0  0  0  0  0  0  0  0  0  0  0
   12.2397   -2.3399    2.6666 H   0  0  0  0  0  0  0  0  0  0  0  0
   11.2295   -1.8819   -1.1376 H   0  0  0  0  0  0  0  0  0  0  0  0
   12.7112   -1.0675   -1.7399 H   0  0  0  0  0  0  0  0  0  0  0  0
   12.9168    0.1758    0.4450 H   0  0  0  0  0  0  0  0  0  0  0  0
   11.3566   -0.5710    0.9848 H   0  0  0  0  0  0  0  0  0  0  0  0
   11.3797    0.5344   -0.4329 H   0  0  0  0  0  0  0  0  0  0  0  0
    9.6309   -5.9644    0.5001 H   0  0  0  0  0  0  0  0  0  0  0  0
    5.1051   -5.5787    6.2853 H   0  0  0  0  0  0  0  0  0  0  0  0
    3.2818   -6.6068    7.5899 H   0  0  0  0  0  0  0  0  0  0  0  0
   -0.0340   -8.8828    7.1192 H   0  0  0  0  0  0  0  0  0  0  0  0
    1.0755   -7.7753    6.2462 H   0  0  0  0  0  0  0  0  0  0  0  0
    1.7877   -9.6402    4.7507 H   0  0  0  0  0  0  0  0  0  0  0  0
   -0.0048   -9.4946    4.7464 H   0  0  0  0  0  0  0  0  0  0  0  0
    0.7808  -10.8088    5.7026 H   0  0  0  0  0  0  0  0  0  0  0  0
    5.9961   -9.4029    4.5134 H   0  0  0  0  0  0  0  0  0  0  0  0
    4.3127   -6.4154    3.1114 H   0  0  0  0  0  0  0  0  0  0  0  0
    3.1283   -7.7275    1.4096 H   0  0  0  0  0  0  0  0  0  0  0  0
    0.7006   -8.0185    0.3218 H   0  0  0  0  0  0  0  0  0  0  0  0
    0.0602   -5.8504   -0.9233 H   0  0  0  0  0  0  0  0  0  0  0  0
   -0.6644   -3.7350   -0.5562 H   0  0  0  0  0  0  0  0  0  0  0  0
   -4.1160   -3.0992   -2.8294 H   0  0  0  0  0  0  0  0  0  0  0  0
   -5.6857   -4.6667   -1.7541 H   0  0  0  0  0  0  0  0  0  0  0  0
   -7.6752   -3.7785    0.2674 H   0  0  0  0  0  0  0  0  0  0  0  0
   -6.9681   -3.3734    1.8812 H   0  0  0  0  0  0  0  0  0  0  0  0
   -8.2885   -5.2520    2.9110 H   0  0  0  0  0  0  0  0  0  0  0  0
   -9.0251   -5.5968    1.2926 H   0  0  0  0  0  0  0  0  0  0  0  0
   -9.3449   -4.0217    2.1159 H   0  0  0  0  0  0  0  0  0  0  0  0
   -2.3860   -2.1963    1.0142 H   0  0  0  0  0  0  0  0  0  0  0  0
    1.1848   -0.2619   -5.0381 H   0  0  0  0  0  0  0  0  0  0  0  0
    2.7408    1.2841   -6.1554 H   0  0  0  0  0  0  0  0  0  0  0  0
    2.5247    5.7797   -7.1178 H   0  0  0  0  0  0  0  0  0  0  0  0
    1.2143    4.9795   -6.1881 H   0  0  0  0  0  0  0  0  0  0  0  0
    2.8097    3.6948   -8.5080 H   0  0  0  0  0  0  0  0  0  0  0  0
    1.1621    4.4233   -8.6461 H   0  0  0  0  0  0  0  0  0  0  0  0
    1.4054    2.9541   -7.6375 H   0  0  0  0  0  0  0  0  0  0  0  0
    0.1795    2.8168   -2.1908 H   0  0  0  0  0  0  0  0  0  0  0  0
   -1.9311    2.5059   -3.7354 H   0  0  0  0  0  0  0  0  0  0  0  0
   -6.4850    2.0400   -2.1194 H   0  0  0  0  0  0  0  0  0  0  0  0
   -7.3797    3.4034    0.1179 H   0  0  0  0  0  0  0  0  0  0  0  0
   -8.7304    1.7121    1.2932 H   0  0  0  0  0  0  0  0  0  0  0  0
  -10.4277   -1.9110    0.6685 H   0  0  0  0  0  0  0  0  0  0  0  0
   -9.1232   -0.8044    0.1305 H   0  0  0  0  0  0  0  0  0  0  0  0
   -9.9942   -2.3018   -1.7070 H   0  0  0  0  0  0  0  0  0  0  0  0
  -10.2157   -0.5579   -2.0927 H   0  0  0  0  0  0  0  0  0  0  0  0
  -11.6260   -1.5488   -1.5310 H   0  0  0  0  0  0  0  0  0  0  0  0
  -10.2956    3.5261   -3.0549 H   0  0  0  0  0  0  0  0  0  0  0  0
   -5.5556    6.5255   -6.3102 H   0  0  0  0  0  0  0  0  0  0  0  0
   -4.1615    8.2266   -7.4242 H   0  0  0  0  0  0  0  0  0  0  0  0
   -3.8257   12.2126   -7.7388 H   0  0  0  0  0  0  0  0  0  0  0  0
   -5.0085   11.0305   -7.0900 H   0  0  0  0  0  0  0  0  0  0  0  0
   -3.4959   13.1647   -5.4344 H   0  0  0  0  0  0  0  0  0  0  0  0
   -4.7463   12.0177   -4.8030 H   0  0  0  0  0  0  0  0  0  0  0  0
   -5.2075   13.2798   -6.0010 H   0  0  0  0  0  0  0  0  0  0  0  0
   -4.7940    8.4025   -2.5057 H   0  0  0  0  0  0  0  0  0  0  0  0
   -7.5087    8.8728   -3.7890 H   0  0  0  0  0  0  0  0  0  0  0  0
  -12.8272   11.6924   -2.0537 H   0  0  0  0  0  0  0  0  0  0  0  0
   -7.5042   11.0063   -3.0602 H   0  0  0  0  0  0  0  0  0  0  0  0
   -8.2088   13.5737   -2.9980 H   0  0  0  0  0  0  0  0  0  0  0  0
  -10.7529   13.7533   -2.5348 H   0  0  0  0  0  0  0  0  0  0  0  0
  1  2  1  0
  2  3  1  0
  3  4  2  0
  4  5  1  0
  5  6  1  0
  6  7  2  0
  7  8  1  0
  3  9  1  0
  9 10  2  0
 10 11  1  0
 11 12  2  0
 12 13  1  0
 13 14  2  0
 14 15  1  0
 15 16  2  0
 16 17  1  0
 17 18  1  0
 18 19  1  0
 16 20  1  0
 20 21  1  0
 20 22  2  0
 12 23  1  0
 23 24  2  0
 24 25  1  0
 25 26  1  0
 26 27  2  0
 27 28  1  0
 28 29  2  0
 29 30  1  0
 30 31  1  0
 31 32  1  0
 29 33  1  0
 33 34  2  0
 33 35  1  0
 25 36  2  0
 36 37  1  0
 24 38  1  0
 38 39  2  0
 39 40  1  0
 39 41  1  0
 41 42  1  0
 42 43  1  0
 43 44  2  0
 44 45  1  0
 45 46  1  0
 46 47  2  0
 47 48  1  0
 43 49  1  0
 49 50  2  0
 50 51  1  0
 51 52  2  0
 52 53  1  0
 53 54  2  0
 54 55  1  0
 55 56  2  0
 56 57  1  0
 57 58  1  0
 58 59  1  0
 56 60  1  0
 60 61  1  0
 60 62  2  0
 52 63  1  0
 63 64  2  0
 64 65  1  0
 65 66  1  0
 66 67  2  0
 67 68  1  0
 68 69  2  0
 69 70  1  0
 70 71  1  0
 71 72  1  0
 69 73  1  0
 73 74  2  0
 73 75  1  0
 65 76  2  0
 76 77  1  0
 64 78  1  0
 78 79  2  0
 79 80  1  0
 79 81  1  0
 81 82  2  0
 82 83  1  0
 83 84  2  0
 84 85  1  0
 85 86  2  0
 86 87  1  0
 87 88  2  0
 88 89  1  0
 89 90  1  0
 90 91  1  0
 88 92  1  0
 92 93  1  0
 92 94  2  0
 84 95  1  0
 95 96  2  0
 96 97  1  0
 97 98  1  0
 98 99  2  0
 99100  1  0
100101  2  0
101102  1  0
102103  1  0
103104  1  0
101105  1  0
105106  2  0
105107  1  0
 97108  2  0
108109  1  0
 96110  1  0
110111  2  0
111112  1  0
111113  1  0
113114  1  0
114115  1  0
115116  2  0
116117  1  0
117118  1  0
118119  2  0
119120  1  0
  5  1  2  0
 37  9  1  0
 45 41  2  0
 77 49  1  0
109 81  1  0
117113  2  0
  8  4  1  0
 36 11  1  0
 48 44  1  0
 76 51  1  0
108 83  1  0
120116  1  0
 22 13  1  0
 40 23  1  0
 62 53  1  0
 80 63  1  0
 94 85  1  0
112 95  1  0
 34 26  1  0
 74 66  1  0
106 98  1  0
  1121  1  0
  6122  1  0
  7123  1  0
  8124  1  0
 10125  1  0
 14126  1  0
 15127  1  0
 18128  1  0
 18129  1  0
 19130  1  0
 19131  1  0
 19132  1  0
 22133  1  0
 27134  1  0
 28135  1  0
 31136  1  0
 31137  1  0
 32138  1  0
 32139  1  0
 32140  1  0
 34141  1  0
 38142  1  0
 46143  1  0
 47144  1  0
 48145  1  0
 50146  1  0
 54147  1  0
 55148  1  0
 58149  1  0
 58150  1  0
 59151  1  0
 59152  1  0
 59153  1  0
 62154  1  0
 67155  1  0
 68156  1  0
 71157  1  0
 71158  1  0
 72159  1  0
 72160  1  0
 72161  1  0
 74162  1  0
 78163  1  0
 82164  1  0
 86165  1  0
 87166  1  0
 90167  1  0
 90168  1  0
 91169  1  0
 91170  1  0
 91171  1  0
 94172  1  0
 99173  1  0
100174  1  0
103175  1  0
103176  1  0
104177  1  0
104178  1  0
104179  1  0
106180  1  0
110181  1  0
115182  1  0
118183  1  0
119184  1  0
120185  1  0
M  END

