140
IT-DOH.sdf
C         -3.55927       -2.57467       -1.78623
O         -4.74170       -2.51211       -1.87092
C         -2.86890       -3.73235       -2.34101
C         -3.24309       -4.65392       -3.39527
C         -2.45955       -5.80140       -3.57965
C         -1.36107       -6.02678       -2.75680
C         -1.00707       -5.10123       -1.75543
C         -1.76071       -3.91898       -1.54689
C         -1.66419       -2.77509       -0.51308
C         -0.77714       -2.69857        0.50337
C         -0.84434       -1.62621        1.46255
N         -0.86301       -0.78332        2.25547
C          0.23964       -3.70934        0.68411
N          1.03283       -4.54807        0.77865
C         -2.85406       -1.84448       -0.75353
C         -3.33859       -0.63110       -0.19428
C         -4.71246        0.10690       -0.51759
C         -4.99365        1.50967       -0.46498
C         -6.34803        1.84955       -0.69499
C         -7.24718        0.82208       -0.90095
S         -6.27670       -0.58043       -0.90095
C         -8.63869        1.25648       -0.89300
C        -10.13929        0.69814       -0.71101
C        -10.72210       -0.39080       -1.72634
C        -10.61409       -1.80599       -1.54274
C        -11.16561       -2.75231       -2.38508
C        -11.79352       -2.36692       -3.54584
C        -12.17781       -3.43933       -4.52953
C        -13.66694       -3.50153       -4.81081
C        -11.94921       -1.00060       -3.79914
C        -11.44297       -0.03357       -2.90082
C        -10.07132        0.22845        0.85591
C        -10.43483        1.21395        1.79139
C         -9.47416        1.72200        2.66357
C         -8.19419        1.17492        2.74448
C         -7.15195        1.89465        3.54704
C         -7.60343        2.01939        5.04585
C         -7.96358       -0.03726        2.11045
C         -8.94958       -0.54836        1.26536
C        -10.85104        2.15103       -0.86776
C         -9.95332        3.20247       -0.72009
C         -8.64236        2.63925       -0.75671
S         -7.11314        3.35172       -0.62811
C        -10.31511        4.57580       -0.61095
C        -11.68123        4.96938       -0.72083
C        -12.45182        6.37418       -0.61575
C        -11.92980        7.10447        0.80491
C        -10.79339        7.96426        0.79454
C        -10.05920        8.48000        1.83955
C        -10.44337        8.25589        3.11688
C         -9.55277        8.83136        4.21836
C         -9.94198       10.24624        4.63657
C        -11.62691        7.49997        3.29247
C        -12.34979        6.91751        2.16957
C        -11.99661        7.15107       -1.89878
C        -12.83042        8.09867       -2.52882
C        -12.53253        8.52787       -3.82650
C        -11.38587        8.07115       -4.48967
C        -11.09902        8.34556       -5.90752
C         -9.79382        9.10089       -6.03191
C        -10.51328        7.25416       -3.85260
C        -10.83835        6.78942       -2.64349
C        -13.99505        5.84175       -0.97899
C        -13.79818        4.48024       -1.12941
C        -12.52151        3.95201       -1.05955
C        -12.18144        2.56155       -1.12303
S        -14.86638        3.58696       -0.31991
C        -15.59988        4.93121        0.41259
C        -15.40459        5.92404       -0.50610
S        -16.82338        5.53728       -1.53809
C        -17.60176        4.39215       -0.39255
C        -16.91858        4.72739        0.76803
C        -17.75782        2.76883       -0.44807
C        -18.41787        2.04534        0.58656
C        -18.78868        0.70903        1.32753
C        -18.18429       -0.51396        1.33540
C        -18.55452       -1.53660        2.31276
N        -18.80418       -2.38480        3.06396
C        -17.08101       -0.86935        0.47534
N        -16.19807       -1.13377       -0.22359
C        -19.85133        1.15603        2.35160
C        -20.38455        0.67770        3.58221
C        -21.16629        1.57377        4.38008
C        -21.48767        2.86111        3.93948
C        -20.93555        3.33907        2.79332
C        -20.10787        2.47451        2.08909
C        -18.97665        2.95779        1.47629
O        -18.17676        3.26742        2.35581
O        -21.08219        4.66125        2.52588
O         -4.31747       -4.49164       -4.21334
H         -2.71265       -6.53574       -4.34823
H         -0.78159       -6.93201       -2.89858
H         -0.16657       -5.36458       -1.16329
H         -2.72050       -0.12433        0.55787
H         -4.31785        2.31441       -0.25287
H        -10.10140       -2.32518       -0.81025
H        -11.04905       -3.80821       -2.14173
H        -11.60872       -3.28445       -5.47124
H        -11.85299       -4.42550       -4.13061
H        -14.00157       -2.55288       -5.27479
H        -13.86325       -4.34286       -5.51003
H        -14.22667       -3.68736       -3.86978
H        -12.43706       -0.68878       -4.71074
H        -11.59705        0.98281       -3.18312
H        -11.37071        1.73656        1.75754
H         -9.71113        2.60674        3.22507
H         -6.13592        1.44728        3.42442
H         -7.01932        2.84414        2.99804
H         -7.62837        1.00274        5.49021
H         -6.94354        2.49905        5.76702
H         -8.51603        2.65341        5.21168
H         -7.02434       -0.57797        2.22882
H         -8.75439       -1.50439        0.90155
H         -9.51652        5.27338       -0.46358
H        -10.35830        8.31356       -0.01791
H         -9.15716        9.06038        1.60877
H         -9.54015        8.16377        5.09913
H         -8.49042        8.89264        3.86733
H        -10.95304       10.24493        5.08644
H         -9.22279       10.63302        5.39613
H         -9.91366       10.92511        3.75791
H        -11.95421        7.34121        4.30602
H        -13.20813        6.32654        2.42186
H        -13.76343        8.44054       -2.10982
H        -13.22685        9.16756       -4.32836
H        -11.03863        7.37065       -6.44488
H        -11.94339        8.91741       -6.33990
H         -8.95983        8.50812       -5.59513
H         -9.59798        9.29282       -7.09389
H         -9.87391       10.06669       -5.49601
H         -9.60298        6.86016       -4.30792
H        -10.14557        6.06116       -2.46156
H        -12.96735        1.85873       -1.34499
H        -17.24620        5.71236        1.10857
H        -17.21794        2.22342       -1.21416
H        -20.10782       -0.26575        4.02599
H        -21.47893        1.35413        5.38670
H        -22.03830        3.56777        4.54014
H        -20.64636        5.17637        1.83343
H         -4.55395       -5.15923       -4.89360
