150
IT-DM.sdf
C          4.52045       -0.30164       -1.13833
O          4.90368       -1.40553       -1.47754
C          5.02888        0.94143       -1.69041
C          5.98010        1.12216       -2.68193
C          6.04708        2.37515       -3.31943
C          5.12125        3.39724       -2.95557
C          4.28945        3.22271       -1.82620
C          4.28665        1.98177       -1.19219
C          3.43565        1.48296       -0.10918
C          3.00399        2.13181        1.00008
C          2.14753        1.49581        1.95765
N          1.46150        1.05155        2.77450
C          3.48911        3.45377        1.32993
N          3.92281        4.50969        1.52104
C          3.25656        0.06500       -0.45205
C          2.08519       -0.59286       -0.34334
C          1.77142       -1.91998       -0.89171
C          0.48103       -2.27503       -1.28254
C          0.43534       -3.58950       -1.70435
C          1.61988       -4.28189       -1.64911
S          2.81272       -3.24083       -1.11664
C          1.47368       -5.64988       -1.88830
C          2.27844       -6.95943       -1.64577
C          3.33426       -7.58430       -2.60920
C          4.43267       -8.35416       -2.12098
C          5.21670       -9.12869       -2.98437
C          4.91867       -9.18286       -4.35279
C          5.64536      -10.13680       -5.26378
C          5.36924      -11.53536       -4.74765
C          3.85185       -8.43187       -4.84831
C          3.07841       -7.63765       -3.99590
C          2.79307       -6.69656       -0.23278
C          2.08467       -7.07440        0.91888
C          2.41400       -6.50350        2.15692
C          3.44752       -5.55316        2.25545
C          3.64951       -4.76964        3.52409
C          5.01648       -4.98299        4.14455
C          4.21872       -5.25889        1.13065
C          3.89682       -5.82808       -0.09663
C          1.07257       -7.90319       -1.83600
C         -0.11875       -7.24306       -2.15248
C          0.14576       -5.87675       -2.12368
S         -0.87857       -4.53597       -2.14429
C         -1.32414       -7.87675       -2.45800
C         -1.28477       -9.26755       -2.52404
C         -2.35579      -10.25507       -3.00212
C         -3.68156      -10.16097       -2.18840
C         -4.72671       -9.29470       -2.57639
C         -5.94890       -9.26507       -1.91197
C         -6.16903      -10.06128       -0.79206
C         -7.50613      -10.01932       -0.10425
C         -8.45830      -11.05806       -0.69498
C         -5.12709      -10.86869       -0.32317
C         -3.90657      -10.92162       -1.01177
C         -2.45238      -10.08453       -4.59029
C         -2.81640      -11.15950       -5.44658
C         -2.82540      -11.05781       -6.84346
C         -2.47591       -9.86743       -7.47173
C         -2.46417       -9.76598       -8.97616
C         -3.43429       -8.69792       -9.47247
C         -2.09829       -8.78749       -6.68013
C         -2.06681       -8.89453       -5.28715
C         -1.58016      -11.56253       -2.70285
C         -0.28381      -11.25892       -2.57758
C         -0.08108       -9.91561       -2.27749
C          1.10065       -9.29383       -1.89511
S          0.70798      -12.46207       -3.13284
C         -0.60790      -13.45649       -3.57024
C         -1.75630      -12.92756       -2.98250
S         -1.87732      -13.99551       -1.65244
C         -0.75554      -15.18878       -2.20234
C         -0.44537      -14.82852       -3.48962
C          0.39750      -15.60245       -1.36472
C          1.02640      -16.82475       -1.34559
C          2.23817      -17.21969       -0.53819
C          3.06653      -16.38286        0.16904
C          4.30067      -16.94605        0.73593
N          5.26245      -17.45507        1.16407
C          2.87273      -14.92787        0.26729
N          2.66850      -13.76373        0.31316
C          2.44057      -18.69719       -0.74502
C          3.32028      -19.62305       -0.15318
C          3.32727      -20.96368       -0.56755
C          2.43853      -21.40715       -1.57730
C          1.52138      -20.46976       -2.11979
C          1.54936      -19.14323       -1.68248
C          0.66220      -18.06228       -2.07757
O         -0.30611      -18.23185       -2.79482
C          4.29459      -21.91802        0.07728
C          4.95502        4.62026       -3.81782
C          7.04260        2.57723       -4.42611
C          2.51693      -22.87166       -2.00314
H          6.58490        0.28853       -3.01398
H          3.58222        3.98693       -1.52441
H          1.23395       -0.04356        0.05043
H         -0.38642       -1.62915       -1.23174
H          4.66622       -8.43690       -1.06940
H          6.01265       -9.74300       -2.57320
H          5.25355      -10.07934       -6.30453
H          6.74277       -9.95396       -5.26289
H          4.27063      -11.70373       -4.71767
H          5.80860      -12.31480       -5.40067
H          5.80066      -11.59574       -3.72519
H          3.57768       -8.51405       -5.89299
H          2.22788       -7.12676       -4.41967
H          1.22265       -7.72327        0.85402
H          1.81006       -6.73971        3.02315
H          3.51796       -3.68303        3.30737
H          2.85311       -5.03506        4.24699
H          5.80787       -4.63182        3.44982
H          5.07451       -4.39206        5.08305
H          5.16119       -6.05729        4.37770
H          5.01442       -4.52391        1.17665
H          4.45094       -5.49892       -0.96792
H         -2.21277       -7.31363       -2.71615
H         -4.65393       -8.62422       -3.39931
H         -6.72881       -8.61392       -2.28619
H         -7.38243      -10.19013        0.98530
H         -7.96031       -9.01290       -0.23573
H         -8.05711      -12.08360       -0.55092
H         -9.44374      -10.98618       -0.18828
H         -8.61082      -10.87739       -1.78174
H         -5.25829      -11.46582        0.57082
H         -3.15048      -11.56177       -0.59795
H         -3.06709      -12.12867       -5.09004
H         -3.09121      -11.92714       -7.43584
H         -1.43885       -9.51895       -9.32706
H         -2.73727      -10.74525       -9.42512
H         -3.14848       -7.70041       -9.07533
H         -3.40347       -8.65715      -10.58124
H         -4.47002       -8.93791       -9.15186
H         -1.80311       -7.85517       -7.14455
H         -1.71082       -8.00873       -4.82221
H          2.00984       -9.86092       -1.73712
H         -1.31877      -15.19976       -4.02658
H          0.73603      -14.80317       -0.74991
H          3.99779      -19.37010        0.62982
H          0.78165      -20.71642       -2.85947
H          3.72958      -22.74509        0.55507
H          4.97714      -22.32745       -0.69517
H          4.91168      -21.42469        0.85468
H          5.88012        5.21941       -3.87866
H          4.67849        4.27376       -4.84317
H          4.10762        5.25262       -3.47660
H          6.52852        2.74716       -5.39197
H          7.67345        3.45842       -4.17908
H          7.72101        1.70300       -4.52739
H          3.55522      -23.07071       -2.34563
H          2.27906      -23.51077       -1.12456
H          1.88635      -23.25586       -2.82802
