146
IT-OM-1.sdf
C         -1.67089        1.46731        0.01628
O         -2.35058        2.44627       -0.09112
C         -0.42560        1.62090        0.58199
C         -0.04863        2.82562        1.15478
C          1.21768        2.95433        1.63172
C          2.09850        1.89318        1.48769
C          1.71132        0.65268        0.87046
C          0.35161        0.49918        0.43715
C         -0.54315       -0.56628       -0.23454
C         -0.21762       -1.84557       -0.56859
C         -1.12857       -2.73702       -1.25184
N         -1.81398       -3.49464       -1.79827
C          1.08362       -2.43492       -0.36333
N          2.10642       -2.96161       -0.22358
C         -1.89603        0.12017       -0.48142
C         -3.09783       -0.32160       -0.99244
C         -4.36055        0.50800       -1.11260
C         -4.51788        1.89474       -1.33563
C         -5.79824        2.32262       -1.35249
C         -6.71480        1.36441       -1.14307
S         -5.92987       -0.12156       -0.95599
C         -7.97342        1.91267       -1.02171
C         -9.30828        1.40563       -0.52884
C         -9.78380        0.28512       -1.56931
C         -9.02195       -0.90624       -1.80113
C         -9.36314       -1.87753       -2.73211
C        -10.48943       -1.74471       -3.51773
C        -10.76820       -2.84225       -4.52872
C        -12.10416       -3.53313       -4.28316
C        -11.28349       -0.59041       -3.34688
C        -10.93774        0.40618       -2.38421
C         -9.03701        0.88387        0.92603
C         -8.00254        1.47234        1.71645
C         -7.42117        0.77389        2.76742
C         -7.88183       -0.50937        3.08079
C         -7.11158       -1.44643        3.95580
C         -6.88130       -0.92164        5.35043
C         -9.04665       -0.97643        2.48570
C         -9.63960       -0.28337        1.44383
C        -10.00301        2.79650       -0.49978
C         -9.18108        3.85089       -0.94183
C         -7.93148        3.26742       -1.21624
S         -6.40252        3.89624       -1.50270
C         -9.57687        5.21177       -1.02883
C        -10.90697        5.50250       -0.67673
C        -11.80144        6.78782       -0.72139
C        -11.53847        7.68686        0.59074
C        -10.62107        7.30913        1.62264
C        -10.47394        8.01302        2.82287
C        -11.17631        9.19269        3.05654
C        -10.97868        9.94220        4.37094
C        -11.12601       11.46200        4.25017
C        -12.04518        9.63579        2.04667
C        -12.24007        8.89683        0.85620
C        -11.69554        7.59871       -2.04959
C        -12.82116        7.81766       -2.87166
C        -12.72888        8.55794       -4.05700
C        -11.51604        9.15054       -4.45373
C        -11.35757        9.92756       -5.74623
C        -12.63479       10.62828       -6.19808
C        -10.39570        8.95026       -3.65003
C        -10.47518        8.17074       -2.49691
C        -13.17508        6.02383       -0.53038
C        -12.86305        4.98222        0.25795
C        -11.63575        4.47201       -0.11029
C        -11.25713        3.12448       -0.02662
S        -13.97199        4.45611        1.36470
C        -15.07592        5.39787        0.56256
C        -14.58658        6.15984       -0.47572
S        -15.72737        5.75424       -1.70963
C        -16.85607        4.81918       -0.74994
C        -16.32504        4.85719        0.53443
C        -17.97933        3.80585       -1.13566
C        -18.71114        3.78501       -2.30122
C        -19.76949        2.86147       -2.94397
C        -20.03643        1.55060       -2.62142
C        -20.72936        0.63369       -3.50534
N        -21.26658       -0.17235       -4.14381
C        -19.52588        0.85202       -1.46606
N        -19.16390        0.20008       -0.57954
C        -20.25529        3.61869       -4.19049
C        -21.41554        3.68649       -5.03681
C        -21.37877        4.59570       -6.16153
C        -20.24585        5.36823       -6.44528
C        -19.21059        5.37139       -5.55177
C        -19.29801        4.56560       -4.44141
C        -18.52724        4.80846       -3.29331
O        -18.17683        5.94625       -3.04987
O        -22.56560        3.02720       -4.71753
C        -23.81581        3.49252       -5.11842
O          2.65143       -0.29856        0.66681
C          3.98444        0.03015        0.44826
H         -0.74188        3.65866        1.21930
H          1.51459        3.89146        2.08032
H          3.08584        2.09105        1.86033
H         -3.21654       -1.35105       -1.30711
H         -3.84075        2.68300       -1.49581
H         -8.12615       -1.16862       -1.31176
H         -8.71542       -2.74309       -2.84578
H        -10.72881       -2.42370       -5.55604
H         -9.97749       -3.63020       -4.47115
H        -12.93071       -2.80155       -4.37481
H        -12.25047       -4.33842       -5.03519
H        -12.12704       -3.99734       -3.27331
H        -12.15826       -0.46057       -3.97176
H        -11.56234        1.28012       -2.29768
H         -7.53328        2.41434        1.47073
H         -6.55437        1.21330        3.24347
H         -6.13399       -1.62348        3.45178
H         -7.63106       -2.43104        4.00403
H         -7.85643       -0.77221        5.85406
H         -6.31188        0.02834        5.30973
H         -6.28158       -1.66889        5.90803
H         -9.45497       -1.94116        2.74894
H        -10.49608       -0.77142        1.02598
H         -8.88456        5.96432       -1.37646
H         -9.98620        6.45435        1.57856
H         -9.79396        7.60747        3.56585
H        -11.71095        9.57158        5.12111
H         -9.96177        9.73068        4.77630
H        -12.14874       11.73481        3.92119
H        -10.96665       11.94387        5.23662
H        -10.38114       11.86997        3.53629
H        -12.58921       10.55656        2.17496
H        -12.94560        9.30885        0.15814
H        -13.78346        7.41456       -2.62232
H        -13.61726        8.65424       -4.65538
H        -10.55290       10.69129       -5.63519
H        -11.03135        9.22219       -6.54273
H        -12.94764       11.37698       -5.44192
H        -12.46444       11.14577       -7.16270
H        -13.44514        9.88997       -6.35540
H         -9.43486        9.38331       -3.90880
H         -9.53679        8.04102       -2.00234
H        -11.93204        2.37009        0.35358
H        -16.63072        4.29796        1.39415
H        -18.14733        2.99999       -0.41474
H        -22.21025        4.75381       -6.83173
H        -20.18696        6.04167       -7.29175
H        -18.35940        6.02989       -5.67162
H        -23.98521        4.51741       -4.71266
H        -24.65077        2.89801       -4.70015
H        -23.88500        3.48047       -6.22618
H          4.05616        0.64459       -0.47943
H          4.42943        0.60864        1.28411
H          4.59746       -0.87933        0.33436
