146
IT-OM-4.sdf
C         -3.84345       -2.80367       -1.38407
O         -4.87204       -2.57215       -1.98539
C         -3.10843       -3.99763       -1.62067
C         -3.47514       -5.00148       -2.51540
C         -2.62558       -6.10266       -2.64326
C         -1.44991       -6.16090       -1.88293
C         -1.11594       -5.13234       -0.98137
C         -1.97469       -4.02559       -0.84442
C         -1.90818       -2.76894       -0.00620
C         -0.89780       -2.45871        0.86331
C         -0.78272       -1.19936        1.55379
N         -0.62454       -0.21313        2.13895
C          0.21604       -3.34368        1.10772
N          1.13789       -4.00155        1.34959
C         -3.15257       -1.96147       -0.37741
C         -3.57107       -0.73520        0.08051
C         -4.84349       -0.02672       -0.30944
C         -5.03189        1.36581       -0.35539
C         -6.30811        1.73015       -0.65869
C         -7.19520        0.71982       -0.82569
S         -6.34853       -0.73946       -0.66006
C         -8.49439        1.20927       -0.96867
C         -9.91272        0.64742       -0.89442
C        -10.17240       -0.61336       -1.87016
C         -9.16757       -1.16856       -2.73120
C         -9.36189       -2.27383       -3.57443
C        -10.59820       -2.89573       -3.65822
C        -10.84310       -4.02093       -4.66744
C         -9.94690       -5.26024       -4.51722
C        -11.62261       -2.40259       -2.82858
C        -11.41640       -1.29653       -1.94925
C         -9.82315        0.31173        0.71689
C        -10.72937        0.92618        1.60891
C        -10.44312        1.13148        2.96256
C         -9.22407        0.74687        3.51025
C         -8.78116        1.29740        4.84784
C         -9.21675        0.46635        6.03650
C         -8.38831       -0.05313        2.74860
C         -8.69777       -0.32190        1.40684
C        -10.60339        2.14764       -1.19766
C         -9.71427        3.19257       -0.97325
C         -8.45140        2.59067       -0.91323
S         -6.94171        3.28151       -0.73070
C        -10.04719        4.58008       -0.87085
C        -11.40614        4.98432       -0.97641
C        -12.17298        6.38095       -0.99779
C        -11.80746        7.08615        0.49953
C        -10.43901        7.38093        0.87743
C         -9.99457        8.00292        2.05078
C        -10.85636        8.32136        3.07769
C        -10.27364        8.94714        4.37983
C        -10.82115       10.34266        4.73012
C        -12.21294        7.97750        2.86238
C        -12.68271        7.39312        1.60864
C        -11.56622        7.22139       -2.16124
C        -11.03536        6.61750       -3.32422
C        -10.37605        7.38442       -4.29835
C        -10.20752        8.76852       -4.11494
C         -9.43809        9.62725       -5.06719
C        -10.05972        9.57290       -6.45618
C        -10.79180        9.37106       -3.02469
C        -11.49732        8.62608       -2.13813
C        -13.63197        5.77819       -1.59093
C        -13.59713        4.54201       -1.15899
C        -12.29128        3.97428       -1.18835
C        -11.92235        2.60786       -1.46771
S        -14.82714        4.59553        0.06203
C        -15.81393        5.76741       -0.72376
C        -15.09303        5.91053       -1.87981
S        -15.89544        4.61247       -2.85022
C        -17.21468        4.17420       -1.79919
C        -17.11103        5.20015       -0.82088
C        -18.15810        2.85011       -1.70249
C        -19.19418        2.67572       -0.76666
C        -20.27125        1.74584       -0.10563
C        -20.49858        0.40621       -0.12181
C        -21.48901       -0.17402        0.77709
N        -22.28831       -0.59925        1.51141
C        -19.79736       -0.56195       -0.90888
N        -19.29908       -1.42543       -1.49224
C        -21.14179        2.70844        0.70271
C        -22.12997        2.69961        1.71603
C        -22.65978        3.94320        2.16579
C        -22.35711        5.12890        1.47095
C        -21.43272        5.09154        0.44499
C        -20.78941        3.91069        0.24139
C        -19.42827        3.83965       -0.06935
O        -18.75230        3.92723        0.95485
O        -21.16450        6.14700       -0.35787
C        -20.75506        5.97287       -1.67254
O         -4.62818       -4.86047       -3.21832
C         -5.43111       -5.88215       -3.66587
H         -2.85985       -6.90102       -3.32995
H         -0.79717       -7.01031       -1.99765
H         -0.20235       -5.23720       -0.43559
H         -2.96355       -0.20116        0.80359
H         -4.35349        2.16183       -0.16547
H         -8.18986       -0.79082       -2.83329
H         -8.53395       -2.62151       -4.18912
H        -11.89620       -4.35906       -4.60493
H        -10.68002       -3.62292       -5.69412
H        -10.10169       -5.73936       -3.52852
H        -10.21380       -6.00060       -5.30278
H         -8.87167       -5.00736       -4.64719
H        -12.59327       -2.87381       -2.87857
H        -12.24637       -0.97881       -1.34381
H        -11.63151        1.39338        1.29629
H        -11.14620        1.70295        3.54705
H         -7.67525        1.43333        4.85731
H         -9.20467        2.32235        4.95982
H         -8.73478       -0.53259        6.00175
H         -8.90715        0.99214        6.96499
H        -10.32077        0.36019        6.04429
H         -7.44400       -0.40347        3.16846
H         -7.91985       -0.89815        1.00990
H         -9.25043        5.27062       -0.69261
H         -9.58005        7.12413        0.31148
H         -8.93357        8.20841        2.16082
H        -10.44105        8.28283        5.25823
H         -9.16236        9.06695        4.29967
H        -11.91624       10.29915        4.88889
H        -10.35691       10.73291        5.66926
H        -10.58651       11.08552        3.93979
H        -12.89732        8.16813        3.68395
H        -13.73349        7.16728        1.55599
H        -11.11293        5.55483       -3.48857
H         -9.97363        6.89080       -5.17047
H         -9.44749       10.68152       -4.70396
H         -8.38155        9.28825       -5.10093
H        -11.10036        9.95668       -6.44594
H         -9.48975       10.21792       -7.15031
H        -10.05875        8.52332       -6.81873
H        -10.72349       10.43504       -2.82772
H        -11.96457        9.27200       -1.47708
H        -12.66471        1.93355       -1.80521
H        -17.70583        5.33509        0.02784
H        -17.95979        2.01259       -2.37291
H        -22.44142        1.80784        2.21686
H        -23.32834        4.00115        3.01017
H        -22.79914        6.07084        1.72706
H        -21.44311        6.48492       -2.33493
H        -21.44337        6.48438       -2.33507
H        -19.85087        6.52057       -1.86339
H         -4.86444       -6.56224       -4.32904
H         -5.84820       -6.43046       -2.79388
H         -6.27392       -5.45164       -4.24572
