139
IT-OH.sdf
C         -2.77547        0.96657        1.91856
O         -3.58022        1.81457        1.80361
C         -1.81848        1.14788        2.90652
C         -1.74399        2.20244        3.84825
C         -0.67577        2.18354        4.73690
C          0.25323        1.13718        4.66496
C          0.11824        0.11040        3.70765
C         -0.94682        0.12175        2.80317
C         -1.37627       -0.80254        1.66288
C         -0.72678       -1.90282        1.24067
C         -1.18875       -2.70757        0.14634
N         -1.52736       -3.38182       -0.72965
C          0.46493       -2.36585        1.88589
N          1.42863       -2.76683        2.38236
C         -2.65875       -0.23639        1.12506
C         -3.58533       -0.68381        0.18451
C         -4.87608        0.02981       -0.25168
C         -5.14497        1.41420       -0.30098
C         -6.40276        1.75916       -0.66750
C         -7.27625        0.73670       -0.82917
S         -6.38351       -0.69637       -0.65669
C         -8.61706        1.20024       -0.83398
C        -10.05925        0.63156       -0.48689
C        -10.65082       -0.45862       -1.52863
C        -10.00534       -1.69849       -1.80910
C        -10.47385       -2.70878       -2.63349
C        -11.64515       -2.54342       -3.34054
C        -12.10589       -3.64205       -4.30070
C        -13.47454       -4.22865       -3.94936
C        -12.33330       -1.32847       -3.16550
C        -11.85414       -0.30713       -2.27792
C         -9.80614        0.04173        0.96639
C        -10.02097        0.92374        2.01658
C         -9.07631        1.01984        2.99194
C         -8.02317        0.13474        3.11332
C         -6.87181        0.52633        4.01866
C         -7.00417        1.86967        4.69389
C         -8.06591       -1.02594        2.33666
C         -8.97511       -1.07668        1.28483
C        -10.75551        2.11769       -0.38353
C         -9.84434        3.15671       -0.62749
C         -8.58247        2.57927       -0.82685
S         -7.06360        3.30036       -0.72746
C        -10.12495        4.54575       -0.61813
C        -11.46582        4.96596       -0.48336
C        -12.20227        6.36732       -0.67730
C        -11.91409        7.23665        0.68169
C        -10.62136        7.62227        1.17675
C        -10.36724        8.19354        2.40833
C        -11.38927        8.48822        3.27655
C        -11.07260        9.04695        4.65120
C        -11.69111       10.42279        4.88579
C        -12.68907        8.23244        2.83866
C        -12.94126        7.62903        1.58195
C        -11.73544        7.06296       -2.01694
C        -11.32212        6.36233       -3.16668
C        -10.78523        7.05325       -4.27560
C        -10.66567        8.45382       -4.26378
C         -9.97960        9.23478       -5.31844
C        -10.62490        9.02535       -6.67313
C        -11.15017        9.14789       -3.20473
C        -11.64268        8.45806       -2.15655
C        -13.68811        5.72137       -0.80817
C        -13.60697        4.67687        0.04357
C        -12.35759        3.98988       -0.07393
C        -12.04366        2.57815        0.03559
S        -14.89627        4.69830        1.08834
C        -15.83706        5.81812        0.22747
C        -15.13207        5.98252       -0.97778
S        -15.97543        4.76073       -1.90653
C        -17.17657        4.24506       -0.71692
C        -17.10804        5.23184        0.25105
C        -17.90112        2.81997       -0.47180
C        -18.15716        1.90329       -1.47952
C        -18.72731        0.56925       -2.04838
C        -19.43788       -0.45813       -1.53346
C        -19.99245       -1.46876       -2.43743
N        -20.44562       -2.28381       -3.12967
C        -19.80811       -0.58386       -0.13891
N        -20.14482       -0.75180        0.95722
C        -18.46634        0.72291       -3.53292
C        -19.15392        0.38903       -4.71917
C        -18.77264        1.06038       -5.92423
C        -17.68170        1.94281       -5.96092
C        -17.08322        2.28246       -4.78864
C        -17.55756        1.69929       -3.66524
C        -17.80815        2.54055       -2.63500
O        -18.50249        3.51638       -2.92890
O        -16.25386        3.33533       -4.68389
H         -2.47009        3.02069        3.91695
H         -0.55852        2.96607        5.47878
H          1.08404        1.11645        5.35199
H          0.84690       -0.66087        3.70113
H         -3.42840       -1.64411       -0.28865
H         -4.63192        2.28139       -0.07192
H         -9.09606       -1.98595       -1.49224
H         -9.88828       -3.62448       -2.73157
H        -12.14516       -3.24564       -5.33810
H        -11.37771       -4.48785       -4.30716
H        -14.26313       -3.45310       -4.03078
H        -13.72881       -5.05158       -4.65445
H        -13.46539       -4.64920       -2.92215
H        -13.24608       -1.18753       -3.72481
H        -12.43444        0.59681       -2.20626
H        -10.72032        1.72869        2.01167
H         -9.13066        1.90426        3.57084
H         -6.73362       -0.16872        4.84740
H         -5.93712        0.53765        3.40131
H         -7.87486        1.89106        5.37132
H         -6.08265        2.05702        5.28486
H         -7.14602        2.63244        3.92310
H         -7.33548       -1.82816        2.42501
H         -8.82046       -1.94735        0.76736
H         -9.29816        5.21261       -0.78861
H         -9.70252        7.52346        0.75752
H         -9.32747        8.37200        2.66910
H        -11.43605        8.34566        5.43374
H         -9.97031        9.13781        4.78202
H        -12.79647       10.36344        4.80995
H        -11.42041       10.80271        5.89273
H        -11.30339       11.15521        4.15144
H        -13.51239        8.47377        3.48994
H        -13.96390        7.46309        1.37745
H        -11.35920        5.29325       -3.21445
H        -10.42973        6.50040       -5.12308
H        -10.01582       10.31669       -5.05284
H         -8.91728        8.92696       -5.32547
H        -11.68173        9.37073       -6.66549
H        -10.06777        9.61958       -7.41722
H        -10.58683        7.94876       -6.93953
H        -11.11737       10.24070       -3.12725
H        -11.87854        9.13909       -1.51231
H        -12.77434        1.85591        0.35712
H        -17.64396        5.11138        1.16658
H        -18.17054        2.56842        0.54723
H        -20.06347       -0.18479       -4.71561
H        -19.35557        1.01393       -6.82130
H        -17.39825        2.50154       -6.83307
H        -16.16651        3.96144       -5.40566
