132
ITCC-Cl.sdf
C          4.69236        1.05740       -3.11984
O          5.60789        0.40223       -3.52220
C          4.63050        2.35513       -3.58718
C          3.57251        3.00509       -3.11939
C          2.77199        2.11211       -2.22483
C          1.61167        2.46950       -1.63064
C          1.09387        3.81863       -1.76516
N          0.70386        4.90198       -1.88944
C          0.79664        1.58467       -0.83720
N          0.11826        0.90356       -0.19272
C          3.54017        0.79326       -2.18972
C          3.25064       -0.33107       -1.45623
C          4.04383       -1.60012       -1.40459
C          5.20035       -1.94647       -2.10095
C          5.76876       -3.12435       -1.70285
C          5.10614       -3.75749       -0.70455
S          3.71899       -2.89276       -0.34242
C          5.80515       -4.83164       -0.16391
C          5.71776       -5.73327        1.07389
C          4.55547       -6.86815        1.11569
C          3.61263       -7.06552        0.06472
C          2.53473       -7.99333        0.18809
C          2.34182       -8.71760        1.38035
C          1.15386       -9.57871        1.71492
C          0.95952      -10.71735        0.74171
C          3.30005       -8.63882        2.33987
C          4.37678       -7.80808        2.19628
C          5.57167       -4.68525        2.25575
C          4.28566       -4.26762        2.62379
C          3.98041       -3.71268        3.84091
C          4.99245       -3.24086        4.63870
C          4.61870       -2.69551        5.98798
C          3.95374       -3.80003        6.82048
C          6.30345       -3.24865        4.10932
C          6.60117       -4.01024        2.94353
C          7.11914       -6.45471        0.90189
C          7.75835       -5.99677       -0.25718
C          6.96868       -4.98705       -0.84832
S          7.22067       -3.88497       -2.11822
C          8.96443       -6.47556       -0.75357
C          9.56737       -7.53896       -0.08719
C         10.83372       -8.34333       -0.41844
C         11.43718       -8.34630       -1.87397
C         12.40883       -7.39097       -2.26232
C         13.02862       -7.37847       -3.49333
C         12.72466       -8.32878       -4.44884
C         13.41903       -8.28346       -5.78477
C         14.94242       -8.41534       -5.66090
C         11.75725       -9.29213       -4.13361
C         11.13068       -9.29374       -2.87105
C         11.94077       -7.88685        0.63202
C         12.96702       -8.75669        1.09933
C         13.78162       -8.40750        2.18046
C         13.65169       -7.15978        2.80011
C         14.43716       -6.80258        4.03030
C         15.32917       -5.58794        3.81200
C         12.72144       -6.25706        2.30080
C         11.87611       -6.61657        1.26678
C         10.29007       -9.64210        0.17950
C          9.66066       -9.31587        1.37673
C          8.97221       -8.04773        1.08105
C          7.75775       -7.51392        1.62029
S          9.10440      -10.59557        2.31196
C          9.34634      -11.55416        0.96052
C          9.88524      -10.94781       -0.10949
S          9.46299      -11.85645       -1.48011
C          8.45318      -12.91750       -0.60018
C          8.68970      -12.70113        0.75181
C          7.11116      -13.45663       -1.06399
C          6.32124      -14.31213       -0.34033
C          4.89766      -14.79927       -0.51639
C          3.78352      -14.54662       -1.23430
C          2.50760      -14.84549       -0.55980
N          1.54844      -15.11139        0.04024
C          3.72892      -13.89031       -2.49433
N          3.61222      -13.36330       -3.51385
C          4.93164      -16.06766        0.18585
C          6.00514      -16.19445        0.94573
C          6.73071      -14.99202        0.93631
O          6.76632      -14.43857        2.02016
S          5.61366        3.22925       -4.61794
C          4.59948        4.57137       -4.47293
C          3.51924        4.30397       -3.62292
S          6.14263      -17.70374        1.64403
C          4.75954      -18.24041        0.80378
C          4.20063      -17.22458        0.04394
Cl         4.15307      -19.87061        0.81893
Cl         4.88110        6.08289       -5.30423
H          2.38750       -0.33321       -0.79615
H          5.71091       -1.44525       -2.80002
H          3.68129       -6.51123       -0.85823
H          1.83376       -8.12061       -0.62382
H          1.27607      -10.01309        2.74103
H          0.24982       -8.93937        1.75006
H          1.84109      -11.39234        0.76298
H          0.05754      -11.29004        1.04554
H          0.81224      -10.30872       -0.27722
H          3.22226       -9.22495        3.25637
H          4.97218       -8.01358        3.02390
H          3.47509       -4.37911        1.97741
H          2.93278       -3.65957        4.13689
H          5.52180       -2.30946        6.49792
H          3.88242       -1.87057        5.89165
H          4.64707       -4.65469        6.95282
H          3.67232       -3.40463        7.81489
H          3.02848       -4.16695        6.31754
H          7.08819       -2.72376        4.62474
H          7.61399       -4.06822        2.57906
H          9.34994       -6.02998       -1.64862
H         12.77216       -6.60798       -1.66040
H         13.75763       -6.59879       -3.65860
H         13.03954       -9.10548       -6.42108
H         13.18346       -7.31742       -6.28164
H         15.20867       -9.37613       -5.17156
H         15.40336       -8.38135       -6.66797
H         15.38169       -7.57563       -5.08161
H         11.48805      -10.04165       -4.86366
H         10.41584      -10.03553       -2.71253
H         13.13260       -9.74805        0.71654
H         14.47624       -9.14904        2.55023
H         13.71880       -6.58247        4.85475
H         15.06343       -7.66154        4.34230
H         14.72275       -4.70145        3.53002
H         15.87072       -5.35598        4.75255
H         16.06978       -5.80087        3.01426
H         12.58554       -5.28386        2.75099
H         11.13924       -5.87623        1.04600
H          7.29601       -7.98018        2.47887
H          8.21122      -13.02974        1.59891
H          6.73194      -13.03951       -1.99669
H          2.75653        5.02637       -3.40943
H          3.36171      -17.32857       -0.62830
