132
ITCC.sdf
C          5.36380        1.25284       -1.74064
O          6.33405        0.53464       -1.77950
C          5.52001        2.64601       -1.78694
C          4.35361        3.29029       -1.71199
C          3.22819        2.30558       -1.59978
C          1.91425        2.65514       -1.50729
C          1.50532        4.04029       -1.44023
N          1.14592        5.13925       -1.38467
C          0.82055        1.71918       -1.48360
N         -0.09855        1.01674       -1.46142
C          3.90406        0.92861       -1.60750
C          3.33616       -0.31645       -1.44481
C          4.08657       -1.63279       -1.40820
C          5.27043       -1.97748       -2.09045
C          5.79125       -3.19447       -1.70349
C          5.09608       -3.84916       -0.72911
S          3.70633       -2.95755       -0.37752
C          5.80615       -4.93334       -0.18003
C          5.74671       -5.83450        1.07960
C          4.51697       -6.86126        1.16097
C          4.66325       -8.28038        1.22419
C          3.54747       -9.15373        1.16021
C          2.25382       -8.63874        0.98932
C          1.02214       -9.46463        0.73217
C          0.72967      -10.45699        1.84619
C          2.08938       -7.27698        1.06192
C          3.15517       -6.43220        1.19563
C          5.79044       -4.85037        2.29951
C          4.74309       -4.82329        3.22261
C          4.84284       -4.28907        4.46591
C          5.92519       -3.51695        4.80065
C          6.00904       -3.00338        6.20735
C          7.27643       -3.51474        6.90191
C          6.85639       -3.20994        3.78274
C          6.81720       -3.90840        2.54726
C          7.13569       -6.58621        0.87728
C          7.79443       -6.07514       -0.23897
C          6.99130       -5.06869       -0.84745
S          7.25290       -3.94782       -2.09730
C          9.04460       -6.50065       -0.67075
C          9.64442       -7.60933       -0.04255
C         10.92125       -8.41489       -0.38232
C         11.43589       -8.42268       -1.87996
C         12.81179       -8.55860       -2.18949
C         13.31540       -8.73892       -3.44833
C         12.49435       -8.66656       -4.54619
C         13.12964       -8.82025       -5.90355
C         12.56515      -10.00556       -6.67989
C         11.12893       -8.39894       -4.33332
C         10.60190       -8.30076       -3.01633
C         12.05554       -7.95264        0.65934
C         13.10829       -8.79854        1.12140
C         13.97173       -8.41937        2.16005
C         13.83449       -7.18832        2.80128
C         14.68813       -6.81978        3.98175
C         15.51819       -5.56745        3.72325
C         12.86911       -6.31380        2.34064
C         12.03154       -6.67377        1.29804
C         10.36140       -9.75157        0.21525
C          9.69321       -9.43648        1.38998
C          9.01207       -8.16357        1.07806
C          7.78238       -7.64505        1.58575
S          9.08129      -10.73835        2.28949
C          9.33986      -11.71330        0.96502
C          9.94435      -11.06660       -0.07765
S          9.51036      -11.86321       -1.48851
C          8.46477      -12.97510       -0.66501
C          8.63111      -12.85462        0.70856
C          7.05938      -13.30554       -1.09184
C          6.46280      -14.49043       -0.87696
C          5.08380      -15.02749       -1.20190
C          3.89276      -14.64570       -1.71335
C          2.73748      -15.46162       -1.33994
N          1.86761      -16.15014       -1.00453
C          3.65930      -13.51722       -2.55740
N          3.39919      -12.62271       -3.24184
C          5.37763      -16.45595       -1.37696
C          6.57024      -16.78025       -0.87994
C          7.14956      -15.64150       -0.26609
O          7.83194      -15.65560        0.74353
S          6.85924        3.62865       -1.93490
C          5.89315        5.01407       -1.91379
C          4.53818        4.67399       -1.78256
S          7.08014      -18.28953       -1.37721
C          5.67342      -18.52632       -2.31450
C          4.81693      -17.43339       -2.19594
H          2.26474       -0.37517       -1.27292
H          5.82614       -1.41012       -2.78964
H          5.62398       -8.74614        1.30712
H          3.69397      -10.22377        1.20622
H          0.14480       -8.78295        0.64388
H          1.12917       -9.98220       -0.24759
H          0.51783       -9.94612        2.80775
H         -0.18964      -11.02220        1.59702
H          1.58836      -11.14894        1.96661
H          1.11712       -6.81511        0.98552
H          2.78022       -5.44294        1.30511
H          3.79786       -5.22691        3.07238
H          4.03075       -4.53155        5.13695
H          6.00202       -1.90071        6.18002
H          5.12780       -3.35908        6.79838
H          8.17837       -3.20720        6.33012
H          7.34322       -3.11068        7.93159
H          7.27516       -4.62091        7.00510
H          7.62705       -2.47946        3.96742
H          7.57317       -3.72683        1.80080
H          9.44388       -5.95923       -1.49684
H         13.60878       -8.53992       -1.52393
H         14.38353       -8.92376       -3.52051
H         12.98281       -7.88309       -6.47601
H         14.22962       -8.97927       -5.78810
H         11.47757       -9.87129       -6.84649
H         13.06815      -10.08263       -7.66676
H         12.74256      -10.95790       -6.13697
H         10.47969       -8.28248       -5.18579
H          9.54825       -8.12347       -2.90930
H         13.29980       -9.78445        0.75686
H         14.72813       -9.11826        2.48377
H         14.02943       -6.64901        4.86241
H         15.36927       -7.66020        4.22665
H         14.86485       -4.68932        3.53960
H         16.14085       -5.34737        4.61499
H         16.18172       -5.72699        2.84814
H         12.72074       -5.33906        2.79337
H         11.37117       -5.88123        1.08185
H          7.31897       -8.12517        2.43170
H          7.99870      -13.29195        1.46413
H          6.50600      -12.51535       -1.59019
H          6.28719        6.01373       -2.00253
H          3.75874        5.41245       -1.75839
H          5.49808      -19.36281       -2.97261
H          3.90293      -17.32073       -2.76663
