144
ITCF.sdf
C          4.59702        2.31402       -1.55774
O          4.80314        3.44313       -1.23932
C          4.67443        2.05082       -2.90314
C          4.82700        3.02287       -3.85567
C          4.49650        2.68167       -5.14890
C          4.11231        1.34730       -5.45049
F          3.67794        1.03558       -6.69253
C          4.13040        0.34895       -4.44526
C          4.40797        0.75142       -3.14313
C          4.41403        0.05313       -1.84110
C          4.89543       -1.19085       -1.62651
C          5.04753       -1.75621       -0.31294
N          5.19221       -2.26166        0.71716
C          5.48202       -1.93699       -2.72121
N          5.94159       -2.49820       -3.62397
C          4.07447        1.11784       -0.85838
C          3.38535        1.01714        0.31426
C          2.96081        2.18837        1.14427
C          3.22817        3.54222        0.94854
C          2.44548        4.37626        1.64572
C          1.47714        3.74680        2.35711
S          1.76868        2.09632        2.35513
C          0.40353        4.59644        2.63632
C         -1.18172        4.44987        2.97396
C         -2.87666        4.49137        3.48680
C         -3.93194        5.48034        3.10013
C         -5.14924        5.68692        3.79795
C         -5.57650        4.82672        4.77652
C         -6.84668        5.11674        5.56507
C         -7.54135        3.83893        6.01663
C         -4.80024        3.68924        4.97235
C         -3.50471        3.54102        4.39856
C         -1.44108        3.82186        1.50652
C         -1.41118        2.41452        1.19013
C         -1.88688        1.90890       -0.04459
C         -2.37207        2.78867       -1.02401
C         -3.18181        2.30814       -2.21094
C         -4.22021        3.32893       -2.75590
C         -2.17874        4.13945       -0.81726
C         -1.72787        4.62409        0.40014
C         -0.94449        5.97429        3.36871
C         -0.04179        6.78221        2.69674
C          0.82205        5.86313        2.19938
S          2.33203        6.04469        1.48804
C          0.14195        8.18497        2.88025
C         -0.68129        8.77958        3.85699
C         -1.02883       10.24523        4.28557
C          0.25483       10.93344        4.88106
C          0.50081       12.32515        4.82805
C          1.67383       12.88962        5.34304
C          2.66155       12.09680        5.94185
C          3.94856       12.70812        6.45468
C          4.15337       12.48158        7.95539
C          2.43894       10.72327        6.02790
C          1.26694       10.15689        5.52427
C         -1.66240       10.88896        2.92225
C         -2.98017       11.41961        2.77416
C         -3.49561       11.84151        1.50024
C         -2.73504       11.74910        0.31633
C         -3.29343       12.09548       -1.07272
C         -3.10195       13.55915       -1.47586
C         -1.44318       11.26126        0.43623
C         -0.92783       10.86690        1.68288
C         -1.90647        9.82803        5.55528
C         -1.79993        8.48853        5.76180
C         -1.21135        7.87098        4.73630
C         -1.25264        6.50239        4.59572
S         -2.48687        7.71613        7.08481
C         -3.11514        9.17032        7.43334
C         -2.76421       10.20597        6.58582
S         -3.60370       11.52333        7.06140
C         -4.59878       10.60574        8.14914
C         -4.06519        9.36707        8.36760
C         -5.94744       10.90875        8.66146
C         -6.65580       12.02173        8.33764
C         -7.24113       12.58025        9.52535
C         -8.37675       12.18934       10.12820
C         -8.76177       12.70923       11.40739
N         -9.02152       13.15722       12.44032
C         -9.26063       11.29823        9.42226
N         -9.92663       10.57819        8.80816
C         -6.24063       13.59855        9.86950
C         -5.88630       14.15748       11.08162
C         -4.79755       15.04268       11.09595
F         -4.38113       15.54103       12.28395
C         -4.11409       15.37662        9.89425
C         -4.51498       14.82651        8.67201
C         -5.55575       13.93279        8.69608
C         -6.03087       13.10244        7.62132
O         -5.67990       13.11913        6.44962
C         -2.92751       16.27073        9.91931
C          4.43304        3.78495       -6.14151
H          5.07179        4.04326       -3.56603
H          3.82585       -0.66602       -4.65317
H          2.98249        0.04074        0.60545
H          3.76866        4.07549        0.30059
H         -3.94922        6.21001        2.32089
H         -5.75337        6.56734        3.56486
H         -6.58023        5.73349        6.46161
H         -7.56337        5.71677        4.96084
H         -6.88216        3.26212        6.69617
H         -8.46168        4.06213        6.58361
H         -7.79388        3.23553        5.11908
H         -5.16155        2.91719        5.63196
H         -3.06557        2.63999        4.76204
H         -1.09952        1.65361        1.87115
H         -1.94915        0.83280       -0.18499
H         -2.54480        1.88487       -3.00820
H         -3.83293        1.51137       -1.79042
H         -3.79521        4.20106       -3.30375
H         -4.89527        2.80833       -3.46355
H         -4.85370        3.71928       -1.92543
H         -2.44474        4.86377       -1.56483
H         -1.67953        5.66240        0.45819
H          0.88422        8.74037        2.33004
H         -0.16579       13.02431        4.37432
H          1.80033       13.95753        5.24216
H          4.81007       12.27091        5.90242
H          3.94173       13.80235        6.26542
H          4.25176       11.39946        8.18450
H          5.08563       12.98216        8.29507
H          3.30146       12.90520        8.52756
H          3.17616       10.06644        6.47015
H          1.21346        9.08735        5.63499
H         -3.63875       11.49311        3.62361
H         -4.50761       12.21437        1.41781
H         -2.80644       11.46803       -1.85958
H         -4.37479       11.84693       -1.12114
H         -2.02273       13.81594       -1.52292
H         -3.53497       13.73787       -2.48829
H         -3.61923       14.22786       -0.76018
H         -0.81836       11.15632       -0.44921
H          0.06371       10.50529        1.58870
H         -1.61641        5.86353        5.37840
H         -4.43471        8.56171        8.99626
H         -6.30422       10.24303        9.45733
H         -6.38230       13.86438       11.99395
H         -3.99227       15.02772        7.74324
H         -3.23378       17.25921       10.30935
H         -2.15639       15.80479       10.56683
H         -2.49467       16.39782        8.90253
H          5.02810        3.53412       -7.03535
H          3.36208        3.93412       -6.38432
H          4.80782        4.74348       -5.71182
