138
ITIC-4Cl.sdf
C          3.19512       -1.46777       -1.14836
O          2.77585       -2.50167       -0.79323
C          3.75355       -1.31601       -2.46895
C          3.95808       -2.25887       -3.48848
C          4.76479       -1.91634       -4.58457
C          5.25822       -0.60968       -4.69457
C          4.88452        0.36585       -3.74160
C          4.13653       -0.02214       -2.61055
C          3.55861        0.73603       -1.45465
C          3.00336        1.97624       -1.53923
C          2.29193        2.57864       -0.45096
N          1.73825        3.00009        0.46829
C          3.01048        2.67662       -2.80483
N          2.96782        3.30485       -3.77504
C          3.40082       -0.24986       -0.35366
C          3.48669       -0.02812        1.02047
C          3.46647       -1.07180        2.14373
C          2.99888       -0.85830        3.46488
C          2.87005       -2.04800        4.20642
C          3.14785       -3.22311        3.52386
S          3.85415       -2.74150        2.02714
C          2.35146       -4.32179        4.06875
C          1.42784       -5.54694        3.50023
C          1.69158       -7.10210        2.81151
C          2.31901       -8.28751        3.40312
C          2.38937       -9.57159        2.75371
C          1.80096       -9.81080        1.50585
C          1.86668      -11.15309        0.77421
C          0.49668      -11.79108        0.49346
C          1.18820       -8.74158        0.90410
C          1.18033       -7.45829        1.48673
C          0.50070       -4.78929        2.49811
C          1.07192       -4.11484        1.45112
C          0.46088       -3.64637        0.39793
C         -0.85599       -3.70696        0.31220
C         -1.43418       -3.22141       -0.92289
C         -1.55306       -4.35366       -1.95110
C         -1.57470       -4.13637        1.41939
C         -0.89996       -4.69892        2.51962
C          0.59722       -5.70377        4.80480
C          0.82747       -4.77131        5.80641
C          1.80091       -3.88212        5.27928
S          2.04695       -2.25695        5.66029
C          0.16034       -4.79025        7.07691
C         -0.65575       -5.94115        7.36826
C         -1.36448       -6.57806        8.63366
C         -0.42180       -6.42793        9.90699
C          0.00146       -5.17936       10.45656
C          0.95022       -4.97837       11.39402
C          1.51231       -6.05021       11.98715
C          2.57138       -5.77174       12.99744
C          2.20393       -6.30235       14.37278
C          1.06866       -7.33382       11.61424
C          0.12141       -7.52402       10.57604
C         -2.78779       -5.93306        8.78615
C         -3.87636       -6.63362        9.33070
C         -5.15385       -6.05255        9.38932
C         -5.37586       -4.74318        8.94197
C         -6.71263       -4.08681        8.97901
C         -6.57738       -2.57320        9.16053
C         -4.33178       -4.06142        8.39861
C         -3.14077       -4.66335        8.29782
C         -1.64376       -8.04314        8.02050
C         -1.62446       -7.89010        6.66421
C         -0.91455       -6.75573        6.30229
C         -0.37067       -6.63535        5.05088
S         -1.98128       -9.17900        5.64958
C         -2.00280      -10.12482        6.98739
C         -1.77709       -9.46838        8.18614
S         -1.62904      -10.71224        9.33723
C         -1.80487      -12.03055        8.19260
C         -2.06022      -11.49005        6.95925
C         -1.46045      -13.49019        8.35430
C         -0.35736      -13.80943        9.07095
C         -0.60208      -14.48273       10.36418
C         -1.17667      -15.68590       10.59694
C         -1.56595      -16.10350       11.92958
N         -1.87754      -16.43929       12.99229
C         -1.36236      -16.60929        9.52490
N         -1.49000      -17.32027        8.62108
C         -0.07637      -13.52427       11.35995
C         -0.25373      -13.43681       12.74242
C          0.45841      -12.46567       13.45313
C          1.31937      -11.57166       12.77455
C          1.44905      -11.63946       11.38328
C          0.75241      -12.62307       10.71059
C          0.70143      -12.84217        9.28954
O          1.24489      -12.16330        8.43153
Cl         0.27222      -12.42592       15.19682
Cl         6.30297       -0.20028       -6.05132
Cl         2.24941      -10.36806       13.63982
Cl         5.18697       -3.13048       -5.80068
H          3.54871       -3.24558       -3.43668
H          5.21200        1.38131       -3.87742
H          3.66394        1.00611        1.33787
H          2.58321        0.06826        3.84529
H          2.78510       -8.33374        4.36591
H          2.90159      -10.39719        3.23825
H          2.38254      -11.01133       -0.20633
H          2.46815      -11.87004        1.36479
H         -0.10739      -11.17555       -0.20744
H          0.63306      -12.78951        0.01831
H         -0.06419      -11.93368        1.43909
H          0.70676       -8.89187       -0.05720
H          0.72891       -6.80294        0.78224
H          1.99650       -3.92133        1.34375
H          1.01398       -3.26374       -0.34686
H         -2.40456       -2.78094       -0.68077
H         -0.75401       -2.40986       -1.26382
H         -2.27252       -5.13487       -1.64435
H         -1.93331       -3.89692       -2.86752
H         -0.60002       -4.87682       -2.18008
H         -2.63121       -4.05795        1.39797
H         -1.47110       -5.06413        3.33889
H          0.38877       -3.99769        7.77147
H         -0.31180       -4.26386       10.24809
H          1.21928       -3.93567       11.61999
H          3.50607       -6.23669       12.64189
H          2.74863       -4.67006       13.07386
H          2.04732       -7.39799       14.32794
H          3.04015       -6.09364       15.06954
H          1.28462       -5.81115       14.76052
H          1.48782       -8.17724       12.10426
H         -0.16130       -8.51967       10.29621
H         -3.79332       -7.64001        9.68429
H         -5.96194       -6.63247        9.77951
H         -7.25807       -4.29050        8.03187
H         -7.29153       -4.51165        9.81900
H         -6.04912       -2.11385        8.30078
H         -7.56830       -2.10541        9.20067
H         -6.01752       -2.35321       10.09405
H         -4.38168       -3.05269        7.99110
H         -2.59149       -4.03708        7.77111
H         -0.65611       -7.34216        4.33806
H         -2.14161      -12.01188        6.01778
H         -2.33053      -14.12018        8.42913
H         -0.91525      -14.08491       13.28773
H          2.07461      -10.95164       10.83081
