126
ITIC-Th1.sdf
C         -4.07449       -2.06456       -2.28684
O         -4.98293       -1.52155       -2.87733
C         -3.82879       -3.42107       -2.52351
C         -4.66824       -4.28467       -3.21796
C         -4.27737       -5.61148       -3.33456
C         -3.07030       -6.03582       -2.75709
C         -2.24084       -5.12690       -2.07742
C         -2.63172       -3.78663       -1.96920
C         -1.97586       -2.58783       -1.34447
C         -0.68259       -2.51375       -0.90636
C         -0.06687       -1.30274       -0.41248
N          0.40388       -0.31967       -0.02010
C          0.19382       -3.64682       -1.00335
N          0.87583       -4.57642       -1.09297
C         -3.02138       -1.51391       -1.37721
C         -3.00250       -0.34553       -0.68262
C         -4.12224        0.59813       -0.63380
C         -4.05345        1.98481       -0.47222
C         -5.28614        2.55751       -0.41226
C         -6.29027        1.67765       -0.53637
S         -5.73988        0.13785       -0.70918
C         -7.52237        2.22590       -0.44412
C         -8.90439        1.63466       -0.42707
C         -9.64108        3.05313       -0.23713
C         -8.74612        4.13204       -0.04767
C         -7.43147        3.57804       -0.21849
S         -5.82648        4.14655       -0.17282
C         -9.19136        5.44643        0.33159
C        -10.60254        5.69234        0.31611
C        -11.54878        6.84292        0.68655
C        -11.28857        7.43921        2.01325
C        -11.43652        7.86918       -0.44038
C        -12.99615        6.28456        0.48197
C        -12.75154        5.33450       -0.43868
C        -11.42065        4.74840       -0.18071
C        -11.01052        3.40351       -0.22859
S        -14.04760        4.85893       -1.40304
C        -15.06566        5.47335       -0.25860
C        -14.36926        5.98591        0.80660
S        -15.45048        5.87390        2.11643
C        -16.53896        4.78809        1.26682
C        -16.39227        5.12810       -0.08565
C        -16.23902        3.26612        1.35927
C        -16.69584        2.37095        2.29077
C        -16.82904        0.90262        2.10694
C        -16.08307       -0.04085        2.74339
C        -15.28182        0.27716        3.91523
N        -14.66387        0.59239        4.84379
C        -16.11044       -1.40247        2.25030
N        -16.12298       -2.49463        1.86705
C        -18.17882        0.70581        2.66458
C        -18.98294       -0.37002        2.51766
C        -20.17841       -0.39594        3.21034
C        -20.59438        0.68147        4.04831
C        -19.74541        1.77342        4.23154
C        -18.54742        1.73671        3.50323
C        -17.51164        2.68480        3.41037
O        -17.26036        3.52292        4.23003
F        -20.90159       -1.50251        3.02287
F         -2.70339       -7.33381       -2.85260
C         -9.21555        0.76939       -1.75246
S         -9.83847        8.14528        2.41067
C        -10.36719        8.73710        3.86325
C        -11.67001        8.33813        4.09510
C        -12.18090        7.58860        3.06384
C        -12.12804        9.07476       -0.52224
C        -11.91712        9.77187       -1.68336
C        -11.05344        9.14906       -2.53780
S        -10.56050        7.72391       -1.86414
C         -9.54485        9.63549        4.69637
C         -8.06543        9.34502        4.48542
C        -10.62552        9.64617       -3.84635
C         -9.11482        9.82620       -3.85957
S         -9.61465       -0.89486       -1.82127
C         -9.95598       -1.00576       -3.48162
C         -9.72519        0.22033       -4.04632
C         -9.29407        1.18275       -3.12145
C         -8.97331        0.73843        0.84231
C        -10.06705       -0.02082        1.28065
C         -9.86407       -0.72301        2.48266
C         -8.60094       -0.52754        3.02691
S         -7.75753        0.50734        2.00538
C        -10.49093       -2.17231       -4.24336
C        -12.01695       -2.14523       -4.27587
C         -8.08414       -1.08407        4.32673
C         -7.67072        0.02321        5.29522
H         -5.60629       -3.93594       -3.64215
H         -4.91373       -6.30775       -3.85935
H         -1.33848       -5.50221       -1.64687
H         -2.17067       -0.08508       -0.04339
H         -3.22762        2.60905       -0.38861
H         -8.48594        6.22203        0.61298
H        -11.80168        2.69997       -0.23020
H        -16.90932        6.09896       -0.15946
H        -15.76744        2.81715        0.47746
H        -18.68241       -1.16170        1.85603
H        -21.56190        0.69763        4.53992
H        -20.05556        2.60706        4.87816
H        -12.26082        8.60118        4.95364
H        -13.18453        7.24526        3.12247
H        -12.79980        9.49388        0.19263
H        -12.40110       10.70275       -1.88051
H         -9.79549       10.68778        4.44106
H         -9.78989        9.45451        5.76112
H         -7.77875        9.51232        3.42479
H         -7.46642       10.00839        5.13504
H         -7.84308        8.28826        4.75584
H        -10.94727        8.93049       -4.63178
H        -11.12567       10.61800       -3.99939
H         -8.60205        8.85328       -3.68797
H         -8.81334       10.23420       -4.83959
H         -8.80267       10.53871       -3.06453
H         -9.89599        0.43579       -5.10260
H         -9.12057        2.14723       -3.54693
H        -11.00355       -0.06374        0.75856
H        -10.62894       -1.33714        2.94554
H        -10.08652       -2.13350       -5.28379
H        -10.14843       -3.10245       -3.75152
H        -12.40377       -1.21764       -4.75719
H        -12.38310       -3.02263       -4.84592
H        -12.41044       -2.19808       -3.23849
H         -8.88361       -1.68328        4.80690
H         -7.22197       -1.75871        4.13343
H         -8.53788        0.68232        5.51569
H         -7.32417       -0.42959        6.24973
H         -6.84450        0.63044        4.86722
