150
ITN-C9.sdf
C          1.83364       -1.18292        2.42525
O          1.38362       -0.87405        3.50417
C          1.33677       -2.29802        1.67256
C          0.19989       -3.02571        1.95100
C         -0.31388       -3.85011        0.94529
C          0.40553       -4.00862       -0.26554
C          1.65625       -3.36886       -0.43794
C          2.08694       -2.47387        0.55115
C          3.27937       -1.58731        0.67352
C          4.51179       -1.92774        0.21524
C          5.71630       -1.19271        0.50843
N          6.69823       -0.62639        0.72604
C          4.73066       -3.18964       -0.45509
N          4.98068       -4.18384       -0.99377
C          2.85538       -0.48934        1.62219
C          3.23471        0.84036        1.69448
C          2.63136        1.91655        2.62298
C          2.98156        3.29117        2.71965
C          2.08685        4.05307        3.51355
C          0.98373        3.38951        4.00662
S          1.27378        1.75092        3.64708
C         -0.10426        4.30026        4.35192
C         -1.71714        4.34960        4.36750
C         -2.74756        3.72348        5.53372
C         -2.32554        3.02079        6.72483
C         -3.16203        2.44797        7.69329
C         -4.53111        2.53390        7.57158
C         -5.47250        1.87849        8.55015
C         -4.87474        1.77900        9.94926
C         -5.03082        3.27972        6.51690
C         -4.19152        3.87191        5.54411
C         -2.10034        3.74107        2.96027
C         -2.28822        2.37187        2.84572
C         -2.95296        1.76658        1.85208
C         -3.32470        2.46248        0.72727
C         -4.15133        1.78800       -0.32966
C         -4.42966        0.35939        0.03038
C         -2.86192        3.78208        0.62130
C         -2.28344        4.43262        1.74982
C         -1.82669        5.93692        4.49022
C         -0.59602        6.58418        4.55523
C          0.40056        5.59016        4.32201
S          1.99392        5.71766        3.76000
C         -0.44601        7.98157        4.80754
C         -1.61017        8.71336        5.22374
C         -1.85842       10.17527        5.78107
C         -0.59334       10.57514        6.71014
C         -0.11809       11.90989        6.88468
C          1.03314       12.27004        7.55108
C          1.84937       11.32792        8.10947
C          3.15821       11.81318        8.70136
C          2.98178       12.83215        9.82382
C          1.44012        9.97932        8.02829
C          0.24085        9.60972        7.33795
C         -1.95730       11.09676        4.47067
C         -1.86919       10.56895        3.14636
C         -1.89223       11.39733        2.00859
C         -2.01314       12.78897        2.13105
C         -1.98403       13.73471        0.96035
C         -3.10299       13.44788       -0.03084
C         -2.13773       13.32425        3.39428
C         -2.11869       12.50917        4.51217
C         -3.36130        9.90668        6.39816
C         -3.85365        8.80984        5.71935
C         -2.81042        8.07103        5.08466
C         -2.95333        6.77305        4.61899
S         -5.38745        8.22819        6.18569
C         -5.51709        9.30908        7.43445
C         -4.38757       10.13895        7.44202
S         -4.62079       10.99666        8.83639
C         -6.07168       10.18452        9.54249
C         -6.47361        9.33734        8.51473
C         -6.61349       10.19347       11.10188
C         -5.65560       10.32223       12.14364
C         -4.53127       10.54377       11.59025
C         -3.60909        9.55991       11.37238
C         -2.29063        9.87966       10.95642
N         -1.25154       10.24433       10.61611
C         -3.90220        8.17288       11.69340
N         -4.20087        7.08822       11.96795
C         -4.53798       12.01200       11.60492
C         -5.51699       12.85732       11.00116
C         -5.24249       14.18111       11.09498
C         -4.12637       14.53633       11.89266
C         -3.80389       13.55815       12.96340
C         -4.62873       12.35601       12.90804
C         -5.41309       11.11202       13.43515
O         -5.43656       10.69438       14.58371
C         -3.56926       15.79803       11.61601
C         -4.22280       16.66526       10.69342
C         -5.46861       16.32911       10.13493
C         -5.97874       15.07052       10.33475
C         -1.56775       -4.44668        1.08838
C         -2.14263       -5.16560        0.05368
C         -1.43089       -5.33874       -1.13026
C         -0.15973       -4.77262       -1.28894
H         -0.31325       -2.82264        2.87530
H          2.21826       -3.49490       -1.34868
H          3.94192        1.17694        0.93114
H          3.76775        3.78840        2.16980
H         -1.35530        2.84922        7.05720
H         -2.71580        1.93359        8.54640
H         -6.40698        2.47775        8.59988
H         -5.74743        0.86249        8.18324
H         -4.62862        2.78834       10.34260
H         -5.61025        1.31424       10.63214
H         -3.95628        1.15515        9.92529
H         -6.10009        3.40557        6.44661
H         -4.75993        4.43809        4.84845
H         -1.99035        1.68964        3.50714
H         -3.17112        0.73054        2.04102
H         -5.13268        2.31011       -0.41944
H         -3.63733        1.77164       -1.30188
H         -4.86576        0.28557        1.03774
H         -5.06456       -0.02473       -0.73475
H         -3.50563       -0.21135        0.04718
H         -2.99094        4.30307       -0.30717
H         -1.99272        5.45891        1.68713
H          0.54629        8.40461        4.79664
H         -0.53742       12.78046        6.51168
H          1.28675       13.32425        7.57928
H          3.73371       10.94971        9.06600
H          3.77348       12.30718        7.90853
H          2.41864       12.37785       10.66047
H          3.98214       13.13979       10.19029
H          2.45747       13.73942        9.45398
H          2.07307        9.22841        8.46822
H         -0.02566        8.56820        7.25734
H         -1.75879        9.51396        2.95652
H         -1.79353       10.94712        1.03513
H         -2.10111       14.78322        1.32430
H         -0.99776       13.66737        0.45811
H         -4.09505       13.56495        0.45532
H         -3.04496       14.16776       -0.87401
H         -3.00293       12.41758       -0.42943
H         -2.23001       14.39645        3.54386
H         -2.20565       13.09418        5.37739
H         -3.95079        6.49900        4.50120
H         -7.30605        8.65643        8.61385
H         -7.67857       10.29927       11.31216
H         -6.32415       12.54807       10.35451
H         -3.19579       13.86916       13.80168
H         -2.64370       16.10779       12.07291
H         -3.80115       17.61995       10.42663
H         -6.02229       16.99978        9.49059
H         -6.90567       14.75914        9.85396
H         -2.11008       -4.34788        1.98856
H         -3.13064       -5.59444        0.17739
H         -1.86272       -5.91434       -1.93047
H          0.37144       -4.90211       -2.21838
