174
ITOIC-2F.sdf
C          2.75441       -1.21759       -0.54305
C          2.70765       -0.73909        0.76921
C          1.82130        0.26441        1.23342
C          0.82462        0.66170        0.32153
C          0.67472       -0.08461       -0.85403
C          1.64507       -0.95907       -1.35524
C          3.94096       -2.20464       -0.78884
C          4.21325       -2.49555        0.66615
C          3.57610       -1.61432        1.45809
C          4.98754       -3.46842        1.32801
C          4.81646       -3.46601        2.73278
S          3.81630       -2.04743        2.96546
C         -0.31519        1.69551        0.37509
C         -1.36292        0.75785       -0.21448
C         -0.75114       -0.04827       -1.13461
C         -2.70891        0.41644        0.02061
C         -3.09860       -0.72016       -0.73819
S         -1.79845       -1.22464       -1.71766
C          5.40542       -4.55090        3.73581
C         -4.37805       -1.48362       -0.62893
C         -0.53293        2.41139        1.72619
C         -0.02765        2.76299       -0.74157
C          3.46120       -3.45749       -1.65030
C          5.27175       -1.45608       -1.28288
C          3.52485       -3.39445       -3.06254
C          3.24153       -4.47375       -3.89483
C          2.80681       -5.68404       -3.38461
C          2.61864       -5.78295       -1.99166
C          2.94710       -4.69062       -1.12863
C          5.31211       -0.03713       -1.44450
C          6.48595        0.64667       -1.82303
C          7.68022       -0.04747       -2.06182
C          7.68082       -1.42675       -1.91046
C          6.52253       -2.11434       -1.52660
C          0.14011        3.62295        2.02592
C         -0.04871        4.27771        3.24361
C         -0.90726        3.75048        4.22001
C         -1.57511        2.54810        3.93191
C         -1.38627        1.89365        2.70870
C         -1.08161        3.44694       -1.39265
C         -0.82922        4.36720       -2.41398
C          0.47777        4.64253       -2.82724
C          1.54210        3.98216       -2.19431
C          1.29573        3.05954       -1.16639
C         -1.10802        4.43913        5.56035
C          0.71283        5.61083       -3.96408
C          8.95702        0.64601       -2.47761
C          2.52629       -6.81020       -4.36352
C          9.42302        1.64193       -1.42244
C          3.77301       -7.18336       -5.17909
C         -0.28149        5.72352        5.71143
C          0.85709        7.05025       -3.48043
S         -5.13463       -2.31817       -1.89415
C         -6.51696       -2.91047       -1.12452
C         -6.41334       -2.34917        0.23304
C         -5.13278       -1.65714        0.53568
S          6.80906       -5.43095        3.37287
C          6.97943       -6.34463        4.79227
C          5.89751       -6.04898        5.66304
C          5.00032       -5.03472        5.06835
O          3.87615       -4.55911        5.70749
C          3.41863       -3.26449        5.55946
C          3.39190       -2.41199        6.83566
C          8.18338       -7.15801        5.20926
C          9.37917       -7.31388        4.55654
C         10.57484       -7.29931        5.44374
C         11.22705       -6.04421        5.05954
C         10.72370       -5.64750        3.82748
C          9.83828       -6.67258        3.29440
C         12.08168       -5.21562        5.79229
C         12.34118       -3.92903        5.28022
C         11.76360       -3.51307        4.06055
C         10.97199       -4.38884        3.31390
O         10.68413       -7.81914        6.54656
C          9.70123       -6.95439        1.94258
C          8.95082       -7.98110        1.26712
C         10.44904       -6.27486        0.90573
N         10.98764       -5.81149       -0.00796
N          8.43691       -8.72156        0.53832
F         11.93732       -2.24646        3.61621
F         13.09753       -3.05888        5.99206
O         -4.60887       -1.15382        1.74915
C         -4.77160       -1.40714        3.15351
C         -4.25762       -2.75587        3.74398
C         -7.60460       -3.65649       -1.99315
C         -8.54448       -4.64519       -1.76527
C         -8.80528       -5.44556       -0.57529
C        -10.22684       -5.29676       -0.35732
C        -10.84005       -4.85570       -1.52016
C         -9.80574       -4.79927       -2.57558
C        -10.88391       -5.35617        0.85620
C        -12.18196       -4.84349        0.91769
C        -12.82745       -4.38028       -0.24764
C        -12.17680       -4.42880       -1.49878
O         -7.99118       -5.94945        0.18121
C         -9.99013       -4.91603       -3.91483
C         -8.85765       -5.05338       -4.79752
C        -11.29755       -5.14901       -4.50169
N         -7.92547       -5.15877       -5.47524
N        -12.32111       -5.33916       -5.01361
F        -12.77785       -4.71043        2.12672
F        -14.05438       -3.81293       -0.14355
O          5.87354       -6.71428        6.90869
C          5.40173       -6.49809        8.23177
C          3.94316       -6.36243        8.31957
O         -7.48121       -2.30379        1.08909
C         -7.64020       -1.22413        1.97374
C         -8.44803       -0.06710        1.47001
H          1.86019        0.65535        2.24743
H          1.49249       -1.49612       -2.27602
H          5.54379       -4.14549        0.72507
H         -3.34243        0.92787        0.73700
H          3.81360       -2.51579       -3.58617
H          3.37180       -4.35265       -4.96339
H          2.22396       -6.70991       -1.58755
H          2.78545       -4.82643       -0.06634
H          4.44950        0.58403       -1.26518
H          6.45611        1.72463       -1.92221
H          8.59387       -1.98872       -2.08580
H          6.69315       -3.16585       -1.43987
H          0.82007        4.08217        1.32339
H          0.48785        5.19974        3.41687
H         -2.24489        2.09360        4.64679
H         -1.90912        0.97240        2.54534
H         -2.11569        3.26632       -1.14196
H         -1.66430        4.85971       -2.89513
H          2.56399        4.17486       -2.50070
H          2.14844        2.57334       -0.70715
H         -2.18176        4.69131        5.69384
H         -0.81437        3.74317        6.37710
H          1.62096        5.31667       -4.53174
H         -0.14281        5.56530       -4.67480
H          9.77136       -0.10138       -2.63112
H          8.79184        1.16737       -3.44281
H          2.15430       -7.70773       -3.83135
H          1.74163       -6.48744       -5.08334
H          9.61531        1.12115       -0.45958
H         10.36109        2.13278       -1.75712
H          8.65075        2.42311       -1.27299
H          4.57846       -7.54728       -4.50914
H          3.51691       -7.98359       -5.90511
H          4.15371       -6.31263       -5.75975
H         -0.57936        6.47461        4.94655
H         -0.44554        6.17876        6.70186
H          0.80315        5.49091        5.59422
H          1.73335        7.14668       -2.80633
H          1.00992        7.71672       -4.35732
H         -0.06042        7.37851       -2.94682
H          4.19857       -2.87844        5.04201
H          2.57151       -3.08104        4.85196
H          4.36431       -2.44957        7.36726
H          3.17561       -1.31975        6.66305
H          2.62049       -2.81361        7.49947
H          8.19811       -7.39578        6.27600
H         12.47528       -5.51414        6.75758
H         10.49013       -4.07109        2.40060
H         -4.39792       -0.53076        3.76208
H         -5.79823       -1.46673        3.44702
H         -3.20228       -2.96664        3.73608
H         -4.36327       -2.78839        4.86120
H         -4.69516       -3.63937        3.23496
H         -7.73041       -3.23669       -2.98860
H        -10.36137       -5.66442        1.74933
H        -12.67052       -4.02173       -2.37181
H          5.51457       -7.35701        8.95748
H          5.90241       -5.62429        8.69730
H          3.45823       -7.36123        8.24627
H          3.70655       -5.97807        9.32746
H          3.71279       -5.65853        7.54519
H         -8.01838       -1.53940        2.96672
H         -6.73516       -0.62560        1.96968
H         -8.21631        0.04167        0.40189
H         -8.04949        0.87900        1.98360
H         -8.21584        0.04180        0.40199
