138
IXIC-4Cl.sdf
C         -1.58021        0.84225        1.43346
C         -2.28195       -0.30089        1.73016
C         -2.52859        1.96576        0.99098
C         -3.74758        1.04980        0.78380
C         -3.61741       -0.16602        1.36493
C         -2.84484        2.89020        2.20241
C         -2.16187        2.71320       -0.32754
C         -4.99745        1.14081        0.23863
C         -5.78749        0.04578        0.45946
S         -4.97754       -1.17555        1.29923
C         -2.35516        2.11391       -1.59589
C         -2.14743        2.83648       -2.78690
C         -1.71839        4.17438       -2.75238
C         -1.48006        4.76185       -1.50740
C         -1.70790        4.05597       -0.32589
C         -1.84417        3.67071        2.81780
C         -2.14629        4.50467        3.90730
C         -3.45109        4.55823        4.42895
C         -4.44054        3.76794        3.85196
C         -4.14967        2.95953        2.76710
C         -8.46261        2.17325       -0.79974
C         -9.73361        2.01102       -0.40465
C        -10.72130        3.13495       -0.47540
C        -12.03284        2.51524       -0.16386
C        -11.86336        1.18007        0.18629
C        -10.44506        0.83548        0.13764
O        -10.00209       -0.28358        0.32214
C        -10.45585        4.47768       -0.67210
C        -11.47749        5.48206       -0.81440
N        -12.23669        6.34769       -0.93593
C         -9.11751        5.03720       -0.70136
N         -8.02607        5.42817       -0.71625
C        -13.30440        3.09122       -0.12513
C        -14.40926        2.30316        0.21193
C        -14.24144        0.93444        0.51338
C        -12.95488        0.36617        0.51224
Cl       -15.99176        3.06768        0.24474
Cl       -15.62835       -0.07358        0.90022
S         -5.80231        2.32964       -0.56393
C         -7.25673        1.42988       -0.53922
C         -7.09318        0.18008        0.04385
S         -1.40295       -1.66697        2.03152
C         -0.01535       -0.81427        1.62748
C         -0.22016        0.53974        1.42262
C          7.56653       -4.50283       -1.22249
C          7.33536       -5.70450       -1.81562
C          8.09678       -5.96205       -3.07371
C          8.75421       -7.27566       -2.98905
C          8.43278       -7.85912       -1.78537
C          7.57114       -6.94065       -1.02213
C          9.53169       -7.96274       -3.93552
C         10.02889       -9.23245       -3.62222
C          9.73781       -9.81277       -2.36944
C          8.92517       -9.12576       -1.44477
O          7.23193       -7.11449        0.13774
C          8.15977       -5.08569       -4.12839
C          9.19301       -5.17210       -5.20251
C          7.24230       -3.95321       -4.19335
N          6.54858       -3.03147       -4.30968
N         10.01757       -5.26431       -6.03598
Cl        10.37610      -11.39622       -1.94938
Cl        11.01447      -10.06732       -4.81955
C          1.23413       -1.23757        1.23955
C          2.02241       -0.16836        0.91458
S          1.21550        1.33519        0.97269
C          1.84154       -2.61366        0.91057
C          3.15766       -2.03992        0.32620
C          3.26831       -0.67286        0.44835
C          2.17442       -3.39445        2.25249
C          0.82319       -3.22835       -0.14386
C          2.17853       -4.81033        2.40395
C          2.44059       -5.44055        3.61849
C          2.70653       -4.70576        4.76294
C          2.71354       -3.31248        4.67513
C          2.46162       -2.67095        3.45105
C          0.94774       -3.02882       -1.54725
C         -0.11197       -3.36417       -2.43800
C         -1.31989       -3.90654       -1.95352
C         -1.43083       -4.14614       -0.60127
C         -0.40041       -3.82116        0.26028
C          2.94003       -5.42703        6.06510
C          4.41067       -5.78299        6.24950
C         -2.55164       -4.13071       -2.80590
C         -2.62382       -5.51989       -3.41895
C          4.33299       -2.55124       -0.21391
C          5.33953       -1.62483       -0.36208
S          4.79919       -0.06211        0.02839
S          4.88724       -4.06430       -0.62608
C          6.47908       -3.55379       -0.91026
C          6.58664       -2.15336       -0.71965
C         -3.80075        5.42938        5.60826
C         -4.87219        6.46049        5.25103
C         -1.52249        4.98066       -4.02432
C         -2.79102        5.73171       -4.44697
H         -2.71153        1.09623       -1.67505
H         -2.34149        2.35312       -3.73613
H         -1.13556        5.78472       -1.43550
H         -1.52952        4.61281        0.57122
H         -0.82609        3.64133        2.45004
H         -1.35984        5.10411        4.34629
H         -5.45235        3.76941        4.23981
H         -4.98694        2.39309        2.40267
H         -8.21907        3.04660       -1.33953
H        -13.46673        4.12779       -0.34523
H        -12.81755       -0.68027        0.75748
H         -7.84902       -0.54541        0.26014
H          8.35702       -3.91437       -1.64932
H          9.75771       -7.55927       -4.90630
H          8.68845       -9.57337       -0.48990
H          1.96969       -5.52162        1.65309
H          2.41529       -6.52373        3.66346
H          2.90220       -2.71608        5.55846
H          2.46808       -1.59377        3.48669
H          1.82224       -2.54706       -1.96046
H         -0.01753       -3.14801       -3.49401
H         -2.35228       -4.54143       -0.18284
H         -0.68686       -3.99390        1.25606
H          2.59130       -4.80590        6.91643
H          2.33922       -6.36460        6.08203
H          5.02616       -4.85972        6.28425
H          4.53878       -6.33465        7.20506
H          4.76435       -6.43053        5.41846
H         -3.46227       -4.01126       -2.16948
H         -2.62723       -3.34022       -3.57958
H         -2.63206       -6.29637       -2.62328
H         -3.57130       -5.60731       -3.99554
H         -1.76700       -5.68348       -4.10065
H          7.50495       -1.57462       -0.77910
H         -4.18318        4.79567        6.43796
H         -2.89470        5.95186        5.97672
H         -5.81201        5.96050        4.92936
H         -5.09923        7.08007        6.14348
H         -4.51382        7.12428        4.43687
H         -0.71446        5.73117       -3.87528
H         -1.21492        4.31131       -4.85542
H         -3.09855        6.46430       -3.67263
H         -2.59843        6.30321       -5.38166
H         -3.62689        5.02516       -4.63649
