150
JC2.sdf
C         -0.00125       -0.19964        1.78731
C          0.35270        0.90319        2.73302
C          1.57920        1.56880        2.57648
C          1.97174        2.64016        3.34567
C          1.18410        3.18320        4.37946
C         -0.04083        2.49093        4.58406
C         -0.46180        1.39731        3.78125
S         -1.23556        2.80582        5.73337
C         -2.27333        1.56695        5.23425
C         -1.70910        0.88844        4.16105
C          1.57748        4.37050        5.23061
C          2.39446        5.40991        4.89029
C          2.77982        6.48147        5.71481
N          3.63518        7.42205        5.14043
C          3.93029        7.11453        3.83191
S          3.10953        5.71415        3.40623
C          4.72992        7.78094        2.95200
C          4.11011        8.59947        5.89305
C          5.44890        8.32051        6.57072
O          2.40664        6.57285        6.87397
C          4.89161        7.29026        1.59341
C          5.51743        8.94723        3.25537
N          6.16403        9.86998        3.50627
N          5.01973        6.90224        0.51751
C         -3.58250        1.24724        5.82318
O         -4.24570        0.33468        5.34894
O         -4.04936        1.97465        6.87038
C         -5.31093        1.84416        7.42442
C         -5.20023        1.43462        8.88413
N          2.53931        1.33253        1.66521
N          3.49221        2.21877        1.91186
N          3.19068        3.01024        2.92851
S          1.17685       -1.16891        1.01660
C          0.08412       -1.85852       -0.01778
C         -1.17165       -1.39085        0.17750
C         -1.27449       -0.47423        1.23173
C          0.18181       -2.60742       -1.22703
C         -1.07590       -2.55566       -1.82617
C         -2.10281       -1.90066       -0.90914
C          1.30561       -3.16653       -1.83971
C          1.14504       -3.57090       -3.16916
C         -0.09143       -3.40456       -3.80571
C         -1.24121       -2.96426       -3.15458
C          2.21430       -4.07126       -4.13495
C          1.43408       -3.87378       -5.40733
C          0.14112       -3.58367       -5.19760
C          1.81344       -3.81516       -6.72110
C          0.77035       -3.40269       -7.58620
S         -0.64092       -3.21928       -6.62065
C         -3.11941       -2.95502       -0.39061
C         -2.84722       -0.74918       -1.64456
C          3.52186       -3.21891       -4.06099
C          2.47023       -5.59150       -3.88876
C          0.84925       -3.00721       -9.04718
C         -0.30384       -2.53798       -9.71396
C         -0.31270       -2.10613      -11.02466
C          0.83135       -2.08705      -11.85350
C          2.01385       -2.50087      -11.18957
C          2.03974       -2.96628       -9.84537
S          3.58263       -2.55468      -11.82083
C          4.30320       -3.16234      -10.42385
C          3.34094       -3.34206       -9.46588
C          0.84993       -1.64586      -13.30959
C         -0.17690       -1.75184      -14.20214
C         -0.22590       -1.33570      -15.54898
N         -1.42427       -1.59184      -16.23516
C         -2.33374       -2.23557      -15.41903
S         -1.64285       -2.46649      -13.91872
C         -3.60920       -2.64723      -15.64298
C         -1.63291       -1.14570      -17.63556
C         -0.66251       -1.80031      -18.61951
O          0.71315       -0.76227      -16.07667
C         -4.37120       -3.24031      -14.54932
C         -4.36295       -2.56198      -16.87433
N         -5.00023       -2.52399      -17.84110
N         -4.97745       -3.66280      -13.65834
C          5.72259       -3.51184      -10.23549
O          6.09998       -4.07084       -9.21261
O          6.56947       -3.27717      -11.25698
C          7.50444       -4.16862      -11.73397
C          8.70087       -4.42177      -10.81898
N         -1.55351       -2.40772       -9.22795
N         -2.28033       -1.89867      -10.21403
N         -1.55803       -1.68854      -11.30199
C          4.72372        2.32867        1.14347
C          5.51140        1.03087        1.23236
C         -3.71292       -1.60776      -10.15135
C         -4.31191       -1.94573       -8.78916
C         -2.47348       -4.10023        0.40810
C         -1.94955        0.38039       -2.16283
C          3.37216       -1.72233       -4.36774
C          3.47955       -6.27965       -4.82272
H         -2.19742        0.04980        3.68971
H          1.13368        4.40491        6.22169
H          4.14945        9.49328        5.24269
H          3.37390        8.88088        6.67586
H          6.21879        8.02455        5.82958
H          5.79453        9.23354        7.10122
H          5.33052        7.50390        7.31422
H         -5.83182        2.82151        7.35283
H         -5.92765        1.08829        6.89025
H         -4.62394        2.19424        9.45278
H         -6.21782        1.35056        9.32119
H         -4.69186        0.45036        8.96590
H         -2.19021        0.05002        1.46358
H          2.27042       -3.18376       -1.35145
H         -2.17629       -2.83895       -3.68341
H          2.83576       -3.99098       -6.87818
H         -3.87147       -2.46738        0.26522
H         -3.65389       -3.39719       -1.26108
H         -3.39947       -1.17778       -2.51021
H         -3.60110       -0.29877       -0.96412
H          3.94815       -3.32381       -3.04066
H          4.27487       -3.61419       -4.77501
H          2.81248       -5.75762       -2.84585
H          1.49973       -6.12367       -4.01274
H          3.67829       -3.74301       -8.56107
H          1.78903       -1.24854      -13.68526
H         -2.64143       -1.36327      -18.00382
H         -1.51749       -0.04223      -17.69033
H         -0.78237       -2.90302      -18.60475
H         -0.87869       -1.43301      -19.64728
H          0.38839       -1.53922      -18.38878
H          6.98984       -5.12641      -11.96184
H          7.88730       -3.74164      -12.67966
H          8.41033       -4.91017       -9.86695
H          9.38920       -5.11056      -11.35726
H          9.24665       -3.47848      -10.61096
H          4.47674        2.54844        0.08254
H          5.34257        3.16298        1.54158
H          4.90965        0.19242        0.82144
H          6.44898        1.12263        0.64648
H          5.76244        0.81516        2.29256
H         -3.87723       -0.52950      -10.36343
H         -4.23540       -2.20458      -10.93071
H         -3.81840       -1.34509       -7.99628
H         -5.39773       -1.71280       -8.79184
H         -4.17949       -3.02671       -8.57109
H         -2.00755       -3.70988        1.33788
H         -3.24572       -4.84351        0.69652
H         -1.69811       -4.62503       -0.18915
H         -1.16044       -0.00650       -2.84006
H         -2.56913        1.10763       -2.72996
H         -1.47575        0.91898       -1.31647
H          2.62286       -1.24124       -3.70757
H          4.35152       -1.22032       -4.20324
H          3.08897       -1.56108       -5.42918
H          4.51350       -5.92775       -4.62684
H          3.46182       -7.37531       -4.62973
H          3.23143       -6.12867       -5.89243
