98
M8.sdf
C         -1.91255       -0.51301        1.74026
C         -2.37002       -0.04968        0.52978
C         -1.35850        0.89489       -0.06625
C          0.04590        0.68349        0.34103
C          0.24315       -0.57086        0.76974
C         -0.60104       -0.91271        1.86975
O         -0.29026       -1.67809        2.95871
C          0.93332       -2.22491        3.34544
O         -1.74016        1.93121       -0.86584
C         -1.02945        2.53871       -1.90055
O          1.31781        1.24117        0.34074
C          2.20205        0.27055        0.82953
C          1.54598       -0.79433        0.54184
O         -2.89211       -0.61818        2.61793
C         -3.95692       -0.59529        1.87765
C         -3.70608       -0.64027        0.54987
C         -5.17415        0.01581        1.91639
C         -5.67202       -0.02638        0.66472
N         -4.91248       -0.77799       -0.13216
S         -5.70220        1.31996        2.72102
C         -6.52349        1.95262        1.33981
C         -6.45779        1.02030        0.29373
C          3.54217       -0.12726        0.47195
C          3.35127       -0.54490       -0.75777
N          2.08636       -1.07939       -0.70533
S          4.34356       -1.59817        1.09628
C          4.64843       -2.26223       -0.51245
C          4.41118       -1.22304       -1.35388
C         -6.94036        3.36296        1.05860
C         -8.01610        3.56322        0.28388
C          4.70099       -3.66144       -1.09896
C          5.49974       -3.98558       -2.17362
C         -8.95647        2.51206       -0.12621
C         -8.87884        2.51388       -1.54983
C         -8.33651        3.71213       -1.94219
C         -8.10793        4.57100       -0.77417
C          6.21100       -5.24736       -1.92300
C          7.35820       -4.73492       -1.19970
C          7.56940       -3.41156       -1.61501
C          6.52969       -3.02822       -2.63114
C         -9.09778        1.46567       -2.42549
C         -8.65372        1.62883       -3.74577
C         -8.02040        2.82658       -4.14475
C         -7.87727        3.88757       -3.24325
C          7.88165       -5.25498       -0.02347
C          8.57047       -4.37628        0.82241
C          8.78107       -3.03253        0.44565
C          8.30581       -2.54318       -0.79289
F         -8.76012        0.59912       -4.61602
F         -7.49151        2.93889       -5.38590
O         -9.45083        1.63760        0.56241
C         -7.97294        5.91118       -0.81501
C         -7.53553        6.71797        0.28812
C         -8.41162        6.59758       -2.01012
C         -5.41119       -2.24162        0.17173
C         -6.57656       -2.94314       -0.61265
C          1.36827       -1.51553       -1.88303
C          1.62168       -2.95895       -2.20602
C          1.73120       -1.33048        4.22698
C         -1.36034        1.83453       -3.20686
O          5.72234       -6.35915       -1.81019
C          6.69067       -3.31288       -3.98454
F          9.34442       -2.17819        1.33802
F          8.92252       -4.79435        2.06525
N         -8.78036        7.08753       -2.99703
N         -7.19916        7.45570        1.11253
C          6.38795       -2.34182       -5.01256
C          6.71320       -4.63409       -4.59817
N          6.73294       -5.66732       -5.13281
N          6.15343       -1.63405       -5.89995
H          0.76017       -3.05543        4.03797
H          1.56530       -2.50365        2.50408
H         -1.40270        3.58010       -2.01035
H          0.07387        2.60906       -1.74003
H         -6.73885        1.16969       -0.73560
H          5.26094       -0.55510       -1.12676
H         -6.18075        4.12987        1.18354
H          4.24196       -4.48801       -0.56617
H         -9.50370        0.52588       -2.07425
H         -7.32590        4.77425       -3.52659
H          7.61728       -6.24680        0.31892
H          8.38622       -1.48501       -1.00799
H         -4.57280       -2.97782        0.18548
H         -5.80968       -2.34215        1.22126
H         -6.30060       -3.28823       -1.62972
H         -6.84104       -3.90129       -0.07839
H         -7.53712       -2.38779       -0.63122
H          0.28294       -1.34818       -1.73720
H          1.70553       -0.85250       -2.70566
H          1.20818       -3.62291       -1.41706
H          1.13952       -3.16610       -3.17339
H          2.69284       -3.12419       -2.33578
H          1.50001       -1.36443        5.27716
H          1.16523       -0.47650        4.23924
H          2.79391       -1.16416        3.99800
H         -2.46488        1.75691       -3.29793
H         -0.97329        2.41799       -4.06996
H         -0.91944        0.81825       -3.20817
