
  xtb     01272209083D
 energy: -169.970669172066 gnorm: 0.000177560053 xtb: 6.4.1 (unknown)
 86 95  0     0  0            999 V2000
    1.6041    1.6895   -5.9590 C   0  0  0  0  0  0  0  0  0  0  0  0
    0.9753    2.5232   -6.8534 C   0  0  0  0  0  0  0  0  0  0  0  0
   -0.0674    3.5354   -6.5998 C   0  0  0  0  0  0  0  0  0  0  0  0
   -0.4747    3.9810   -5.5449 O   0  0  0  0  0  0  0  0  0  0  0  0
   -0.5615    3.9423   -7.9339 C   0  0  0  0  0  0  0  0  0  0  0  0
   -1.5861    4.8201   -8.2278 C   0  0  0  0  0  0  0  0  0  0  0  0
   -1.8869    5.0315   -9.5632 C   0  0  0  0  0  0  0  0  0  0  0  0
   -2.8756    5.8707   -9.8959 F   0  0  0  0  0  0  0  0  0  0  0  0
   -1.1711    4.3745  -10.5644 C   0  0  0  0  0  0  0  0  0  0  0  0
   -1.4883    4.5904  -11.8459 F   0  0  0  0  0  0  0  0  0  0  0  0
   -0.1373    3.4986  -10.2676 C   0  0  0  0  0  0  0  0  0  0  0  0
    0.1700    3.2829   -8.9331 C   0  0  0  0  0  0  0  0  0  0  0  0
    1.1795    2.4415   -8.2906 C   0  0  0  0  0  0  0  0  0  0  0  0
    2.1632    1.7601   -8.9577 C   0  0  0  0  0  0  0  0  0  0  0  0
    3.2109    1.0163   -8.3719 C   0  0  0  0  0  0  0  0  0  0  0  0
    4.1085    0.4089   -7.9922 N   0  0  0  0  0  0  0  0  0  0  0  0
    2.2931    1.7412  -10.3634 C   0  0  0  0  0  0  0  0  0  0  0  0
    2.4536    1.6797  -11.4981 N   0  0  0  0  0  0  0  0  0  0  0  0
    1.5114    1.5753   -4.5644 C   0  0  0  0  0  0  0  0  0  0  0  0
    2.3665    0.1958   -3.8391 S   0  0  0  0  0  0  0  0  0  0  0  0
    1.7842    0.6385   -2.2948 C   0  0  0  0  0  0  0  0  0  0  0  0
    1.7533    0.1693   -0.9771 C   0  0  0  0  0  0  0  0  0  0  0  0
    2.1697   -1.0393   -0.3789 C   0  0  0  0  0  0  0  0  0  0  0  0
    2.8611   -2.0818   -0.8405 N   0  0  0  0  0  0  0  0  0  0  0  0
    2.8388   -2.9430    0.1449 N   0  0  0  0  0  0  0  0  0  0  0  0
    3.4524   -4.2343    0.0291 C   0  0  0  0  0  0  0  0  0  0  0  0
    2.4977   -5.2230   -0.6334 C   0  0  0  0  0  0  0  0  0  0  0  0
    2.1922   -2.5817    1.2240 N   0  0  0  0  0  0  0  0  0  0  0  0
    1.7431   -1.3578    0.9407 C   0  0  0  0  0  0  0  0  0  0  0  0
    1.0310   -0.4016    1.6942 C   0  0  0  0  0  0  0  0  0  0  0  0
    0.4962   -0.3896    2.9878 C   0  0  0  0  0  0  0  0  0  0  0  0
    0.2260   -1.4471    4.3080 S   0  0  0  0  0  0  0  0  0  0  0  0
   -0.5728   -0.1439    5.1936 C   0  0  0  0  0  0  0  0  0  0  0  0
   -0.5637    1.0534    4.4958 C   0  0  0  0  0  0  0  0  0  0  0  0
   -0.0004    0.9025    3.2321 C   0  0  0  0  0  0  0  0  0  0  0  0
    0.1844    1.6851    2.1196 N   0  0  0  0  0  0  0  0  0  0  0  0
    0.3179    3.1210    2.2448 C   0  0  0  0  0  0  0  0  0  0  0  0
    1.4348    3.4939    3.2200 C   0  0  0  0  0  0  0  0  0  0  0  0
    0.7674    0.8873    1.1468 C   0  0  0  0  0  0  0  0  0  0  0  0
    0.9897    1.1138   -0.2290 C   0  0  0  0  0  0  0  0  0  0  0  0
    0.5396    2.1060   -1.0809 N   0  0  0  0  0  0  0  0  0  0  0  0
    1.0061    1.8149   -2.3384 C   0  0  0  0  0  0  0  0  0  0  0  0
    0.8438    2.3376   -3.6117 C   0  0  0  0  0  0  0  0  0  0  0  0
   -0.5806    3.0090   -0.9119 C   0  0  0  0  0  0  0  0  0  0  0  0
   -0.1741    4.4737   -1.0659 C   0  0  0  0  0  0  0  0  0  0  0  0
   -1.1137   -0.3432    6.4839 C   0  0  0  0  0  0  0  0  0  0  0  0
   -1.5684   -1.5032    7.0363 C   0  0  0  0  0  0  0  0  0  0  0  0
   -1.6847   -1.6384    8.5094 C   0  0  0  0  0  0  0  0  0  0  0  0
   -1.6151   -0.7560    9.3325 O   0  0  0  0  0  0  0  0  0  0  0  0
   -1.8481   -3.0923    8.7472 C   0  0  0  0  0  0  0  0  0  0  0  0
   -1.8919   -3.7705    9.9495 C   0  0  0  0  0  0  0  0  0  0  0  0
   -2.0275   -5.1490    9.9067 C   0  0  0  0  0  0  0  0  0  0  0  0
   -2.0730   -5.8456   11.0486 F   0  0  0  0  0  0  0  0  0  0  0  0
   -2.1144   -5.8207    8.6864 C   0  0  0  0  0  0  0  0  0  0  0  0
   -2.2291   -7.1530    8.6780 F   0  0  0  0  0  0  0  0  0  0  0  0
   -2.0828   -5.1404    7.4783 C   0  0  0  0  0  0  0  0  0  0  0  0
   -1.9499   -3.7622    7.5145 C   0  0  0  0  0  0  0  0  0  0  0  0
   -1.9328   -2.7708    6.4401 C   0  0  0  0  0  0  0  0  0  0  0  0
   -2.4587   -2.9546    5.1889 C   0  0  0  0  0  0  0  0  0  0  0  0
   -2.7283   -1.8931    4.2988 C   0  0  0  0  0  0  0  0  0  0  0  0
   -3.0249   -1.0516    3.5765 N   0  0  0  0  0  0  0  0  0  0  0  0
   -2.8835   -4.2024    4.6895 C   0  0  0  0  0  0  0  0  0  0  0  0
   -3.2257   -5.1977    4.2324 N   0  0  0  0  0  0  0  0  0  0  0  0
    2.2625    0.9477   -6.3954 H   0  0  0  0  0  0  0  0  0  0  0  0
   -2.1374    5.3232   -7.4495 H   0  0  0  0  0  0  0  0  0  0  0  0
    0.3817    3.0160  -11.0791 H   0  0  0  0  0  0  0  0  0  0  0  0
    3.7086   -4.5636    1.0376 H   0  0  0  0  0  0  0  0  0  0  0  0
    4.3562   -4.1179   -0.5722 H   0  0  0  0  0  0  0  0  0  0  0  0
    1.5931   -5.3282   -0.0395 H   0  0  0  0  0  0  0  0  0  0  0  0
    2.2294   -4.8735   -1.6272 H   0  0  0  0  0  0  0  0  0  0  0  0
    2.9753   -6.1946   -0.7199 H   0  0  0  0  0  0  0  0  0  0  0  0
   -1.0157    1.9489    4.8816 H   0  0  0  0  0  0  0  0  0  0  0  0
    0.5633    3.5354    1.2718 H   0  0  0  0  0  0  0  0  0  0  0  0
   -0.6347    3.5368    2.5878 H   0  0  0  0  0  0  0  0  0  0  0  0
    1.2270    3.1193    4.2185 H   0  0  0  0  0  0  0  0  0  0  0  0
    1.5304    4.5753    3.2677 H   0  0  0  0  0  0  0  0  0  0  0  0
    2.3813    3.0751    2.8846 H   0  0  0  0  0  0  0  0  0  0  0  0
    0.2714    3.2056   -3.8773 H   0  0  0  0  0  0  0  0  0  0  0  0
   -1.3208    2.7705   -1.6843 H   0  0  0  0  0  0  0  0  0  0  0  0
   -1.0439    2.8204    0.0566 H   0  0  0  0  0  0  0  0  0  0  0  0
    0.1359    4.6764   -2.0867 H   0  0  0  0  0  0  0  0  0  0  0  0
   -1.0212    5.1122   -0.8314 H   0  0  0  0  0  0  0  0  0  0  0  0
    0.6520    4.7354   -0.4082 H   0  0  0  0  0  0  0  0  0  0  0  0
   -1.1169    0.5202    7.1424 H   0  0  0  0  0  0  0  0  0  0  0  0
   -1.8251   -3.2518   10.8925 H   0  0  0  0  0  0  0  0  0  0  0  0
   -2.1511   -5.6986    6.5587 H   0  0  0  0  0  0  0  0  0  0  0  0
  1  2  2  0  0  0  0
  2  3  1  0  0  0  0
  3  4  2  0  0  0  0
  3  5  1  0  0  0  0
  5  6  2  0  0  0  0
  6  7  1  0  0  0  0
  7  8  1  0  0  0  0
  7  9  2  0  0  0  0
  9 10  1  0  0  0  0
  9 11  1  0  0  0  0
 11 12  2  0  0  0  0
 12 13  1  0  0  0  0
 13 14  2  0  0  0  0
 14 15  1  0  0  0  0
 15 16  3  0  0  0  0
 14 17  1  0  0  0  0
 17 18  3  0  0  0  0
  1 19  1  0  0  0  0
 19 20  1  0  0  0  0
 20 21  1  0  0  0  0
 21 22  1  0  0  0  0
 22 23  1  0  0  0  0
 23 24  2  0  0  0  0
 24 25  1  0  0  0  0
 25 26  1  0  0  0  0
 26 27  1  0  0  0  0
 25 28  1  0  0  0  0
 28 29  2  0  0  0  0
 29 30  1  0  0  0  0
 30 31  1  0  0  0  0
 31 32  1  0  0  0  0
 32 33  1  0  0  0  0
 33 34  2  0  0  0  0
 34 35  1  0  0  0  0
 35 36  1  0  0  0  0
 36 37  1  0  0  0  0
 37 38  1  0  0  0  0
 36 39  1  0  0  0  0
 39 40  1  0  0  0  0
 40 41  1  0  0  0  0
 41 42  1  0  0  0  0
 42 43  1  0  0  0  0
 41 44  1  0  0  0  0
 44 45  1  0  0  0  0
 33 46  1  0  0  0  0
 46 47  2  0  0  0  0
 47 48  1  0  0  0  0
 48 49  2  0  0  0  0
 48 50  1  0  0  0  0
 50 51  2  0  0  0  0
 51 52  1  0  0  0  0
 52 53  1  0  0  0  0
 52 54  2  0  0  0  0
 54 55  1  0  0  0  0
 54 56  1  0  0  0  0
 56 57  2  0  0  0  0
 57 58  1  0  0  0  0
 58 59  2  0  0  0  0
 59 60  1  0  0  0  0
 60 61  3  0  0  0  0
 59 62  1  0  0  0  0
 62 63  3  0  0  0  0
 13  2  1  0  0  0  0
 43 19  2  0  0  0  0
 58 47  1  0  0  0  0
 12  5  1  0  0  0  0
 42 21  2  0  0  0  0
 57 50  1  0  0  0  0
 40 22  2  0  0  0  0
 29 23  1  0  0  0  0
 39 30  2  0  0  0  0
 35 31  2  0  0  0  0
  1 64  1  0  0  0  0
  6 65  1  0  0  0  0
 11 66  1  0  0  0  0
 26 67  1  0  0  0  0
 26 68  1  0  0  0  0
 27 69  1  0  0  0  0
 27 70  1  0  0  0  0
 27 71  1  0  0  0  0
 34 72  1  0  0  0  0
 37 73  1  0  0  0  0
 37 74  1  0  0  0  0
 38 75  1  0  0  0  0
 38 76  1  0  0  0  0
 38 77  1  0  0  0  0
 43 78  1  0  0  0  0
 44 79  1  0  0  0  0
 44 80  1  0  0  0  0
 45 81  1  0  0  0  0
 45 82  1  0  0  0  0
 45 83  1  0  0  0  0
 46 84  1  0  0  0  0
 51 85  1  0  0  0  0
 56 86  1  0  0  0  0
M  END
