126

C          2.02720        8.06850        1.62950
C          1.73730        8.67570        2.82940
C          1.00900        8.07590        3.94710
O          0.51470        6.96400        4.01000
C          0.98750        9.09720        5.01450
C          0.42950        9.00960        6.27410
C          0.54780       10.11090        7.10650
F          0.02340       10.07060        8.33700
C          1.20910       11.26040        6.67370
F          1.30980       12.30830        7.49810
C          1.76850       11.34750        5.40690
C          1.65500       10.25000        4.56820
C          2.12730       10.02110        3.20110
C          2.80660       10.93780        2.44070
C          3.25890       10.74160        1.11890
N          3.65550       10.66310        0.04340
C          3.14980       12.23340        2.88360
N          3.45940       13.29790        3.18010
C          1.73220        6.78990        1.15160
C          2.13320        6.34220       -0.12190
C          2.85380        7.15300       -1.14810
C          1.87370        8.02180       -1.94210
C          1.72440        5.03610       -0.34780
S          1.93230        3.95350       -1.71130
C          1.08380        2.73270       -0.83180
C          0.65470        1.40780       -1.00840
C          0.70260        0.54680       -2.13440
C          0.01610       -0.69710       -2.06290
N         -0.13710       -1.43750       -3.15710
C          0.43720       -1.04600       -4.28110
C          0.09600       -1.82390       -5.47700
C         -0.08410       -1.21390       -6.71730
C         -0.41860       -1.97010       -7.82310
C         -0.58450       -3.34320       -7.69240
C         -0.90440       -4.18260       -8.89610
F          0.20480       -4.73530       -9.42980
F         -1.48740       -3.48840       -9.88320
F         -1.72580       -5.20560       -8.61040
C         -0.43040       -3.95970       -6.45650
C         -0.09890       -3.19890       -5.35390
C          1.30380        0.08220       -4.28880
C          2.18870        0.43160       -5.40530
C          2.42500        1.77840       -5.67930
C          3.26390        2.14430       -6.71160
C          3.88500        1.15980       -7.47180
C          4.77450        1.58520       -8.60480
F          4.07130        2.13430       -9.61560
F          5.66760        2.51810       -8.22900
F          5.47740        0.57830       -9.13850
C          3.67860       -0.18450       -7.19250
C          2.83560       -0.54550       -6.15950
N          1.36910        0.87850       -3.23620
C         -0.48950       -1.11380       -0.80460
C         -1.05710       -2.32890       -0.38570
S         -1.54500       -3.83910       -1.06520
C         -2.02340       -4.37520        0.53010
C         -2.59380       -5.57390        0.97520
C         -2.77650       -6.72690        0.04870
C         -2.10460       -8.00900        0.53620
C         -2.82040       -5.53240        2.35120
S         -2.24060       -4.01890        3.07260
C         -1.78690       -3.41830        1.52720
C         -1.24000       -2.24520        1.00170
N         -0.82900       -1.01590        1.45740
C         -0.40150       -0.30100        0.35680
C          0.01980        1.03530        0.20770
N         -0.00240        2.11280        1.06710
C          0.65680        3.14250        0.43970
C          1.01810        4.46130        0.72480
S          0.84610        5.55110        2.04660
C         -0.98370        2.38750        2.09840
C         -2.07410        3.32730        1.58570
C         -0.38600       -0.84600        2.82750
C          0.74510       -1.81570        3.16760
C         -3.33180       -6.45090        3.28800
C         -4.29940       -7.41050        3.13540
C         -5.32040       -7.43780        2.07380
O         -5.42760       -6.69330        1.12080
C         -6.27910       -8.49230        2.47330
C         -7.42760       -8.89400        1.82080
C         -8.18430       -9.89490        2.40900
F         -9.30260      -10.31880        1.80930
C         -7.79280      -10.46340        3.62170
F         -8.54690      -11.42210        4.17000
C         -6.64070      -10.05750        4.27870
C         -5.87640       -9.06020        3.69350
C         -4.62870       -8.42640        4.11530
C         -3.86480       -8.80040        5.18910
C         -2.60150       -8.25650        5.50640
N         -1.55970       -7.87800        5.80600
C         -4.22880       -9.81220        6.10300
N         -4.47680      -10.61890        6.88030
H          2.58610        8.66750        0.92390
H         -0.08020        8.11860        6.60430
H          2.26890       12.25860        5.12340
H          3.60960        7.79040       -0.68750
H          3.35660        6.46700       -1.83270
H          1.13390        7.39970       -2.44050
H          2.41420        8.59180       -2.69190
H          1.35780        8.71920       -1.28670
H          0.02350       -0.14450       -6.81530
H         -0.55860       -1.49890       -8.78360
H         -0.57680       -5.02500       -6.36480
H          0.01390       -3.65590       -4.38350
H          1.94230        2.52620       -5.07020
H          3.44560        3.18550       -6.93030
H          4.17930       -0.94100       -7.77640
H          2.69250       -1.59010       -5.92920
H         -2.35880       -6.44440       -0.92030
H         -3.84790       -6.90050       -0.08760
H         -1.04260       -7.84160        0.70310
H         -2.54560       -8.36080        1.46480
H         -2.21740       -8.78800       -0.21310
H         -0.47560        2.84310        2.95370
H         -1.45260        1.45360        2.40200
H         -2.55490        2.90330        0.70650
H         -1.66340        4.29910        1.32840
H         -2.82250        3.46660        2.36040
H         -0.01610        0.16890        2.95830
H         -1.23640       -1.01710        3.49500
H          1.09180       -1.62470        4.17900
H          0.41040       -2.84720        3.10960
H          1.57770       -1.67780        2.48100
H         -2.93100       -6.32100        4.28780
H         -7.72980       -8.44970        0.88590
H         -6.38440      -10.52310        5.21620
