
  xtb     02022208183D
 energy: -230.577635376888 gnorm: 0.000637636383 xtb: 6.4.1 (unknown)
130146  0     0  0            999 V2000
   -4.0615    8.1784   -0.0889 C   0  0  0  0  0  0  0  0  0  0  0  0
   -5.0550    7.8605   -0.9757 C   0  0  0  0  0  0  0  0  0  0  0  0
   -5.6495    8.9072   -1.8363 C   0  0  0  0  0  0  0  0  0  0  0  0
   -5.5280   10.1057   -1.7294 O   0  0  0  0  0  0  0  0  0  0  0  0
   -6.3764    8.1622   -2.8954 C   0  0  0  0  0  0  0  0  0  0  0  0
   -7.0208    8.6560   -4.0118 C   0  0  0  0  0  0  0  0  0  0  0  0
   -7.6095    7.7425   -4.8726 C   0  0  0  0  0  0  0  0  0  0  0  0
   -8.2408    8.1786   -5.9702 F   0  0  0  0  0  0  0  0  0  0  0  0
   -7.5507    6.3739   -4.6104 C   0  0  0  0  0  0  0  0  0  0  0  0
   -8.1187    5.5158   -5.4664 F   0  0  0  0  0  0  0  0  0  0  0  0
   -6.9138    5.8763   -3.4831 C   0  0  0  0  0  0  0  0  0  0  0  0
   -6.3206    6.7840   -2.6221 C   0  0  0  0  0  0  0  0  0  0  0  0
   -5.6235    6.5899   -1.3515 C   0  0  0  0  0  0  0  0  0  0  0  0
   -5.7391    5.4863   -0.5432 C   0  0  0  0  0  0  0  0  0  0  0  0
   -5.3582    5.5001    0.8144 C   0  0  0  0  0  0  0  0  0  0  0  0
   -5.1110    5.5022    1.9359 N   0  0  0  0  0  0  0  0  0  0  0  0
   -6.3078    4.2642   -0.9462 C   0  0  0  0  0  0  0  0  0  0  0  0
   -6.7183    3.2313   -1.2349 N   0  0  0  0  0  0  0  0  0  0  0  0
   -3.0777    7.3404    0.4616 C   0  0  0  0  0  0  0  0  0  0  0  0
   -2.2527    7.6612    1.5424 C   0  0  0  0  0  0  0  0  0  0  0  0
   -2.4741    8.8612    2.3551 C   0  0  0  0  0  0  0  0  0  0  0  0
   -3.7132    8.9932    2.9790 C   0  0  0  0  0  0  0  0  0  0  0  0
   -3.9829   10.0864    3.7788 C   0  0  0  0  0  0  0  0  0  0  0  0
   -3.0173   11.0635    3.9501 C   0  0  0  0  0  0  0  0  0  0  0  0
   -1.7938   10.9429    3.3158 C   0  0  0  0  0  0  0  0  0  0  0  0
   -1.4975    9.8489    2.5143 C   0  0  0  0  0  0  0  0  0  0  0  0
   -0.1955    9.7962    1.7668 C   0  0  0  0  0  0  0  0  0  0  0  0
   -0.4007   10.1583    0.2942 C   0  0  0  0  0  0  0  0  0  0  0  0
   -1.3308    6.6449    1.8061 C   0  0  0  0  0  0  0  0  0  0  0  0
   -0.1255    6.4199    3.0565 S   0  0  0  0  0  0  0  0  0  0  0  0
    0.2305    4.8622    2.3978 C   0  0  0  0  0  0  0  0  0  0  0  0
    1.0719    3.7712    2.6420 C   0  0  0  0  0  0  0  0  0  0  0  0
    2.0952    3.6157    3.6020 C   0  0  0  0  0  0  0  0  0  0  0  0
    2.8598    2.4073    3.6020 C   0  0  0  0  0  0  0  0  0  0  0  0
    3.8040    2.4047    4.5300 N   0  0  0  0  0  0  0  0  0  0  0  0
    3.7326    3.8064    5.3360 S   0  0  0  0  0  0  0  0  0  0  0  0
    2.4949    4.4708    4.5302 N   0  0  0  0  0  0  0  0  0  0  0  0
    2.5222    1.3899    2.6834 C   0  0  0  0  0  0  0  0  0  0  0  0
    3.0500    0.1023    2.5364 C   0  0  0  0  0  0  0  0  0  0  0  0
    4.2730   -0.9048    3.2350 S   0  0  0  0  0  0  0  0  0  0  0  0
    3.7645   -2.1977    2.1647 C   0  0  0  0  0  0  0  0  0  0  0  0
    4.1875   -3.5122    2.0122 C   0  0  0  0  0  0  0  0  0  0  0  0
    5.2836   -4.1170    2.7852 C   0  0  0  0  0  0  0  0  0  0  0  0
    5.0423   -5.0620    3.7850 C   0  0  0  0  0  0  0  0  0  0  0  0
    3.6459   -5.4469    4.1838 C   0  0  0  0  0  0  0  0  0  0  0  0
    3.0930   -4.4438    5.1988 C   0  0  0  0  0  0  0  0  0  0  0  0
    6.1270   -5.5880    4.4730 C   0  0  0  0  0  0  0  0  0  0  0  0
    7.4201   -5.1952    4.1835 C   0  0  0  0  0  0  0  0  0  0  0  0
    7.6505   -4.2474    3.2015 C   0  0  0  0  0  0  0  0  0  0  0  0
    6.5842   -3.7084    2.5084 C   0  0  0  0  0  0  0  0  0  0  0  0
    3.4583   -4.1806    1.0150 C   0  0  0  0  0  0  0  0  0  0  0  0
    2.2299   -3.1516    0.2862 S   0  0  0  0  0  0  0  0  0  0  0  0
    2.7012   -1.8486    1.3147 C   0  0  0  0  0  0  0  0  0  0  0  0
    2.3036   -0.5261    1.5341 C   0  0  0  0  0  0  0  0  0  0  0  0
    1.3436    0.3240    1.0627 N   0  0  0  0  0  0  0  0  0  0  0  0
    1.4599    1.5269    1.7343 C   0  0  0  0  0  0  0  0  0  0  0  0
    0.7626    2.7671    1.6717 C   0  0  0  0  0  0  0  0  0  0  0  0
   -0.2137    3.2800    0.8363 N   0  0  0  0  0  0  0  0  0  0  0  0
   -0.5429    4.5306    1.2794 C   0  0  0  0  0  0  0  0  0  0  0  0
   -1.4262    5.5510    0.9306 C   0  0  0  0  0  0  0  0  0  0  0  0
   -2.6462    5.7928   -0.2626 S   0  0  0  0  0  0  0  0  0  0  0  0
   -0.8939    2.7754   -0.3338 C   0  0  0  0  0  0  0  0  0  0  0  0
   -2.2698    2.2076    0.0169 C   0  0  0  0  0  0  0  0  0  0  0  0
    0.4176   -0.1805    0.0755 C   0  0  0  0  0  0  0  0  0  0  0  0
    1.0023   -0.1079   -1.3351 C   0  0  0  0  0  0  0  0  0  0  0  0
    3.7212   -5.5157    0.6801 C   0  0  0  0  0  0  0  0  0  0  0  0
    3.1256   -6.3333   -0.2450 C   0  0  0  0  0  0  0  0  0  0  0  0
    2.0740   -5.9443   -1.1886 C   0  0  0  0  0  0  0  0  0  0  0  0
    1.5145   -4.8622   -1.2717 O   0  0  0  0  0  0  0  0  0  0  0  0
    1.8237   -7.1179   -2.0396 C   0  0  0  0  0  0  0  0  0  0  0  0
    0.9172   -7.2126   -3.0927 C   0  0  0  0  0  0  0  0  0  0  0  0
    0.9019   -8.4410   -3.7082 C   0  0  0  0  0  0  0  0  0  0  0  0
    1.7338   -9.4957   -3.3098 C   0  0  0  0  0  0  0  0  0  0  0  0
    2.6352   -9.4137   -2.2749 C   0  0  0  0  0  0  0  0  0  0  0  0
    2.6612   -8.1751   -1.6285 C   0  0  0  0  0  0  0  0  0  0  0  0
    3.4604   -7.7223   -0.4905 C   0  0  0  0  0  0  0  0  0  0  0  0
    4.3267   -8.5029    0.2309 C   0  0  0  0  0  0  0  0  0  0  0  0
    4.6083   -9.8556   -0.0550 C   0  0  0  0  0  0  0  0  0  0  0  0
    4.8901  -10.9559   -0.2236 N   0  0  0  0  0  0  0  0  0  0  0  0
    5.0432   -8.1038    1.3790 C   0  0  0  0  0  0  0  0  0  0  0  0
    5.6494   -7.8808    2.3293 N   0  0  0  0  0  0  0  0  0  0  0  0
    1.1822  -10.4315   -4.3556 C   0  0  0  0  0  0  0  0  0  0  0  0
    0.1720  -11.5106   -3.8935 C   0  0  0  0  0  0  0  0  0  0  0  0
   -0.5044  -10.9657   -2.6600 C   0  0  0  0  0  0  0  0  0  0  0  0
   -1.2931   -9.9685   -3.0377 C   0  0  0  0  0  0  0  0  0  0  0  0
   -1.1635   -9.8203   -4.5335 C   0  0  0  0  0  0  0  0  0  0  0  0
   -0.9388  -11.2876   -4.9322 C   0  0  0  0  0  0  0  0  0  0  0  0
    0.2547   -9.2565   -4.7994 C   0  0  0  0  0  0  0  0  0  0  0  0
   -3.9713    9.2324    0.1566 H   0  0  0  0  0  0  0  0  0  0  0  0
   -7.0694    9.7142   -4.2131 H   0  0  0  0  0  0  0  0  0  0  0  0
   -6.8915    4.8112   -3.3182 H   0  0  0  0  0  0  0  0  0  0  0  0
   -4.4506    8.2145    2.8478 H   0  0  0  0  0  0  0  0  0  0  0  0
   -4.9426   10.1746    4.2644 H   0  0  0  0  0  0  0  0  0  0  0  0
   -3.2186   11.9223    4.5726 H   0  0  0  0  0  0  0  0  0  0  0  0
   -1.0493   11.7160    3.4413 H   0  0  0  0  0  0  0  0  0  0  0  0
    0.2464    8.8018    1.8349 H   0  0  0  0  0  0  0  0  0  0  0  0
    0.5040   10.5038    2.2145 H   0  0  0  0  0  0  0  0  0  0  0  0
   -0.8470   11.1463    0.2056 H   0  0  0  0  0  0  0  0  0  0  0  0
   -1.0597    9.4415   -0.1909 H   0  0  0  0  0  0  0  0  0  0  0  0
    0.5518   10.1600   -0.2301 H   0  0  0  0  0  0  0  0  0  0  0  0
    3.6608   -6.4432    4.6285 H   0  0  0  0  0  0  0  0  0  0  0  0
    2.9867   -5.4765    3.3145 H   0  0  0  0  0  0  0  0  0  0  0  0
    2.0867   -4.7246    5.5011 H   0  0  0  0  0  0  0  0  0  0  0  0
    3.0602   -3.4451    4.7687 H   0  0  0  0  0  0  0  0  0  0  0  0
    3.7262   -4.4125    6.0824 H   0  0  0  0  0  0  0  0  0  0  0  0
    5.9498   -6.3239    5.2428 H   0  0  0  0  0  0  0  0  0  0  0  0
    8.2481   -5.6263    4.7254 H   0  0  0  0  0  0  0  0  0  0  0  0
    8.6566   -3.9293    2.9732 H   0  0  0  0  0  0  0  0  0  0  0  0
    6.7512   -2.9715    1.7358 H   0  0  0  0  0  0  0  0  0  0  0  0
   -1.0291    3.6239   -1.0133 H   0  0  0  0  0  0  0  0  0  0  0  0
   -0.2690    2.0482   -0.8434 H   0  0  0  0  0  0  0  0  0  0  0  0
   -2.9165    2.9958    0.3943 H   0  0  0  0  0  0  0  0  0  0  0  0
   -2.7325    1.7806   -0.8683 H   0  0  0  0  0  0  0  0  0  0  0  0
   -2.2011    1.4407    0.7856 H   0  0  0  0  0  0  0  0  0  0  0  0
   -0.5309    0.3417    0.1547 H   0  0  0  0  0  0  0  0  0  0  0  0
    0.2352   -1.2323    0.3175 H   0  0  0  0  0  0  0  0  0  0  0  0
    1.8448   -0.7888   -1.4210 H   0  0  0  0  0  0  0  0  0  0  0  0
    0.2505   -0.4033   -2.0614 H   0  0  0  0  0  0  0  0  0  0  0  0
    1.3528    0.8950   -1.5724 H   0  0  0  0  0  0  0  0  0  0  0  0
    4.5319   -5.9396    1.2617 H   0  0  0  0  0  0  0  0  0  0  0  0
    0.2981   -6.3731   -3.3682 H   0  0  0  0  0  0  0  0  0  0  0  0
    3.2699  -10.2344   -1.9860 H   0  0  0  0  0  0  0  0  0  0  0  0
    1.8992  -10.8166   -5.0778 H   0  0  0  0  0  0  0  0  0  0  0  0
    0.5875  -12.5112   -3.8102 H   0  0  0  0  0  0  0  0  0  0  0  0
   -0.3025  -11.3134   -1.6638 H   0  0  0  0  0  0  0  0  0  0  0  0
   -1.8822   -9.3161   -2.4200 H   0  0  0  0  0  0  0  0  0  0  0  0
   -1.9643   -9.2825   -5.0343 H   0  0  0  0  0  0  0  0  0  0  0  0
   -0.6025  -11.4114   -5.9607 H   0  0  0  0  0  0  0  0  0  0  0  0
   -1.8136  -11.9110   -4.7536 H   0  0  0  0  0  0  0  0  0  0  0  0
    0.3659   -8.8736   -5.8120 H   0  0  0  0  0  0  0  0  0  0  0  0
  1  2  2  0  0  0  0
  2  3  1  0  0  0  0
  3  4  2  0  0  0  0
  3  5  1  0  0  0  0
  5  6  2  0  0  0  0
  6  7  1  0  0  0  0
  7  8  1  0  0  0  0
  7  9  2  0  0  0  0
  9 10  1  0  0  0  0
  9 11  1  0  0  0  0
 11 12  2  0  0  0  0
 12 13  1  0  0  0  0
 13 14  2  0  0  0  0
 14 15  1  0  0  0  0
 15 16  3  0  0  0  0
 14 17  1  0  0  0  0
 17 18  3  0  0  0  0
  1 19  1  0  0  0  0
 19 20  2  0  0  0  0
 20 21  1  0  0  0  0
 21 22  2  0  0  0  0
 22 23  1  0  0  0  0
 23 24  2  0  0  0  0
 24 25  1  0  0  0  0
 25 26  2  0  0  0  0
 26 27  1  0  0  0  0
 27 28  1  0  0  0  0
 20 29  1  0  0  0  0
 29 30  1  0  0  0  0
 30 31  1  0  0  0  0
 31 32  1  0  0  0  0
 32 33  1  0  0  0  0
 33 34  1  0  0  0  0
 34 35  2  0  0  0  0
 35 36  1  0  0  0  0
 36 37  1  0  0  0  0
 34 38  1  0  0  0  0
 38 39  1  0  0  0  0
 39 40  1  0  0  0  0
 40 41  1  0  0  0  0
 41 42  1  0  0  0  0
 42 43  1  0  0  0  0
 43 44  2  0  0  0  0
 44 45  1  0  0  0  0
 45 46  1  0  0  0  0
 44 47  1  0  0  0  0
 47 48  2  0  0  0  0
 48 49  1  0  0  0  0
 49 50  2  0  0  0  0
 42 51  2  0  0  0  0
 51 52  1  0  0  0  0
 52 53  1  0  0  0  0
 53 54  1  0  0  0  0
 54 55  1  0  0  0  0
 55 56  1  0  0  0  0
 56 57  1  0  0  0  0
 57 58  1  0  0  0  0
 58 59  1  0  0  0  0
 59 60  1  0  0  0  0
 60 61  1  0  0  0  0
 58 62  1  0  0  0  0
 62 63  1  0  0  0  0
 55 64  1  0  0  0  0
 64 65  1  0  0  0  0
 51 66  1  0  0  0  0
 66 67  2  0  0  0  0
 67 68  1  0  0  0  0
 68 69  2  0  0  0  0
 68 70  1  0  0  0  0
 70 71  2  0  0  0  0
 71 72  1  0  0  0  0
 72 73  2  0  0  0  0
 73 74  1  0  0  0  0
 74 75  2  0  0  0  0
 75 76  1  0  0  0  0
 76 77  2  0  0  0  0
 77 78  1  0  0  0  0
 78 79  3  0  0  0  0
 77 80  1  0  0  0  0
 80 81  3  0  0  0  0
 73 82  1  0  0  0  0
 82 83  1  0  0  0  0
 83 84  1  0  0  0  0
 84 85  2  0  0  0  0
 85 86  1  0  0  0  0
 86 87  1  0  0  0  0
 86 88  1  0  0  0  0
 13  2  1  0  0  0  0
 61 19  1  0  0  0  0
 76 67  1  0  0  0  0
 88 82  1  0  0  0  0
 12  5  1  0  0  0  0
 26 21  1  0  0  0  0
 60 29  2  0  0  0  0
 75 70  1  0  0  0  0
 87 83  1  0  0  0  0
 59 31  2  0  0  0  0
 88 72  1  0  0  0  0
 57 32  2  0  0  0  0
 37 33  2  0  0  0  0
 56 38  2  0  0  0  0
 54 39  2  0  0  0  0
 53 41  2  0  0  0  0
 50 43  1  0  0  0  0
  1 89  1  0  0  0  0
  6 90  1  0  0  0  0
 11 91  1  0  0  0  0
 22 92  1  0  0  0  0
 23 93  1  0  0  0  0
 24 94  1  0  0  0  0
 25 95  1  0  0  0  0
 27 96  1  0  0  0  0
 27 97  1  0  0  0  0
 28 98  1  0  0  0  0
 28 99  1  0  0  0  0
 28100  1  0  0  0  0
 45101  1  0  0  0  0
 45102  1  0  0  0  0
 46103  1  0  0  0  0
 46104  1  0  0  0  0
 46105  1  0  0  0  0
 47106  1  0  0  0  0
 48107  1  0  0  0  0
 49108  1  0  0  0  0
 50109  1  0  0  0  0
 62110  1  0  0  0  0
 62111  1  0  0  0  0
 63112  1  0  0  0  0
 63113  1  0  0  0  0
 63114  1  0  0  0  0
 64115  1  0  0  0  0
 64116  1  0  0  0  0
 65117  1  0  0  0  0
 65118  1  0  0  0  0
 65119  1  0  0  0  0
 66120  1  0  0  0  0
 71121  1  0  0  0  0
 74122  1  0  0  0  0
 82123  1  0  0  0  0
 83124  1  0  0  0  0
 84125  1  0  0  0  0
 85126  1  0  0  0  0
 86127  1  0  0  0  0
 87128  1  0  0  0  0
 87129  1  0  0  0  0
 88130  1  0  0  0  0
M  END
