
  xtb     02112203473D
 energy: -211.819235954941 gnorm: 0.000503257874 xtb: 6.4.1 (unknown)
125139  0     0  0            999 V2000
    2.3014    9.4557   -0.6730 C   0  0  0  0  0  0  0  0  0  0  0  0
    2.6446   10.0135   -1.8797 C   0  0  0  0  0  0  0  0  0  0  0  0
    2.5424    9.4392   -3.2368 C   0  0  0  0  0  0  0  0  0  0  0  0
    2.3518    8.2919   -3.5854 O   0  0  0  0  0  0  0  0  0  0  0  0
    2.6881   10.5866   -4.1643 C   0  0  0  0  0  0  0  0  0  0  0  0
    2.5906   10.5809   -5.5414 C   0  0  0  0  0  0  0  0  0  0  0  0
    2.7461   11.7893   -6.2008 C   0  0  0  0  0  0  0  0  0  0  0  0
    2.6564   11.8325   -7.5373 F   0  0  0  0  0  0  0  0  0  0  0  0
    2.9916   12.9617   -5.4866 C   0  0  0  0  0  0  0  0  0  0  0  0
    3.1279   14.1171   -6.1495 F   0  0  0  0  0  0  0  0  0  0  0  0
    3.0952   12.9652   -4.1035 C   0  0  0  0  0  0  0  0  0  0  0  0
    2.9415   11.7591   -3.4376 C   0  0  0  0  0  0  0  0  0  0  0  0
    2.9865   11.4195   -2.0171 C   0  0  0  0  0  0  0  0  0  0  0  0
    3.3696   12.2776   -1.0187 C   0  0  0  0  0  0  0  0  0  0  0  0
    3.5316   11.9423    0.3428 C   0  0  0  0  0  0  0  0  0  0  0  0
    3.7111   11.7601    1.4628 N   0  0  0  0  0  0  0  0  0  0  0  0
    3.7053   13.6313   -1.2304 C   0  0  0  0  0  0  0  0  0  0  0  0
    3.9817   14.7406   -1.3351 N   0  0  0  0  0  0  0  0  0  0  0  0
    1.9625    8.1313   -0.2851 C   0  0  0  0  0  0  0  0  0  0  0  0
    1.3047    7.9779    0.9659 C   0  0  0  0  0  0  0  0  0  0  0  0
    0.8926    6.7609    1.4320 C   0  0  0  0  0  0  0  0  0  0  0  0
    1.1495    5.6136    0.6680 C   0  0  0  0  0  0  0  0  0  0  0  0
    0.8974    4.2354    0.7752 C   0  0  0  0  0  0  0  0  0  0  0  0
    1.4291    3.6120   -0.3631 C   0  0  0  0  0  0  0  0  0  0  0  0
    2.0140    4.5297   -1.1777 N   0  0  0  0  0  0  0  0  0  0  0  0
    1.8605    5.7576   -0.5750 C   0  0  0  0  0  0  0  0  0  0  0  0
    2.2610    6.9884   -1.0410 C   0  0  0  0  0  0  0  0  0  0  0  0
    2.7273    4.2621   -2.4004 C   0  0  0  0  0  0  0  0  0  0  0  0
    4.2351    4.2037   -2.1622 C   0  0  0  0  0  0  0  0  0  0  0  0
    1.0997    2.2535   -0.2815 C   0  0  0  0  0  0  0  0  0  0  0  0
    1.2954    1.1935   -1.1878 C   0  0  0  0  0  0  0  0  0  0  0  0
    0.7444   -0.0796   -0.9028 C   0  0  0  0  0  0  0  0  0  0  0  0
    1.0462   -0.8903   -1.9211 N   0  0  0  0  0  0  0  0  0  0  0  0
    1.7300   -0.1304   -2.7443 N   0  0  0  0  0  0  0  0  0  0  0  0
    2.2173   -0.6220   -3.9997 C   0  0  0  0  0  0  0  0  0  0  0  0
    1.1394   -0.5236   -5.0756 C   0  0  0  0  0  0  0  0  0  0  0  0
    1.9086    1.1155   -2.3721 N   0  0  0  0  0  0  0  0  0  0  0  0
    0.0669   -0.2872    0.3138 C   0  0  0  0  0  0  0  0  0  0  0  0
   -0.0690    0.7587    1.2845 C   0  0  0  0  0  0  0  0  0  0  0  0
    0.3833    2.0680    0.9458 C   0  0  0  0  0  0  0  0  0  0  0  0
    0.2654    3.3055    1.5621 N   0  0  0  0  0  0  0  0  0  0  0  0
   -0.4719    3.7701    2.7104 C   0  0  0  0  0  0  0  0  0  0  0  0
    0.4506    4.0523    3.8977 C   0  0  0  0  0  0  0  0  0  0  0  0
   -0.6749    0.2183    2.4098 N   0  0  0  0  0  0  0  0  0  0  0  0
   -0.8937    0.7184    3.7443 C   0  0  0  0  0  0  0  0  0  0  0  0
   -2.3706    1.0316    3.9948 C   0  0  0  0  0  0  0  0  0  0  0  0
   -0.9510   -1.1007    2.1523 C   0  0  0  0  0  0  0  0  0  0  0  0
   -0.5176   -1.4332    0.8655 C   0  0  0  0  0  0  0  0  0  0  0  0
   -0.7785   -2.7444    0.5978 N   0  0  0  0  0  0  0  0  0  0  0  0
   -0.5330   -3.4199   -0.6494 C   0  0  0  0  0  0  0  0  0  0  0  0
   -1.7930   -3.4799   -1.5121 C   0  0  0  0  0  0  0  0  0  0  0  0
   -1.3889   -3.2656    1.7127 C   0  0  0  0  0  0  0  0  0  0  0  0
   -1.5000   -2.2627    2.7357 C   0  0  0  0  0  0  0  0  0  0  0  0
   -2.0837   -2.6054    3.9587 C   0  0  0  0  0  0  0  0  0  0  0  0
   -2.5520   -3.8806    4.1434 C   0  0  0  0  0  0  0  0  0  0  0  0
   -2.4331   -4.8723    3.1464 C   0  0  0  0  0  0  0  0  0  0  0  0
   -1.8548   -4.5468    1.9161 C   0  0  0  0  0  0  0  0  0  0  0  0
   -2.9777   -6.1739    3.3986 C   0  0  0  0  0  0  0  0  0  0  0  0
   -2.6919   -7.3604    2.8041 C   0  0  0  0  0  0  0  0  0  0  0  0
   -3.6727   -8.4773    2.8882 C   0  0  0  0  0  0  0  0  0  0  0  0
   -4.6097   -8.5633    3.6499 O   0  0  0  0  0  0  0  0  0  0  0  0
   -3.2946   -9.4111    1.8090 C   0  0  0  0  0  0  0  0  0  0  0  0
   -4.0005  -10.5311    1.3756 C   0  0  0  0  0  0  0  0  0  0  0  0
   -3.4222  -11.1810    0.3118 C   0  0  0  0  0  0  0  0  0  0  0  0
   -2.2259  -10.7534   -0.2801 C   0  0  0  0  0  0  0  0  0  0  0  0
   -1.5118   -9.6583    0.1436 C   0  0  0  0  0  0  0  0  0  0  0  0
   -2.0852   -8.9819    1.2231 C   0  0  0  0  0  0  0  0  0  0  0  0
   -1.6161   -7.7981    1.9392 C   0  0  0  0  0  0  0  0  0  0  0  0
   -0.3224   -7.3458    1.9643 C   0  0  0  0  0  0  0  0  0  0  0  0
    0.1423   -6.3518    2.8510 C   0  0  0  0  0  0  0  0  0  0  0  0
    0.5953   -5.5855    3.5756 N   0  0  0  0  0  0  0  0  0  0  0  0
    0.7120   -7.8591    1.1582 C   0  0  0  0  0  0  0  0  0  0  0  0
    1.5850   -8.2159    0.5024 N   0  0  0  0  0  0  0  0  0  0  0  0
   -2.2481  -11.8545   -1.3099 C   0  0  0  0  0  0  0  0  0  0  0  0
   -2.6912  -11.4866   -2.7478 C   0  0  0  0  0  0  0  0  0  0  0  0
   -3.6011  -10.2897   -2.6243 C   0  0  0  0  0  0  0  0  0  0  0  0
   -4.7321  -10.6967   -2.0636 C   0  0  0  0  0  0  0  0  0  0  0  0
   -4.6072  -12.1764   -1.7977 C   0  0  0  0  0  0  0  0  0  0  0  0
   -3.7306  -12.5926   -2.9899 C   0  0  0  0  0  0  0  0  0  0  0  0
   -3.5793  -12.3330   -0.6494 C   0  0  0  0  0  0  0  0  0  0  0  0
    2.2188   10.1658    0.1428 H   0  0  0  0  0  0  0  0  0  0  0  0
    2.3980    9.6719   -6.0884 H   0  0  0  0  0  0  0  0  0  0  0  0
    3.2821   13.8985   -3.5986 H   0  0  0  0  0  0  0  0  0  0  0  0
    1.1097    8.8633    1.5528 H   0  0  0  0  0  0  0  0  0  0  0  0
    0.3763    6.6920    2.3776 H   0  0  0  0  0  0  0  0  0  0  0  0
    2.7905    7.0779   -1.9720 H   0  0  0  0  0  0  0  0  0  0  0  0
    2.3796    3.2982   -2.7790 H   0  0  0  0  0  0  0  0  0  0  0  0
    2.4889    5.0473   -3.1231 H   0  0  0  0  0  0  0  0  0  0  0  0
    4.4723    3.3997   -1.4695 H   0  0  0  0  0  0  0  0  0  0  0  0
    4.5954    5.1413   -1.7454 H   0  0  0  0  0  0  0  0  0  0  0  0
    4.7500    4.0178   -3.1003 H   0  0  0  0  0  0  0  0  0  0  0  0
    3.0857   -0.0184   -4.2701 H   0  0  0  0  0  0  0  0  0  0  0  0
    2.5160   -1.6626   -3.8560 H   0  0  0  0  0  0  0  0  0  0  0  0
    0.8385    0.5122   -5.2131 H   0  0  0  0  0  0  0  0  0  0  0  0
    1.5214   -0.9057   -6.0179 H   0  0  0  0  0  0  0  0  0  0  0  0
    0.2689   -1.1073   -4.7861 H   0  0  0  0  0  0  0  0  0  0  0  0
   -1.2524    3.0610    2.9659 H   0  0  0  0  0  0  0  0  0  0  0  0
   -0.9643    4.7040    2.4169 H   0  0  0  0  0  0  0  0  0  0  0  0
   -0.1342    4.3752    4.7550 H   0  0  0  0  0  0  0  0  0  0  0  0
    1.1585    4.8361    3.6412 H   0  0  0  0  0  0  0  0  0  0  0  0
    1.0243    3.1706    4.1758 H   0  0  0  0  0  0  0  0  0  0  0  0
   -0.5793   -0.0701    4.4371 H   0  0  0  0  0  0  0  0  0  0  0  0
   -0.2600    1.5807    3.9286 H   0  0  0  0  0  0  0  0  0  0  0  0
   -2.5000    1.4421    4.9928 H   0  0  0  0  0  0  0  0  0  0  0  0
   -2.7589    1.7432    3.2689 H   0  0  0  0  0  0  0  0  0  0  0  0
   -2.9628    0.1244    3.9094 H   0  0  0  0  0  0  0  0  0  0  0  0
    0.2433   -2.8603   -1.1769 H   0  0  0  0  0  0  0  0  0  0  0  0
   -0.1663   -4.4294   -0.4392 H   0  0  0  0  0  0  0  0  0  0  0  0
   -2.5965   -3.9951   -0.9901 H   0  0  0  0  0  0  0  0  0  0  0  0
   -2.1259   -2.4727   -1.7508 H   0  0  0  0  0  0  0  0  0  0  0  0
   -1.5830   -4.0061   -2.4390 H   0  0  0  0  0  0  0  0  0  0  0  0
   -2.1712   -1.8807    4.7537 H   0  0  0  0  0  0  0  0  0  0  0  0
   -3.0030   -4.1539    5.0854 H   0  0  0  0  0  0  0  0  0  0  0  0
   -1.8146   -5.2792    1.1245 H   0  0  0  0  0  0  0  0  0  0  0  0
   -3.7935   -6.2147    4.1146 H   0  0  0  0  0  0  0  0  0  0  0  0
   -4.9189  -10.8283    1.8573 H   0  0  0  0  0  0  0  0  0  0  0  0
   -0.5957   -9.3336   -0.3223 H   0  0  0  0  0  0  0  0  0  0  0  0
   -1.3993  -12.5352   -1.2990 H   0  0  0  0  0  0  0  0  0  0  0  0
   -1.8770  -11.3988   -3.4622 H   0  0  0  0  0  0  0  0  0  0  0  0
   -3.3165   -9.2900   -2.8962 H   0  0  0  0  0  0  0  0  0  0  0  0
   -5.5807  -10.1052   -1.7733 H   0  0  0  0  0  0  0  0  0  0  0  0
   -5.5379  -12.7173   -1.6480 H   0  0  0  0  0  0  0  0  0  0  0  0
   -4.2422  -12.4879   -3.9456 H   0  0  0  0  0  0  0  0  0  0  0  0
   -3.3231  -13.5984   -2.8989 H   0  0  0  0  0  0  0  0  0  0  0  0
   -3.5998  -13.3268   -0.2066 H   0  0  0  0  0  0  0  0  0  0  0  0
  1  2  2  0  0  0  0
  2  3  1  0  0  0  0
  3  4  2  0  0  0  0
  3  5  1  0  0  0  0
  5  6  2  0  0  0  0
  6  7  1  0  0  0  0
  7  8  1  0  0  0  0
  7  9  2  0  0  0  0
  9 10  1  0  0  0  0
  9 11  1  0  0  0  0
 11 12  2  0  0  0  0
 12 13  1  0  0  0  0
 13 14  2  0  0  0  0
 14 15  1  0  0  0  0
 15 16  3  0  0  0  0
 14 17  1  0  0  0  0
 17 18  3  0  0  0  0
  1 19  1  0  0  0  0
 19 20  2  0  0  0  0
 20 21  1  0  0  0  0
 21 22  2  0  0  0  0
 22 23  1  0  0  0  0
 23 24  2  0  0  0  0
 24 25  1  0  0  0  0
 25 26  1  0  0  0  0
 26 27  2  0  0  0  0
 25 28  1  0  0  0  0
 28 29  1  0  0  0  0
 24 30  1  0  0  0  0
 30 31  1  0  0  0  0
 31 32  1  0  0  0  0
 32 33  2  0  0  0  0
 33 34  1  0  0  0  0
 34 35  1  0  0  0  0
 35 36  1  0  0  0  0
 34 37  1  0  0  0  0
 32 38  1  0  0  0  0
 38 39  2  0  0  0  0
 39 40  1  0  0  0  0
 40 41  1  0  0  0  0
 41 42  1  0  0  0  0
 42 43  1  0  0  0  0
 39 44  1  0  0  0  0
 44 45  1  0  0  0  0
 45 46  1  0  0  0  0
 44 47  1  0  0  0  0
 47 48  2  0  0  0  0
 48 49  1  0  0  0  0
 49 50  1  0  0  0  0
 50 51  1  0  0  0  0
 49 52  1  0  0  0  0
 52 53  2  0  0  0  0
 53 54  1  0  0  0  0
 54 55  2  0  0  0  0
 55 56  1  0  0  0  0
 56 57  2  0  0  0  0
 56 58  1  0  0  0  0
 58 59  2  0  0  0  0
 59 60  1  0  0  0  0
 60 61  2  0  0  0  0
 60 62  1  0  0  0  0
 62 63  2  0  0  0  0
 63 64  1  0  0  0  0
 64 65  2  0  0  0  0
 65 66  1  0  0  0  0
 66 67  2  0  0  0  0
 67 68  1  0  0  0  0
 68 69  2  0  0  0  0
 69 70  1  0  0  0  0
 70 71  3  0  0  0  0
 69 72  1  0  0  0  0
 72 73  3  0  0  0  0
 65 74  1  0  0  0  0
 74 75  1  0  0  0  0
 75 76  1  0  0  0  0
 76 77  2  0  0  0  0
 77 78  1  0  0  0  0
 78 79  1  0  0  0  0
 78 80  1  0  0  0  0
 13  2  1  0  0  0  0
 27 19  1  0  0  0  0
 40 30  2  0  0  0  0
 53 47  1  0  0  0  0
 68 59  1  0  0  0  0
 80 74  1  0  0  0  0
 12  5  1  0  0  0  0
 26 22  1  0  0  0  0
 37 31  2  0  0  0  0
 48 38  1  0  0  0  0
 57 52  1  0  0  0  0
 67 62  1  0  0  0  0
 79 75  1  0  0  0  0
 41 23  1  0  0  0  0
 80 64  1  0  0  0  0
  1 81  1  0  0  0  0
  6 82  1  0  0  0  0
 11 83  1  0  0  0  0
 20 84  1  0  0  0  0
 21 85  1  0  0  0  0
 27 86  1  0  0  0  0
 28 87  1  0  0  0  0
 28 88  1  0  0  0  0
 29 89  1  0  0  0  0
 29 90  1  0  0  0  0
 29 91  1  0  0  0  0
 35 92  1  0  0  0  0
 35 93  1  0  0  0  0
 36 94  1  0  0  0  0
 36 95  1  0  0  0  0
 36 96  1  0  0  0  0
 42 97  1  0  0  0  0
 42 98  1  0  0  0  0
 43 99  1  0  0  0  0
 43100  1  0  0  0  0
 43101  1  0  0  0  0
 45102  1  0  0  0  0
 45103  1  0  0  0  0
 46104  1  0  0  0  0
 46105  1  0  0  0  0
 46106  1  0  0  0  0
 50107  1  0  0  0  0
 50108  1  0  0  0  0
 51109  1  0  0  0  0
 51110  1  0  0  0  0
 51111  1  0  0  0  0
 54112  1  0  0  0  0
 55113  1  0  0  0  0
 57114  1  0  0  0  0
 58115  1  0  0  0  0
 63116  1  0  0  0  0
 66117  1  0  0  0  0
 74118  1  0  0  0  0
 75119  1  0  0  0  0
 76120  1  0  0  0  0
 77121  1  0  0  0  0
 78122  1  0  0  0  0
 79123  1  0  0  0  0
 79124  1  0  0  0  0
 80125  1  0  0  0  0
M  END
