
  xtb     02012222043D
 energy: -198.115072914144 gnorm: 0.000218820993 xtb: 6.4.1 (unknown)
114125  0     0  0            999 V2000
    4.7561    6.8847    3.5844 C   0  0  0  0  0  0  0  0  0  0  0  0
    5.6866    7.2227    4.5325 C   0  0  0  0  0  0  0  0  0  0  0  0
    6.7236    8.2203    4.1738 C   0  0  0  0  0  0  0  0  0  0  0  0
    6.7392    8.9427    3.2040 O   0  0  0  0  0  0  0  0  0  0  0  0
    7.7583    8.0987    5.2278 C   0  0  0  0  0  0  0  0  0  0  0  0
    8.9908    8.7158    5.3027 C   0  0  0  0  0  0  0  0  0  0  0  0
    9.8020    8.4032    6.3823 C   0  0  0  0  0  0  0  0  0  0  0  0
   11.0085    8.9734    6.4915 F   0  0  0  0  0  0  0  0  0  0  0  0
    9.3773    7.4970    7.3537 C   0  0  0  0  0  0  0  0  0  0  0  0
   10.1880    7.2028    8.3768 F   0  0  0  0  0  0  0  0  0  0  0  0
    8.1339    6.8852    7.2851 C   0  0  0  0  0  0  0  0  0  0  0  0
    7.3191    7.1924    6.2082 C   0  0  0  0  0  0  0  0  0  0  0  0
    5.9685    6.7424    5.8609 C   0  0  0  0  0  0  0  0  0  0  0  0
    5.0744    6.1926    6.7456 C   0  0  0  0  0  0  0  0  0  0  0  0
    3.7046    6.0236    6.4642 C   0  0  0  0  0  0  0  0  0  0  0  0
    2.5782    5.8896    6.2875 N   0  0  0  0  0  0  0  0  0  0  0  0
    5.4029    5.8023    8.0590 C   0  0  0  0  0  0  0  0  0  0  0  0
    5.6221    5.4390    9.1256 N   0  0  0  0  0  0  0  0  0  0  0  0
    3.9595    5.7381    3.4601 C   0  0  0  0  0  0  0  0  0  0  0  0
    2.7136    5.7286    2.2160 S   0  0  0  0  0  0  0  0  0  0  0  0
    2.3202    4.1139    2.5979 C   0  0  0  0  0  0  0  0  0  0  0  0
    1.4193    3.1225    2.1102 C   0  0  0  0  0  0  0  0  0  0  0  0
    1.6551    1.9462    2.8601 C   0  0  0  0  0  0  0  0  0  0  0  0
    2.7189    2.1795    3.9097 C   0  0  0  0  0  0  0  0  0  0  0  0
    3.1184    3.5948    3.6182 C   0  0  0  0  0  0  0  0  0  0  0  0
    4.0368    4.5029    4.1062 C   0  0  0  0  0  0  0  0  0  0  0  0
    2.1774    2.0254    5.3341 C   0  0  0  0  0  0  0  0  0  0  0  0
    0.9579    0.7942    2.5860 C   0  0  0  0  0  0  0  0  0  0  0  0
    0.0526    0.8221    1.5253 C   0  0  0  0  0  0  0  0  0  0  0  0
   -0.7577   -0.2082    0.9561 C   0  0  0  0  0  0  0  0  0  0  0  0
   -1.4614    0.2747   -0.1093 C   0  0  0  0  0  0  0  0  0  0  0  0
   -1.1902    1.7397   -0.3348 C   0  0  0  0  0  0  0  0  0  0  0  0
   -2.4190    2.6246   -0.0397 C   0  0  0  0  0  0  0  0  0  0  0  0
   -3.6160    2.4061   -0.9542 C   0  0  0  0  0  0  0  0  0  0  0  0
   -0.6104    1.9108   -1.7545 C   0  0  0  0  0  0  0  0  0  0  0  0
   -0.2114    3.3235   -2.1607 C   0  0  0  0  0  0  0  0  0  0  0  0
   -0.1665    1.9974    0.7605 C   0  0  0  0  0  0  0  0  0  0  0  0
    0.4866    3.1650    1.0743 C   0  0  0  0  0  0  0  0  0  0  0  0
   -2.1347   -0.8076   -0.7693 C   0  0  0  0  0  0  0  0  0  0  0  0
   -1.8546   -1.9891   -0.0307 C   0  0  0  0  0  0  0  0  0  0  0  0
   -1.0206   -1.6673    1.1933 C   0  0  0  0  0  0  0  0  0  0  0  0
    0.2596   -2.5113    1.2608 C   0  0  0  0  0  0  0  0  0  0  0  0
    1.1924   -2.2423    0.0855 C   0  0  0  0  0  0  0  0  0  0  0  0
   -1.8523   -1.7756    2.4944 C   0  0  0  0  0  0  0  0  0  0  0  0
   -2.3704   -3.1683    2.8262 C   0  0  0  0  0  0  0  0  0  0  0  0
   -2.2585   -3.2211   -0.4844 C   0  0  0  0  0  0  0  0  0  0  0  0
   -2.9597   -3.2665   -1.6886 C   0  0  0  0  0  0  0  0  0  0  0  0
   -3.4366   -4.3699   -2.4552 C   0  0  0  0  0  0  0  0  0  0  0  0
   -4.0329   -3.9252   -3.6379 C   0  0  0  0  0  0  0  0  0  0  0  0
   -3.9941   -2.4270   -3.6986 C   0  0  0  0  0  0  0  0  0  0  0  0
   -3.2668   -2.0924   -2.4150 C   0  0  0  0  0  0  0  0  0  0  0  0
   -2.8591   -0.8603   -1.9608 C   0  0  0  0  0  0  0  0  0  0  0  0
   -3.2760   -1.9109   -4.9470 C   0  0  0  0  0  0  0  0  0  0  0  0
   -4.4538   -4.9501   -4.4615 C   0  0  0  0  0  0  0  0  0  0  0  0
   -4.1869   -6.2079   -3.9209 C   0  0  0  0  0  0  0  0  0  0  0  0
   -3.4151   -6.0699   -2.3330 S   0  0  0  0  0  0  0  0  0  0  0  0
   -4.3991   -7.5132   -4.3840 C   0  0  0  0  0  0  0  0  0  0  0  0
   -4.8312   -7.9964   -5.5965 C   0  0  0  0  0  0  0  0  0  0  0  0
   -5.1069   -7.2482   -6.8380 C   0  0  0  0  0  0  0  0  0  0  0  0
   -5.1451   -6.0489   -7.0239 O   0  0  0  0  0  0  0  0  0  0  0  0
   -5.3273   -8.2757   -7.8813 C   0  0  0  0  0  0  0  0  0  0  0  0
   -5.5735   -8.0796   -9.2247 C   0  0  0  0  0  0  0  0  0  0  0  0
   -5.7401   -9.1973  -10.0330 C   0  0  0  0  0  0  0  0  0  0  0  0
   -6.0462   -9.0269  -11.7171 Cl  0  0  0  0  0  0  0  0  0  0  0  0
   -5.6545  -10.4700   -9.4644 C   0  0  0  0  0  0  0  0  0  0  0  0
   -5.8108  -11.5435  -10.2490 F   0  0  0  0  0  0  0  0  0  0  0  0
   -5.4109  -10.6725   -8.1148 C   0  0  0  0  0  0  0  0  0  0  0  0
   -5.2448   -9.5553   -7.3109 C   0  0  0  0  0  0  0  0  0  0  0  0
   -4.9804   -9.4132   -5.8806 C   0  0  0  0  0  0  0  0  0  0  0  0
   -4.9364  -10.4554   -4.9903 C   0  0  0  0  0  0  0  0  0  0  0  0
   -4.7611  -10.3583   -3.5933 C   0  0  0  0  0  0  0  0  0  0  0  0
   -4.6411  -10.3811   -2.4510 N   0  0  0  0  0  0  0  0  0  0  0  0
   -5.0943  -11.8097   -5.3553 C   0  0  0  0  0  0  0  0  0  0  0  0
   -5.2077  -12.9297   -5.5798 N   0  0  0  0  0  0  0  0  0  0  0  0
    4.7036    7.5828    2.7536 H   0  0  0  0  0  0  0  0  0  0  0  0
    9.3175    9.4158    4.5505 H   0  0  0  0  0  0  0  0  0  0  0  0
    7.8504    6.1899    8.0584 H   0  0  0  0  0  0  0  0  0  0  0  0
    3.5587    1.4907    3.7681 H   0  0  0  0  0  0  0  0  0  0  0  0
    4.7773    4.2804    4.8529 H   0  0  0  0  0  0  0  0  0  0  0  0
    2.9592    2.2380    6.0587 H   0  0  0  0  0  0  0  0  0  0  0  0
    1.8161    1.0130    5.4942 H   0  0  0  0  0  0  0  0  0  0  0  0
    1.3586    2.7217    5.4980 H   0  0  0  0  0  0  0  0  0  0  0  0
    1.1172   -0.1076    3.1568 H   0  0  0  0  0  0  0  0  0  0  0  0
   -2.1089    3.6691   -0.0909 H   0  0  0  0  0  0  0  0  0  0  0  0
   -2.7231    2.4270    0.9918 H   0  0  0  0  0  0  0  0  0  0  0  0
   -3.9922    1.3908   -0.8624 H   0  0  0  0  0  0  0  0  0  0  0  0
   -4.4145    3.0890   -0.6719 H   0  0  0  0  0  0  0  0  0  0  0  0
   -3.3613    2.6002   -1.9929 H   0  0  0  0  0  0  0  0  0  0  0  0
    0.2655    1.2607   -1.8300 H   0  0  0  0  0  0  0  0  0  0  0  0
   -1.3495    1.5369   -2.4635 H   0  0  0  0  0  0  0  0  0  0  0  0
    0.6321    3.6781   -1.5761 H   0  0  0  0  0  0  0  0  0  0  0  0
   -1.0384    4.0194   -2.0488 H   0  0  0  0  0  0  0  0  0  0  0  0
    0.0867    3.3219   -3.2073 H   0  0  0  0  0  0  0  0  0  0  0  0
    0.3136    4.0907    0.5492 H   0  0  0  0  0  0  0  0  0  0  0  0
    0.7802   -2.2943    2.1952 H   0  0  0  0  0  0  0  0  0  0  0  0
   -0.0104   -3.5677    1.2659 H   0  0  0  0  0  0  0  0  0  0  0  0
    2.0608   -2.8947    0.1393 H   0  0  0  0  0  0  0  0  0  0  0  0
    1.5369   -1.2105    0.0936 H   0  0  0  0  0  0  0  0  0  0  0  0
    0.6813   -2.4264   -0.8571 H   0  0  0  0  0  0  0  0  0  0  0  0
   -1.2298   -1.4169    3.3172 H   0  0  0  0  0  0  0  0  0  0  0  0
   -2.7033   -1.0954    2.4051 H   0  0  0  0  0  0  0  0  0  0  0  0
   -1.5567   -3.8806    2.9313 H   0  0  0  0  0  0  0  0  0  0  0  0
   -3.0535   -3.5216    2.0588 H   0  0  0  0  0  0  0  0  0  0  0  0
   -2.9115   -3.1341    3.7693 H   0  0  0  0  0  0  0  0  0  0  0  0
   -2.0200   -4.1368    0.0341 H   0  0  0  0  0  0  0  0  0  0  0  0
   -5.0096   -2.0153   -3.6777 H   0  0  0  0  0  0  0  0  0  0  0  0
   -3.0710    0.0319   -2.5281 H   0  0  0  0  0  0  0  0  0  0  0  0
   -3.7922   -2.2520   -5.8403 H   0  0  0  0  0  0  0  0  0  0  0  0
   -3.2512   -0.8244   -4.9502 H   0  0  0  0  0  0  0  0  0  0  0  0
   -2.2544   -2.2834   -4.9713 H   0  0  0  0  0  0  0  0  0  0  0  0
   -4.9237   -4.8295   -5.4194 H   0  0  0  0  0  0  0  0  0  0  0  0
   -4.1371   -8.2664   -3.6500 H   0  0  0  0  0  0  0  0  0  0  0  0
   -5.6328   -7.0832   -9.6325 H   0  0  0  0  0  0  0  0  0  0  0  0
   -5.3553  -11.6825   -7.7436 H   0  0  0  0  0  0  0  0  0  0  0  0
  1  2  2  0  0  0  0
  2  3  1  0  0  0  0
  3  4  2  0  0  0  0
  3  5  1  0  0  0  0
  5  6  2  0  0  0  0
  6  7  1  0  0  0  0
  7  8  1  0  0  0  0
  7  9  2  0  0  0  0
  9 10  1  0  0  0  0
  9 11  1  0  0  0  0
 11 12  2  0  0  0  0
 12 13  1  0  0  0  0
 13 14  2  0  0  0  0
 14 15  1  0  0  0  0
 15 16  3  0  0  0  0
 14 17  1  0  0  0  0
 17 18  3  0  0  0  0
  1 19  1  0  0  0  0
 19 20  1  0  0  0  0
 20 21  1  0  0  0  0
 21 22  1  0  0  0  0
 22 23  2  0  0  0  0
 23 24  1  0  0  0  0
 24 25  1  0  0  0  0
 25 26  1  0  0  0  0
 24 27  1  0  0  0  0
 23 28  1  0  0  0  0
 28 29  2  0  0  0  0
 29 30  1  0  0  0  0
 30 31  2  0  0  0  0
 31 32  1  0  0  0  0
 32 33  1  0  0  0  0
 33 34  1  0  0  0  0
 32 35  1  0  0  0  0
 35 36  1  0  0  0  0
 32 37  1  0  0  0  0
 37 38  2  0  0  0  0
 31 39  1  0  0  0  0
 39 40  2  0  0  0  0
 40 41  1  0  0  0  0
 41 42  1  0  0  0  0
 42 43  1  0  0  0  0
 41 44  1  0  0  0  0
 44 45  1  0  0  0  0
 40 46  1  0  0  0  0
 46 47  2  0  0  0  0
 47 48  1  0  0  0  0
 48 49  2  0  0  0  0
 49 50  1  0  0  0  0
 50 51  1  0  0  0  0
 51 52  2  0  0  0  0
 50 53  1  0  0  0  0
 49 54  1  0  0  0  0
 54 55  2  0  0  0  0
 55 56  1  0  0  0  0
 55 57  1  0  0  0  0
 57 58  2  0  0  0  0
 58 59  1  0  0  0  0
 59 60  2  0  0  0  0
 59 61  1  0  0  0  0
 61 62  2  0  0  0  0
 62 63  1  0  0  0  0
 63 64  1  0  0  0  0
 63 65  2  0  0  0  0
 65 66  1  0  0  0  0
 65 67  1  0  0  0  0
 67 68  2  0  0  0  0
 68 69  1  0  0  0  0
 69 70  2  0  0  0  0
 70 71  1  0  0  0  0
 71 72  3  0  0  0  0
 70 73  1  0  0  0  0
 73 74  3  0  0  0  0
 13  2  1  0  0  0  0
 26 19  2  0  0  0  0
 37 29  1  0  0  0  0
 52 39  1  0  0  0  0
 69 58  1  0  0  0  0
 12  5  1  0  0  0  0
 25 21  2  0  0  0  0
 41 30  1  0  0  0  0
 51 47  1  0  0  0  0
 68 61  1  0  0  0  0
 38 22  1  0  0  0  0
 56 48  1  0  0  0  0
  1 75  1  0  0  0  0
  6 76  1  0  0  0  0
 11 77  1  0  0  0  0
 24 78  1  0  0  0  0
 26 79  1  0  0  0  0
 27 80  1  0  0  0  0
 27 81  1  0  0  0  0
 27 82  1  0  0  0  0
 28 83  1  0  0  0  0
 33 84  1  0  0  0  0
 33 85  1  0  0  0  0
 34 86  1  0  0  0  0
 34 87  1  0  0  0  0
 34 88  1  0  0  0  0
 35 89  1  0  0  0  0
 35 90  1  0  0  0  0
 36 91  1  0  0  0  0
 36 92  1  0  0  0  0
 36 93  1  0  0  0  0
 38 94  1  0  0  0  0
 42 95  1  0  0  0  0
 42 96  1  0  0  0  0
 43 97  1  0  0  0  0
 43 98  1  0  0  0  0
 43 99  1  0  0  0  0
 44100  1  0  0  0  0
 44101  1  0  0  0  0
 45102  1  0  0  0  0
 45103  1  0  0  0  0
 45104  1  0  0  0  0
 46105  1  0  0  0  0
 50106  1  0  0  0  0
 52107  1  0  0  0  0
 53108  1  0  0  0  0
 53109  1  0  0  0  0
 53110  1  0  0  0  0
 54111  1  0  0  0  0
 57112  1  0  0  0  0
 62113  1  0  0  0  0
 67114  1  0  0  0  0
M  END
