130

C         -8.89670       -1.50840       -1.89970
C         -8.90900       -1.50330       -3.26940
C         -9.89940       -2.32600       -3.99800
O        -10.89050       -2.85490       -3.54890
C         -9.37910       -2.40850       -5.38580
C         -9.86130       -3.14890       -6.44620
C         -9.16950       -3.08160       -7.64570
F         -9.59980       -3.78880       -8.69870
C         -8.02890       -2.28850       -7.76830
F         -7.37450       -2.25480       -8.93570
C         -7.55040       -1.53340       -6.70750
C         -8.23540       -1.59920       -5.50610
C         -8.01560       -0.91240       -4.23350
C         -7.30140        0.24790       -4.06780
C         -6.45270        0.80010       -5.04480
N         -5.72040        1.26870       -5.79500
C         -7.42410        1.05050       -2.91470
N         -7.55020        1.75190       -2.01450
C         -7.83890       -1.22990       -1.02080
C         -7.94200       -1.12920        0.37260
C         -9.20870       -1.02320        1.07860
C        -10.25530       -0.26750        0.54730
C        -11.45080       -0.15870        1.22800
C        -11.64000       -0.79650        2.44860
C        -12.92440       -0.63410        3.20570
C        -12.84540        0.58670        4.12580
C        -10.59030       -1.53820        2.98050
C         -9.38890       -1.64920        2.31240
C         -6.68030       -1.07470        0.97740
S         -6.16210       -0.96890        2.64480
C         -4.51990       -0.94190        2.11000
C         -3.22750       -0.93720        2.65130
C         -2.77330       -1.09390        3.98020
C         -1.36750       -1.25910        4.21530
N         -1.09200       -1.47940        5.49070
S         -2.47820       -1.47280        6.32540
N         -3.48720       -1.19190        5.09010
C         -0.47070       -1.10060        3.13450
C          0.92950       -1.04240        3.09510
S          2.28010       -1.25320        4.15500
C          3.34200       -0.78750        2.84010
C          4.72740       -0.67230        2.74050
C          5.64960       -1.03000        3.81330
C          6.74980       -1.85040        3.56470
C          7.60790       -2.19550        4.58780
C          7.39810       -1.73310        5.88140
C          8.32190       -2.13680        6.99170
C          7.89200       -3.48210        7.58120
C          6.28780       -0.93500        6.13030
C          5.41900       -0.59000        5.11500
C          5.11600       -0.20460        1.46990
S          3.74040       -0.00670        0.38680
C          2.66540       -0.48940        1.64740
C          1.28510       -0.66080        1.79590
N          0.16540       -0.53850        1.01540
C         -0.93010       -0.81800        1.81530
C         -2.32160       -0.89520        1.55140
N         -3.05180       -0.94780        0.38130
C         -4.37880       -0.97970        0.71550
C         -5.61060       -1.08720        0.06970
S         -6.16030       -1.22850       -1.55790
C         -2.63910       -1.25840       -0.96850
C         -2.81530       -0.07110       -1.91360
C          0.23570        0.28180       -0.17620
C         -0.19070        1.71660        0.12600
C          6.43360        0.17210        1.18230
C          6.97920        0.70910        0.04290
C          6.26500        1.00310       -1.20170
O          5.09530        0.76800       -1.46100
C          7.23530        1.65450       -2.09570
C          6.99690        2.14480       -3.37790
C          8.09380        2.72800       -3.96550
C          9.33820        2.81000       -3.32710
C          9.58770        2.32470       -2.06520
C          8.48300        1.73300       -1.44510
C          8.35740        1.12780       -0.11900
C          9.38180        0.98310        0.78160
C         10.70750        1.41150        0.55850
N         11.80600        1.72920        0.45300
C          9.29910        0.37740        2.05280
N          9.34170       -0.09420        3.10010
C          9.97730        3.52890       -4.48890
C         10.18270        5.05000       -4.32750
C         10.35930        5.54400       -5.74520
C          9.18000        5.46890       -6.34850
C          8.18630        4.92270       -5.34860
C          8.75070        5.53000       -4.05780
C          8.58890        3.43980       -5.20000
H         -9.79950       -1.89340       -1.43420
H        -10.74420       -3.76060       -6.35180
H         -6.66460       -0.93450       -6.84530
H        -10.10880        0.26800       -0.37900
H        -12.25000        0.43430        0.80770
H        -13.11680       -1.52530        3.80600
H        -13.75280       -0.50490        2.50670
H        -12.66630        1.48810        3.54420
H        -13.77510        0.70700        4.67650
H        -12.03130        0.47210        4.83800
H        -10.71910       -2.03730        3.92990
H         -8.59100       -2.24320        2.73210
H          6.91380       -2.23800        2.56940
H          8.45920       -2.82520        4.37770
H          9.34030       -2.21930        6.60820
H          8.31110       -1.37920        7.77740
H          6.88030       -3.41680        7.97580
H          8.56100       -3.77500        8.38680
H          7.91060       -4.25490        6.81600
H          6.10510       -0.57300        7.13190
H          4.57000        0.04510        5.32030
H         -3.26930       -2.08250       -1.32270
H         -1.61060       -1.62030       -0.94690
H         -3.86770        0.18730       -1.99770
H         -2.44930       -0.33100       -2.90290
H         -2.28220        0.80600       -1.55890
H          1.27790        0.26880       -0.50380
H         -0.36890       -0.13290       -0.97810
H         -0.11010        2.32280       -0.77210
H         -1.21850        1.74740        0.48360
H          0.45190        2.14600        0.89140
H          7.10270        0.04600        2.02480
H          6.02270        2.05660       -3.83270
H         10.55210        2.39680       -1.59170
H         10.82990        3.02990       -4.94530
H         10.94960        5.33190       -3.61130
H         11.30390        5.83530       -6.16560
H          8.94240        5.68480       -7.37360
H          7.13410        5.09010       -5.56310
H          8.31110        5.12630       -3.14750
H          8.67600        6.61610       -4.04730
H          8.51550        2.88350       -6.13260
