
  xtb     02012222213D
 energy: -135.331482373842 gnorm: 0.000533778192 xtb: 6.4.1 (unknown)
 59 66  0     0  0            999 V2000
    0.4094   -3.5228   -3.5623 C   0  0  0  0  0  0  0  0  0  0  0  0
    1.7719   -3.5132   -3.4424 C   0  0  0  0  0  0  0  0  0  0  0  0
    2.5609   -2.5255   -2.6897 C   0  0  0  0  0  0  0  0  0  0  0  0
    2.1485   -1.5987   -2.0218 O   0  0  0  0  0  0  0  0  0  0  0  0
    3.9757   -2.8832   -2.9124 C   0  0  0  0  0  0  0  0  0  0  0  0
    5.1041   -2.2463   -2.4340 C   0  0  0  0  0  0  0  0  0  0  0  0
    6.3359   -2.7743   -2.7844 C   0  0  0  0  0  0  0  0  0  0  0  0
    7.4563   -2.1913   -2.3471 F   0  0  0  0  0  0  0  0  0  0  0  0
    6.4183   -3.9108   -3.5915 C   0  0  0  0  0  0  0  0  0  0  0  0
    7.6193   -4.3988   -3.9136 F   0  0  0  0  0  0  0  0  0  0  0  0
    5.2844   -4.5495   -4.0710 C   0  0  0  0  0  0  0  0  0  0  0  0
    4.0472   -4.0264   -3.7265 C   0  0  0  0  0  0  0  0  0  0  0  0
    2.6895   -4.4547   -4.0639 C   0  0  0  0  0  0  0  0  0  0  0  0
    2.3734   -5.5561   -4.8117 C   0  0  0  0  0  0  0  0  0  0  0  0
    1.0688   -5.9972   -5.1256 C   0  0  0  0  0  0  0  0  0  0  0  0
    0.0469   -6.4274   -5.4234 N   0  0  0  0  0  0  0  0  0  0  0  0
    3.3290   -6.4301   -5.3768 C   0  0  0  0  0  0  0  0  0  0  0  0
    4.0513   -7.1776   -5.8619 N   0  0  0  0  0  0  0  0  0  0  0  0
   -0.5656   -2.6759   -2.9992 C   0  0  0  0  0  0  0  0  0  0  0  0
   -1.9197   -2.8511   -3.2665 C   0  0  0  0  0  0  0  0  0  0  0  0
   -2.7376   -1.9374   -2.6098 C   0  0  0  0  0  0  0  0  0  0  0  0
   -4.1574   -1.8103   -2.6386 C   0  0  0  0  0  0  0  0  0  0  0  0
   -4.8064   -0.7889   -1.8658 C   0  0  0  0  0  0  0  0  0  0  0  0
   -6.1212   -0.8144   -2.0070 N   0  0  0  0  0  0  0  0  0  0  0  0
   -6.5143   -2.0112   -3.0187 S   0  0  0  0  0  0  0  0  0  0  0  0
   -5.0199   -2.5472   -3.3186 N   0  0  0  0  0  0  0  0  0  0  0  0
   -4.0344    0.1028   -1.0645 C   0  0  0  0  0  0  0  0  0  0  0  0
   -4.4571    1.1436   -0.2441 C   0  0  0  0  0  0  0  0  0  0  0  0
   -3.4139    1.8022    0.3995 C   0  0  0  0  0  0  0  0  0  0  0  0
   -1.8612    1.1113   -0.0281 S   0  0  0  0  0  0  0  0  0  0  0  0
   -2.6304   -0.0423   -1.0556 C   0  0  0  0  0  0  0  0  0  0  0  0
   -1.9960   -1.0392   -1.8127 C   0  0  0  0  0  0  0  0  0  0  0  0
   -0.2980   -1.3351   -1.9032 S   0  0  0  0  0  0  0  0  0  0  0  0
   -3.6551    2.8796    1.2747 C   0  0  0  0  0  0  0  0  0  0  0  0
   -2.7867    3.6426    2.0061 C   0  0  0  0  0  0  0  0  0  0  0  0
   -1.3241    3.4885    2.0350 C   0  0  0  0  0  0  0  0  0  0  0  0
   -0.6499    2.6828    1.4253 O   0  0  0  0  0  0  0  0  0  0  0  0
   -0.8257    4.5226    2.9626 C   0  0  0  0  0  0  0  0  0  0  0  0
    0.4802    4.7845    3.3283 C   0  0  0  0  0  0  0  0  0  0  0  0
    0.7007    5.8197    4.2220 C   0  0  0  0  0  0  0  0  0  0  0  0
    1.9474    6.1103    4.6065 F   0  0  0  0  0  0  0  0  0  0  0  0
   -0.3684    6.5637    4.7252 C   0  0  0  0  0  0  0  0  0  0  0  0
   -0.1266    7.5581    5.5838 F   0  0  0  0  0  0  0  0  0  0  0  0
   -1.6793    6.2988    4.3578 C   0  0  0  0  0  0  0  0  0  0  0  0
   -1.9095    5.2628    3.4651 C   0  0  0  0  0  0  0  0  0  0  0  0
   -3.1492    4.7379    2.8916 C   0  0  0  0  0  0  0  0  0  0  0  0
   -4.4044    5.2106    3.1628 C   0  0  0  0  0  0  0  0  0  0  0  0
   -4.6726    6.2833    4.0426 C   0  0  0  0  0  0  0  0  0  0  0  0
   -4.9574    7.1448    4.7444 N   0  0  0  0  0  0  0  0  0  0  0  0
   -5.6113    4.7156    2.6216 C   0  0  0  0  0  0  0  0  0  0  0  0
   -6.6359    4.3744    2.2320 N   0  0  0  0  0  0  0  0  0  0  0  0
   -0.0218   -4.2950   -4.1879 H   0  0  0  0  0  0  0  0  0  0  0  0
    5.0341   -1.3692   -1.8107 H   0  0  0  0  0  0  0  0  0  0  0  0
    5.4049   -5.4224   -4.6910 H   0  0  0  0  0  0  0  0  0  0  0  0
   -2.2972   -3.6203   -3.9162 H   0  0  0  0  0  0  0  0  0  0  0  0
   -5.4906    1.4123   -0.1175 H   0  0  0  0  0  0  0  0  0  0  0  0
   -4.7089    3.1146    1.3640 H   0  0  0  0  0  0  0  0  0  0  0  0
    1.3013    4.2064    2.9354 H   0  0  0  0  0  0  0  0  0  0  0  0
   -2.4662    6.9040    4.7766 H   0  0  0  0  0  0  0  0  0  0  0  0
  1  2  2  0  0  0  0
  2  3  1  0  0  0  0
  3  4  2  0  0  0  0
  3  5  1  0  0  0  0
  5  6  2  0  0  0  0
  6  7  1  0  0  0  0
  7  8  1  0  0  0  0
  7  9  2  0  0  0  0
  9 10  1  0  0  0  0
  9 11  1  0  0  0  0
 11 12  2  0  0  0  0
 12 13  1  0  0  0  0
 13 14  2  0  0  0  0
 14 15  1  0  0  0  0
 15 16  3  0  0  0  0
 14 17  1  0  0  0  0
 17 18  3  0  0  0  0
  1 19  1  0  0  0  0
 19 20  2  0  0  0  0
 20 21  1  0  0  0  0
 21 22  1  0  0  0  0
 22 23  1  0  0  0  0
 23 24  2  0  0  0  0
 24 25  1  0  0  0  0
 25 26  1  0  0  0  0
 23 27  1  0  0  0  0
 27 28  1  0  0  0  0
 28 29  2  0  0  0  0
 29 30  1  0  0  0  0
 30 31  1  0  0  0  0
 31 32  1  0  0  0  0
 32 33  1  0  0  0  0
 29 34  1  0  0  0  0
 34 35  2  0  0  0  0
 35 36  1  0  0  0  0
 36 37  2  0  0  0  0
 36 38  1  0  0  0  0
 38 39  2  0  0  0  0
 39 40  1  0  0  0  0
 40 41  1  0  0  0  0
 40 42  2  0  0  0  0
 42 43  1  0  0  0  0
 42 44  1  0  0  0  0
 44 45  2  0  0  0  0
 45 46  1  0  0  0  0
 46 47  2  0  0  0  0
 47 48  1  0  0  0  0
 48 49  3  0  0  0  0
 47 50  1  0  0  0  0
 50 51  3  0  0  0  0
 13  2  1  0  0  0  0
 33 19  1  0  0  0  0
 46 35  1  0  0  0  0
 12  5  1  0  0  0  0
 32 21  2  0  0  0  0
 45 38  1  0  0  0  0
 26 22  2  0  0  0  0
 31 27  2  0  0  0  0
  1 52  1  0  0  0  0
  6 53  1  0  0  0  0
 11 54  1  0  0  0  0
 20 55  1  0  0  0  0
 28 56  1  0  0  0  0
 34 57  1  0  0  0  0
 39 58  1  0  0  0  0
 44 59  1  0  0  0  0
M  END
