
  xtb     01262218073D
 energy: -177.257681629774 gnorm: 0.000437644042 xtb: 6.4.1 (unknown)
 88 98  0     0  0            999 V2000
   -0.3072    6.6410   -3.5837 C   0  0  0  0  0  0  0  0  0  0  0  0
   -1.3607    7.5032   -3.3824 C   0  0  0  0  0  0  0  0  0  0  0  0
   -2.5808    7.3070   -2.5787 C   0  0  0  0  0  0  0  0  0  0  0  0
   -2.8908    6.3832   -1.8507 O   0  0  0  0  0  0  0  0  0  0  0  0
   -3.4171    8.5027   -2.8191 C   0  0  0  0  0  0  0  0  0  0  0  0
   -4.6742    8.7724   -2.3152 C   0  0  0  0  0  0  0  0  0  0  0  0
   -5.2746    9.9624   -2.6913 C   0  0  0  0  0  0  0  0  0  0  0  0
   -6.4944   10.2652   -2.2300 F   0  0  0  0  0  0  0  0  0  0  0  0
   -4.6195   10.8467   -3.5486 C   0  0  0  0  0  0  0  0  0  0  0  0
   -5.2236   11.9873   -3.8996 F   0  0  0  0  0  0  0  0  0  0  0  0
   -3.3552   10.5756   -4.0506 C   0  0  0  0  0  0  0  0  0  0  0  0
   -2.7475    9.3863   -3.6784 C   0  0  0  0  0  0  0  0  0  0  0  0
   -1.4478    8.8073   -4.0207 C   0  0  0  0  0  0  0  0  0  0  0  0
   -0.4999    9.4349   -4.7863 C   0  0  0  0  0  0  0  0  0  0  0  0
   -0.6712   10.7132   -5.3618 C   0  0  0  0  0  0  0  0  0  0  0  0
   -0.7401   11.7447   -5.8600 N   0  0  0  0  0  0  0  0  0  0  0  0
    0.7848    8.9479   -5.1124 C   0  0  0  0  0  0  0  0  0  0  0  0
    1.8494    8.6513   -5.4260 N   0  0  0  0  0  0  0  0  0  0  0  0
   -0.0290    5.3553   -3.0970 C   0  0  0  0  0  0  0  0  0  0  0  0
    1.5752    4.5094   -3.7519 Se  0  0  0  0  0  2  0  0  0  0  0  0
    1.0824    3.0846   -2.6988 C   0  0  0  0  0  0  0  0  0  0  0  0
    1.4780    1.7755   -2.4030 C   0  0  0  0  0  0  0  0  0  0  0  0
    2.4895    0.9715   -2.9713 C   0  0  0  0  0  0  0  0  0  0  0  0
    2.5351   -0.4238   -2.6470 C   0  0  0  0  0  0  0  0  0  0  0  0
    3.4762   -1.0658   -3.3217 N   0  0  0  0  0  0  0  0  0  0  0  0
    4.2418   -0.0055   -4.2741 S   0  0  0  0  0  0  0  0  0  0  0  0
    3.3985    1.3164   -3.8688 N   0  0  0  0  0  0  0  0  0  0  0  0
    1.6519   -0.9194   -1.6605 C   0  0  0  0  0  0  0  0  0  0  0  0
    1.5162   -2.1904   -1.0833 C   0  0  0  0  0  0  0  0  0  0  0  0
    2.1556   -3.7840   -1.2609 S   0  0  0  0  0  0  0  0  0  0  0  0
    1.1519   -4.3217    0.0699 C   0  0  0  0  0  0  0  0  0  0  0  0
    1.0041   -5.5555    0.7176 C   0  0  0  0  0  0  0  0  0  0  0  0
    1.6128   -6.8341    0.2544 C   0  0  0  0  0  0  0  0  0  0  0  0
    1.5645   -7.0098   -1.2613 C   0  0  0  0  0  0  0  0  0  0  0  0
    0.1076   -5.4530    1.7822 C   0  0  0  0  0  0  0  0  0  0  0  0
   -0.6078   -3.8436    1.9093 S   0  0  0  0  0  0  0  0  0  0  0  0
    0.3670   -3.2879    0.6065 C   0  0  0  0  0  0  0  0  0  0  0  0
    0.5688   -2.0769   -0.0584 C   0  0  0  0  0  0  0  0  0  0  0  0
    0.0935   -0.7922    0.0070 N   0  0  0  0  0  0  0  0  0  0  0  0
    0.7253   -0.0678   -0.9907 C   0  0  0  0  0  0  0  0  0  0  0  0
    0.5398    1.2527   -1.4688 C   0  0  0  0  0  0  0  0  0  0  0  0
   -0.4298    2.2072   -1.2446 N   0  0  0  0  0  0  0  0  0  0  0  0
   -0.1127    3.3201   -1.9855 C   0  0  0  0  0  0  0  0  0  0  0  0
   -0.7246    4.5460   -2.2064 C   0  0  0  0  0  0  0  0  0  0  0  0
   -1.7601    2.0601   -0.6934 C   0  0  0  0  0  0  0  0  0  0  0  0
   -1.9603    2.8982    0.5697 C   0  0  0  0  0  0  0  0  0  0  0  0
   -0.4433   -0.3131    1.2637 C   0  0  0  0  0  0  0  0  0  0  0  0
    0.6338   -0.2913    2.3479 C   0  0  0  0  0  0  0  0  0  0  0  0
   -0.3671   -6.4160    2.6914 C   0  0  0  0  0  0  0  0  0  0  0  0
    0.3244   -7.4831    3.2064 C   0  0  0  0  0  0  0  0  0  0  0  0
    1.7964   -7.5702    3.2854 C   0  0  0  0  0  0  0  0  0  0  0  0
    2.6171   -6.7940    2.8440 O   0  0  0  0  0  0  0  0  0  0  0  0
    2.0734   -8.7499    4.1371 C   0  0  0  0  0  0  0  0  0  0  0  0
    3.2992   -9.2559    4.5206 C   0  0  0  0  0  0  0  0  0  0  0  0
    3.3056  -10.3780    5.3337 C   0  0  0  0  0  0  0  0  0  0  0  0
    4.4714  -10.9070    5.7234 F   0  0  0  0  0  0  0  0  0  0  0  0
    2.1088  -10.9620    5.7499 C   0  0  0  0  0  0  0  0  0  0  0  0
    2.1455  -12.0419    6.5380 F   0  0  0  0  0  0  0  0  0  0  0  0
    0.8772  -10.4498    5.3695 C   0  0  0  0  0  0  0  0  0  0  0  0
    0.8635   -9.3304    4.5522 C   0  0  0  0  0  0  0  0  0  0  0  0
   -0.2439   -8.5686    3.9774 C   0  0  0  0  0  0  0  0  0  0  0  0
   -1.5730   -8.8842    4.0816 C   0  0  0  0  0  0  0  0  0  0  0  0
   -2.0721   -9.9660    4.8372 C   0  0  0  0  0  0  0  0  0  0  0  0
   -2.5361  -10.8242    5.4414 N   0  0  0  0  0  0  0  0  0  0  0  0
   -2.6155   -8.1920    3.4290 C   0  0  0  0  0  0  0  0  0  0  0  0
   -3.5097   -7.6925    2.9100 N   0  0  0  0  0  0  0  0  0  0  0  0
    0.4571    7.0029   -4.2629 H   0  0  0  0  0  0  0  0  0  0  0  0
   -5.1751    8.0836   -1.6541 H   0  0  0  0  0  0  0  0  0  0  0  0
   -2.8965   11.2936   -4.7096 H   0  0  0  0  0  0  0  0  0  0  0  0
    1.0904   -7.6655    0.7332 H   0  0  0  0  0  0  0  0  0  0  0  0
    2.6521   -6.8647    0.5970 H   0  0  0  0  0  0  0  0  0  0  0  0
    2.2185   -6.3034   -1.7636 H   0  0  0  0  0  0  0  0  0  0  0  0
    1.8892   -8.0145   -1.5187 H   0  0  0  0  0  0  0  0  0  0  0  0
    0.5508   -6.8705   -1.6303 H   0  0  0  0  0  0  0  0  0  0  0  0
   -1.6468    4.8716   -1.7605 H   0  0  0  0  0  0  0  0  0  0  0  0
   -1.9539    1.0017   -0.5142 H   0  0  0  0  0  0  0  0  0  0  0  0
   -2.4727    2.3992   -1.4537 H   0  0  0  0  0  0  0  0  0  0  0  0
   -2.9127    2.6470    1.0283 H   0  0  0  0  0  0  0  0  0  0  0  0
   -1.1661    2.7301    1.2941 H   0  0  0  0  0  0  0  0  0  0  0  0
   -1.9670    3.9562    0.3250 H   0  0  0  0  0  0  0  0  0  0  0  0
   -0.8327    0.6902    1.1402 H   0  0  0  0  0  0  0  0  0  0  0  0
   -1.2560   -0.9834    1.5595 H   0  0  0  0  0  0  0  0  0  0  0  0
    0.2099    0.0857    3.2744 H   0  0  0  0  0  0  0  0  0  0  0  0
    1.0253   -1.2885    2.5292 H   0  0  0  0  0  0  0  0  0  0  0  0
    1.4561    0.3560    2.0499 H   0  0  0  0  0  0  0  0  0  0  0  0
   -1.3753   -6.2459    3.0519 H   0  0  0  0  0  0  0  0  0  0  0  0
    4.2223   -8.8006    4.1992 H   0  0  0  0  0  0  0  0  0  0  0  0
   -0.0192  -10.9330    5.7220 H   0  0  0  0  0  0  0  0  0  0  0  0
  1  2  2  0  0  0  0
  2  3  1  0  0  0  0
  3  4  2  0  0  0  0
  3  5  1  0  0  0  0
  5  6  2  0  0  0  0
  6  7  1  0  0  0  0
  7  8  1  0  0  0  0
  7  9  2  0  0  0  0
  9 10  1  0  0  0  0
  9 11  1  0  0  0  0
 11 12  2  0  0  0  0
 12 13  1  0  0  0  0
 13 14  2  0  0  0  0
 14 15  1  0  0  0  0
 15 16  3  0  0  0  0
 14 17  1  0  0  0  0
 17 18  3  0  0  0  0
  1 19  1  0  0  0  0
 19 20  1  0  0  0  0
 20 21  1  0  0  0  0
 21 22  1  0  0  0  0
 22 23  1  0  0  0  0
 23 24  1  0  0  0  0
 24 25  2  0  0  0  0
 25 26  1  0  0  0  0
 26 27  1  0  0  0  0
 24 28  1  0  0  0  0
 28 29  1  0  0  0  0
 29 30  1  0  0  0  0
 30 31  1  0  0  0  0
 31 32  1  0  0  0  0
 32 33  1  0  0  0  0
 33 34  1  0  0  0  0
 32 35  2  0  0  0  0
 35 36  1  0  0  0  0
 36 37  1  0  0  0  0
 37 38  1  0  0  0  0
 38 39  1  0  0  0  0
 39 40  1  0  0  0  0
 40 41  1  0  0  0  0
 41 42  1  0  0  0  0
 42 43  1  0  0  0  0
 43 44  1  0  0  0  0
 42 45  1  0  0  0  0
 45 46  1  0  0  0  0
 39 47  1  0  0  0  0
 47 48  1  0  0  0  0
 35 49  1  0  0  0  0
 49 50  2  0  0  0  0
 50 51  1  0  0  0  0
 51 52  2  0  0  0  0
 51 53  1  0  0  0  0
 53 54  2  0  0  0  0
 54 55  1  0  0  0  0
 55 56  1  0  0  0  0
 55 57  2  0  0  0  0
 57 58  1  0  0  0  0
 57 59  1  0  0  0  0
 59 60  2  0  0  0  0
 60 61  1  0  0  0  0
 61 62  2  0  0  0  0
 62 63  1  0  0  0  0
 63 64  3  0  0  0  0
 62 65  1  0  0  0  0
 65 66  3  0  0  0  0
 13  2  1  0  0  0  0
 44 19  2  0  0  0  0
 61 50  1  0  0  0  0
 12  5  1  0  0  0  0
 43 21  2  0  0  0  0
 60 53  1  0  0  0  0
 41 22  2  0  0  0  0
 27 23  2  0  0  0  0
 40 28  2  0  0  0  0
 38 29  2  0  0  0  0
 37 31  2  0  0  0  0
  1 67  1  0  0  0  0
  6 68  1  0  0  0  0
 11 69  1  0  0  0  0
 33 70  1  0  0  0  0
 33 71  1  0  0  0  0
 34 72  1  0  0  0  0
 34 73  1  0  0  0  0
 34 74  1  0  0  0  0
 44 75  1  0  0  0  0
 45 76  1  0  0  0  0
 45 77  1  0  0  0  0
 46 78  1  0  0  0  0
 46 79  1  0  0  0  0
 46 80  1  0  0  0  0
 47 81  1  0  0  0  0
 47 82  1  0  0  0  0
 48 83  1  0  0  0  0
 48 84  1  0  0  0  0
 48 85  1  0  0  0  0
 49 86  1  0  0  0  0
 54 87  1  0  0  0  0
 59 88  1  0  0  0  0
M  END
