101

C          4.86570        3.66070        6.29910
C          5.90290        4.43930        6.76520
C          7.15370        4.68330        6.06150
O          7.52090        4.19620        5.00260
C          7.90940        5.64990        6.88370
C          9.13930        6.22270        6.63040
C          9.63150        7.12400        7.56150
F         10.81820        7.70830        7.35560
C          8.90100        7.43020        8.70900
F          9.39790        8.30680        9.58940
C          7.66570        6.85110        8.96440
C          7.16570        5.95040        8.03830
C          5.91380        5.18900        8.00270
C          4.95790        5.20010        8.98610
C          3.75510        4.46350        8.97310
N          2.75660        3.89940        9.04540
C          5.05150        5.95790       10.17270
N          5.06500        6.54770       11.15720
C          4.72450        2.93240        5.11450
Se         5.99960        2.68260        3.70230
C          4.67850        1.69310        2.88260
C          4.45760        0.94790        1.72030
C          5.36390        0.59310        0.70000
C          4.92270       -0.27020       -0.35190
N          5.89160       -0.55800       -1.20740
S          7.24080        0.19700       -0.72720
N          6.64080        0.92190        0.59240
C          3.55940       -0.64120       -0.39080
C          2.82870       -1.31350       -1.37650
S          3.08550       -2.07450       -2.90940
C          1.34900       -2.27910       -3.06230
C          0.55200       -2.78110       -4.08370
C          1.11770       -3.38910       -5.32530
C          1.16470       -4.91530       -5.21200
C         -0.81320       -2.67020       -3.76910
S         -1.07460       -1.95900       -2.17670
C          0.62660       -1.79660       -1.95870
C          1.48290       -1.26060       -0.99250
N          1.36420       -0.61310        0.20410
C          2.62630       -0.22670        0.61320
C          3.11070        0.48640        1.74200
N          2.54310        0.89970        2.93460
C          3.48030        1.63300        3.62380
C          3.51090        2.27970        4.84440
C          1.33910        0.47270        3.61000
C          0.30970        1.59660        3.73450
C          0.04590       -0.29140        0.69860
C         -0.63670       -1.50070        1.33670
C         -1.83280       -3.03910       -4.65570
C         -3.19600       -2.92650       -4.55140
C         -3.93720       -2.37910       -3.41200
O         -3.48670       -2.01270       -2.33820
C         -5.35190       -2.34480       -3.81270
C         -6.42230       -1.85960       -3.06450
C         -7.63100       -1.92180       -3.71490
C         -7.76560       -2.43260       -5.01270
C         -6.71910       -2.92470       -5.75670
C         -5.47790       -2.86840       -5.11520
C         -4.15330       -3.27410       -5.58450
C         -3.89210       -3.88310       -6.78550
C         -2.62410       -4.30150       -7.23970
N         -1.63190       -4.67440       -7.68420
C         -4.87090       -4.19880       -7.75130
N         -5.60710       -4.48470       -8.58480
C         -9.25000       -2.16660       -5.04920
C         -9.70750       -0.93110       -5.85370
C        -11.09550       -0.64920       -5.32530
C        -10.96920       -0.16810       -4.09520
C         -9.49340       -0.11670       -3.77150
C         -8.92920        0.19650       -5.16330
C         -9.10000       -1.59960       -3.60100
H          3.98910        3.61260        6.93580
H          9.69970        5.98390        5.74070
H          7.14200        7.12370        9.86570
H          2.13280       -3.00920       -5.45750
H          0.53180       -3.11040       -6.20250
H          1.61140       -5.33640       -6.10790
H          0.16340       -5.32480       -5.10320
H          1.75900       -5.21280       -4.35110
H          2.69760        2.31120        5.54990
H          1.62480        0.14610        4.61680
H          0.92500       -0.38930        3.09360
H          0.08160        2.04210        2.76870
H          0.68300        2.38690        4.37920
H         -0.60820        1.20500        4.16420
H         -0.55600        0.02890       -0.15870
H          0.11550        0.54530        1.38740
H         -1.57630       -1.19450        1.78700
H         -0.85060       -2.25010        0.57990
H         -0.01150       -1.95980        2.10010
H         -1.46050       -3.44890       -5.58450
H         -6.27250       -1.47450       -2.06800
H         -6.84270       -3.31630       -6.75220
H         -9.88530       -3.03590       -5.20640
H         -9.60350       -1.02570       -6.93100
H        -11.99850       -0.87290       -5.86210
H        -11.74530        0.09010       -3.39890
H         -9.19450        0.53130       -2.95180
H         -9.23080        1.18090       -5.51730
H         -7.84750        0.09950       -5.23650
H         -9.63440       -2.09190       -2.79070
