92

C          7.54290        1.38480       -0.21520
C          8.30840        1.60770       -1.33860
C          7.87090        1.76350       -2.73620
O          6.77260        1.59300       -3.23030
C          9.07100        2.20080       -3.48450
C          9.16430        2.52930       -4.82220
C         10.40080        2.93110       -5.29990
F         10.53770        3.26270       -6.59080
C         11.50310        2.99610       -4.44820
F         12.68480        3.39450       -4.93440
C         11.40900        2.66030       -3.10550
C         10.17480        2.25660       -2.62060
C          9.74080        1.83890       -1.28690
C         10.58210        1.64960       -0.22100
C         11.97200        1.89170       -0.26230
N         13.10520        2.07040       -0.22660
C         10.22380        1.15500        1.05180
N         10.03720        0.74090        2.10670
C          6.17570        1.13600       -0.05390
S          5.59370        1.05240        1.62580
C          3.99850        0.75920        1.07380
C          2.70110        0.56130        1.53170
S          1.83970        0.54400        3.04370
C          0.38360        0.27820        2.15430
C         -0.98290        0.10620        2.44580
C         -1.71390       -0.00230        3.65080
C         -3.11990       -0.31160        3.59300
N         -3.65260       -0.45060        4.79740
S         -2.49960       -0.20390        5.90410
N         -1.27040        0.08460        4.89510
C         -3.76150       -0.36750        2.33580
C         -5.10170       -0.51630        1.93830
S         -6.62790       -0.82730        2.63930
C         -7.37150       -0.76440        1.04580
C         -6.46440       -0.49250        0.02520
C         -6.82100       -0.46410       -1.42990
C         -6.50680       -1.81310       -2.08210
C         -5.16740       -0.34610        0.54800
N         -3.89200       -0.11410        0.05950
C         -3.03000       -0.15420        1.14350
C         -1.62690       -0.05980        1.19980
N         -0.69120       -0.05650        0.16870
C          0.54240        0.18320        0.76300
C          1.87970        0.37610        0.38650
N          2.64490        0.48220       -0.74720
C          3.93740        0.71150       -0.34500
C          5.15120        0.92420       -0.97240
C          2.23440        0.51350       -2.12900
C          2.50360       -0.81090       -2.83980
C         -0.80850       -1.01300       -0.92150
C         -0.18020       -2.35590       -0.54980
C         -3.64950        0.72000       -1.10090
C         -4.22880        2.12150       -0.90580
C         -8.75800       -1.02990        0.88710
C         -9.67120       -1.21760        1.86770
C        -11.00140       -1.54070        1.55490
N        -12.08930       -1.81160        1.30600
C         -9.42670       -1.05310        3.34340
O         -9.36600        0.01510        3.89090
O         -9.36240       -2.23710        3.94150
C         -9.20150       -2.24740        5.36420
C         -7.73720       -2.15180        5.76480
H          8.07460        1.43270        0.72760
H          8.30780        2.47850       -5.47540
H         12.29140        2.73010       -2.49140
H         -7.87980       -0.23810       -1.55460
H         -6.26170        0.32260       -1.93710
H         -6.74570       -1.78460       -3.14250
H         -7.09110       -2.60290       -1.61610
H         -5.45280       -2.05830       -1.96820
H          5.32310        0.93960       -2.03210
H          2.79830        1.30930       -2.62560
H          1.17460        0.77430       -2.16890
H          1.96320       -1.62660       -2.36710
H          3.56590       -1.03830       -2.81080
H          2.19380       -0.74110       -3.87890
H         -1.86620       -1.17350       -1.12760
H         -0.33350       -0.60690       -1.81710
H         -0.28900       -3.05550       -1.37450
H         -0.67690       -2.76960        0.32520
H          0.87650       -2.24240       -0.31940
H         -2.57410        0.81330       -1.24610
H         -4.08450        0.24220       -1.98300
H         -3.75410        2.60340       -0.05390
H         -5.29940        2.08270       -0.72250
H         -4.04650        2.72290       -1.79250
H         -9.11260       -1.11880       -0.13250
H         -9.63810       -3.19540        5.68520
H         -9.76850       -1.41180        5.78700
H         -7.32690       -1.18700        5.47790
H         -7.65090       -2.26340        6.84170
H         -7.16120       -2.93530        5.27880
