
  xtb     01272209073D
 energy: -191.390123813564 gnorm: 0.000530556172 xtb: 6.4.1 (unknown)
 98109  0     0  0            999 V2000
    7.4526    3.2500    3.4884 C   0  0  0  0  0  0  0  0  0  0  0  0
    7.2076    4.1505    4.4946 C   0  0  0  0  0  0  0  0  0  0  0  0
    8.3414    4.5348    5.3714 C   0  0  0  0  0  0  0  0  0  0  0  0
    9.5120    4.2839    5.2021 O   0  0  0  0  0  0  0  0  0  0  0  0
    7.7269    5.2476    6.5157 C   0  0  0  0  0  0  0  0  0  0  0  0
    8.3319    5.7265    7.6601 C   0  0  0  0  0  0  0  0  0  0  0  0
    7.5248    6.3382    8.6068 C   0  0  0  0  0  0  0  0  0  0  0  0
    8.0684    6.8152    9.7332 F   0  0  0  0  0  0  0  0  0  0  0  0
    6.1511    6.4579    8.3995 C   0  0  0  0  0  0  0  0  0  0  0  0
    5.3925    7.0390    9.3363 F   0  0  0  0  0  0  0  0  0  0  0  0
    5.5447    5.9859    7.2442 C   0  0  0  0  0  0  0  0  0  0  0  0
    6.3457    5.3762    6.2929 C   0  0  0  0  0  0  0  0  0  0  0  0
    6.0254    4.8170    4.9751 C   0  0  0  0  0  0  0  0  0  0  0  0
    4.8806    5.1146    4.2757 C   0  0  0  0  0  0  0  0  0  0  0  0
    4.6601    4.8280    2.9161 C   0  0  0  0  0  0  0  0  0  0  0  0
    4.4002    4.6487    1.8115 N   0  0  0  0  0  0  0  0  0  0  0  0
    3.7792    5.8084    4.8169 C   0  0  0  0  0  0  0  0  0  0  0  0
    2.8291    6.3275    5.1996 N   0  0  0  0  0  0  0  0  0  0  0  0
    6.5740    2.4505    2.7468 C   0  0  0  0  0  0  0  0  0  0  0  0
    7.1903    1.6884    1.2737 S   0  0  0  0  0  0  0  0  0  0  0  0
    5.6454    1.0197    0.9576 C   0  0  0  0  0  0  0  0  0  0  0  0
    4.9434    0.3109   -0.0120 C   0  0  0  0  0  0  0  0  0  0  0  0
    5.2167   -0.3344   -1.6043 S   0  0  0  0  0  0  0  0  0  0  0  0
    3.5391   -0.7426   -1.6707 C   0  0  0  0  0  0  0  0  0  0  0  0
    2.6419   -1.2883   -2.6027 C   0  0  0  0  0  0  0  0  0  0  0  0
    2.8403   -1.8248   -3.8943 C   0  0  0  0  0  0  0  0  0  0  0  0
    1.7118   -2.3533   -4.6053 C   0  0  0  0  0  0  0  0  0  0  0  0
    2.0498   -2.8670   -5.7775 N   0  0  0  0  0  0  0  0  0  0  0  0
    3.6474   -2.6987   -5.9707 S   0  0  0  0  0  0  0  0  0  0  0  0
    3.9711   -1.9608   -4.5690 N   0  0  0  0  0  0  0  0  0  0  0  0
    0.4241   -2.2037   -4.0441 C   0  0  0  0  0  0  0  0  0  0  0  0
   -0.8495   -2.4468   -4.5662 C   0  0  0  0  0  0  0  0  0  0  0  0
   -1.5459   -3.1456   -5.9554 S   0  0  0  0  0  0  0  0  0  0  0  0
   -3.1549   -2.8541   -5.2820 C   0  0  0  0  0  0  0  0  0  0  0  0
   -3.1272   -2.1513   -4.0730 C   0  0  0  0  0  0  0  0  0  0  0  0
   -4.3640   -1.5349   -3.4930 C   0  0  0  0  0  0  0  0  0  0  0  0
   -4.4386   -0.0460   -3.8514 C   0  0  0  0  0  0  0  0  0  0  0  0
   -1.8002   -1.9440   -3.6585 C   0  0  0  0  0  0  0  0  0  0  0  0
   -1.1309   -1.4309   -2.5688 N   0  0  0  0  0  0  0  0  0  0  0  0
    0.2255   -1.6031   -2.7708 C   0  0  0  0  0  0  0  0  0  0  0  0
    1.3611   -1.2740   -1.9919 C   0  0  0  0  0  0  0  0  0  0  0  0
    1.4889   -0.8121   -0.6821 N   0  0  0  0  0  0  0  0  0  0  0  0
    2.8103   -0.4441   -0.5111 C   0  0  0  0  0  0  0  0  0  0  0  0
    3.6070    0.1936    0.4509 C   0  0  0  0  0  0  0  0  0  0  0  0
    3.4869    0.7914    1.6872 N   0  0  0  0  0  0  0  0  0  0  0  0
    4.7176    1.3262    1.9858 C   0  0  0  0  0  0  0  0  0  0  0  0
    5.2435    2.1217    2.9899 C   0  0  0  0  0  0  0  0  0  0  0  0
    2.2719    1.2741    2.3043 C   0  0  0  0  0  0  0  0  0  0  0  0
    1.6678    2.4264    1.5062 C   0  0  0  0  0  0  0  0  0  0  0  0
    0.7480   -1.3276    0.4595 C   0  0  0  0  0  0  0  0  0  0  0  0
    0.3705   -2.7972    0.2964 C   0  0  0  0  0  0  0  0  0  0  0  0
   -1.7514   -0.6214   -1.5460 C   0  0  0  0  0  0  0  0  0  0  0  0
   -1.2406    0.8181   -1.5658 C   0  0  0  0  0  0  0  0  0  0  0  0
   -4.2179   -3.3412   -6.0645 C   0  0  0  0  0  0  0  0  0  0  0  0
   -5.4913   -3.7596   -5.7770 C   0  0  0  0  0  0  0  0  0  0  0  0
   -6.4432   -3.8712   -6.9123 C   0  0  0  0  0  0  0  0  0  0  0  0
   -6.1878   -3.7567   -8.0885 O   0  0  0  0  0  0  0  0  0  0  0  0
   -7.7676   -4.1071   -6.2946 C   0  0  0  0  0  0  0  0  0  0  0  0
   -9.0038   -4.1771   -6.9046 C   0  0  0  0  0  0  0  0  0  0  0  0
  -10.1101   -4.3784   -6.0941 C   0  0  0  0  0  0  0  0  0  0  0  0
  -11.3296   -4.4465   -6.6411 F   0  0  0  0  0  0  0  0  0  0  0  0
   -9.9654   -4.5057   -4.7127 C   0  0  0  0  0  0  0  0  0  0  0  0
  -11.0513   -4.6857   -3.9522 F   0  0  0  0  0  0  0  0  0  0  0  0
   -8.7216   -4.4444   -4.1011 C   0  0  0  0  0  0  0  0  0  0  0  0
   -7.6116   -4.2428   -4.9051 C   0  0  0  0  0  0  0  0  0  0  0  0
   -6.1864   -4.1426   -4.5738 C   0  0  0  0  0  0  0  0  0  0  0  0
   -5.6391   -4.5465   -3.3801 C   0  0  0  0  0  0  0  0  0  0  0  0
   -4.2609   -4.6361   -3.1125 C   0  0  0  0  0  0  0  0  0  0  0  0
   -3.1557   -4.7400   -2.8182 N   0  0  0  0  0  0  0  0  0  0  0  0
   -6.3926   -4.9695   -2.2661 C   0  0  0  0  0  0  0  0  0  0  0  0
   -6.9409   -5.2973   -1.3122 N   0  0  0  0  0  0  0  0  0  0  0  0
    8.5087    3.1047    3.2790 H   0  0  0  0  0  0  0  0  0  0  0  0
    9.3944    5.6324    7.8174 H   0  0  0  0  0  0  0  0  0  0  0  0
    4.4790    6.1015    7.1326 H   0  0  0  0  0  0  0  0  0  0  0  0
   -4.3979   -1.6780   -2.4103 H   0  0  0  0  0  0  0  0  0  0  0  0
   -5.2445   -2.0139   -3.9140 H   0  0  0  0  0  0  0  0  0  0  0  0
   -5.3169    0.4024   -3.3934 H   0  0  0  0  0  0  0  0  0  0  0  0
   -4.5172    0.0662   -4.9303 H   0  0  0  0  0  0  0  0  0  0  0  0
   -3.5584    0.4974   -3.5197 H   0  0  0  0  0  0  0  0  0  0  0  0
    4.7236    2.4246    3.8804 H   0  0  0  0  0  0  0  0  0  0  0  0
    1.5536    0.4573    2.3996 H   0  0  0  0  0  0  0  0  0  0  0  0
    2.5326    1.6120    3.3090 H   0  0  0  0  0  0  0  0  0  0  0  0
    2.3895    3.2359    1.4163 H   0  0  0  0  0  0  0  0  0  0  0  0
    0.7808    2.8027    2.0079 H   0  0  0  0  0  0  0  0  0  0  0  0
    1.3939    2.0937    0.5078 H   0  0  0  0  0  0  0  0  0  0  0  0
    1.4172   -1.2499    1.3187 H   0  0  0  0  0  0  0  0  0  0  0  0
   -0.1304   -0.7087    0.6640 H   0  0  0  0  0  0  0  0  0  0  0  0
   -0.1173   -3.1471    1.2027 H   0  0  0  0  0  0  0  0  0  0  0  0
    1.2659   -3.3933    0.1340 H   0  0  0  0  0  0  0  0  0  0  0  0
   -0.3006   -2.9615   -0.5414 H   0  0  0  0  0  0  0  0  0  0  0  0
   -1.6012   -1.0752   -0.5654 H   0  0  0  0  0  0  0  0  0  0  0  0
   -2.8215   -0.6219   -1.7347 H   0  0  0  0  0  0  0  0  0  0  0  0
   -1.7593    1.4018   -0.8098 H   0  0  0  0  0  0  0  0  0  0  0  0
   -1.4242    1.2703   -2.5381 H   0  0  0  0  0  0  0  0  0  0  0  0
   -0.1733    0.8633   -1.3709 H   0  0  0  0  0  0  0  0  0  0  0  0
   -3.9932   -3.3974   -7.1281 H   0  0  0  0  0  0  0  0  0  0  0  0
   -9.1115   -4.0777   -7.9728 H   0  0  0  0  0  0  0  0  0  0  0  0
   -8.6638   -4.5456   -3.0297 H   0  0  0  0  0  0  0  0  0  0  0  0
  1  2  2  0  0  0  0
  2  3  1  0  0  0  0
  3  4  2  0  0  0  0
  3  5  1  0  0  0  0
  5  6  2  0  0  0  0
  6  7  1  0  0  0  0
  7  8  1  0  0  0  0
  7  9  2  0  0  0  0
  9 10  1  0  0  0  0
  9 11  1  0  0  0  0
 11 12  2  0  0  0  0
 12 13  1  0  0  0  0
 13 14  2  0  0  0  0
 14 15  1  0  0  0  0
 15 16  3  0  0  0  0
 14 17  1  0  0  0  0
 17 18  3  0  0  0  0
  1 19  1  0  0  0  0
 19 20  1  0  0  0  0
 20 21  1  0  0  0  0
 21 22  1  0  0  0  0
 22 23  1  0  0  0  0
 23 24  1  0  0  0  0
 24 25  1  0  0  0  0
 25 26  1  0  0  0  0
 26 27  1  0  0  0  0
 27 28  2  0  0  0  0
 28 29  1  0  0  0  0
 29 30  1  0  0  0  0
 27 31  1  0  0  0  0
 31 32  1  0  0  0  0
 32 33  1  0  0  0  0
 33 34  1  0  0  0  0
 34 35  2  0  0  0  0
 35 36  1  0  0  0  0
 36 37  1  0  0  0  0
 35 38  1  0  0  0  0
 38 39  1  0  0  0  0
 39 40  1  0  0  0  0
 40 41  1  0  0  0  0
 41 42  1  0  0  0  0
 42 43  1  0  0  0  0
 43 44  1  0  0  0  0
 44 45  1  0  0  0  0
 45 46  1  0  0  0  0
 46 47  1  0  0  0  0
 45 48  1  0  0  0  0
 48 49  1  0  0  0  0
 42 50  1  0  0  0  0
 50 51  1  0  0  0  0
 39 52  1  0  0  0  0
 52 53  1  0  0  0  0
 34 54  1  0  0  0  0
 54 55  2  0  0  0  0
 55 56  1  0  0  0  0
 56 57  2  0  0  0  0
 56 58  1  0  0  0  0
 58 59  2  0  0  0  0
 59 60  1  0  0  0  0
 60 61  1  0  0  0  0
 60 62  2  0  0  0  0
 62 63  1  0  0  0  0
 62 64  1  0  0  0  0
 64 65  2  0  0  0  0
 65 66  1  0  0  0  0
 66 67  2  0  0  0  0
 67 68  1  0  0  0  0
 68 69  3  0  0  0  0
 67 70  1  0  0  0  0
 70 71  3  0  0  0  0
 13  2  1  0  0  0  0
 47 19  2  0  0  0  0
 66 55  1  0  0  0  0
 12  5  1  0  0  0  0
 46 21  2  0  0  0  0
 65 58  1  0  0  0  0
 44 22  2  0  0  0  0
 43 24  2  0  0  0  0
 41 25  2  0  0  0  0
 30 26  2  0  0  0  0
 40 31  2  0  0  0  0
 38 32  2  0  0  0  0
  1 72  1  0  0  0  0
  6 73  1  0  0  0  0
 11 74  1  0  0  0  0
 36 75  1  0  0  0  0
 36 76  1  0  0  0  0
 37 77  1  0  0  0  0
 37 78  1  0  0  0  0
 37 79  1  0  0  0  0
 47 80  1  0  0  0  0
 48 81  1  0  0  0  0
 48 82  1  0  0  0  0
 49 83  1  0  0  0  0
 49 84  1  0  0  0  0
 49 85  1  0  0  0  0
 50 86  1  0  0  0  0
 50 87  1  0  0  0  0
 51 88  1  0  0  0  0
 51 89  1  0  0  0  0
 51 90  1  0  0  0  0
 52 91  1  0  0  0  0
 52 92  1  0  0  0  0
 53 93  1  0  0  0  0
 53 94  1  0  0  0  0
 53 95  1  0  0  0  0
 54 96  1  0  0  0  0
 59 97  1  0  0  0  0
 64 98  1  0  0  0  0
M  END
