142

C         -3.95430       -5.71590        1.90400
C         -5.04020       -6.25860        1.27520
C         -5.56310       -7.56690        1.73970
O         -5.25750       -8.15820        2.74890
C         -6.49460       -8.01060        0.67670
C         -7.16220       -9.21380        0.56240
C         -7.95620       -9.40520       -0.55710
F         -8.61930      -10.55770       -0.71030
C         -8.06720       -8.41130       -1.53000
F         -8.82550       -8.63170       -2.60950
C         -7.40600       -7.19780       -1.41000
C         -6.61500       -6.99760       -0.29060
C         -5.82860       -5.83810        0.13870
C         -6.03910       -4.55550       -0.29890
C         -6.94520       -4.21620       -1.32550
N         -7.67500       -3.88800       -2.14810
C         -5.49130       -3.40130        0.29630
N         -5.13740       -2.41550        0.76620
C         -3.08590       -4.71820        1.42660
C         -2.85050       -4.32250        0.11320
C         -1.94300       -3.28230        0.03520
C         -1.46250       -2.35450       -1.04850
C         -0.52930       -2.98320       -2.06170
C          0.17370       -4.14020       -1.77050
C          1.06820       -4.68510       -2.67690
C          1.28540       -4.06330       -3.90140
O          2.15090       -4.47670       -4.86380
C          2.84710       -5.69770       -4.71450
C          1.97020       -6.91310       -5.00140
C          0.58210       -2.89130       -4.19230
C         -0.30790       -2.36040       -3.28640
C         -2.73320       -1.80390       -1.67250
C         -3.36390       -0.68360       -1.15760
C         -4.60080       -0.28090       -1.62890
C         -5.23990       -1.00700       -2.62850
O         -6.44400       -0.71190       -3.17740
C         -7.31000        0.19420       -2.52260
C         -7.89070       -0.38820       -1.23800
C         -4.59950       -2.13230       -3.15360
C         -3.37090       -2.52780       -2.67530
C         -0.67190       -1.34640       -0.23120
C         -0.68490       -1.68370        1.14580
C         -1.48950       -2.85470        1.28060
S         -2.11610       -3.79270        2.56370
C         -0.02400       -0.91500        2.10120
C          0.64030        0.20400        1.65720
C          1.43500        1.20870        2.47450
C          2.57330        0.46920        3.15610
C          2.36780       -0.14310        4.38890
C          3.37940       -0.84790        5.00120
C          4.63390       -0.96880        4.39790
O          5.55930       -1.66180        5.11160
C          6.84230       -1.89820        4.56750
C          6.84600       -3.02350        3.53670
C          4.83700       -0.37090        3.15940
C          3.81180        0.33400        2.55110
C          0.60010        1.98950        3.47310
C          1.23810        2.75350        4.43960
C          0.52130        3.50630        5.35150
C         -0.86980        3.51150        5.30960
O         -1.69030        4.17770        6.16260
C         -1.14360        5.02200        7.15640
C         -0.68530        6.36670        6.59970
C         -1.51180        2.75730        4.32560
C         -0.78780        2.01300        3.41890
C          1.89660        2.15150        1.39240
C          1.42930        1.73220        0.14270
C          0.66420        0.53490        0.28040
C          0.01160       -0.24060       -0.67670
S          1.90900        2.74850       -1.14220
C          2.74950        3.78980        0.00050
C          2.62740        3.31450        1.31690
C          3.46800        4.95290       -0.29680
C          3.75000        5.54980       -1.50260
C          3.35670        5.04210       -2.82020
O          2.67620        4.06260       -3.06930
C          3.95980        5.95470       -3.80890
C          3.90790        5.89160       -5.17070
C          4.57860        6.87790       -5.92800
C          4.56480        6.85810       -7.33590
C          5.22630        7.82220       -8.04370
F          5.21430        7.80080       -9.38390
C          5.92700        8.84620       -7.37620
F          6.56670        9.77800       -8.09600
C          5.95770        8.89230       -6.01050
C          5.28720        7.91230       -5.25150
C          5.31850        7.95100       -3.83800
C          4.66380        6.98320       -3.12330
C          4.52790        6.75860       -1.68450
C          5.04540        7.57480       -0.71050
C          4.91070        7.39190        0.68110
N          4.84810        7.32190        1.82640
C          5.79350        8.74130       -0.97380
N          6.41080        9.69900       -1.11570
H         -3.71530       -6.15440        2.86780
H         -7.07270       -9.98150        1.31430
H         -7.52010       -6.46180       -2.18900
H         -3.30600       -4.80290       -0.73390
H          0.02580       -4.63620       -0.82170
H          1.58990       -5.58940       -2.40570
H          3.65250       -5.64060       -5.45220
H          3.29910       -5.76720       -3.71730
H          1.55980       -6.84090       -6.00540
H          1.14420       -6.97240       -4.29680
H          2.56440       -7.81960       -4.92690
H          0.75780       -2.41410       -5.14320
H         -0.85060       -1.46080       -3.53530
H         -2.89410       -0.11550       -0.36860
H         -5.05740        0.59470       -1.19630
H         -8.10880        0.36970       -3.24790
H         -6.80390        1.14840       -2.32880
H         -7.10500       -0.58680       -0.51190
H         -8.60470        0.30800       -0.80710
H         -8.39490       -1.32540       -1.46100
H         -5.10220       -2.68790       -3.92940
H         -2.89810       -3.41030       -3.08220
H         -0.04810       -1.18910        3.14440
H          1.41050       -0.05220        4.88020
H          3.22780       -1.31660        5.96060
H          7.25900       -0.97670        4.14270
H          7.45220       -2.18450        5.42900
H          7.86100       -3.20060        3.19200
H          6.46130       -3.93510        3.98700
H          6.22070       -2.77250        2.68330
H          5.78670       -0.43740        2.65240
H          3.99470        0.78620        1.58730
H          2.31700        2.75330        4.49270
H          1.06340        4.07690        6.08860
H         -0.32580        4.51760        7.68560
H         -1.96520        5.17470        7.86200
H         -1.51860        6.86570        6.11170
H         -0.32340        6.99390        7.40970
H          0.11060        6.23690        5.87050
H         -2.58970        2.76950        4.29540
H         -1.31150        1.44220        2.66680
H          0.04190        0.03170       -1.71980
H          3.07540        3.82590        2.15010
H          3.87070        5.43450        0.58630
H          3.36520        5.09900       -5.66300
H          4.03270        6.08060       -7.86140
H          6.49890        9.68330       -5.51540
H          5.86530        8.74670       -3.35900
