
  xtb     02022201103D
 energy: -192.956601571378 gnorm: 0.000247361162 xtb: 6.4.1 (unknown)
115125  0     0  0            999 V2000
    1.2253    0.3566    8.7506 C   0  0  0  0  0  0  0  0  0  0  0  0
    0.5115   -0.2686    9.7378 C   0  0  0  0  0  0  0  0  0  0  0  0
    0.9663   -0.1483   11.1434 C   0  0  0  0  0  0  0  0  0  0  0  0
    1.8158    0.5958   11.5759 O   0  0  0  0  0  0  0  0  0  0  0  0
    0.1916   -1.1680   11.8899 C   0  0  0  0  0  0  0  0  0  0  0  0
    0.3011   -1.5344   13.2164 C   0  0  0  0  0  0  0  0  0  0  0  0
   -0.5287   -2.5450   13.6758 C   0  0  0  0  0  0  0  0  0  0  0  0
   -0.4549   -2.9334   14.9546 F   0  0  0  0  0  0  0  0  0  0  0  0
   -1.4385   -3.1646   12.8188 C   0  0  0  0  0  0  0  0  0  0  0  0
   -2.2167   -4.1474   13.2861 F   0  0  0  0  0  0  0  0  0  0  0  0
   -1.5572   -2.7894   11.4886 C   0  0  0  0  0  0  0  0  0  0  0  0
   -0.7322   -1.7784   11.0239 C   0  0  0  0  0  0  0  0  0  0  0  0
   -0.6441   -1.1327    9.7118 C   0  0  0  0  0  0  0  0  0  0  0  0
   -1.6364   -1.1617    8.7643 C   0  0  0  0  0  0  0  0  0  0  0  0
   -2.7652   -2.0034    8.8271 C   0  0  0  0  0  0  0  0  0  0  0  0
   -3.6829   -2.6927    8.8006 N   0  0  0  0  0  0  0  0  0  0  0  0
   -1.6967   -0.3023    7.6487 C   0  0  0  0  0  0  0  0  0  0  0  0
   -1.8358    0.3973    6.7492 N   0  0  0  0  0  0  0  0  0  0  0  0
    1.2193    0.1062    7.3687 C   0  0  0  0  0  0  0  0  0  0  0  0
    1.7987    1.3485    6.2711 S   0  0  0  0  0  0  0  0  0  0  0  0
    1.4097    0.3605    4.9372 C   0  0  0  0  0  0  0  0  0  0  0  0
    1.3809    0.5240    3.5205 C   0  0  0  0  0  0  0  0  0  0  0  0
    0.8469   -0.6692    2.9850 C   0  0  0  0  0  0  0  0  0  0  0  0
    0.5360   -1.6806    4.0799 C   0  0  0  0  0  0  0  0  0  0  0  0
    0.9224   -0.8938    5.3050 C   0  0  0  0  0  0  0  0  0  0  0  0
    0.8128   -1.0336    6.6773 C   0  0  0  0  0  0  0  0  0  0  0  0
   -0.9855   -1.9491    4.0599 C   0  0  0  0  0  0  0  0  0  0  0  0
   -1.4885   -3.0252    5.0114 C   0  0  0  0  0  0  0  0  0  0  0  0
    1.3897   -2.9497    3.8504 C   0  0  0  0  0  0  0  0  0  0  0  0
    1.8366   -3.6765    5.1135 C   0  0  0  0  0  0  0  0  0  0  0  0
    0.6507   -0.7954    1.6291 C   0  0  0  0  0  0  0  0  0  0  0  0
    0.9764    0.2934    0.8243 C   0  0  0  0  0  0  0  0  0  0  0  0
    0.8416    0.4612   -0.6056 C   0  0  0  0  0  0  0  0  0  0  0  0
    1.2896    1.7513   -0.9532 C   0  0  0  0  0  0  0  0  0  0  0  0
    1.7148    2.5143    0.2795 C   0  0  0  0  0  0  0  0  0  0  0  0
    0.7537    3.6848    0.6003 C   0  0  0  0  0  0  0  0  0  0  0  0
    0.6517    4.7805   -0.4522 C   0  0  0  0  0  0  0  0  0  0  0  0
    3.1738    2.9872    0.1912 C   0  0  0  0  0  0  0  0  0  0  0  0
    4.1493    1.8288    0.0164 C   0  0  0  0  0  0  0  0  0  0  0  0
    1.5136    1.4777    1.3632 C   0  0  0  0  0  0  0  0  0  0  0  0
    1.7275    1.6062    2.7166 C   0  0  0  0  0  0  0  0  0  0  0  0
    1.2861    2.1610   -2.2681 C   0  0  0  0  0  0  0  0  0  0  0  0
    0.7827    1.2723   -3.2141 C   0  0  0  0  0  0  0  0  0  0  0  0
    0.5297    1.4469   -4.6087 C   0  0  0  0  0  0  0  0  0  0  0  0
   -0.0663    0.3060   -5.1438 C   0  0  0  0  0  0  0  0  0  0  0  0
   -0.1570   -0.7731   -4.0968 C   0  0  0  0  0  0  0  0  0  0  0  0
    0.3374   -0.0271   -2.8714 C   0  0  0  0  0  0  0  0  0  0  0  0
    0.3628   -0.4357   -1.5574 C   0  0  0  0  0  0  0  0  0  0  0  0
    0.8179   -1.8978   -4.5217 C   0  0  0  0  0  0  0  0  0  0  0  0
    1.0173   -3.0165   -3.5085 C   0  0  0  0  0  0  0  0  0  0  0  0
   -1.5902   -1.2974   -3.9284 C   0  0  0  0  0  0  0  0  0  0  0  0
   -2.5892   -0.1824   -3.6407 C   0  0  0  0  0  0  0  0  0  0  0  0
   -0.4071    0.4362   -6.4766 C   0  0  0  0  0  0  0  0  0  0  0  0
   -0.0873    1.6944   -6.9836 C   0  0  0  0  0  0  0  0  0  0  0  0
    0.6872    2.7023   -5.7512 S   0  0  0  0  0  0  0  0  0  0  0  0
   -0.2575    2.2934   -8.2408 C   0  0  0  0  0  0  0  0  0  0  0  0
   -0.9177    1.8796   -9.3714 C   0  0  0  0  0  0  0  0  0  0  0  0
   -1.7642    0.6797   -9.5538 C   0  0  0  0  0  0  0  0  0  0  0  0
   -1.9157   -0.2644   -8.8091 O   0  0  0  0  0  0  0  0  0  0  0  0
   -2.4223    0.8608  -10.8670 C   0  0  0  0  0  0  0  0  0  0  0  0
   -3.3624    0.0746  -11.5081 C   0  0  0  0  0  0  0  0  0  0  0  0
   -3.8131   -1.0547  -10.9516 F   0  0  0  0  0  0  0  0  0  0  0  0
   -3.8571    0.4563  -12.7488 C   0  0  0  0  0  0  0  0  0  0  0  0
   -3.4038    1.6259  -13.3336 C   0  0  0  0  0  0  0  0  0  0  0  0
   -2.4572    2.4298  -12.7104 C   0  0  0  0  0  0  0  0  0  0  0  0
   -1.9647    2.0426  -11.4749 C   0  0  0  0  0  0  0  0  0  0  0  0
   -0.9802    2.6654  -10.5890 C   0  0  0  0  0  0  0  0  0  0  0  0
   -0.2232    3.7619  -10.9127 C   0  0  0  0  0  0  0  0  0  0  0  0
    0.7977    4.3327  -10.1224 C   0  0  0  0  0  0  0  0  0  0  0  0
    1.6549    4.8547   -9.5633 N   0  0  0  0  0  0  0  0  0  0  0  0
   -0.3301    4.4712  -12.1279 C   0  0  0  0  0  0  0  0  0  0  0  0
   -0.3612    5.0999  -13.0881 N   0  0  0  0  0  0  0  0  0  0  0  0
    1.9196    1.1132    9.1030 H   0  0  0  0  0  0  0  0  0  0  0  0
    1.0045   -1.0538   13.8775 H   0  0  0  0  0  0  0  0  0  0  0  0
   -2.2744   -3.2977   10.8650 H   0  0  0  0  0  0  0  0  0  0  0  0
    0.4979   -1.9232    7.1918 H   0  0  0  0  0  0  0  0  0  0  0  0
   -1.2638   -2.2270    3.0413 H   0  0  0  0  0  0  0  0  0  0  0  0
   -1.4879   -1.0076    4.2962 H   0  0  0  0  0  0  0  0  0  0  0  0
   -1.2386   -2.7895    6.0417 H   0  0  0  0  0  0  0  0  0  0  0  0
   -2.5723   -3.0848    4.9420 H   0  0  0  0  0  0  0  0  0  0  0  0
   -1.0807   -4.0008    4.7608 H   0  0  0  0  0  0  0  0  0  0  0  0
    2.2862   -2.6581    3.2968 H   0  0  0  0  0  0  0  0  0  0  0  0
    0.8227   -3.6327    3.2156 H   0  0  0  0  0  0  0  0  0  0  0  0
    0.9923   -3.9849    5.7216 H   0  0  0  0  0  0  0  0  0  0  0  0
    2.3984   -4.5663    4.8367 H   0  0  0  0  0  0  0  0  0  0  0  0
    2.4843   -3.0419    5.7138 H   0  0  0  0  0  0  0  0  0  0  0  0
    0.2468   -1.6991    1.1990 H   0  0  0  0  0  0  0  0  0  0  0  0
    1.0827    4.1286    1.5423 H   0  0  0  0  0  0  0  0  0  0  0  0
   -0.2418    3.2643    0.7656 H   0  0  0  0  0  0  0  0  0  0  0  0
    1.6249    5.2066   -0.6800 H   0  0  0  0  0  0  0  0  0  0  0  0
    0.0162    5.5785   -0.0743 H   0  0  0  0  0  0  0  0  0  0  0  0
    0.2052    4.4033   -1.3678 H   0  0  0  0  0  0  0  0  0  0  0  0
    3.4214    3.5377    1.1009 H   0  0  0  0  0  0  0  0  0  0  0  0
    3.2771    3.6685   -0.6539 H   0  0  0  0  0  0  0  0  0  0  0  0
    3.9244    1.2717   -0.8907 H   0  0  0  0  0  0  0  0  0  0  0  0
    4.0925    1.1454    0.8609 H   0  0  0  0  0  0  0  0  0  0  0  0
    5.1673    2.2043   -0.0545 H   0  0  0  0  0  0  0  0  0  0  0  0
    2.1343    2.5046    3.1550 H   0  0  0  0  0  0  0  0  0  0  0  0
    1.6465    3.1295   -2.5766 H   0  0  0  0  0  0  0  0  0  0  0  0
    0.0047   -1.4082   -1.2585 H   0  0  0  0  0  0  0  0  0  0  0  0
    1.7882   -1.4402   -4.7326 H   0  0  0  0  0  0  0  0  0  0  0  0
    0.4413   -2.3205   -5.4555 H   0  0  0  0  0  0  0  0  0  0  0  0
    1.4710   -2.6385   -2.5962 H   0  0  0  0  0  0  0  0  0  0  0  0
    1.6831   -3.7661   -3.9304 H   0  0  0  0  0  0  0  0  0  0  0  0
    0.0771   -3.5031   -3.2639 H   0  0  0  0  0  0  0  0  0  0  0  0
   -1.8801   -1.8162   -4.8438 H   0  0  0  0  0  0  0  0  0  0  0  0
   -1.6132   -2.0157   -3.1082 H   0  0  0  0  0  0  0  0  0  0  0  0
   -2.3115    0.3616   -2.7399 H   0  0  0  0  0  0  0  0  0  0  0  0
   -2.6315    0.5209   -4.4690 H   0  0  0  0  0  0  0  0  0  0  0  0
   -3.5828   -0.6002   -3.4981 H   0  0  0  0  0  0  0  0  0  0  0  0
   -0.8828   -0.3170   -7.0762 H   0  0  0  0  0  0  0  0  0  0  0  0
    0.1934    3.2774   -8.2995 H   0  0  0  0  0  0  0  0  0  0  0  0
   -4.5906   -0.1658  -13.2369 H   0  0  0  0  0  0  0  0  0  0  0  0
   -3.7943    1.9211  -14.2952 H   0  0  0  0  0  0  0  0  0  0  0  0
   -2.1281    3.3360  -13.1900 H   0  0  0  0  0  0  0  0  0  0  0  0
  1  2  2  0  0  0  0
  2  3  1  0  0  0  0
  3  4  2  0  0  0  0
  3  5  1  0  0  0  0
  5  6  2  0  0  0  0
  6  7  1  0  0  0  0
  7  8  1  0  0  0  0
  7  9  2  0  0  0  0
  9 10  1  0  0  0  0
  9 11  1  0  0  0  0
 11 12  2  0  0  0  0
 12 13  1  0  0  0  0
 13 14  2  0  0  0  0
 14 15  1  0  0  0  0
 15 16  3  0  0  0  0
 14 17  1  0  0  0  0
 17 18  3  0  0  0  0
  1 19  1  0  0  0  0
 19 20  1  0  0  0  0
 20 21  1  0  0  0  0
 21 22  1  0  0  0  0
 22 23  2  0  0  0  0
 23 24  1  0  0  0  0
 24 25  1  0  0  0  0
 25 26  1  0  0  0  0
 24 27  1  0  0  0  0
 27 28  1  0  0  0  0
 24 29  1  0  0  0  0
 29 30  1  0  0  0  0
 23 31  1  0  0  0  0
 31 32  2  0  0  0  0
 32 33  1  0  0  0  0
 33 34  2  0  0  0  0
 34 35  1  0  0  0  0
 35 36  1  0  0  0  0
 36 37  1  0  0  0  0
 35 38  1  0  0  0  0
 38 39  1  0  0  0  0
 35 40  1  0  0  0  0
 40 41  2  0  0  0  0
 34 42  1  0  0  0  0
 42 43  2  0  0  0  0
 43 44  1  0  0  0  0
 44 45  2  0  0  0  0
 45 46  1  0  0  0  0
 46 47  1  0  0  0  0
 47 48  2  0  0  0  0
 46 49  1  0  0  0  0
 49 50  1  0  0  0  0
 46 51  1  0  0  0  0
 51 52  1  0  0  0  0
 45 53  1  0  0  0  0
 53 54  2  0  0  0  0
 54 55  1  0  0  0  0
 54 56  1  0  0  0  0
 56 57  2  0  0  0  0
 57 58  1  0  0  0  0
 58 59  2  0  0  0  0
 58 60  1  0  0  0  0
 60 61  2  0  0  0  0
 61 62  1  0  0  0  0
 61 63  1  0  0  0  0
 63 64  2  0  0  0  0
 64 65  1  0  0  0  0
 65 66  2  0  0  0  0
 66 67  1  0  0  0  0
 67 68  2  0  0  0  0
 68 69  1  0  0  0  0
 69 70  3  0  0  0  0
 68 71  1  0  0  0  0
 71 72  3  0  0  0  0
 13  2  1  0  0  0  0
 26 19  2  0  0  0  0
 40 32  1  0  0  0  0
 47 43  1  0  0  0  0
 67 57  1  0  0  0  0
 12  5  1  0  0  0  0
 25 21  2  0  0  0  0
 48 33  1  0  0  0  0
 66 60  1  0  0  0  0
 41 22  1  0  0  0  0
 55 44  1  0  0  0  0
  1 73  1  0  0  0  0
  6 74  1  0  0  0  0
 11 75  1  0  0  0  0
 26 76  1  0  0  0  0
 27 77  1  0  0  0  0
 27 78  1  0  0  0  0
 28 79  1  0  0  0  0
 28 80  1  0  0  0  0
 28 81  1  0  0  0  0
 29 82  1  0  0  0  0
 29 83  1  0  0  0  0
 30 84  1  0  0  0  0
 30 85  1  0  0  0  0
 30 86  1  0  0  0  0
 31 87  1  0  0  0  0
 36 88  1  0  0  0  0
 36 89  1  0  0  0  0
 37 90  1  0  0  0  0
 37 91  1  0  0  0  0
 37 92  1  0  0  0  0
 38 93  1  0  0  0  0
 38 94  1  0  0  0  0
 39 95  1  0  0  0  0
 39 96  1  0  0  0  0
 39 97  1  0  0  0  0
 41 98  1  0  0  0  0
 42 99  1  0  0  0  0
 48100  1  0  0  0  0
 49101  1  0  0  0  0
 49102  1  0  0  0  0
 50103  1  0  0  0  0
 50104  1  0  0  0  0
 50105  1  0  0  0  0
 51106  1  0  0  0  0
 51107  1  0  0  0  0
 52108  1  0  0  0  0
 52109  1  0  0  0  0
 52110  1  0  0  0  0
 53111  1  0  0  0  0
 56112  1  0  0  0  0
 63113  1  0  0  0  0
 64114  1  0  0  0  0
 65115  1  0  0  0  0
M  END
