115

C          1.22530        0.35660        8.75060
C          0.51150       -0.26860        9.73780
C          0.96630       -0.14830       11.14340
O          1.81580        0.59580       11.57590
C          0.19160       -1.16800       11.88990
C          0.30110       -1.53440       13.21640
C         -0.52870       -2.54500       13.67580
F         -0.45490       -2.93340       14.95460
C         -1.43850       -3.16460       12.81880
F         -2.21670       -4.14740       13.28610
C         -1.55720       -2.78940       11.48860
C         -0.73220       -1.77840       11.02390
C         -0.64410       -1.13270        9.71180
C         -1.63640       -1.16170        8.76430
C         -2.76520       -2.00340        8.82710
N         -3.68290       -2.69270        8.80060
C         -1.69670       -0.30230        7.64870
N         -1.83580        0.39730        6.74920
C          1.21930        0.10620        7.36870
S          1.79870        1.34850        6.27110
C          1.40970        0.36050        4.93720
C          1.38090        0.52400        3.52050
C          0.84690       -0.66920        2.98500
C          0.53600       -1.68060        4.07990
C          0.92240       -0.89380        5.30500
C          0.81280       -1.03360        6.67730
C         -0.98550       -1.94910        4.05990
C         -1.48850       -3.02520        5.01140
C          1.38970       -2.94970        3.85040
C          1.83660       -3.67650        5.11350
C          0.65070       -0.79540        1.62910
C          0.97640        0.29340        0.82430
C          0.84160        0.46120       -0.60560
C          1.28960        1.75130       -0.95320
C          1.71480        2.51430        0.27950
C          0.75370        3.68480        0.60030
C          0.65170        4.78050       -0.45220
C          3.17380        2.98720        0.19120
C          4.14930        1.82880        0.01640
C          1.51360        1.47770        1.36320
C          1.72750        1.60620        2.71660
C          1.28610        2.16100       -2.26810
C          0.78270        1.27230       -3.21410
C          0.52970        1.44690       -4.60870
C         -0.06630        0.30600       -5.14380
C         -0.15700       -0.77310       -4.09680
C          0.33740       -0.02710       -2.87140
C          0.36280       -0.43570       -1.55740
C          0.81790       -1.89780       -4.52170
C          1.01730       -3.01650       -3.50850
C         -1.59020       -1.29740       -3.92840
C         -2.58920       -0.18240       -3.64070
C         -0.40710        0.43620       -6.47660
C         -0.08730        1.69440       -6.98360
S          0.68720        2.70230       -5.75120
C         -0.25750        2.29340       -8.24080
C         -0.91770        1.87960       -9.37140
C         -1.76420        0.67970       -9.55380
O         -1.91570       -0.26440       -8.80910
C         -2.42230        0.86080      -10.86700
C         -3.36240        0.07460      -11.50810
F         -3.81310       -1.05470      -10.95160
C         -3.85710        0.45630      -12.74880
C         -3.40380        1.62590      -13.33360
C         -2.45720        2.42980      -12.71040
C         -1.96470        2.04260      -11.47490
C         -0.98020        2.66540      -10.58900
C         -0.22320        3.76190      -10.91270
C          0.79770        4.33270      -10.12240
N          1.65490        4.85470       -9.56330
C         -0.33010        4.47120      -12.12790
N         -0.36120        5.09990      -13.08810
H          1.91960        1.11320        9.10300
H          1.00450       -1.05380       13.87750
H         -2.27440       -3.29770       10.86500
H          0.49790       -1.92320        7.19180
H         -1.26380       -2.22700        3.04130
H         -1.48790       -1.00760        4.29620
H         -1.23860       -2.78950        6.04170
H         -2.57230       -3.08480        4.94200
H         -1.08070       -4.00080        4.76080
H          2.28620       -2.65810        3.29680
H          0.82270       -3.63270        3.21560
H          0.99230       -3.98490        5.72160
H          2.39840       -4.56630        4.83670
H          2.48430       -3.04190        5.71380
H          0.24680       -1.69910        1.19900
H          1.08270        4.12860        1.54230
H         -0.24180        3.26430        0.76560
H          1.62490        5.20660       -0.68000
H          0.01620        5.57850       -0.07430
H          0.20520        4.40330       -1.36780
H          3.42140        3.53770        1.10090
H          3.27710        3.66850       -0.65390
H          3.92440        1.27170       -0.89070
H          4.09250        1.14540        0.86090
H          5.16730        2.20430       -0.05450
H          2.13430        2.50460        3.15500
H          1.64650        3.12950       -2.57660
H          0.00470       -1.40820       -1.25850
H          1.78820       -1.44020       -4.73260
H          0.44130       -2.32050       -5.45550
H          1.47100       -2.63850       -2.59620
H          1.68310       -3.76610       -3.93040
H          0.07710       -3.50310       -3.26390
H         -1.88010       -1.81620       -4.84380
H         -1.61320       -2.01570       -3.10820
H         -2.31150        0.36160       -2.73990
H         -2.63150        0.52090       -4.46900
H         -3.58280       -0.60020       -3.49810
H         -0.88280       -0.31700       -7.07620
H          0.19340        3.27740       -8.29950
H         -4.59060       -0.16580      -13.23690
H         -3.79430        1.92110      -14.29520
H         -2.12810        3.33600      -13.19000
