173

C          1.04740       -0.45040      -10.33130
C          0.25070       -0.73450      -11.41780
C         -0.95570       -1.58000      -11.47950
O         -1.46630       -2.26590      -10.61680
C         -1.47350       -1.43740      -12.85920
C         -2.60400       -2.01300      -13.40380
C         -2.89790       -1.72410      -14.72620
F         -3.98540       -2.25820      -15.29730
C         -2.07170       -0.87970      -15.46740
F         -2.38110       -0.61290      -16.74210
C         -0.93460       -0.30480      -14.91930
C         -0.63330       -0.59040      -13.59650
C          0.46700       -0.15850      -12.73280
C          1.50920        0.63160      -13.14610
C          2.61510        1.04640      -12.37330
N          3.55820        1.43000      -11.84080
C          1.63710        1.14930      -14.45310
N          1.80620        1.60470      -15.49310
C          0.99940       -0.87490       -8.99910
C          0.17420       -1.76990       -8.31510
C          0.47040       -1.83930       -6.97220
C         -0.05140       -2.60610       -5.77880
C          0.19380       -4.08260       -6.03970
C          1.25190       -4.76770       -5.46340
C          1.46110       -6.10300       -5.75950
C          0.62950       -6.77820       -6.64170
C          0.83470       -8.23750       -6.92790
C          0.04810       -9.09150       -5.93130
C         -0.42720       -6.08310       -7.21760
C         -0.64360       -4.75140       -6.92410
C         -1.50020       -2.34570       -5.41260
C         -2.14130       -3.22230       -4.54570
C         -3.43190       -2.96960       -4.12510
C         -4.11390       -1.83880       -4.55730
C         -5.49620       -1.54470       -4.05010
C         -5.42740       -0.85720       -2.68480
C         -3.46710       -0.96810       -5.42340
C         -2.17220       -1.21320       -5.84550
C          0.80850       -2.02030       -4.68800
C          1.73630       -1.11440       -5.20170
C          1.54350       -1.01050       -6.59540
S          2.19160       -0.14090       -7.90950
S          2.70700       -0.34720       -3.98870
C          1.82260       -1.20320       -2.76350
C          0.84890       -2.05170       -3.29820
S         -0.12130       -2.81090       -2.07730
C          0.72460       -1.90320       -0.83690
C          0.35990       -1.90210        0.50230
C         -0.72860       -2.73840        0.97600
C         -1.98460       -2.86410        0.45720
C         -2.77070       -3.81440        1.13940
C         -2.11650       -4.42520        2.16410
C         -2.60520       -5.50200        3.06930
C         -1.96070       -6.84740        2.72870
S         -0.49680       -3.82900        2.31140
C          1.08570       -1.05220        1.35360
C          2.19830       -0.32680        0.85400
C          2.58160       -0.35070       -0.47980
C          3.72550        0.39940       -0.96410
C          4.75470       -0.04460       -1.74330
C          5.71900        0.94910       -2.00590
C          5.42440        2.15210       -1.44250
C          6.20590        3.41930       -1.48650
C          6.71370        3.81090       -0.09780
S          3.93930        2.07660       -0.55340
C          1.78860       -1.11920       -1.35010
S          2.99250        0.63920        2.08290
C          1.76300        0.20470        3.22490
C          1.41360        0.67040        4.48730
C          0.20590        0.12500        4.91690
S         -0.48210       -0.99950        3.79580
C          0.83800       -0.70380        2.70470
C         -0.16220        0.72800        6.14150
S         -1.49100        0.71310        7.21670
C         -0.71670        1.96490        8.18370
C          0.52840        2.33590        7.64860
C          0.84100        1.64680        6.50290
C          1.96640        1.64660        5.49450
C          3.26550        1.06010        6.02560
C          3.33130        0.39630        7.24130
C          4.52420       -0.15800        7.66990
C          5.67210       -0.07400        6.89430
C          6.97360       -0.63690        7.38730
C          7.71880        0.40150        8.22860
C          5.59630        0.58410        5.67300
C          4.40930        1.14180        5.24060
C          2.18480        3.03720        4.92960
C          1.55720        3.44890        3.76250
C          1.80100        4.70630        3.24310
C          2.66240        5.58780        3.88170
C          2.98800        6.91610        3.26290
C          4.10640        6.75420        2.23070
C          3.25480        5.18590        5.07180
C          3.01850        3.92800        5.59290
C         -1.23030        2.57320        9.33320
C         -2.43170        2.40080        9.97750
C         -3.50120        1.48780        9.56470
O         -3.48980        0.69960        8.63490
C         -4.61450        1.71140       10.50590
C         -5.85790        1.11180       10.52890
C         -6.77470        1.47870       11.50800
C         -8.13800        0.87490       11.59550
C         -6.37820        2.44910       12.42960
F         -7.25970        2.81290       13.38020
C         -5.13640        3.06430       12.42910
C         -4.23720        2.68570       11.44540
C         -2.87260        3.12300       11.15320
C         -2.16580        4.04250       11.88530
C         -2.67440        4.70420       13.02280
N         -3.02780        5.27510       13.95390
C         -0.84340        4.46150       11.63200
N          0.22920        4.85440       11.50710
H          1.85410        0.24820      -10.51850
H         -3.23870       -2.66370      -12.82360
H         -0.33310        0.34070      -15.53730
H         -0.60820       -2.31330       -8.81100
H          1.91780       -4.26290       -4.77870
H          2.28840       -6.62510       -5.30020
H          0.49910       -8.46630       -7.94120
H          1.89570       -8.48440       -6.85480
H         -1.01480       -8.87090       -6.00100
H          0.37440       -8.88330       -4.91470
H          0.19790      -10.14910       -6.13490
H         -1.08530       -6.58950       -7.90870
H         -1.47040       -4.22590       -7.37810
H         -1.62680       -4.10810       -4.20270
H         -3.91600       -3.66100       -3.45040
H         -6.02110       -0.89690       -4.75440
H         -6.06020       -2.47490       -3.95500
H         -6.42730       -0.64200       -2.31560
H         -4.87600        0.07760       -2.75940
H         -4.92130       -1.49580       -1.96400
H         -3.98020       -0.08350       -5.77260
H         -1.68710       -0.51900       -6.51610
H         -2.34300       -2.27250       -0.36650
H         -3.79090       -4.03400        0.87920
H         -3.69000       -5.57750        2.97090
H         -2.37180       -5.24480        4.10540
H         -0.88050       -6.78580        2.83960
H         -2.18720       -7.12610        1.70200
H         -2.33520       -7.62350        3.39120
H          4.83750       -1.06130       -2.08420
H          6.60120        0.77420       -2.59550
H          5.57740        4.22450       -1.87650
H          7.04930        3.28650       -2.16700
H          5.87740        3.95910        0.58210
H          7.28590        4.73350       -0.15220
H          7.35200        3.02830        0.30620
H          1.14240        3.09130        8.10610
H          2.45180        0.31130        7.86210
H          4.55990       -0.66750        8.62220
H          7.59650       -0.92750        6.53910
H          6.78660       -1.52460        7.99500
H          7.92660        1.28960        7.63600
H          7.11770        0.69560        9.08600
H          8.66100       -0.00520        8.58810
H          6.47650        0.65810        5.05050
H          4.36860        1.65100        4.28830
H          0.87810        2.78580        3.24740
H          1.31690        5.00390        2.32410
H          3.30640        7.61960        4.03420
H          2.10220        7.32390        2.77150
H          4.34390        7.71140        1.77260
H          3.80210        6.06020        1.45010
H          5.00400        6.36330        2.70510
H          3.91480        5.86300        5.59490
H          3.49820        3.62730        6.51300
H         -0.55810        3.31200        9.75270
H         -6.10890        0.36740        9.78860
H         -8.30060        0.16810       10.78710
H         -8.89810        1.65390       11.54910
H         -8.25980        0.36090       12.54850
H         -4.91590        3.80560       13.17900
