
  xtb     02012222493D
 energy: -194.942588064543 gnorm: 0.000411873353 xtb: 6.4.1 (unknown)
 99110  0     0  0            999 V2000
    3.4224   -6.9371    1.1785 C   0  0  0  0  0  0  0  0  0  0  0  0
    4.7221   -6.6208    0.8304 C   0  0  0  0  0  0  0  0  0  0  0  0
    5.1506   -5.4913    0.0091 C   0  0  0  0  0  0  0  0  0  0  0  0
    4.4718   -4.5878   -0.4470 O   0  0  0  0  0  0  0  0  0  0  0  0
    6.6048   -5.6644   -0.1954 C   0  0  0  0  0  0  0  0  0  0  0  0
    7.4691   -4.8715   -0.9225 C   0  0  0  0  0  0  0  0  0  0  0  0
    8.8016   -5.2496   -0.9679 C   0  0  0  0  0  0  0  0  0  0  0  0
    9.6763   -4.5123   -1.6637 F   0  0  0  0  0  0  0  0  0  0  0  0
    9.2390   -6.3910   -0.2969 C   0  0  0  0  0  0  0  0  0  0  0  0
   10.5307   -6.7342   -0.3591 F   0  0  0  0  0  0  0  0  0  0  0  0
    8.3687   -7.1861    0.4353 C   0  0  0  0  0  0  0  0  0  0  0  0
    7.0344   -6.8162    0.4833 C   0  0  0  0  0  0  0  0  0  0  0  0
    5.8801   -7.4241    1.1502 C   0  0  0  0  0  0  0  0  0  0  0  0
    5.9377   -8.5417    1.9465 C   0  0  0  0  0  0  0  0  0  0  0  0
    7.1142   -9.2811    2.1903 C   0  0  0  0  0  0  0  0  0  0  0  0
    8.0293   -9.9329    2.4251 N   0  0  0  0  0  0  0  0  0  0  0  0
    4.8550   -9.1097    2.6443 C   0  0  0  0  0  0  0  0  0  0  0  0
    4.0242   -9.6265    3.2489 N   0  0  0  0  0  0  0  0  0  0  0  0
    2.2340   -6.2365    0.9900 C   0  0  0  0  0  0  0  0  0  0  0  0
    0.9436   -6.6875    1.3780 C   0  0  0  0  0  0  0  0  0  0  0  0
    0.5349   -7.8696    1.8359 O   0  0  0  0  0  0  0  0  0  0  0  0
    1.2091   -9.1009    1.6032 C   0  0  0  0  0  0  0  0  0  0  0  0
    0.1490  -10.1924    1.5879 C   0  0  0  0  0  0  0  0  0  0  0  0
   -0.0116   -5.6720    1.2541 C   0  0  0  0  0  0  0  0  0  0  0  0
   -1.7297   -5.6418    1.5922 S   0  0  0  0  0  0  0  0  0  0  0  0
   -1.7615   -3.9947    1.0694 C   0  0  0  0  0  0  0  0  0  0  0  0
   -2.6662   -2.9275    0.9845 C   0  0  0  0  0  0  0  0  0  0  0  0
   -4.0041   -2.8036    1.4225 C   0  0  0  0  0  0  0  0  0  0  0  0
   -4.6244   -1.5101    1.4002 C   0  0  0  0  0  0  0  0  0  0  0  0
   -5.8465   -1.5262    1.9085 N   0  0  0  0  0  0  0  0  0  0  0  0
   -6.1904   -3.0394    2.3689 S   0  0  0  0  0  0  0  0  0  0  0  0
   -4.7925   -3.7318    1.9408 N   0  0  0  0  0  0  0  0  0  0  0  0
   -3.9235   -0.4266    0.8254 C   0  0  0  0  0  0  0  0  0  0  0  0
   -4.2925    0.9096    0.6083 C   0  0  0  0  0  0  0  0  0  0  0  0
   -5.6011    1.9800    0.9514 S   0  0  0  0  0  0  0  0  0  0  0  0
   -4.7402    3.2738    0.1311 C   0  0  0  0  0  0  0  0  0  0  0  0
   -5.0070    4.6319   -0.1165 C   0  0  0  0  0  0  0  0  0  0  0  0
   -6.0757    5.3565    0.2123 O   0  0  0  0  0  0  0  0  0  0  0  0
   -7.1212    4.7420    0.9547 C   0  0  0  0  0  0  0  0  0  0  0  0
   -8.1856    5.7961    1.2035 C   0  0  0  0  0  0  0  0  0  0  0  0
   -3.9433    5.2609   -0.7819 C   0  0  0  0  0  0  0  0  0  0  0  0
   -2.6510    4.1325   -1.1611 S   0  0  0  0  0  0  0  0  0  0  0  0
   -3.5041    2.8566   -0.3799 C   0  0  0  0  0  0  0  0  0  0  0  0
   -3.2504    1.5113   -0.1046 C   0  0  0  0  0  0  0  0  0  0  0  0
   -2.2452    0.6065   -0.3270 N   0  0  0  0  0  0  0  0  0  0  0  0
   -2.6248   -0.5872    0.2642 C   0  0  0  0  0  0  0  0  0  0  0  0
   -1.9417   -1.8143    0.4652 C   0  0  0  0  0  0  0  0  0  0  0  0
   -0.6272   -2.1914    0.2861 N   0  0  0  0  0  0  0  0  0  0  0  0
   -0.5165   -3.5083    0.6446 C   0  0  0  0  0  0  0  0  0  0  0  0
    0.4953   -4.4653    0.7589 C   0  0  0  0  0  0  0  0  0  0  0  0
    2.1753   -4.5725    0.3859 S   0  0  0  0  0  0  0  0  0  0  0  0
    0.5632   -1.3848    0.1230 C   0  0  0  0  0  0  0  0  0  0  0  0
    1.2312   -1.6073   -1.2347 C   0  0  0  0  0  0  0  0  0  0  0  0
   -1.3610    0.8300   -1.4513 C   0  0  0  0  0  0  0  0  0  0  0  0
   -2.1235    0.7353   -2.7729 C   0  0  0  0  0  0  0  0  0  0  0  0
   -3.9390    6.6082   -1.1763 C   0  0  0  0  0  0  0  0  0  0  0  0
   -2.8855    7.3831   -1.5725 C   0  0  0  0  0  0  0  0  0  0  0  0
   -3.1206    8.5873   -2.4074 C   0  0  0  0  0  0  0  0  0  0  0  0
   -4.1841    9.1182   -2.6291 O   0  0  0  0  0  0  0  0  0  0  0  0
   -1.7863    8.9473   -2.9407 C   0  0  0  0  0  0  0  0  0  0  0  0
   -1.4253    9.9201   -3.8583 C   0  0  0  0  0  0  0  0  0  0  0  0
   -2.6003   10.9638   -4.5478 Cl  0  0  0  0  0  0  0  0  0  0  0  0
   -0.0837   10.0426   -4.2161 C   0  0  0  0  0  0  0  0  0  0  0  0
    0.8653    9.2013   -3.6634 C   0  0  0  0  0  0  0  0  0  0  0  0
    0.5201    8.2258   -2.7350 C   0  0  0  0  0  0  0  0  0  0  0  0
   -0.8093    8.1048   -2.3739 C   0  0  0  0  0  0  0  0  0  0  0  0
   -1.4639    7.2237   -1.4063 C   0  0  0  0  0  0  0  0  0  0  0  0
   -0.8380    6.6033   -0.3533 C   0  0  0  0  0  0  0  0  0  0  0  0
   -1.5369    6.0674    0.7477 C   0  0  0  0  0  0  0  0  0  0  0  0
   -2.0689    5.6733    1.6863 N   0  0  0  0  0  0  0  0  0  0  0  0
    0.5583    6.5155   -0.2010 C   0  0  0  0  0  0  0  0  0  0  0  0
    1.6881    6.3828   -0.0427 N   0  0  0  0  0  0  0  0  0  0  0  0
    3.3102   -7.8707    1.7073 H   0  0  0  0  0  0  0  0  0  0  0  0
    7.1261   -3.9891   -1.4385 H   0  0  0  0  0  0  0  0  0  0  0  0
    8.7588   -8.0577    0.9343 H   0  0  0  0  0  0  0  0  0  0  0  0
    1.9239   -9.2998    2.4121 H   0  0  0  0  0  0  0  0  0  0  0  0
    1.7394   -9.0662    0.6441 H   0  0  0  0  0  0  0  0  0  0  0  0
   -0.5610  -10.0218    0.7828 H   0  0  0  0  0  0  0  0  0  0  0  0
   -0.3889  -10.1937    2.5313 H   0  0  0  0  0  0  0  0  0  0  0  0
    0.6259  -11.1578    1.4488 H   0  0  0  0  0  0  0  0  0  0  0  0
   -6.7246    4.3619    1.9037 H   0  0  0  0  0  0  0  0  0  0  0  0
   -7.5357    3.9007    0.3852 H   0  0  0  0  0  0  0  0  0  0  0  0
   -9.0077    5.3597    1.7624 H   0  0  0  0  0  0  0  0  0  0  0  0
   -8.5596    6.1793    0.2582 H   0  0  0  0  0  0  0  0  0  0  0  0
   -7.7657    6.6219    1.7709 H   0  0  0  0  0  0  0  0  0  0  0  0
    0.3053   -0.3383    0.2906 H   0  0  0  0  0  0  0  0  0  0  0  0
    1.2698   -1.6785    0.9066 H   0  0  0  0  0  0  0  0  0  0  0  0
    0.5107   -1.5652   -2.0491 H   0  0  0  0  0  0  0  0  0  0  0  0
    1.9932   -0.8504   -1.3969 H   0  0  0  0  0  0  0  0  0  0  0  0
    1.7109   -2.5816   -1.2612 H   0  0  0  0  0  0  0  0  0  0  0  0
   -0.9284    1.8290   -1.3420 H   0  0  0  0  0  0  0  0  0  0  0  0
   -0.5665    0.0950   -1.4545 H   0  0  0  0  0  0  0  0  0  0  0  0
   -2.9029    1.4904   -2.8274 H   0  0  0  0  0  0  0  0  0  0  0  0
   -2.5818   -0.2465   -2.8743 H   0  0  0  0  0  0  0  0  0  0  0  0
   -1.4372    0.8887   -3.6008 H   0  0  0  0  0  0  0  0  0  0  0  0
   -4.9198    7.0695   -1.2393 H   0  0  0  0  0  0  0  0  0  0  0  0
    0.2046   10.7995   -4.9279 H   0  0  0  0  0  0  0  0  0  0  0  0
    1.8984    9.3067   -3.9577 H   0  0  0  0  0  0  0  0  0  0  0  0
    1.2760    7.5793   -2.3199 H   0  0  0  0  0  0  0  0  0  0  0  0
  1  2  2  0  0  0  0
  2  3  1  0  0  0  0
  3  4  2  0  0  0  0
  3  5  1  0  0  0  0
  5  6  2  0  0  0  0
  6  7  1  0  0  0  0
  7  8  1  0  0  0  0
  7  9  2  0  0  0  0
  9 10  1  0  0  0  0
  9 11  1  0  0  0  0
 11 12  2  0  0  0  0
 12 13  1  0  0  0  0
 13 14  2  0  0  0  0
 14 15  1  0  0  0  0
 15 16  3  0  0  0  0
 14 17  1  0  0  0  0
 17 18  3  0  0  0  0
  1 19  1  0  0  0  0
 19 20  2  0  0  0  0
 20 21  1  0  0  0  0
 21 22  1  0  0  0  0
 22 23  1  0  0  0  0
 20 24  1  0  0  0  0
 24 25  1  0  0  0  0
 25 26  1  0  0  0  0
 26 27  1  0  0  0  0
 27 28  1  0  0  0  0
 28 29  1  0  0  0  0
 29 30  2  0  0  0  0
 30 31  1  0  0  0  0
 31 32  1  0  0  0  0
 29 33  1  0  0  0  0
 33 34  1  0  0  0  0
 34 35  1  0  0  0  0
 35 36  1  0  0  0  0
 36 37  1  0  0  0  0
 37 38  1  0  0  0  0
 38 39  1  0  0  0  0
 39 40  1  0  0  0  0
 37 41  2  0  0  0  0
 41 42  1  0  0  0  0
 42 43  1  0  0  0  0
 43 44  1  0  0  0  0
 44 45  1  0  0  0  0
 45 46  1  0  0  0  0
 46 47  1  0  0  0  0
 47 48  1  0  0  0  0
 48 49  1  0  0  0  0
 49 50  1  0  0  0  0
 50 51  1  0  0  0  0
 48 52  1  0  0  0  0
 52 53  1  0  0  0  0
 45 54  1  0  0  0  0
 54 55  1  0  0  0  0
 41 56  1  0  0  0  0
 56 57  2  0  0  0  0
 57 58  1  0  0  0  0
 58 59  2  0  0  0  0
 58 60  1  0  0  0  0
 60 61  2  0  0  0  0
 61 62  1  0  0  0  0
 61 63  1  0  0  0  0
 63 64  2  0  0  0  0
 64 65  1  0  0  0  0
 65 66  2  0  0  0  0
 66 67  1  0  0  0  0
 67 68  2  0  0  0  0
 68 69  1  0  0  0  0
 69 70  3  0  0  0  0
 68 71  1  0  0  0  0
 71 72  3  0  0  0  0
 13  2  1  0  0  0  0
 51 19  1  0  0  0  0
 67 57  1  0  0  0  0
 12  5  1  0  0  0  0
 50 24  2  0  0  0  0
 66 60  1  0  0  0  0
 49 26  2  0  0  0  0
 47 27  2  0  0  0  0
 32 28  2  0  0  0  0
 46 33  2  0  0  0  0
 44 34  2  0  0  0  0
 43 36  2  0  0  0  0
  1 73  1  0  0  0  0
  6 74  1  0  0  0  0
 11 75  1  0  0  0  0
 22 76  1  0  0  0  0
 22 77  1  0  0  0  0
 23 78  1  0  0  0  0
 23 79  1  0  0  0  0
 23 80  1  0  0  0  0
 39 81  1  0  0  0  0
 39 82  1  0  0  0  0
 40 83  1  0  0  0  0
 40 84  1  0  0  0  0
 40 85  1  0  0  0  0
 52 86  1  0  0  0  0
 52 87  1  0  0  0  0
 53 88  1  0  0  0  0
 53 89  1  0  0  0  0
 53 90  1  0  0  0  0
 54 91  1  0  0  0  0
 54 92  1  0  0  0  0
 55 93  1  0  0  0  0
 55 94  1  0  0  0  0
 55 95  1  0  0  0  0
 56 96  1  0  0  0  0
 63 97  1  0  0  0  0
 64 98  1  0  0  0  0
 65 99  1  0  0  0  0
M  END
