
  xtb     02012223363D
 energy: -157.393842046698 gnorm: 0.000417986918 xtb: 6.4.1 (unknown)
 83 92  0     0  0            999 V2000
   -2.5850   -1.8863   -4.4048 C   0  0  0  0  0  0  0  0  0  0  0  0
   -2.2569   -2.0757   -5.7234 C   0  0  0  0  0  0  0  0  0  0  0  0
   -0.9162   -1.8304   -6.2934 C   0  0  0  0  0  0  0  0  0  0  0  0
    0.1125   -1.5688   -5.7074 O   0  0  0  0  0  0  0  0  0  0  0  0
   -1.1099   -1.8445   -7.7624 C   0  0  0  0  0  0  0  0  0  0  0  0
   -0.1665   -1.6372   -8.7487 C   0  0  0  0  0  0  0  0  0  0  0  0
   -0.5930   -1.6835  -10.0663 C   0  0  0  0  0  0  0  0  0  0  0  0
    0.2887   -1.4929  -11.0552 F   0  0  0  0  0  0  0  0  0  0  0  0
   -1.9324   -1.9252  -10.3728 C   0  0  0  0  0  0  0  0  0  0  0  0
   -2.3166   -1.9570  -11.6537 F   0  0  0  0  0  0  0  0  0  0  0  0
   -2.8810   -2.1304   -9.3818 C   0  0  0  0  0  0  0  0  0  0  0  0
   -2.4603   -2.0895   -8.0619 C   0  0  0  0  0  0  0  0  0  0  0  0
   -3.1934   -2.2642   -6.8095 C   0  0  0  0  0  0  0  0  0  0  0  0
   -4.5095   -2.6274   -6.6922 C   0  0  0  0  0  0  0  0  0  0  0  0
   -5.3788   -2.8132   -7.7873 C   0  0  0  0  0  0  0  0  0  0  0  0
   -6.1309   -2.9696   -8.6398 N   0  0  0  0  0  0  0  0  0  0  0  0
   -5.1561   -2.8947   -5.4667 C   0  0  0  0  0  0  0  0  0  0  0  0
   -5.7345   -3.1508   -4.5086 N   0  0  0  0  0  0  0  0  0  0  0  0
   -1.6980   -1.8494   -3.3135 C   0  0  0  0  0  0  0  0  0  0  0  0
   -0.5237   -2.5540   -3.0563 C   0  0  0  0  0  0  0  0  0  0  0  0
   -0.0124   -3.6760   -3.8941 C   0  0  0  0  0  0  0  0  0  0  0  0
    0.2780   -4.9330   -3.0756 C   0  0  0  0  0  0  0  0  0  0  0  0
    0.0391   -2.1594   -1.8357 C   0  0  0  0  0  0  0  0  0  0  0  0
    1.5204   -2.6011   -1.0130 S   0  0  0  0  0  0  0  0  0  0  0  0
    1.1463   -1.4666    0.2332 C   0  0  0  0  0  0  0  0  0  0  0  0
    1.6782   -1.0075    1.4449 C   0  0  0  0  0  0  0  0  0  0  0  0
    2.8225   -1.4253    2.1588 C   0  0  0  0  0  0  0  0  0  0  0  0
    3.0855   -0.8435    3.4398 C   0  0  0  0  0  0  0  0  0  0  0  0
    4.1603   -1.3562    4.0186 N   0  0  0  0  0  0  0  0  0  0  0  0
    4.7890   -2.4737    3.0309 S   0  0  0  0  0  0  0  0  0  0  0  0
    3.7134   -2.3472    1.8283 N   0  0  0  0  0  0  0  0  0  0  0  0
    2.2442    0.1924    3.9010 C   0  0  0  0  0  0  0  0  0  0  0  0
    2.3378    0.9962    5.0442 C   0  0  0  0  0  0  0  0  0  0  0  0
    3.3356    1.1632    6.4458 S   0  0  0  0  0  0  0  0  0  0  0  0
    2.3715    2.5412    6.9309 C   0  0  0  0  0  0  0  0  0  0  0  0
    2.4493    3.4019    8.0280 C   0  0  0  0  0  0  0  0  0  0  0  0
    3.4579    3.2380    9.1175 C   0  0  0  0  0  0  0  0  0  0  0  0
    2.8903    2.3861   10.2559 C   0  0  0  0  0  0  0  0  0  0  0  0
    1.4466    4.3684    7.9832 C   0  0  0  0  0  0  0  0  0  0  0  0
    0.4201    4.2012    6.5584 S   0  0  0  0  0  0  0  0  0  0  0  0
    1.3318    2.8356    6.0370 C   0  0  0  0  0  0  0  0  0  0  0  0
    1.3136    1.9451    4.9586 C   0  0  0  0  0  0  0  0  0  0  0  0
    0.5773    1.7399    3.8239 N   0  0  0  0  0  0  0  0  0  0  0  0
    1.1248    0.6600    3.1503 C   0  0  0  0  0  0  0  0  0  0  0  0
    0.7841   -0.0154    1.9462 C   0  0  0  0  0  0  0  0  0  0  0  0
   -0.2784    0.0916    1.0629 N   0  0  0  0  0  0  0  0  0  0  0  0
   -0.0594   -0.7857    0.0345 C   0  0  0  0  0  0  0  0  0  0  0  0
   -0.6954   -1.1820   -1.1448 C   0  0  0  0  0  0  0  0  0  0  0  0
   -2.1408   -0.7728   -1.9848 S   0  0  0  0  0  0  0  0  0  0  0  0
   -1.6016    0.6459    1.2474 C   0  0  0  0  0  0  0  0  0  0  0  0
   -2.3236   -0.0108    2.4213 C   0  0  0  0  0  0  0  0  0  0  0  0
   -0.3289    2.7730    3.3730 C   0  0  0  0  0  0  0  0  0  0  0  0
    0.2392    3.5326    2.1768 C   0  0  0  0  0  0  0  0  0  0  0  0
    1.2310    5.3820    8.9376 C   0  0  0  0  0  0  0  0  0  0  0  0
    0.2510    6.3342    8.9350 C   0  0  0  0  0  0  0  0  0  0  0  0
    0.1835    7.2786    9.9820 C   0  0  0  0  0  0  0  0  0  0  0  0
    0.1382    8.0403   10.8382 N   0  0  0  0  0  0  0  0  0  0  0  0
   -0.7450    6.4761    7.9494 C   0  0  0  0  0  0  0  0  0  0  0  0
   -1.5732    6.6272    7.1684 N   0  0  0  0  0  0  0  0  0  0  0  0
   -3.6195   -1.6664   -4.1659 H   0  0  0  0  0  0  0  0  0  0  0  0
    0.8674   -1.4472   -8.5083 H   0  0  0  0  0  0  0  0  0  0  0  0
   -3.9048   -2.3070   -9.6682 H   0  0  0  0  0  0  0  0  0  0  0  0
   -0.7490   -3.9105   -4.6645 H   0  0  0  0  0  0  0  0  0  0  0  0
    0.8991   -3.3436   -4.3991 H   0  0  0  0  0  0  0  0  0  0  0  0
   -0.6067   -5.2373   -2.5203 H   0  0  0  0  0  0  0  0  0  0  0  0
    1.0912   -4.7703   -2.3745 H   0  0  0  0  0  0  0  0  0  0  0  0
    0.5604   -5.7426   -3.7435 H   0  0  0  0  0  0  0  0  0  0  0  0
    4.3348    2.7389    8.7007 H   0  0  0  0  0  0  0  0  0  0  0  0
    3.7687    4.2103    9.5030 H   0  0  0  0  0  0  0  0  0  0  0  0
    3.6383    2.2588   11.0337 H   0  0  0  0  0  0  0  0  0  0  0  0
    2.0124    2.8587   10.6909 H   0  0  0  0  0  0  0  0  0  0  0  0
    2.6058    1.4046    9.8847 H   0  0  0  0  0  0  0  0  0  0  0  0
   -1.5539    1.7290    1.3557 H   0  0  0  0  0  0  0  0  0  0  0  0
   -2.1541    0.4414    0.3271 H   0  0  0  0  0  0  0  0  0  0  0  0
   -3.3042    0.4385    2.5511 H   0  0  0  0  0  0  0  0  0  0  0  0
   -2.4534   -1.0735    2.2296 H   0  0  0  0  0  0  0  0  0  0  0  0
   -1.7593    0.0998    3.3445 H   0  0  0  0  0  0  0  0  0  0  0  0
   -0.4542    3.4651    4.2092 H   0  0  0  0  0  0  0  0  0  0  0  0
   -1.3116    2.3545    3.1584 H   0  0  0  0  0  0  0  0  0  0  0  0
    1.1643    4.0301    2.4586 H   0  0  0  0  0  0  0  0  0  0  0  0
   -0.4703    4.2866    1.8475 H   0  0  0  0  0  0  0  0  0  0  0  0
    0.4546    2.8621    1.3478 H   0  0  0  0  0  0  0  0  0  0  0  0
    1.9234    5.4019    9.7702 H   0  0  0  0  0  0  0  0  0  0  0  0
  1  2  2  0  0  0  0
  2  3  1  0  0  0  0
  3  4  2  0  0  0  0
  3  5  1  0  0  0  0
  5  6  2  0  0  0  0
  6  7  1  0  0  0  0
  7  8  1  0  0  0  0
  7  9  2  0  0  0  0
  9 10  1  0  0  0  0
  9 11  1  0  0  0  0
 11 12  2  0  0  0  0
 12 13  1  0  0  0  0
 13 14  2  0  0  0  0
 14 15  1  0  0  0  0
 15 16  3  0  0  0  0
 14 17  1  0  0  0  0
 17 18  3  0  0  0  0
  1 19  1  0  0  0  0
 19 20  2  0  0  0  0
 20 21  1  0  0  0  0
 21 22  1  0  0  0  0
 20 23  1  0  0  0  0
 23 24  1  0  0  0  0
 24 25  1  0  0  0  0
 25 26  1  0  0  0  0
 26 27  1  0  0  0  0
 27 28  1  0  0  0  0
 28 29  2  0  0  0  0
 29 30  1  0  0  0  0
 30 31  1  0  0  0  0
 28 32  1  0  0  0  0
 32 33  1  0  0  0  0
 33 34  1  0  0  0  0
 34 35  1  0  0  0  0
 35 36  1  0  0  0  0
 36 37  1  0  0  0  0
 37 38  1  0  0  0  0
 36 39  2  0  0  0  0
 39 40  1  0  0  0  0
 40 41  1  0  0  0  0
 41 42  1  0  0  0  0
 42 43  1  0  0  0  0
 43 44  1  0  0  0  0
 44 45  1  0  0  0  0
 45 46  1  0  0  0  0
 46 47  1  0  0  0  0
 47 48  1  0  0  0  0
 48 49  1  0  0  0  0
 46 50  1  0  0  0  0
 50 51  1  0  0  0  0
 43 52  1  0  0  0  0
 52 53  1  0  0  0  0
 39 54  1  0  0  0  0
 54 55  2  0  0  0  0
 55 56  1  0  0  0  0
 56 57  3  0  0  0  0
 55 58  1  0  0  0  0
 58 59  3  0  0  0  0
 13  2  1  0  0  0  0
 49 19  1  0  0  0  0
 12  5  1  0  0  0  0
 48 23  2  0  0  0  0
 47 25  2  0  0  0  0
 45 26  2  0  0  0  0
 31 27  2  0  0  0  0
 44 32  2  0  0  0  0
 42 33  2  0  0  0  0
 41 35  2  0  0  0  0
  1 60  1  0  0  0  0
  6 61  1  0  0  0  0
 11 62  1  0  0  0  0
 21 63  1  0  0  0  0
 21 64  1  0  0  0  0
 22 65  1  0  0  0  0
 22 66  1  0  0  0  0
 22 67  1  0  0  0  0
 37 68  1  0  0  0  0
 37 69  1  0  0  0  0
 38 70  1  0  0  0  0
 38 71  1  0  0  0  0
 38 72  1  0  0  0  0
 50 73  1  0  0  0  0
 50 74  1  0  0  0  0
 51 75  1  0  0  0  0
 51 76  1  0  0  0  0
 51 77  1  0  0  0  0
 52 78  1  0  0  0  0
 52 79  1  0  0  0  0
 53 80  1  0  0  0  0
 53 81  1  0  0  0  0
 53 82  1  0  0  0  0
 54 83  1  0  0  0  0
M  END
