100

C         -1.14300        6.20300        4.17510
C         -2.50370        6.40280        4.10320
C         -3.46750        5.54180        3.42020
O         -3.24740        4.53250        2.77360
C         -4.79620        6.13860        3.67110
C         -6.03180        5.69010        3.25010
C         -7.14390        6.42750        3.62410
F         -8.36280        6.02980        3.23910
C         -7.00480        7.57920        4.39820
F         -8.09550        8.27090        4.74640
C         -5.76200        8.02950        4.81990
C         -4.64470        7.29790        4.45000
C         -3.22010        7.49570        4.72660
C         -2.69740        8.54110        5.44460
C         -1.32910        8.76070        5.70740
N         -0.23830        9.01190        5.96780
C         -3.47260        9.56700        6.02580
N         -4.04340       10.42890        6.52450
C         -0.33460        5.19310        3.65370
C          1.05650        5.14050        3.86890
C          1.86860        6.16300        4.59310
C          2.22700        7.32430        3.66110
C          1.61940        4.02750        3.26410
S          3.26540        3.42340        3.21300
C          2.70770        2.08600        2.27130
C          3.21470        0.91750        1.69250
C          4.49710        0.33020        1.77380
C          4.70080       -0.96440        1.19620
N          5.92660       -1.42150        1.39750
S          6.75470       -0.31430        2.23880
N          5.58030        0.79070        2.37910
C          3.64940       -1.55300        0.45870
C          3.61790       -2.72310       -0.31020
S          4.63870       -4.06400       -0.68740
C          3.39620       -4.67150       -1.75720
C          3.34140       -5.79150       -2.58950
C          4.40340       -6.83610       -2.64130
C          4.01420       -8.03000       -1.76520
C          2.13210       -5.85870       -3.27510
S          1.08100       -4.49260       -2.89410
C          2.25470       -3.85840       -1.80230
C          2.37740       -2.75010       -0.96070
N          1.63020       -1.66620       -0.58830
C          2.38490       -0.91450        0.29740
C          2.12650        0.27730        1.02600
N          0.98490        1.02780        1.24200
C          1.33340        2.11450        1.99850
C          0.69760        3.21720        2.57450
S         -0.90730        3.83470        2.68020
C         -0.41050        0.66670        1.11390
C         -0.74050       -0.58840        1.91700
C          0.45950       -1.30420       -1.35590
C          0.70280       -0.04860       -2.18920
C          1.79180       -6.80500       -4.26060
C          0.57800       -7.08660       -4.81560
C          0.51320       -7.71230       -6.15970
O          1.42170       -8.23570       -6.76450
C         -0.87620       -7.49660       -6.61720
C         -1.42410       -7.78360       -7.84320
C         -2.76970       -7.45940       -8.04900
C         -3.55730       -7.65020       -9.21750
C         -4.82570       -7.20600       -9.05340
Br        -6.19640       -7.25690      -10.33260
S         -5.14460       -6.53080       -7.47730
C         -3.50550       -6.85580       -7.00150
C         -2.95540       -6.57470       -5.75650
C         -1.62720       -6.90350       -5.57050
C         -0.77070       -6.78660       -4.39570
C         -1.20270       -6.69490       -3.09640
C         -2.53920       -6.45520       -2.72730
N         -3.61200       -6.23440       -2.38240
C         -0.35030       -6.93150       -1.99850
N          0.31220       -7.17830       -1.09390
H         -0.59100        6.94110        4.74040
H         -6.13450        4.79840        2.65260
H         -5.71060        8.92470        5.41720
H          1.33570        6.54880        5.46300
H          2.78830        5.68660        4.93830
H          1.32880        7.81630        3.29560
H          2.79780        6.96300        2.80880
H          2.82440        8.05510        4.19810
H          4.55410       -7.17270       -3.66900
H          5.33680       -6.40390       -2.27560
H          4.79490       -8.78520       -1.79620
H          3.08300       -8.47050       -2.11310
H          3.87610       -7.71200       -0.73500
H         -0.68460        0.55730        0.06430
H         -0.98560        1.50750        1.50900
H         -0.13930       -1.43620        1.59680
H         -1.79120       -0.83710        1.79650
H         -0.54630       -0.41500        2.97290
H         -0.40830       -1.19420       -0.70510
H          0.25400       -2.14500       -2.02300
H          1.51350       -0.22100       -2.89340
H         -0.19370        0.20280       -2.74910
H          0.97390        0.79640       -1.56070
H          2.63000       -7.32090       -4.72040
H         -0.83510       -8.24490       -8.62030
H         -3.18960       -8.09430      -10.12450
H         -3.55020       -6.11160       -4.98630
