99

C          2.63790        3.29390       -7.56960
C          1.58280        3.96920       -8.14220
C          0.21250        4.01810       -7.63670
O         -0.24320        3.47530       -6.64510
C         -0.54030        4.86960       -8.58200
C         -1.87340        5.22480       -8.54290
C         -2.35020        6.04130       -9.55600
F         -3.63730        6.41060       -9.55850
C         -1.50230        6.48120      -10.57190
F         -1.98880        7.26910      -11.53730
C         -0.16230        6.12320      -10.61010
C          0.32240        5.30630       -9.60120
C          1.65760        4.75710       -9.35440
C          2.75400        4.97120      -10.15060
C          2.73760        5.75280      -11.32530
N          2.79600        6.37920      -12.28520
C          4.04850        4.45580       -9.93120
N          5.12760        4.07410       -9.82980
C          2.71090        2.51420       -6.41590
C          3.90780        1.91980       -5.96990
C          5.24730        2.06460       -6.61340
C          5.92540        3.36310       -6.16660
C          3.71350        1.21510       -4.79220
S          4.81200        0.30750       -3.76940
C          3.48880       -0.03400       -2.71150
C          3.24950       -0.68010       -1.49380
C          4.14320       -1.28660       -0.58340
C          3.63920       -1.74360        0.67660
N          4.59080       -2.23550        1.45440
S          6.00010       -2.13610        0.66490
N          5.45050       -1.45940       -0.69880
C          2.25030       -1.66880        0.92130
C          1.49050       -2.11340        2.01100
S          1.72490       -2.83160        3.56310
C         -0.00930       -2.84020        3.80360
C         -0.81820       -3.20940        4.88770
C         -0.31970       -3.86980        6.12720
C          0.69270       -4.97940        5.85440
C         -2.15990       -2.95570        4.62100
S         -2.40910       -2.34630        2.97980
C         -0.71070       -2.32200        2.70460
C          0.14710       -1.89860        1.68570
N          0.04970       -1.31410        0.45140
C          1.33580       -1.14420       -0.03830
C          1.85540       -0.54400       -1.21610
N          1.28270        0.19570       -2.23490
C          2.26840        0.51190       -3.13120
C          2.38760        1.23640       -4.31930
S          1.35320        2.15790       -5.34360
C          0.02240        0.90360       -2.28700
C         -0.10340        1.90760       -1.14410
C         -1.21700       -1.33460       -0.24700
C         -1.19950       -2.32590       -1.40780
C         -3.33130       -3.17400        5.37370
C         -3.52430       -3.05520        6.73270
C         -2.58640       -2.25660        7.54630
O         -1.65390       -1.63620        7.06760
N         -2.85150       -2.16740        8.89740
C         -1.90740       -1.41230        9.71530
C         -0.79160       -2.31030       10.23360
C         -3.92830       -2.74110        9.55660
O         -4.03970       -2.65850       10.76120
C         -4.89610       -3.42180        8.69130
C         -4.71640       -3.56510        7.34590
C         -5.72770       -4.30560        6.52690
C         -6.03230       -3.94510        9.34460
N         -6.96230       -4.36560        9.86800
H          3.58310        3.37700       -8.08770
H         -2.52540        4.88270       -7.75520
H          0.44940        6.49070      -11.41740
H          5.86520        1.21790       -6.30830
H          5.16570        2.05430       -7.70110
H          6.05280        3.37090       -5.08670
H          6.90170        3.44700       -6.63480
H          5.33080        4.22720       -6.45340
H         -1.16960       -4.27980        6.67700
H          0.13450       -3.09730        6.75520
H          0.93080       -5.48950        6.78440
H          1.61430       -4.58190        5.43970
H          0.28270       -5.70750        5.15770
H         -0.81130        0.20140       -2.30170
H          0.00660        1.43970       -3.23890
H          0.68460        2.65330       -1.21780
H         -1.06280        2.41410       -1.20200
H         -0.01910        1.42030       -0.17540
H         -1.96740       -1.64860        0.48280
H         -1.49270       -0.33300       -0.57710
H         -0.41870       -2.08220       -2.12440
H         -2.15940       -2.31640       -1.91680
H         -1.01520       -3.33100       -1.03550
H         -4.19710       -3.42540        4.77210
H         -1.50020       -0.61500        9.09100
H         -2.46830       -0.98900       10.55020
H         -0.24080       -2.74800        9.40380
H         -1.20690       -3.10710       10.84600
H         -0.10480       -1.72620       10.83960
H         -6.16270       -3.64690        5.77520
H         -5.26610       -5.14970        6.01640
H         -6.52910       -4.67750        7.15990
