84

C         -2.68700        4.82870       -2.21320
C         -2.23240        5.00820       -3.50020
C         -1.21180        4.20810       -4.17480
O         -0.56730        3.27710       -3.72400
C         -1.11020        4.74950       -5.54610
C         -0.29740        4.32500       -6.57790
C         -0.39330        4.99440       -7.78730
F          0.37390        4.61640       -8.81700
C         -1.28330        6.05730       -7.94200
F         -1.35700        6.68390       -9.12130
C         -2.09850        6.48400       -6.90350
C         -2.00880        5.81960       -5.69060
C         -2.71670        6.01370       -4.42330
C         -3.65550        6.98570       -4.18890
C         -4.33780        7.20010       -2.97310
N         -4.93050        7.44320       -2.01930
C         -4.07370        7.92920       -5.15160
N         -4.45910        8.72300       -5.88540
C         -2.32890        3.90120       -1.23430
C         -2.93630        3.85770        0.03560
C         -3.97150        4.80730        0.54160
C         -3.31790        6.08400        1.07870
C         -2.41210        2.83510        0.81150
S         -2.78460        2.27900        2.43280
C         -1.59750        1.03760        2.24170
C         -1.08900       -0.05620        2.95080
C         -1.48610       -0.61570        4.18570
C         -0.88530       -1.84350        4.61120
N         -1.39180       -2.28730        5.75100
S         -2.52410       -1.24380        6.24880
N         -2.41380       -0.18790        5.02740
C          0.16170       -2.39160        3.83780
C          0.98140       -3.50330        4.07090
S          1.14890       -4.78760        5.21240
C          2.54280       -5.36880        4.32830
C          3.43170       -6.43580        4.54240
C          3.23920       -7.49350        5.58030
C          1.79900       -8.00180        5.63460
C          4.42840       -6.44010        3.57600
S          4.22200       -5.17410        2.36490
C          2.83970       -4.58280        3.20530
C          1.94110       -3.52250        3.05360
N          1.72770       -2.48520        2.18620
C          0.62550       -1.77620        2.63840
C         -0.08400       -0.65420        2.13140
N         -0.02100        0.05100        0.94310
C         -0.93960        1.06380        1.00500
C         -1.40680        2.08480        0.17310
S         -1.09900        2.64810       -1.42540
C          0.55820       -0.30680       -0.33310
C         -0.00720       -1.62490       -0.85520
C          2.78120       -2.08720        1.27770
C          3.43750       -0.78230        1.72050
C          5.55680       -7.30130        3.41030
C          6.31640       -7.85070        4.41890
C          7.36120       -8.75550        4.13230
N          8.20310       -9.50250        3.91480
C          6.19310       -7.47760        5.77030
N          6.13900       -7.13960        6.86550
C          5.95020       -7.56030        2.07170
N          6.24190       -7.75570        0.98140
H         -3.46310        5.50920       -1.89130
H          0.38820        3.50220       -6.45310
H         -2.76870        7.30960       -7.07680
H         -4.51630        4.31820        1.35150
H         -4.68460        5.06820       -0.24140
H         -4.08250        6.75620        1.45650
H         -2.76830        6.59600        0.29250
H         -2.63010        5.84580        1.88660
H          3.52230       -7.09570        6.55930
H          3.89930       -8.33670        5.36700
H          1.46280       -8.30620        4.64570
H          1.12460       -7.23920        6.01280
H          1.74620       -8.86200        6.29670
H          1.64610       -0.33080       -0.26680
H          0.29770        0.49500       -1.02800
H         -1.07930       -1.53200       -1.01110
H          0.16370       -2.43740       -0.15260
H          0.45820       -1.87540       -1.80440
H          3.52530       -2.88730        1.29460
H          2.40620       -2.02360        0.25640
H          4.22050       -0.50620        1.01970
H          3.88260       -0.90480        2.70530
H          2.71220        0.02620        1.77510
