
  xtb     01272209473D
 energy: -191.227893055114 gnorm: 0.000847311551 xtb: 6.4.1 (unknown)
 97108  0     0  0            999 V2000
    0.9819   -8.1233    1.1795 C   0  0  0  0  0  0  0  0  0  0  0  0
    1.0332   -8.7149   -0.0628 C   0  0  0  0  0  0  0  0  0  0  0  0
    0.8795   -8.0383   -1.3496 C   0  0  0  0  0  0  0  0  0  0  0  0
    0.6428   -6.8609   -1.5562 O   0  0  0  0  0  0  0  0  0  0  0  0
    1.0675   -9.0795   -2.3819 C   0  0  0  0  0  0  0  0  0  0  0  0
    1.0353   -8.9423   -3.7550 C   0  0  0  0  0  0  0  0  0  0  0  0
    1.2477  -10.0789   -4.5187 C   0  0  0  0  0  0  0  0  0  0  0  0
    1.2276   -9.9928   -5.8546 F   0  0  0  0  0  0  0  0  0  0  0  0
    1.4832  -11.3108   -3.9087 C   0  0  0  0  0  0  0  0  0  0  0  0
    1.6868  -12.3915   -4.6702 F   0  0  0  0  0  0  0  0  0  0  0  0
    1.5133  -11.4476   -2.5283 C   0  0  0  0  0  0  0  0  0  0  0  0
    1.3026  -10.3156   -1.7572 C   0  0  0  0  0  0  0  0  0  0  0  0
    1.2741  -10.1219   -0.3058 C   0  0  0  0  0  0  0  0  0  0  0  0
    1.4362  -11.1182    0.6230 C   0  0  0  0  0  0  0  0  0  0  0  0
    1.3994  -10.9563    2.0237 C   0  0  0  0  0  0  0  0  0  0  0  0
    1.3815  -10.9110    3.1718 N   0  0  0  0  0  0  0  0  0  0  0  0
    1.6571  -12.4736    0.2978 C   0  0  0  0  0  0  0  0  0  0  0  0
    1.8455  -13.5892    0.1048 N   0  0  0  0  0  0  0  0  0  0  0  0
    0.7684   -6.7975    1.5572 C   0  0  0  0  0  0  0  0  0  0  0  0
    0.7921   -6.3747    2.9013 C   0  0  0  0  0  0  0  0  0  0  0  0
    1.0900   -7.2385    4.0823 C   0  0  0  0  0  0  0  0  0  0  0  0
    2.6013   -7.4017    4.2691 C   0  0  0  0  0  0  0  0  0  0  0  0
    0.5603   -5.0119    3.0048 C   0  0  0  0  0  0  0  0  0  0  0  0
    0.4797   -3.9275    4.3820 S   0  0  0  0  0  0  0  0  0  0  0  0
    0.1594   -2.6222    3.2947 C   0  0  0  0  0  0  0  0  0  0  0  0
   -0.1002   -1.2460    3.3360 C   0  0  0  0  0  0  0  0  0  0  0  0
   -0.2879   -0.3636    4.4238 C   0  0  0  0  0  0  0  0  0  0  0  0
   -0.6337    1.0022    4.1577 C   0  0  0  0  0  0  0  0  0  0  0  0
   -0.8322    1.6983    5.2656 N   0  0  0  0  0  0  0  0  0  0  0  0
   -0.6000    0.7212    6.5349 S   0  0  0  0  0  0  0  0  0  0  0  0
   -0.2364   -0.6283    5.7195 N   0  0  0  0  0  0  0  0  0  0  0  0
   -0.6473    1.4539    2.8184 C   0  0  0  0  0  0  0  0  0  0  0  0
   -0.7524    2.7427    2.2827 C   0  0  0  0  0  0  0  0  0  0  0  0
   -0.9962    4.3654    2.8263 S   0  0  0  0  0  0  0  0  0  0  0  0
   -0.7484    4.9183    1.1800 C   0  0  0  0  0  0  0  0  0  0  0  0
   -0.7387    6.1841    0.6148 C   0  0  0  0  0  0  0  0  0  0  0  0
   -0.9296    7.4282    1.4183 C   0  0  0  0  0  0  0  0  0  0  0  0
    0.4189    8.0076    1.8555 C   0  0  0  0  0  0  0  0  0  0  0  0
   -0.4685    6.1268   -0.7669 C   0  0  0  0  0  0  0  0  0  0  0  0
   -0.2577    4.4674   -1.3328 S   0  0  0  0  0  0  0  0  0  0  0  0
   -0.4986    3.8766    0.2664 C   0  0  0  0  0  0  0  0  0  0  0  0
   -0.5136    2.6350    0.9048 C   0  0  0  0  0  0  0  0  0  0  0  0
   -0.2915    1.3253    0.5735 N   0  0  0  0  0  0  0  0  0  0  0  0
   -0.3876    0.5731    1.7255 C   0  0  0  0  0  0  0  0  0  0  0  0
   -0.2460   -0.8142    1.9841 C   0  0  0  0  0  0  0  0  0  0  0  0
   -0.1297   -1.9147    1.1530 N   0  0  0  0  0  0  0  0  0  0  0  0
    0.1228   -3.0043    1.9474 C   0  0  0  0  0  0  0  0  0  0  0  0
    0.3442   -4.3710    1.7701 C   0  0  0  0  0  0  0  0  0  0  0  0
    0.4423   -5.4649    0.4447 S   0  0  0  0  0  0  0  0  0  0  0  0
   -0.7204   -2.1550   -0.1475 C   0  0  0  0  0  0  0  0  0  0  0  0
   -2.1563   -2.6592   -0.0075 C   0  0  0  0  0  0  0  0  0  0  0  0
    0.2572    0.9942   -0.7229 C   0  0  0  0  0  0  0  0  0  0  0  0
   -0.8108    1.0007   -1.8172 C   0  0  0  0  0  0  0  0  0  0  0  0
   -0.3503    7.2639   -1.5665 C   0  0  0  0  0  0  0  0  0  0  0  0
   -0.0948    7.3983   -2.9134 C   0  0  0  0  0  0  0  0  0  0  0  0
    0.0281    6.3099   -3.8814 C   0  0  0  0  0  0  0  0  0  0  0  0
   -0.0103    5.1096   -3.6733 O   0  0  0  0  0  0  0  0  0  0  0  0
    0.1967    6.9544   -5.2006 C   0  0  0  0  0  0  0  0  0  0  0  0
    0.3299    6.3556   -6.4370 C   0  0  0  0  0  0  0  0  0  0  0  0
    0.4706    7.1838   -7.5391 C   0  0  0  0  0  0  0  0  0  0  0  0
    0.6021    6.6472   -8.7585 F   0  0  0  0  0  0  0  0  0  0  0  0
    0.4755    8.5704   -7.3893 C   0  0  0  0  0  0  0  0  0  0  0  0
    0.6101    9.3462   -8.4707 F   0  0  0  0  0  0  0  0  0  0  0  0
    0.3429    9.1709   -6.1455 C   0  0  0  0  0  0  0  0  0  0  0  0
    0.2018    8.3497   -5.0383 C   0  0  0  0  0  0  0  0  0  0  0  0
    0.0444    8.6573   -3.6150 C   0  0  0  0  0  0  0  0  0  0  0  0
    0.0685    9.9188   -3.0773 C   0  0  0  0  0  0  0  0  0  0  0  0
   -0.0343   10.2326   -1.7059 C   0  0  0  0  0  0  0  0  0  0  0  0
   -0.0954   10.5696   -0.6092 N   0  0  0  0  0  0  0  0  0  0  0  0
    0.2219   11.0987   -3.8361 C   0  0  0  0  0  0  0  0  0  0  0  0
    0.3414   12.0957   -4.3917 N   0  0  0  0  0  0  0  0  0  0  0  0
    1.1428   -8.7848    2.0194 H   0  0  0  0  0  0  0  0  0  0  0  0
    0.8532   -7.9879   -4.2224 H   0  0  0  0  0  0  0  0  0  0  0  0
    1.6999  -12.4220   -2.1081 H   0  0  0  0  0  0  0  0  0  0  0  0
    0.6724   -6.7585    4.9695 H   0  0  0  0  0  0  0  0  0  0  0  0
    0.6298   -8.2220    3.9772 H   0  0  0  0  0  0  0  0  0  0  0  0
    2.7985   -8.0225    5.1382 H   0  0  0  0  0  0  0  0  0  0  0  0
    3.0493   -7.8754    3.3987 H   0  0  0  0  0  0  0  0  0  0  0  0
    3.0712   -6.4323    4.4174 H   0  0  0  0  0  0  0  0  0  0  0  0
   -1.5109    7.1726    2.3065 H   0  0  0  0  0  0  0  0  0  0  0  0
   -1.4811    8.1803    0.8529 H   0  0  0  0  0  0  0  0  0  0  0  0
    1.0172    8.2880    0.9922 H   0  0  0  0  0  0  0  0  0  0  0  0
    0.2572    8.8943    2.4611 H   0  0  0  0  0  0  0  0  0  0  0  0
    0.9716    7.2778    2.4425 H   0  0  0  0  0  0  0  0  0  0  0  0
   -0.1109   -2.9118   -0.6497 H   0  0  0  0  0  0  0  0  0  0  0  0
   -0.7207   -1.2491   -0.7399 H   0  0  0  0  0  0  0  0  0  0  0  0
   -2.1847   -3.5935    0.5470 H   0  0  0  0  0  0  0  0  0  0  0  0
   -2.7670   -1.9253    0.5151 H   0  0  0  0  0  0  0  0  0  0  0  0
   -2.5798   -2.8309   -0.9928 H   0  0  0  0  0  0  0  0  0  0  0  0
    1.0059    1.7555   -0.9675 H   0  0  0  0  0  0  0  0  0  0  0  0
    0.7744    0.0363   -0.6533 H   0  0  0  0  0  0  0  0  0  0  0  0
   -1.6877    0.4263   -1.5257 H   0  0  0  0  0  0  0  0  0  0  0  0
   -0.4019    0.5833   -2.7329 H   0  0  0  0  0  0  0  0  0  0  0  0
   -1.1285    2.0193   -2.0217 H   0  0  0  0  0  0  0  0  0  0  0  0
   -0.4835    8.1873   -1.0196 H   0  0  0  0  0  0  0  0  0  0  0  0
    0.3248    5.2831   -6.5476 H   0  0  0  0  0  0  0  0  0  0  0  0
    0.3516   10.2467   -6.0859 H   0  0  0  0  0  0  0  0  0  0  0  0
  1  2  2  0  0  0  0
  2  3  1  0  0  0  0
  3  4  2  0  0  0  0
  3  5  1  0  0  0  0
  5  6  2  0  0  0  0
  6  7  1  0  0  0  0
  7  8  1  0  0  0  0
  7  9  2  0  0  0  0
  9 10  1  0  0  0  0
  9 11  1  0  0  0  0
 11 12  2  0  0  0  0
 12 13  1  0  0  0  0
 13 14  2  0  0  0  0
 14 15  1  0  0  0  0
 15 16  3  0  0  0  0
 14 17  1  0  0  0  0
 17 18  3  0  0  0  0
  1 19  1  0  0  0  0
 19 20  2  0  0  0  0
 20 21  1  0  0  0  0
 21 22  1  0  0  0  0
 20 23  1  0  0  0  0
 23 24  1  0  0  0  0
 24 25  1  0  0  0  0
 25 26  1  0  0  0  0
 26 27  1  0  0  0  0
 27 28  1  0  0  0  0
 28 29  2  0  0  0  0
 29 30  1  0  0  0  0
 30 31  1  0  0  0  0
 28 32  1  0  0  0  0
 32 33  1  0  0  0  0
 33 34  1  0  0  0  0
 34 35  1  0  0  0  0
 35 36  1  0  0  0  0
 36 37  1  0  0  0  0
 37 38  1  0  0  0  0
 36 39  2  0  0  0  0
 39 40  1  0  0  0  0
 40 41  1  0  0  0  0
 41 42  1  0  0  0  0
 42 43  1  0  0  0  0
 43 44  1  0  0  0  0
 44 45  1  0  0  0  0
 45 46  1  0  0  0  0
 46 47  1  0  0  0  0
 47 48  1  0  0  0  0
 48 49  1  0  0  0  0
 46 50  1  0  0  0  0
 50 51  1  0  0  0  0
 43 52  1  0  0  0  0
 52 53  1  0  0  0  0
 39 54  1  0  0  0  0
 54 55  2  0  0  0  0
 55 56  1  0  0  0  0
 56 57  2  0  0  0  0
 56 58  1  0  0  0  0
 58 59  2  0  0  0  0
 59 60  1  0  0  0  0
 60 61  1  0  0  0  0
 60 62  2  0  0  0  0
 62 63  1  0  0  0  0
 62 64  1  0  0  0  0
 64 65  2  0  0  0  0
 65 66  1  0  0  0  0
 66 67  2  0  0  0  0
 67 68  1  0  0  0  0
 68 69  3  0  0  0  0
 67 70  1  0  0  0  0
 70 71  3  0  0  0  0
 13  2  1  0  0  0  0
 49 19  1  0  0  0  0
 66 55  1  0  0  0  0
 12  5  1  0  0  0  0
 48 23  2  0  0  0  0
 65 58  1  0  0  0  0
 47 25  2  0  0  0  0
 45 26  2  0  0  0  0
 31 27  2  0  0  0  0
 44 32  2  0  0  0  0
 42 33  2  0  0  0  0
 41 35  2  0  0  0  0
  1 72  1  0  0  0  0
  6 73  1  0  0  0  0
 11 74  1  0  0  0  0
 21 75  1  0  0  0  0
 21 76  1  0  0  0  0
 22 77  1  0  0  0  0
 22 78  1  0  0  0  0
 22 79  1  0  0  0  0
 37 80  1  0  0  0  0
 37 81  1  0  0  0  0
 38 82  1  0  0  0  0
 38 83  1  0  0  0  0
 38 84  1  0  0  0  0
 50 85  1  0  0  0  0
 50 86  1  0  0  0  0
 51 87  1  0  0  0  0
 51 88  1  0  0  0  0
 51 89  1  0  0  0  0
 52 90  1  0  0  0  0
 52 91  1  0  0  0  0
 53 92  1  0  0  0  0
 53 93  1  0  0  0  0
 53 94  1  0  0  0  0
 54 95  1  0  0  0  0
 59 96  1  0  0  0  0
 64 97  1  0  0  0  0
M  END
