
  xtb     02022200033D
 energy: -198.621628951431 gnorm: 0.000478331013 xtb: 6.4.1 (unknown)
100111  0     0  0            999 V2000
    4.9747   -3.8705    5.3160 C   0  0  0  0  0  0  0  0  0  0  0  0
    4.0285   -3.9290    6.3000 C   0  0  0  0  0  0  0  0  0  0  0  0
    4.4390   -3.8484    7.7217 C   0  0  0  0  0  0  0  0  0  0  0  0
    5.5556   -3.9661    8.1702 O   0  0  0  0  0  0  0  0  0  0  0  0
    3.1921   -3.5308    8.4598 C   0  0  0  0  0  0  0  0  0  0  0  0
    3.0339   -3.2312    9.7982 C   0  0  0  0  0  0  0  0  0  0  0  0
    1.7556   -2.9340   10.2445 C   0  0  0  0  0  0  0  0  0  0  0  0
    1.5583   -2.6316   11.5334 F   0  0  0  0  0  0  0  0  0  0  0  0
    0.6721   -2.9427    9.3654 C   0  0  0  0  0  0  0  0  0  0  0  0
   -0.5472   -2.6380    9.8235 F   0  0  0  0  0  0  0  0  0  0  0  0
    0.8272   -3.2558    8.0230 C   0  0  0  0  0  0  0  0  0  0  0  0
    2.1025   -3.5501    7.5707 C   0  0  0  0  0  0  0  0  0  0  0  0
    2.5861   -3.9464    6.2488 C   0  0  0  0  0  0  0  0  0  0  0  0
    1.8213   -4.5010    5.2549 C   0  0  0  0  0  0  0  0  0  0  0  0
    2.3836   -5.1791    4.1529 C   0  0  0  0  0  0  0  0  0  0  0  0
    2.8132   -5.7861    3.2784 N   0  0  0  0  0  0  0  0  0  0  0  0
    0.4136   -4.5284    5.2633 C   0  0  0  0  0  0  0  0  0  0  0  0
   -0.7327   -4.5410    5.2032 N   0  0  0  0  0  0  0  0  0  0  0  0
    4.8373   -3.4862    3.9705 C   0  0  0  0  0  0  0  0  0  0  0  0
    5.7746   -3.6876    2.9587 C   0  0  0  0  0  0  0  0  0  0  0  0
    7.0159   -4.4993    3.1060 C   0  0  0  0  0  0  0  0  0  0  0  0
    6.6847   -5.9935    3.0633 C   0  0  0  0  0  0  0  0  0  0  0  0
    5.3561   -3.1193    1.7552 C   0  0  0  0  0  0  0  0  0  0  0  0
    6.0908   -3.0476    0.1696 S   0  0  0  0  0  0  0  0  0  0  0  0
    4.7367   -2.1316   -0.3868 C   0  0  0  0  0  0  0  0  0  0  0  0
    4.3069   -1.4750   -1.5467 C   0  0  0  0  0  0  0  0  0  0  0  0
    4.9686   -1.2328   -2.7712 C   0  0  0  0  0  0  0  0  0  0  0  0
    4.3547   -0.3576   -3.7257 C   0  0  0  0  0  0  0  0  0  0  0  0
    5.1146   -0.1594   -4.7911 N   0  0  0  0  0  0  0  0  0  0  0  0
    6.4813   -1.0066   -4.6123 S   0  0  0  0  0  0  0  0  0  0  0  0
    6.1590   -1.6564   -3.1654 N   0  0  0  0  0  0  0  0  0  0  0  0
    3.0511    0.1237   -3.4701 C   0  0  0  0  0  0  0  0  0  0  0  0
    2.1781    0.8766   -4.2654 C   0  0  0  0  0  0  0  0  0  0  0  0
    2.1732    1.6898   -5.7902 S   0  0  0  0  0  0  0  0  0  0  0  0
    0.4912    2.1104   -5.5212 C   0  0  0  0  0  0  0  0  0  0  0  0
   -0.4256    2.8178   -6.2832 C   0  0  0  0  0  0  0  0  0  0  0  0
   -0.0688    3.4599   -7.5831 C   0  0  0  0  0  0  0  0  0  0  0  0
    0.3424    4.9198   -7.3701 C   0  0  0  0  0  0  0  0  0  0  0  0
   -1.6777    2.8919   -5.6408 C   0  0  0  0  0  0  0  0  0  0  0  0
   -1.6775    2.0521   -4.0865 S   0  0  0  0  0  0  0  0  0  0  0  0
   -0.0216    1.6321   -4.3005 C   0  0  0  0  0  0  0  0  0  0  0  0
    0.9552    0.9364   -3.5847 C   0  0  0  0  0  0  0  0  0  0  0  0
    1.0495    0.2817   -2.3831 N   0  0  0  0  0  0  0  0  0  0  0  0
    2.3384   -0.2165   -2.2819 C   0  0  0  0  0  0  0  0  0  0  0  0
    3.0296   -0.9103   -1.2545 C   0  0  0  0  0  0  0  0  0  0  0  0
    2.7329   -1.1729    0.0683 N   0  0  0  0  0  0  0  0  0  0  0  0
    3.7580   -1.9111    0.5928 C   0  0  0  0  0  0  0  0  0  0  0  0
    4.1192   -2.4593    1.8240 C   0  0  0  0  0  0  0  0  0  0  0  0
    3.4566   -2.5390    3.4121 S   0  0  0  0  0  0  0  0  0  0  0  0
    1.7358   -0.6083    0.9487 C   0  0  0  0  0  0  0  0  0  0  0  0
    0.6662   -1.6300    1.3317 C   0  0  0  0  0  0  0  0  0  0  0  0
   -0.1742   -0.2079   -1.7809 C   0  0  0  0  0  0  0  0  0  0  0  0
   -0.5093   -1.6063   -2.2944 C   0  0  0  0  0  0  0  0  0  0  0  0
   -2.7691    3.5689   -6.1852 C   0  0  0  0  0  0  0  0  0  0  0  0
   -4.0512    3.7454   -5.7133 C   0  0  0  0  0  0  0  0  0  0  0  0
   -4.5994    3.1872   -4.4782 C   0  0  0  0  0  0  0  0  0  0  0  0
   -4.0286    2.5100   -3.6415 O   0  0  0  0  0  0  0  0  0  0  0  0
   -6.0184    3.6006   -4.4378 C   0  0  0  0  0  0  0  0  0  0  0  0
   -6.9706    3.3110   -3.4831 C   0  0  0  0  0  0  0  0  0  0  0  0
   -8.2506    3.8194   -3.6785 C   0  0  0  0  0  0  0  0  0  0  0  0
   -9.3412    3.5124   -2.6892 C   0  0  0  0  0  0  0  0  0  0  0  0
  -10.1185    2.4931   -3.1045 F   0  0  0  0  0  0  0  0  0  0  0  0
  -10.1650    4.5535   -2.4928 F   0  0  0  0  0  0  0  0  0  0  0  0
   -8.8715    3.1618   -1.4853 F   0  0  0  0  0  0  0  0  0  0  0  0
   -8.5569    4.5838   -4.7994 C   0  0  0  0  0  0  0  0  0  0  0  0
   -7.5915    4.8704   -5.7544 C   0  0  0  0  0  0  0  0  0  0  0  0
   -6.3094    4.3752   -5.5730 C   0  0  0  0  0  0  0  0  0  0  0  0
   -5.0926    4.4952   -6.3826 C   0  0  0  0  0  0  0  0  0  0  0  0
   -4.9946    5.2138   -7.5470 C   0  0  0  0  0  0  0  0  0  0  0  0
   -6.0621    5.9295   -8.1297 C   0  0  0  0  0  0  0  0  0  0  0  0
   -6.8835    6.5329   -8.6576 N   0  0  0  0  0  0  0  0  0  0  0  0
   -3.8304    5.3612   -8.3299 C   0  0  0  0  0  0  0  0  0  0  0  0
   -2.9273    5.5338   -9.0191 N   0  0  0  0  0  0  0  0  0  0  0  0
    5.9906   -4.0597    5.6499 H   0  0  0  0  0  0  0  0  0  0  0  0
    3.8707   -3.2262   10.4782 H   0  0  0  0  0  0  0  0  0  0  0  0
   -0.0366   -3.2500    7.3781 H   0  0  0  0  0  0  0  0  0  0  0  0
    7.5112   -4.2631    4.0501 H   0  0  0  0  0  0  0  0  0  0  0  0
    7.6929   -4.2525    2.2860 H   0  0  0  0  0  0  0  0  0  0  0  0
    7.5951   -6.5788    3.1586 H   0  0  0  0  0  0  0  0  0  0  0  0
    6.2034   -6.2461    2.1221 H   0  0  0  0  0  0  0  0  0  0  0  0
    6.0091   -6.2579    3.8732 H   0  0  0  0  0  0  0  0  0  0  0  0
    0.7725    2.9129   -8.0134 H   0  0  0  0  0  0  0  0  0  0  0  0
   -0.9007    3.4170   -8.2870 H   0  0  0  0  0  0  0  0  0  0  0  0
   -0.4773    5.4928   -6.9436 H   0  0  0  0  0  0  0  0  0  0  0  0
    1.1957    4.9781   -6.6985 H   0  0  0  0  0  0  0  0  0  0  0  0
    0.6144    5.3667   -8.3216 H   0  0  0  0  0  0  0  0  0  0  0  0
    1.3134    0.2818    0.4812 H   0  0  0  0  0  0  0  0  0  0  0  0
    2.2513   -0.2847    1.8601 H   0  0  0  0  0  0  0  0  0  0  0  0
    1.1124   -2.4389    1.9046 H   0  0  0  0  0  0  0  0  0  0  0  0
    0.1928   -2.0622    0.4548 H   0  0  0  0  0  0  0  0  0  0  0  0
   -0.0940   -1.1565    1.9465 H   0  0  0  0  0  0  0  0  0  0  0  0
   -0.1102   -0.2103   -0.6977 H   0  0  0  0  0  0  0  0  0  0  0  0
   -0.9653    0.4887   -2.0683 H   0  0  0  0  0  0  0  0  0  0  0  0
   -1.4382   -1.9502   -1.8485 H   0  0  0  0  0  0  0  0  0  0  0  0
    0.2843   -2.3089   -2.0459 H   0  0  0  0  0  0  0  0  0  0  0  0
   -0.6290   -1.5928   -3.3753 H   0  0  0  0  0  0  0  0  0  0  0  0
   -2.5539    4.0271   -7.1408 H   0  0  0  0  0  0  0  0  0  0  0  0
   -6.7219    2.7150   -2.6186 H   0  0  0  0  0  0  0  0  0  0  0  0
   -9.5600    4.9623   -4.9241 H   0  0  0  0  0  0  0  0  0  0  0  0
   -7.8553    5.4653   -6.6127 H   0  0  0  0  0  0  0  0  0  0  0  0
  1  2  2  0  0  0  0
  2  3  1  0  0  0  0
  3  4  2  0  0  0  0
  3  5  1  0  0  0  0
  5  6  2  0  0  0  0
  6  7  1  0  0  0  0
  7  8  1  0  0  0  0
  7  9  2  0  0  0  0
  9 10  1  0  0  0  0
  9 11  1  0  0  0  0
 11 12  2  0  0  0  0
 12 13  1  0  0  0  0
 13 14  2  0  0  0  0
 14 15  1  0  0  0  0
 15 16  3  0  0  0  0
 14 17  1  0  0  0  0
 17 18  3  0  0  0  0
  1 19  1  0  0  0  0
 19 20  2  0  0  0  0
 20 21  1  0  0  0  0
 21 22  1  0  0  0  0
 20 23  1  0  0  0  0
 23 24  1  0  0  0  0
 24 25  1  0  0  0  0
 25 26  1  0  0  0  0
 26 27  1  0  0  0  0
 27 28  1  0  0  0  0
 28 29  2  0  0  0  0
 29 30  1  0  0  0  0
 30 31  1  0  0  0  0
 28 32  1  0  0  0  0
 32 33  1  0  0  0  0
 33 34  1  0  0  0  0
 34 35  1  0  0  0  0
 35 36  1  0  0  0  0
 36 37  1  0  0  0  0
 37 38  1  0  0  0  0
 36 39  2  0  0  0  0
 39 40  1  0  0  0  0
 40 41  1  0  0  0  0
 41 42  1  0  0  0  0
 42 43  1  0  0  0  0
 43 44  1  0  0  0  0
 44 45  1  0  0  0  0
 45 46  1  0  0  0  0
 46 47  1  0  0  0  0
 47 48  1  0  0  0  0
 48 49  1  0  0  0  0
 46 50  1  0  0  0  0
 50 51  1  0  0  0  0
 43 52  1  0  0  0  0
 52 53  1  0  0  0  0
 39 54  1  0  0  0  0
 54 55  2  0  0  0  0
 55 56  1  0  0  0  0
 56 57  2  0  0  0  0
 56 58  1  0  0  0  0
 58 59  2  0  0  0  0
 59 60  1  0  0  0  0
 60 61  1  0  0  0  0
 61 62  1  0  0  0  0
 61 63  1  0  0  0  0
 61 64  1  0  0  0  0
 60 65  2  0  0  0  0
 65 66  1  0  0  0  0
 66 67  2  0  0  0  0
 67 68  1  0  0  0  0
 68 69  2  0  0  0  0
 69 70  1  0  0  0  0
 70 71  3  0  0  0  0
 69 72  1  0  0  0  0
 72 73  3  0  0  0  0
 13  2  1  0  0  0  0
 49 19  1  0  0  0  0
 68 55  1  0  0  0  0
 12  5  1  0  0  0  0
 48 23  2  0  0  0  0
 67 58  1  0  0  0  0
 47 25  2  0  0  0  0
 45 26  2  0  0  0  0
 31 27  2  0  0  0  0
 44 32  2  0  0  0  0
 42 33  2  0  0  0  0
 41 35  2  0  0  0  0
  1 74  1  0  0  0  0
  6 75  1  0  0  0  0
 11 76  1  0  0  0  0
 21 77  1  0  0  0  0
 21 78  1  0  0  0  0
 22 79  1  0  0  0  0
 22 80  1  0  0  0  0
 22 81  1  0  0  0  0
 37 82  1  0  0  0  0
 37 83  1  0  0  0  0
 38 84  1  0  0  0  0
 38 85  1  0  0  0  0
 38 86  1  0  0  0  0
 50 87  1  0  0  0  0
 50 88  1  0  0  0  0
 51 89  1  0  0  0  0
 51 90  1  0  0  0  0
 51 91  1  0  0  0  0
 52 92  1  0  0  0  0
 52 93  1  0  0  0  0
 53 94  1  0  0  0  0
 53 95  1  0  0  0  0
 53 96  1  0  0  0  0
 54 97  1  0  0  0  0
 59 98  1  0  0  0  0
 65 99  1  0  0  0  0
 66100  1  0  0  0  0
M  END
