97

C          0.98190       -8.12330        1.17950
C          1.03320       -8.71490       -0.06280
C          0.87950       -8.03830       -1.34960
O          0.64280       -6.86090       -1.55620
C          1.06750       -9.07950       -2.38190
C          1.03530       -8.94230       -3.75500
C          1.24770      -10.07890       -4.51870
F          1.22760       -9.99280       -5.85460
C          1.48320      -11.31080       -3.90870
F          1.68680      -12.39150       -4.67020
C          1.51330      -11.44760       -2.52830
C          1.30260      -10.31560       -1.75720
C          1.27410      -10.12190       -0.30580
C          1.43620      -11.11820        0.62300
C          1.39940      -10.95630        2.02370
N          1.38150      -10.91100        3.17180
C          1.65710      -12.47360        0.29780
N          1.84550      -13.58920        0.10480
C          0.76840       -6.79750        1.55720
C          0.79210       -6.37470        2.90130
C          1.09000       -7.23850        4.08230
C          2.60130       -7.40170        4.26910
C          0.56030       -5.01190        3.00480
S          0.47970       -3.92750        4.38200
C          0.15940       -2.62220        3.29470
C         -0.10020       -1.24600        3.33600
C         -0.28790       -0.36360        4.42380
C         -0.63370        1.00220        4.15770
N         -0.83220        1.69830        5.26560
S         -0.60000        0.72120        6.53490
N         -0.23640       -0.62830        5.71950
C         -0.64730        1.45390        2.81840
C         -0.75240        2.74270        2.28270
S         -0.99620        4.36540        2.82630
C         -0.74840        4.91830        1.18000
C         -0.73870        6.18410        0.61480
C         -0.92960        7.42820        1.41830
C          0.41890        8.00760        1.85550
C         -0.46850        6.12680       -0.76690
S         -0.25770        4.46740       -1.33280
C         -0.49860        3.87660        0.26640
C         -0.51360        2.63500        0.90480
N         -0.29150        1.32530        0.57350
C         -0.38760        0.57310        1.72550
C         -0.24600       -0.81420        1.98410
N         -0.12970       -1.91470        1.15300
C          0.12280       -3.00430        1.94740
C          0.34420       -4.37100        1.77010
S          0.44230       -5.46490        0.44470
C         -0.72040       -2.15500       -0.14750
C         -2.15630       -2.65920       -0.00750
C          0.25720        0.99420       -0.72290
C         -0.81080        1.00070       -1.81720
C         -0.35030        7.26390       -1.56650
C         -0.09480        7.39830       -2.91340
C          0.02810        6.30990       -3.88140
O         -0.01030        5.10960       -3.67330
C          0.19670        6.95440       -5.20060
C          0.32990        6.35560       -6.43700
C          0.47060        7.18380       -7.53910
F          0.60210        6.64720       -8.75850
C          0.47550        8.57040       -7.38930
F          0.61010        9.34620       -8.47070
C          0.34290        9.17090       -6.14550
C          0.20180        8.34970       -5.03830
C          0.04440        8.65730       -3.61500
C          0.06850        9.91880       -3.07730
C         -0.03430       10.23260       -1.70590
N         -0.09540       10.56960       -0.60920
C          0.22190       11.09870       -3.83610
N          0.34140       12.09570       -4.39170
H          1.14280       -8.78480        2.01940
H          0.85320       -7.98790       -4.22240
H          1.69990      -12.42200       -2.10810
H          0.67240       -6.75850        4.96950
H          0.62980       -8.22200        3.97720
H          2.79850       -8.02250        5.13820
H          3.04930       -7.87540        3.39870
H          3.07120       -6.43230        4.41740
H         -1.51090        7.17260        2.30650
H         -1.48110        8.18030        0.85290
H          1.01720        8.28800        0.99220
H          0.25720        8.89430        2.46110
H          0.97160        7.27780        2.44250
H         -0.11090       -2.91180       -0.64970
H         -0.72070       -1.24910       -0.73990
H         -2.18470       -3.59350        0.54700
H         -2.76700       -1.92530        0.51510
H         -2.57980       -2.83090       -0.99280
H          1.00590        1.75550       -0.96750
H          0.77440        0.03630       -0.65330
H         -1.68770        0.42630       -1.52570
H         -0.40190        0.58330       -2.73290
H         -1.12850        2.01930       -2.02170
H         -0.48350        8.18730       -1.01960
H          0.32480        5.28310       -6.54760
H          0.35160       10.24670       -6.08590
