97

C         -1.92800       -4.90340        5.26290
C         -2.32810       -6.00990        4.54540
C         -2.46540       -6.09330        3.09300
O         -2.19780       -5.24370        2.26120
C         -3.01790       -7.43610        2.81290
C         -3.35500       -7.98850        1.59390
C         -3.87060       -9.27480        1.59270
F         -4.21400       -9.85010        0.43310
C         -4.03660       -9.97440        2.78740
F         -4.53980      -11.21390        2.75740
C         -3.69540       -9.41860        4.01220
C         -3.17980       -8.13250        4.02200
C         -2.73460       -7.27340        5.12180
C         -2.69720       -7.64520        6.44200
C         -2.23820       -6.84820        7.51110
N         -1.87730       -6.26760        8.43490
C         -3.10410       -8.90910        6.91900
N         -3.42000       -9.91480        7.37290
C         -1.50430       -3.64320        4.84410
C         -1.15570       -2.61500        5.74270
C         -1.15090       -2.71870        7.23230
C          0.16000       -3.33600        7.72810
C         -0.74830       -1.47390        5.07080
S         -0.22620        0.10210        5.63730
C         -0.03560        0.59210        3.99120
C          0.32070        1.73350        3.26290
C          0.57890        3.05770        3.68320
C          0.77320        4.07340        2.69030
N          0.93650        5.27450        3.22110
S          0.85850        5.13890        4.83230
N          0.61140        3.54100        4.91470
C          0.84030        3.69250        1.33130
C          1.18660        4.42330        0.18810
S          1.59120        6.04590       -0.25100
C          1.91840        5.48690       -1.88040
C          2.35220        6.14790       -3.02330
C          2.66840        7.60790       -3.04000
C          4.15970        7.84510       -2.78650
C          2.50400        5.25950       -4.09930
S          2.07950        3.60490       -3.66380
C          1.71270        4.10870       -2.05680
C          1.27930        3.50960       -0.86970
N          0.97320        2.25200       -0.42520
C          0.67520        2.33610        0.91980
C          0.27440        1.37400        1.88330
N         -0.14700        0.05860        1.78470
C         -0.34210       -0.40900        3.05990
C         -0.76520       -1.59250        3.66750
S         -1.31930       -3.14200        3.15940
C         -0.84020       -0.60440        0.69970
C         -2.22570        0.00250        0.48940
C          1.28990        1.10620       -1.24780
C          0.23220        0.85610       -2.32140
C          2.95290        5.66410       -5.36390
C          3.19570        4.95070       -6.50690
C          3.02870        3.49410       -6.68770
O          2.62000        2.68600       -5.87150
C          3.45470        3.24590       -8.05580
S          3.60180        1.88480       -9.08120
C          4.18830        2.90190      -10.37020
C          4.54880        2.30170      -11.67860
C          4.25830        4.21950      -10.01090
C          3.83870        4.42270       -8.68350
C          3.68440        5.52230       -7.75070
C          3.95820        6.83340       -8.04600
C          3.81540        7.92890       -7.17300
N          3.72330        8.86610       -6.51430
C          4.42770        7.22030       -9.31870
N          4.81010        7.55810      -10.34660
H         -1.94610       -5.01230        6.33860
H         -3.22580       -7.44330        0.67260
H         -3.84540      -10.00160        4.90570
H         -1.24790       -1.71200        7.64370
H         -1.99040       -3.31660        7.58910
H          1.00660       -2.73310        7.40810
H          0.15490       -3.38520        8.81290
H          0.28230       -4.34440        7.34040
H          2.09220        8.08980       -2.24760
H          2.38590        8.06080       -3.99140
H          4.36850        8.91100       -2.79090
H          4.76170        7.37290       -3.55940
H          4.44890        7.43550       -1.82140
H         -0.26750       -0.55900       -0.22090
H         -0.93800       -1.65480        0.98480
H         -2.73860       -0.51870       -0.31400
H         -2.14810        1.05780        0.23470
H         -2.81960       -0.08970        1.39560
H          2.24290        1.31430       -1.74650
H          1.44110        0.24050       -0.60150
H         -0.76510        0.79250       -1.89450
H          0.24330        1.66580       -3.04580
H          0.45410       -0.06890       -2.84610
H          3.14630        6.72670       -5.42640
H          4.86580        3.07780      -12.37020
H          3.69780        1.77260      -12.10620
H          5.35940        1.58300      -11.56000
H          4.59620        4.99300      -10.67550
