
  xtb     02022200493D
 energy: -187.006847642941 gnorm: 0.000313130004 xtb: 6.4.1 (unknown)
 97108  0     0  0            999 V2000
   -5.7378    5.6581   -1.7446 C   0  0  0  0  0  0  0  0  0  0  0  0
   -6.8595    5.2870   -1.0358 C   0  0  0  0  0  0  0  0  0  0  0  0
   -6.9662    4.1523   -0.1214 C   0  0  0  0  0  0  0  0  0  0  0  0
   -6.1134    3.3269    0.1564 O   0  0  0  0  0  0  0  0  0  0  0  0
   -8.3406    4.1938    0.4211 C   0  0  0  0  0  0  0  0  0  0  0  0
   -8.9287    3.3420    1.3340 C   0  0  0  0  0  0  0  0  0  0  0  0
  -10.2447    3.5916    1.6893 C   0  0  0  0  0  0  0  0  0  0  0  0
  -10.8559    2.7916    2.5722 F   0  0  0  0  0  0  0  0  0  0  0  0
  -10.9374    4.6682    1.1363 C   0  0  0  0  0  0  0  0  0  0  0  0
  -12.2068    4.8867    1.4979 F   0  0  0  0  0  0  0  0  0  0  0  0
  -10.3450    5.5233    0.2180 C   0  0  0  0  0  0  0  0  0  0  0  0
   -9.0292    5.2808   -0.1426 C   0  0  0  0  0  0  0  0  0  0  0  0
   -8.1308    5.9783   -1.0658 C   0  0  0  0  0  0  0  0  0  0  0  0
   -8.4742    7.0727   -1.8186 C   0  0  0  0  0  0  0  0  0  0  0  0
   -9.7478    7.6797   -1.7953 C   0  0  0  0  0  0  0  0  0  0  0  0
  -10.7600    8.2202   -1.8233 N   0  0  0  0  0  0  0  0  0  0  0  0
   -7.6314    7.7490   -2.7249 C   0  0  0  0  0  0  0  0  0  0  0  0
   -7.0115    8.3527   -3.4813 N   0  0  0  0  0  0  0  0  0  0  0  0
   -4.4722    5.0791   -1.8274 C   0  0  0  0  0  0  0  0  0  0  0  0
   -3.4329    5.6203   -2.6110 C   0  0  0  0  0  0  0  0  0  0  0  0
   -3.5006    6.8944   -3.3868 C   0  0  0  0  0  0  0  0  0  0  0  0
   -3.2481    8.1000   -2.4768 C   0  0  0  0  0  0  0  0  0  0  0  0
   -2.2890    4.8414   -2.5398 C   0  0  0  0  0  0  0  0  0  0  0  0
   -0.7092    4.9930   -3.2891 S   0  0  0  0  0  0  0  0  0  0  0  0
   -0.2384    3.5207   -2.5145 C   0  0  0  0  0  0  0  0  0  0  0  0
    0.8597    2.6574   -2.4594 C   0  0  0  0  0  0  0  0  0  0  0  0
    2.0911    2.7126   -3.1485 C   0  0  0  0  0  0  0  0  0  0  0  0
    3.0142    1.6316   -2.9940 C   0  0  0  0  0  0  0  0  0  0  0  0
    4.1078    1.7898   -3.7228 N   0  0  0  0  0  0  0  0  0  0  0  0
    3.9844    3.1860   -4.5330 S   0  0  0  0  0  0  0  0  0  0  0  0
    2.5300    3.6398   -3.9849 N   0  0  0  0  0  0  0  0  0  0  0  0
    2.6916    0.5850   -2.1024 C   0  0  0  0  0  0  0  0  0  0  0  0
    3.4393   -0.5340   -1.7234 C   0  0  0  0  0  0  0  0  0  0  0  0
    4.9607   -1.2748   -2.0790 S   0  0  0  0  0  0  0  0  0  0  0  0
    4.5978   -2.5102   -0.8865 C   0  0  0  0  0  0  0  0  0  0  0  0
    5.2992   -3.6273   -0.4583 C   0  0  0  0  0  0  0  0  0  0  0  0
    6.6582   -3.9752   -0.9708 C   0  0  0  0  0  0  0  0  0  0  0  0
    7.7457   -3.4302   -0.0406 C   0  0  0  0  0  0  0  0  0  0  0  0
    4.5906   -4.3268    0.5376 C   0  0  0  0  0  0  0  0  0  0  0  0
    3.0444   -3.5633    0.9146 S   0  0  0  0  0  0  0  0  0  0  0  0
    3.3539   -2.3353   -0.2526 C   0  0  0  0  0  0  0  0  0  0  0  0
    2.6964   -1.2048   -0.7449 C   0  0  0  0  0  0  0  0  0  0  0  0
    1.5226   -0.5424   -0.5154 N   0  0  0  0  0  0  0  0  0  0  0  0
    1.4726    0.5553   -1.3535 C   0  0  0  0  0  0  0  0  0  0  0  0
    0.5075    1.5758   -1.5906 C   0  0  0  0  0  0  0  0  0  0  0  0
   -0.7916    1.7835   -1.1692 N   0  0  0  0  0  0  0  0  0  0  0  0
   -1.2387    2.9554   -1.7141 C   0  0  0  0  0  0  0  0  0  0  0  0
   -2.4197    3.7000   -1.7251 C   0  0  0  0  0  0  0  0  0  0  0  0
   -3.9827    3.5918   -1.0106 S   0  0  0  0  0  0  0  0  0  0  0  0
   -1.7191    0.9931   -0.3930 C   0  0  0  0  0  0  0  0  0  0  0  0
   -1.8435    1.5112    1.0397 C   0  0  0  0  0  0  0  0  0  0  0  0
    0.6722   -1.0090    0.5561 C   0  0  0  0  0  0  0  0  0  0  0  0
   -0.1844   -2.1994    0.1249 C   0  0  0  0  0  0  0  0  0  0  0  0
    5.0748   -5.4937    1.1322 C   0  0  0  0  0  0  0  0  0  0  0  0
    4.5452   -6.2955    2.1169 C   0  0  0  0  0  0  0  0  0  0  0  0
    3.2813   -6.0698    2.8220 C   0  0  0  0  0  0  0  0  0  0  0  0
    2.4790   -5.1734    2.6357 O   0  0  0  0  0  0  0  0  0  0  0  0
    3.1719   -7.1600    3.8120 C   0  0  0  0  0  0  0  0  0  0  0  0
    2.1927   -7.4265    4.7508 C   0  0  0  0  0  0  0  0  0  0  0  0
    1.1198   -6.6370    4.8705 F   0  0  0  0  0  0  0  0  0  0  0  0
    2.3162   -8.5275    5.5895 C   0  0  0  0  0  0  0  0  0  0  0  0
    3.4228   -9.3503    5.4760 C   0  0  0  0  0  0  0  0  0  0  0  0
    4.4190   -9.1037    4.5384 C   0  0  0  0  0  0  0  0  0  0  0  0
    4.2916   -8.0058    3.7043 C   0  0  0  0  0  0  0  0  0  0  0  0
    5.1594   -7.4960    2.6391 C   0  0  0  0  0  0  0  0  0  0  0  0
    6.3261   -8.0880    2.2250 C   0  0  0  0  0  0  0  0  0  0  0  0
    7.1645   -7.6234    1.1904 C   0  0  0  0  0  0  0  0  0  0  0  0
    7.8978   -7.3160    0.3605 N   0  0  0  0  0  0  0  0  0  0  0  0
    6.8577   -9.2726    2.7766 C   0  0  0  0  0  0  0  0  0  0  0  0
    7.3511  -10.2293    3.1759 N   0  0  0  0  0  0  0  0  0  0  0  0
   -5.8385    6.5508   -2.3463 H   0  0  0  0  0  0  0  0  0  0  0  0
   -8.3888    2.5109    1.7587 H   0  0  0  0  0  0  0  0  0  0  0  0
  -10.9252    6.3402   -0.1782 H   0  0  0  0  0  0  0  0  0  0  0  0
   -4.4697    7.0062   -3.8753 H   0  0  0  0  0  0  0  0  0  0  0  0
   -2.7297    6.8642   -4.1592 H   0  0  0  0  0  0  0  0  0  0  0  0
   -3.2932    9.0153   -3.0597 H   0  0  0  0  0  0  0  0  0  0  0  0
   -2.2659    8.0267   -2.0157 H   0  0  0  0  0  0  0  0  0  0  0  0
   -3.9978    8.1546   -1.6909 H   0  0  0  0  0  0  0  0  0  0  0  0
    6.7756   -3.5234   -1.9577 H   0  0  0  0  0  0  0  0  0  0  0  0
    6.7764   -5.0549   -1.0729 H   0  0  0  0  0  0  0  0  0  0  0  0
    7.6531   -3.8593    0.9543 H   0  0  0  0  0  0  0  0  0  0  0  0
    8.7260   -3.6823   -0.4344 H   0  0  0  0  0  0  0  0  0  0  0  0
    7.6680   -2.3484    0.0388 H   0  0  0  0  0  0  0  0  0  0  0  0
   -2.6977    1.0800   -0.8765 H   0  0  0  0  0  0  0  0  0  0  0  0
   -1.4281   -0.0522   -0.4251 H   0  0  0  0  0  0  0  0  0  0  0  0
   -2.3135    2.4909    1.0414 H   0  0  0  0  0  0  0  0  0  0  0  0
   -0.8704    1.6023    1.5187 H   0  0  0  0  0  0  0  0  0  0  0  0
   -2.4631    0.8356    1.6221 H   0  0  0  0  0  0  0  0  0  0  0  0
    0.0704   -0.1866    0.9316 H   0  0  0  0  0  0  0  0  0  0  0  0
    1.3292   -1.3363    1.3685 H   0  0  0  0  0  0  0  0  0  0  0  0
   -0.7385   -1.9867   -0.7875 H   0  0  0  0  0  0  0  0  0  0  0  0
   -0.8849   -2.4525    0.9154 H   0  0  0  0  0  0  0  0  0  0  0  0
    0.4468   -3.0644   -0.0586 H   0  0  0  0  0  0  0  0  0  0  0  0
    6.0346   -5.8029    0.7421 H   0  0  0  0  0  0  0  0  0  0  0  0
    1.5455   -8.7230    6.3181 H   0  0  0  0  0  0  0  0  0  0  0  0
    3.5155  -10.2035    6.1302 H   0  0  0  0  0  0  0  0  0  0  0  0
    5.2680   -9.7634    4.4765 H   0  0  0  0  0  0  0  0  0  0  0  0
  1  2  2  0  0  0  0
  2  3  1  0  0  0  0
  3  4  2  0  0  0  0
  3  5  1  0  0  0  0
  5  6  2  0  0  0  0
  6  7  1  0  0  0  0
  7  8  1  0  0  0  0
  7  9  2  0  0  0  0
  9 10  1  0  0  0  0
  9 11  1  0  0  0  0
 11 12  2  0  0  0  0
 12 13  1  0  0  0  0
 13 14  2  0  0  0  0
 14 15  1  0  0  0  0
 15 16  3  0  0  0  0
 14 17  1  0  0  0  0
 17 18  3  0  0  0  0
  1 19  1  0  0  0  0
 19 20  2  0  0  0  0
 20 21  1  0  0  0  0
 21 22  1  0  0  0  0
 20 23  1  0  0  0  0
 23 24  1  0  0  0  0
 24 25  1  0  0  0  0
 25 26  1  0  0  0  0
 26 27  1  0  0  0  0
 27 28  1  0  0  0  0
 28 29  2  0  0  0  0
 29 30  1  0  0  0  0
 30 31  1  0  0  0  0
 28 32  1  0  0  0  0
 32 33  1  0  0  0  0
 33 34  1  0  0  0  0
 34 35  1  0  0  0  0
 35 36  1  0  0  0  0
 36 37  1  0  0  0  0
 37 38  1  0  0  0  0
 36 39  2  0  0  0  0
 39 40  1  0  0  0  0
 40 41  1  0  0  0  0
 41 42  1  0  0  0  0
 42 43  1  0  0  0  0
 43 44  1  0  0  0  0
 44 45  1  0  0  0  0
 45 46  1  0  0  0  0
 46 47  1  0  0  0  0
 47 48  1  0  0  0  0
 48 49  1  0  0  0  0
 46 50  1  0  0  0  0
 50 51  1  0  0  0  0
 43 52  1  0  0  0  0
 52 53  1  0  0  0  0
 39 54  1  0  0  0  0
 54 55  2  0  0  0  0
 55 56  1  0  0  0  0
 56 57  2  0  0  0  0
 56 58  1  0  0  0  0
 58 59  2  0  0  0  0
 59 60  1  0  0  0  0
 59 61  1  0  0  0  0
 61 62  2  0  0  0  0
 62 63  1  0  0  0  0
 63 64  2  0  0  0  0
 64 65  1  0  0  0  0
 65 66  2  0  0  0  0
 66 67  1  0  0  0  0
 67 68  3  0  0  0  0
 66 69  1  0  0  0  0
 69 70  3  0  0  0  0
 13  2  1  0  0  0  0
 49 19  1  0  0  0  0
 65 55  1  0  0  0  0
 12  5  1  0  0  0  0
 48 23  2  0  0  0  0
 64 58  1  0  0  0  0
 47 25  2  0  0  0  0
 45 26  2  0  0  0  0
 31 27  2  0  0  0  0
 44 32  2  0  0  0  0
 42 33  2  0  0  0  0
 41 35  2  0  0  0  0
  1 71  1  0  0  0  0
  6 72  1  0  0  0  0
 11 73  1  0  0  0  0
 21 74  1  0  0  0  0
 21 75  1  0  0  0  0
 22 76  1  0  0  0  0
 22 77  1  0  0  0  0
 22 78  1  0  0  0  0
 37 79  1  0  0  0  0
 37 80  1  0  0  0  0
 38 81  1  0  0  0  0
 38 82  1  0  0  0  0
 38 83  1  0  0  0  0
 50 84  1  0  0  0  0
 50 85  1  0  0  0  0
 51 86  1  0  0  0  0
 51 87  1  0  0  0  0
 51 88  1  0  0  0  0
 52 89  1  0  0  0  0
 52 90  1  0  0  0  0
 53 91  1  0  0  0  0
 53 92  1  0  0  0  0
 53 93  1  0  0  0  0
 54 94  1  0  0  0  0
 61 95  1  0  0  0  0
 62 96  1  0  0  0  0
 63 97  1  0  0  0  0
M  END
