
  xtb     02022202333D
 energy: -193.890035390233 gnorm: 0.000761177117 xtb: 6.4.1 (unknown)
100112  0     0  0            999 V2000
   -1.1430    6.2030    4.1751 C   0  0  0  0  0  0  0  0  0  0  0  0
   -2.5037    6.4028    4.1032 C   0  0  0  0  0  0  0  0  0  0  0  0
   -3.4675    5.5418    3.4202 C   0  0  0  0  0  0  0  0  0  0  0  0
   -3.2474    4.5325    2.7736 O   0  0  0  0  0  0  0  0  0  0  0  0
   -4.7962    6.1386    3.6711 C   0  0  0  0  0  0  0  0  0  0  0  0
   -6.0318    5.6901    3.2501 C   0  0  0  0  0  0  0  0  0  0  0  0
   -7.1439    6.4275    3.6241 C   0  0  0  0  0  0  0  0  0  0  0  0
   -8.3628    6.0298    3.2391 F   0  0  0  0  0  0  0  0  0  0  0  0
   -7.0048    7.5792    4.3982 C   0  0  0  0  0  0  0  0  0  0  0  0
   -8.0955    8.2709    4.7464 F   0  0  0  0  0  0  0  0  0  0  0  0
   -5.7620    8.0295    4.8199 C   0  0  0  0  0  0  0  0  0  0  0  0
   -4.6447    7.2979    4.4500 C   0  0  0  0  0  0  0  0  0  0  0  0
   -3.2201    7.4957    4.7266 C   0  0  0  0  0  0  0  0  0  0  0  0
   -2.6974    8.5411    5.4446 C   0  0  0  0  0  0  0  0  0  0  0  0
   -1.3291    8.7607    5.7074 C   0  0  0  0  0  0  0  0  0  0  0  0
   -0.2383    9.0119    5.9678 N   0  0  0  0  0  0  0  0  0  0  0  0
   -3.4726    9.5670    6.0258 C   0  0  0  0  0  0  0  0  0  0  0  0
   -4.0434   10.4289    6.5245 N   0  0  0  0  0  0  0  0  0  0  0  0
   -0.3346    5.1931    3.6537 C   0  0  0  0  0  0  0  0  0  0  0  0
    1.0565    5.1405    3.8689 C   0  0  0  0  0  0  0  0  0  0  0  0
    1.8686    6.1630    4.5931 C   0  0  0  0  0  0  0  0  0  0  0  0
    2.2270    7.3243    3.6611 C   0  0  0  0  0  0  0  0  0  0  0  0
    1.6194    4.0275    3.2641 C   0  0  0  0  0  0  0  0  0  0  0  0
    3.2654    3.4234    3.2130 S   0  0  0  0  0  0  0  0  0  0  0  0
    2.7077    2.0860    2.2713 C   0  0  0  0  0  0  0  0  0  0  0  0
    3.2147    0.9175    1.6925 C   0  0  0  0  0  0  0  0  0  0  0  0
    4.4971    0.3302    1.7738 C   0  0  0  0  0  0  0  0  0  0  0  0
    4.7008   -0.9644    1.1962 C   0  0  0  0  0  0  0  0  0  0  0  0
    5.9266   -1.4215    1.3975 N   0  0  0  0  0  0  0  0  0  0  0  0
    6.7547   -0.3143    2.2388 S   0  0  0  0  0  0  0  0  0  0  0  0
    5.5803    0.7907    2.3791 N   0  0  0  0  0  0  0  0  0  0  0  0
    3.6494   -1.5530    0.4587 C   0  0  0  0  0  0  0  0  0  0  0  0
    3.6179   -2.7231   -0.3102 C   0  0  0  0  0  0  0  0  0  0  0  0
    4.6387   -4.0640   -0.6874 S   0  0  0  0  0  0  0  0  0  0  0  0
    3.3962   -4.6715   -1.7572 C   0  0  0  0  0  0  0  0  0  0  0  0
    3.3414   -5.7915   -2.5895 C   0  0  0  0  0  0  0  0  0  0  0  0
    4.4034   -6.8361   -2.6413 C   0  0  0  0  0  0  0  0  0  0  0  0
    4.0142   -8.0300   -1.7652 C   0  0  0  0  0  0  0  0  0  0  0  0
    2.1321   -5.8587   -3.2751 C   0  0  0  0  0  0  0  0  0  0  0  0
    1.0810   -4.4926   -2.8941 S   0  0  0  0  0  0  0  0  0  0  0  0
    2.2547   -3.8584   -1.8023 C   0  0  0  0  0  0  0  0  0  0  0  0
    2.3774   -2.7501   -0.9607 C   0  0  0  0  0  0  0  0  0  0  0  0
    1.6302   -1.6662   -0.5883 N   0  0  0  0  0  0  0  0  0  0  0  0
    2.3849   -0.9145    0.2974 C   0  0  0  0  0  0  0  0  0  0  0  0
    2.1265    0.2773    1.0260 C   0  0  0  0  0  0  0  0  0  0  0  0
    0.9849    1.0278    1.2420 N   0  0  0  0  0  0  0  0  0  0  0  0
    1.3334    2.1145    1.9985 C   0  0  0  0  0  0  0  0  0  0  0  0
    0.6976    3.2172    2.5745 C   0  0  0  0  0  0  0  0  0  0  0  0
   -0.9073    3.8347    2.6802 S   0  0  0  0  0  0  0  0  0  0  0  0
   -0.4105    0.6667    1.1139 C   0  0  0  0  0  0  0  0  0  0  0  0
   -0.7405   -0.5884    1.9170 C   0  0  0  0  0  0  0  0  0  0  0  0
    0.4595   -1.3042   -1.3559 C   0  0  0  0  0  0  0  0  0  0  0  0
    0.7028   -0.0486   -2.1892 C   0  0  0  0  0  0  0  0  0  0  0  0
    1.7918   -6.8050   -4.2606 C   0  0  0  0  0  0  0  0  0  0  0  0
    0.5780   -7.0866   -4.8156 C   0  0  0  0  0  0  0  0  0  0  0  0
    0.5132   -7.7123   -6.1597 C   0  0  0  0  0  0  0  0  0  0  0  0
    1.4217   -8.2357   -6.7645 O   0  0  0  0  0  0  0  0  0  0  0  0
   -0.8762   -7.4966   -6.6172 C   0  0  0  0  0  0  0  0  0  0  0  0
   -1.4241   -7.7836   -7.8432 C   0  0  0  0  0  0  0  0  0  0  0  0
   -2.7697   -7.4594   -8.0490 C   0  0  0  0  0  0  0  0  0  0  0  0
   -3.5573   -7.6502   -9.2175 C   0  0  0  0  0  0  0  0  0  0  0  0
   -4.8257   -7.2060   -9.0534 C   0  0  0  0  0  0  0  0  0  0  0  0
   -6.1964   -7.2569  -10.3326 Br  0  0  0  0  0  0  0  0  0  0  0  0
   -5.1446   -6.5308   -7.4773 S   0  0  0  0  0  0  0  0  0  0  0  0
   -3.5055   -6.8558   -7.0015 C   0  0  0  0  0  0  0  0  0  0  0  0
   -2.9554   -6.5747   -5.7565 C   0  0  0  0  0  0  0  0  0  0  0  0
   -1.6272   -6.9035   -5.5705 C   0  0  0  0  0  0  0  0  0  0  0  0
   -0.7707   -6.7866   -4.3957 C   0  0  0  0  0  0  0  0  0  0  0  0
   -1.2027   -6.6949   -3.0964 C   0  0  0  0  0  0  0  0  0  0  0  0
   -2.5392   -6.4552   -2.7273 C   0  0  0  0  0  0  0  0  0  0  0  0
   -3.6120   -6.2344   -2.3824 N   0  0  0  0  0  0  0  0  0  0  0  0
   -0.3503   -6.9315   -1.9985 C   0  0  0  0  0  0  0  0  0  0  0  0
    0.3122   -7.1783   -1.0939 N   0  0  0  0  0  0  0  0  0  0  0  0
   -0.5910    6.9411    4.7404 H   0  0  0  0  0  0  0  0  0  0  0  0
   -6.1345    4.7984    2.6526 H   0  0  0  0  0  0  0  0  0  0  0  0
   -5.7106    8.9247    5.4172 H   0  0  0  0  0  0  0  0  0  0  0  0
    1.3357    6.5488    5.4630 H   0  0  0  0  0  0  0  0  0  0  0  0
    2.7883    5.6866    4.9383 H   0  0  0  0  0  0  0  0  0  0  0  0
    1.3288    7.8163    3.2956 H   0  0  0  0  0  0  0  0  0  0  0  0
    2.7978    6.9630    2.8088 H   0  0  0  0  0  0  0  0  0  0  0  0
    2.8244    8.0551    4.1981 H   0  0  0  0  0  0  0  0  0  0  0  0
    4.5541   -7.1727   -3.6690 H   0  0  0  0  0  0  0  0  0  0  0  0
    5.3368   -6.4039   -2.2756 H   0  0  0  0  0  0  0  0  0  0  0  0
    4.7949   -8.7852   -1.7962 H   0  0  0  0  0  0  0  0  0  0  0  0
    3.0830   -8.4705   -2.1131 H   0  0  0  0  0  0  0  0  0  0  0  0
    3.8761   -7.7120   -0.7350 H   0  0  0  0  0  0  0  0  0  0  0  0
   -0.6846    0.5573    0.0643 H   0  0  0  0  0  0  0  0  0  0  0  0
   -0.9856    1.5075    1.5090 H   0  0  0  0  0  0  0  0  0  0  0  0
   -0.1393   -1.4362    1.5968 H   0  0  0  0  0  0  0  0  0  0  0  0
   -1.7912   -0.8371    1.7965 H   0  0  0  0  0  0  0  0  0  0  0  0
   -0.5463   -0.4150    2.9729 H   0  0  0  0  0  0  0  0  0  0  0  0
   -0.4083   -1.1942   -0.7051 H   0  0  0  0  0  0  0  0  0  0  0  0
    0.2540   -2.1450   -2.0230 H   0  0  0  0  0  0  0  0  0  0  0  0
    1.5135   -0.2210   -2.8934 H   0  0  0  0  0  0  0  0  0  0  0  0
   -0.1937    0.2028   -2.7491 H   0  0  0  0  0  0  0  0  0  0  0  0
    0.9739    0.7964   -1.5607 H   0  0  0  0  0  0  0  0  0  0  0  0
    2.6300   -7.3209   -4.7204 H   0  0  0  0  0  0  0  0  0  0  0  0
   -0.8351   -8.2449   -8.6203 H   0  0  0  0  0  0  0  0  0  0  0  0
   -3.1896   -8.0943  -10.1245 H   0  0  0  0  0  0  0  0  0  0  0  0
   -3.5502   -6.1116   -4.9863 H   0  0  0  0  0  0  0  0  0  0  0  0
  1  2  2  0  0  0  0
  2  3  1  0  0  0  0
  3  4  2  0  0  0  0
  3  5  1  0  0  0  0
  5  6  2  0  0  0  0
  6  7  1  0  0  0  0
  7  8  1  0  0  0  0
  7  9  2  0  0  0  0
  9 10  1  0  0  0  0
  9 11  1  0  0  0  0
 11 12  2  0  0  0  0
 12 13  1  0  0  0  0
 13 14  2  0  0  0  0
 14 15  1  0  0  0  0
 15 16  3  0  0  0  0
 14 17  1  0  0  0  0
 17 18  3  0  0  0  0
  1 19  1  0  0  0  0
 19 20  2  0  0  0  0
 20 21  1  0  0  0  0
 21 22  1  0  0  0  0
 20 23  1  0  0  0  0
 23 24  1  0  0  0  0
 24 25  1  0  0  0  0
 25 26  1  0  0  0  0
 26 27  1  0  0  0  0
 27 28  1  0  0  0  0
 28 29  2  0  0  0  0
 29 30  1  0  0  0  0
 30 31  1  0  0  0  0
 28 32  1  0  0  0  0
 32 33  1  0  0  0  0
 33 34  1  0  0  0  0
 34 35  1  0  0  0  0
 35 36  1  0  0  0  0
 36 37  1  0  0  0  0
 37 38  1  0  0  0  0
 36 39  2  0  0  0  0
 39 40  1  0  0  0  0
 40 41  1  0  0  0  0
 41 42  1  0  0  0  0
 42 43  1  0  0  0  0
 43 44  1  0  0  0  0
 44 45  1  0  0  0  0
 45 46  1  0  0  0  0
 46 47  1  0  0  0  0
 47 48  1  0  0  0  0
 48 49  1  0  0  0  0
 46 50  1  0  0  0  0
 50 51  1  0  0  0  0
 43 52  1  0  0  0  0
 52 53  1  0  0  0  0
 39 54  1  0  0  0  0
 54 55  2  0  0  0  0
 55 56  1  0  0  0  0
 56 57  2  0  0  0  0
 56 58  1  0  0  0  0
 58 59  2  0  0  0  0
 59 60  1  0  0  0  0
 60 61  1  0  0  0  0
 61 62  2  0  0  0  0
 62 63  1  0  0  0  0
 62 64  1  0  0  0  0
 64 65  1  0  0  0  0
 65 66  1  0  0  0  0
 66 67  2  0  0  0  0
 67 68  1  0  0  0  0
 68 69  2  0  0  0  0
 69 70  1  0  0  0  0
 70 71  3  0  0  0  0
 69 72  1  0  0  0  0
 72 73  3  0  0  0  0
 13  2  1  0  0  0  0
 49 19  1  0  0  0  0
 68 55  1  0  0  0  0
 12  5  1  0  0  0  0
 48 23  2  0  0  0  0
 67 58  1  0  0  0  0
 47 25  2  0  0  0  0
 65 60  2  0  0  0  0
 45 26  2  0  0  0  0
 31 27  2  0  0  0  0
 44 32  2  0  0  0  0
 42 33  2  0  0  0  0
 41 35  2  0  0  0  0
  1 74  1  0  0  0  0
  6 75  1  0  0  0  0
 11 76  1  0  0  0  0
 21 77  1  0  0  0  0
 21 78  1  0  0  0  0
 22 79  1  0  0  0  0
 22 80  1  0  0  0  0
 22 81  1  0  0  0  0
 37 82  1  0  0  0  0
 37 83  1  0  0  0  0
 38 84  1  0  0  0  0
 38 85  1  0  0  0  0
 38 86  1  0  0  0  0
 50 87  1  0  0  0  0
 50 88  1  0  0  0  0
 51 89  1  0  0  0  0
 51 90  1  0  0  0  0
 51 91  1  0  0  0  0
 52 92  1  0  0  0  0
 52 93  1  0  0  0  0
 53 94  1  0  0  0  0
 53 95  1  0  0  0  0
 53 96  1  0  0  0  0
 54 97  1  0  0  0  0
 59 98  1  0  0  0  0
 61 99  1  0  0  0  0
 66100  1  0  0  0  0
M  END
