103

C          4.23900        7.35640       -0.92040
C          4.45900        7.45040       -2.27750
C          4.32120        6.37000       -3.25150
O          4.03170        5.20370       -3.04680
C          4.61140        6.96990       -4.57070
C          4.59750        6.36340       -5.81040
C          4.90160        7.14740       -6.91170
F          4.89780        6.60220       -8.13470
C          5.20970        8.49870       -6.75760
F          5.49760        9.23300       -7.83820
C          5.22510        9.10660       -5.51030
C          4.92160        8.32970       -4.40370
C          4.84420        8.65740       -2.97800
C          5.09750        9.89500       -2.44300
C          5.47100       11.02320       -3.20380
N          5.77640       11.97860       -3.76190
C          5.02920       10.23410       -1.07570
N          4.99510       10.59240        0.01570
C          3.82660        6.28310       -0.13180
C          3.57520        6.39840        1.25010
C          3.69430        7.64980        2.05610
C          2.42290        8.49540        1.93810
C          3.11930        5.20250        1.78250
S          2.58220        4.75490        3.39220
C          2.23180        3.16870        2.79890
C          1.65210        1.97520        3.24490
C          1.01520        1.65670        4.46560
C          0.30260        0.41750        4.56990
N         -0.30870        0.28260        5.73600
S         -0.00710        1.59780        6.62920
N          0.91120        2.39380        5.55980
C          0.36340       -0.49800        3.49550
C         -0.17960       -1.78190        3.34680
S         -1.24660       -2.85810        4.17870
C         -1.06840       -4.00410        2.87000
C         -1.67730       -5.24150        2.62010
C         -2.56170       -5.91300        3.61820
C         -1.99830       -7.25890        4.07460
C         -1.24020       -5.77460        1.41690
S         -0.02030       -4.76060        0.63710
C         -0.18670       -3.57120        1.87160
C          0.30160       -2.28800        2.13390
N          1.09140       -1.35830        1.51420
C          1.12170       -0.23000        2.31880
C          1.66680        1.06870        2.14210
N          2.21920        1.71790        1.05450
C          2.54120        2.98990        1.44370
C          3.03710        4.15180        0.84920
S          3.51520        4.64980       -0.72830
C          2.17620        1.39100       -0.35320
C          0.74070        1.26380       -0.85610
C          1.99310       -1.77470        0.46160
C          3.45010       -1.70200        0.90960
C         -1.56880       -6.97550        0.74010
C         -2.82370       -7.47200        0.53520
C         -4.05770       -6.65860        0.62060
O         -4.20010       -5.57460        1.14360
C         -5.06560       -7.40700       -0.16190
C         -6.34490       -7.01960       -0.49910
C         -7.10540       -7.88790       -1.28260
C         -8.48340       -7.53820       -1.72090
O         -9.19410       -8.26950       -2.36410
O         -8.84390       -6.30960       -1.33270
C        -10.14050       -5.88860       -1.73020
C         -6.57750       -9.11170       -1.69470
C         -5.29030       -9.49860       -1.35600
C         -4.52390       -8.63420       -0.58860
C         -3.14910       -8.72840       -0.10750
C         -2.33680       -9.82890       -0.16180
C         -1.05830       -9.87860        0.43450
N         -0.02730       -9.97680        0.92920
C         -2.69670      -11.05090       -0.76660
N         -2.93660      -12.06320       -1.25090
H          4.38500        8.26820       -0.35800
H          4.35790        5.31820       -5.92400
H          5.46940       10.15410       -5.44780
H          4.55400        8.24150        1.73900
H          3.83800        7.36930        3.10130
H          1.56120        7.93390        2.29130
H          2.24840        8.78790        0.90540
H          2.52390        9.39520        2.53790
H         -2.65740       -5.24900        4.47990
H         -3.55550       -6.04820        3.18970
H         -1.89430       -7.94650        3.23860
H         -1.01960       -7.12500        4.53020
H         -2.66170       -7.70620        4.81020
H          2.66850        2.21260       -0.87880
H          2.75550        0.48950       -0.55320
H          0.74150        1.01030       -1.91250
H          0.19400        0.49890       -0.30960
H          0.21940        2.20970       -0.72940
H          1.73940       -2.81240        0.23100
H          1.82250       -1.19570       -0.44680
H          3.61070       -2.35930        1.76100
H          3.72430       -0.69210        1.20490
H          4.10100       -2.02030        0.09990
H         -0.73710       -7.47390        0.25250
H         -6.73940       -6.07160       -0.16990
H        -10.22450       -5.89860       -2.81880
H        -10.26300       -4.87940       -1.34580
H        -10.89980       -6.55400       -1.31440
H         -7.20000       -9.75440       -2.29900
H         -4.90140      -10.44380       -1.69900
