
  xtb     02012221493D
 energy: -186.360813797096 gnorm: 0.000415135819 xtb: 6.4.1 (unknown)
 97108  0     0  0            999 V2000
    7.8267    0.2622    2.4112 C   0  0  0  0  0  0  0  0  0  0  0  0
    7.7672    0.9046    3.6284 C   0  0  0  0  0  0  0  0  0  0  0  0
    6.5524    1.3131    4.3308 C   0  0  0  0  0  0  0  0  0  0  0  0
    5.3944    1.1587    3.9834 O   0  0  0  0  0  0  0  0  0  0  0  0
    7.0021    1.9692    5.5764 C   0  0  0  0  0  0  0  0  0  0  0  0
    6.2333    2.5298    6.5763 C   0  0  0  0  0  0  0  0  0  0  0  0
    6.8956    3.0918    7.6559 C   0  0  0  0  0  0  0  0  0  0  0  0
    6.1911    3.6482    8.6492 F   0  0  0  0  0  0  0  0  0  0  0  0
    8.2889    3.0830    7.7170 C   0  0  0  0  0  0  0  0  0  0  0  0
    8.9024    3.6313    8.7717 F   0  0  0  0  0  0  0  0  0  0  0  0
    9.0603    2.5197    6.7106 C   0  0  0  0  0  0  0  0  0  0  0  0
    8.4058    1.9567    5.6266 C   0  0  0  0  0  0  0  0  0  0  0  0
    8.9134    1.2968    4.4214 C   0  0  0  0  0  0  0  0  0  0  0  0
   10.2406    1.1081    4.1305 C   0  0  0  0  0  0  0  0  0  0  0  0
   10.7523    0.4733    2.9795 C   0  0  0  0  0  0  0  0  0  0  0  0
   11.2493   -0.0297    2.0737 N   0  0  0  0  0  0  0  0  0  0  0  0
   11.3000    1.5326    4.9603 C   0  0  0  0  0  0  0  0  0  0  0  0
   12.2074    1.8521    5.5863 N   0  0  0  0  0  0  0  0  0  0  0  0
    6.8170   -0.1520    1.5428 C   0  0  0  0  0  0  0  0  0  0  0  0
    7.0768   -0.7967    0.3172 C   0  0  0  0  0  0  0  0  0  0  0  0
    8.4241   -1.1873   -0.1945 C   0  0  0  0  0  0  0  0  0  0  0  0
    8.8757   -2.5148    0.4214 C   0  0  0  0  0  0  0  0  0  0  0  0
    5.9023   -1.0874   -0.3599 C   0  0  0  0  0  0  0  0  0  0  0  0
    5.5912   -1.8571   -1.9059 S   0  0  0  0  0  0  0  0  0  0  0  0
    3.8985   -1.6220   -1.6435 C   0  0  0  0  0  0  0  0  0  0  0  0
    2.6812   -1.8924   -2.2773 C   0  0  0  0  0  0  0  0  0  0  0  0
    2.4105   -2.5804   -3.4808 C   0  0  0  0  0  0  0  0  0  0  0  0
    1.0479   -2.7900   -3.8634 C   0  0  0  0  0  0  0  0  0  0  0  0
    0.9373   -3.4792   -4.9881 N   0  0  0  0  0  0  0  0  0  0  0  0
    2.4246   -3.8310   -5.5211 S   0  0  0  0  0  0  0  0  0  0  0  0
    3.2659   -3.1179   -4.3362 N   0  0  0  0  0  0  0  0  0  0  0  0
    0.0241   -2.2334   -3.0653 C   0  0  0  0  0  0  0  0  0  0  0  0
   -1.3616   -2.2119   -3.2567 C   0  0  0  0  0  0  0  0  0  0  0  0
   -2.5377   -2.8038   -4.3776 S   0  0  0  0  0  0  0  0  0  0  0  0
   -3.7854   -2.0047   -3.4370 C   0  0  0  0  0  0  0  0  0  0  0  0
   -5.1616   -1.9236   -3.5910 C   0  0  0  0  0  0  0  0  0  0  0  0
   -5.8831   -2.5351   -4.7465 C   0  0  0  0  0  0  0  0  0  0  0  0
   -6.0793   -1.5103   -5.8676 C   0  0  0  0  0  0  0  0  0  0  0  0
   -5.7481   -1.1552   -2.5672 C   0  0  0  0  0  0  0  0  0  0  0  0
   -4.5490   -0.5532   -1.4192 S   0  0  0  0  0  0  0  0  0  0  0  0
   -3.2912   -1.3184   -2.3128 C   0  0  0  0  0  0  0  0  0  0  0  0
   -1.9030   -1.4454   -2.2174 C   0  0  0  0  0  0  0  0  0  0  0  0
   -0.9069   -1.0168   -1.3832 N   0  0  0  0  0  0  0  0  0  0  0  0
    0.2973   -1.4879   -1.8768 C   0  0  0  0  0  0  0  0  0  0  0  0
    1.6449   -1.3837   -1.4344 C   0  0  0  0  0  0  0  0  0  0  0  0
    2.2390   -0.8408   -0.3084 N   0  0  0  0  0  0  0  0  0  0  0  0
    3.5939   -0.9886   -0.4321 C   0  0  0  0  0  0  0  0  0  0  0  0
    4.7347   -0.6794    0.3122 C   0  0  0  0  0  0  0  0  0  0  0  0
    5.0875    0.0752    1.8195 S   0  0  0  0  0  0  0  0  0  0  0  0
    1.6912   -0.4959    0.9850 C   0  0  0  0  0  0  0  0  0  0  0  0
    1.0810   -1.7147    1.6732 C   0  0  0  0  0  0  0  0  0  0  0  0
   -1.2018    0.0213   -0.4207 C   0  0  0  0  0  0  0  0  0  0  0  0
   -0.6716    1.3763   -0.8838 C   0  0  0  0  0  0  0  0  0  0  0  0
   -7.1202   -0.9097   -2.4923 C   0  0  0  0  0  0  0  0  0  0  0  0
   -7.8623   -0.1976   -1.5776 C   0  0  0  0  0  0  0  0  0  0  0  0
   -7.3468    0.4847   -0.3919 C   0  0  0  0  0  0  0  0  0  0  0  0
   -6.1900    0.5722   -0.0177 O   0  0  0  0  0  0  0  0  0  0  0  0
   -8.5237    1.0603    0.2912 C   0  0  0  0  0  0  0  0  0  0  0  0
   -8.5633    1.7851    1.4634 C   0  0  0  0  0  0  0  0  0  0  0  0
   -9.8089    2.2131    1.9031 C   0  0  0  0  0  0  0  0  0  0  0  0
   -9.9302    3.2147    3.5133 Br  0  0  0  0  0  0  0  0  0  0  0  0
  -10.9679    1.9259    1.1953 C   0  0  0  0  0  0  0  0  0  0  0  0
  -10.9152    1.1960    0.0165 C   0  0  0  0  0  0  0  0  0  0  0  0
   -9.6827    0.7566   -0.4437 C   0  0  0  0  0  0  0  0  0  0  0  0
   -9.2998   -0.0206   -1.6229 C   0  0  0  0  0  0  0  0  0  0  0  0
  -10.1707   -0.4731   -2.5818 C   0  0  0  0  0  0  0  0  0  0  0  0
   -9.8234   -1.2130   -3.7309 C   0  0  0  0  0  0  0  0  0  0  0  0
   -9.6232   -1.8136   -4.6900 N   0  0  0  0  0  0  0  0  0  0  0  0
  -11.5634   -0.2496   -2.5522 C   0  0  0  0  0  0  0  0  0  0  0  0
  -12.7013   -0.1025   -2.5915 N   0  0  0  0  0  0  0  0  0  0  0  0
    8.8200    0.0370    2.0485 H   0  0  0  0  0  0  0  0  0  0  0  0
    5.1563    2.5336    6.5245 H   0  0  0  0  0  0  0  0  0  0  0  0
   10.1331    2.5405    6.8076 H   0  0  0  0  0  0  0  0  0  0  0  0
    8.3566   -1.3027   -1.2780 H   0  0  0  0  0  0  0  0  0  0  0  0
    9.1660   -0.4174    0.0220 H   0  0  0  0  0  0  0  0  0  0  0  0
    9.8504   -2.7884    0.0283 H   0  0  0  0  0  0  0  0  0  0  0  0
    8.9517   -2.4325    1.5030 H   0  0  0  0  0  0  0  0  0  0  0  0
    8.1670   -3.3039    0.1811 H   0  0  0  0  0  0  0  0  0  0  0  0
   -5.2814   -3.3643   -5.1238 H   0  0  0  0  0  0  0  0  0  0  0  0
   -6.8541   -2.9278   -4.4418 H   0  0  0  0  0  0  0  0  0  0  0  0
   -6.5929   -1.9754   -6.7038 H   0  0  0  0  0  0  0  0  0  0  0  0
   -5.1176   -1.1363   -6.2109 H   0  0  0  0  0  0  0  0  0  0  0  0
   -6.6771   -0.6703   -5.5219 H   0  0  0  0  0  0  0  0  0  0  0  0
    2.5249   -0.1259    1.5864 H   0  0  0  0  0  0  0  0  0  0  0  0
    0.9766    0.3205    0.8946 H   0  0  0  0  0  0  0  0  0  0  0  0
    0.3049   -2.1689    1.0609 H   0  0  0  0  0  0  0  0  0  0  0  0
    0.6532   -1.4243    2.6287 H   0  0  0  0  0  0  0  0  0  0  0  0
    1.8503   -2.4618    1.8533 H   0  0  0  0  0  0  0  0  0  0  0  0
   -2.2904    0.0716   -0.3419 H   0  0  0  0  0  0  0  0  0  0  0  0
   -0.8231   -0.2491    0.5636 H   0  0  0  0  0  0  0  0  0  0  0  0
    0.4008    1.3421   -1.0641 H   0  0  0  0  0  0  0  0  0  0  0  0
   -1.1613    1.6682   -1.8098 H   0  0  0  0  0  0  0  0  0  0  0  0
   -0.8802    2.1319   -0.1315 H   0  0  0  0  0  0  0  0  0  0  0  0
   -7.6799   -1.3669   -3.2966 H   0  0  0  0  0  0  0  0  0  0  0  0
   -7.6588    2.0043    2.0092 H   0  0  0  0  0  0  0  0  0  0  0  0
  -11.9196    2.2737    1.5667 H   0  0  0  0  0  0  0  0  0  0  0  0
  -11.8288    0.9851   -0.5141 H   0  0  0  0  0  0  0  0  0  0  0  0
  1  2  2  0  0  0  0
  2  3  1  0  0  0  0
  3  4  2  0  0  0  0
  3  5  1  0  0  0  0
  5  6  2  0  0  0  0
  6  7  1  0  0  0  0
  7  8  1  0  0  0  0
  7  9  2  0  0  0  0
  9 10  1  0  0  0  0
  9 11  1  0  0  0  0
 11 12  2  0  0  0  0
 12 13  1  0  0  0  0
 13 14  2  0  0  0  0
 14 15  1  0  0  0  0
 15 16  3  0  0  0  0
 14 17  1  0  0  0  0
 17 18  3  0  0  0  0
  1 19  1  0  0  0  0
 19 20  2  0  0  0  0
 20 21  1  0  0  0  0
 21 22  1  0  0  0  0
 20 23  1  0  0  0  0
 23 24  1  0  0  0  0
 24 25  1  0  0  0  0
 25 26  1  0  0  0  0
 26 27  1  0  0  0  0
 27 28  1  0  0  0  0
 28 29  2  0  0  0  0
 29 30  1  0  0  0  0
 30 31  1  0  0  0  0
 28 32  1  0  0  0  0
 32 33  1  0  0  0  0
 33 34  1  0  0  0  0
 34 35  1  0  0  0  0
 35 36  1  0  0  0  0
 36 37  1  0  0  0  0
 37 38  1  0  0  0  0
 36 39  2  0  0  0  0
 39 40  1  0  0  0  0
 40 41  1  0  0  0  0
 41 42  1  0  0  0  0
 42 43  1  0  0  0  0
 43 44  1  0  0  0  0
 44 45  1  0  0  0  0
 45 46  1  0  0  0  0
 46 47  1  0  0  0  0
 47 48  1  0  0  0  0
 48 49  1  0  0  0  0
 46 50  1  0  0  0  0
 50 51  1  0  0  0  0
 43 52  1  0  0  0  0
 52 53  1  0  0  0  0
 39 54  1  0  0  0  0
 54 55  2  0  0  0  0
 55 56  1  0  0  0  0
 56 57  2  0  0  0  0
 56 58  1  0  0  0  0
 58 59  2  0  0  0  0
 59 60  1  0  0  0  0
 60 61  1  0  0  0  0
 60 62  2  0  0  0  0
 62 63  1  0  0  0  0
 63 64  2  0  0  0  0
 64 65  1  0  0  0  0
 65 66  2  0  0  0  0
 66 67  1  0  0  0  0
 67 68  3  0  0  0  0
 66 69  1  0  0  0  0
 69 70  3  0  0  0  0
 13  2  1  0  0  0  0
 49 19  1  0  0  0  0
 65 55  1  0  0  0  0
 12  5  1  0  0  0  0
 48 23  2  0  0  0  0
 64 58  1  0  0  0  0
 47 25  2  0  0  0  0
 45 26  2  0  0  0  0
 31 27  2  0  0  0  0
 44 32  2  0  0  0  0
 42 33  2  0  0  0  0
 41 35  2  0  0  0  0
  1 71  1  0  0  0  0
  6 72  1  0  0  0  0
 11 73  1  0  0  0  0
 21 74  1  0  0  0  0
 21 75  1  0  0  0  0
 22 76  1  0  0  0  0
 22 77  1  0  0  0  0
 22 78  1  0  0  0  0
 37 79  1  0  0  0  0
 37 80  1  0  0  0  0
 38 81  1  0  0  0  0
 38 82  1  0  0  0  0
 38 83  1  0  0  0  0
 50 84  1  0  0  0  0
 50 85  1  0  0  0  0
 51 86  1  0  0  0  0
 51 87  1  0  0  0  0
 51 88  1  0  0  0  0
 52 89  1  0  0  0  0
 52 90  1  0  0  0  0
 53 91  1  0  0  0  0
 53 92  1  0  0  0  0
 53 93  1  0  0  0  0
 54 94  1  0  0  0  0
 59 95  1  0  0  0  0
 62 96  1  0  0  0  0
 63 97  1  0  0  0  0
M  END
