
  xtb     02012222183D
 energy: -186.988410423224 gnorm: 0.000199344783 xtb: 6.4.1 (unknown)
 97108  0     0  0            999 V2000
   -7.9132   -2.7974   -0.4181 C   0  0  0  0  0  0  0  0  0  0  0  0
   -8.4413   -3.7800   -1.2077 C   0  0  0  0  0  0  0  0  0  0  0  0
   -9.6919   -4.4620   -0.7953 C   0  0  0  0  0  0  0  0  0  0  0  0
  -10.2617   -4.3630    0.2666 O   0  0  0  0  0  0  0  0  0  0  0  0
  -10.1120   -5.2481   -1.9796 C   0  0  0  0  0  0  0  0  0  0  0  0
  -11.2603   -5.9940   -2.1566 C   0  0  0  0  0  0  0  0  0  0  0  0
  -11.4364   -6.6248   -3.3782 C   0  0  0  0  0  0  0  0  0  0  0  0
  -12.5358   -7.3569   -3.5933 F   0  0  0  0  0  0  0  0  0  0  0  0
  -10.4813   -6.5024   -4.3879 C   0  0  0  0  0  0  0  0  0  0  0  0
  -10.6853   -7.1102   -5.5616 F   0  0  0  0  0  0  0  0  0  0  0  0
   -9.3221   -5.7624   -4.2073 C   0  0  0  0  0  0  0  0  0  0  0  0
   -9.1385   -5.1322   -2.9874 C   0  0  0  0  0  0  0  0  0  0  0  0
   -8.0253   -4.3303   -2.4769 C   0  0  0  0  0  0  0  0  0  0  0  0
   -6.7561   -4.3303   -2.9970 C   0  0  0  0  0  0  0  0  0  0  0  0
   -5.6264   -3.8147   -2.3307 C   0  0  0  0  0  0  0  0  0  0  0  0
   -4.6579   -3.4738   -1.8171 N   0  0  0  0  0  0  0  0  0  0  0  0
   -6.4059   -4.9410   -4.2186 C   0  0  0  0  0  0  0  0  0  0  0  0
   -6.0715   -5.3958   -5.2178 N   0  0  0  0  0  0  0  0  0  0  0  0
   -6.9553   -1.8155   -0.7447 C   0  0  0  0  0  0  0  0  0  0  0  0
   -6.6934   -1.1534   -1.9410 C   0  0  0  0  0  0  0  0  0  0  0  0
   -7.5355   -1.2390   -3.1722 C   0  0  0  0  0  0  0  0  0  0  0  0
   -8.0364    0.1371   -3.6119 C   0  0  0  0  0  0  0  0  0  0  0  0
   -5.5825   -0.3112   -1.8177 C   0  0  0  0  0  0  0  0  0  0  0  0
   -4.7158    0.6731   -2.9745 S   0  0  0  0  0  0  0  0  0  0  0  0
   -3.5260    1.0049   -1.7680 C   0  0  0  0  0  0  0  0  0  0  0  0
   -2.3247    1.7110   -1.6316 C   0  0  0  0  0  0  0  0  0  0  0  0
   -1.6604    2.5825   -2.5219 C   0  0  0  0  0  0  0  0  0  0  0  0
   -0.4638    3.2358   -2.0827 C   0  0  0  0  0  0  0  0  0  0  0  0
    0.0265    4.0612   -2.9943 N   0  0  0  0  0  0  0  0  0  0  0  0
   -0.9333    4.0145   -4.2963 S   0  0  0  0  0  0  0  0  0  0  0  0
   -2.0136    2.9419   -3.7461 N   0  0  0  0  0  0  0  0  0  0  0  0
    0.0707    2.8978   -0.8200 C   0  0  0  0  0  0  0  0  0  0  0  0
    1.2994    3.2320   -0.2343 C   0  0  0  0  0  0  0  0  0  0  0  0
    2.7294    4.1249   -0.6144 S   0  0  0  0  0  0  0  0  0  0  0  0
    3.4887    3.4787    0.8234 C   0  0  0  0  0  0  0  0  0  0  0  0
    4.8084    3.5139    1.2943 C   0  0  0  0  0  0  0  0  0  0  0  0
    5.8814    4.3535    0.6802 C   0  0  0  0  0  0  0  0  0  0  0  0
    5.4740    5.8256    0.6149 C   0  0  0  0  0  0  0  0  0  0  0  0
    4.9523    2.7332    2.4341 C   0  0  0  0  0  0  0  0  0  0  0  0
    3.4280    2.0266    2.9617 S   0  0  0  0  0  0  0  0  0  0  0  0
    2.6340    2.6604    1.5741 C   0  0  0  0  0  0  0  0  0  0  0  0
    1.3881    2.5107    0.9591 C   0  0  0  0  0  0  0  0  0  0  0  0
    0.2543    1.7654    1.1511 N   0  0  0  0  0  0  0  0  0  0  0  0
   -0.5737    1.9776    0.0589 C   0  0  0  0  0  0  0  0  0  0  0  0
   -1.8477    1.4670   -0.3086 C   0  0  0  0  0  0  0  0  0  0  0  0
   -2.7847    0.6940    0.3494 N   0  0  0  0  0  0  0  0  0  0  0  0
   -3.7886    0.4006   -0.5333 C   0  0  0  0  0  0  0  0  0  0  0  0
   -4.9772   -0.3328   -0.5511 C   0  0  0  0  0  0  0  0  0  0  0  0
   -5.8663   -1.3138    0.5471 S   0  0  0  0  0  0  0  0  0  0  0  0
   -2.9606    0.3953    1.7518 C   0  0  0  0  0  0  0  0  0  0  0  0
   -2.6731   -1.0729    2.0660 C   0  0  0  0  0  0  0  0  0  0  0  0
    0.3711    0.6202    2.0302 C   0  0  0  0  0  0  0  0  0  0  0  0
    1.0477   -0.5465    1.3132 C   0  0  0  0  0  0  0  0  0  0  0  0
    6.1035    2.4071    3.1888 C   0  0  0  0  0  0  0  0  0  0  0  0
    7.3697    2.1915    2.7337 C   0  0  0  0  0  0  0  0  0  0  0  0
    8.5173    2.2198    3.6751 C   0  0  0  0  0  0  0  0  0  0  0  0
    8.4681    2.2554    4.8826 O   0  0  0  0  0  0  0  0  0  0  0  0
    9.7212    2.2464    2.8128 C   0  0  0  0  0  0  0  0  0  0  0  0
   11.0441    2.3711    3.1852 C   0  0  0  0  0  0  0  0  0  0  0  0
   11.9829    2.3893    2.1639 C   0  0  0  0  0  0  0  0  0  0  0  0
   13.2827    2.5077    2.4785 F   0  0  0  0  0  0  0  0  0  0  0  0
   11.6301    2.2938    0.8257 C   0  0  0  0  0  0  0  0  0  0  0  0
   10.2981    2.1604    0.4646 C   0  0  0  0  0  0  0  0  0  0  0  0
    9.3366    2.1320    1.4637 C   0  0  0  0  0  0  0  0  0  0  0  0
    7.8860    1.9577    1.4019 C   0  0  0  0  0  0  0  0  0  0  0  0
    7.2012    1.4251    0.3404 C   0  0  0  0  0  0  0  0  0  0  0  0
    7.7832    1.1604   -0.9166 C   0  0  0  0  0  0  0  0  0  0  0  0
    8.1968    0.9501   -1.9664 N   0  0  0  0  0  0  0  0  0  0  0  0
    5.8668    0.9730    0.3916 C   0  0  0  0  0  0  0  0  0  0  0  0
    4.8130    0.5170    0.3709 N   0  0  0  0  0  0  0  0  0  0  0  0
   -8.2972   -2.7728    0.5978 H   0  0  0  0  0  0  0  0  0  0  0  0
  -11.9974   -6.0879   -1.3752 H   0  0  0  0  0  0  0  0  0  0  0  0
   -8.6131   -5.6956   -5.0163 H   0  0  0  0  0  0  0  0  0  0  0  0
   -6.9416   -1.6793   -3.9799 H   0  0  0  0  0  0  0  0  0  0  0  0
   -8.3943   -1.8858   -2.9871 H   0  0  0  0  0  0  0  0  0  0  0  0
   -8.6071    0.6038   -2.8122 H   0  0  0  0  0  0  0  0  0  0  0  0
   -7.2087    0.7887   -3.8765 H   0  0  0  0  0  0  0  0  0  0  0  0
   -8.6812    0.0305   -4.4803 H   0  0  0  0  0  0  0  0  0  0  0  0
    6.8008    4.2632    1.2608 H   0  0  0  0  0  0  0  0  0  0  0  0
    6.0788    3.9907   -0.3339 H   0  0  0  0  0  0  0  0  0  0  0  0
    4.5955    5.9590   -0.0099 H   0  0  0  0  0  0  0  0  0  0  0  0
    6.2871    6.4127    0.1959 H   0  0  0  0  0  0  0  0  0  0  0  0
    5.2539    6.2005    1.6120 H   0  0  0  0  0  0  0  0  0  0  0  0
   -2.3443    1.0777    2.3394 H   0  0  0  0  0  0  0  0  0  0  0  0
   -4.0069    0.6059    2.0012 H   0  0  0  0  0  0  0  0  0  0  0  0
   -3.4135   -1.7071    1.5867 H   0  0  0  0  0  0  0  0  0  0  0  0
   -1.6938   -1.3754    1.7062 H   0  0  0  0  0  0  0  0  0  0  0  0
   -2.7245   -1.2374    3.1388 H   0  0  0  0  0  0  0  0  0  0  0  0
    0.9843    0.9367    2.8788 H   0  0  0  0  0  0  0  0  0  0  0  0
   -0.5969    0.3196    2.4117 H   0  0  0  0  0  0  0  0  0  0  0  0
    0.4682   -0.8463    0.4421 H   0  0  0  0  0  0  0  0  0  0  0  0
    1.1343   -1.3936    1.9881 H   0  0  0  0  0  0  0  0  0  0  0  0
    2.0448   -0.2654    0.9826 H   0  0  0  0  0  0  0  0  0  0  0  0
    5.9719    2.3196    4.2632 H   0  0  0  0  0  0  0  0  0  0  0  0
   11.3352    2.4479    4.2205 H   0  0  0  0  0  0  0  0  0  0  0  0
   12.4040    2.3225    0.0749 H   0  0  0  0  0  0  0  0  0  0  0  0
   10.0310    2.0915   -0.5773 H   0  0  0  0  0  0  0  0  0  0  0  0
  1  2  2  0  0  0  0
  2  3  1  0  0  0  0
  3  4  2  0  0  0  0
  3  5  1  0  0  0  0
  5  6  2  0  0  0  0
  6  7  1  0  0  0  0
  7  8  1  0  0  0  0
  7  9  2  0  0  0  0
  9 10  1  0  0  0  0
  9 11  1  0  0  0  0
 11 12  2  0  0  0  0
 12 13  1  0  0  0  0
 13 14  2  0  0  0  0
 14 15  1  0  0  0  0
 15 16  3  0  0  0  0
 14 17  1  0  0  0  0
 17 18  3  0  0  0  0
  1 19  1  0  0  0  0
 19 20  2  0  0  0  0
 20 21  1  0  0  0  0
 21 22  1  0  0  0  0
 20 23  1  0  0  0  0
 23 24  1  0  0  0  0
 24 25  1  0  0  0  0
 25 26  1  0  0  0  0
 26 27  1  0  0  0  0
 27 28  1  0  0  0  0
 28 29  2  0  0  0  0
 29 30  1  0  0  0  0
 30 31  1  0  0  0  0
 28 32  1  0  0  0  0
 32 33  1  0  0  0  0
 33 34  1  0  0  0  0
 34 35  1  0  0  0  0
 35 36  1  0  0  0  0
 36 37  1  0  0  0  0
 37 38  1  0  0  0  0
 36 39  2  0  0  0  0
 39 40  1  0  0  0  0
 40 41  1  0  0  0  0
 41 42  1  0  0  0  0
 42 43  1  0  0  0  0
 43 44  1  0  0  0  0
 44 45  1  0  0  0  0
 45 46  1  0  0  0  0
 46 47  1  0  0  0  0
 47 48  1  0  0  0  0
 48 49  1  0  0  0  0
 46 50  1  0  0  0  0
 50 51  1  0  0  0  0
 43 52  1  0  0  0  0
 52 53  1  0  0  0  0
 39 54  1  0  0  0  0
 54 55  2  0  0  0  0
 55 56  1  0  0  0  0
 56 57  2  0  0  0  0
 56 58  1  0  0  0  0
 58 59  2  0  0  0  0
 59 60  1  0  0  0  0
 60 61  1  0  0  0  0
 60 62  2  0  0  0  0
 62 63  1  0  0  0  0
 63 64  2  0  0  0  0
 64 65  1  0  0  0  0
 65 66  2  0  0  0  0
 66 67  1  0  0  0  0
 67 68  3  0  0  0  0
 66 69  1  0  0  0  0
 69 70  3  0  0  0  0
 13  2  1  0  0  0  0
 49 19  1  0  0  0  0
 65 55  1  0  0  0  0
 12  5  1  0  0  0  0
 48 23  2  0  0  0  0
 64 58  1  0  0  0  0
 47 25  2  0  0  0  0
 45 26  2  0  0  0  0
 31 27  2  0  0  0  0
 44 32  2  0  0  0  0
 42 33  2  0  0  0  0
 41 35  2  0  0  0  0
  1 71  1  0  0  0  0
  6 72  1  0  0  0  0
 11 73  1  0  0  0  0
 21 74  1  0  0  0  0
 21 75  1  0  0  0  0
 22 76  1  0  0  0  0
 22 77  1  0  0  0  0
 22 78  1  0  0  0  0
 37 79  1  0  0  0  0
 37 80  1  0  0  0  0
 38 81  1  0  0  0  0
 38 82  1  0  0  0  0
 38 83  1  0  0  0  0
 50 84  1  0  0  0  0
 50 85  1  0  0  0  0
 51 86  1  0  0  0  0
 51 87  1  0  0  0  0
 51 88  1  0  0  0  0
 52 89  1  0  0  0  0
 52 90  1  0  0  0  0
 53 91  1  0  0  0  0
 53 92  1  0  0  0  0
 53 93  1  0  0  0  0
 54 94  1  0  0  0  0
 59 95  1  0  0  0  0
 62 96  1  0  0  0  0
 63 97  1  0  0  0  0
M  END
