101

C         -4.06700        2.48880       -7.13250
C         -3.56000        1.55020       -7.98820
C         -3.32170        1.90730       -9.40610
O         -3.71350        2.89190       -9.98940
C         -2.45090        0.82820       -9.93200
C         -1.84940        0.73060      -11.17080
C         -1.04940       -0.37520      -11.41280
F         -0.44370       -0.50740      -12.59950
C         -0.86540       -1.35090      -10.43290
F         -0.07580       -2.40000      -10.69090
C         -1.47900       -1.26070       -9.19210
C         -2.27850       -0.15770       -8.94410
C         -3.08500        0.20400       -7.77820
C         -3.53650       -0.67570       -6.82750
C         -4.58650       -0.36990       -5.93640
N         -5.47720       -0.17600       -5.23850
C         -3.07220       -1.99790       -6.69170
N         -2.70130       -3.07010       -6.51590
C         -3.97910        2.56130       -5.73130
C         -4.71940        3.39950       -4.89930
C         -5.79120        4.33470       -5.35140
C         -5.20540        5.72320       -5.62400
C         -4.33230        3.26800       -3.56610
S         -4.91530        4.01070       -2.09330
C         -3.76150        3.08450       -1.20250
C         -3.39460        2.84690        0.12660
C         -3.95540        3.34000        1.32530
C         -3.46740        2.83530        2.57180
N         -4.10920        3.34570        3.61100
S         -5.23060        4.37680        3.06400
N         -4.94010        4.21090        1.48000
C         -2.38440        1.92910        2.56080
C         -1.66740        1.36660        3.62220
S         -1.67860        1.35570        5.35170
C         -0.24290        0.34670        5.32020
C          0.53330       -0.20330        6.32950
C          0.21090       -0.04290        7.77910
C         -0.56930       -1.25210        8.30280
C          1.60310       -0.95300        5.80530
S          1.62250       -0.93790        4.04170
C          0.20710        0.04360        4.02240
C         -0.62280        0.62550        3.05890
N         -0.67910        0.70460        1.69520
C         -1.76800        1.48150        1.35010
C         -2.33860        1.88460        0.10960
N         -2.10820        1.53400       -1.20850
C         -2.95770        2.25890       -1.99870
C         -3.28550        2.35720       -3.35120
S         -2.76660        1.64500       -4.83150
C         -1.32110        0.48850       -1.82080
C         -0.07970        1.04480       -2.51780
C          0.40090        0.13080        0.92610
C          0.25520       -1.38400        0.77960
C          2.51850       -1.63330        6.60690
C          3.61250       -2.42690        6.33000
C          4.29360       -2.97800        7.49920
O          3.92390       -2.78400        8.64160
N          5.41970       -3.75040        7.24450
C          6.10330       -4.30670        8.40700
C          5.61530       -5.71650        8.71220
C          5.88640       -4.03630        5.99530
S          7.23800       -4.96280        5.78670
N          5.21020       -3.53750        4.91580
C          5.70030       -3.82530        3.57240
C          6.75490       -2.81500        3.14090
C          4.09440       -2.72190        5.00540
O          3.57800       -2.29870        3.97690
H         -4.51950        3.34580       -7.62130
H         -1.99350        1.48410      -11.92870
H         -1.30910       -2.03760       -8.46450
H         -6.53890        4.41130       -4.55980
H         -6.27700        3.95160       -6.24840
H         -4.74160        6.12050       -4.72430
H         -5.99330        6.40270       -5.93670
H         -4.45460        5.67720       -6.40960
H          1.12220        0.08730        8.36430
H         -0.40190        0.85350        7.89410
H          0.02240       -2.16010        8.21610
H         -1.48850       -1.38140        7.73650
H         -0.82420       -1.10290        9.34850
H         -1.95450        0.00340       -2.57190
H         -1.06590       -0.25950       -1.07680
H          0.53230        0.22610       -2.88520
H         -0.36930        1.66310       -3.36350
H          0.51710        1.65720       -1.84470
H          1.32860        0.33440        1.47130
H          0.46690        0.62970       -0.03640
H         -0.73090       -1.65980        0.41100
H          0.40140       -1.86570        1.74220
H          1.00790       -1.76020        0.09290
H          2.34280       -1.53470        7.67440
H          5.88180       -3.64340        9.24480
H          7.17570       -4.30720        8.20590
H          4.54400       -5.71050        8.89900
H          6.12260       -6.09150        9.59610
H          5.82930       -6.38240        7.87950
H          4.83750       -3.77620        2.90590
H          6.11440       -4.83460        3.57060
H          7.08790       -3.04670        2.13350
H          6.33900       -1.81020        3.15110
H          7.61250       -2.85400        3.80810
