92

C          4.79200       -1.36860       -5.36660
C          4.49560       -0.43400       -6.33490
C          3.46160        0.59510       -6.25350
O          2.71630        0.84140       -5.32100
C          3.48940        1.30380       -7.55090
C          2.69250        2.34720       -7.97630
C          2.90910        2.84130       -9.25270
F          2.15770        3.85180       -9.70860
C          3.90070        2.29490      -10.06670
F          4.08670        2.78960      -11.29600
C          4.70260        1.24730       -9.63700
C          4.49210        0.74710       -8.36200
C          5.14830       -0.33390       -7.62250
C          6.19430       -1.08570       -8.09540
C          6.84810       -2.12270       -7.39810
N          7.43340       -2.97710       -6.89990
C          6.77600       -0.91740       -9.36970
N          7.29300       -0.83430      -10.39120
C          4.23690       -1.59380       -4.10810
C          4.64020       -2.65620       -3.27430
C          5.66340       -3.69010       -3.61200
C          5.04520       -4.81190       -4.45140
C          3.91170       -2.67750       -2.09610
S          3.92430       -3.76980       -0.72320
C          2.65800       -2.83400       -0.01070
C          1.83230       -2.86000        1.11970
C          1.68330       -3.83090        2.13570
C          0.61590       -3.68410        3.08180
N          0.54790       -4.69910        3.92830
S          1.72930       -5.74630        3.57070
N          2.37200       -4.94590        2.31850
C         -0.16130       -2.50450        3.05410
C         -1.14840       -2.03030        3.92710
S         -2.01330       -2.55700        5.32890
C         -2.78790       -0.98680        5.39990
C         -3.72610       -0.44800        6.27450
C         -4.27050       -1.20520        7.44260
C         -3.48800       -0.88340        8.71820
C         -4.03360        0.87640        5.93880
S         -3.15350        1.42550        4.51520
C         -2.38250       -0.11080        4.38080
C         -1.45450       -0.72250        3.53050
N         -0.71470       -0.38670        2.42880
C          0.06950       -1.47360        2.09560
C          0.98040       -1.71890        1.03530
N          1.26190       -1.04560       -0.14090
C          2.26540       -1.72970       -0.77890
C          2.96670       -1.63940       -1.98260
S          2.95580       -0.62350       -3.37350
C          0.40960       -0.18430       -0.93350
C         -0.77330       -0.96500       -1.50190
C         -0.59950        1.00020        2.03610
C         -1.80540        1.47840        1.22930
C         -4.93690        1.67330        6.66110
C         -5.31210        2.97260        6.48090
S         -6.46440        3.73420        7.56810
C         -6.35420        5.25960        6.70800
S         -7.17160        6.61080        7.11870
N         -5.48790        5.14600        5.66820
C         -5.22070        6.25010        4.76700
C         -6.28830        6.35110        3.68510
C         -4.88320        3.91850        5.47290
O         -4.09830        3.71520        4.56150
H          5.57850       -2.06710       -5.61680
H          1.92660        2.76600       -7.34340
H          5.45390        0.86170      -10.30620
H          6.50250       -3.25180       -4.15400
H          6.04170       -4.11230       -2.67890
H          4.65370       -4.42190       -5.38800
H          4.23350       -5.28820       -3.90650
H          5.79980       -5.55920       -4.67830
H         -4.17900       -2.27190        7.22870
H         -5.32760       -0.97730        7.58930
H         -3.88780       -1.45180        9.55370
H         -2.44050       -1.14510        8.59110
H         -3.55250        0.17630        8.95440
H          1.02420        0.19880       -1.75190
H          0.05800        0.66330       -0.35400
H         -1.38500       -0.31180       -2.11770
H         -0.41960       -1.78850       -2.11780
H         -1.38570       -1.37340       -0.70020
H          0.34010        1.13390        1.49810
H         -0.54100        1.59720        2.95300
H         -2.01250        0.82050        0.38980
H         -1.62140        2.48230        0.85690
H         -2.68630        1.51030        1.86440
H         -5.40310        1.17420        7.50190
H         -4.24210        6.05580        4.32180
H         -5.18990        7.16790        5.35870
H         -7.26400        6.52280        4.13310
H         -6.32060        5.43510        3.09970
H         -6.05790        7.18170        3.02450
