
  xtb     02012222103D
 energy: -182.547442625285 gnorm: 0.000915465869 xtb: 6.4.1 (unknown)
 99109  0     0  0            999 V2000
    2.6379    3.2939   -7.5696 C   0  0  0  0  0  0  0  0  0  0  0  0
    1.5828    3.9692   -8.1422 C   0  0  0  0  0  0  0  0  0  0  0  0
    0.2125    4.0181   -7.6367 C   0  0  0  0  0  0  0  0  0  0  0  0
   -0.2432    3.4753   -6.6451 O   0  0  0  0  0  0  0  0  0  0  0  0
   -0.5403    4.8696   -8.5820 C   0  0  0  0  0  0  0  0  0  0  0  0
   -1.8734    5.2248   -8.5429 C   0  0  0  0  0  0  0  0  0  0  0  0
   -2.3502    6.0413   -9.5560 C   0  0  0  0  0  0  0  0  0  0  0  0
   -3.6373    6.4106   -9.5585 F   0  0  0  0  0  0  0  0  0  0  0  0
   -1.5023    6.4812  -10.5719 C   0  0  0  0  0  0  0  0  0  0  0  0
   -1.9888    7.2691  -11.5373 F   0  0  0  0  0  0  0  0  0  0  0  0
   -0.1623    6.1232  -10.6101 C   0  0  0  0  0  0  0  0  0  0  0  0
    0.3224    5.3063   -9.6012 C   0  0  0  0  0  0  0  0  0  0  0  0
    1.6576    4.7571   -9.3544 C   0  0  0  0  0  0  0  0  0  0  0  0
    2.7540    4.9712  -10.1506 C   0  0  0  0  0  0  0  0  0  0  0  0
    2.7376    5.7528  -11.3253 C   0  0  0  0  0  0  0  0  0  0  0  0
    2.7960    6.3792  -12.2852 N   0  0  0  0  0  0  0  0  0  0  0  0
    4.0485    4.4558   -9.9312 C   0  0  0  0  0  0  0  0  0  0  0  0
    5.1276    4.0741   -9.8298 N   0  0  0  0  0  0  0  0  0  0  0  0
    2.7109    2.5142   -6.4159 C   0  0  0  0  0  0  0  0  0  0  0  0
    3.9078    1.9198   -5.9699 C   0  0  0  0  0  0  0  0  0  0  0  0
    5.2473    2.0646   -6.6134 C   0  0  0  0  0  0  0  0  0  0  0  0
    5.9254    3.3631   -6.1666 C   0  0  0  0  0  0  0  0  0  0  0  0
    3.7135    1.2151   -4.7922 C   0  0  0  0  0  0  0  0  0  0  0  0
    4.8120    0.3075   -3.7694 S   0  0  0  0  0  0  0  0  0  0  0  0
    3.4888   -0.0340   -2.7115 C   0  0  0  0  0  0  0  0  0  0  0  0
    3.2495   -0.6801   -1.4938 C   0  0  0  0  0  0  0  0  0  0  0  0
    4.1432   -1.2866   -0.5834 C   0  0  0  0  0  0  0  0  0  0  0  0
    3.6392   -1.7436    0.6766 C   0  0  0  0  0  0  0  0  0  0  0  0
    4.5908   -2.2355    1.4544 N   0  0  0  0  0  0  0  0  0  0  0  0
    6.0001   -2.1361    0.6649 S   0  0  0  0  0  0  0  0  0  0  0  0
    5.4505   -1.4594   -0.6988 N   0  0  0  0  0  0  0  0  0  0  0  0
    2.2503   -1.6688    0.9213 C   0  0  0  0  0  0  0  0  0  0  0  0
    1.4905   -2.1134    2.0110 C   0  0  0  0  0  0  0  0  0  0  0  0
    1.7249   -2.8316    3.5631 S   0  0  0  0  0  0  0  0  0  0  0  0
   -0.0093   -2.8402    3.8036 C   0  0  0  0  0  0  0  0  0  0  0  0
   -0.8182   -3.2094    4.8877 C   0  0  0  0  0  0  0  0  0  0  0  0
   -0.3197   -3.8698    6.1272 C   0  0  0  0  0  0  0  0  0  0  0  0
    0.6927   -4.9794    5.8544 C   0  0  0  0  0  0  0  0  0  0  0  0
   -2.1599   -2.9557    4.6210 C   0  0  0  0  0  0  0  0  0  0  0  0
   -2.4091   -2.3463    2.9798 S   0  0  0  0  0  0  0  0  0  0  0  0
   -0.7107   -2.3220    2.7046 C   0  0  0  0  0  0  0  0  0  0  0  0
    0.1471   -1.8986    1.6857 C   0  0  0  0  0  0  0  0  0  0  0  0
    0.0497   -1.3141    0.4514 N   0  0  0  0  0  0  0  0  0  0  0  0
    1.3358   -1.1442   -0.0383 C   0  0  0  0  0  0  0  0  0  0  0  0
    1.8554   -0.5440   -1.2161 C   0  0  0  0  0  0  0  0  0  0  0  0
    1.2827    0.1957   -2.2349 N   0  0  0  0  0  0  0  0  0  0  0  0
    2.2684    0.5119   -3.1312 C   0  0  0  0  0  0  0  0  0  0  0  0
    2.3876    1.2364   -4.3193 C   0  0  0  0  0  0  0  0  0  0  0  0
    1.3532    2.1579   -5.3436 S   0  0  0  0  0  0  0  0  0  0  0  0
    0.0224    0.9036   -2.2870 C   0  0  0  0  0  0  0  0  0  0  0  0
   -0.1034    1.9076   -1.1441 C   0  0  0  0  0  0  0  0  0  0  0  0
   -1.2170   -1.3346   -0.2470 C   0  0  0  0  0  0  0  0  0  0  0  0
   -1.1995   -2.3259   -1.4078 C   0  0  0  0  0  0  0  0  0  0  0  0
   -3.3313   -3.1740    5.3737 C   0  0  0  0  0  0  0  0  0  0  0  0
   -3.5243   -3.0552    6.7327 C   0  0  0  0  0  0  0  0  0  0  0  0
   -2.5864   -2.2566    7.5463 C   0  0  0  0  0  0  0  0  0  0  0  0
   -1.6539   -1.6362    7.0676 O   0  0  0  0  0  0  0  0  0  0  0  0
   -2.8515   -2.1674    8.8974 N   0  0  0  0  0  0  0  0  0  0  0  0
   -1.9074   -1.4123    9.7153 C   0  0  0  0  0  0  0  0  0  0  0  0
   -0.7916   -2.3103   10.2336 C   0  0  0  0  0  0  0  0  0  0  0  0
   -3.9283   -2.7411    9.5566 C   0  0  0  0  0  0  0  0  0  0  0  0
   -4.0397   -2.6585   10.7612 O   0  0  0  0  0  0  0  0  0  0  0  0
   -4.8961   -3.4218    8.6913 C   0  0  0  0  0  0  0  0  0  0  0  0
   -4.7164   -3.5651    7.3459 C   0  0  0  0  0  0  0  0  0  0  0  0
   -5.7277   -4.3056    6.5269 C   0  0  0  0  0  0  0  0  0  0  0  0
   -6.0323   -3.9451    9.3446 C   0  0  0  0  0  0  0  0  0  0  0  0
   -6.9623   -4.3656    9.8680 N   0  0  0  0  0  0  0  0  0  0  0  0
    3.5831    3.3770   -8.0877 H   0  0  0  0  0  0  0  0  0  0  0  0
   -2.5254    4.8827   -7.7552 H   0  0  0  0  0  0  0  0  0  0  0  0
    0.4494    6.4907  -11.4174 H   0  0  0  0  0  0  0  0  0  0  0  0
    5.8652    1.2179   -6.3083 H   0  0  0  0  0  0  0  0  0  0  0  0
    5.1657    2.0543   -7.7011 H   0  0  0  0  0  0  0  0  0  0  0  0
    6.0528    3.3709   -5.0867 H   0  0  0  0  0  0  0  0  0  0  0  0
    6.9017    3.4470   -6.6348 H   0  0  0  0  0  0  0  0  0  0  0  0
    5.3308    4.2272   -6.4534 H   0  0  0  0  0  0  0  0  0  0  0  0
   -1.1696   -4.2798    6.6770 H   0  0  0  0  0  0  0  0  0  0  0  0
    0.1345   -3.0973    6.7552 H   0  0  0  0  0  0  0  0  0  0  0  0
    0.9308   -5.4895    6.7844 H   0  0  0  0  0  0  0  0  0  0  0  0
    1.6143   -4.5819    5.4397 H   0  0  0  0  0  0  0  0  0  0  0  0
    0.2827   -5.7075    5.1577 H   0  0  0  0  0  0  0  0  0  0  0  0
   -0.8113    0.2014   -2.3017 H   0  0  0  0  0  0  0  0  0  0  0  0
    0.0066    1.4397   -3.2389 H   0  0  0  0  0  0  0  0  0  0  0  0
    0.6846    2.6533   -1.2178 H   0  0  0  0  0  0  0  0  0  0  0  0
   -1.0628    2.4141   -1.2020 H   0  0  0  0  0  0  0  0  0  0  0  0
   -0.0191    1.4203   -0.1754 H   0  0  0  0  0  0  0  0  0  0  0  0
   -1.9674   -1.6486    0.4828 H   0  0  0  0  0  0  0  0  0  0  0  0
   -1.4927   -0.3330   -0.5771 H   0  0  0  0  0  0  0  0  0  0  0  0
   -0.4187   -2.0822   -2.1244 H   0  0  0  0  0  0  0  0  0  0  0  0
   -2.1594   -2.3164   -1.9168 H   0  0  0  0  0  0  0  0  0  0  0  0
   -1.0152   -3.3310   -1.0355 H   0  0  0  0  0  0  0  0  0  0  0  0
   -4.1971   -3.4254    4.7721 H   0  0  0  0  0  0  0  0  0  0  0  0
   -1.5002   -0.6150    9.0910 H   0  0  0  0  0  0  0  0  0  0  0  0
   -2.4683   -0.9890   10.5502 H   0  0  0  0  0  0  0  0  0  0  0  0
   -0.2408   -2.7480    9.4038 H   0  0  0  0  0  0  0  0  0  0  0  0
   -1.2069   -3.1071   10.8460 H   0  0  0  0  0  0  0  0  0  0  0  0
   -0.1048   -1.7262   10.8396 H   0  0  0  0  0  0  0  0  0  0  0  0
   -6.1627   -3.6469    5.7752 H   0  0  0  0  0  0  0  0  0  0  0  0
   -5.2661   -5.1497    6.0164 H   0  0  0  0  0  0  0  0  0  0  0  0
   -6.5291   -4.6775    7.1599 H   0  0  0  0  0  0  0  0  0  0  0  0
  1  2  2  0  0  0  0
  2  3  1  0  0  0  0
  3  4  2  0  0  0  0
  3  5  1  0  0  0  0
  5  6  2  0  0  0  0
  6  7  1  0  0  0  0
  7  8  1  0  0  0  0
  7  9  2  0  0  0  0
  9 10  1  0  0  0  0
  9 11  1  0  0  0  0
 11 12  2  0  0  0  0
 12 13  1  0  0  0  0
 13 14  2  0  0  0  0
 14 15  1  0  0  0  0
 15 16  3  0  0  0  0
 14 17  1  0  0  0  0
 17 18  3  0  0  0  0
  1 19  1  0  0  0  0
 19 20  2  0  0  0  0
 20 21  1  0  0  0  0
 21 22  1  0  0  0  0
 20 23  1  0  0  0  0
 23 24  1  0  0  0  0
 24 25  1  0  0  0  0
 25 26  1  0  0  0  0
 26 27  1  0  0  0  0
 27 28  1  0  0  0  0
 28 29  2  0  0  0  0
 29 30  1  0  0  0  0
 30 31  1  0  0  0  0
 28 32  1  0  0  0  0
 32 33  1  0  0  0  0
 33 34  1  0  0  0  0
 34 35  1  0  0  0  0
 35 36  1  0  0  0  0
 36 37  1  0  0  0  0
 37 38  1  0  0  0  0
 36 39  2  0  0  0  0
 39 40  1  0  0  0  0
 40 41  1  0  0  0  0
 41 42  1  0  0  0  0
 42 43  1  0  0  0  0
 43 44  1  0  0  0  0
 44 45  1  0  0  0  0
 45 46  1  0  0  0  0
 46 47  1  0  0  0  0
 47 48  1  0  0  0  0
 48 49  1  0  0  0  0
 46 50  1  0  0  0  0
 50 51  1  0  0  0  0
 43 52  1  0  0  0  0
 52 53  1  0  0  0  0
 39 54  1  0  0  0  0
 54 55  2  0  0  0  0
 55 56  1  0  0  0  0
 56 57  2  0  0  0  0
 56 58  1  0  0  0  0
 58 59  1  0  0  0  0
 59 60  1  0  0  0  0
 58 61  1  0  0  0  0
 61 62  2  0  0  0  0
 61 63  1  0  0  0  0
 63 64  2  0  0  0  0
 64 65  1  0  0  0  0
 63 66  1  0  0  0  0
 66 67  3  0  0  0  0
 13  2  1  0  0  0  0
 49 19  1  0  0  0  0
 64 55  1  0  0  0  0
 12  5  1  0  0  0  0
 48 23  2  0  0  0  0
 47 25  2  0  0  0  0
 45 26  2  0  0  0  0
 31 27  2  0  0  0  0
 44 32  2  0  0  0  0
 42 33  2  0  0  0  0
 41 35  2  0  0  0  0
  1 68  1  0  0  0  0
  6 69  1  0  0  0  0
 11 70  1  0  0  0  0
 21 71  1  0  0  0  0
 21 72  1  0  0  0  0
 22 73  1  0  0  0  0
 22 74  1  0  0  0  0
 22 75  1  0  0  0  0
 37 76  1  0  0  0  0
 37 77  1  0  0  0  0
 38 78  1  0  0  0  0
 38 79  1  0  0  0  0
 38 80  1  0  0  0  0
 50 81  1  0  0  0  0
 50 82  1  0  0  0  0
 51 83  1  0  0  0  0
 51 84  1  0  0  0  0
 51 85  1  0  0  0  0
 52 86  1  0  0  0  0
 52 87  1  0  0  0  0
 53 88  1  0  0  0  0
 53 89  1  0  0  0  0
 53 90  1  0  0  0  0
 54 91  1  0  0  0  0
 59 92  1  0  0  0  0
 59 93  1  0  0  0  0
 60 94  1  0  0  0  0
 60 95  1  0  0  0  0
 60 96  1  0  0  0  0
 65 97  1  0  0  0  0
 65 98  1  0  0  0  0
 65 99  1  0  0  0  0
M  END
