98

C          2.58960        3.58030        6.35630
C          3.94100        3.77770        6.16700
C          4.73120        3.30740        5.03190
O          4.35090        2.68800        4.05320
C          6.12160        3.73240        5.29800
C          7.24620        3.51700        4.52760
C          8.45110        4.01330        4.99890
F          9.56930        3.82670        4.28540
C          8.50960        4.70390        6.20880
F          9.68670        5.17160        6.64070
C          7.37760        4.92040        6.98180
C          6.16880        4.42660        6.51810
C          4.81720        4.47820        7.08120
C          4.48350        5.09420        8.26110
C          3.19060        5.16500        8.82000
N          2.17060        5.27490        9.33780
C          5.40700        5.76170        9.09320
N          6.10380        6.31480        9.81870
C          1.64090        2.92650        5.57240
C          0.28350        2.81820        5.93920
C         -0.33990        3.41880        7.15600
C         -0.68270        4.89260        6.91990
C         -0.44230        2.11770        4.98960
S         -2.13260        1.65300        4.90050
C         -1.80320        0.86730        3.39570
C         -2.46530        0.09040        2.43970
C         -3.78270       -0.41950        2.42820
C         -4.16720       -1.31260        1.37750
N         -5.40710       -1.75400        1.51640
S         -6.03790       -1.09740        2.85510
N         -4.75090       -0.22530        3.30920
C         -3.25070       -1.57180        0.33430
C         -3.40830       -2.29840       -0.85120
S         -4.60000       -3.26680       -1.64790
C         -3.51260       -3.41840       -3.01750
C         -3.63050       -4.07080       -4.23750
C         -4.85680       -4.82400       -4.63830
C         -5.79220       -3.94260       -5.47070
C         -2.48890       -3.87480       -5.03480
S         -1.27290       -2.88560       -4.22790
C         -2.29130       -2.74520       -2.84450
C         -2.23600       -2.12020       -1.59510
N         -1.35980       -1.33220       -0.90250
C         -1.94380       -0.99280        0.30270
C         -1.51150       -0.23010        1.42340
N         -0.29700        0.31060        1.79630
C         -0.47000        0.97640        2.97920
C          0.32060        1.67890        3.88970
S          1.97480        2.13530        4.02880
C          1.04340        0.13320        1.28620
C          1.56410        1.38910        0.58760
C         -0.16100       -0.87540       -1.56800
C          0.92120       -1.95430       -1.60590
C         -2.35820       -4.41340       -6.31970
C         -1.35830       -4.28780       -7.25200
C         -0.13310       -3.49040       -7.10450
O          0.22440       -2.87450       -6.11610
C          0.57250       -3.59250       -8.39000
C          1.76760       -2.99890       -8.78900
O          2.44240       -2.20700       -7.94030
C          2.21670       -3.25990      -10.08800
C          1.49760       -4.07660      -10.93870
C          0.30520       -4.67140      -10.54210
C         -0.15450       -4.42500       -9.26070
C         -1.35570       -4.89270       -8.56580
C         -2.27990       -5.76300       -9.08690
C         -3.42830       -6.24040       -8.42220
N         -4.38490       -6.67410       -7.95490
C         -2.20630       -6.32650      -10.37800
N         -2.21610       -6.82630      -11.41180
H          2.17970        3.99390        7.26740
H          7.19530        2.98140        3.59310
H          7.47910        5.45950        7.90910
H         -1.25830        2.87040        7.37430
H          0.32200        3.33540        8.01910
H         -1.14320        5.30930        7.81080
H          0.21350        5.46640        6.69630
H         -1.37610        4.99110        6.08800
H         -5.37680       -5.13520       -3.73010
H         -4.59910       -5.71820       -5.20780
H         -6.68090       -4.50440       -5.74320
H         -6.09300       -3.06660       -4.90070
H         -5.30020       -3.61170       -6.38250
H          1.06730       -0.73350        0.63240
H          1.69240       -0.07700        2.14320
H          0.86190        1.75430       -0.15920
H          1.72660        2.18130        1.31290
H          2.51200        1.17130        0.10440
H          0.19030        0.03590       -1.09310
H         -0.43520       -0.63020       -2.59960
H          1.84450       -1.53190       -1.99130
H          0.61840       -2.76400       -2.26360
H          1.10750       -2.37330       -0.61900
H         -3.20620       -5.01520       -6.61620
H          3.24650       -1.86830       -8.35470
H          3.14160       -2.81070      -10.42490
H          1.86990       -4.25690      -11.93560
H         -0.23350       -5.30130      -11.22880
