
  xtb     01272209583D
 energy: -192.358556507016 gnorm: 0.000885303235 xtb: 6.4.1 (unknown)
103115  0     0  0            999 V2000
    3.3877    3.5426   -6.2119 C   0  0  0  0  0  0  0  0  0  0  0  0
    3.6527    4.6540   -6.9698 C   0  0  0  0  0  0  0  0  0  0  0  0
    3.4713    6.0436   -6.4998 C   0  0  0  0  0  0  0  0  0  0  0  0
    3.1169    6.4185   -5.4038 O   0  0  0  0  0  0  0  0  0  0  0  0
    3.6486    6.8884   -7.7041 C   0  0  0  0  0  0  0  0  0  0  0  0
    3.5841    8.2641   -7.8004 C   0  0  0  0  0  0  0  0  0  0  0  0
    3.7699    8.8306   -9.0514 C   0  0  0  0  0  0  0  0  0  0  0  0
    3.7255   10.1614   -9.1894 F   0  0  0  0  0  0  0  0  0  0  0  0
    4.0020    8.0282  -10.1687 C   0  0  0  0  0  0  0  0  0  0  0  0
    4.1704    8.6025  -11.3652 F   0  0  0  0  0  0  0  0  0  0  0  0
    4.0602    6.6457  -10.0733 C   0  0  0  0  0  0  0  0  0  0  0  0
    3.8830    6.0728   -8.8238 C   0  0  0  0  0  0  0  0  0  0  0  0
    3.8981    4.6757   -8.3932 C   0  0  0  0  0  0  0  0  0  0  0  0
    4.1868    3.5944   -9.1856 C   0  0  0  0  0  0  0  0  0  0  0  0
    4.4343    3.6732  -10.5715 C   0  0  0  0  0  0  0  0  0  0  0  0
    4.6400    3.6748  -11.7007 N   0  0  0  0  0  0  0  0  0  0  0  0
    4.3006    2.2683   -8.7180 C   0  0  0  0  0  0  0  0  0  0  0  0
    4.4313    1.1716   -8.4037 N   0  0  0  0  0  0  0  0  0  0  0  0
    3.3915    3.4432   -4.8067 C   0  0  0  0  0  0  0  0  0  0  0  0
    4.2201    4.0150   -3.8434 C   0  0  0  0  0  0  0  0  0  0  0  0
    5.3959    4.9007   -4.0993 C   0  0  0  0  0  0  0  0  0  0  0  0
    5.2813    6.2422   -3.3747 C   0  0  0  0  0  0  0  0  0  0  0  0
    3.9389    3.5009   -2.5724 C   0  0  0  0  0  0  0  0  0  0  0  0
    4.6622    3.7841   -1.0037 S   0  0  0  0  0  0  0  0  0  0  0  0
    3.5791    2.6267   -0.3189 C   0  0  0  0  0  0  0  0  0  0  0  0
    3.3284    2.0102    0.9146 C   0  0  0  0  0  0  0  0  0  0  0  0
    4.0108    2.1001    2.1480 C   0  0  0  0  0  0  0  0  0  0  0  0
    3.6348    1.2164    3.2121 C   0  0  0  0  0  0  0  0  0  0  0  0
    4.3986    1.3614    4.2836 N   0  0  0  0  0  0  0  0  0  0  0  0
    5.4912    2.5164    3.9821 S   0  0  0  0  0  0  0  0  0  0  0  0
    5.0360    2.8730    2.4710 N   0  0  0  0  0  0  0  0  0  0  0  0
    2.5138    0.3760    3.0347 C   0  0  0  0  0  0  0  0  0  0  0  0
    1.8507   -0.4732    3.9308 C   0  0  0  0  0  0  0  0  0  0  0  0
    2.0021   -1.0185    5.5624 S   0  0  0  0  0  0  0  0  0  0  0  0
    0.4932   -1.8822    5.3841 C   0  0  0  0  0  0  0  0  0  0  0  0
   -0.2459   -2.6705    6.2703 C   0  0  0  0  0  0  0  0  0  0  0  0
    0.1965   -2.9638    7.6658 C   0  0  0  0  0  0  0  0  0  0  0  0
    1.1215   -4.1839    7.6882 C   0  0  0  0  0  0  0  0  0  0  0  0
   -1.4165   -3.1347    5.6823 C   0  0  0  0  0  0  0  0  0  0  0  0
   -1.5640   -2.6127    4.0036 S   0  0  0  0  0  0  0  0  0  0  0  0
   -0.0777   -1.7470    4.1109 C   0  0  0  0  0  0  0  0  0  0  0  0
    0.7045   -0.9437    3.2772 C   0  0  0  0  0  0  0  0  0  0  0  0
    0.6477   -0.4310    2.0081 N   0  0  0  0  0  0  0  0  0  0  0  0
    1.7630    0.3656    1.8230 C   0  0  0  0  0  0  0  0  0  0  0  0
    2.2526    1.0980    0.7106 C   0  0  0  0  0  0  0  0  0  0  0  0
    1.8857    1.1422   -0.6260 N   0  0  0  0  0  0  0  0  0  0  0  0
    2.6980    2.0575   -1.2459 C   0  0  0  0  0  0  0  0  0  0  0  0
    2.9114    2.5448   -2.5371 C   0  0  0  0  0  0  0  0  0  0  0  0
    2.2969    2.2396   -4.1151 S   0  0  0  0  0  0  0  0  0  0  0  0
    1.2618    0.1180   -1.4370 C   0  0  0  0  0  0  0  0  0  0  0  0
    2.1620   -1.1101   -1.5523 C   0  0  0  0  0  0  0  0  0  0  0  0
   -0.6051   -0.4595    1.2853 C   0  0  0  0  0  0  0  0  0  0  0  0
   -0.8565   -1.8084    0.6144 C   0  0  0  0  0  0  0  0  0  0  0  0
   -2.3521   -4.0144    6.2674 C   0  0  0  0  0  0  0  0  0  0  0  0
   -3.6221   -4.3180    5.8778 C   0  0  0  0  0  0  0  0  0  0  0  0
   -4.2327   -5.6007    6.3192 C   0  0  0  0  0  0  0  0  0  0  0  0
   -3.8211   -6.3358    7.1890 O   0  0  0  0  0  0  0  0  0  0  0  0
   -5.3921   -5.8017    5.4296 C   0  0  0  0  0  0  0  0  0  0  0  0
   -6.2317   -6.8736    5.3395 C   0  0  0  0  0  0  0  0  0  0  0  0
   -7.2784   -6.8519    4.3897 C   0  0  0  0  0  0  0  0  0  0  0  0
   -8.1788   -7.9272    4.2573 C   0  0  0  0  0  0  0  0  0  0  0  0
   -9.1862   -7.8867    3.3319 C   0  0  0  0  0  0  0  0  0  0  0  0
   -9.3370   -6.7690    2.4979 C   0  0  0  0  0  0  0  0  0  0  0  0
   -8.4782   -5.7087    2.5997 C   0  0  0  0  0  0  0  0  0  0  0  0
   -7.4312   -5.7161    3.5433 C   0  0  0  0  0  0  0  0  0  0  0  0
   -6.5496   -4.6168    3.6624 C   0  0  0  0  0  0  0  0  0  0  0  0
   -5.5498   -4.6560    4.5954 C   0  0  0  0  0  0  0  0  0  0  0  0
   -4.5460   -3.6685    4.9765 C   0  0  0  0  0  0  0  0  0  0  0  0
   -4.6347   -2.3179    4.7501 C   0  0  0  0  0  0  0  0  0  0  0  0
   -3.8313   -1.3732    5.4201 C   0  0  0  0  0  0  0  0  0  0  0  0
   -3.2275   -0.5802    5.9910 N   0  0  0  0  0  0  0  0  0  0  0  0
   -5.5851   -1.7238    3.8990 C   0  0  0  0  0  0  0  0  0  0  0  0
   -6.3132   -1.1911    3.1881 N   0  0  0  0  0  0  0  0  0  0  0  0
    3.1066    2.6327   -6.7305 H   0  0  0  0  0  0  0  0  0  0  0  0
    3.4005    8.8821   -6.9360 H   0  0  0  0  0  0  0  0  0  0  0  0
    4.2352    6.0683  -10.9662 H   0  0  0  0  0  0  0  0  0  0  0  0
    5.5140    5.0640   -5.1707 H   0  0  0  0  0  0  0  0  0  0  0  0
    6.2860    4.3784   -3.7331 H   0  0  0  0  0  0  0  0  0  0  0  0
    5.2306    6.0930   -2.2996 H   0  0  0  0  0  0  0  0  0  0  0  0
    6.1501    6.8551   -3.6007 H   0  0  0  0  0  0  0  0  0  0  0  0
    4.3870    6.7658   -3.6993 H   0  0  0  0  0  0  0  0  0  0  0  0
    0.7399   -2.0961    8.0449 H   0  0  0  0  0  0  0  0  0  0  0  0
   -0.6660   -3.1373    8.3089 H   0  0  0  0  0  0  0  0  0  0  0  0
    1.9968   -4.0058    7.0679 H   0  0  0  0  0  0  0  0  0  0  0  0
    1.4512   -4.3807    8.7046 H   0  0  0  0  0  0  0  0  0  0  0  0
    0.6054   -5.0652    7.3140 H   0  0  0  0  0  0  0  0  0  0  0  0
    1.1061    0.5542   -2.4269 H   0  0  0  0  0  0  0  0  0  0  0  0
    0.2898   -0.1599   -1.0411 H   0  0  0  0  0  0  0  0  0  0  0  0
    1.6880   -1.8595   -2.1800 H   0  0  0  0  0  0  0  0  0  0  0  0
    2.3536   -1.5388   -0.5706 H   0  0  0  0  0  0  0  0  0  0  0  0
    3.1153   -0.8381   -1.9996 H   0  0  0  0  0  0  0  0  0  0  0  0
   -1.4074   -0.2769    2.0097 H   0  0  0  0  0  0  0  0  0  0  0  0
   -0.6191    0.3663    0.5732 H   0  0  0  0  0  0  0  0  0  0  0  0
   -1.7724   -1.7617    0.0317 H   0  0  0  0  0  0  0  0  0  0  0  0
   -0.9724   -2.5821    1.3689 H   0  0  0  0  0  0  0  0  0  0  0  0
   -0.0351   -2.0920   -0.0376 H   0  0  0  0  0  0  0  0  0  0  0  0
   -1.9797   -4.6101    7.0952 H   0  0  0  0  0  0  0  0  0  0  0  0
   -6.1031   -7.7279    5.9875 H   0  0  0  0  0  0  0  0  0  0  0  0
   -8.0581   -8.7852    4.9024 H   0  0  0  0  0  0  0  0  0  0  0  0
   -9.8722   -8.7152    3.2378 H   0  0  0  0  0  0  0  0  0  0  0  0
  -10.1385   -6.7517    1.7746 H   0  0  0  0  0  0  0  0  0  0  0  0
   -8.5923   -4.8441    1.9622 H   0  0  0  0  0  0  0  0  0  0  0  0
   -6.6817   -3.7709    3.0055 H   0  0  0  0  0  0  0  0  0  0  0  0
  1  2  2  0  0  0  0
  2  3  1  0  0  0  0
  3  4  2  0  0  0  0
  3  5  1  0  0  0  0
  5  6  2  0  0  0  0
  6  7  1  0  0  0  0
  7  8  1  0  0  0  0
  7  9  2  0  0  0  0
  9 10  1  0  0  0  0
  9 11  1  0  0  0  0
 11 12  2  0  0  0  0
 12 13  1  0  0  0  0
 13 14  2  0  0  0  0
 14 15  1  0  0  0  0
 15 16  3  0  0  0  0
 14 17  1  0  0  0  0
 17 18  3  0  0  0  0
  1 19  1  0  0  0  0
 19 20  2  0  0  0  0
 20 21  1  0  0  0  0
 21 22  1  0  0  0  0
 20 23  1  0  0  0  0
 23 24  1  0  0  0  0
 24 25  1  0  0  0  0
 25 26  1  0  0  0  0
 26 27  1  0  0  0  0
 27 28  1  0  0  0  0
 28 29  2  0  0  0  0
 29 30  1  0  0  0  0
 30 31  1  0  0  0  0
 28 32  1  0  0  0  0
 32 33  1  0  0  0  0
 33 34  1  0  0  0  0
 34 35  1  0  0  0  0
 35 36  1  0  0  0  0
 36 37  1  0  0  0  0
 37 38  1  0  0  0  0
 36 39  2  0  0  0  0
 39 40  1  0  0  0  0
 40 41  1  0  0  0  0
 41 42  1  0  0  0  0
 42 43  1  0  0  0  0
 43 44  1  0  0  0  0
 44 45  1  0  0  0  0
 45 46  1  0  0  0  0
 46 47  1  0  0  0  0
 47 48  1  0  0  0  0
 48 49  1  0  0  0  0
 46 50  1  0  0  0  0
 50 51  1  0  0  0  0
 43 52  1  0  0  0  0
 52 53  1  0  0  0  0
 39 54  1  0  0  0  0
 54 55  2  0  0  0  0
 55 56  1  0  0  0  0
 56 57  2  0  0  0  0
 56 58  1  0  0  0  0
 58 59  2  0  0  0  0
 59 60  1  0  0  0  0
 60 61  2  0  0  0  0
 61 62  1  0  0  0  0
 62 63  2  0  0  0  0
 63 64  1  0  0  0  0
 64 65  2  0  0  0  0
 65 66  1  0  0  0  0
 66 67  2  0  0  0  0
 67 68  1  0  0  0  0
 68 69  2  0  0  0  0
 69 70  1  0  0  0  0
 70 71  3  0  0  0  0
 69 72  1  0  0  0  0
 72 73  3  0  0  0  0
 13  2  1  0  0  0  0
 49 19  1  0  0  0  0
 68 55  1  0  0  0  0
 12  5  1  0  0  0  0
 48 23  2  0  0  0  0
 67 58  1  0  0  0  0
 47 25  2  0  0  0  0
 65 60  1  0  0  0  0
 45 26  2  0  0  0  0
 31 27  2  0  0  0  0
 44 32  2  0  0  0  0
 42 33  2  0  0  0  0
 41 35  2  0  0  0  0
  1 74  1  0  0  0  0
  6 75  1  0  0  0  0
 11 76  1  0  0  0  0
 21 77  1  0  0  0  0
 21 78  1  0  0  0  0
 22 79  1  0  0  0  0
 22 80  1  0  0  0  0
 22 81  1  0  0  0  0
 37 82  1  0  0  0  0
 37 83  1  0  0  0  0
 38 84  1  0  0  0  0
 38 85  1  0  0  0  0
 38 86  1  0  0  0  0
 50 87  1  0  0  0  0
 50 88  1  0  0  0  0
 51 89  1  0  0  0  0
 51 90  1  0  0  0  0
 51 91  1  0  0  0  0
 52 92  1  0  0  0  0
 52 93  1  0  0  0  0
 53 94  1  0  0  0  0
 53 95  1  0  0  0  0
 53 96  1  0  0  0  0
 54 97  1  0  0  0  0
 59 98  1  0  0  0  0
 61 99  1  0  0  0  0
 62100  1  0  0  0  0
 63101  1  0  0  0  0
 64102  1  0  0  0  0
 66103  1  0  0  0  0
M  END
