101

C         -5.10530       -5.44720        2.85860
C         -5.71870       -5.84130        1.68830
C         -5.41660       -5.34840        0.34700
O         -4.57150       -4.53470        0.01520
C         -6.35070       -6.04400       -0.56350
C         -6.46970       -5.91510       -1.93240
C         -7.43310       -6.68220       -2.56770
F         -7.58510       -6.58890       -3.89520
C         -8.24500       -7.54920       -1.83750
F         -9.16770       -8.27800       -2.47640
C         -8.12340       -7.67840       -0.46120
C         -7.16280       -6.91440        0.18190
C         -6.78480       -6.81510        1.59390
C         -7.35570       -7.53820        2.61100
C         -8.39280       -8.47680        2.42710
N         -9.23770       -9.24980        2.34720
C         -7.00290       -7.46760        3.97450
N         -6.77700       -7.47120        5.10130
C         -4.08170       -4.53150        3.09330
C         -3.59260       -4.24100        4.38380
C         -4.11400       -4.81190        5.66130
C         -5.35240       -4.04530        6.13470
C         -2.58290       -3.29350        4.33980
S         -1.61870       -2.53470        5.59520
C         -0.80040       -1.62700        4.37170
C          0.17750       -0.63350        4.26550
C          0.87290        0.07010        5.27360
C          1.75010        1.13340        4.89040
N          2.30320        1.73440        5.93200
S          1.76670        1.01820        7.28080
N          0.80590       -0.08550        6.58620
C          1.95390        1.38520        3.51580
C          2.81530        2.28790        2.88310
S          3.95210        3.52460        3.29510
C          4.30670        3.71910        1.58720
C          5.17630        4.55880        0.90380
C          6.07970        5.52510        1.59760
C          7.46800        4.91620        1.81300
C          5.12440        4.33020       -0.48230
S          3.96860        3.06920       -0.90870
C          3.57000        2.85890        0.75590
C          2.71090        2.05140        1.50800
N          1.81070        1.04970        1.27440
C          1.30500        0.62870        2.49000
C          0.33780       -0.34310        2.87350
N         -0.56070       -1.12530        2.17490
C         -1.24030       -1.90400        3.07130
C         -2.26600       -2.84960        3.04100
S         -3.24500       -3.60530        1.84320
C         -0.96350       -1.16230        0.78810
C         -0.38320       -2.37430        0.05920
C          1.66430        0.56060       -0.07730
C          0.76690        1.46900       -0.91760
C          5.91400        5.03720       -1.39680
C          6.02120        4.93810       -2.76110
C          5.28220        4.00470       -3.62300
O          4.44570        3.19120       -3.26940
C          5.75280        4.25710       -4.99070
C          5.36850        3.62970       -6.17910
O          4.44590        2.65800       -6.10050
C          4.03370        2.00300       -7.27710
C          5.98160        4.06860       -7.35930
C          6.92490        5.07940       -7.33350
C          7.30640        5.70320       -6.15250
C          6.71150        5.28480       -4.97520
C          6.89440        5.73560       -3.59420
C          7.74180        6.73940       -3.19800
C          8.56320        7.48190       -4.07210
N          9.25990        8.12680       -4.71780
C          7.92520        7.19070       -1.87450
N          8.13390        7.61800       -0.82800
H         -5.47360       -5.91660        3.76030
H         -5.83920       -5.24300       -2.49220
H         -8.77640       -8.36300        0.05420
H         -3.33160       -4.72440        6.41760
H         -4.36360       -5.86780        5.54750
H         -6.15210       -4.11250        5.40080
H         -5.70840       -4.46600        7.07060
H         -5.11100       -2.99670        6.29150
H          6.17510        6.45160        1.02950
H          5.64140        5.76330        2.56890
H          8.10640        5.62900        2.32670
H          7.93000        4.66390        0.86140
H          7.39540        4.01320        2.41480
H         -2.05560       -1.24160        0.77120
H         -0.69310       -0.22840        0.30470
H          0.69420       -2.44590        0.19550
H         -0.60210       -2.30350       -1.00230
H         -0.83230       -3.28780        0.43910
H          1.30500       -0.46390       -0.05870
H          2.66240        0.55530       -0.52790
H          1.25070        2.42950       -1.07120
H         -0.19160        1.64730       -0.43380
H          0.59490        1.01630       -1.88970
H          6.54520        5.77880       -0.92690
H          4.86790        1.48840       -7.76400
H          3.29550        1.26960       -6.95760
H          3.57030        2.69900       -7.98320
H          5.72360        3.62080       -8.30580
H          7.37830        5.39280       -8.26180
H          8.04460        6.48630       -6.17220
