
  xtb     02022201403D
 energy: -190.872167609657 gnorm: 0.000472927311 xtb: 6.4.1 (unknown)
 97108  0     0  0            999 V2000
   -0.9428    1.8950   -7.3749 C   0  0  0  0  0  0  0  0  0  0  0  0
   -2.2033    1.4017   -7.5610 C   0  0  0  0  0  0  0  0  0  0  0  0
   -2.5752    0.7833   -8.8549 C   0  0  0  0  0  0  0  0  0  0  0  0
   -1.9614    0.8346   -9.8955 O   0  0  0  0  0  0  0  0  0  0  0  0
   -3.8296    0.0422   -8.5762 C   0  0  0  0  0  0  0  0  0  0  0  0
   -4.5391   -0.7985   -9.4105 C   0  0  0  0  0  0  0  0  0  0  0  0
   -5.6788   -1.4004   -8.9003 C   0  0  0  0  0  0  0  0  0  0  0  0
   -6.3938   -2.2267   -9.6735 F   0  0  0  0  0  0  0  0  0  0  0  0
   -6.0883   -1.1577   -7.5887 C   0  0  0  0  0  0  0  0  0  0  0  0
   -7.1853   -1.7640   -7.1207 F   0  0  0  0  0  0  0  0  0  0  0  0
   -5.3836   -0.3040   -6.7529 C   0  0  0  0  0  0  0  0  0  0  0  0
   -4.2429    0.2983   -7.2564 C   0  0  0  0  0  0  0  0  0  0  0  0
   -3.3201    1.2613   -6.6571 C   0  0  0  0  0  0  0  0  0  0  0  0
   -3.6046    2.0815   -5.5956 C   0  0  0  0  0  0  0  0  0  0  0  0
   -2.8283    3.2177   -5.2848 C   0  0  0  0  0  0  0  0  0  0  0  0
   -2.2480    4.1800   -5.0501 N   0  0  0  0  0  0  0  0  0  0  0  0
   -4.7331    1.9366   -4.7661 C   0  0  0  0  0  0  0  0  0  0  0  0
   -5.6176    1.8376   -4.0410 N   0  0  0  0  0  0  0  0  0  0  0  0
   -0.2424    2.1051   -6.1734 C   0  0  0  0  0  0  0  0  0  0  0  0
    0.8986    2.8867   -6.0103 C   0  0  0  0  0  0  0  0  0  0  0  0
    1.4759    3.7673   -7.0649 C   0  0  0  0  0  0  0  0  0  0  0  0
    0.6491    5.0485   -7.2009 C   0  0  0  0  0  0  0  0  0  0  0  0
    1.3756    2.8272   -4.7001 C   0  0  0  0  0  0  0  0  0  0  0  0
    2.7350    3.5914   -3.9097 S   0  0  0  0  0  0  0  0  0  0  0  0
    2.3168    2.7634   -2.4536 C   0  0  0  0  0  0  0  0  0  0  0  0
    2.7924    2.6209   -1.1447 C   0  0  0  0  0  0  0  0  0  0  0  0
    3.9636    3.1232   -0.5356 C   0  0  0  0  0  0  0  0  0  0  0  0
    4.2829    2.7024    0.7949 C   0  0  0  0  0  0  0  0  0  0  0  0
    5.4329    3.2006    1.2210 N   0  0  0  0  0  0  0  0  0  0  0  0
    6.0564    4.1257    0.0486 S   0  0  0  0  0  0  0  0  0  0  0  0
    4.8849    3.9227   -1.0496 N   0  0  0  0  0  0  0  0  0  0  0  0
    3.3640    1.8842    1.4886 C   0  0  0  0  0  0  0  0  0  0  0  0
    3.3789    1.4123    2.8058 C   0  0  0  0  0  0  0  0  0  0  0  0
    4.4148    1.4332    4.1894 S   0  0  0  0  0  0  0  0  0  0  0  0
    3.1945    0.5342    5.0724 C   0  0  0  0  0  0  0  0  0  0  0  0
    3.1496    0.0573    6.3742 C   0  0  0  0  0  0  0  0  0  0  0  0
    4.2889    0.2051    7.3283 C   0  0  0  0  0  0  0  0  0  0  0  0
    5.1799   -1.0404    7.3038 C   0  0  0  0  0  0  0  0  0  0  0  0
    1.9421   -0.6190    6.6312 C   0  0  0  0  0  0  0  0  0  0  0  0
    0.8766   -0.6351    5.2233 S   0  0  0  0  0  0  0  0  0  0  0  0
    2.0458    0.2447    4.3136 C   0  0  0  0  0  0  0  0  0  0  0  0
    2.1646    0.7460    3.0142 C   0  0  0  0  0  0  0  0  0  0  0  0
    1.4165    0.7666    1.8681 N   0  0  0  0  0  0  0  0  0  0  0  0
    2.1358    1.4498    0.9031 C   0  0  0  0  0  0  0  0  0  0  0  0
    1.8994    1.7379   -0.4682 C   0  0  0  0  0  0  0  0  0  0  0  0
    0.9253    1.3375   -1.3684 N   0  0  0  0  0  0  0  0  0  0  0  0
    1.1822    1.9487   -2.5655 C   0  0  0  0  0  0  0  0  0  0  0  0
    0.6442    1.9803   -3.8533 C   0  0  0  0  0  0  0  0  0  0  0  0
   -0.6800    1.2571   -4.6873 S   0  0  0  0  0  0  0  0  0  0  0  0
    0.0095    0.2195   -1.3223 C   0  0  0  0  0  0  0  0  0  0  0  0
    0.7524   -1.1045   -1.1604 C   0  0  0  0  0  0  0  0  0  0  0  0
    0.0076    0.4437    1.9376 C   0  0  0  0  0  0  0  0  0  0  0  0
   -0.8594    1.6915    1.7910 C   0  0  0  0  0  0  0  0  0  0  0  0
    1.6498   -1.2045    7.8647 C   0  0  0  0  0  0  0  0  0  0  0  0
    0.5457   -1.9027    8.2961 C   0  0  0  0  0  0  0  0  0  0  0  0
   -0.6535   -2.1942    7.5100 C   0  0  0  0  0  0  0  0  0  0  0  0
   -0.8865   -1.8806    6.3553 O   0  0  0  0  0  0  0  0  0  0  0  0
   -1.5503   -2.9547    8.4026 C   0  0  0  0  0  0  0  0  0  0  0  0
   -2.8053   -3.4609    8.1363 C   0  0  0  0  0  0  0  0  0  0  0  0
   -3.4622   -4.1545    9.1454 C   0  0  0  0  0  0  0  0  0  0  0  0
   -5.0270   -4.7998    8.8563 Cl  0  0  0  0  0  0  0  0  0  0  0  0
   -2.8528   -4.3278   10.3924 C   0  0  0  0  0  0  0  0  0  0  0  0
   -3.6727   -5.1916   11.6300 Cl  0  0  0  0  0  0  0  0  0  0  0  0
   -1.5876   -3.8124   10.6561 C   0  0  0  0  0  0  0  0  0  0  0  0
   -0.9310   -3.1184    9.6538 C   0  0  0  0  0  0  0  0  0  0  0  0
    0.3790   -2.4676    9.6201 C   0  0  0  0  0  0  0  0  0  0  0  0
    1.2598   -2.4177   10.6705 C   0  0  0  0  0  0  0  0  0  0  0  0
    1.0148   -2.9922   11.9360 C   0  0  0  0  0  0  0  0  0  0  0  0
    0.8825   -3.4338   12.9871 N   0  0  0  0  0  0  0  0  0  0  0  0
    2.5259   -1.7963   10.6592 C   0  0  0  0  0  0  0  0  0  0  0  0
    3.5680   -1.3171   10.7317 N   0  0  0  0  0  0  0  0  0  0  0  0
   -0.3776    2.0637   -8.2869 H   0  0  0  0  0  0  0  0  0  0  0  0
   -4.2238   -0.9846  -10.4247 H   0  0  0  0  0  0  0  0  0  0  0  0
   -5.7350   -0.1447   -5.7463 H   0  0  0  0  0  0  0  0  0  0  0  0
    2.4997    4.0220   -6.7846 H   0  0  0  0  0  0  0  0  0  0  0  0
    1.4962    3.2437   -8.0230 H   0  0  0  0  0  0  0  0  0  0  0  0
    0.6318    5.5876   -6.2575 H   0  0  0  0  0  0  0  0  0  0  0  0
   -0.3759    4.8133   -7.4767 H   0  0  0  0  0  0  0  0  0  0  0  0
    1.0811    5.6908   -7.9635 H   0  0  0  0  0  0  0  0  0  0  0  0
    3.9329    0.3756    8.3451 H   0  0  0  0  0  0  0  0  0  0  0  0
    4.8796    1.0708    7.0226 H   0  0  0  0  0  0  0  0  0  0  0  0
    6.0074   -0.9132    7.9955 H   0  0  0  0  0  0  0  0  0  0  0  0
    4.6172   -1.9228    7.5992 H   0  0  0  0  0  0  0  0  0  0  0  0
    5.5791   -1.2002    6.3050 H   0  0  0  0  0  0  0  0  0  0  0  0
   -0.5262    0.2176   -2.2749 H   0  0  0  0  0  0  0  0  0  0  0  0
   -0.7343    0.3645   -0.5392 H   0  0  0  0  0  0  0  0  0  0  0  0
    1.4022   -1.2734   -2.0160 H   0  0  0  0  0  0  0  0  0  0  0  0
    1.3673   -1.1043   -0.2634 H   0  0  0  0  0  0  0  0  0  0  0  0
    0.0412   -1.9236   -1.0998 H   0  0  0  0  0  0  0  0  0  0  0  0
   -0.1609    0.0032    2.9232 H   0  0  0  0  0  0  0  0  0  0  0  0
   -0.2501   -0.3168    1.2006 H   0  0  0  0  0  0  0  0  0  0  0  0
   -0.6558    2.3823    2.6058 H   0  0  0  0  0  0  0  0  0  0  0  0
   -0.6611    2.2064    0.8536 H   0  0  0  0  0  0  0  0  0  0  0  0
   -1.9100    1.4172    1.8267 H   0  0  0  0  0  0  0  0  0  0  0  0
    2.4405   -1.0811    8.5917 H   0  0  0  0  0  0  0  0  0  0  0  0
   -3.2626   -3.3206    7.1698 H   0  0  0  0  0  0  0  0  0  0  0  0
   -1.1526   -3.9666   11.6297 H   0  0  0  0  0  0  0  0  0  0  0  0
  1  2  2  0  0  0  0
  2  3  1  0  0  0  0
  3  4  2  0  0  0  0
  3  5  1  0  0  0  0
  5  6  2  0  0  0  0
  6  7  1  0  0  0  0
  7  8  1  0  0  0  0
  7  9  2  0  0  0  0
  9 10  1  0  0  0  0
  9 11  1  0  0  0  0
 11 12  2  0  0  0  0
 12 13  1  0  0  0  0
 13 14  2  0  0  0  0
 14 15  1  0  0  0  0
 15 16  3  0  0  0  0
 14 17  1  0  0  0  0
 17 18  3  0  0  0  0
  1 19  1  0  0  0  0
 19 20  2  0  0  0  0
 20 21  1  0  0  0  0
 21 22  1  0  0  0  0
 20 23  1  0  0  0  0
 23 24  1  0  0  0  0
 24 25  1  0  0  0  0
 25 26  1  0  0  0  0
 26 27  1  0  0  0  0
 27 28  1  0  0  0  0
 28 29  2  0  0  0  0
 29 30  1  0  0  0  0
 30 31  1  0  0  0  0
 28 32  1  0  0  0  0
 32 33  1  0  0  0  0
 33 34  1  0  0  0  0
 34 35  1  0  0  0  0
 35 36  1  0  0  0  0
 36 37  1  0  0  0  0
 37 38  1  0  0  0  0
 36 39  2  0  0  0  0
 39 40  1  0  0  0  0
 40 41  1  0  0  0  0
 41 42  1  0  0  0  0
 42 43  1  0  0  0  0
 43 44  1  0  0  0  0
 44 45  1  0  0  0  0
 45 46  1  0  0  0  0
 46 47  1  0  0  0  0
 47 48  1  0  0  0  0
 48 49  1  0  0  0  0
 46 50  1  0  0  0  0
 50 51  1  0  0  0  0
 43 52  1  0  0  0  0
 52 53  1  0  0  0  0
 39 54  1  0  0  0  0
 54 55  2  0  0  0  0
 55 56  1  0  0  0  0
 56 57  2  0  0  0  0
 56 58  1  0  0  0  0
 58 59  2  0  0  0  0
 59 60  1  0  0  0  0
 60 61  1  0  0  0  0
 60 62  2  0  0  0  0
 62 63  1  0  0  0  0
 62 64  1  0  0  0  0
 64 65  2  0  0  0  0
 65 66  1  0  0  0  0
 66 67  2  0  0  0  0
 67 68  1  0  0  0  0
 68 69  3  0  0  0  0
 67 70  1  0  0  0  0
 70 71  3  0  0  0  0
 13  2  1  0  0  0  0
 49 19  1  0  0  0  0
 66 55  1  0  0  0  0
 12  5  1  0  0  0  0
 48 23  2  0  0  0  0
 65 58  1  0  0  0  0
 47 25  2  0  0  0  0
 45 26  2  0  0  0  0
 31 27  2  0  0  0  0
 44 32  2  0  0  0  0
 42 33  2  0  0  0  0
 41 35  2  0  0  0  0
  1 72  1  0  0  0  0
  6 73  1  0  0  0  0
 11 74  1  0  0  0  0
 21 75  1  0  0  0  0
 21 76  1  0  0  0  0
 22 77  1  0  0  0  0
 22 78  1  0  0  0  0
 22 79  1  0  0  0  0
 37 80  1  0  0  0  0
 37 81  1  0  0  0  0
 38 82  1  0  0  0  0
 38 83  1  0  0  0  0
 38 84  1  0  0  0  0
 50 85  1  0  0  0  0
 50 86  1  0  0  0  0
 51 87  1  0  0  0  0
 51 88  1  0  0  0  0
 51 89  1  0  0  0  0
 52 90  1  0  0  0  0
 52 91  1  0  0  0  0
 53 92  1  0  0  0  0
 53 93  1  0  0  0  0
 53 94  1  0  0  0  0
 54 95  1  0  0  0  0
 59 96  1  0  0  0  0
 64 97  1  0  0  0  0
M  END
