
  xtb     02012222273D
 energy: -190.012666655375 gnorm: 0.000828260943 xtb: 6.4.1 (unknown)
101112  0     0  0            999 V2000
    3.2478    4.2991    6.1565 C   0  0  0  0  0  0  0  0  0  0  0  0
    3.8605    5.3447    5.4991 C   0  0  0  0  0  0  0  0  0  0  0  0
    3.8031    5.6152    4.0646 C   0  0  0  0  0  0  0  0  0  0  0  0
    3.2294    4.9766    3.1992 O   0  0  0  0  0  0  0  0  0  0  0  0
    4.5982    6.8426    3.8485 C   0  0  0  0  0  0  0  0  0  0  0  0
    4.8442    7.5075    2.6644 C   0  0  0  0  0  0  0  0  0  0  0  0
    5.6297    8.6478    2.7202 C   0  0  0  0  0  0  0  0  0  0  0  0
    5.8950    9.3256    1.5959 F   0  0  0  0  0  0  0  0  0  0  0  0
    6.1460    9.0951    3.9358 C   0  0  0  0  0  0  0  0  0  0  0  0
    6.9015   10.1993    3.9609 F   0  0  0  0  0  0  0  0  0  0  0  0
    5.8979    8.4251    5.1253 C   0  0  0  0  0  0  0  0  0  0  0  0
    5.1133    7.2840    5.0783 C   0  0  0  0  0  0  0  0  0  0  0  0
    4.6719    6.3636    6.1294 C   0  0  0  0  0  0  0  0  0  0  0  0
    4.9996    6.4757    7.4573 C   0  0  0  0  0  0  0  0  0  0  0  0
    4.5958    5.5987    8.4852 C   0  0  0  0  0  0  0  0  0  0  0  0
    4.3105    4.9359    9.3794 N   0  0  0  0  0  0  0  0  0  0  0  0
    5.8093    7.5023    7.9872 C   0  0  0  0  0  0  0  0  0  0  0  0
    6.4604    8.3072    8.4832 N   0  0  0  0  0  0  0  0  0  0  0  0
    2.4601    3.2529    5.6801 C   0  0  0  0  0  0  0  0  0  0  0  0
    1.9100    2.2622    6.5193 C   0  0  0  0  0  0  0  0  0  0  0  0
    2.0271    2.2195    8.0073 C   0  0  0  0  0  0  0  0  0  0  0  0
    0.9894    3.1366    8.6610 C   0  0  0  0  0  0  0  0  0  0  0  0
    1.1822    1.3327    5.7938 C   0  0  0  0  0  0  0  0  0  0  0  0
    0.3002   -0.1098    6.2656 S   0  0  0  0  0  0  0  0  0  0  0  0
   -0.0872   -0.3790    4.6020 C   0  0  0  0  0  0  0  0  0  0  0  0
   -0.7455   -1.3242    3.8051 C   0  0  0  0  0  0  0  0  0  0  0  0
   -1.3163   -2.5761    4.1281 C   0  0  0  0  0  0  0  0  0  0  0  0
   -1.7883   -3.4177    3.0672 C   0  0  0  0  0  0  0  0  0  0  0  0
   -2.2332   -4.5837    3.5075 N   0  0  0  0  0  0  0  0  0  0  0  0
   -2.0787   -4.6179    5.1183 S   0  0  0  0  0  0  0  0  0  0  0  0
   -1.4345   -3.1460    5.3166 N   0  0  0  0  0  0  0  0  0  0  0  0
   -1.7885   -2.9159    1.7463 C   0  0  0  0  0  0  0  0  0  0  0  0
   -2.3105   -3.4431    0.5580 C   0  0  0  0  0  0  0  0  0  0  0  0
   -3.0893   -4.8809   -0.0062 S   0  0  0  0  0  0  0  0  0  0  0  0
   -3.2589   -4.1319   -1.5835 C   0  0  0  0  0  0  0  0  0  0  0  0
   -3.8200   -4.5763   -2.7745 C   0  0  0  0  0  0  0  0  0  0  0  0
   -4.4090   -5.9400   -2.9338 C   0  0  0  0  0  0  0  0  0  0  0  0
   -3.3801   -6.9126   -3.5168 C   0  0  0  0  0  0  0  0  0  0  0  0
   -3.7106   -3.6060   -3.7840 C   0  0  0  0  0  0  0  0  0  0  0  0
   -2.9154   -2.1390   -3.2153 S   0  0  0  0  0  0  0  0  0  0  0  0
   -2.7309   -2.8318   -1.6488 C   0  0  0  0  0  0  0  0  0  0  0  0
   -2.1807   -2.4501   -0.4215 C   0  0  0  0  0  0  0  0  0  0  0  0
   -1.5816   -1.3425    0.1141 N   0  0  0  0  0  0  0  0  0  0  0  0
   -1.3032   -1.6094    1.4395 C   0  0  0  0  0  0  0  0  0  0  0  0
   -0.6575   -0.8621    2.4579 C   0  0  0  0  0  0  0  0  0  0  0  0
    0.0705    0.3151    2.4425 N   0  0  0  0  0  0  0  0  0  0  0  0
    0.4215    0.5994    3.7375 C   0  0  0  0  0  0  0  0  0  0  0  0
    1.1577    1.5772    4.4070 C   0  0  0  0  0  0  0  0  0  0  0  0
    2.0450    2.9899    3.9829 S   0  0  0  0  0  0  0  0  0  0  0  0
    0.8697    0.8914    1.3812 C   0  0  0  0  0  0  0  0  0  0  0  0
    2.0686    0.0014    1.0612 C   0  0  0  0  0  0  0  0  0  0  0  0
   -1.6439   -0.0836   -0.5946 C   0  0  0  0  0  0  0  0  0  0  0  0
   -0.5779    0.0237   -1.6840 C   0  0  0  0  0  0  0  0  0  0  0  0
   -4.1978   -3.7994   -5.0832 C   0  0  0  0  0  0  0  0  0  0  0  0
   -4.1488   -2.9926   -6.1902 C   0  0  0  0  0  0  0  0  0  0  0  0
   -3.4791   -1.6953   -6.2871 C   0  0  0  0  0  0  0  0  0  0  0  0
   -2.9518   -1.0576   -5.3906 O   0  0  0  0  0  0  0  0  0  0  0  0
   -3.5406   -1.3075   -7.7079 C   0  0  0  0  0  0  0  0  0  0  0  0
   -2.9941   -0.1963   -8.3158 C   0  0  0  0  0  0  0  0  0  0  0  0
   -3.1285   -0.0843   -9.6924 C   0  0  0  0  0  0  0  0  0  0  0  0
   -3.7481   -1.0772  -10.4305 C   0  0  0  0  0  0  0  0  0  0  0  0
   -4.2919   -2.2148   -9.8223 C   0  0  0  0  0  0  0  0  0  0  0  0
   -4.8245   -3.2533  -10.4883 O   0  0  0  0  0  0  0  0  0  0  0  0
   -5.0045   -3.1834  -11.8846 C   0  0  0  0  0  0  0  0  0  0  0  0
   -4.2301   -2.2994   -8.4248 C   0  0  0  0  0  0  0  0  0  0  0  0
   -4.7286   -3.3017   -7.4904 C   0  0  0  0  0  0  0  0  0  0  0  0
   -5.6770   -4.2601   -7.7398 C   0  0  0  0  0  0  0  0  0  0  0  0
   -6.1439   -5.1970   -6.7921 C   0  0  0  0  0  0  0  0  0  0  0  0
   -6.5736   -5.9987   -6.0893 N   0  0  0  0  0  0  0  0  0  0  0  0
   -6.4339   -4.4195   -8.9221 C   0  0  0  0  0  0  0  0  0  0  0  0
   -7.1690   -4.6232   -9.7806 N   0  0  0  0  0  0  0  0  0  0  0  0
    3.3943    4.2704    7.2274 H   0  0  0  0  0  0  0  0  0  0  0  0
    4.4426    7.1571    1.7272 H   0  0  0  0  0  0  0  0  0  0  0  0
    6.3212    8.8140    6.0366 H   0  0  0  0  0  0  0  0  0  0  0  0
    1.8503    1.1928    8.3338 H   0  0  0  0  0  0  0  0  0  0  0  0
    3.0260    2.5146    8.3319 H   0  0  0  0  0  0  0  0  0  0  0  0
    1.1368    4.1686    8.3516 H   0  0  0  0  0  0  0  0  0  0  0  0
   -0.0159    2.8300    8.3816 H   0  0  0  0  0  0  0  0  0  0  0  0
    1.0832    3.0850    9.7418 H   0  0  0  0  0  0  0  0  0  0  0  0
   -5.2912   -5.9131   -3.5753 H   0  0  0  0  0  0  0  0  0  0  0  0
   -4.7148   -6.2957   -1.9479 H   0  0  0  0  0  0  0  0  0  0  0  0
   -2.5133   -6.9819   -2.8636 H   0  0  0  0  0  0  0  0  0  0  0  0
   -3.0483   -6.5811   -4.4981 H   0  0  0  0  0  0  0  0  0  0  0  0
   -3.8214   -7.9003   -3.6164 H   0  0  0  0  0  0  0  0  0  0  0  0
    1.2179    1.8623    1.7420 H   0  0  0  0  0  0  0  0  0  0  0  0
    0.2778    1.0592    0.4878 H   0  0  0  0  0  0  0  0  0  0  0  0
    2.6693    0.4583    0.2798 H   0  0  0  0  0  0  0  0  0  0  0  0
    1.7394   -0.9808    0.7270 H   0  0  0  0  0  0  0  0  0  0  0  0
    2.6899   -0.1265    1.9445 H   0  0  0  0  0  0  0  0  0  0  0  0
   -1.5829    0.7293    0.1305 H   0  0  0  0  0  0  0  0  0  0  0  0
   -2.6288   -0.0243   -1.0708 H   0  0  0  0  0  0  0  0  0  0  0  0
   -0.5758    1.0286   -2.0967 H   0  0  0  0  0  0  0  0  0  0  0  0
   -0.8002   -0.6707   -2.4894 H   0  0  0  0  0  0  0  0  0  0  0  0
    0.4124   -0.2049   -1.2997 H   0  0  0  0  0  0  0  0  0  0  0  0
   -4.6697   -4.7624   -5.2194 H   0  0  0  0  0  0  0  0  0  0  0  0
   -2.4817    0.5494   -7.7296 H   0  0  0  0  0  0  0  0  0  0  0  0
   -2.7275    0.7769  -10.2051 H   0  0  0  0  0  0  0  0  0  0  0  0
   -3.8008   -0.9720  -11.5025 H   0  0  0  0  0  0  0  0  0  0  0  0
   -5.5404   -4.0942  -12.1453 H   0  0  0  0  0  0  0  0  0  0  0  0
   -5.6092   -2.3172  -12.1657 H   0  0  0  0  0  0  0  0  0  0  0  0
   -4.0448   -3.1543  -12.4094 H   0  0  0  0  0  0  0  0  0  0  0  0
  1  2  2  0  0  0  0
  2  3  1  0  0  0  0
  3  4  2  0  0  0  0
  3  5  1  0  0  0  0
  5  6  2  0  0  0  0
  6  7  1  0  0  0  0
  7  8  1  0  0  0  0
  7  9  2  0  0  0  0
  9 10  1  0  0  0  0
  9 11  1  0  0  0  0
 11 12  2  0  0  0  0
 12 13  1  0  0  0  0
 13 14  2  0  0  0  0
 14 15  1  0  0  0  0
 15 16  3  0  0  0  0
 14 17  1  0  0  0  0
 17 18  3  0  0  0  0
  1 19  1  0  0  0  0
 19 20  2  0  0  0  0
 20 21  1  0  0  0  0
 21 22  1  0  0  0  0
 20 23  1  0  0  0  0
 23 24  1  0  0  0  0
 24 25  1  0  0  0  0
 25 26  1  0  0  0  0
 26 27  1  0  0  0  0
 27 28  1  0  0  0  0
 28 29  2  0  0  0  0
 29 30  1  0  0  0  0
 30 31  1  0  0  0  0
 28 32  1  0  0  0  0
 32 33  1  0  0  0  0
 33 34  1  0  0  0  0
 34 35  1  0  0  0  0
 35 36  1  0  0  0  0
 36 37  1  0  0  0  0
 37 38  1  0  0  0  0
 36 39  2  0  0  0  0
 39 40  1  0  0  0  0
 40 41  1  0  0  0  0
 41 42  1  0  0  0  0
 42 43  1  0  0  0  0
 43 44  1  0  0  0  0
 44 45  1  0  0  0  0
 45 46  1  0  0  0  0
 46 47  1  0  0  0  0
 47 48  1  0  0  0  0
 48 49  1  0  0  0  0
 46 50  1  0  0  0  0
 50 51  1  0  0  0  0
 43 52  1  0  0  0  0
 52 53  1  0  0  0  0
 39 54  1  0  0  0  0
 54 55  2  0  0  0  0
 55 56  1  0  0  0  0
 56 57  2  0  0  0  0
 56 58  1  0  0  0  0
 58 59  2  0  0  0  0
 59 60  1  0  0  0  0
 60 61  2  0  0  0  0
 61 62  1  0  0  0  0
 62 63  1  0  0  0  0
 63 64  1  0  0  0  0
 62 65  2  0  0  0  0
 65 66  1  0  0  0  0
 66 67  2  0  0  0  0
 67 68  1  0  0  0  0
 68 69  3  0  0  0  0
 67 70  1  0  0  0  0
 70 71  3  0  0  0  0
 13  2  1  0  0  0  0
 49 19  1  0  0  0  0
 66 55  1  0  0  0  0
 12  5  1  0  0  0  0
 48 23  2  0  0  0  0
 65 58  1  0  0  0  0
 47 25  2  0  0  0  0
 45 26  2  0  0  0  0
 31 27  2  0  0  0  0
 44 32  2  0  0  0  0
 42 33  2  0  0  0  0
 41 35  2  0  0  0  0
  1 72  1  0  0  0  0
  6 73  1  0  0  0  0
 11 74  1  0  0  0  0
 21 75  1  0  0  0  0
 21 76  1  0  0  0  0
 22 77  1  0  0  0  0
 22 78  1  0  0  0  0
 22 79  1  0  0  0  0
 37 80  1  0  0  0  0
 37 81  1  0  0  0  0
 38 82  1  0  0  0  0
 38 83  1  0  0  0  0
 38 84  1  0  0  0  0
 50 85  1  0  0  0  0
 50 86  1  0  0  0  0
 51 87  1  0  0  0  0
 51 88  1  0  0  0  0
 51 89  1  0  0  0  0
 52 90  1  0  0  0  0
 52 91  1  0  0  0  0
 53 92  1  0  0  0  0
 53 93  1  0  0  0  0
 53 94  1  0  0  0  0
 54 95  1  0  0  0  0
 59 96  1  0  0  0  0
 60 97  1  0  0  0  0
 61 98  1  0  0  0  0
 64 99  1  0  0  0  0
 64100  1  0  0  0  0
 64101  1  0  0  0  0
M  END
