103

C          5.24490       -5.34430        3.35890
C          4.44990       -6.42020        3.64180
C          5.05030       -7.76620        3.78730
O          6.22360       -8.03810        3.89810
C          3.90480       -8.70550        3.70810
C          3.92040      -10.08580        3.68180
C          2.70370      -10.74150        3.57600
F          2.67350      -12.07960        3.54270
C          1.50990      -10.02360        3.50120
F          0.35210      -10.68450        3.38640
C          1.49140       -8.63720        3.53960
C          2.70400       -7.97640        3.64280
C          3.01670       -6.55170        3.74910
C          2.14320       -5.57680        4.15960
C          0.75220       -5.75920        4.27520
N         -0.39060       -5.84290        4.34590
C          2.56810       -4.30170        4.58830
N          2.88810       -3.27880        4.99970
C          4.89390       -4.11750        2.76960
C          5.64310       -2.94310        2.79610
C          6.89550       -2.75940        3.58290
C          6.56860       -2.55040        5.06400
C          5.01060       -1.91820        2.09160
S          5.42550       -0.23950        1.82900
C          3.96790       -0.04970        0.92290
C          3.24630        0.96340        0.27960
C          3.49820        2.34980        0.18880
C          2.50730        3.19170       -0.41010
N          2.84580        4.47150       -0.38160
S          4.29070        4.60300        0.33450
N          4.54030        3.03260        0.63680
C          1.36070        2.59450       -0.97730
C          0.29530        3.16340       -1.68780
S         -0.26930        4.72070       -2.17500
C         -1.62020        3.96000       -2.98560
C         -2.72890        4.47340       -3.68290
C         -2.92130        5.91140       -4.02750
C         -1.64920        6.57800       -4.54500
C         -3.56730        3.45210       -4.09910
S         -2.94340        1.85400       -3.69200
C         -1.60080        2.56450       -2.87720
C         -0.51010        2.10930       -2.12720
N         -0.00160        0.91620       -1.69050
C          1.14970        1.18450       -0.96530
C          2.05850        0.36780       -0.23990
N          2.06330       -0.97480        0.10390
C          3.20730       -1.22110        0.81530
C          3.80060       -2.29080        1.48590
S          3.43050       -3.94510        1.79640
C          0.98000       -1.93160        0.16450
C         -0.13590       -1.45590        1.09080
C         -0.46920       -0.31630       -2.28400
C          0.57890       -0.92370       -3.21320
C         -4.78610        3.48010       -4.82590
C         -5.79700        4.37740       -4.69390
S         -7.17330        4.37890       -5.78830
C         -7.96210        5.63480       -4.85950
C         -9.15300        6.16660       -5.28010
C         -9.76100        5.66260       -6.44910
N        -10.26090        5.25120       -7.39580
C         -9.84370        7.23620       -4.68670
N        -10.43920        8.12790       -4.27610
N         -7.23640        5.96660       -3.75900
C         -7.74010        6.79470       -2.68060
C         -8.89890        6.14650       -1.96130
C         -8.94350        4.76920       -1.78860
C        -10.00450        4.18140       -1.12320
C        -11.02540        4.96590       -0.61610
C        -10.97850        6.34070       -0.77280
C         -9.92180        6.92910       -1.44370
C         -6.02110        5.31140       -3.59560
O         -5.31530        5.48190       -2.62530
H          6.30430       -5.49680        3.54290
H          4.84280      -10.64080        3.74220
H          0.54640       -8.12210        3.47880
H          7.54150       -3.63280        3.47220
H          7.42280       -1.88390        3.19940
H          5.92450       -1.68400        5.18890
H          7.48360       -2.39070        5.62790
H          6.05280       -3.41860        5.46690
H         -3.70440        5.98960       -4.78480
H         -3.27740        6.43300       -3.13410
H         -1.24310        6.02230       -5.38750
H         -0.89120        6.63800       -3.76980
H         -1.87770        7.58780       -4.87620
H          0.60930       -2.15610       -0.83520
H          1.40560       -2.85640        0.56210
H         -0.93700       -2.18940        1.11330
H         -0.53960       -0.50030        0.76380
H          0.24780       -1.33510        2.10130
H         -0.78330       -1.01990       -1.51250
H         -1.35910       -0.06220       -2.86510
H          0.21100       -1.85930       -3.62570
H          0.78620       -0.24170       -4.03450
H          1.51180       -1.11240       -2.68710
H         -4.93240        2.67230       -5.53430
H         -8.02410        7.77730       -3.06460
H         -6.89550        6.91380       -1.99050
H         -8.14400        4.14680       -2.16740
H        -10.03050        3.10880       -1.00040
H        -11.85440        4.50640       -0.09930
H        -11.77070        6.95840       -0.37820
H         -9.89590        7.99970       -1.57720
