83

C         -2.58500       -1.88630       -4.40480
C         -2.25690       -2.07570       -5.72340
C         -0.91620       -1.83040       -6.29340
O          0.11250       -1.56880       -5.70740
C         -1.10990       -1.84450       -7.76240
C         -0.16650       -1.63720       -8.74870
C         -0.59300       -1.68350      -10.06630
F          0.28870       -1.49290      -11.05520
C         -1.93240       -1.92520      -10.37280
F         -2.31660       -1.95700      -11.65370
C         -2.88100       -2.13040       -9.38180
C         -2.46030       -2.08950       -8.06190
C         -3.19340       -2.26420       -6.80950
C         -4.50950       -2.62740       -6.69220
C         -5.37880       -2.81320       -7.78730
N         -6.13090       -2.96960       -8.63980
C         -5.15610       -2.89470       -5.46670
N         -5.73450       -3.15080       -4.50860
C         -1.69800       -1.84940       -3.31350
C         -0.52370       -2.55400       -3.05630
C         -0.01240       -3.67600       -3.89410
C          0.27800       -4.93300       -3.07560
C          0.03910       -2.15940       -1.83570
S          1.52040       -2.60110       -1.01300
C          1.14630       -1.46660        0.23320
C          1.67820       -1.00750        1.44490
C          2.82250       -1.42530        2.15880
C          3.08550       -0.84350        3.43980
N          4.16030       -1.35620        4.01860
S          4.78900       -2.47370        3.03090
N          3.71340       -2.34720        1.82830
C          2.24420        0.19240        3.90100
C          2.33780        0.99620        5.04420
S          3.33560        1.16320        6.44580
C          2.37150        2.54120        6.93090
C          2.44930        3.40190        8.02800
C          3.45790        3.23800        9.11750
C          2.89030        2.38610       10.25590
C          1.44660        4.36840        7.98320
S          0.42010        4.20120        6.55840
C          1.33180        2.83560        6.03700
C          1.31360        1.94510        4.95860
N          0.57730        1.73990        3.82390
C          1.12480        0.66000        3.15030
C          0.78410       -0.01540        1.94620
N         -0.27840        0.09160        1.06290
C         -0.05940       -0.78570        0.03450
C         -0.69540       -1.18200       -1.14480
S         -2.14080       -0.77280       -1.98480
C         -1.60160        0.64590        1.24740
C         -2.32360       -0.01080        2.42130
C         -0.32890        2.77300        3.37300
C          0.23920        3.53260        2.17680
C          1.23100        5.38200        8.93760
C          0.25100        6.33420        8.93500
C          0.18350        7.27860        9.98200
N          0.13820        8.04030       10.83820
C         -0.74500        6.47610        7.94940
N         -1.57320        6.62720        7.16840
H         -3.61950       -1.66640       -4.16590
H          0.86740       -1.44720       -8.50830
H         -3.90480       -2.30700       -9.66820
H         -0.74900       -3.91050       -4.66450
H          0.89910       -3.34360       -4.39910
H         -0.60670       -5.23730       -2.52030
H          1.09120       -4.77030       -2.37450
H          0.56040       -5.74260       -3.74350
H          4.33480        2.73890        8.70070
H          3.76870        4.21030        9.50300
H          3.63830        2.25880       11.03370
H          2.01240        2.85870       10.69090
H          2.60580        1.40460        9.88470
H         -1.55390        1.72900        1.35570
H         -2.15410        0.44140        0.32710
H         -3.30420        0.43850        2.55110
H         -2.45340       -1.07350        2.22960
H         -1.75930        0.09980        3.34450
H         -0.45420        3.46510        4.20920
H         -1.31160        2.35450        3.15840
H          1.16430        4.03010        2.45860
H         -0.47030        4.28660        1.84750
H          0.45460        2.86210        1.34780
H          1.92340        5.40190        9.77020
