
  xtb     02022200293D
 energy: -194.706391263606 gnorm: 0.000546560503 xtb: 6.4.1 (unknown)
107118  0     0  0            999 V2000
    4.7381    4.4952    4.2115 C   0  0  0  0  0  0  0  0  0  0  0  0
    4.5868    5.6583    3.4864 C   0  0  0  0  0  0  0  0  0  0  0  0
    3.7689    5.8289    2.2883 C   0  0  0  0  0  0  0  0  0  0  0  0
    3.1196    4.9861    1.6930 O   0  0  0  0  0  0  0  0  0  0  0  0
    3.8742    7.2579    1.9229 C   0  0  0  0  0  0  0  0  0  0  0  0
    3.2660    7.9243    0.8786 C   0  0  0  0  0  0  0  0  0  0  0  0
    3.5180    9.2809    0.7491 C   0  0  0  0  0  0  0  0  0  0  0  0
    2.9465    9.9690   -0.2477 F   0  0  0  0  0  0  0  0  0  0  0  0
    4.3594    9.9355    1.6477 C   0  0  0  0  0  0  0  0  0  0  0  0
    4.5848   11.2463    1.5001 F   0  0  0  0  0  0  0  0  0  0  0  0
    4.9709    9.2640    2.6968 C   0  0  0  0  0  0  0  0  0  0  0  0
    4.7224    7.9079    2.8345 C   0  0  0  0  0  0  0  0  0  0  0  0
    5.1937    6.9291    3.8174 C   0  0  0  0  0  0  0  0  0  0  0  0
    6.0596    7.2051    4.8458 C   0  0  0  0  0  0  0  0  0  0  0  0
    6.6101    8.4799    5.0948 C   0  0  0  0  0  0  0  0  0  0  0  0
    7.0929    9.4891    5.3520 N   0  0  0  0  0  0  0  0  0  0  0  0
    6.5362    6.2791    5.7965 C   0  0  0  0  0  0  0  0  0  0  0  0
    6.9737    5.5913    6.6067 N   0  0  0  0  0  0  0  0  0  0  0  0
    4.2075    3.2211    4.0223 C   0  0  0  0  0  0  0  0  0  0  0  0
    4.4517    2.1495    4.9058 C   0  0  0  0  0  0  0  0  0  0  0  0
    5.3399    2.1938    6.1054 C   0  0  0  0  0  0  0  0  0  0  0  0
    6.8038    1.9892    5.7049 C   0  0  0  0  0  0  0  0  0  0  0  0
    3.7952    1.0000    4.4990 C   0  0  0  0  0  0  0  0  0  0  0  0
    3.6824   -0.6049    5.2000 S   0  0  0  0  0  0  0  0  0  0  0  0
    2.6298   -1.0613    3.9066 C   0  0  0  0  0  0  0  0  0  0  0  0
    1.8531   -2.1572    3.5110 C   0  0  0  0  0  0  0  0  0  0  0  0
    1.5555   -3.3749    4.1629 C   0  0  0  0  0  0  0  0  0  0  0  0
    0.5458   -4.2297    3.6064 C   0  0  0  0  0  0  0  0  0  0  0  0
    0.3139   -5.2935    4.3592 N   0  0  0  0  0  0  0  0  0  0  0  0
    1.2856   -5.2303    5.6520 S   0  0  0  0  0  0  0  0  0  0  0  0
    2.0389   -3.8399    5.3036 N   0  0  0  0  0  0  0  0  0  0  0  0
   -0.0143   -3.9000    2.3521 C   0  0  0  0  0  0  0  0  0  0  0  0
   -0.9046   -4.5990    1.5202 C   0  0  0  0  0  0  0  0  0  0  0  0
   -1.8639   -6.0395    1.5407 S   0  0  0  0  0  0  0  0  0  0  0  0
   -2.3724   -5.6936   -0.0935 C   0  0  0  0  0  0  0  0  0  0  0  0
   -3.2399   -6.3666   -0.9860 C   0  0  0  0  0  0  0  0  0  0  0  0
   -3.9255   -7.6465   -0.6234 C   0  0  0  0  0  0  0  0  0  0  0  0
   -2.9898   -8.8387   -0.8286 C   0  0  0  0  0  0  0  0  0  0  0  0
   -3.3188   -5.7148   -2.1831 C   0  0  0  0  0  0  0  0  0  0  0  0
   -2.3399   -4.2610   -2.2360 S   0  0  0  0  0  0  0  0  0  0  0  0
   -1.8136   -4.5296   -0.6116 C   0  0  0  0  0  0  0  0  0  0  0  0
   -0.9825   -3.8900    0.3205 C   0  0  0  0  0  0  0  0  0  0  0  0
   -0.2181   -2.7551    0.3870 N   0  0  0  0  0  0  0  0  0  0  0  0
    0.3797   -2.7334    1.6412 C   0  0  0  0  0  0  0  0  0  0  0  0
    1.2092   -1.7857    2.2928 C   0  0  0  0  0  0  0  0  0  0  0  0
    1.5467   -0.4821    2.0001 N   0  0  0  0  0  0  0  0  0  0  0  0
    2.4058   -0.0400    2.9721 C   0  0  0  0  0  0  0  0  0  0  0  0
    3.0524    1.1486    3.3110 C   0  0  0  0  0  0  0  0  0  0  0  0
    3.1526    2.7501    2.6854 S   0  0  0  0  0  0  0  0  0  0  0  0
    0.9222    0.4668    1.1068 C   0  0  0  0  0  0  0  0  0  0  0  0
    1.8436    0.8703   -0.0431 C   0  0  0  0  0  0  0  0  0  0  0  0
    0.2603   -2.1719   -0.8490 C   0  0  0  0  0  0  0  0  0  0  0  0
    1.6176   -2.7537   -1.2383 C   0  0  0  0  0  0  0  0  0  0  0  0
   -4.1257   -6.0963   -3.3904 C   0  0  0  0  0  0  0  0  0  0  0  0
   -3.3591   -5.7643   -4.6308 C   0  0  0  0  0  0  0  0  0  0  0  0
   -3.5448   -4.6205   -5.2989 C   0  0  0  0  0  0  0  0  0  0  0  0
   -4.4709   -3.6061   -4.8715 C   0  0  0  0  0  0  0  0  0  0  0  0
   -4.4884   -2.3943   -5.4880 C   0  0  0  0  0  0  0  0  0  0  0  0
   -3.4398   -1.9788   -6.8401 S   0  0  0  0  0  0  0  0  0  0  0  0
   -4.1320   -0.3760   -6.9412 C   0  0  0  0  0  0  0  0  0  0  0  0
   -3.6848    0.5003   -7.8969 C   0  0  0  0  0  0  0  0  0  0  0  0
   -2.6660    0.0881   -8.7819 C   0  0  0  0  0  0  0  0  0  0  0  0
   -1.8356   -0.2417   -9.5012 N   0  0  0  0  0  0  0  0  0  0  0  0
   -4.1295    1.8164   -8.1081 C   0  0  0  0  0  0  0  0  0  0  0  0
   -4.4412    2.8984   -8.3346 N   0  0  0  0  0  0  0  0  0  0  0  0
   -5.0955   -0.1899   -6.0025 N   0  0  0  0  0  0  0  0  0  0  0  0
   -5.8218    1.0500   -5.7953 C   0  0  0  0  0  0  0  0  0  0  0  0
   -5.0160    2.0388   -4.9613 C   0  0  0  0  0  0  0  0  0  0  0  0
   -5.3394   -1.2597   -5.1487 C   0  0  0  0  0  0  0  0  0  0  0  0
   -6.1639   -1.2071   -4.2618 O   0  0  0  0  0  0  0  0  0  0  0  0
   -5.3533   -3.8967   -3.6973 C   0  0  0  0  0  0  0  0  0  0  0  0
   -5.4911   -5.3916   -3.4345 C   0  0  0  0  0  0  0  0  0  0  0  0
    5.3652    4.5706    5.0890 H   0  0  0  0  0  0  0  0  0  0  0  0
    2.6157    7.4141    0.1862 H   0  0  0  0  0  0  0  0  0  0  0  0
    5.6110    9.8179    3.3634 H   0  0  0  0  0  0  0  0  0  0  0  0
    5.2393    3.1419    6.6354 H   0  0  0  0  0  0  0  0  0  0  0  0
    5.0398    1.3903    6.7809 H   0  0  0  0  0  0  0  0  0  0  0  0
    7.4317    2.0038    6.5909 H   0  0  0  0  0  0  0  0  0  0  0  0
    7.1352    2.7802    5.0366 H   0  0  0  0  0  0  0  0  0  0  0  0
    6.9283    1.0329    5.2023 H   0  0  0  0  0  0  0  0  0  0  0  0
   -4.2132   -7.5959    0.4287 H   0  0  0  0  0  0  0  0  0  0  0  0
   -4.8300   -7.7760   -1.2193 H   0  0  0  0  0  0  0  0  0  0  0  0
   -3.4888   -9.7611   -0.5432 H   0  0  0  0  0  0  0  0  0  0  0  0
   -2.6878   -8.9145   -1.8711 H   0  0  0  0  0  0  0  0  0  0  0  0
   -2.0975   -8.7249   -0.2182 H   0  0  0  0  0  0  0  0  0  0  0  0
   -0.0219    0.0476    0.7561 H   0  0  0  0  0  0  0  0  0  0  0  0
    0.6875    1.3636    1.6910 H   0  0  0  0  0  0  0  0  0  0  0  0
    2.2333    0.0018   -0.5673 H   0  0  0  0  0  0  0  0  0  0  0  0
    2.6833    1.4434    0.3399 H   0  0  0  0  0  0  0  0  0  0  0  0
    1.3009    1.4960   -0.7462 H   0  0  0  0  0  0  0  0  0  0  0  0
    0.3217   -1.0898   -0.7788 H   0  0  0  0  0  0  0  0  0  0  0  0
   -0.4791   -2.4155   -1.6161 H   0  0  0  0  0  0  0  0  0  0  0  0
    1.9490   -2.3252   -2.1802 H   0  0  0  0  0  0  0  0  0  0  0  0
    2.3595   -2.5399   -0.4714 H   0  0  0  0  0  0  0  0  0  0  0  0
    1.5461   -3.8329   -1.3538 H   0  0  0  0  0  0  0  0  0  0  0  0
   -4.2888   -7.1783   -3.3473 H   0  0  0  0  0  0  0  0  0  0  0  0
   -2.6078   -6.4702   -4.9520 H   0  0  0  0  0  0  0  0  0  0  0  0
   -2.9570   -4.4059   -6.1813 H   0  0  0  0  0  0  0  0  0  0  0  0
   -6.7345    0.7739   -5.2600 H   0  0  0  0  0  0  0  0  0  0  0  0
   -6.0851    1.4788   -6.7633 H   0  0  0  0  0  0  0  0  0  0  0  0
   -5.6026    2.9395   -4.8087 H   0  0  0  0  0  0  0  0  0  0  0  0
   -4.0922    2.3152   -5.4641 H   0  0  0  0  0  0  0  0  0  0  0  0
   -4.7793    1.6059   -3.9919 H   0  0  0  0  0  0  0  0  0  0  0  0
   -6.3366   -3.4501   -3.8515 H   0  0  0  0  0  0  0  0  0  0  0  0
   -4.9270   -3.3960   -2.8227 H   0  0  0  0  0  0  0  0  0  0  0  0
   -6.0210   -5.5483   -2.4939 H   0  0  0  0  0  0  0  0  0  0  0  0
   -6.0773   -5.8449   -4.2368 H   0  0  0  0  0  0  0  0  0  0  0  0
  1  2  2  0  0  0  0
  2  3  1  0  0  0  0
  3  4  2  0  0  0  0
  3  5  1  0  0  0  0
  5  6  2  0  0  0  0
  6  7  1  0  0  0  0
  7  8  1  0  0  0  0
  7  9  2  0  0  0  0
  9 10  1  0  0  0  0
  9 11  1  0  0  0  0
 11 12  2  0  0  0  0
 12 13  1  0  0  0  0
 13 14  2  0  0  0  0
 14 15  1  0  0  0  0
 15 16  3  0  0  0  0
 14 17  1  0  0  0  0
 17 18  3  0  0  0  0
  1 19  1  0  0  0  0
 19 20  2  0  0  0  0
 20 21  1  0  0  0  0
 21 22  1  0  0  0  0
 20 23  1  0  0  0  0
 23 24  1  0  0  0  0
 24 25  1  0  0  0  0
 25 26  1  0  0  0  0
 26 27  1  0  0  0  0
 27 28  1  0  0  0  0
 28 29  2  0  0  0  0
 29 30  1  0  0  0  0
 30 31  1  0  0  0  0
 28 32  1  0  0  0  0
 32 33  1  0  0  0  0
 33 34  1  0  0  0  0
 34 35  1  0  0  0  0
 35 36  1  0  0  0  0
 36 37  1  0  0  0  0
 37 38  1  0  0  0  0
 36 39  2  0  0  0  0
 39 40  1  0  0  0  0
 40 41  1  0  0  0  0
 41 42  1  0  0  0  0
 42 43  1  0  0  0  0
 43 44  1  0  0  0  0
 44 45  1  0  0  0  0
 45 46  1  0  0  0  0
 46 47  1  0  0  0  0
 47 48  1  0  0  0  0
 48 49  1  0  0  0  0
 46 50  1  0  0  0  0
 50 51  1  0  0  0  0
 43 52  1  0  0  0  0
 52 53  1  0  0  0  0
 39 54  1  0  0  0  0
 54 55  1  0  0  0  0
 55 56  2  0  0  0  0
 56 57  1  0  0  0  0
 57 58  2  0  0  0  0
 58 59  1  0  0  0  0
 59 60  1  0  0  0  0
 60 61  2  0  0  0  0
 61 62  1  0  0  0  0
 62 63  3  0  0  0  0
 61 64  1  0  0  0  0
 64 65  3  0  0  0  0
 60 66  1  0  0  0  0
 66 67  1  0  0  0  0
 67 68  1  0  0  0  0
 66 69  1  0  0  0  0
 69 70  2  0  0  0  0
 57 71  1  0  0  0  0
 71 72  1  0  0  0  0
 13  2  1  0  0  0  0
 49 19  1  0  0  0  0
 72 54  1  0  0  0  0
 12  5  1  0  0  0  0
 48 23  2  0  0  0  0
 69 58  1  0  0  0  0
 47 25  2  0  0  0  0
 45 26  2  0  0  0  0
 31 27  2  0  0  0  0
 44 32  2  0  0  0  0
 42 33  2  0  0  0  0
 41 35  2  0  0  0  0
  1 73  1  0  0  0  0
  6 74  1  0  0  0  0
 11 75  1  0  0  0  0
 21 76  1  0  0  0  0
 21 77  1  0  0  0  0
 22 78  1  0  0  0  0
 22 79  1  0  0  0  0
 22 80  1  0  0  0  0
 37 81  1  0  0  0  0
 37 82  1  0  0  0  0
 38 83  1  0  0  0  0
 38 84  1  0  0  0  0
 38 85  1  0  0  0  0
 50 86  1  0  0  0  0
 50 87  1  0  0  0  0
 51 88  1  0  0  0  0
 51 89  1  0  0  0  0
 51 90  1  0  0  0  0
 52 91  1  0  0  0  0
 52 92  1  0  0  0  0
 53 93  1  0  0  0  0
 53 94  1  0  0  0  0
 53 95  1  0  0  0  0
 54 96  1  0  0  0  0
 55 97  1  0  0  0  0
 56 98  1  0  0  0  0
 67 99  1  0  0  0  0
 67100  1  0  0  0  0
 68101  1  0  0  0  0
 68102  1  0  0  0  0
 68103  1  0  0  0  0
 71104  1  0  0  0  0
 71105  1  0  0  0  0
 72106  1  0  0  0  0
 72107  1  0  0  0  0
M  END
