
  xtb     02022200333D
 energy: -200.828721648017 gnorm: 0.000369239419 xtb: 6.4.1 (unknown)
103115  0     0  0            999 V2000
    5.4206   -6.4061   -1.3256 C   0  0  0  0  0  0  0  0  0  0  0  0
    4.9848   -6.7539   -2.5858 C   0  0  0  0  0  0  0  0  0  0  0  0
    3.7785   -6.2631   -3.2487 C   0  0  0  0  0  0  0  0  0  0  0  0
    2.9546   -5.4713   -2.8242 O   0  0  0  0  0  0  0  0  0  0  0  0
    3.7374   -6.9282   -4.5676 C   0  0  0  0  0  0  0  0  0  0  0  0
    2.7908   -6.7988   -5.5637 C   0  0  0  0  0  0  0  0  0  0  0  0
    2.9745   -7.5356   -6.7228 C   0  0  0  0  0  0  0  0  0  0  0  0
    2.0817   -7.4416   -7.7162 F   0  0  0  0  0  0  0  0  0  0  0  0
    4.0805   -8.3735   -6.8634 C   0  0  0  0  0  0  0  0  0  0  0  0
    4.2333   -9.0733   -7.9931 F   0  0  0  0  0  0  0  0  0  0  0  0
    5.0309   -8.5027   -5.8607 C   0  0  0  0  0  0  0  0  0  0  0  0
    4.8546   -7.7694   -4.6981 C   0  0  0  0  0  0  0  0  0  0  0  0
    5.6554   -7.6795   -3.4747 C   0  0  0  0  0  0  0  0  0  0  0  0
    6.8269   -8.3580   -3.2532 C   0  0  0  0  0  0  0  0  0  0  0  0
    7.6194   -8.2812   -2.0890 C   0  0  0  0  0  0  0  0  0  0  0  0
    8.3219   -8.2738   -1.1796 N   0  0  0  0  0  0  0  0  0  0  0  0
    7.4160   -9.2417   -4.1824 C   0  0  0  0  0  0  0  0  0  0  0  0
    7.9488   -9.9713   -4.8902 N   0  0  0  0  0  0  0  0  0  0  0  0
    4.8918   -5.5226   -0.3852 C   0  0  0  0  0  0  0  0  0  0  0  0
    5.5013   -5.2697    0.8605 C   0  0  0  0  0  0  0  0  0  0  0  0
    6.7854   -5.8632    1.3385 C   0  0  0  0  0  0  0  0  0  0  0  0
    7.9816   -5.0793    0.7905 C   0  0  0  0  0  0  0  0  0  0  0  0
    4.7897   -4.3299    1.5899 C   0  0  0  0  0  0  0  0  0  0  0  0
    5.0513   -3.6128    3.1707 S   0  0  0  0  0  0  0  0  0  0  0  0
    3.6164   -2.6735    2.9466 C   0  0  0  0  0  0  0  0  0  0  0  0
    2.8453   -1.7320    3.6360 C   0  0  0  0  0  0  0  0  0  0  0  0
    2.9853   -1.2180    4.9444 C   0  0  0  0  0  0  0  0  0  0  0  0
    1.9948   -0.3117    5.4395 C   0  0  0  0  0  0  0  0  0  0  0  0
    2.2276    0.0609    6.6880 N   0  0  0  0  0  0  0  0  0  0  0  0
    3.5814   -0.6671    7.1958 S   0  0  0  0  0  0  0  0  0  0  0  0
    3.9217   -1.4852    5.8408 N   0  0  0  0  0  0  0  0  0  0  0  0
    0.9586    0.1039    4.5740 C   0  0  0  0  0  0  0  0  0  0  0  0
   -0.0473    1.0580    4.7618 C   0  0  0  0  0  0  0  0  0  0  0  0
   -0.6294    2.1332    5.9863 S   0  0  0  0  0  0  0  0  0  0  0  0
   -1.7976    2.7609    4.8352 C   0  0  0  0  0  0  0  0  0  0  0  0
   -2.7679    3.7475    4.9282 C   0  0  0  0  0  0  0  0  0  0  0  0
   -2.9895    4.5535    6.1657 C   0  0  0  0  0  0  0  0  0  0  0  0
   -2.2142    5.8727    6.1044 C   0  0  0  0  0  0  0  0  0  0  0  0
   -3.4487    3.9151    3.7059 C   0  0  0  0  0  0  0  0  0  0  0  0
   -2.8627    2.8090    2.4611 S   0  0  0  0  0  0  0  0  0  0  0  0
   -1.7252    2.1476    3.5710 C   0  0  0  0  0  0  0  0  0  0  0  0
   -0.7294    1.1694    3.5443 C   0  0  0  0  0  0  0  0  0  0  0  0
   -0.1911    0.3121    2.6263 N   0  0  0  0  0  0  0  0  0  0  0  0
    0.8423   -0.3760    3.2308 C   0  0  0  0  0  0  0  0  0  0  0  0
    1.7538   -1.3735    2.7836 C   0  0  0  0  0  0  0  0  0  0  0  0
    1.8537   -2.1273    1.6304 N   0  0  0  0  0  0  0  0  0  0  0  0
    2.9794   -2.8987    1.7199 C   0  0  0  0  0  0  0  0  0  0  0  0
    3.6364   -3.8514    0.9395 C   0  0  0  0  0  0  0  0  0  0  0  0
    3.4161   -4.5783   -0.6052 S   0  0  0  0  0  0  0  0  0  0  0  0
    0.9586   -2.3397    0.5159 C   0  0  0  0  0  0  0  0  0  0  0  0
    1.4455   -1.6381   -0.7523 C   0  0  0  0  0  0  0  0  0  0  0  0
   -0.6878    0.3611    1.2707 C   0  0  0  0  0  0  0  0  0  0  0  0
   -2.0009   -0.4070    1.1204 C   0  0  0  0  0  0  0  0  0  0  0  0
   -4.4612    4.8581    3.5226 C   0  0  0  0  0  0  0  0  0  0  0  0
   -5.2046    5.1799    2.4089 C   0  0  0  0  0  0  0  0  0  0  0  0
   -5.0869    4.5643    1.0879 C   0  0  0  0  0  0  0  0  0  0  0  0
   -4.3431    3.6583    0.7475 O   0  0  0  0  0  0  0  0  0  0  0  0
   -6.0595    5.2535    0.2220 C   0  0  0  0  0  0  0  0  0  0  0  0
   -6.3224    5.0444   -1.1003 C   0  0  0  0  0  0  0  0  0  0  0  0
   -7.3078    5.8329   -1.7351 C   0  0  0  0  0  0  0  0  0  0  0  0
   -7.6214    5.6595   -3.0968 C   0  0  0  0  0  0  0  0  0  0  0  0
   -8.5792    6.4364   -3.6861 C   0  0  0  0  0  0  0  0  0  0  0  0
   -8.8768    6.2695   -4.9824 F   0  0  0  0  0  0  0  0  0  0  0  0
   -9.2622    7.4181   -2.9413 C   0  0  0  0  0  0  0  0  0  0  0  0
  -10.1958    8.1655   -3.5454 F   0  0  0  0  0  0  0  0  0  0  0  0
   -8.9793    7.6094   -1.6178 C   0  0  0  0  0  0  0  0  0  0  0  0
   -7.9982    6.8243   -0.9801 C   0  0  0  0  0  0  0  0  0  0  0  0
   -7.7020    7.0150    0.3899 C   0  0  0  0  0  0  0  0  0  0  0  0
   -6.7448    6.2381    0.9864 C   0  0  0  0  0  0  0  0  0  0  0  0
   -6.2312    6.2004    2.3556 C   0  0  0  0  0  0  0  0  0  0  0  0
   -6.6741    6.9975    3.3817 C   0  0  0  0  0  0  0  0  0  0  0  0
   -6.2012    6.9749    4.7095 C   0  0  0  0  0  0  0  0  0  0  0  0
   -5.8716    7.0186    5.8098 N   0  0  0  0  0  0  0  0  0  0  0  0
   -7.6905    7.9657    3.2452 C   0  0  0  0  0  0  0  0  0  0  0  0
   -8.5081    8.7707    3.2021 N   0  0  0  0  0  0  0  0  0  0  0  0
    6.3324   -6.8850   -0.9966 H   0  0  0  0  0  0  0  0  0  0  0  0
    1.9376   -6.1495   -5.4498 H   0  0  0  0  0  0  0  0  0  0  0  0
    5.8659   -9.1645   -6.0210 H   0  0  0  0  0  0  0  0  0  0  0  0
    6.8710   -6.9091    1.0410 H   0  0  0  0  0  0  0  0  0  0  0  0
    6.7983   -5.8147    2.4290 H   0  0  0  0  0  0  0  0  0  0  0  0
    7.9332   -4.0416    1.1122 H   0  0  0  0  0  0  0  0  0  0  0  0
    7.9958   -5.1070   -0.2965 H   0  0  0  0  0  0  0  0  0  0  0  0
    8.9056   -5.5167    1.1569 H   0  0  0  0  0  0  0  0  0  0  0  0
   -4.0498    4.7636    6.3129 H   0  0  0  0  0  0  0  0  0  0  0  0
   -2.6341    3.9721    7.0187 H   0  0  0  0  0  0  0  0  0  0  0  0
   -1.1487    5.6811    6.0011 H   0  0  0  0  0  0  0  0  0  0  0  0
   -2.5429    6.4749    5.2606 H   0  0  0  0  0  0  0  0  0  0  0  0
   -2.3812    6.4387    7.0161 H   0  0  0  0  0  0  0  0  0  0  0  0
    0.9327   -3.4175    0.3233 H   0  0  0  0  0  0  0  0  0  0  0  0
   -0.0451   -2.0311    0.7931 H   0  0  0  0  0  0  0  0  0  0  0  0
    2.3413   -2.1243   -1.1280 H   0  0  0  0  0  0  0  0  0  0  0  0
    0.6800   -1.6972   -1.5205 H   0  0  0  0  0  0  0  0  0  0  0  0
    1.6830   -0.5923   -0.5671 H   0  0  0  0  0  0  0  0  0  0  0  0
   -0.8772    1.4136    1.0348 H   0  0  0  0  0  0  0  0  0  0  0  0
    0.0748    0.0019    0.5873 H   0  0  0  0  0  0  0  0  0  0  0  0
   -2.2910   -0.4361    0.0742 H   0  0  0  0  0  0  0  0  0  0  0  0
   -1.9155   -1.4258    1.4936 H   0  0  0  0  0  0  0  0  0  0  0  0
   -2.7890    0.0910    1.6783 H   0  0  0  0  0  0  0  0  0  0  0  0
   -4.6797    5.4289    4.4146 H   0  0  0  0  0  0  0  0  0  0  0  0
   -5.7864    4.2886   -1.6540 H   0  0  0  0  0  0  0  0  0  0  0  0
   -7.1070    4.9122   -3.6805 H   0  0  0  0  0  0  0  0  0  0  0  0
   -9.5122    8.3653   -1.0623 H   0  0  0  0  0  0  0  0  0  0  0  0
   -8.2434    7.7742    0.9303 H   0  0  0  0  0  0  0  0  0  0  0  0
  1  2  2  0  0  0  0
  2  3  1  0  0  0  0
  3  4  2  0  0  0  0
  3  5  1  0  0  0  0
  5  6  2  0  0  0  0
  6  7  1  0  0  0  0
  7  8  1  0  0  0  0
  7  9  2  0  0  0  0
  9 10  1  0  0  0  0
  9 11  1  0  0  0  0
 11 12  2  0  0  0  0
 12 13  1  0  0  0  0
 13 14  2  0  0  0  0
 14 15  1  0  0  0  0
 15 16  3  0  0  0  0
 14 17  1  0  0  0  0
 17 18  3  0  0  0  0
  1 19  1  0  0  0  0
 19 20  2  0  0  0  0
 20 21  1  0  0  0  0
 21 22  1  0  0  0  0
 20 23  1  0  0  0  0
 23 24  1  0  0  0  0
 24 25  1  0  0  0  0
 25 26  1  0  0  0  0
 26 27  1  0  0  0  0
 27 28  1  0  0  0  0
 28 29  2  0  0  0  0
 29 30  1  0  0  0  0
 30 31  1  0  0  0  0
 28 32  1  0  0  0  0
 32 33  1  0  0  0  0
 33 34  1  0  0  0  0
 34 35  1  0  0  0  0
 35 36  1  0  0  0  0
 36 37  1  0  0  0  0
 37 38  1  0  0  0  0
 36 39  2  0  0  0  0
 39 40  1  0  0  0  0
 40 41  1  0  0  0  0
 41 42  1  0  0  0  0
 42 43  1  0  0  0  0
 43 44  1  0  0  0  0
 44 45  1  0  0  0  0
 45 46  1  0  0  0  0
 46 47  1  0  0  0  0
 47 48  1  0  0  0  0
 48 49  1  0  0  0  0
 46 50  1  0  0  0  0
 50 51  1  0  0  0  0
 43 52  1  0  0  0  0
 52 53  1  0  0  0  0
 39 54  1  0  0  0  0
 54 55  2  0  0  0  0
 55 56  1  0  0  0  0
 56 57  2  0  0  0  0
 56 58  1  0  0  0  0
 58 59  2  0  0  0  0
 59 60  1  0  0  0  0
 60 61  2  0  0  0  0
 61 62  1  0  0  0  0
 62 63  1  0  0  0  0
 62 64  2  0  0  0  0
 64 65  1  0  0  0  0
 64 66  1  0  0  0  0
 66 67  2  0  0  0  0
 67 68  1  0  0  0  0
 68 69  2  0  0  0  0
 69 70  1  0  0  0  0
 70 71  2  0  0  0  0
 71 72  1  0  0  0  0
 72 73  3  0  0  0  0
 71 74  1  0  0  0  0
 74 75  3  0  0  0  0
 13  2  1  0  0  0  0
 49 19  1  0  0  0  0
 70 55  1  0  0  0  0
 12  5  1  0  0  0  0
 48 23  2  0  0  0  0
 69 58  1  0  0  0  0
 47 25  2  0  0  0  0
 67 60  1  0  0  0  0
 45 26  2  0  0  0  0
 31 27  2  0  0  0  0
 44 32  2  0  0  0  0
 42 33  2  0  0  0  0
 41 35  2  0  0  0  0
  1 76  1  0  0  0  0
  6 77  1  0  0  0  0
 11 78  1  0  0  0  0
 21 79  1  0  0  0  0
 21 80  1  0  0  0  0
 22 81  1  0  0  0  0
 22 82  1  0  0  0  0
 22 83  1  0  0  0  0
 37 84  1  0  0  0  0
 37 85  1  0  0  0  0
 38 86  1  0  0  0  0
 38 87  1  0  0  0  0
 38 88  1  0  0  0  0
 50 89  1  0  0  0  0
 50 90  1  0  0  0  0
 51 91  1  0  0  0  0
 51 92  1  0  0  0  0
 51 93  1  0  0  0  0
 52 94  1  0  0  0  0
 52 95  1  0  0  0  0
 53 96  1  0  0  0  0
 53 97  1  0  0  0  0
 53 98  1  0  0  0  0
 54 99  1  0  0  0  0
 59100  1  0  0  0  0
 61101  1  0  0  0  0
 66102  1  0  0  0  0
 68103  1  0  0  0  0
M  END
