100

C          4.97470       -3.87050        5.31600
C          4.02850       -3.92900        6.30000
C          4.43900       -3.84840        7.72170
O          5.55560       -3.96610        8.17020
C          3.19210       -3.53080        8.45980
C          3.03390       -3.23120        9.79820
C          1.75560       -2.93400       10.24450
F          1.55830       -2.63160       11.53340
C          0.67210       -2.94270        9.36540
F         -0.54720       -2.63800        9.82350
C          0.82720       -3.25580        8.02300
C          2.10250       -3.55010        7.57070
C          2.58610       -3.94640        6.24880
C          1.82130       -4.50100        5.25490
C          2.38360       -5.17910        4.15290
N          2.81320       -5.78610        3.27840
C          0.41360       -4.52840        5.26330
N         -0.73270       -4.54100        5.20320
C          4.83730       -3.48620        3.97050
C          5.77460       -3.68760        2.95870
C          7.01590       -4.49930        3.10600
C          6.68470       -5.99350        3.06330
C          5.35610       -3.11930        1.75520
S          6.09080       -3.04760        0.16960
C          4.73670       -2.13160       -0.38680
C          4.30690       -1.47500       -1.54670
C          4.96860       -1.23280       -2.77120
C          4.35470       -0.35760       -3.72570
N          5.11460       -0.15940       -4.79110
S          6.48130       -1.00660       -4.61230
N          6.15900       -1.65640       -3.16540
C          3.05110        0.12370       -3.47010
C          2.17810        0.87660       -4.26540
S          2.17320        1.68980       -5.79020
C          0.49120        2.11040       -5.52120
C         -0.42560        2.81780       -6.28320
C         -0.06880        3.45990       -7.58310
C          0.34240        4.91980       -7.37010
C         -1.67770        2.89190       -5.64080
S         -1.67750        2.05210       -4.08650
C         -0.02160        1.63210       -4.30050
C          0.95520        0.93640       -3.58470
N          1.04950        0.28170       -2.38310
C          2.33840       -0.21650       -2.28190
C          3.02960       -0.91030       -1.25450
N          2.73290       -1.17290        0.06830
C          3.75800       -1.91110        0.59280
C          4.11920       -2.45930        1.82400
S          3.45660       -2.53900        3.41210
C          1.73580       -0.60830        0.94870
C          0.66620       -1.63000        1.33170
C         -0.17420       -0.20790       -1.78090
C         -0.50930       -1.60630       -2.29440
C         -2.76910        3.56890       -6.18520
C         -4.05120        3.74540       -5.71330
C         -4.59940        3.18720       -4.47820
O         -4.02860        2.51000       -3.64150
C         -6.01840        3.60060       -4.43780
C         -6.97060        3.31100       -3.48310
C         -8.25060        3.81940       -3.67850
C         -9.34120        3.51240       -2.68920
F        -10.11850        2.49310       -3.10450
F        -10.16500        4.55350       -2.49280
F         -8.87150        3.16180       -1.48530
C         -8.55690        4.58380       -4.79940
C         -7.59150        4.87040       -5.75440
C         -6.30940        4.37520       -5.57300
C         -5.09260        4.49520       -6.38260
C         -4.99460        5.21380       -7.54700
C         -6.06210        5.92950       -8.12970
N         -6.88350        6.53290       -8.65760
C         -3.83040        5.36120       -8.32990
N         -2.92730        5.53380       -9.01910
H          5.99060       -4.05970        5.64990
H          3.87070       -3.22620       10.47820
H         -0.03660       -3.25000        7.37810
H          7.51120       -4.26310        4.05010
H          7.69290       -4.25250        2.28600
H          7.59510       -6.57880        3.15860
H          6.20340       -6.24610        2.12210
H          6.00910       -6.25790        3.87320
H          0.77250        2.91290       -8.01340
H         -0.90070        3.41700       -8.28700
H         -0.47730        5.49280       -6.94360
H          1.19570        4.97810       -6.69850
H          0.61440        5.36670       -8.32160
H          1.31340        0.28180        0.48120
H          2.25130       -0.28470        1.86010
H          1.11240       -2.43890        1.90460
H          0.19280       -2.06220        0.45480
H         -0.09400       -1.15650        1.94650
H         -0.11020       -0.21030       -0.69770
H         -0.96530        0.48870       -2.06830
H         -1.43820       -1.95020       -1.84850
H          0.28430       -2.30890       -2.04590
H         -0.62900       -1.59280       -3.37530
H         -2.55390        4.02710       -7.14080
H         -6.72190        2.71500       -2.61860
H         -9.56000        4.96230       -4.92410
H         -7.85530        5.46530       -6.61270
