103

C         -3.24130        3.46800       -6.66680
C         -2.14710        3.41120       -7.50210
C         -0.87630        2.74820       -7.21660
O         -0.55820        2.12960       -6.21590
C         -0.02510        2.96880       -8.40470
C          1.26910        2.54200       -8.62340
C          1.86010        2.87770       -9.83090
F          3.11450        2.48520      -10.08660
C          1.16020        3.62030      -10.78140
F          1.75490        3.93080      -11.93890
C         -0.14110        4.04820      -10.56020
C         -0.73950        3.71670       -9.35510
C         -2.07200        4.00650       -8.81960
C         -3.04510        4.71430       -9.47860
C         -4.33380        5.00500       -8.98450
N         -5.39920        5.28630       -8.65850
C         -2.88750        5.25960      -10.77040
N         -2.82400        5.72660      -11.81690
C         -3.44740        2.95120       -5.38810
C         -4.65070        3.13150       -4.67580
C         -5.83160        3.91770       -5.14170
C         -5.63660        5.40970       -4.85620
C         -4.59320        2.52950       -3.42870
S         -5.74840        2.41870       -2.11270
C         -4.59070        1.50410       -1.21090
C         -4.47850        0.86640        0.03400
C         -5.40160        0.60050        1.07310
C         -4.99940       -0.23680        2.17320
N         -5.98980       -0.46060        3.02120
S         -7.30820        0.31590        2.49550
N         -6.66940        0.96830        1.15930
C         -3.64810       -0.64510        2.27290
C         -2.91740       -1.31240        3.26820
S         -3.18970       -2.11630        4.77510
C         -1.46160       -2.38970        4.90830
C         -0.68280       -3.00260        5.87930
C         -1.26320       -3.65560        7.09060
C         -1.43970       -5.16000        6.86450
C          0.68220       -2.96860        5.53670
S          0.96340       -2.16490        3.98970
C         -0.72650       -1.87550        3.82550
C         -1.56610       -1.26700        2.89080
N         -1.43490       -0.61930        1.68800
C         -2.70420       -0.26320        1.28040
C         -3.15930        0.33830        0.08850
N         -2.51440        0.57820       -1.10740
C         -3.37990        1.29980       -1.89220
C         -3.37420        1.87780       -3.16150
S         -2.26400        2.01310       -4.46990
C         -1.48580       -0.24290       -1.71640
C         -2.09070       -1.24290       -2.70100
C         -0.19400        0.04980        1.34860
C          0.18660        1.07860        2.41250
C          1.68050       -3.50090        6.35670
C          3.04440       -3.56510        6.19410
C          3.79800       -3.08720        5.03320
O          3.35950       -2.53540        4.03670
C          5.21060       -3.40130        5.30060
C          6.30280       -3.16500        4.51750
C          7.57900       -3.55400        4.98190
C          8.74190       -3.33410        4.21640
C          9.97140       -3.71420        4.67830
C         10.06290       -4.33100        5.93320
F         11.28110       -4.69750        6.37130
C          8.96670       -4.56840        6.71540
C          7.69270       -4.18330        6.25540
C          6.54060       -4.41530        7.04360
C          5.31410       -4.02920        6.57390
C          3.97430       -4.13200        7.14970
C          3.68700       -4.66010        8.38390
C          4.65710       -5.18200        9.26470
N          5.39220       -5.62050       10.03000
C          2.40590       -4.75740        8.96380
N          1.39850       -4.87230        9.50550
H         -4.09610        4.00640       -7.05220
H          1.80570        1.96790       -7.88500
H         -0.63580        4.61920      -11.32840
H         -6.00570        3.77320       -6.20880
H         -6.71140        3.56440       -4.60050
H         -6.50850        5.96420       -5.19070
H         -4.76390        5.79190       -5.38040
H         -5.50300        5.57650       -3.79000
H         -0.63330       -3.49310        7.96640
H         -2.24000       -3.20800        7.28440
H         -1.86780       -5.61710        7.75180
H         -0.48240       -5.63400        6.66050
H         -2.10350       -5.34080        6.02220
H         -0.78110        0.41050       -2.23970
H         -0.96610       -0.79970       -0.93920
H         -1.30490       -1.88140       -3.09410
H         -2.56650       -0.73300       -3.53350
H         -2.82970       -1.86490       -2.20000
H          0.59600       -0.70250        1.26350
H         -0.31440        0.56790        0.39930
H          1.08630        1.60170        2.10170
H          0.38160        0.59940        3.36730
H         -0.61460        1.80390        2.53930
H          1.29570       -3.93000        7.27150
H          6.19480       -2.68680        3.55540
H          8.64590       -2.85710        3.25250
H         10.87090       -3.55310        4.10550
H          9.07480       -5.04560        7.67680
H          6.66320       -4.89470        8.00120
