85

C         -4.19350       -4.46480       -2.11170
C         -4.89600       -5.14120       -3.08180
C         -4.77040       -4.95620       -4.53400
O         -4.06450       -4.16730       -5.13130
C         -5.58440       -6.03250       -5.14480
C         -5.79420       -6.29140       -6.48420
C         -6.58150       -7.38390       -6.81190
F         -6.81710       -7.66870       -8.09900
C         -7.12930       -8.19030       -5.81470
F         -7.87960       -9.24330       -6.16050
C         -6.91470       -7.93240       -4.46880
C         -6.13310       -6.83820       -4.13390
C         -5.73170       -6.29700       -2.83570
C         -6.15740       -6.75860       -1.61650
C         -5.85880       -6.16520       -0.37160
N         -5.68410       -5.72950        0.67680
C         -6.98770       -7.88590       -1.44490
N         -7.65490       -8.79710       -1.24030
C         -3.53120       -3.22900       -2.14710
C         -3.69900       -2.03880       -2.86360
C         -4.75740       -1.71010       -3.85840
C         -6.17200       -1.94150       -3.33030
C         -2.78500       -1.06960       -2.44110
S         -2.53250        0.58860       -2.94860
C         -1.27140        0.72850       -1.77560
C         -0.39640        1.69670       -1.26900
C         -0.27920        3.06810       -1.58280
C          0.62050        3.87460       -0.81630
N          0.59910        5.14670       -1.18330
S         -0.46210        5.31180       -2.39410
N         -0.93650        3.76680       -2.49510
C          1.41870        3.25390        0.16840
C          2.41990        3.79030        0.98920
S          3.15960        5.31700        1.32780
C          4.23330        4.51590        2.45090
C          5.25690        5.00670        3.28320
C          5.59990        6.46020        3.33100
C          6.57910        6.82870        2.21440
C          5.84020        3.98600        4.00550
S          5.10690        2.42090        3.66840
C          4.01630        3.14060        2.54050
C          2.96770        2.72630        1.70780
N          2.33800        1.56140        1.37080
C          1.35610        1.85380        0.43810
C          0.37250        1.07590       -0.23630
N         -0.06880       -0.22790       -0.10950
C         -1.05080       -0.44030       -1.03880
C         -1.92110       -1.46670       -1.40800
S         -2.26380       -3.07600       -0.91230
C          0.21550       -1.27740        0.84060
C          1.11090       -2.35990        0.23760
C          2.86500        0.31830        1.88350
C          2.42020        0.06120        3.32370
C          6.89590        4.02140        4.96790
C          7.88770        4.95880        5.16050
C          8.75210        4.64420        6.21300
C          8.43520        3.45930        6.83360
C          9.09760        2.86040        7.90450
N          9.64870        2.37340        8.78650
S          7.04040        2.71680        6.11220
H         -4.08890       -4.97700       -1.16080
H         -5.36560       -5.66850       -7.25290
H         -7.35490       -8.58890       -3.73650
H         -4.59740       -2.31670       -4.75500
H         -4.64070       -0.66040       -4.13670
H         -6.34170       -2.98930       -3.09740
H         -6.34050       -1.35750       -2.42790
H         -6.89670       -1.63540       -4.08020
H          6.01710        6.71610        4.30550
H          4.67860        7.03040        3.19170
H          6.13050        6.62840        1.24460
H          6.82870        7.88520        2.26840
H          7.49550        6.24740        2.29280
H          0.64500       -0.85030        1.74140
H         -0.74220       -1.73290        1.11530
H          1.37700       -3.08540        1.00100
H          0.58460       -2.87800       -0.55950
H          2.02180       -1.93770       -0.18230
H          2.58900       -0.49670        1.22090
H          3.95760        0.39920        1.86810
H          1.33930        0.13080        3.42780
H          2.74300       -0.92710        3.63850
H          2.86640        0.79500        3.98930
H          8.01320        5.82980        4.54660
H          9.58720        5.25280        6.51140
