135

C         -6.46690       -3.43850        3.52110
C         -7.02400       -3.71550        4.74490
C         -6.61980       -3.21230        6.07330
O         -5.84490       -2.32290        6.35630
C         -7.36190       -4.03890        7.05220
C         -7.27760       -4.00290        8.43000
C         -8.06120       -4.89430        9.14440
F         -8.00940       -4.89960       10.48200
C         -8.90120       -5.79000        8.48200
F         -9.64040       -6.64600        9.19660
C         -8.98980       -5.82060        7.09830
C         -8.20880       -4.93080        6.37670
C         -8.06750       -4.70830        4.93820
C         -8.84000       -5.30320        3.97560
C         -8.79310       -5.03840        2.58960
N         -8.84100       -4.87610        1.45360
C         -9.84170       -6.25970        4.24910
N        -10.66430       -7.04540        4.40110
C         -5.44480       -2.55590        3.13900
C         -4.75110       -1.56250        3.81840
C         -3.77680       -0.97740        3.02780
S         -2.56540        0.23810        3.33020
C         -1.95250       -0.00500        1.73170
C         -0.81830        0.46560        1.00120
C          0.20280        1.34040        1.36450
C          1.25090        1.47850        0.48600
C          2.51500        2.30140        0.65820
C          3.12470        2.03670        2.01870
C          4.03330        1.00590        2.20940
C          4.55930        0.75940        3.46440
C          4.18570        1.52740        4.55860
C          4.72450        1.23340        5.92850
C          3.79880        0.26640        6.66950
C          3.26060        2.54540        4.36530
C          2.73520        2.79870        3.11310
C          2.29990        3.78980        0.42220
C          1.11670        4.29480       -0.09300
C          0.98420        5.65090       -0.33980
C          2.02780        6.52950       -0.08970
C          1.89040        7.99820       -0.34820
C          3.21580        6.01410        0.41880
C          3.35250        4.66420        0.67030
C          3.33140        1.80250       -0.50350
C          2.57330        0.96540       -1.30790
C          1.28930        0.73980       -0.72180
C          0.23810       -0.08530       -1.11390
C         -0.82070       -0.20700       -0.24510
C         -2.05310       -1.08270       -0.38560
C         -3.08610       -0.52120       -1.35240
C         -4.19990       -1.29370       -1.66040
C         -5.19180       -0.79680       -2.48220
C         -5.10110        0.48380       -3.01440
C         -6.16130        1.00620       -3.93980
C         -5.84110        0.62820       -5.38750
C         -3.98600        1.24930       -2.70380
C         -2.99060        0.75870       -1.87700
C         -1.64840       -2.49250       -0.76230
C         -1.49900       -2.83550       -2.10030
C         -1.09800       -4.10850       -2.45620
C         -0.83350       -5.07010       -1.48910
C         -0.45580       -6.46820       -1.88360
C         -1.71080       -7.31460       -2.10720
C         -0.97420       -4.71830       -0.15380
C         -1.36900       -3.44340        0.20830
C         -2.64850       -0.94800        0.99020
C         -3.69730       -1.50050        1.71690
S         -4.87790       -2.71950        1.46690
S          3.41690        0.34580       -2.68480
C          4.84560        1.19660       -2.16600
C          6.14880        1.23750       -2.63580
C          6.96820        2.01290       -1.82780
S          6.06530        2.73250       -0.48220
C          4.62670        1.94710       -0.98950
C          8.34270        2.30660       -1.85590
C          9.36750        1.81680       -2.62320
C          9.32100        0.74010       -3.63990
O          8.35270        0.20730       -4.13510
C         10.73490        0.43070       -3.94600
C         11.27570       -0.53900       -4.77120
F         10.49220       -1.37740       -5.45610
C         12.65470       -0.65690       -4.89250
C         13.47810        0.19990       -4.18290
C         12.95800        1.18420       -3.35150
C         11.58210        1.29990       -3.23650
C         10.75280        2.21770       -2.45500
C         11.22880        3.28910       -1.74520
C         12.59540        3.62400       -1.63260
N         13.68530        3.95550       -1.49100
C         10.45030        4.24190       -1.05260
N          9.90400        5.07400       -0.47920
H         -6.83670       -4.03200        2.69280
H         -6.62470       -3.30960        8.93580
H         -9.65250       -6.53380        6.63680
H         -4.95070       -1.30680        4.84220
H          0.18010        1.85800        2.31100
H          4.33520        0.38990        1.37450
H          5.27350       -0.04130        3.59330
H          4.80740        2.16020        6.49970
H          5.71910        0.79070        5.84870
H          4.18740        0.05360        7.66250
H          2.80450        0.69580        6.76990
H          3.71270       -0.66940        6.12160
H          2.95190        3.15170        5.20490
H          2.02660        3.60370        2.98080
H          0.28940        3.63250       -0.30250
H          0.05200        6.02660       -0.73680
H          1.89060        8.54680        0.59350
H          0.96480        8.21770       -0.87420
H          2.72720        8.36080       -0.94250
H          4.04340        6.67930        0.61700
H          4.28150        4.28250        1.06880
H          0.27630       -0.62780       -2.04580
H         -4.28600       -2.29200       -1.25580
H         -6.05200       -1.40990       -2.70810
H         -6.22320        2.09310       -3.85680
H         -7.13070        0.58590       -3.66500
H         -6.60990        1.00540       -6.05760
H         -5.78790       -0.45300       -5.49310
H         -4.88320        1.04890       -5.68560
H         -3.89510        2.24760       -3.10760
H         -2.13710        1.37830       -1.64350
H         -1.70990       -2.10440       -2.86750
H         -0.98850       -4.35970       -3.50150
H          0.13210       -6.44710       -2.80340
H          0.15170       -6.92420       -1.09950
H         -2.30540       -7.35740       -1.19740
H         -1.44000       -8.32810       -2.39360
H         -2.32340       -6.88250       -2.89520
H         -0.76900       -5.44950        0.61510
H         -1.45920       -3.19070        1.25500
H          6.50630        0.72160       -3.50760
H          8.62990        3.01650       -1.08850
H         13.06270       -1.41840       -5.53820
H         14.54850        0.10130       -4.27640
H         13.62560        1.83230       -2.80940
