
  xtb     02012222033D
 energy: -238.221198446115 gnorm: 0.000464389695 xtb: 6.4.1 (unknown)
127142  0     0  0            999 V2000
   -7.7210    2.9260   -5.0105 C   0  0  0  0  0  0  0  0  0  0  0  0
   -8.0282    3.4139   -6.2565 C   0  0  0  0  0  0  0  0  0  0  0  0
   -7.2925    3.2290   -7.5235 C   0  0  0  0  0  0  0  0  0  0  0  0
   -6.3567    2.4971   -7.7708 O   0  0  0  0  0  0  0  0  0  0  0  0
   -7.9331    4.1458   -8.4927 C   0  0  0  0  0  0  0  0  0  0  0  0
   -7.5704    4.3814   -9.8041 C   0  0  0  0  0  0  0  0  0  0  0  0
   -8.3135    5.3058  -10.5193 C   0  0  0  0  0  0  0  0  0  0  0  0
   -7.9964    5.5710  -11.7924 F   0  0  0  0  0  0  0  0  0  0  0  0
   -9.3881    5.9663   -9.9227 C   0  0  0  0  0  0  0  0  0  0  0  0
  -10.0844    6.8600  -10.6340 F   0  0  0  0  0  0  0  0  0  0  0  0
   -9.7547    5.7241   -8.6072 C   0  0  0  0  0  0  0  0  0  0  0  0
   -9.0155    4.7997   -7.8849 C   0  0  0  0  0  0  0  0  0  0  0  0
   -9.1323    4.3264   -6.5056 C   0  0  0  0  0  0  0  0  0  0  0  0
  -10.1393    4.6779   -5.6453 C   0  0  0  0  0  0  0  0  0  0  0  0
  -10.3264    4.1983   -4.3305 C   0  0  0  0  0  0  0  0  0  0  0  0
  -10.5733    3.8561   -3.2621 N   0  0  0  0  0  0  0  0  0  0  0  0
  -11.1773    5.5778   -5.9719 C   0  0  0  0  0  0  0  0  0  0  0  0
  -12.0461    6.3017   -6.1674 N   0  0  0  0  0  0  0  0  0  0  0  0
   -6.6782    2.1029   -4.5577 C   0  0  0  0  0  0  0  0  0  0  0  0
   -5.6650    1.4121   -5.2102 C   0  0  0  0  0  0  0  0  0  0  0  0
   -4.8061    0.7893   -4.3210 C   0  0  0  0  0  0  0  0  0  0  0  0
   -3.3346   -0.1221   -4.5231 S   0  0  0  0  0  0  0  0  0  0  0  0
   -3.1676   -0.1959   -2.8033 C   0  0  0  0  0  0  0  0  0  0  0  0
   -2.1564   -0.6536   -1.9035 C   0  0  0  0  0  0  0  0  0  0  0  0
   -0.9097   -1.2256   -2.1488 C   0  0  0  0  0  0  0  0  0  0  0  0
   -0.0798   -1.4146   -1.0694 C   0  0  0  0  0  0  0  0  0  0  0  0
    1.3542   -1.9410   -1.0489 C   0  0  0  0  0  0  0  0  0  0  0  0
    2.2084   -1.1822   -2.0504 C   0  0  0  0  0  0  0  0  0  0  0  0
    3.0378   -1.8077   -2.9703 C   0  0  0  0  0  0  0  0  0  0  0  0
    3.7953   -1.0568   -3.8545 C   0  0  0  0  0  0  0  0  0  0  0  0
    3.7395    0.3248   -3.8260 C   0  0  0  0  0  0  0  0  0  0  0  0
    2.9229    0.9564   -2.9021 C   0  0  0  0  0  0  0  0  0  0  0  0
    2.1646    0.2085   -2.0212 C   0  0  0  0  0  0  0  0  0  0  0  0
    1.3260   -3.4441   -1.2817 C   0  0  0  0  0  0  0  0  0  0  0  0
    1.7193   -4.3404   -0.2965 C   0  0  0  0  0  0  0  0  0  0  0  0
    1.6725   -5.7058   -0.5237 C   0  0  0  0  0  0  0  0  0  0  0  0
    1.2283   -6.1977   -1.7371 C   0  0  0  0  0  0  0  0  0  0  0  0
    0.8292   -5.3124   -2.7241 C   0  0  0  0  0  0  0  0  0  0  0  0
    0.8766   -3.9494   -2.4980 C   0  0  0  0  0  0  0  0  0  0  0  0
    1.7588   -1.5914    0.3660 C   0  0  0  0  0  0  0  0  0  0  0  0
    0.6642   -1.1115    1.0712 C   0  0  0  0  0  0  0  0  0  0  0  0
   -0.4793   -1.0031    0.2235 C   0  0  0  0  0  0  0  0  0  0  0  0
   -1.7461   -0.4855    0.4795 C   0  0  0  0  0  0  0  0  0  0  0  0
   -2.5860   -0.3240   -0.5964 C   0  0  0  0  0  0  0  0  0  0  0  0
   -3.9694    0.3020   -0.6204 C   0  0  0  0  0  0  0  0  0  0  0  0
   -3.9336    1.6281    0.1125 C   0  0  0  0  0  0  0  0  0  0  0  0
   -3.6127    2.8026   -0.5534 C   0  0  0  0  0  0  0  0  0  0  0  0
   -3.5448    4.0010    0.1353 C   0  0  0  0  0  0  0  0  0  0  0  0
   -3.7841    4.0359    1.4977 C   0  0  0  0  0  0  0  0  0  0  0  0
   -4.0890    2.8646    2.1701 C   0  0  0  0  0  0  0  0  0  0  0  0
   -4.1622    1.6670    1.4825 C   0  0  0  0  0  0  0  0  0  0  0  0
   -5.0608   -0.6109   -0.0819 C   0  0  0  0  0  0  0  0  0  0  0  0
   -6.3419   -0.0952    0.0787 C   0  0  0  0  0  0  0  0  0  0  0  0
   -7.3723   -0.9061    0.5158 C   0  0  0  0  0  0  0  0  0  0  0  0
   -7.1350   -2.2421    0.7940 C   0  0  0  0  0  0  0  0  0  0  0  0
   -5.8632   -2.7609    0.6287 C   0  0  0  0  0  0  0  0  0  0  0  0
   -4.8294   -1.9516    0.1880 C   0  0  0  0  0  0  0  0  0  0  0  0
   -4.1965    0.4171   -2.1040 C   0  0  0  0  0  0  0  0  0  0  0  0
   -5.1392    0.9756   -2.9600 C   0  0  0  0  0  0  0  0  0  0  0  0
   -6.5620    1.9200   -2.7971 S   0  0  0  0  0  0  0  0  0  0  0  0
    0.9867   -0.6271    2.7002 S   0  0  0  0  0  0  0  0  0  0  0  0
    2.6490   -1.0514    2.4539 C   0  0  0  0  0  0  0  0  0  0  0  0
    3.8593   -1.0187    3.1382 C   0  0  0  0  0  0  0  0  0  0  0  0
    4.8341   -1.5310    2.2358 C   0  0  0  0  0  0  0  0  0  0  0  0
    4.2392   -1.8819    1.0488 N   0  0  0  0  0  0  0  0  0  0  0  0
    4.9424   -2.3367   -0.1235 C   0  0  0  0  0  0  0  0  0  0  0  0
    5.6586   -1.1861   -0.8259 C   0  0  0  0  0  0  0  0  0  0  0  0
    2.9115   -1.5668    1.1548 C   0  0  0  0  0  0  0  0  0  0  0  0
    6.1078   -1.5292    2.7638 C   0  0  0  0  0  0  0  0  0  0  0  0
    6.1406   -1.0009    4.0630 C   0  0  0  0  0  0  0  0  0  0  0  0
    4.5376   -0.5305    4.6394 S   0  0  0  0  0  0  0  0  0  0  0  0
    7.3468   -0.8498    4.7510 C   0  0  0  0  0  0  0  0  0  0  0  0
    7.6178   -0.2990    5.9834 C   0  0  0  0  0  0  0  0  0  0  0  0
    6.6268    0.2501    6.9107 C   0  0  0  0  0  0  0  0  0  0  0  0
    5.4176    0.2861    6.7814 O   0  0  0  0  0  0  0  0  0  0  0  0
    7.3933    0.7628    8.0678 C   0  0  0  0  0  0  0  0  0  0  0  0
    6.9192    1.3900    9.2013 C   0  0  0  0  0  0  0  0  0  0  0  0
    7.8534    1.7879   10.1511 C   0  0  0  0  0  0  0  0  0  0  0  0
    7.4219    2.4851   11.4119 C   0  0  0  0  0  0  0  0  0  0  0  0
    7.8032    1.8145   12.5143 F   0  0  0  0  0  0  0  0  0  0  0  0
    7.9654    3.7119   11.5184 F   0  0  0  0  0  0  0  0  0  0  0  0
    6.0974    2.6465   11.5027 F   0  0  0  0  0  0  0  0  0  0  0  0
    9.2129    1.5579    9.9635 C   0  0  0  0  0  0  0  0  0  0  0  0
    9.6798    0.9254    8.8203 C   0  0  0  0  0  0  0  0  0  0  0  0
    8.7620    0.5250    7.8611 C   0  0  0  0  0  0  0  0  0  0  0  0
    8.9320   -0.1424    6.5662 C   0  0  0  0  0  0  0  0  0  0  0  0
   10.1384   -0.5223    6.0341 C   0  0  0  0  0  0  0  0  0  0  0  0
   10.3292   -1.1553    4.7883 C   0  0  0  0  0  0  0  0  0  0  0  0
   10.5748   -1.6687    3.7900 N   0  0  0  0  0  0  0  0  0  0  0  0
   11.3832   -0.3258    6.6686 C   0  0  0  0  0  0  0  0  0  0  0  0
   12.4292   -0.1989    7.1242 N   0  0  0  0  0  0  0  0  0  0  0  0
   -8.3606    3.2660   -4.2044 H   0  0  0  0  0  0  0  0  0  0  0  0
   -6.7375    3.8685  -10.2579 H   0  0  0  0  0  0  0  0  0  0  0  0
  -10.5916    6.2636   -8.1957 H   0  0  0  0  0  0  0  0  0  0  0  0
   -5.5670    1.3935   -6.2797 H   0  0  0  0  0  0  0  0  0  0  0  0
   -0.6095   -1.4493   -3.1603 H   0  0  0  0  0  0  0  0  0  0  0  0
    3.0969   -2.8855   -3.0094 H   0  0  0  0  0  0  0  0  0  0  0  0
    4.4313   -1.5588   -4.5683 H   0  0  0  0  0  0  0  0  0  0  0  0
    4.3293    0.9073   -4.5173 H   0  0  0  0  0  0  0  0  0  0  0  0
    2.8748    2.0346   -2.8681 H   0  0  0  0  0  0  0  0  0  0  0  0
    1.5270    0.7054   -1.3035 H   0  0  0  0  0  0  0  0  0  0  0  0
    2.0640   -3.9816    0.6615 H   0  0  0  0  0  0  0  0  0  0  0  0
    1.9849   -6.3848    0.2557 H   0  0  0  0  0  0  0  0  0  0  0  0
    1.1919   -7.2621   -1.9134 H   0  0  0  0  0  0  0  0  0  0  0  0
    0.4794   -5.6833   -3.6760 H   0  0  0  0  0  0  0  0  0  0  0  0
    0.5712   -3.2742   -3.2816 H   0  0  0  0  0  0  0  0  0  0  0  0
   -2.0295   -0.1868    1.4768 H   0  0  0  0  0  0  0  0  0  0  0  0
   -3.4141    2.7848   -1.6154 H   0  0  0  0  0  0  0  0  0  0  0  0
   -3.3024    4.9094   -0.3960 H   0  0  0  0  0  0  0  0  0  0  0  0
   -3.7316    4.9713    2.0341 H   0  0  0  0  0  0  0  0  0  0  0  0
   -4.2719    2.8823    3.2341 H   0  0  0  0  0  0  0  0  0  0  0  0
   -4.4097    0.7573    2.0104 H   0  0  0  0  0  0  0  0  0  0  0  0
   -6.5288    0.9476   -0.1340 H   0  0  0  0  0  0  0  0  0  0  0  0
   -8.3624   -0.4933    0.6372 H   0  0  0  0  0  0  0  0  0  0  0  0
   -7.9391   -2.8761    1.1361 H   0  0  0  0  0  0  0  0  0  0  0  0
   -5.6704   -3.8022    0.8410 H   0  0  0  0  0  0  0  0  0  0  0  0
   -3.8412   -2.3681    0.0574 H   0  0  0  0  0  0  0  0  0  0  0  0
    5.6673   -3.0963    0.1853 H   0  0  0  0  0  0  0  0  0  0  0  0
    4.2169   -2.7979   -0.7956 H   0  0  0  0  0  0  0  0  0  0  0  0
    4.9449   -0.4213   -1.1216 H   0  0  0  0  0  0  0  0  0  0  0  0
    6.1623   -1.5519   -1.7157 H   0  0  0  0  0  0  0  0  0  0  0  0
    6.3961   -0.7377   -0.1649 H   0  0  0  0  0  0  0  0  0  0  0  0
    6.9978   -1.8686    2.2648 H   0  0  0  0  0  0  0  0  0  0  0  0
    8.1997   -1.2121    4.1900 H   0  0  0  0  0  0  0  0  0  0  0  0
    5.8624    1.5619    9.3346 H   0  0  0  0  0  0  0  0  0  0  0  0
    9.9120    1.8789   10.7208 H   0  0  0  0  0  0  0  0  0  0  0  0
   10.7374    0.7607    8.6997 H   0  0  0  0  0  0  0  0  0  0  0  0
  1  2  2  0  0  0  0
  2  3  1  0  0  0  0
  3  4  2  0  0  0  0
  3  5  1  0  0  0  0
  5  6  2  0  0  0  0
  6  7  1  0  0  0  0
  7  8  1  0  0  0  0
  7  9  2  0  0  0  0
  9 10  1  0  0  0  0
  9 11  1  0  0  0  0
 11 12  2  0  0  0  0
 12 13  1  0  0  0  0
 13 14  2  0  0  0  0
 14 15  1  0  0  0  0
 15 16  3  0  0  0  0
 14 17  1  0  0  0  0
 17 18  3  0  0  0  0
  1 19  1  0  0  0  0
 19 20  2  0  0  0  0
 20 21  1  0  0  0  0
 21 22  1  0  0  0  0
 22 23  1  0  0  0  0
 23 24  1  0  0  0  0
 24 25  2  0  0  0  0
 25 26  1  0  0  0  0
 26 27  1  0  0  0  0
 27 28  1  0  0  0  0
 28 29  2  0  0  0  0
 29 30  1  0  0  0  0
 30 31  2  0  0  0  0
 31 32  1  0  0  0  0
 32 33  2  0  0  0  0
 27 34  1  0  0  0  0
 34 35  2  0  0  0  0
 35 36  1  0  0  0  0
 36 37  2  0  0  0  0
 37 38  1  0  0  0  0
 38 39  2  0  0  0  0
 27 40  1  0  0  0  0
 40 41  2  0  0  0  0
 41 42  1  0  0  0  0
 42 43  1  0  0  0  0
 43 44  2  0  0  0  0
 44 45  1  0  0  0  0
 45 46  1  0  0  0  0
 46 47  2  0  0  0  0
 47 48  1  0  0  0  0
 48 49  2  0  0  0  0
 49 50  1  0  0  0  0
 50 51  2  0  0  0  0
 45 52  1  0  0  0  0
 52 53  2  0  0  0  0
 53 54  1  0  0  0  0
 54 55  2  0  0  0  0
 55 56  1  0  0  0  0
 56 57  2  0  0  0  0
 45 58  1  0  0  0  0
 58 59  1  0  0  0  0
 59 60  1  0  0  0  0
 41 61  1  0  0  0  0
 61 62  1  0  0  0  0
 62 63  1  0  0  0  0
 63 64  2  0  0  0  0
 64 65  1  0  0  0  0
 65 66  1  0  0  0  0
 66 67  1  0  0  0  0
 65 68  1  0  0  0  0
 64 69  1  0  0  0  0
 69 70  2  0  0  0  0
 70 71  1  0  0  0  0
 70 72  1  0  0  0  0
 72 73  2  0  0  0  0
 73 74  1  0  0  0  0
 74 75  2  0  0  0  0
 74 76  1  0  0  0  0
 76 77  2  0  0  0  0
 77 78  1  0  0  0  0
 78 79  1  0  0  0  0
 79 80  1  0  0  0  0
 79 81  1  0  0  0  0
 79 82  1  0  0  0  0
 78 83  2  0  0  0  0
 83 84  1  0  0  0  0
 84 85  2  0  0  0  0
 85 86  1  0  0  0  0
 86 87  2  0  0  0  0
 87 88  1  0  0  0  0
 88 89  3  0  0  0  0
 87 90  1  0  0  0  0
 90 91  3  0  0  0  0
 13  2  1  0  0  0  0
 60 19  1  0  0  0  0
 68 62  2  0  0  0  0
 86 73  1  0  0  0  0
 12  5  1  0  0  0  0
 59 21  2  0  0  0  0
 71 63  1  0  0  0  0
 85 76  1  0  0  0  0
 58 23  2  0  0  0  0
 44 24  1  0  0  0  0
 51 46  1  0  0  0  0
 57 52  1  0  0  0  0
 42 26  2  0  0  0  0
 33 28  1  0  0  0  0
 39 34  1  0  0  0  0
 68 40  1  0  0  0  0
  1 92  1  0  0  0  0
  6 93  1  0  0  0  0
 11 94  1  0  0  0  0
 20 95  1  0  0  0  0
 25 96  1  0  0  0  0
 29 97  1  0  0  0  0
 30 98  1  0  0  0  0
 31 99  1  0  0  0  0
 32100  1  0  0  0  0
 33101  1  0  0  0  0
 35102  1  0  0  0  0
 36103  1  0  0  0  0
 37104  1  0  0  0  0
 38105  1  0  0  0  0
 39106  1  0  0  0  0
 43107  1  0  0  0  0
 47108  1  0  0  0  0
 48109  1  0  0  0  0
 49110  1  0  0  0  0
 50111  1  0  0  0  0
 51112  1  0  0  0  0
 53113  1  0  0  0  0
 54114  1  0  0  0  0
 55115  1  0  0  0  0
 56116  1  0  0  0  0
 57117  1  0  0  0  0
 66118  1  0  0  0  0
 66119  1  0  0  0  0
 67120  1  0  0  0  0
 67121  1  0  0  0  0
 67122  1  0  0  0  0
 69123  1  0  0  0  0
 72124  1  0  0  0  0
 77125  1  0  0  0  0
 83126  1  0  0  0  0
 84127  1  0  0  0  0
M  END
