127

C         -7.72100        2.92600       -5.01050
C         -8.02820        3.41390       -6.25650
C         -7.29250        3.22900       -7.52350
O         -6.35670        2.49710       -7.77080
C         -7.93310        4.14580       -8.49270
C         -7.57040        4.38140       -9.80410
C         -8.31350        5.30580      -10.51930
F         -7.99640        5.57100      -11.79240
C         -9.38810        5.96630       -9.92270
F        -10.08440        6.86000      -10.63400
C         -9.75470        5.72410       -8.60720
C         -9.01550        4.79970       -7.88490
C         -9.13230        4.32640       -6.50560
C        -10.13930        4.67790       -5.64530
C        -10.32640        4.19830       -4.33050
N        -10.57330        3.85610       -3.26210
C        -11.17730        5.57780       -5.97190
N        -12.04610        6.30170       -6.16740
C         -6.67820        2.10290       -4.55770
C         -5.66500        1.41210       -5.21020
C         -4.80610        0.78930       -4.32100
S         -3.33460       -0.12210       -4.52310
C         -3.16760       -0.19590       -2.80330
C         -2.15640       -0.65360       -1.90350
C         -0.90970       -1.22560       -2.14880
C         -0.07980       -1.41460       -1.06940
C          1.35420       -1.94100       -1.04890
C          2.20840       -1.18220       -2.05040
C          3.03780       -1.80770       -2.97030
C          3.79530       -1.05680       -3.85450
C          3.73950        0.32480       -3.82600
C          2.92290        0.95640       -2.90210
C          2.16460        0.20850       -2.02120
C          1.32600       -3.44410       -1.28170
C          1.71930       -4.34040       -0.29650
C          1.67250       -5.70580       -0.52370
C          1.22830       -6.19770       -1.73710
C          0.82920       -5.31240       -2.72410
C          0.87660       -3.94940       -2.49800
C          1.75880       -1.59140        0.36600
C          0.66420       -1.11150        1.07120
C         -0.47930       -1.00310        0.22350
C         -1.74610       -0.48550        0.47950
C         -2.58600       -0.32400       -0.59640
C         -3.96940        0.30200       -0.62040
C         -3.93360        1.62810        0.11250
C         -3.61270        2.80260       -0.55340
C         -3.54480        4.00100        0.13530
C         -3.78410        4.03590        1.49770
C         -4.08900        2.86460        2.17010
C         -4.16220        1.66700        1.48250
C         -5.06080       -0.61090       -0.08190
C         -6.34190       -0.09520        0.07870
C         -7.37230       -0.90610        0.51580
C         -7.13500       -2.24210        0.79400
C         -5.86320       -2.76090        0.62870
C         -4.82940       -1.95160        0.18800
C         -4.19650        0.41710       -2.10400
C         -5.13920        0.97560       -2.96000
S         -6.56200        1.92000       -2.79710
S          0.98670       -0.62710        2.70020
C          2.64900       -1.05140        2.45390
C          3.85930       -1.01870        3.13820
C          4.83410       -1.53100        2.23580
N          4.23920       -1.88190        1.04880
C          4.94240       -2.33670       -0.12350
C          5.65860       -1.18610       -0.82590
C          2.91150       -1.56680        1.15480
C          6.10780       -1.52920        2.76380
C          6.14060       -1.00090        4.06300
S          4.53760       -0.53050        4.63940
C          7.34680       -0.84980        4.75100
C          7.61780       -0.29900        5.98340
C          6.62680        0.25010        6.91070
O          5.41760        0.28610        6.78140
C          7.39330        0.76280        8.06780
C          6.91920        1.39000        9.20130
C          7.85340        1.78790       10.15110
C          7.42190        2.48510       11.41190
F          7.80320        1.81450       12.51430
F          7.96540        3.71190       11.51840
F          6.09740        2.64650       11.50270
C          9.21290        1.55790        9.96350
C          9.67980        0.92540        8.82030
C          8.76200        0.52500        7.86110
C          8.93200       -0.14240        6.56620
C         10.13840       -0.52230        6.03410
C         10.32920       -1.15530        4.78830
N         10.57480       -1.66870        3.79000
C         11.38320       -0.32580        6.66860
N         12.42920       -0.19890        7.12420
H         -8.36060        3.26600       -4.20440
H         -6.73750        3.86850      -10.25790
H        -10.59160        6.26360       -8.19570
H         -5.56700        1.39350       -6.27970
H         -0.60950       -1.44930       -3.16030
H          3.09690       -2.88550       -3.00940
H          4.43130       -1.55880       -4.56830
H          4.32930        0.90730       -4.51730
H          2.87480        2.03460       -2.86810
H          1.52700        0.70540       -1.30350
H          2.06400       -3.98160        0.66150
H          1.98490       -6.38480        0.25570
H          1.19190       -7.26210       -1.91340
H          0.47940       -5.68330       -3.67600
H          0.57120       -3.27420       -3.28160
H         -2.02950       -0.18680        1.47680
H         -3.41410        2.78480       -1.61540
H         -3.30240        4.90940       -0.39600
H         -3.73160        4.97130        2.03410
H         -4.27190        2.88230        3.23410
H         -4.40970        0.75730        2.01040
H         -6.52880        0.94760       -0.13400
H         -8.36240       -0.49330        0.63720
H         -7.93910       -2.87610        1.13610
H         -5.67040       -3.80220        0.84100
H         -3.84120       -2.36810        0.05740
H          5.66730       -3.09630        0.18530
H          4.21690       -2.79790       -0.79560
H          4.94490       -0.42130       -1.12160
H          6.16230       -1.55190       -1.71570
H          6.39610       -0.73770       -0.16490
H          6.99780       -1.86860        2.26480
H          8.19970       -1.21210        4.19000
H          5.86240        1.56190        9.33460
H          9.91200        1.87890       10.72080
H         10.73740        0.76070        8.69970
