
  xtb     02012222133D
 energy: -261.285690912332 gnorm: 0.000485929828 xtb: 6.4.1 (unknown)
152167  0     0  0            999 V2000
   -0.8388   -8.3670   -1.8800 C   0  0  0  0  0  0  0  0  0  0  0  0
   -0.0297   -9.1872   -2.6327 C   0  0  0  0  0  0  0  0  0  0  0  0
    1.2249   -8.7933   -3.2757 C   0  0  0  0  0  0  0  0  0  0  0  0
    1.7642   -7.7024   -3.2631 O   0  0  0  0  0  0  0  0  0  0  0  0
    1.7283  -10.0042   -3.9596 C   0  0  0  0  0  0  0  0  0  0  0  0
    2.8788  -10.1509   -4.7078 C   0  0  0  0  0  0  0  0  0  0  0  0
    3.1335  -11.3982   -5.2554 C   0  0  0  0  0  0  0  0  0  0  0  0
    4.2370  -11.5876   -5.9900 F   0  0  0  0  0  0  0  0  0  0  0  0
    2.2508  -12.4578   -5.0489 C   0  0  0  0  0  0  0  0  0  0  0  0
    2.5211  -13.6520   -5.5893 F   0  0  0  0  0  0  0  0  0  0  0  0
    1.0949  -12.3090   -4.2961 C   0  0  0  0  0  0  0  0  0  0  0  0
    0.8322  -11.0646   -3.7456 C   0  0  0  0  0  0  0  0  0  0  0  0
   -0.2786  -10.5833   -2.9206 C   0  0  0  0  0  0  0  0  0  0  0  0
   -1.3467  -11.3461   -2.5213 C   0  0  0  0  0  0  0  0  0  0  0  0
   -2.4320  -10.9042   -1.7365 C   0  0  0  0  0  0  0  0  0  0  0  0
   -3.3539  -10.6303   -1.1075 N   0  0  0  0  0  0  0  0  0  0  0  0
   -1.5136  -12.7078   -2.8509 C   0  0  0  0  0  0  0  0  0  0  0  0
   -1.7115  -13.8149   -3.0811 N   0  0  0  0  0  0  0  0  0  0  0  0
   -0.7169   -7.0149   -1.5498 C   0  0  0  0  0  0  0  0  0  0  0  0
    0.5898   -5.9271   -2.0339 S   0  0  0  0  0  0  0  0  0  0  0  0
   -0.1778   -4.6352   -1.1997 C   0  0  0  0  0  0  0  0  0  0  0  0
   -0.0286   -3.2802   -0.9154 C   0  0  0  0  0  0  0  0  0  0  0  0
    1.0623   -1.9813   -1.2656 S   0  0  0  0  0  0  0  0  0  0  0  0
    0.0103   -0.9150   -0.4001 C   0  0  0  0  0  0  0  0  0  0  0  0
    0.0065    0.4936   -0.1670 C   0  0  0  0  0  0  0  0  0  0  0  0
    0.9248    1.4792   -0.5198 C   0  0  0  0  0  0  0  0  0  0  0  0
    0.6200    2.7744   -0.1739 C   0  0  0  0  0  0  0  0  0  0  0  0
    1.4253    4.0323   -0.4481 C   0  0  0  0  0  0  0  0  0  0  0  0
    1.6754    4.1388   -1.9368 C   0  0  0  0  0  0  0  0  0  0  0  0
    2.7729    3.5024   -2.5033 C   0  0  0  0  0  0  0  0  0  0  0  0
    2.9861    3.5558   -3.8672 C   0  0  0  0  0  0  0  0  0  0  0  0
    2.1115    4.2426   -4.7001 C   0  0  0  0  0  0  0  0  0  0  0  0
    2.3257    4.2637   -6.1859 C   0  0  0  0  0  0  0  0  0  0  0  0
    1.6570    3.0524   -6.8392 C   0  0  0  0  0  0  0  0  0  0  0  0
    1.0112    4.8680   -4.1296 C   0  0  0  0  0  0  0  0  0  0  0  0
    0.7917    4.8155   -2.7651 C   0  0  0  0  0  0  0  0  0  0  0  0
    2.7000    4.1562    0.3720 C   0  0  0  0  0  0  0  0  0  0  0  0
    2.8938    3.4250    1.5332 C   0  0  0  0  0  0  0  0  0  0  0  0
    3.9915    3.6736    2.3380 C   0  0  0  0  0  0  0  0  0  0  0  0
    4.9082    4.6630    2.0137 C   0  0  0  0  0  0  0  0  0  0  0  0
    6.0961    4.9439    2.8859 C   0  0  0  0  0  0  0  0  0  0  0  0
    7.3333    4.2062    2.3708 C   0  0  0  0  0  0  0  0  0  0  0  0
    4.7158    5.3820    0.8399 C   0  0  0  0  0  0  0  0  0  0  0  0
    3.6234    5.1383    0.0323 C   0  0  0  0  0  0  0  0  0  0  0  0
    0.5143    5.0833    0.1277 C   0  0  0  0  0  0  0  0  0  0  0  0
   -0.6141    4.4935    0.6914 C   0  0  0  0  0  0  0  0  0  0  0  0
   -0.5889    3.0798    0.4990 C   0  0  0  0  0  0  0  0  0  0  0  0
   -1.5019    2.0911    0.8601 C   0  0  0  0  0  0  0  0  0  0  0  0
   -1.1914    0.7966    0.5208 C   0  0  0  0  0  0  0  0  0  0  0  0
   -1.9947   -0.4677    0.7989 C   0  0  0  0  0  0  0  0  0  0  0  0
   -2.0941   -0.5940    2.3057 C   0  0  0  0  0  0  0  0  0  0  0  0
   -1.1487   -1.3196    3.0187 C   0  0  0  0  0  0  0  0  0  0  0  0
   -1.2073   -1.3891    4.3975 C   0  0  0  0  0  0  0  0  0  0  0  0
   -2.2029   -0.7287    5.1045 C   0  0  0  0  0  0  0  0  0  0  0  0
   -2.2915   -0.8560    6.5974 C   0  0  0  0  0  0  0  0  0  0  0  0
   -3.0553   -2.1247    6.9827 C   0  0  0  0  0  0  0  0  0  0  0  0
   -3.1321    0.0162    4.3902 C   0  0  0  0  0  0  0  0  0  0  0  0
   -3.0750    0.0923    3.0107 C   0  0  0  0  0  0  0  0  0  0  0  0
   -3.3253   -0.4752    0.0654 C   0  0  0  0  0  0  0  0  0  0  0  0
   -3.3998    0.0815   -1.2066 C   0  0  0  0  0  0  0  0  0  0  0  0
   -4.5739    0.0254   -1.9321 C   0  0  0  0  0  0  0  0  0  0  0  0
   -5.7036   -0.5970   -1.4160 C   0  0  0  0  0  0  0  0  0  0  0  0
   -6.9897   -0.6203   -2.1900 C   0  0  0  0  0  0  0  0  0  0  0  0
   -7.8223    0.6256   -1.8804 C   0  0  0  0  0  0  0  0  0  0  0  0
   -5.6226   -1.1564   -0.1488 C   0  0  0  0  0  0  0  0  0  0  0  0
   -4.4500   -1.1014    0.5819 C   0  0  0  0  0  0  0  0  0  0  0  0
   -1.1163   -1.5127    0.1503 C   0  0  0  0  0  0  0  0  0  0  0  0
   -1.1465   -2.8780   -0.1369 C   0  0  0  0  0  0  0  0  0  0  0  0
   -1.9693   -3.9629    0.0664 N   0  0  0  0  0  0  0  0  0  0  0  0
   -1.3907   -5.0368   -0.5801 C   0  0  0  0  0  0  0  0  0  0  0  0
   -1.6885   -6.3677   -0.7724 C   0  0  0  0  0  0  0  0  0  0  0  0
   -3.1326   -4.0481    0.8210 C   0  0  0  0  0  0  0  0  0  0  0  0
   -4.3582   -4.4578    0.3935 C   0  0  0  0  0  0  0  0  0  0  0  0
   -5.3056   -4.5042    1.4376 C   0  0  0  0  0  0  0  0  0  0  0  0
   -4.7980   -4.1525    2.6495 C   0  0  0  0  0  0  0  0  0  0  0  0
   -5.5161   -3.9956    3.9453 C   0  0  0  0  0  0  0  0  0  0  0  0
   -5.9249   -2.5366    4.1644 C   0  0  0  0  0  0  0  0  0  0  0  0
   -3.1121   -3.7634    2.5400 S   0  0  0  0  0  0  0  0  0  0  0  0
   -1.6172    5.6276    1.4841 S   0  0  0  0  0  0  0  0  0  0  0  0
   -0.4639    6.9082    1.1373 C   0  0  0  0  0  0  0  0  0  0  0  0
    0.6074    6.4383    0.3834 C   0  0  0  0  0  0  0  0  0  0  0  0
   -0.6977    8.2113    1.6106 C   0  0  0  0  0  0  0  0  0  0  0  0
    0.2154    9.2157    1.7798 C   0  0  0  0  0  0  0  0  0  0  0  0
   -0.2550   10.6199    1.8555 C   0  0  0  0  0  0  0  0  0  0  0  0
   -1.3947   11.0031    1.9834 O   0  0  0  0  0  0  0  0  0  0  0  0
    0.9648   11.4448    1.6850 C   0  0  0  0  0  0  0  0  0  0  0  0
    1.0677   12.8154    1.5651 C   0  0  0  0  0  0  0  0  0  0  0  0
    2.3292   13.3685    1.3767 C   0  0  0  0  0  0  0  0  0  0  0  0
    2.5265   15.0695    1.2163 Cl  0  0  0  0  0  0  0  0  0  0  0  0
    3.4437   12.5291    1.3150 C   0  0  0  0  0  0  0  0  0  0  0  0
    4.6533   13.0673    1.1170 F   0  0  0  0  0  0  0  0  0  0  0  0
    3.3499   11.1522    1.4472 C   0  0  0  0  0  0  0  0  0  0  0  0
    2.0916   10.6049    1.6361 C   0  0  0  0  0  0  0  0  0  0  0  0
    1.6601    9.2216    1.8378 C   0  0  0  0  0  0  0  0  0  0  0  0
    2.4763    8.2048    2.2663 C   0  0  0  0  0  0  0  0  0  0  0  0
    2.0129    6.9596    2.7382 C   0  0  0  0  0  0  0  0  0  0  0  0
    1.6938    5.9549    3.1925 N   0  0  0  0  0  0  0  0  0  0  0  0
    3.8756    8.3152    2.3868 C   0  0  0  0  0  0  0  0  0  0  0  0
    5.0189    8.3450    2.4870 N   0  0  0  0  0  0  0  0  0  0  0  0
   -1.7315   -8.8209   -1.4671 H   0  0  0  0  0  0  0  0  0  0  0  0
    3.5576   -9.3279   -4.8644 H   0  0  0  0  0  0  0  0  0  0  0  0
    0.4473  -13.1605   -4.1677 H   0  0  0  0  0  0  0  0  0  0  0  0
    1.8333    1.2252   -1.0432 H   0  0  0  0  0  0  0  0  0  0  0  0
    3.4723    2.9771   -1.8690 H   0  0  0  0  0  0  0  0  0  0  0  0
    3.8476    3.0606   -4.2917 H   0  0  0  0  0  0  0  0  0  0  0  0
    3.3950    4.2455   -6.4058 H   0  0  0  0  0  0  0  0  0  0  0  0
    1.9052    5.1784   -6.6084 H   0  0  0  0  0  0  0  0  0  0  0  0
    2.0726    2.1298   -6.4405 H   0  0  0  0  0  0  0  0  0  0  0  0
    0.5873    3.0585   -6.6416 H   0  0  0  0  0  0  0  0  0  0  0  0
    1.8119    3.0671   -7.9154 H   0  0  0  0  0  0  0  0  0  0  0  0
    0.3173    5.4060   -4.7598 H   0  0  0  0  0  0  0  0  0  0  0  0
   -0.0721    5.3086   -2.3419 H   0  0  0  0  0  0  0  0  0  0  0  0
    2.1796    2.6675    1.8207 H   0  0  0  0  0  0  0  0  0  0  0  0
    4.1226    3.1019    3.2451 H   0  0  0  0  0  0  0  0  0  0  0  0
    6.2916    6.0180    2.8939 H   0  0  0  0  0  0  0  0  0  0  0  0
    5.8849    4.6264    3.9087 H   0  0  0  0  0  0  0  0  0  0  0  0
    7.1597    3.1321    2.3667 H   0  0  0  0  0  0  0  0  0  0  0  0
    7.5658    4.5193    1.3555 H   0  0  0  0  0  0  0  0  0  0  0  0
    8.1915    4.4174    3.0040 H   0  0  0  0  0  0  0  0  0  0  0  0
    5.4195    6.1564    0.5703 H   0  0  0  0  0  0  0  0  0  0  0  0
    3.4811    5.7171   -0.8701 H   0  0  0  0  0  0  0  0  0  0  0  0
   -2.4129    2.3471    1.3776 H   0  0  0  0  0  0  0  0  0  0  0  0
   -0.3606   -1.8401    2.4944 H   0  0  0  0  0  0  0  0  0  0  0  0
   -0.4655   -1.9641    4.9324 H   0  0  0  0  0  0  0  0  0  0  0  0
   -2.8014    0.0136    7.0160 H   0  0  0  0  0  0  0  0  0  0  0  0
   -1.2867   -0.9002    7.0221 H   0  0  0  0  0  0  0  0  0  0  0  0
   -2.5701   -3.0011    6.5583 H   0  0  0  0  0  0  0  0  0  0  0  0
   -3.0881   -2.2346    8.0641 H   0  0  0  0  0  0  0  0  0  0  0  0
   -4.0752   -2.0813    6.6081 H   0  0  0  0  0  0  0  0  0  0  0  0
   -3.9077    0.5518    4.9197 H   0  0  0  0  0  0  0  0  0  0  0  0
   -3.8082    0.6818    2.4799 H   0  0  0  0  0  0  0  0  0  0  0  0
   -2.5310    0.5622   -1.6333 H   0  0  0  0  0  0  0  0  0  0  0  0
   -4.6112    0.4660   -2.9181 H   0  0  0  0  0  0  0  0  0  0  0  0
   -7.5640   -1.5111   -1.9279 H   0  0  0  0  0  0  0  0  0  0  0  0
   -6.7766   -0.6528   -3.2603 H   0  0  0  0  0  0  0  0  0  0  0  0
   -8.0599    0.6682   -0.8198 H   0  0  0  0  0  0  0  0  0  0  0  0
   -7.2696    1.5247   -2.1433 H   0  0  0  0  0  0  0  0  0  0  0  0
   -8.7518    0.6116   -2.4445 H   0  0  0  0  0  0  0  0  0  0  0  0
   -6.4856   -1.6512    0.2736 H   0  0  0  0  0  0  0  0  0  0  0  0
   -4.4204   -1.5455    1.5637 H   0  0  0  0  0  0  0  0  0  0  0  0
   -2.5538   -6.8767   -0.3876 H   0  0  0  0  0  0  0  0  0  0  0  0
   -4.5749   -4.6941   -0.6326 H   0  0  0  0  0  0  0  0  0  0  0  0
   -6.3323   -4.7874    1.2902 H   0  0  0  0  0  0  0  0  0  0  0  0
   -6.4053   -4.6289    3.9385 H   0  0  0  0  0  0  0  0  0  0  0  0
   -4.8713   -4.3146    4.7665 H   0  0  0  0  0  0  0  0  0  0  0  0
   -6.5780   -2.2017    3.3617 H   0  0  0  0  0  0  0  0  0  0  0  0
   -5.0440   -1.8977    4.1839 H   0  0  0  0  0  0  0  0  0  0  0  0
   -6.4552   -2.4318    5.1077 H   0  0  0  0  0  0  0  0  0  0  0  0
    1.3901    7.0789    0.0191 H   0  0  0  0  0  0  0  0  0  0  0  0
   -1.7276    8.4831    1.8185 H   0  0  0  0  0  0  0  0  0  0  0  0
    0.1900   13.4397    1.6164 H   0  0  0  0  0  0  0  0  0  0  0  0
    4.2474   10.5580    1.3890 H   0  0  0  0  0  0  0  0  0  0  0  0
  1  2  2  0  0  0  0
  2  3  1  0  0  0  0
  3  4  2  0  0  0  0
  3  5  1  0  0  0  0
  5  6  2  0  0  0  0
  6  7  1  0  0  0  0
  7  8  1  0  0  0  0
  7  9  2  0  0  0  0
  9 10  1  0  0  0  0
  9 11  1  0  0  0  0
 11 12  2  0  0  0  0
 12 13  1  0  0  0  0
 13 14  2  0  0  0  0
 14 15  1  0  0  0  0
 15 16  3  0  0  0  0
 14 17  1  0  0  0  0
 17 18  3  0  0  0  0
  1 19  1  0  0  0  0
 19 20  1  0  0  0  0
 20 21  1  0  0  0  0
 21 22  1  0  0  0  0
 22 23  1  0  0  0  0
 23 24  1  0  0  0  0
 24 25  1  0  0  0  0
 25 26  2  0  0  0  0
 26 27  1  0  0  0  0
 27 28  1  0  0  0  0
 28 29  1  0  0  0  0
 29 30  2  0  0  0  0
 30 31  1  0  0  0  0
 31 32  2  0  0  0  0
 32 33  1  0  0  0  0
 33 34  1  0  0  0  0
 32 35  1  0  0  0  0
 35 36  2  0  0  0  0
 28 37  1  0  0  0  0
 37 38  2  0  0  0  0
 38 39  1  0  0  0  0
 39 40  2  0  0  0  0
 40 41  1  0  0  0  0
 41 42  1  0  0  0  0
 40 43  1  0  0  0  0
 43 44  2  0  0  0  0
 28 45  1  0  0  0  0
 45 46  2  0  0  0  0
 46 47  1  0  0  0  0
 47 48  1  0  0  0  0
 48 49  2  0  0  0  0
 49 50  1  0  0  0  0
 50 51  1  0  0  0  0
 51 52  2  0  0  0  0
 52 53  1  0  0  0  0
 53 54  2  0  0  0  0
 54 55  1  0  0  0  0
 55 56  1  0  0  0  0
 54 57  1  0  0  0  0
 57 58  2  0  0  0  0
 50 59  1  0  0  0  0
 59 60  2  0  0  0  0
 60 61  1  0  0  0  0
 61 62  2  0  0  0  0
 62 63  1  0  0  0  0
 63 64  1  0  0  0  0
 62 65  1  0  0  0  0
 65 66  2  0  0  0  0
 50 67  1  0  0  0  0
 67 68  1  0  0  0  0
 68 69  1  0  0  0  0
 69 70  1  0  0  0  0
 70 71  1  0  0  0  0
 69 72  1  0  0  0  0
 72 73  2  0  0  0  0
 73 74  1  0  0  0  0
 74 75  2  0  0  0  0
 75 76  1  0  0  0  0
 76 77  1  0  0  0  0
 75 78  1  0  0  0  0
 46 79  1  0  0  0  0
 79 80  1  0  0  0  0
 80 81  2  0  0  0  0
 80 82  1  0  0  0  0
 82 83  2  0  0  0  0
 83 84  1  0  0  0  0
 84 85  2  0  0  0  0
 84 86  1  0  0  0  0
 86 87  2  0  0  0  0
 87 88  1  0  0  0  0
 88 89  1  0  0  0  0
 88 90  2  0  0  0  0
 90 91  1  0  0  0  0
 90 92  1  0  0  0  0
 92 93  2  0  0  0  0
 93 94  1  0  0  0  0
 94 95  2  0  0  0  0
 95 96  1  0  0  0  0
 96 97  3  0  0  0  0
 95 98  1  0  0  0  0
 98 99  3  0  0  0  0
 13  2  1  0  0  0  0
 71 19  2  0  0  0  0
 78 72  1  0  0  0  0
 94 83  1  0  0  0  0
 12  5  1  0  0  0  0
 70 21  2  0  0  0  0
 93 86  1  0  0  0  0
 68 22  2  0  0  0  0
 67 24  2  0  0  0  0
 49 25  1  0  0  0  0
 58 51  1  0  0  0  0
 66 59  1  0  0  0  0
 47 27  2  0  0  0  0
 36 29  1  0  0  0  0
 44 37  1  0  0  0  0
 81 45  1  0  0  0  0
  1100  1  0  0  0  0
  6101  1  0  0  0  0
 11102  1  0  0  0  0
 26103  1  0  0  0  0
 30104  1  0  0  0  0
 31105  1  0  0  0  0
 33106  1  0  0  0  0
 33107  1  0  0  0  0
 34108  1  0  0  0  0
 34109  1  0  0  0  0
 34110  1  0  0  0  0
 35111  1  0  0  0  0
 36112  1  0  0  0  0
 38113  1  0  0  0  0
 39114  1  0  0  0  0
 41115  1  0  0  0  0
 41116  1  0  0  0  0
 42117  1  0  0  0  0
 42118  1  0  0  0  0
 42119  1  0  0  0  0
 43120  1  0  0  0  0
 44121  1  0  0  0  0
 48122  1  0  0  0  0
 52123  1  0  0  0  0
 53124  1  0  0  0  0
 55125  1  0  0  0  0
 55126  1  0  0  0  0
 56127  1  0  0  0  0
 56128  1  0  0  0  0
 56129  1  0  0  0  0
 57130  1  0  0  0  0
 58131  1  0  0  0  0
 60132  1  0  0  0  0
 61133  1  0  0  0  0
 63134  1  0  0  0  0
 63135  1  0  0  0  0
 64136  1  0  0  0  0
 64137  1  0  0  0  0
 64138  1  0  0  0  0
 65139  1  0  0  0  0
 66140  1  0  0  0  0
 71141  1  0  0  0  0
 73142  1  0  0  0  0
 74143  1  0  0  0  0
 76144  1  0  0  0  0
 76145  1  0  0  0  0
 77146  1  0  0  0  0
 77147  1  0  0  0  0
 77148  1  0  0  0  0
 81149  1  0  0  0  0
 82150  1  0  0  0  0
 87151  1  0  0  0  0
 92152  1  0  0  0  0
M  END
