
  xtb     02012223433D
 energy: -265.763297363529 gnorm: 0.000277161777 xtb: 6.4.1 (unknown)
154170  0     0  0            999 V2000
    2.6818   -5.9327    7.9801 C   0  0  0  0  0  0  0  0  0  0  0  0
    3.1279   -7.2221    8.1661 C   0  0  0  0  0  0  0  0  0  0  0  0
    3.2257   -8.3106    7.1781 C   0  0  0  0  0  0  0  0  0  0  0  0
    2.8005   -8.3651    6.0405 O   0  0  0  0  0  0  0  0  0  0  0  0
    3.9965   -9.3852    7.8445 C   0  0  0  0  0  0  0  0  0  0  0  0
    4.4007  -10.5945    7.3151 C   0  0  0  0  0  0  0  0  0  0  0  0
    5.1318  -11.4410    8.1324 C   0  0  0  0  0  0  0  0  0  0  0  0
    5.5479  -12.6235    7.6600 F   0  0  0  0  0  0  0  0  0  0  0  0
    5.4408  -11.0718    9.4413 C   0  0  0  0  0  0  0  0  0  0  0  0
    6.1539  -11.9062   10.2071 F   0  0  0  0  0  0  0  0  0  0  0  0
    5.0303   -9.8583    9.9733 C   0  0  0  0  0  0  0  0  0  0  0  0
    4.2983   -9.0063    9.1612 C   0  0  0  0  0  0  0  0  0  0  0  0
    3.7239   -7.6831    9.4063 C   0  0  0  0  0  0  0  0  0  0  0  0
    3.7138   -7.0516   10.6232 C   0  0  0  0  0  0  0  0  0  0  0  0
    3.0848   -5.8234   10.9210 C   0  0  0  0  0  0  0  0  0  0  0  0
    2.5879   -4.8471   11.2664 N   0  0  0  0  0  0  0  0  0  0  0  0
    4.3136   -7.5760   11.7881 C   0  0  0  0  0  0  0  0  0  0  0  0
    4.7849   -7.9398   12.7695 N   0  0  0  0  0  0  0  0  0  0  0  0
    2.0732   -5.3092    6.8853 C   0  0  0  0  0  0  0  0  0  0  0  0
    1.8658   -3.5474    7.0185 S   0  0  0  0  0  0  0  0  0  0  0  0
    1.1640   -3.4982    5.4558 C   0  0  0  0  0  0  0  0  0  0  0  0
    0.6540   -2.6145    4.5134 C   0  0  0  0  0  0  0  0  0  0  0  0
    0.3937   -0.9135    4.2971 S   0  0  0  0  0  0  0  0  0  0  0  0
   -0.2161   -1.2500    2.7119 C   0  0  0  0  0  0  0  0  0  0  0  0
   -0.6060   -0.4262    1.6122 C   0  0  0  0  0  0  0  0  0  0  0  0
   -0.6390    0.9598    1.4865 C   0  0  0  0  0  0  0  0  0  0  0  0
   -0.8918    1.4701    0.2351 C   0  0  0  0  0  0  0  0  0  0  0  0
   -0.9169    2.9247   -0.2001 C   0  0  0  0  0  0  0  0  0  0  0  0
    0.3404    3.6210    0.2794 C   0  0  0  0  0  0  0  0  0  0  0  0
    0.3730    4.2045    1.5396 C   0  0  0  0  0  0  0  0  0  0  0  0
    1.5260    4.8090    2.0021 C   0  0  0  0  0  0  0  0  0  0  0  0
    2.6757    4.8436    1.2233 C   0  0  0  0  0  0  0  0  0  0  0  0
    3.9090    5.5501    1.7063 C   0  0  0  0  0  0  0  0  0  0  0  0
    3.8692    7.0255    1.3026 C   0  0  0  0  0  0  0  0  0  0  0  0
    2.6402    4.2501   -0.0311 C   0  0  0  0  0  0  0  0  0  0  0  0
    1.4904    3.6392   -0.4966 C   0  0  0  0  0  0  0  0  0  0  0  0
   -2.1713    3.6663    0.2360 C   0  0  0  0  0  0  0  0  0  0  0  0
   -2.2432    5.0390    0.0299 C   0  0  0  0  0  0  0  0  0  0  0  0
   -3.3876    5.7379    0.3599 C   0  0  0  0  0  0  0  0  0  0  0  0
   -4.4903    5.0857    0.8981 C   0  0  0  0  0  0  0  0  0  0  0  0
   -5.7165    5.8531    1.2993 C   0  0  0  0  0  0  0  0  0  0  0  0
   -5.6043    6.3151    2.7537 C   0  0  0  0  0  0  0  0  0  0  0  0
   -4.4129    3.7143    1.0974 C   0  0  0  0  0  0  0  0  0  0  0  0
   -3.2707    3.0075    0.7654 C   0  0  0  0  0  0  0  0  0  0  0  0
   -1.0064    2.7677   -1.6945 C   0  0  0  0  0  0  0  0  0  0  0  0
   -1.1495    1.4315   -2.0357 C   0  0  0  0  0  0  0  0  0  0  0  0
   -1.0765    0.6077   -0.8710 C   0  0  0  0  0  0  0  0  0  0  0  0
   -1.0901   -0.7784   -0.7339 C   0  0  0  0  0  0  0  0  0  0  0  0
   -0.8748   -1.2891    0.5239 C   0  0  0  0  0  0  0  0  0  0  0  0
   -0.7894   -2.7499    0.9588 C   0  0  0  0  0  0  0  0  0  0  0  0
   -2.1950   -3.3344    0.9686 C   0  0  0  0  0  0  0  0  0  0  0  0
   -2.8048   -3.7567    2.1423 C   0  0  0  0  0  0  0  0  0  0  0  0
   -4.0894   -4.2706    2.1276 C   0  0  0  0  0  0  0  0  0  0  0  0
   -4.8070   -4.3731    0.9450 C   0  0  0  0  0  0  0  0  0  0  0  0
   -6.1835   -4.9709    0.9268 C   0  0  0  0  0  0  0  0  0  0  0  0
   -6.1056   -6.4868    0.7338 C   0  0  0  0  0  0  0  0  0  0  0  0
   -4.1961   -3.9499   -0.2286 C   0  0  0  0  0  0  0  0  0  0  0  0
   -2.9136   -3.4372   -0.2182 C   0  0  0  0  0  0  0  0  0  0  0  0
    0.1815   -3.5179    0.0802 C   0  0  0  0  0  0  0  0  0  0  0  0
    1.4493   -2.9816   -0.1205 C   0  0  0  0  0  0  0  0  0  0  0  0
    2.3785   -3.6410   -0.9009 C   0  0  0  0  0  0  0  0  0  0  0  0
    2.0697   -4.8540   -1.5049 C   0  0  0  0  0  0  0  0  0  0  0  0
    3.0928   -5.5926   -2.3172 C   0  0  0  0  0  0  0  0  0  0  0  0
    3.8907   -6.5494   -1.4287 C   0  0  0  0  0  0  0  0  0  0  0  0
    0.8070   -5.3894   -1.2951 C   0  0  0  0  0  0  0  0  0  0  0  0
   -0.1268   -4.7341   -0.5118 C   0  0  0  0  0  0  0  0  0  0  0  0
   -0.2412   -2.5902    2.3584 C   0  0  0  0  0  0  0  0  0  0  0  0
    0.2619   -3.3914    3.3870 C   0  0  0  0  0  0  0  0  0  0  0  0
    0.5004   -4.7135    3.6367 N   0  0  0  0  0  0  0  0  0  0  0  0
    1.0731   -4.7972    4.8804 C   0  0  0  0  0  0  0  0  0  0  0  0
    1.5800   -5.8047    5.6818 C   0  0  0  0  0  0  0  0  0  0  0  0
    0.3358   -5.8245    2.7335 C   0  0  0  0  0  0  0  0  0  0  0  0
    1.6587   -6.2120    2.0786 C   0  0  0  0  0  0  0  0  0  0  0  0
   -1.2757    1.1404   -3.7360 S   0  0  0  0  0  0  0  0  0  0  0  0
   -1.1050    2.8509   -4.0202 C   0  0  0  0  0  0  0  0  0  0  0  0
   -1.0137    3.6161   -5.1707 C   0  0  0  0  0  0  0  0  0  0  0  0
   -0.8183    4.9609   -4.8859 C   0  0  0  0  0  0  0  0  0  0  0  0
   -0.7892    5.2598   -3.1386 S   0  0  0  0  0  0  0  0  0  0  0  0
   -0.9891    3.5859   -2.8191 C   0  0  0  0  0  0  0  0  0  0  0  0
   -0.6323    6.0897   -5.7001 C   0  0  0  0  0  0  0  0  0  0  0  0
   -0.4230    6.2134   -7.0507 C   0  0  0  0  0  0  0  0  0  0  0  0
   -0.2149    5.1443   -8.0506 C   0  0  0  0  0  0  0  0  0  0  0  0
   -0.3940    3.9481   -7.9428 O   0  0  0  0  0  0  0  0  0  0  0  0
    0.2858    5.8239   -9.2628 C   0  0  0  0  0  0  0  0  0  0  0  0
    0.7070    5.2628  -10.4332 C   0  0  0  0  0  0  0  0  0  0  0  0
    1.1818    6.1035  -11.4642 C   0  0  0  0  0  0  0  0  0  0  0  0
    1.6399    5.5780  -12.6878 C   0  0  0  0  0  0  0  0  0  0  0  0
    2.1039    6.4139  -13.6644 C   0  0  0  0  0  0  0  0  0  0  0  0
    2.5430    5.9119  -14.8274 F   0  0  0  0  0  0  0  0  0  0  0  0
    2.1282    7.8081  -13.4615 C   0  0  0  0  0  0  0  0  0  0  0  0
    2.5897    8.6030  -14.4367 F   0  0  0  0  0  0  0  0  0  0  0  0
    1.6886    8.3477  -12.2854 C   0  0  0  0  0  0  0  0  0  0  0  0
    1.2053    7.5132  -11.2576 C   0  0  0  0  0  0  0  0  0  0  0  0
    0.7528    8.0637  -10.0363 C   0  0  0  0  0  0  0  0  0  0  0  0
    0.2974    7.2287   -9.0503 C   0  0  0  0  0  0  0  0  0  0  0  0
   -0.2120    7.4924   -7.7073 C   0  0  0  0  0  0  0  0  0  0  0  0
   -0.4913    8.7380   -7.2065 C   0  0  0  0  0  0  0  0  0  0  0  0
   -0.2682    9.9374   -7.9150 C   0  0  0  0  0  0  0  0  0  0  0  0
   -0.1068   10.9487   -8.4340 N   0  0  0  0  0  0  0  0  0  0  0  0
   -1.0733    9.0160   -5.9514 C   0  0  0  0  0  0  0  0  0  0  0  0
   -1.5608    9.3320   -4.9604 N   0  0  0  0  0  0  0  0  0  0  0  0
    2.8545   -5.2553    8.8082 H   0  0  0  0  0  0  0  0  0  0  0  0
    4.1602  -10.8740    6.3018 H   0  0  0  0  0  0  0  0  0  0  0  0
    5.2978   -9.6209   10.9896 H   0  0  0  0  0  0  0  0  0  0  0  0
   -0.4391    1.5969    2.3340 H   0  0  0  0  0  0  0  0  0  0  0  0
   -0.5137    4.1959    2.1570 H   0  0  0  0  0  0  0  0  0  0  0  0
    1.5336    5.2605    2.9838 H   0  0  0  0  0  0  0  0  0  0  0  0
    4.7969    5.0829    1.2758 H   0  0  0  0  0  0  0  0  0  0  0  0
    3.9763    5.4764    2.7935 H   0  0  0  0  0  0  0  0  0  0  0  0
    2.9983    7.5127    1.7351 H   0  0  0  0  0  0  0  0  0  0  0  0
    3.8113    7.1205    0.2206 H   0  0  0  0  0  0  0  0  0  0  0  0
    4.7628    7.5389    1.6494 H   0  0  0  0  0  0  0  0  0  0  0  0
    3.5246    4.2619   -0.6520 H   0  0  0  0  0  0  0  0  0  0  0  0
    1.4920    3.1746   -1.4723 H   0  0  0  0  0  0  0  0  0  0  0  0
   -1.3946    5.5622   -0.3869 H   0  0  0  0  0  0  0  0  0  0  0  0
   -3.4266    6.8042    0.1913 H   0  0  0  0  0  0  0  0  0  0  0  0
   -6.6009    5.2222    1.1896 H   0  0  0  0  0  0  0  0  0  0  0  0
   -5.8352    6.7249    0.6532 H   0  0  0  0  0  0  0  0  0  0  0  0
   -5.4954    5.4587    3.4156 H   0  0  0  0  0  0  0  0  0  0  0  0
   -4.7360    6.9579    2.8801 H   0  0  0  0  0  0  0  0  0  0  0  0
   -6.4927    6.8696    3.0462 H   0  0  0  0  0  0  0  0  0  0  0  0
   -5.2599    3.1869    1.5127 H   0  0  0  0  0  0  0  0  0  0  0  0
   -3.2396    1.9390    0.9221 H   0  0  0  0  0  0  0  0  0  0  0  0
   -1.2169   -1.4051   -1.6025 H   0  0  0  0  0  0  0  0  0  0  0  0
   -2.2847   -3.6860    3.0857 H   0  0  0  0  0  0  0  0  0  0  0  0
   -4.5404   -4.5920    3.0556 H   0  0  0  0  0  0  0  0  0  0  0  0
   -6.6933   -4.7541    1.8676 H   0  0  0  0  0  0  0  0  0  0  0  0
   -6.7658   -4.5341    0.1132 H   0  0  0  0  0  0  0  0  0  0  0  0
   -5.6117   -6.7243   -0.2058 H   0  0  0  0  0  0  0  0  0  0  0  0
   -7.1029   -6.9196    0.7206 H   0  0  0  0  0  0  0  0  0  0  0  0
   -5.5399   -6.9433    1.5431 H   0  0  0  0  0  0  0  0  0  0  0  0
   -4.7324   -4.0191   -1.1641 H   0  0  0  0  0  0  0  0  0  0  0  0
   -2.4655   -3.1243   -1.1479 H   0  0  0  0  0  0  0  0  0  0  0  0
    1.7055   -2.0364    0.3375 H   0  0  0  0  0  0  0  0  0  0  0  0
    3.3567   -3.2058   -1.0469 H   0  0  0  0  0  0  0  0  0  0  0  0
    2.5981   -6.1629   -3.1058 H   0  0  0  0  0  0  0  0  0  0  0  0
    3.7764   -4.8823   -2.7859 H   0  0  0  0  0  0  0  0  0  0  0  0
    3.2304   -7.2830   -0.9718 H   0  0  0  0  0  0  0  0  0  0  0  0
    4.3924   -6.0007   -0.6347 H   0  0  0  0  0  0  0  0  0  0  0  0
    4.6404   -7.0749   -2.0148 H   0  0  0  0  0  0  0  0  0  0  0  0
    0.5451   -6.3325   -1.7529 H   0  0  0  0  0  0  0  0  0  0  0  0
   -1.1013   -5.1788   -0.3720 H   0  0  0  0  0  0  0  0  0  0  0  0
    1.6178   -6.8484    5.4337 H   0  0  0  0  0  0  0  0  0  0  0  0
   -0.3940   -5.5380    1.9746 H   0  0  0  0  0  0  0  0  0  0  0  0
   -0.0592   -6.6708    3.3035 H   0  0  0  0  0  0  0  0  0  0  0  0
    2.0700   -5.3687    1.5291 H   0  0  0  0  0  0  0  0  0  0  0  0
    1.4977   -7.0311    1.3843 H   0  0  0  0  0  0  0  0  0  0  0  0
    2.3765   -6.5277    2.8316 H   0  0  0  0  0  0  0  0  0  0  0  0
   -1.0667    3.2336   -6.1729 H   0  0  0  0  0  0  0  0  0  0  0  0
   -0.6026    7.0135   -5.1333 H   0  0  0  0  0  0  0  0  0  0  0  0
    0.6838    4.1919  -10.5675 H   0  0  0  0  0  0  0  0  0  0  0  0
    1.6281    4.5128  -12.8582 H   0  0  0  0  0  0  0  0  0  0  0  0
    1.7131    9.4173  -12.1468 H   0  0  0  0  0  0  0  0  0  0  0  0
    0.7882    9.1335   -9.9107 H   0  0  0  0  0  0  0  0  0  0  0  0
  1  2  2  0  0  0  0
  2  3  1  0  0  0  0
  3  4  2  0  0  0  0
  3  5  1  0  0  0  0
  5  6  2  0  0  0  0
  6  7  1  0  0  0  0
  7  8  1  0  0  0  0
  7  9  2  0  0  0  0
  9 10  1  0  0  0  0
  9 11  1  0  0  0  0
 11 12  2  0  0  0  0
 12 13  1  0  0  0  0
 13 14  2  0  0  0  0
 14 15  1  0  0  0  0
 15 16  3  0  0  0  0
 14 17  1  0  0  0  0
 17 18  3  0  0  0  0
  1 19  1  0  0  0  0
 19 20  1  0  0  0  0
 20 21  1  0  0  0  0
 21 22  1  0  0  0  0
 22 23  1  0  0  0  0
 23 24  1  0  0  0  0
 24 25  1  0  0  0  0
 25 26  2  0  0  0  0
 26 27  1  0  0  0  0
 27 28  1  0  0  0  0
 28 29  1  0  0  0  0
 29 30  2  0  0  0  0
 30 31  1  0  0  0  0
 31 32  2  0  0  0  0
 32 33  1  0  0  0  0
 33 34  1  0  0  0  0
 32 35  1  0  0  0  0
 35 36  2  0  0  0  0
 28 37  1  0  0  0  0
 37 38  2  0  0  0  0
 38 39  1  0  0  0  0
 39 40  2  0  0  0  0
 40 41  1  0  0  0  0
 41 42  1  0  0  0  0
 40 43  1  0  0  0  0
 43 44  2  0  0  0  0
 28 45  1  0  0  0  0
 45 46  2  0  0  0  0
 46 47  1  0  0  0  0
 47 48  1  0  0  0  0
 48 49  2  0  0  0  0
 49 50  1  0  0  0  0
 50 51  1  0  0  0  0
 51 52  2  0  0  0  0
 52 53  1  0  0  0  0
 53 54  2  0  0  0  0
 54 55  1  0  0  0  0
 55 56  1  0  0  0  0
 54 57  1  0  0  0  0
 57 58  2  0  0  0  0
 50 59  1  0  0  0  0
 59 60  2  0  0  0  0
 60 61  1  0  0  0  0
 61 62  2  0  0  0  0
 62 63  1  0  0  0  0
 63 64  1  0  0  0  0
 62 65  1  0  0  0  0
 65 66  2  0  0  0  0
 50 67  1  0  0  0  0
 67 68  1  0  0  0  0
 68 69  1  0  0  0  0
 69 70  1  0  0  0  0
 70 71  1  0  0  0  0
 69 72  1  0  0  0  0
 72 73  1  0  0  0  0
 46 74  1  0  0  0  0
 74 75  1  0  0  0  0
 75 76  1  0  0  0  0
 76 77  2  0  0  0  0
 77 78  1  0  0  0  0
 78 79  1  0  0  0  0
 77 80  1  0  0  0  0
 80 81  2  0  0  0  0
 81 82  1  0  0  0  0
 82 83  2  0  0  0  0
 82 84  1  0  0  0  0
 84 85  2  0  0  0  0
 85 86  1  0  0  0  0
 86 87  2  0  0  0  0
 87 88  1  0  0  0  0
 88 89  1  0  0  0  0
 88 90  2  0  0  0  0
 90 91  1  0  0  0  0
 90 92  1  0  0  0  0
 92 93  2  0  0  0  0
 93 94  1  0  0  0  0
 94 95  2  0  0  0  0
 95 96  1  0  0  0  0
 96 97  2  0  0  0  0
 97 98  1  0  0  0  0
 98 99  3  0  0  0  0
 97100  1  0  0  0  0
100101  3  0  0  0  0
 13  2  1  0  0  0  0
 71 19  2  0  0  0  0
 79 75  2  0  0  0  0
 96 81  1  0  0  0  0
 12  5  1  0  0  0  0
 70 21  2  0  0  0  0
 95 84  1  0  0  0  0
 68 22  2  0  0  0  0
 93 86  1  0  0  0  0
 67 24  2  0  0  0  0
 49 25  1  0  0  0  0
 58 51  1  0  0  0  0
 66 59  1  0  0  0  0
 47 27  2  0  0  0  0
 36 29  1  0  0  0  0
 44 37  1  0  0  0  0
 79 45  1  0  0  0  0
  1102  1  0  0  0  0
  6103  1  0  0  0  0
 11104  1  0  0  0  0
 26105  1  0  0  0  0
 30106  1  0  0  0  0
 31107  1  0  0  0  0
 33108  1  0  0  0  0
 33109  1  0  0  0  0
 34110  1  0  0  0  0
 34111  1  0  0  0  0
 34112  1  0  0  0  0
 35113  1  0  0  0  0
 36114  1  0  0  0  0
 38115  1  0  0  0  0
 39116  1  0  0  0  0
 41117  1  0  0  0  0
 41118  1  0  0  0  0
 42119  1  0  0  0  0
 42120  1  0  0  0  0
 42121  1  0  0  0  0
 43122  1  0  0  0  0
 44123  1  0  0  0  0
 48124  1  0  0  0  0
 52125  1  0  0  0  0
 53126  1  0  0  0  0
 55127  1  0  0  0  0
 55128  1  0  0  0  0
 56129  1  0  0  0  0
 56130  1  0  0  0  0
 56131  1  0  0  0  0
 57132  1  0  0  0  0
 58133  1  0  0  0  0
 60134  1  0  0  0  0
 61135  1  0  0  0  0
 63136  1  0  0  0  0
 63137  1  0  0  0  0
 64138  1  0  0  0  0
 64139  1  0  0  0  0
 64140  1  0  0  0  0
 65141  1  0  0  0  0
 66142  1  0  0  0  0
 71143  1  0  0  0  0
 72144  1  0  0  0  0
 72145  1  0  0  0  0
 73146  1  0  0  0  0
 73147  1  0  0  0  0
 73148  1  0  0  0  0
 76149  1  0  0  0  0
 80150  1  0  0  0  0
 85151  1  0  0  0  0
 87152  1  0  0  0  0
 92153  1  0  0  0  0
 94154  1  0  0  0  0
M  END
