118

C         -0.51090        2.16340       -3.29130
C         -0.72830        1.46560       -4.44470
C         -0.85850        0.00670       -4.67510
O         -0.57000       -0.92430       -3.95540
C         -1.42840       -0.12930       -6.03550
C         -1.81010       -1.29000       -6.67980
C         -2.33660       -1.17250       -7.95510
F         -2.72270       -2.26960       -8.61810
C         -2.47100        0.08040       -8.55540
F         -2.99210        0.16470       -9.78460
C         -2.07900        1.24390       -7.91140
C         -1.54830        1.13340       -6.63470
C         -1.03620        2.13640       -5.70450
C         -0.81740        3.45040       -6.01460
C         -1.14840        4.02800       -7.26050
N         -1.40200        4.56020       -8.24500
C         -0.18930        4.41750       -5.19670
N          0.33490        5.28020       -4.64960
C         -0.23570        1.77900       -1.94560
C          0.09540        0.51020       -1.50600
C          0.38040        0.24240       -0.15990
C          0.32540        1.25130        0.82260
C         -0.01210        2.57410        0.39850
C         -0.25230        2.84360       -0.97190
N         -0.42120        4.10540       -1.37480
C         -0.43270        5.08150       -0.48760
C         -0.37570        6.41600       -1.02930
C         -0.88070        6.83290       -2.23270
C         -0.55780        8.16530       -2.53380
C          0.21630        8.76370       -1.58320
C          0.80330       10.13210       -1.59670
C          2.28830       10.08690       -1.96510
S          0.54460        7.68350       -0.27330
C         -0.43970        4.76890        0.91200
C         -0.77920        5.70490        1.95460
C         -0.39110        5.63240        3.26610
C         -0.95080        6.64140        4.06800
C         -1.79160        7.47100        3.38620
C         -2.57760        8.64210        3.87200
C         -2.39290        8.91590        5.35970
S         -1.89050        7.02210        1.71530
N         -0.16980        3.54060        1.30870
C          0.55310        0.95240        2.17850
C          0.80270       -0.33100        2.60080
C          0.92590       -1.37170        1.62130
N          1.19890       -2.62550        1.99980
C          1.27260       -3.58640        1.10460
C          1.44630       -4.91960        1.63420
C          0.82260       -6.08440        1.28280
C          1.16820       -7.16230        2.11790
C          2.04580       -6.82630        3.10550
C          2.67500       -7.71320        4.12310
C          4.13150       -8.01450        3.76270
S          2.45520       -5.14530        3.03240
C          1.17180       -3.27240       -0.29050
N          0.88650       -2.03950       -0.66220
C          0.72760       -1.08400        0.25240
C          1.44320       -4.17800       -1.37780
C          1.07570       -3.96250       -2.68360
C          1.55890       -4.94590       -3.56010
C          2.31440       -5.90050       -2.94260
C          3.02770       -7.05420       -3.55720
C          4.53450       -6.79520       -3.62970
S          2.42540       -5.60720       -1.24030
C          0.99830       -0.68330        3.98830
C          0.53260       -1.84550        4.49640
C         -0.45920       -2.71480        3.78880
O         -1.29860       -2.36790        2.99180
C         -0.34890       -4.02810        4.46370
C         -0.91050       -5.25120        4.14800
F         -1.66380       -5.40120        3.05310
C         -0.67820       -6.35360        4.95950
C          0.10780       -6.21620        6.09150
C          0.67660       -4.99740        6.43500
C          0.44600       -3.90060        5.61870
C          0.91380       -2.51950        5.72530
C          1.57620       -1.97160        6.78730
C          1.93270       -2.67830        7.95580
N          2.24720       -3.20050        8.92810
C          1.94900       -0.61190        6.87150
N          2.26570        0.48320        7.00300
H         -0.59790        3.24300       -3.36900
H         -1.70710       -2.25460       -6.20890
H         -2.20550        2.18590       -8.41890
H          0.15560       -0.31740       -2.19310
H         -1.47570        6.19690       -2.86050
H         -0.87800        8.66480       -3.43050
H          0.26310       10.73980       -2.32550
H          0.69170       10.59270       -0.61240
H          2.70190       11.09190       -1.98760
H          2.83920        9.49890       -1.23460
H          2.41970        9.63240       -2.94420
H          0.29120        4.88300        3.62250
H         -0.73760        6.74030        5.11640
H         -2.28200        9.52610        3.29810
H         -3.63740        8.46780        3.66100
H         -1.35000        9.12450        5.58480
H         -2.98630        9.77870        5.65190
H         -2.71480        8.06190        5.95020
H          0.45690        1.75600        2.89250
H          0.11440       -6.15470        0.47720
H          0.77560       -8.15570        1.99190
H          2.64080       -7.23090        5.10280
H          2.10920       -8.64550        4.17720
H          4.18750       -8.50360        2.79320
H          4.70430       -7.09140        3.71800
H          4.57750       -8.66620        4.50940
H          0.47420       -3.12170       -2.97780
H          1.36070       -4.95050       -4.61730
H          2.84850       -7.95590       -2.96680
H          2.63410       -7.21670       -4.56270
H          4.73710       -5.90470       -4.22020
H          5.03990       -7.64050       -4.08960
H          4.93960       -6.64750       -2.63120
H          1.61680       -0.02150        4.57930
H         -1.11620       -7.30290        4.69530
H          0.28010       -7.07620        6.72030
H          1.28700       -4.91980        7.31950
