
  xtb     02022202163D
 energy: -214.467255061255 gnorm: 0.000530405476 xtb: 6.4.1 (unknown)
118129  0     0  0            999 V2000
   -0.5109    2.1634   -3.2913 C   0  0  0  0  0  0  0  0  0  0  0  0
   -0.7283    1.4656   -4.4447 C   0  0  0  0  0  0  0  0  0  0  0  0
   -0.8585    0.0067   -4.6751 C   0  0  0  0  0  0  0  0  0  0  0  0
   -0.5700   -0.9243   -3.9554 O   0  0  0  0  0  0  0  0  0  0  0  0
   -1.4284   -0.1293   -6.0355 C   0  0  0  0  0  0  0  0  0  0  0  0
   -1.8101   -1.2900   -6.6798 C   0  0  0  0  0  0  0  0  0  0  0  0
   -2.3366   -1.1725   -7.9551 C   0  0  0  0  0  0  0  0  0  0  0  0
   -2.7227   -2.2696   -8.6181 F   0  0  0  0  0  0  0  0  0  0  0  0
   -2.4710    0.0804   -8.5554 C   0  0  0  0  0  0  0  0  0  0  0  0
   -2.9921    0.1647   -9.7846 F   0  0  0  0  0  0  0  0  0  0  0  0
   -2.0790    1.2439   -7.9114 C   0  0  0  0  0  0  0  0  0  0  0  0
   -1.5483    1.1334   -6.6347 C   0  0  0  0  0  0  0  0  0  0  0  0
   -1.0362    2.1364   -5.7045 C   0  0  0  0  0  0  0  0  0  0  0  0
   -0.8174    3.4504   -6.0146 C   0  0  0  0  0  0  0  0  0  0  0  0
   -1.1484    4.0280   -7.2605 C   0  0  0  0  0  0  0  0  0  0  0  0
   -1.4020    4.5602   -8.2450 N   0  0  0  0  0  0  0  0  0  0  0  0
   -0.1893    4.4175   -5.1967 C   0  0  0  0  0  0  0  0  0  0  0  0
    0.3349    5.2802   -4.6496 N   0  0  0  0  0  0  0  0  0  0  0  0
   -0.2357    1.7790   -1.9456 C   0  0  0  0  0  0  0  0  0  0  0  0
    0.0954    0.5102   -1.5060 C   0  0  0  0  0  0  0  0  0  0  0  0
    0.3804    0.2424   -0.1599 C   0  0  0  0  0  0  0  0  0  0  0  0
    0.3254    1.2513    0.8226 C   0  0  0  0  0  0  0  0  0  0  0  0
   -0.0121    2.5741    0.3985 C   0  0  0  0  0  0  0  0  0  0  0  0
   -0.2523    2.8436   -0.9719 C   0  0  0  0  0  0  0  0  0  0  0  0
   -0.4212    4.1054   -1.3748 N   0  0  0  0  0  0  0  0  0  0  0  0
   -0.4327    5.0815   -0.4876 C   0  0  0  0  0  0  0  0  0  0  0  0
   -0.3757    6.4160   -1.0293 C   0  0  0  0  0  0  0  0  0  0  0  0
   -0.8807    6.8329   -2.2327 C   0  0  0  0  0  0  0  0  0  0  0  0
   -0.5578    8.1653   -2.5338 C   0  0  0  0  0  0  0  0  0  0  0  0
    0.2163    8.7637   -1.5832 C   0  0  0  0  0  0  0  0  0  0  0  0
    0.8033   10.1321   -1.5967 C   0  0  0  0  0  0  0  0  0  0  0  0
    2.2883   10.0869   -1.9651 C   0  0  0  0  0  0  0  0  0  0  0  0
    0.5446    7.6835   -0.2733 S   0  0  0  0  0  0  0  0  0  0  0  0
   -0.4397    4.7689    0.9120 C   0  0  0  0  0  0  0  0  0  0  0  0
   -0.7792    5.7049    1.9546 C   0  0  0  0  0  0  0  0  0  0  0  0
   -0.3911    5.6324    3.2661 C   0  0  0  0  0  0  0  0  0  0  0  0
   -0.9508    6.6414    4.0680 C   0  0  0  0  0  0  0  0  0  0  0  0
   -1.7916    7.4710    3.3862 C   0  0  0  0  0  0  0  0  0  0  0  0
   -2.5776    8.6421    3.8720 C   0  0  0  0  0  0  0  0  0  0  0  0
   -2.3929    8.9159    5.3597 C   0  0  0  0  0  0  0  0  0  0  0  0
   -1.8905    7.0221    1.7153 S   0  0  0  0  0  0  0  0  0  0  0  0
   -0.1698    3.5406    1.3087 N   0  0  0  0  0  0  0  0  0  0  0  0
    0.5531    0.9524    2.1785 C   0  0  0  0  0  0  0  0  0  0  0  0
    0.8027   -0.3310    2.6008 C   0  0  0  0  0  0  0  0  0  0  0  0
    0.9259   -1.3717    1.6213 C   0  0  0  0  0  0  0  0  0  0  0  0
    1.1989   -2.6255    1.9998 N   0  0  0  0  0  0  0  0  0  0  0  0
    1.2726   -3.5864    1.1046 C   0  0  0  0  0  0  0  0  0  0  0  0
    1.4463   -4.9196    1.6342 C   0  0  0  0  0  0  0  0  0  0  0  0
    0.8226   -6.0844    1.2828 C   0  0  0  0  0  0  0  0  0  0  0  0
    1.1682   -7.1623    2.1179 C   0  0  0  0  0  0  0  0  0  0  0  0
    2.0458   -6.8263    3.1055 C   0  0  0  0  0  0  0  0  0  0  0  0
    2.6750   -7.7132    4.1231 C   0  0  0  0  0  0  0  0  0  0  0  0
    4.1315   -8.0145    3.7627 C   0  0  0  0  0  0  0  0  0  0  0  0
    2.4552   -5.1453    3.0324 S   0  0  0  0  0  0  0  0  0  0  0  0
    1.1718   -3.2724   -0.2905 C   0  0  0  0  0  0  0  0  0  0  0  0
    0.8865   -2.0395   -0.6622 N   0  0  0  0  0  0  0  0  0  0  0  0
    0.7276   -1.0840    0.2524 C   0  0  0  0  0  0  0  0  0  0  0  0
    1.4432   -4.1780   -1.3778 C   0  0  0  0  0  0  0  0  0  0  0  0
    1.0757   -3.9625   -2.6836 C   0  0  0  0  0  0  0  0  0  0  0  0
    1.5589   -4.9459   -3.5601 C   0  0  0  0  0  0  0  0  0  0  0  0
    2.3144   -5.9005   -2.9426 C   0  0  0  0  0  0  0  0  0  0  0  0
    3.0277   -7.0542   -3.5572 C   0  0  0  0  0  0  0  0  0  0  0  0
    4.5345   -6.7952   -3.6297 C   0  0  0  0  0  0  0  0  0  0  0  0
    2.4254   -5.6072   -1.2403 S   0  0  0  0  0  0  0  0  0  0  0  0
    0.9983   -0.6833    3.9883 C   0  0  0  0  0  0  0  0  0  0  0  0
    0.5326   -1.8455    4.4964 C   0  0  0  0  0  0  0  0  0  0  0  0
   -0.4592   -2.7148    3.7888 C   0  0  0  0  0  0  0  0  0  0  0  0
   -1.2986   -2.3679    2.9918 O   0  0  0  0  0  0  0  0  0  0  0  0
   -0.3489   -4.0281    4.4637 C   0  0  0  0  0  0  0  0  0  0  0  0
   -0.9105   -5.2512    4.1480 C   0  0  0  0  0  0  0  0  0  0  0  0
   -1.6638   -5.4012    3.0531 F   0  0  0  0  0  0  0  0  0  0  0  0
   -0.6782   -6.3536    4.9595 C   0  0  0  0  0  0  0  0  0  0  0  0
    0.1078   -6.2162    6.0915 C   0  0  0  0  0  0  0  0  0  0  0  0
    0.6766   -4.9974    6.4350 C   0  0  0  0  0  0  0  0  0  0  0  0
    0.4460   -3.9006    5.6187 C   0  0  0  0  0  0  0  0  0  0  0  0
    0.9138   -2.5195    5.7253 C   0  0  0  0  0  0  0  0  0  0  0  0
    1.5762   -1.9716    6.7873 C   0  0  0  0  0  0  0  0  0  0  0  0
    1.9327   -2.6783    7.9558 C   0  0  0  0  0  0  0  0  0  0  0  0
    2.2472   -3.2005    8.9281 N   0  0  0  0  0  0  0  0  0  0  0  0
    1.9490   -0.6119    6.8715 C   0  0  0  0  0  0  0  0  0  0  0  0
    2.2657    0.4832    7.0030 N   0  0  0  0  0  0  0  0  0  0  0  0
   -0.5979    3.2430   -3.3690 H   0  0  0  0  0  0  0  0  0  0  0  0
   -1.7071   -2.2546   -6.2089 H   0  0  0  0  0  0  0  0  0  0  0  0
   -2.2055    2.1859   -8.4189 H   0  0  0  0  0  0  0  0  0  0  0  0
    0.1556   -0.3174   -2.1931 H   0  0  0  0  0  0  0  0  0  0  0  0
   -1.4757    6.1969   -2.8605 H   0  0  0  0  0  0  0  0  0  0  0  0
   -0.8780    8.6648   -3.4305 H   0  0  0  0  0  0  0  0  0  0  0  0
    0.2631   10.7398   -2.3255 H   0  0  0  0  0  0  0  0  0  0  0  0
    0.6917   10.5927   -0.6124 H   0  0  0  0  0  0  0  0  0  0  0  0
    2.7019   11.0919   -1.9876 H   0  0  0  0  0  0  0  0  0  0  0  0
    2.8392    9.4989   -1.2346 H   0  0  0  0  0  0  0  0  0  0  0  0
    2.4197    9.6324   -2.9442 H   0  0  0  0  0  0  0  0  0  0  0  0
    0.2912    4.8830    3.6225 H   0  0  0  0  0  0  0  0  0  0  0  0
   -0.7376    6.7403    5.1164 H   0  0  0  0  0  0  0  0  0  0  0  0
   -2.2820    9.5261    3.2981 H   0  0  0  0  0  0  0  0  0  0  0  0
   -3.6374    8.4678    3.6610 H   0  0  0  0  0  0  0  0  0  0  0  0
   -1.3500    9.1245    5.5848 H   0  0  0  0  0  0  0  0  0  0  0  0
   -2.9863    9.7787    5.6519 H   0  0  0  0  0  0  0  0  0  0  0  0
   -2.7148    8.0619    5.9502 H   0  0  0  0  0  0  0  0  0  0  0  0
    0.4569    1.7560    2.8925 H   0  0  0  0  0  0  0  0  0  0  0  0
    0.1144   -6.1547    0.4772 H   0  0  0  0  0  0  0  0  0  0  0  0
    0.7756   -8.1557    1.9919 H   0  0  0  0  0  0  0  0  0  0  0  0
    2.6408   -7.2309    5.1028 H   0  0  0  0  0  0  0  0  0  0  0  0
    2.1092   -8.6455    4.1772 H   0  0  0  0  0  0  0  0  0  0  0  0
    4.1875   -8.5036    2.7932 H   0  0  0  0  0  0  0  0  0  0  0  0
    4.7043   -7.0914    3.7180 H   0  0  0  0  0  0  0  0  0  0  0  0
    4.5775   -8.6662    4.5094 H   0  0  0  0  0  0  0  0  0  0  0  0
    0.4742   -3.1217   -2.9778 H   0  0  0  0  0  0  0  0  0  0  0  0
    1.3607   -4.9505   -4.6173 H   0  0  0  0  0  0  0  0  0  0  0  0
    2.8485   -7.9559   -2.9668 H   0  0  0  0  0  0  0  0  0  0  0  0
    2.6341   -7.2167   -4.5627 H   0  0  0  0  0  0  0  0  0  0  0  0
    4.7371   -5.9047   -4.2202 H   0  0  0  0  0  0  0  0  0  0  0  0
    5.0399   -7.6405   -4.0896 H   0  0  0  0  0  0  0  0  0  0  0  0
    4.9396   -6.6475   -2.6312 H   0  0  0  0  0  0  0  0  0  0  0  0
    1.6168   -0.0215    4.5793 H   0  0  0  0  0  0  0  0  0  0  0  0
   -1.1162   -7.3029    4.6953 H   0  0  0  0  0  0  0  0  0  0  0  0
    0.2801   -7.0762    6.7203 H   0  0  0  0  0  0  0  0  0  0  0  0
    1.2870   -4.9198    7.3195 H   0  0  0  0  0  0  0  0  0  0  0  0
  1  2  2  0  0  0  0
  2  3  1  0  0  0  0
  3  4  2  0  0  0  0
  3  5  1  0  0  0  0
  5  6  2  0  0  0  0
  6  7  1  0  0  0  0
  7  8  1  0  0  0  0
  7  9  2  0  0  0  0
  9 10  1  0  0  0  0
  9 11  1  0  0  0  0
 11 12  2  0  0  0  0
 12 13  1  0  0  0  0
 13 14  2  0  0  0  0
 14 15  1  0  0  0  0
 15 16  3  0  0  0  0
 14 17  1  0  0  0  0
 17 18  3  0  0  0  0
  1 19  1  0  0  0  0
 19 20  2  0  0  0  0
 20 21  1  0  0  0  0
 21 22  2  0  0  0  0
 22 23  1  0  0  0  0
 23 24  2  0  0  0  0
 24 25  1  0  0  0  0
 25 26  2  0  0  0  0
 26 27  1  0  0  0  0
 27 28  2  0  0  0  0
 28 29  1  0  0  0  0
 29 30  2  0  0  0  0
 30 31  1  0  0  0  0
 31 32  1  0  0  0  0
 30 33  1  0  0  0  0
 26 34  1  0  0  0  0
 34 35  1  0  0  0  0
 35 36  2  0  0  0  0
 36 37  1  0  0  0  0
 37 38  2  0  0  0  0
 38 39  1  0  0  0  0
 39 40  1  0  0  0  0
 38 41  1  0  0  0  0
 34 42  2  0  0  0  0
 22 43  1  0  0  0  0
 43 44  2  0  0  0  0
 44 45  1  0  0  0  0
 45 46  2  0  0  0  0
 46 47  1  0  0  0  0
 47 48  1  0  0  0  0
 48 49  2  0  0  0  0
 49 50  1  0  0  0  0
 50 51  2  0  0  0  0
 51 52  1  0  0  0  0
 52 53  1  0  0  0  0
 51 54  1  0  0  0  0
 47 55  2  0  0  0  0
 55 56  1  0  0  0  0
 56 57  2  0  0  0  0
 55 58  1  0  0  0  0
 58 59  2  0  0  0  0
 59 60  1  0  0  0  0
 60 61  2  0  0  0  0
 61 62  1  0  0  0  0
 62 63  1  0  0  0  0
 61 64  1  0  0  0  0
 44 65  1  0  0  0  0
 65 66  2  0  0  0  0
 66 67  1  0  0  0  0
 67 68  2  0  0  0  0
 67 69  1  0  0  0  0
 69 70  2  0  0  0  0
 70 71  1  0  0  0  0
 70 72  1  0  0  0  0
 72 73  2  0  0  0  0
 73 74  1  0  0  0  0
 74 75  2  0  0  0  0
 75 76  1  0  0  0  0
 76 77  2  0  0  0  0
 77 78  1  0  0  0  0
 78 79  3  0  0  0  0
 77 80  1  0  0  0  0
 80 81  3  0  0  0  0
 13  2  1  0  0  0  0
 24 19  1  0  0  0  0
 33 27  1  0  0  0  0
 41 35  1  0  0  0  0
 57 45  1  0  0  0  0
 64 58  1  0  0  0  0
 76 66  1  0  0  0  0
 12  5  1  0  0  0  0
 57 21  1  0  0  0  0
 75 69  1  0  0  0  0
 42 23  1  0  0  0  0
 54 48  1  0  0  0  0
  1 82  1  0  0  0  0
  6 83  1  0  0  0  0
 11 84  1  0  0  0  0
 20 85  1  0  0  0  0
 28 86  1  0  0  0  0
 29 87  1  0  0  0  0
 31 88  1  0  0  0  0
 31 89  1  0  0  0  0
 32 90  1  0  0  0  0
 32 91  1  0  0  0  0
 32 92  1  0  0  0  0
 36 93  1  0  0  0  0
 37 94  1  0  0  0  0
 39 95  1  0  0  0  0
 39 96  1  0  0  0  0
 40 97  1  0  0  0  0
 40 98  1  0  0  0  0
 40 99  1  0  0  0  0
 43100  1  0  0  0  0
 49101  1  0  0  0  0
 50102  1  0  0  0  0
 52103  1  0  0  0  0
 52104  1  0  0  0  0
 53105  1  0  0  0  0
 53106  1  0  0  0  0
 53107  1  0  0  0  0
 59108  1  0  0  0  0
 60109  1  0  0  0  0
 62110  1  0  0  0  0
 62111  1  0  0  0  0
 63112  1  0  0  0  0
 63113  1  0  0  0  0
 63114  1  0  0  0  0
 65115  1  0  0  0  0
 72116  1  0  0  0  0
 73117  1  0  0  0  0
 74118  1  0  0  0  0
M  END
