105

C          6.07660        2.45300       -3.77860
C          6.88890        3.55770       -3.70560
C          6.85450        4.54010       -2.60450
O          6.26770        4.46290       -1.54600
C          7.59490        5.71910       -3.11420
C          7.80890        6.92940       -2.48600
C          8.51910        7.89700       -3.17910
F          8.75130        9.08510       -2.60670
C          8.99190        7.64740       -4.46740
F          9.66730        8.60370       -5.11520
C          8.77530        6.43180       -5.09980
C          8.06800        5.45940       -4.41130
C          7.67360        4.10380       -4.78900
C          8.06150        3.43560       -5.92110
C          7.75280        2.08420       -6.18470
N          7.55860        0.98270       -6.44380
C          8.85380        4.00230       -6.94030
N          9.49020        4.41790       -7.80030
C          5.43560        1.81350       -2.70360
C          5.85380        1.58460       -1.39290
C          7.21320        1.91250       -0.87640
C          7.87100        0.73900       -0.15390
C          4.87130        0.90210       -0.66600
C          3.70960        0.60320       -1.39890
S          3.85310        1.10380       -3.03880
C          2.73530       -0.00920       -0.60920
C          3.15990       -0.17510        0.71280
S          4.75990        0.39730        1.00760
C          2.08660       -0.73220        1.42290
C          1.97170       -0.99420        2.81230
N          3.00760       -0.80160        3.63780
C          2.81700       -1.01160        4.92310
C          3.98600       -0.79710        5.82580
C          1.55380       -1.42050        5.42220
C          1.32220       -1.64790        6.87890
N          0.53270       -1.62020        4.61610
C          0.72120       -1.42000        3.30600
C         -0.31660       -1.66600        2.37060
C         -1.60690       -2.16960        2.58340
S         -2.61570       -2.65280        3.90070
C         -3.86060       -3.08670        2.74620
C         -5.14560       -3.59470        2.90220
C         -5.75120       -3.86260        4.24190
C         -6.57330       -2.66180        4.71730
C         -5.78810       -3.74730        1.66600
S         -4.75820       -3.27190        0.31720
C         -3.49000       -2.86380        1.40940
C         -2.19850       -2.33530        1.32630
N         -1.32460       -1.94550        0.34580
C         -1.56950       -2.33480       -1.02490
C         -2.53910       -1.39070       -1.73420
C         -0.17030       -1.50070        0.96200
C          1.02860       -0.91780        0.48830
N          1.45090       -0.47130       -0.75550
C          0.67620        0.02440       -1.87240
C          0.05820        1.38280       -1.54670
C         -7.10550       -4.20730        1.52280
C         -7.88240       -4.34050        0.40780
S         -9.54050       -4.91660        0.54120
C         -9.78720       -4.73860       -1.17870
C        -10.99960       -5.05460       -1.74020
C        -11.34830       -4.95690       -3.09720
N        -11.70100       -4.89640       -4.18900
C        -12.03960       -5.52450       -0.91130
N        -12.89010       -5.90550       -0.24250
N         -8.66170       -4.28620       -1.79190
C         -8.54780       -3.99230       -3.20860
C         -9.09310       -2.60780       -3.53810
C         -7.56940       -4.04480       -0.97000
O         -6.50690       -3.64310       -1.41270
H          5.83180        2.06720       -4.76210
H          7.43910        7.12140       -1.49150
H          9.15360        6.28760       -6.09860
H          7.84500        2.22390       -1.71050
H          7.12530        2.76430       -0.19550
H          7.90550       -0.13470       -0.80110
H          8.88880        1.00610        0.11860
H          7.33170        0.48040        0.75250
H          4.22650       -1.71430        6.36130
H          4.84260       -0.49030        5.23270
H          3.76190       -0.02680        6.56220
H          0.29130       -1.95360        7.03230
H          1.51690       -0.73630        7.44190
H          1.98880       -2.42320        7.25370
H         -4.94130       -4.04260        4.95140
H         -6.38050       -4.75340        4.21050
H         -5.94190       -1.77930        4.78430
H         -7.38650       -2.45230        4.02600
H         -6.99360       -2.86250        5.69910
H         -2.01490       -3.33560       -1.00660
H         -0.61240       -2.41460       -1.54290
H         -2.59570       -1.64700       -2.78850
H         -2.23020       -0.35370       -1.63670
H         -3.53320       -1.49300       -1.30780
H          1.36580        0.12530       -2.71480
H         -0.09710       -0.68140       -2.15560
H         -0.51530        1.74310       -2.39620
H         -0.59860        1.30540       -0.68220
H          0.83650        2.10810       -1.32150
H         -7.58740       -4.48630        2.45220
H         -9.06790       -4.76290       -3.77930
H         -7.47850       -4.03180       -3.43480
H         -8.55520       -1.84890       -2.97410
H        -10.15350       -2.53940       -3.30690
H         -8.96300       -2.41430       -4.59850
