93

C         -4.59830        1.02670        4.96870
C         -5.34860        2.11620        5.30160
C         -6.38800        2.00460        6.35490
O         -6.78780        0.99300        6.88180
C         -6.78650        3.40130        6.65160
C         -7.64300        3.86520        7.63040
C         -7.83030        5.23530        7.72500
F         -8.64930        5.72850        8.66120
C         -7.17080        6.10760        6.85800
F         -7.35820        7.42550        6.98510
C         -6.31950        5.64230        5.86670
C         -6.13080        4.27390        5.76520
C         -5.33720        3.48080        4.82620
C         -4.91080        3.90900        3.59670
C         -4.38120        3.05810        2.60510
N         -3.98280        2.41630        1.74090
C         -5.02850        5.24000        3.14520
N         -5.08280        6.31110        2.73720
C         -3.35930        0.95600        4.29160
C         -2.24850        1.79330        4.31160
C         -2.07810        2.98890        5.19630
C         -1.65880        4.24460        4.43110
C         -1.22250        1.28790        3.50260
C         -1.54070        0.08930        2.84580
S         -3.09800       -0.47840        3.30230
C         -0.51100       -0.32730        1.99770
C          0.58370        0.54040        2.03780
S          0.37840        1.87590        3.11130
C          1.52360        0.05760        1.11880
C          2.77140        0.62340        0.75290
N          3.22800        1.73350        1.34570
C          4.37850        2.22050        0.93160
C          4.87280        3.45740        1.60410
C          5.11200        1.59440       -0.10940
C          6.41370        2.14250       -0.59070
N          4.67190        0.49930       -0.69220
C          3.50420       -0.00330       -0.27260
C          2.97590       -1.19340       -0.83460
C          3.53080       -2.00840       -1.82860
S          4.92390       -2.05240       -2.84730
C          4.34000       -3.55610       -3.52830
C          4.85390       -4.39250       -4.52190
C          6.15230       -4.08600       -5.19300
C          7.31330       -4.78140       -4.47660
C          4.02150       -5.49410       -4.72880
S          2.59760       -5.45830       -3.67990
C          3.12520       -3.98230       -2.97040
C          2.66180       -3.09160       -2.00050
N          1.58240       -2.96340       -1.16880
C          0.69020       -4.08690       -0.99460
C          0.99450       -4.84550        0.29550
C          1.74840       -1.80020       -0.43410
C          0.97010       -1.12220        0.53830
N         -0.27370       -1.34100        1.10970
C         -1.37340       -2.19080        0.71360
C         -1.98880       -1.72420       -0.60400
C          4.17860       -6.57100       -5.63900
C          3.29340       -7.61640       -5.83590
C          2.06990       -7.80380       -5.17040
N          1.05970       -8.02100       -4.66760
C          3.57650       -8.62670       -6.78070
N          3.77980       -9.46070       -7.54110
C          5.34230       -6.65500       -6.44960
N          6.25300       -6.80210       -7.12900
H         -5.00800        0.07590        5.29940
H         -8.15160        3.19080        8.30060
H         -5.82950        6.35250        5.22060
H         -1.29530        2.75320        5.92450
H         -2.99870        3.17410        5.75080
H         -1.65560        5.10000        5.10200
H         -2.33670        4.45420        3.60780
H         -0.66030        4.12520        4.02010
H          4.15990        3.75800        2.36640
H          5.84260        3.27810        2.06590
H          4.98910        4.26290        0.88050
H          6.79720        1.50720       -1.38380
H          7.13570        2.17990        0.22380
H          6.28270        3.15480       -0.97000
H          6.13340       -4.38680       -6.23980
H          6.30480       -3.00530       -5.14640
H          8.25160       -4.50800       -4.95020
H          7.20770       -5.86240       -4.52720
H          7.34770       -4.47960       -3.43220
H         -0.34730       -3.76020       -1.04000
H          0.85210       -4.75220       -1.84650
H          0.93010       -4.19080        1.16230
H          2.00120       -5.25510        0.25630
H          0.29370       -5.66670        0.41730
H         -1.05550       -3.23090        0.67080
H         -2.12410       -2.11690        1.50460
H         -2.78630       -2.39890       -0.90270
H         -2.40650       -0.72740       -0.48390
H         -1.24190       -1.68570       -1.39440
