138

C         -2.81130        7.26050        5.63410
C         -1.96090        8.19780        6.17190
C         -0.52360        8.30150        5.90830
O          0.15670        7.61160        5.17140
C         -0.04040        9.43230        6.72780
C          1.24430        9.92630        6.83300
C          1.44970       11.00600        7.67680
F          2.67910       11.51780        7.81150
C          0.38670       11.56370        8.38720
F          0.61300       12.60550        9.19480
C         -0.90410       11.06630        8.28000
C         -1.11810        9.98580        7.43880
C         -2.33350        9.23770        7.10970
C         -3.57910        9.50320        7.61700
C         -3.85460       10.53990        8.53440
N         -4.14750       11.36160        9.28020
C         -4.76440        8.80090        7.31270
N         -5.77430        8.28760        7.12280
C         -2.56260        6.21020        4.74370
C         -3.57880        5.33390        4.34250
C         -3.12190        4.35790        3.48450
S         -3.87640        2.99980        2.68700
C         -2.34440        2.59200        1.99450
C         -1.82450        1.56260        1.17950
C         -0.45110        1.76030        1.02560
C         -0.00350        3.01870        1.72540
C         -1.30760        3.46120        2.34060
C         -1.74040        4.46490        3.19720
S         -1.01330        5.79460        4.01280
C          0.53590        3.97090        0.67000
C         -0.23920        4.98740        0.13350
C          0.27730        5.81240       -0.84950
C          1.57000        5.63800       -1.32350
C          2.11010        6.50600       -2.42280
C          1.82800        5.87510       -3.78800
C          2.33590        4.60860       -0.78990
C          1.82800        3.78460        0.19500
C          1.01130        2.80370        2.83320
C          1.27630        1.54640        3.35360
C          2.18830        1.39740        4.38330
C          2.84440        2.49550        4.92150
C          3.79820        2.33600        6.06970
C          3.05880        2.48830        7.40050
C          2.55950        3.75410        4.40590
C          1.65650        3.90940        3.37310
C          0.12440        0.75190        0.26340
S          1.74190        0.36980       -0.24140
C          1.14690       -1.07970       -0.97850
C          1.69540       -2.19960       -1.64080
C          0.66580       -3.10020       -1.92950
C         -0.66990       -2.55630       -1.48590
C         -1.53930       -2.39980       -2.72210
C         -2.15790       -3.52600       -3.25100
C         -2.91760       -3.43050       -4.39970
C         -3.08000       -2.21170       -5.04780
C         -3.86910       -2.12300       -6.32150
C         -2.97890       -2.44930       -7.52250
C         -2.45390       -1.09290       -4.51670
C         -1.68730       -1.18240       -3.36820
C         -1.36880       -3.38500       -0.42360
C         -2.70830       -3.13820       -0.15020
C         -3.36060       -3.84510        0.84050
C         -2.69440       -4.81260        1.58280
C         -3.42140       -5.61680        2.62070
C         -4.05550       -6.85570        1.98470
C         -1.35470       -5.04940        1.30770
C         -0.69350       -4.33980        0.32130
C         -0.23380       -1.25340       -0.86460
C         -0.81900       -0.21630       -0.15000
S         -2.42980        0.14460        0.39120
C          1.14920       -4.23660       -2.55970
C          2.55420       -4.20340       -2.73500
S          3.26520       -2.72930       -2.13190
C          3.08480       -5.33870       -3.31730
C          2.10560       -6.28390       -3.60720
S          0.49050       -5.70720       -3.14840
C          2.14830       -7.56260       -4.17730
C          3.19640       -8.36730       -4.56080
C          4.64170       -8.12700       -4.38410
O          5.20850       -7.13470       -3.98440
C          5.30260       -9.39000       -4.79970
C          4.33850      -10.31030       -5.24230
C          4.71660      -11.57130       -5.67180
C          6.06660      -11.89110       -5.65070
F          6.45220      -13.10350       -6.05590
C          7.03500      -10.98830       -5.21760
F          8.32480      -11.33520       -5.21260
C          6.64650       -9.71820       -4.78610
F          7.57210       -8.85920       -4.37060
C          3.01940       -9.68200       -5.14440
C          1.85310      -10.25500       -5.58430
C          0.57330       -9.65930       -5.57890
N         -0.50200       -9.25890       -5.63350
C          1.76720      -11.54630       -6.14790
N          1.62090      -12.58710       -6.60920
H         -3.84850        7.31580        5.94150
H          2.06190        9.49150        6.28060
H         -1.68820       11.53490        8.85150
H         -4.59340        5.42800        4.68570
H         -1.24880        5.14410        0.48350
H         -0.33620        6.60590       -1.25170
H          1.64430        7.49220       -2.37870
H          3.18760        6.63050       -2.30040
H          2.30290        4.89920       -3.85910
H          2.21170        6.50700       -4.58540
H          0.75760        5.74620       -3.93160
H          3.34390        4.45280       -1.14610
H          2.44080        2.99600        0.60770
H          0.77390        0.67550        2.95820
H          2.39150        0.40990        4.77240
H          4.58260        3.09260        6.00620
H          4.26770        1.35130        6.02870
H          2.28200        1.73200        7.49060
H          3.74880        2.37870        8.23380
H          2.59050        3.46810        7.46250
H          3.05100        4.62440        4.81480
H          1.45430        4.89440        2.97950
H         -2.04800       -4.47920       -2.75440
H         -3.39250       -4.31510       -4.79780
H         -4.27630       -1.11680       -6.43700
H         -4.70170       -2.82840       -6.29010
H         -2.57340       -3.45420       -7.43110
H         -3.54940       -2.38740       -8.44600
H         -2.14830       -1.74900       -7.57940
H         -2.56520       -0.13570       -5.00580
H         -1.20680       -0.29700       -2.97790
H         -3.24270       -2.39410       -0.72310
H         -4.40230       -3.64110        1.04120
H         -2.72670       -5.92900        3.40280
H         -4.20310       -5.00820        3.07950
H         -4.75930       -6.56410        1.20840
H         -3.29030       -7.48340        1.53370
H         -4.58580       -7.43810        2.73410
H         -0.81710       -5.79580        1.87460
H          0.35230       -4.53550        0.13430
H          4.12730       -5.49790       -3.52170
H          1.16180       -7.99130       -4.30900
H          4.01530      -12.31300       -6.01570
