97

C         -4.71990       -1.46160       -5.12430
C         -5.43280       -0.79020       -6.08730
C         -5.32590        0.63240       -6.46880
O         -4.73060        1.53410       -5.91580
C         -6.07990        0.75940       -7.73640
C         -6.22940        1.88200       -8.52630
C         -6.97600        1.75590       -9.68630
F         -7.14610        2.81710      -10.48440
C         -7.55010        0.53220      -10.03200
F         -8.26020        0.43750      -11.16160
C         -7.40190       -0.59410       -9.23610
C         -6.65640       -0.47500       -8.07350
C         -6.31450       -1.44680       -7.03580
C         -6.81180       -2.72120       -6.95860
C         -7.67820       -3.28870       -7.91760
N         -8.37660       -3.81060       -8.66380
C         -6.57580       -3.63730       -5.91060
N         -6.45680       -4.43510       -5.09330
C         -3.86780       -0.98420       -4.11610
S         -2.86840       -2.16930       -3.28920
C         -2.15800       -0.94070       -2.32150
C         -1.14890       -1.12990       -1.33180
C         -0.85820       -0.00520       -0.52450
O         -1.51440        1.16550       -0.64240
C         -2.13970        1.52610       -1.88760
C         -1.03920        2.16420       -2.76890
C         -1.53420        2.79380       -4.06280
C         -3.27240        2.49560       -1.51230
C         -2.79020        3.72540       -0.75240
C         -2.69040        0.31460       -2.59310
C         -3.65130        0.28620       -3.59420
C          0.08560       -0.12730        0.48030
C          0.75820       -1.33020        0.68280
C          1.72150       -1.52920        1.71750
C          2.45460       -2.70860        1.79870
C          2.32820       -3.74670        0.72000
O          1.06100       -3.65230        0.04420
C          0.47840       -2.45010       -0.13580
C         -0.48180       -2.33560       -1.12510
C          3.41120       -3.50230       -0.36140
C          4.85050       -3.56660        0.12800
C          2.38100       -5.17680        1.27510
C          1.29390       -5.43030        2.31300
C          3.30420       -2.71230        2.89120
C          3.24870       -1.53890        3.65000
S          2.08680       -0.41930        2.98050
C          4.05890       -1.34950        4.77990
C          4.19020       -0.26560        5.60880
C          3.47780        1.01170        5.47240
O          2.62760        1.30470        4.65110
C          4.00420        1.88690        6.53500
C          3.67300        3.19860        6.81200
C          4.30310        3.85410        7.86390
C          4.00310        5.27320        8.21830
C          5.24950        3.13410        8.59630
F          5.86560        3.76000        9.61570
C          5.59750        1.81760        8.34010
C          4.96120        1.18270        7.28530
C          5.09100       -0.16810        6.74230
C          5.91770       -1.14170        7.23910
C          6.76860       -0.96280        8.35110
N          7.48320       -0.88540        9.24580
C          6.04850       -2.45230        6.73430
N          6.21490       -3.53470        6.38660
H         -4.78220       -2.54320       -5.15600
H         -5.78200        2.82490       -8.25490
H         -7.86250       -1.51610       -9.55030
H         -0.52820        2.91270       -2.16120
H         -0.31240        1.37900       -2.99980
H         -0.68290        3.14930       -4.63860
H         -2.18440        3.64080       -3.86470
H         -2.07850        2.07560       -4.67030
H         -3.97550        1.94220       -0.88550
H         -3.79380        2.79780       -2.41900
H         -2.19780        3.42620        0.10740
H         -3.64670        4.29660       -0.40280
H         -2.18820        4.36990       -1.38700
H         -4.18900        1.14270       -3.95130
H          0.30030        0.71780        1.11510
H         -0.71520       -3.18990       -1.74130
H          3.22130       -2.51430       -0.79180
H          3.25460       -4.24220       -1.14890
H          5.09600       -4.55560        0.50420
H          5.52150       -3.34440       -0.69810
H          5.02870       -2.83750        0.91480
H          2.24710       -5.86100        0.43610
H          3.36170       -5.35530        1.71310
H          1.42340       -4.78330        3.17790
H          0.31400       -5.24130        1.88220
H          1.33240       -6.46380        2.64680
H          3.95890       -3.52290        3.15710
H          4.68240       -2.20800        4.99820
H          2.93240        3.70380        6.21090
H          4.90880        5.87530        8.15280
H          3.25070        5.68740        7.55390
H          3.64720        5.33690        9.24600
H          6.34070        1.34030        8.95690
