
  xtb     02022200053D
 energy: -174.574888167001 gnorm: 0.000363451601 xtb: 6.4.1 (unknown)
 97105  0     0  0            999 V2000
   -4.7199   -1.4616   -5.1243 C   0  0  0  0  0  0  0  0  0  0  0  0
   -5.4328   -0.7902   -6.0873 C   0  0  0  0  0  0  0  0  0  0  0  0
   -5.3259    0.6324   -6.4688 C   0  0  0  0  0  0  0  0  0  0  0  0
   -4.7306    1.5341   -5.9158 O   0  0  0  0  0  0  0  0  0  0  0  0
   -6.0799    0.7594   -7.7364 C   0  0  0  0  0  0  0  0  0  0  0  0
   -6.2294    1.8820   -8.5263 C   0  0  0  0  0  0  0  0  0  0  0  0
   -6.9760    1.7559   -9.6863 C   0  0  0  0  0  0  0  0  0  0  0  0
   -7.1461    2.8171  -10.4844 F   0  0  0  0  0  0  0  0  0  0  0  0
   -7.5501    0.5322  -10.0320 C   0  0  0  0  0  0  0  0  0  0  0  0
   -8.2602    0.4375  -11.1616 F   0  0  0  0  0  0  0  0  0  0  0  0
   -7.4019   -0.5941   -9.2361 C   0  0  0  0  0  0  0  0  0  0  0  0
   -6.6564   -0.4750   -8.0735 C   0  0  0  0  0  0  0  0  0  0  0  0
   -6.3145   -1.4468   -7.0358 C   0  0  0  0  0  0  0  0  0  0  0  0
   -6.8118   -2.7212   -6.9586 C   0  0  0  0  0  0  0  0  0  0  0  0
   -7.6782   -3.2887   -7.9176 C   0  0  0  0  0  0  0  0  0  0  0  0
   -8.3766   -3.8106   -8.6638 N   0  0  0  0  0  0  0  0  0  0  0  0
   -6.5758   -3.6373   -5.9106 C   0  0  0  0  0  0  0  0  0  0  0  0
   -6.4568   -4.4351   -5.0933 N   0  0  0  0  0  0  0  0  0  0  0  0
   -3.8678   -0.9842   -4.1161 C   0  0  0  0  0  0  0  0  0  0  0  0
   -2.8684   -2.1693   -3.2892 S   0  0  0  0  0  0  0  0  0  0  0  0
   -2.1580   -0.9407   -2.3215 C   0  0  0  0  0  0  0  0  0  0  0  0
   -1.1489   -1.1299   -1.3318 C   0  0  0  0  0  0  0  0  0  0  0  0
   -0.8582   -0.0052   -0.5245 C   0  0  0  0  0  0  0  0  0  0  0  0
   -1.5144    1.1655   -0.6424 O   0  0  0  0  0  0  0  0  0  0  0  0
   -2.1397    1.5261   -1.8876 C   0  0  0  0  0  0  0  0  0  0  0  0
   -1.0392    2.1642   -2.7689 C   0  0  0  0  0  0  0  0  0  0  0  0
   -1.5342    2.7938   -4.0628 C   0  0  0  0  0  0  0  0  0  0  0  0
   -3.2724    2.4956   -1.5123 C   0  0  0  0  0  0  0  0  0  0  0  0
   -2.7902    3.7254   -0.7524 C   0  0  0  0  0  0  0  0  0  0  0  0
   -2.6904    0.3146   -2.5931 C   0  0  0  0  0  0  0  0  0  0  0  0
   -3.6513    0.2862   -3.5942 C   0  0  0  0  0  0  0  0  0  0  0  0
    0.0856   -0.1273    0.4803 C   0  0  0  0  0  0  0  0  0  0  0  0
    0.7582   -1.3302    0.6828 C   0  0  0  0  0  0  0  0  0  0  0  0
    1.7215   -1.5292    1.7175 C   0  0  0  0  0  0  0  0  0  0  0  0
    2.4546   -2.7086    1.7987 C   0  0  0  0  0  0  0  0  0  0  0  0
    2.3282   -3.7467    0.7200 C   0  0  0  0  0  0  0  0  0  0  0  0
    1.0610   -3.6523    0.0442 O   0  0  0  0  0  0  0  0  0  0  0  0
    0.4784   -2.4501   -0.1358 C   0  0  0  0  0  0  0  0  0  0  0  0
   -0.4818   -2.3356   -1.1251 C   0  0  0  0  0  0  0  0  0  0  0  0
    3.4112   -3.5023   -0.3614 C   0  0  0  0  0  0  0  0  0  0  0  0
    4.8505   -3.5666    0.1280 C   0  0  0  0  0  0  0  0  0  0  0  0
    2.3810   -5.1768    1.2751 C   0  0  0  0  0  0  0  0  0  0  0  0
    1.2939   -5.4303    2.3130 C   0  0  0  0  0  0  0  0  0  0  0  0
    3.3042   -2.7123    2.8912 C   0  0  0  0  0  0  0  0  0  0  0  0
    3.2487   -1.5389    3.6500 C   0  0  0  0  0  0  0  0  0  0  0  0
    2.0868   -0.4193    2.9805 S   0  0  0  0  0  0  0  0  0  0  0  0
    4.0589   -1.3495    4.7799 C   0  0  0  0  0  0  0  0  0  0  0  0
    4.1902   -0.2656    5.6088 C   0  0  0  0  0  0  0  0  0  0  0  0
    3.4778    1.0117    5.4724 C   0  0  0  0  0  0  0  0  0  0  0  0
    2.6276    1.3047    4.6511 O   0  0  0  0  0  0  0  0  0  0  0  0
    4.0042    1.8869    6.5350 C   0  0  0  0  0  0  0  0  0  0  0  0
    3.6730    3.1986    6.8120 C   0  0  0  0  0  0  0  0  0  0  0  0
    4.3031    3.8541    7.8639 C   0  0  0  0  0  0  0  0  0  0  0  0
    4.0031    5.2732    8.2183 C   0  0  0  0  0  0  0  0  0  0  0  0
    5.2495    3.1341    8.5963 C   0  0  0  0  0  0  0  0  0  0  0  0
    5.8656    3.7600    9.6157 F   0  0  0  0  0  0  0  0  0  0  0  0
    5.5975    1.8176    8.3401 C   0  0  0  0  0  0  0  0  0  0  0  0
    4.9612    1.1827    7.2853 C   0  0  0  0  0  0  0  0  0  0  0  0
    5.0910   -0.1681    6.7423 C   0  0  0  0  0  0  0  0  0  0  0  0
    5.9177   -1.1417    7.2391 C   0  0  0  0  0  0  0  0  0  0  0  0
    6.7686   -0.9628    8.3511 C   0  0  0  0  0  0  0  0  0  0  0  0
    7.4832   -0.8854    9.2458 N   0  0  0  0  0  0  0  0  0  0  0  0
    6.0485   -2.4523    6.7343 C   0  0  0  0  0  0  0  0  0  0  0  0
    6.2149   -3.5347    6.3866 N   0  0  0  0  0  0  0  0  0  0  0  0
   -4.7822   -2.5432   -5.1560 H   0  0  0  0  0  0  0  0  0  0  0  0
   -5.7820    2.8249   -8.2549 H   0  0  0  0  0  0  0  0  0  0  0  0
   -7.8625   -1.5161   -9.5503 H   0  0  0  0  0  0  0  0  0  0  0  0
   -0.5282    2.9127   -2.1612 H   0  0  0  0  0  0  0  0  0  0  0  0
   -0.3124    1.3790   -2.9998 H   0  0  0  0  0  0  0  0  0  0  0  0
   -0.6829    3.1493   -4.6386 H   0  0  0  0  0  0  0  0  0  0  0  0
   -2.1844    3.6408   -3.8647 H   0  0  0  0  0  0  0  0  0  0  0  0
   -2.0785    2.0756   -4.6703 H   0  0  0  0  0  0  0  0  0  0  0  0
   -3.9755    1.9422   -0.8855 H   0  0  0  0  0  0  0  0  0  0  0  0
   -3.7938    2.7978   -2.4190 H   0  0  0  0  0  0  0  0  0  0  0  0
   -2.1978    3.4262    0.1074 H   0  0  0  0  0  0  0  0  0  0  0  0
   -3.6467    4.2966   -0.4028 H   0  0  0  0  0  0  0  0  0  0  0  0
   -2.1882    4.3699   -1.3870 H   0  0  0  0  0  0  0  0  0  0  0  0
   -4.1890    1.1427   -3.9513 H   0  0  0  0  0  0  0  0  0  0  0  0
    0.3003    0.7178    1.1151 H   0  0  0  0  0  0  0  0  0  0  0  0
   -0.7152   -3.1899   -1.7413 H   0  0  0  0  0  0  0  0  0  0  0  0
    3.2213   -2.5143   -0.7918 H   0  0  0  0  0  0  0  0  0  0  0  0
    3.2546   -4.2422   -1.1489 H   0  0  0  0  0  0  0  0  0  0  0  0
    5.0960   -4.5556    0.5042 H   0  0  0  0  0  0  0  0  0  0  0  0
    5.5215   -3.3444   -0.6981 H   0  0  0  0  0  0  0  0  0  0  0  0
    5.0287   -2.8375    0.9148 H   0  0  0  0  0  0  0  0  0  0  0  0
    2.2471   -5.8610    0.4361 H   0  0  0  0  0  0  0  0  0  0  0  0
    3.3617   -5.3553    1.7131 H   0  0  0  0  0  0  0  0  0  0  0  0
    1.4234   -4.7833    3.1779 H   0  0  0  0  0  0  0  0  0  0  0  0
    0.3140   -5.2413    1.8822 H   0  0  0  0  0  0  0  0  0  0  0  0
    1.3324   -6.4638    2.6468 H   0  0  0  0  0  0  0  0  0  0  0  0
    3.9589   -3.5229    3.1571 H   0  0  0  0  0  0  0  0  0  0  0  0
    4.6824   -2.2080    4.9982 H   0  0  0  0  0  0  0  0  0  0  0  0
    2.9324    3.7038    6.2109 H   0  0  0  0  0  0  0  0  0  0  0  0
    4.9088    5.8753    8.1528 H   0  0  0  0  0  0  0  0  0  0  0  0
    3.2507    5.6874    7.5539 H   0  0  0  0  0  0  0  0  0  0  0  0
    3.6472    5.3369    9.2460 H   0  0  0  0  0  0  0  0  0  0  0  0
    6.3407    1.3403    8.9569 H   0  0  0  0  0  0  0  0  0  0  0  0
  1  2  2  0  0  0  0
  2  3  1  0  0  0  0
  3  4  2  0  0  0  0
  3  5  1  0  0  0  0
  5  6  2  0  0  0  0
  6  7  1  0  0  0  0
  7  8  1  0  0  0  0
  7  9  2  0  0  0  0
  9 10  1  0  0  0  0
  9 11  1  0  0  0  0
 11 12  2  0  0  0  0
 12 13  1  0  0  0  0
 13 14  2  0  0  0  0
 14 15  1  0  0  0  0
 15 16  3  0  0  0  0
 14 17  1  0  0  0  0
 17 18  3  0  0  0  0
  1 19  1  0  0  0  0
 19 20  1  0  0  0  0
 20 21  1  0  0  0  0
 21 22  1  0  0  0  0
 22 23  2  0  0  0  0
 23 24  1  0  0  0  0
 24 25  1  0  0  0  0
 25 26  1  0  0  0  0
 26 27  1  0  0  0  0
 25 28  1  0  0  0  0
 28 29  1  0  0  0  0
 25 30  1  0  0  0  0
 30 31  1  0  0  0  0
 23 32  1  0  0  0  0
 32 33  2  0  0  0  0
 33 34  1  0  0  0  0
 34 35  2  0  0  0  0
 35 36  1  0  0  0  0
 36 37  1  0  0  0  0
 37 38  1  0  0  0  0
 38 39  2  0  0  0  0
 36 40  1  0  0  0  0
 40 41  1  0  0  0  0
 36 42  1  0  0  0  0
 42 43  1  0  0  0  0
 35 44  1  0  0  0  0
 44 45  2  0  0  0  0
 45 46  1  0  0  0  0
 45 47  1  0  0  0  0
 47 48  2  0  0  0  0
 48 49  1  0  0  0  0
 49 50  2  0  0  0  0
 49 51  1  0  0  0  0
 51 52  2  0  0  0  0
 52 53  1  0  0  0  0
 53 54  1  0  0  0  0
 53 55  2  0  0  0  0
 55 56  1  0  0  0  0
 55 57  1  0  0  0  0
 57 58  2  0  0  0  0
 58 59  1  0  0  0  0
 59 60  2  0  0  0  0
 60 61  1  0  0  0  0
 61 62  3  0  0  0  0
 60 63  1  0  0  0  0
 63 64  3  0  0  0  0
 13  2  1  0  0  0  0
 31 19  2  0  0  0  0
 38 33  1  0  0  0  0
 59 48  1  0  0  0  0
 12  5  1  0  0  0  0
 30 21  2  0  0  0  0
 46 34  1  0  0  0  0
 58 51  1  0  0  0  0
 39 22  1  0  0  0  0
  1 65  1  0  0  0  0
  6 66  1  0  0  0  0
 11 67  1  0  0  0  0
 26 68  1  0  0  0  0
 26 69  1  0  0  0  0
 27 70  1  0  0  0  0
 27 71  1  0  0  0  0
 27 72  1  0  0  0  0
 28 73  1  0  0  0  0
 28 74  1  0  0  0  0
 29 75  1  0  0  0  0
 29 76  1  0  0  0  0
 29 77  1  0  0  0  0
 31 78  1  0  0  0  0
 32 79  1  0  0  0  0
 39 80  1  0  0  0  0
 40 81  1  0  0  0  0
 40 82  1  0  0  0  0
 41 83  1  0  0  0  0
 41 84  1  0  0  0  0
 41 85  1  0  0  0  0
 42 86  1  0  0  0  0
 42 87  1  0  0  0  0
 43 88  1  0  0  0  0
 43 89  1  0  0  0  0
 43 90  1  0  0  0  0
 44 91  1  0  0  0  0
 47 92  1  0  0  0  0
 52 93  1  0  0  0  0
 54 94  1  0  0  0  0
 54 95  1  0  0  0  0
 54 96  1  0  0  0  0
 57 97  1  0  0  0  0
M  END
