104

C         -5.03660       -0.62730       -5.20880
C         -6.13390        0.19980       -5.12120
C         -6.55820        0.93710       -3.93070
O         -6.08060        0.89670       -2.81100
C         -7.70920        1.76350       -4.35320
C         -8.44330        2.65900       -3.60200
C         -9.47850        3.32940       -4.23380
F        -10.21590        4.20990       -3.54540
C         -9.75770        3.09680       -5.58010
F        -10.76110        3.76030       -6.16610
C         -9.02050        2.19430       -6.33330
C         -7.98300        1.52020       -5.70910
C         -7.02840        0.52900       -6.21110
C         -7.02150        0.02180       -7.48510
C         -7.93420        0.40150       -8.49220
N         -8.64130        0.66710       -9.35640
C         -6.12810       -0.94940       -7.98380
N         -5.44650       -1.73640       -8.46950
C         -4.07550       -0.96950       -4.25580
C         -2.95980       -1.76390       -4.57510
C         -2.10320       -1.92640       -3.51340
C         -0.77780       -2.58790       -3.25990
C          0.31270       -2.05900       -4.20920
C          0.48960       -0.54760       -4.12830
C         -0.87840       -4.12070       -3.39060
C         -1.94510       -4.72900       -2.48820
C         -0.52440       -2.17690       -1.82420
C         -1.59450       -1.43870       -1.30890
C         -2.55440       -1.28100       -2.35480
S         -4.03390       -0.45880       -2.57260
C         -1.59060       -0.96500        0.02330
C         -2.67890       -0.28780        0.59970
C         -2.64350        0.15560        1.90150
C         -1.49400       -0.03090        2.66670
C         -1.20790        0.39220        4.09780
C         -2.07490       -0.37450        5.12280
C         -3.54840       -0.00080        5.19580
C         -1.19100        1.92490        4.32390
C         -2.23640        2.75030        3.58440
C          0.21060       -0.09590        4.25320
C          1.19060       -0.03310        5.23380
C          2.40970       -0.52650        4.79320
S          2.29060       -1.16950        3.16210
C          0.64400       -0.70340        3.08440
C         -0.39610       -0.69840        2.10730
C         -0.41740       -1.21170        0.79070
C          0.65220       -1.94130        0.23830
C          0.59760       -2.43510       -1.04400
C          3.62460       -0.54360        5.51610
C          4.89290       -0.51410        5.02030
C          6.03720       -0.96890        5.85320
O          6.02480       -1.19380        7.04230
C          7.15910       -1.13770        4.90760
C          8.41040       -1.63230        5.13710
C          9.32650       -1.71660        4.06440
C         10.63410       -2.21030        4.24970
C         11.51210       -2.29010        3.20480
C         11.09360       -1.87240        1.93410
F         11.97110       -1.95910        0.91770
C          9.83780       -1.38610        1.69910
C          8.92160       -1.29360        2.76470
C          7.62070       -0.77940        2.55680
C          6.75680       -0.69430        3.61430
C          5.40110       -0.16180        3.71200
C          4.84890        0.74750        2.84610
C          3.68110        1.48460        3.13070
N          2.76680        2.14370        3.35080
C          5.43070        1.11360        1.61680
N          5.84900        1.42540        0.59400
H         -4.84750       -1.07420       -6.17730
H         -8.22210        2.83630       -2.56170
H         -9.27740        2.05350       -7.37010
H         -2.81860       -2.16760       -5.56220
H          1.25700       -2.54770       -3.96210
H          0.04760       -2.34050       -5.23020
H         -0.43220       -0.03530       -4.39420
H          0.77290       -0.24480       -3.12270
H          1.26900       -0.22760       -4.81530
H          0.09320       -4.55400       -3.14580
H         -1.10200       -4.36340       -4.43130
H         -2.92890       -4.33410       -2.73100
H         -1.73670       -4.51230       -1.44270
H         -1.96880       -5.80830       -2.61750
H         -3.56190       -0.12240        0.00060
H         -3.50450        0.65890        2.30800
H         -1.62730       -0.21580        6.10720
H         -1.99130       -1.44050        4.89280
H         -3.67670        1.04130        5.47340
H         -4.03080       -0.61130        5.95670
H         -4.05130       -0.18610        4.25160
H         -0.20820        2.29080        4.01640
H         -1.28250        2.09950        5.39800
H         -3.24990        2.45230        3.83460
H         -2.10140        2.67140        2.50890
H         -2.11500        3.79540        3.86210
H          1.07150        0.40660        6.20750
H          1.52760       -2.11830        0.84550
H          1.42340       -3.00400       -1.44370
H          3.54190       -0.63980        6.59470
H          8.70070       -1.95250        6.12650
H         10.93370       -2.52600        5.23770
H         12.51580       -2.66420        3.33020
H          9.55110       -1.06880        0.70870
H          7.33650       -0.47110        1.56300
