
  xtb     02022201033D
 energy: -182.440043950574 gnorm: 0.000295875988 xtb: 6.4.1 (unknown)
104114  0     0  0            999 V2000
   -5.0366   -0.6273   -5.2088 C   0  0  0  0  0  0  0  0  0  0  0  0
   -6.1339    0.1998   -5.1212 C   0  0  0  0  0  0  0  0  0  0  0  0
   -6.5582    0.9371   -3.9307 C   0  0  0  0  0  0  0  0  0  0  0  0
   -6.0806    0.8967   -2.8110 O   0  0  0  0  0  0  0  0  0  0  0  0
   -7.7092    1.7635   -4.3532 C   0  0  0  0  0  0  0  0  0  0  0  0
   -8.4433    2.6590   -3.6020 C   0  0  0  0  0  0  0  0  0  0  0  0
   -9.4785    3.3294   -4.2338 C   0  0  0  0  0  0  0  0  0  0  0  0
  -10.2159    4.2099   -3.5454 F   0  0  0  0  0  0  0  0  0  0  0  0
   -9.7577    3.0968   -5.5801 C   0  0  0  0  0  0  0  0  0  0  0  0
  -10.7611    3.7603   -6.1661 F   0  0  0  0  0  0  0  0  0  0  0  0
   -9.0205    2.1943   -6.3333 C   0  0  0  0  0  0  0  0  0  0  0  0
   -7.9830    1.5202   -5.7091 C   0  0  0  0  0  0  0  0  0  0  0  0
   -7.0284    0.5290   -6.2111 C   0  0  0  0  0  0  0  0  0  0  0  0
   -7.0215    0.0218   -7.4851 C   0  0  0  0  0  0  0  0  0  0  0  0
   -7.9342    0.4015   -8.4922 C   0  0  0  0  0  0  0  0  0  0  0  0
   -8.6413    0.6671   -9.3564 N   0  0  0  0  0  0  0  0  0  0  0  0
   -6.1281   -0.9494   -7.9838 C   0  0  0  0  0  0  0  0  0  0  0  0
   -5.4465   -1.7364   -8.4695 N   0  0  0  0  0  0  0  0  0  0  0  0
   -4.0755   -0.9695   -4.2558 C   0  0  0  0  0  0  0  0  0  0  0  0
   -2.9598   -1.7639   -4.5751 C   0  0  0  0  0  0  0  0  0  0  0  0
   -2.1032   -1.9264   -3.5134 C   0  0  0  0  0  0  0  0  0  0  0  0
   -0.7778   -2.5879   -3.2599 C   0  0  0  0  0  0  0  0  0  0  0  0
    0.3127   -2.0590   -4.2092 C   0  0  0  0  0  0  0  0  0  0  0  0
    0.4896   -0.5476   -4.1283 C   0  0  0  0  0  0  0  0  0  0  0  0
   -0.8784   -4.1207   -3.3906 C   0  0  0  0  0  0  0  0  0  0  0  0
   -1.9451   -4.7290   -2.4882 C   0  0  0  0  0  0  0  0  0  0  0  0
   -0.5244   -2.1769   -1.8242 C   0  0  0  0  0  0  0  0  0  0  0  0
   -1.5945   -1.4387   -1.3089 C   0  0  0  0  0  0  0  0  0  0  0  0
   -2.5544   -1.2810   -2.3548 C   0  0  0  0  0  0  0  0  0  0  0  0
   -4.0339   -0.4588   -2.5726 S   0  0  0  0  0  0  0  0  0  0  0  0
   -1.5906   -0.9650    0.0233 C   0  0  0  0  0  0  0  0  0  0  0  0
   -2.6789   -0.2878    0.5997 C   0  0  0  0  0  0  0  0  0  0  0  0
   -2.6435    0.1556    1.9015 C   0  0  0  0  0  0  0  0  0  0  0  0
   -1.4940   -0.0309    2.6667 C   0  0  0  0  0  0  0  0  0  0  0  0
   -1.2079    0.3922    4.0978 C   0  0  0  0  0  0  0  0  0  0  0  0
   -2.0749   -0.3745    5.1228 C   0  0  0  0  0  0  0  0  0  0  0  0
   -3.5484   -0.0008    5.1958 C   0  0  0  0  0  0  0  0  0  0  0  0
   -1.1910    1.9249    4.3239 C   0  0  0  0  0  0  0  0  0  0  0  0
   -2.2364    2.7503    3.5844 C   0  0  0  0  0  0  0  0  0  0  0  0
    0.2106   -0.0959    4.2532 C   0  0  0  0  0  0  0  0  0  0  0  0
    1.1906   -0.0331    5.2338 C   0  0  0  0  0  0  0  0  0  0  0  0
    2.4097   -0.5265    4.7932 C   0  0  0  0  0  0  0  0  0  0  0  0
    2.2906   -1.1695    3.1621 S   0  0  0  0  0  0  0  0  0  0  0  0
    0.6440   -0.7034    3.0844 C   0  0  0  0  0  0  0  0  0  0  0  0
   -0.3961   -0.6984    2.1073 C   0  0  0  0  0  0  0  0  0  0  0  0
   -0.4174   -1.2117    0.7907 C   0  0  0  0  0  0  0  0  0  0  0  0
    0.6522   -1.9413    0.2383 C   0  0  0  0  0  0  0  0  0  0  0  0
    0.5976   -2.4351   -1.0440 C   0  0  0  0  0  0  0  0  0  0  0  0
    3.6246   -0.5436    5.5161 C   0  0  0  0  0  0  0  0  0  0  0  0
    4.8929   -0.5141    5.0203 C   0  0  0  0  0  0  0  0  0  0  0  0
    6.0372   -0.9689    5.8532 C   0  0  0  0  0  0  0  0  0  0  0  0
    6.0248   -1.1938    7.0423 O   0  0  0  0  0  0  0  0  0  0  0  0
    7.1591   -1.1377    4.9076 C   0  0  0  0  0  0  0  0  0  0  0  0
    8.4104   -1.6323    5.1371 C   0  0  0  0  0  0  0  0  0  0  0  0
    9.3265   -1.7166    4.0644 C   0  0  0  0  0  0  0  0  0  0  0  0
   10.6341   -2.2103    4.2497 C   0  0  0  0  0  0  0  0  0  0  0  0
   11.5121   -2.2901    3.2048 C   0  0  0  0  0  0  0  0  0  0  0  0
   11.0936   -1.8724    1.9341 C   0  0  0  0  0  0  0  0  0  0  0  0
   11.9711   -1.9591    0.9177 F   0  0  0  0  0  0  0  0  0  0  0  0
    9.8378   -1.3861    1.6991 C   0  0  0  0  0  0  0  0  0  0  0  0
    8.9216   -1.2936    2.7647 C   0  0  0  0  0  0  0  0  0  0  0  0
    7.6207   -0.7794    2.5568 C   0  0  0  0  0  0  0  0  0  0  0  0
    6.7568   -0.6943    3.6143 C   0  0  0  0  0  0  0  0  0  0  0  0
    5.4011   -0.1618    3.7120 C   0  0  0  0  0  0  0  0  0  0  0  0
    4.8489    0.7475    2.8461 C   0  0  0  0  0  0  0  0  0  0  0  0
    3.6811    1.4846    3.1307 C   0  0  0  0  0  0  0  0  0  0  0  0
    2.7668    2.1437    3.3508 N   0  0  0  0  0  0  0  0  0  0  0  0
    5.4307    1.1136    1.6168 C   0  0  0  0  0  0  0  0  0  0  0  0
    5.8490    1.4254    0.5940 N   0  0  0  0  0  0  0  0  0  0  0  0
   -4.8475   -1.0742   -6.1773 H   0  0  0  0  0  0  0  0  0  0  0  0
   -8.2221    2.8363   -2.5617 H   0  0  0  0  0  0  0  0  0  0  0  0
   -9.2774    2.0535   -7.3701 H   0  0  0  0  0  0  0  0  0  0  0  0
   -2.8186   -2.1676   -5.5622 H   0  0  0  0  0  0  0  0  0  0  0  0
    1.2570   -2.5477   -3.9621 H   0  0  0  0  0  0  0  0  0  0  0  0
    0.0476   -2.3405   -5.2302 H   0  0  0  0  0  0  0  0  0  0  0  0
   -0.4322   -0.0353   -4.3942 H   0  0  0  0  0  0  0  0  0  0  0  0
    0.7729   -0.2448   -3.1227 H   0  0  0  0  0  0  0  0  0  0  0  0
    1.2690   -0.2276   -4.8153 H   0  0  0  0  0  0  0  0  0  0  0  0
    0.0932   -4.5540   -3.1458 H   0  0  0  0  0  0  0  0  0  0  0  0
   -1.1020   -4.3634   -4.4313 H   0  0  0  0  0  0  0  0  0  0  0  0
   -2.9289   -4.3341   -2.7310 H   0  0  0  0  0  0  0  0  0  0  0  0
   -1.7367   -4.5123   -1.4427 H   0  0  0  0  0  0  0  0  0  0  0  0
   -1.9688   -5.8083   -2.6175 H   0  0  0  0  0  0  0  0  0  0  0  0
   -3.5619   -0.1224    0.0006 H   0  0  0  0  0  0  0  0  0  0  0  0
   -3.5045    0.6589    2.3080 H   0  0  0  0  0  0  0  0  0  0  0  0
   -1.6273   -0.2158    6.1072 H   0  0  0  0  0  0  0  0  0  0  0  0
   -1.9913   -1.4405    4.8928 H   0  0  0  0  0  0  0  0  0  0  0  0
   -3.6767    1.0413    5.4734 H   0  0  0  0  0  0  0  0  0  0  0  0
   -4.0308   -0.6113    5.9567 H   0  0  0  0  0  0  0  0  0  0  0  0
   -4.0513   -0.1861    4.2516 H   0  0  0  0  0  0  0  0  0  0  0  0
   -0.2082    2.2908    4.0164 H   0  0  0  0  0  0  0  0  0  0  0  0
   -1.2825    2.0995    5.3980 H   0  0  0  0  0  0  0  0  0  0  0  0
   -3.2499    2.4523    3.8346 H   0  0  0  0  0  0  0  0  0  0  0  0
   -2.1014    2.6714    2.5089 H   0  0  0  0  0  0  0  0  0  0  0  0
   -2.1150    3.7954    3.8621 H   0  0  0  0  0  0  0  0  0  0  0  0
    1.0715    0.4066    6.2075 H   0  0  0  0  0  0  0  0  0  0  0  0
    1.5276   -2.1183    0.8455 H   0  0  0  0  0  0  0  0  0  0  0  0
    1.4234   -3.0040   -1.4437 H   0  0  0  0  0  0  0  0  0  0  0  0
    3.5419   -0.6398    6.5947 H   0  0  0  0  0  0  0  0  0  0  0  0
    8.7007   -1.9525    6.1265 H   0  0  0  0  0  0  0  0  0  0  0  0
   10.9337   -2.5260    5.2377 H   0  0  0  0  0  0  0  0  0  0  0  0
   12.5158   -2.6642    3.3302 H   0  0  0  0  0  0  0  0  0  0  0  0
    9.5511   -1.0688    0.7087 H   0  0  0  0  0  0  0  0  0  0  0  0
    7.3365   -0.4711    1.5630 H   0  0  0  0  0  0  0  0  0  0  0  0
  1  2  2  0  0  0  0
  2  3  1  0  0  0  0
  3  4  2  0  0  0  0
  3  5  1  0  0  0  0
  5  6  2  0  0  0  0
  6  7  1  0  0  0  0
  7  8  1  0  0  0  0
  7  9  2  0  0  0  0
  9 10  1  0  0  0  0
  9 11  1  0  0  0  0
 11 12  2  0  0  0  0
 12 13  1  0  0  0  0
 13 14  2  0  0  0  0
 14 15  1  0  0  0  0
 15 16  3  0  0  0  0
 14 17  1  0  0  0  0
 17 18  3  0  0  0  0
  1 19  1  0  0  0  0
 19 20  2  0  0  0  0
 20 21  1  0  0  0  0
 21 22  1  0  0  0  0
 22 23  1  0  0  0  0
 23 24  1  0  0  0  0
 22 25  1  0  0  0  0
 25 26  1  0  0  0  0
 22 27  1  0  0  0  0
 27 28  2  0  0  0  0
 28 29  1  0  0  0  0
 29 30  1  0  0  0  0
 28 31  1  0  0  0  0
 31 32  2  0  0  0  0
 32 33  1  0  0  0  0
 33 34  2  0  0  0  0
 34 35  1  0  0  0  0
 35 36  1  0  0  0  0
 36 37  1  0  0  0  0
 35 38  1  0  0  0  0
 38 39  1  0  0  0  0
 35 40  1  0  0  0  0
 40 41  1  0  0  0  0
 41 42  2  0  0  0  0
 42 43  1  0  0  0  0
 43 44  1  0  0  0  0
 44 45  1  0  0  0  0
 45 46  2  0  0  0  0
 46 47  1  0  0  0  0
 47 48  2  0  0  0  0
 42 49  1  0  0  0  0
 49 50  2  0  0  0  0
 50 51  1  0  0  0  0
 51 52  2  0  0  0  0
 51 53  1  0  0  0  0
 53 54  2  0  0  0  0
 54 55  1  0  0  0  0
 55 56  2  0  0  0  0
 56 57  1  0  0  0  0
 57 58  2  0  0  0  0
 58 59  1  0  0  0  0
 58 60  1  0  0  0  0
 60 61  2  0  0  0  0
 61 62  1  0  0  0  0
 62 63  2  0  0  0  0
 63 64  1  0  0  0  0
 64 65  2  0  0  0  0
 65 66  1  0  0  0  0
 66 67  3  0  0  0  0
 65 68  1  0  0  0  0
 68 69  3  0  0  0  0
 13  2  1  0  0  0  0
 30 19  1  0  0  0  0
 46 31  1  0  0  0  0
 64 50  1  0  0  0  0
 12  5  1  0  0  0  0
 29 21  2  0  0  0  0
 45 34  1  0  0  0  0
 63 53  1  0  0  0  0
 48 27  1  0  0  0  0
 61 55  1  0  0  0  0
 44 40  2  0  0  0  0
  1 70  1  0  0  0  0
  6 71  1  0  0  0  0
 11 72  1  0  0  0  0
 20 73  1  0  0  0  0
 23 74  1  0  0  0  0
 23 75  1  0  0  0  0
 24 76  1  0  0  0  0
 24 77  1  0  0  0  0
 24 78  1  0  0  0  0
 25 79  1  0  0  0  0
 25 80  1  0  0  0  0
 26 81  1  0  0  0  0
 26 82  1  0  0  0  0
 26 83  1  0  0  0  0
 32 84  1  0  0  0  0
 33 85  1  0  0  0  0
 36 86  1  0  0  0  0
 36 87  1  0  0  0  0
 37 88  1  0  0  0  0
 37 89  1  0  0  0  0
 37 90  1  0  0  0  0
 38 91  1  0  0  0  0
 38 92  1  0  0  0  0
 39 93  1  0  0  0  0
 39 94  1  0  0  0  0
 39 95  1  0  0  0  0
 41 96  1  0  0  0  0
 47 97  1  0  0  0  0
 48 98  1  0  0  0  0
 49 99  1  0  0  0  0
 54100  1  0  0  0  0
 56101  1  0  0  0  0
 57102  1  0  0  0  0
 60103  1  0  0  0  0
 62104  1  0  0  0  0
M  END
