
  xtb     02112206353D
 energy: -199.949935094830 gnorm: 0.000513968235 xtb: 6.4.1 (unknown)
103115  0     0  0            999 V2000
    2.8412   -5.2431   -5.2748 C   0  0  0  0  0  0  0  0  0  0  0  0
    4.0388   -5.5971   -4.7067 C   0  0  0  0  0  0  0  0  0  0  0  0
    4.5661   -5.1233   -3.4235 C   0  0  0  0  0  0  0  0  0  0  0  0
    4.0372   -4.3224   -2.6667 O   0  0  0  0  0  0  0  0  0  0  0  0
    5.8569   -5.8030   -3.2315 C   0  0  0  0  0  0  0  0  0  0  0  0
    6.1095   -6.6246   -4.3292 C   0  0  0  0  0  0  0  0  0  0  0  0
    7.2860   -7.3831   -4.3882 C   0  0  0  0  0  0  0  0  0  0  0  0
    8.1769   -7.3034   -3.3491 C   0  0  0  0  0  0  0  0  0  0  0  0
    7.9470   -6.4834   -2.2237 C   0  0  0  0  0  0  0  0  0  0  0  0
    8.8674   -6.4112   -1.1581 C   0  0  0  0  0  0  0  0  0  0  0  0
    8.6213   -5.6100   -0.0775 C   0  0  0  0  0  0  0  0  0  0  0  0
    7.4463   -4.8437   -0.0121 C   0  0  0  0  0  0  0  0  0  0  0  0
    6.5298   -4.8864   -1.0259 C   0  0  0  0  0  0  0  0  0  0  0  0
    6.7557   -5.7044   -2.1521 C   0  0  0  0  0  0  0  0  0  0  0  0
    4.9997   -6.5205   -5.2751 C   0  0  0  0  0  0  0  0  0  0  0  0
    4.9144   -7.1796   -6.4751 C   0  0  0  0  0  0  0  0  0  0  0  0
    3.8487   -7.0844   -7.3942 C   0  0  0  0  0  0  0  0  0  0  0  0
    3.0242   -7.0659   -8.1950 N   0  0  0  0  0  0  0  0  0  0  0  0
    5.8955   -8.0600   -6.9782 C   0  0  0  0  0  0  0  0  0  0  0  0
    6.6440   -8.7872   -7.4571 N   0  0  0  0  0  0  0  0  0  0  0  0
    1.8408   -4.3650   -4.8418 C   0  0  0  0  0  0  0  0  0  0  0  0
    0.6554   -4.1400   -5.5593 C   0  0  0  0  0  0  0  0  0  0  0  0
    0.2529   -4.8238   -6.8250 C   0  0  0  0  0  0  0  0  0  0  0  0
   -0.4032   -6.1737   -6.5259 C   0  0  0  0  0  0  0  0  0  0  0  0
   -0.1689   -3.2238   -4.9176 C   0  0  0  0  0  0  0  0  0  0  0  0
   -1.8782   -2.5180   -5.3498 Se  0  0  0  0  0  2  0  0  0  0  0  0
   -1.6809   -1.5546   -3.7707 C   0  0  0  0  0  0  0  0  0  0  0  0
   -2.4073   -0.6440   -2.9975 C   0  0  0  0  0  0  0  0  0  0  0  0
   -3.7220   -0.1602   -3.1676 C   0  0  0  0  0  0  0  0  0  0  0  0
   -4.2823    0.6737   -2.1512 C   0  0  0  0  0  0  0  0  0  0  0  0
   -5.5364    1.0137   -2.4023 N   0  0  0  0  0  0  0  0  0  0  0  0
   -5.9725    0.3381   -3.8112 S   0  0  0  0  0  0  0  0  0  0  0  0
   -4.5755   -0.4133   -4.1468 N   0  0  0  0  0  0  0  0  0  0  0  0
   -3.4643    1.0653   -1.0706 C   0  0  0  0  0  0  0  0  0  0  0  0
   -3.7346    1.9433   -0.0167 C   0  0  0  0  0  0  0  0  0  0  0  0
   -5.1523    2.9329    0.6505 Se  0  0  0  0  0  2  0  0  0  0  0  0
   -3.9232    3.5192    1.9777 C   0  0  0  0  0  0  0  0  0  0  0  0
   -4.0117    4.4030    3.0623 C   0  0  0  0  0  0  0  0  0  0  0  0
   -5.2562    5.0651    3.5397 C   0  0  0  0  0  0  0  0  0  0  0  0
   -6.5447    4.3349    3.1895 C   0  0  0  0  0  0  0  0  0  0  0  0
   -2.7853    4.5190    3.7263 C   0  0  0  0  0  0  0  0  0  0  0  0
   -1.5541    3.4675    3.0233 S   0  0  0  0  0  0  0  0  0  0  0  0
   -2.6500    2.9468    1.8032 C   0  0  0  0  0  0  0  0  0  0  0  0
   -2.5467    2.0785    0.7114 C   0  0  0  0  0  0  0  0  0  0  0  0
   -1.5680    1.2948    0.1555 N   0  0  0  0  0  0  0  0  0  0  0  0
   -2.1100    0.6456   -0.9409 C   0  0  0  0  0  0  0  0  0  0  0  0
   -1.6068   -0.3093   -1.8669 C   0  0  0  0  0  0  0  0  0  0  0  0
   -0.4341   -1.0387   -1.9486 N   0  0  0  0  0  0  0  0  0  0  0  0
   -0.4793   -1.7930   -3.0909 C   0  0  0  0  0  0  0  0  0  0  0  0
    0.3617   -2.7226   -3.7174 C   0  0  0  0  0  0  0  0  0  0  0  0
    1.9049   -3.4076   -3.3644 S   0  0  0  0  0  0  0  0  0  0  0  0
    0.5421   -1.3411   -0.9255 C   0  0  0  0  0  0  0  0  0  0  0  0
   -0.1059   -2.0204    0.2785 C   0  0  0  0  0  0  0  0  0  0  0  0
   -0.1810    1.5159    0.4997 C   0  0  0  0  0  0  0  0  0  0  0  0
    0.5722    2.2038   -0.6362 C   0  0  0  0  0  0  0  0  0  0  0  0
   -2.3692    5.1983    4.8827 C   0  0  0  0  0  0  0  0  0  0  0  0
   -2.8414    6.3534    5.4542 C   0  0  0  0  0  0  0  0  0  0  0  0
   -3.6439    7.3910    4.7948 C   0  0  0  0  0  0  0  0  0  0  0  0
   -3.9129    7.4797    3.6146 O   0  0  0  0  0  0  0  0  0  0  0  0
   -3.9729    8.3752    5.8554 C   0  0  0  0  0  0  0  0  0  0  0  0
   -4.8342    9.4550    5.7956 C   0  0  0  0  0  0  0  0  0  0  0  0
   -5.5931    9.9104    4.3357 Cl  0  0  0  0  0  0  0  0  0  0  0  0
   -5.0914   10.1638    6.9778 C   0  0  0  0  0  0  0  0  0  0  0  0
   -6.1288   11.5226    6.9496 Cl  0  0  0  0  0  0  0  0  0  0  0  0
   -4.5405    9.7339    8.1838 C   0  0  0  0  0  0  0  0  0  0  0  0
   -4.9487   10.5540    9.6292 Cl  0  0  0  0  0  0  0  0  0  0  0  0
   -3.6717    8.6320    8.2384 C   0  0  0  0  0  0  0  0  0  0  0  0
   -3.1865    8.0567    9.7798 Cl  0  0  0  0  0  0  0  0  0  0  0  0
   -3.3299    7.9971    7.0505 C   0  0  0  0  0  0  0  0  0  0  0  0
   -2.4552    6.8620    6.7607 C   0  0  0  0  0  0  0  0  0  0  0  0
   -1.3725    6.4730    7.5059 C   0  0  0  0  0  0  0  0  0  0  0  0
   -0.5711    5.3361    7.2640 C   0  0  0  0  0  0  0  0  0  0  0  0
    0.1165    4.4201    7.1739 N   0  0  0  0  0  0  0  0  0  0  0  0
   -0.7822    7.2387    8.5362 C   0  0  0  0  0  0  0  0  0  0  0  0
   -0.1622    7.8354    9.2954 N   0  0  0  0  0  0  0  0  0  0  0  0
    2.6096   -5.7147   -6.2199 H   0  0  0  0  0  0  0  0  0  0  0  0
    7.4942   -8.0208   -5.2310 H   0  0  0  0  0  0  0  0  0  0  0  0
    9.0878   -7.8836   -3.3816 H   0  0  0  0  0  0  0  0  0  0  0  0
    9.7704   -7.0019   -1.2117 H   0  0  0  0  0  0  0  0  0  0  0  0
    9.3308   -5.5613    0.7353 H   0  0  0  0  0  0  0  0  0  0  0  0
    7.2721   -4.2175    0.8503 H   0  0  0  0  0  0  0  0  0  0  0  0
    5.6244   -4.3018   -0.9858 H   0  0  0  0  0  0  0  0  0  0  0  0
    1.1071   -4.9721   -7.4871 H   0  0  0  0  0  0  0  0  0  0  0  0
   -0.4710   -4.1823   -7.3378 H   0  0  0  0  0  0  0  0  0  0  0  0
   -1.2830   -6.0335   -5.9009 H   0  0  0  0  0  0  0  0  0  0  0  0
   -0.7048   -6.6516   -7.4535 H   0  0  0  0  0  0  0  0  0  0  0  0
    0.2904   -6.8323   -6.0083 H   0  0  0  0  0  0  0  0  0  0  0  0
   -5.2824    6.0752    3.1115 H   0  0  0  0  0  0  0  0  0  0  0  0
   -5.1830    5.1934    4.6242 H   0  0  0  0  0  0  0  0  0  0  0  0
   -6.4872    3.2844    3.4702 H   0  0  0  0  0  0  0  0  0  0  0  0
   -7.3755    4.7903    3.7226 H   0  0  0  0  0  0  0  0  0  0  0  0
   -6.7575    4.4015    2.1218 H   0  0  0  0  0  0  0  0  0  0  0  0
    1.0869   -0.4417   -0.6383 H   0  0  0  0  0  0  0  0  0  0  0  0
    1.2667   -2.0238   -1.3741 H   0  0  0  0  0  0  0  0  0  0  0  0
   -0.8926   -1.4037    0.7075 H   0  0  0  0  0  0  0  0  0  0  0  0
    0.6437   -2.2162    1.0401 H   0  0  0  0  0  0  0  0  0  0  0  0
   -0.5458   -2.9680   -0.0237 H   0  0  0  0  0  0  0  0  0  0  0  0
   -0.1743    2.1644    1.3784 H   0  0  0  0  0  0  0  0  0  0  0  0
    0.2954    0.5802    0.7914 H   0  0  0  0  0  0  0  0  0  0  0  0
    0.5276    1.6188   -1.5521 H   0  0  0  0  0  0  0  0  0  0  0  0
    1.6132    2.3438   -0.3583 H   0  0  0  0  0  0  0  0  0  0  0  0
    0.1338    3.1789   -0.8356 H   0  0  0  0  0  0  0  0  0  0  0  0
   -1.5362    4.7190    5.3840 H   0  0  0  0  0  0  0  0  0  0  0  0
  1  2  2  0  0  0  0
  2  3  1  0  0  0  0
  3  4  2  0  0  0  0
  3  5  1  0  0  0  0
  5  6  2  0  0  0  0
  6  7  1  0  0  0  0
  7  8  2  0  0  0  0
  8  9  1  0  0  0  0
  9 10  2  0  0  0  0
 10 11  1  0  0  0  0
 11 12  2  0  0  0  0
 12 13  1  0  0  0  0
 13 14  2  0  0  0  0
  6 15  1  0  0  0  0
 15 16  2  0  0  0  0
 16 17  1  0  0  0  0
 17 18  3  0  0  0  0
 16 19  1  0  0  0  0
 19 20  3  0  0  0  0
  1 21  1  0  0  0  0
 21 22  2  0  0  0  0
 22 23  1  0  0  0  0
 23 24  1  0  0  0  0
 22 25  1  0  0  0  0
 25 26  1  0  0  0  0
 26 27  1  0  0  0  0
 27 28  1  0  0  0  0
 28 29  1  0  0  0  0
 29 30  1  0  0  0  0
 30 31  2  0  0  0  0
 31 32  1  0  0  0  0
 32 33  1  0  0  0  0
 30 34  1  0  0  0  0
 34 35  1  0  0  0  0
 35 36  1  0  0  0  0
 36 37  1  0  0  0  0
 37 38  1  0  0  0  0
 38 39  1  0  0  0  0
 39 40  1  0  0  0  0
 38 41  2  0  0  0  0
 41 42  1  0  0  0  0
 42 43  1  0  0  0  0
 43 44  1  0  0  0  0
 44 45  1  0  0  0  0
 45 46  1  0  0  0  0
 46 47  1  0  0  0  0
 47 48  1  0  0  0  0
 48 49  1  0  0  0  0
 49 50  1  0  0  0  0
 50 51  1  0  0  0  0
 48 52  1  0  0  0  0
 52 53  1  0  0  0  0
 45 54  1  0  0  0  0
 54 55  1  0  0  0  0
 41 56  1  0  0  0  0
 56 57  2  0  0  0  0
 57 58  1  0  0  0  0
 58 59  2  0  0  0  0
 58 60  1  0  0  0  0
 60 61  2  0  0  0  0
 61 62  1  0  0  0  0
 61 63  1  0  0  0  0
 63 64  1  0  0  0  0
 63 65  2  0  0  0  0
 65 66  1  0  0  0  0
 65 67  1  0  0  0  0
 67 68  1  0  0  0  0
 67 69  2  0  0  0  0
 69 70  1  0  0  0  0
 70 71  2  0  0  0  0
 71 72  1  0  0  0  0
 72 73  3  0  0  0  0
 71 74  1  0  0  0  0
 74 75  3  0  0  0  0
 15  2  1  0  0  0  0
 51 21  1  0  0  0  0
 70 57  1  0  0  0  0
 14  5  1  0  0  0  0
 50 25  2  0  0  0  0
 69 60  1  0  0  0  0
 14  9  1  0  0  0  0
 49 27  2  0  0  0  0
 47 28  2  0  0  0  0
 33 29  2  0  0  0  0
 46 34  2  0  0  0  0
 44 35  2  0  0  0  0
 43 37  2  0  0  0  0
  1 76  1  0  0  0  0
  7 77  1  0  0  0  0
  8 78  1  0  0  0  0
 10 79  1  0  0  0  0
 11 80  1  0  0  0  0
 12 81  1  0  0  0  0
 13 82  1  0  0  0  0
 23 83  1  0  0  0  0
 23 84  1  0  0  0  0
 24 85  1  0  0  0  0
 24 86  1  0  0  0  0
 24 87  1  0  0  0  0
 39 88  1  0  0  0  0
 39 89  1  0  0  0  0
 40 90  1  0  0  0  0
 40 91  1  0  0  0  0
 40 92  1  0  0  0  0
 52 93  1  0  0  0  0
 52 94  1  0  0  0  0
 53 95  1  0  0  0  0
 53 96  1  0  0  0  0
 53 97  1  0  0  0  0
 54 98  1  0  0  0  0
 54 99  1  0  0  0  0
 55100  1  0  0  0  0
 55101  1  0  0  0  0
 55102  1  0  0  0  0
 56103  1  0  0  0  0
M  END
