
  xtb     02012215483D
 energy: -224.579150242800 gnorm: 0.000458083271 xtb: 6.4.1 (unknown)
139153  0     0  0            999 V2000
    6.8021   -1.2828    2.0736 C   0  0  0  0  0  0  0  0  0  0  0  0
    8.0807   -0.8739    1.7895 C   0  0  0  0  0  0  0  0  0  0  0  0
    8.4907   -0.0915    0.6188 C   0  0  0  0  0  0  0  0  0  0  0  0
    7.7631    0.3366   -0.2637 O   0  0  0  0  0  0  0  0  0  0  0  0
    9.9508    0.0690    0.7217 C   0  0  0  0  0  0  0  0  0  0  0  0
   10.4003   -0.5645    1.8792 C   0  0  0  0  0  0  0  0  0  0  0  0
   11.7637   -0.5621    2.2019 C   0  0  0  0  0  0  0  0  0  0  0  0
   12.6411    0.0728    1.3612 C   0  0  0  0  0  0  0  0  0  0  0  0
   12.2152    0.7245    0.1841 C   0  0  0  0  0  0  0  0  0  0  0  0
   13.1249    1.3756   -0.6740 C   0  0  0  0  0  0  0  0  0  0  0  0
   12.6871    2.0004   -1.8089 C   0  0  0  0  0  0  0  0  0  0  0  0
   11.3219    2.0040   -2.1388 C   0  0  0  0  0  0  0  0  0  0  0  0
   10.4091    1.3829   -1.3323 C   0  0  0  0  0  0  0  0  0  0  0  0
   10.8311    0.7300   -0.1558 C   0  0  0  0  0  0  0  0  0  0  0  0
    9.2608   -1.1557    2.5795 C   0  0  0  0  0  0  0  0  0  0  0  0
    9.3267   -1.8400    3.7665 C   0  0  0  0  0  0  0  0  0  0  0  0
   10.5142   -2.0808    4.4890 C   0  0  0  0  0  0  0  0  0  0  0  0
   11.4331   -2.3191    5.1354 N   0  0  0  0  0  0  0  0  0  0  0  0
    8.2334   -2.4054    4.4552 C   0  0  0  0  0  0  0  0  0  0  0  0
    7.4061   -2.8942    5.0858 N   0  0  0  0  0  0  0  0  0  0  0  0
    5.6035   -1.0867    1.3773 C   0  0  0  0  0  0  0  0  0  0  0  0
    5.3904   -0.1988   -0.1270 S   0  0  0  0  0  0  0  0  0  0  0  0
    3.7229   -0.5765   -0.1066 C   0  0  0  0  0  0  0  0  0  0  0  0
    2.5887   -0.3658   -0.9275 C   0  0  0  0  0  0  0  0  0  0  0  0
    1.4774   -0.9714   -0.3496 C   0  0  0  0  0  0  0  0  0  0  0  0
    1.8499   -1.6457    0.9540 C   0  0  0  0  0  0  0  0  0  0  0  0
    3.3349   -1.3478    0.9984 C   0  0  0  0  0  0  0  0  0  0  0  0
    4.3914   -1.6271    1.8333 C   0  0  0  0  0  0  0  0  0  0  0  0
    1.5539   -3.1298    0.8178 C   0  0  0  0  0  0  0  0  0  0  0  0
    0.4111   -3.6908    1.3729 C   0  0  0  0  0  0  0  0  0  0  0  0
    0.1304   -5.0327    1.1909 C   0  0  0  0  0  0  0  0  0  0  0  0
    0.9744   -5.8458    0.4465 C   0  0  0  0  0  0  0  0  0  0  0  0
    0.6891   -7.3113    0.2918 C   0  0  0  0  0  0  0  0  0  0  0  0
    1.3130   -8.1006    1.4446 C   0  0  0  0  0  0  0  0  0  0  0  0
    2.1119   -5.2777   -0.1123 C   0  0  0  0  0  0  0  0  0  0  0  0
    2.3964   -3.9370    0.0644 C   0  0  0  0  0  0  0  0  0  0  0  0
    1.2223   -1.0343    2.1916 C   0  0  0  0  0  0  0  0  0  0  0  0
    1.4646   -1.6307    3.4251 C   0  0  0  0  0  0  0  0  0  0  0  0
    0.9699   -1.0728    4.5861 C   0  0  0  0  0  0  0  0  0  0  0  0
    0.2250    0.1003    4.5505 C   0  0  0  0  0  0  0  0  0  0  0  0
   -0.2562    0.7368    5.8223 C   0  0  0  0  0  0  0  0  0  0  0  0
    0.8581    1.5722    6.4561 C   0  0  0  0  0  0  0  0  0  0  0  0
   -0.0163    0.6877    3.3178 C   0  0  0  0  0  0  0  0  0  0  0  0
    0.4728    0.1306    2.1483 C   0  0  0  0  0  0  0  0  0  0  0  0
    0.3045   -0.9022   -1.1209 C   0  0  0  0  0  0  0  0  0  0  0  0
   -0.9747   -1.6002   -0.9353 C   0  0  0  0  0  0  0  0  0  0  0  0
   -1.9624   -1.0234   -1.5936 C   0  0  0  0  0  0  0  0  0  0  0  0
   -0.6111    1.4884   -4.5321 Se  0  0  0  0  0  2  0  0  0  0  0  0
   -2.2687    1.9405   -3.7625 C   0  0  0  0  0  0  0  0  0  0  0  0
   -3.2127    2.9805   -3.8858 C   0  0  0  0  0  0  0  0  0  0  0  0
   -4.2876    2.7440   -3.0174 C   0  0  0  0  0  0  0  0  0  0  0  0
   -4.0395    1.4897   -2.2194 C   0  0  0  0  0  0  0  0  0  0  0  0
   -3.9491    1.8675   -0.7505 C   0  0  0  0  0  0  0  0  0  0  0  0
   -2.7335    2.1507   -0.1471 C   0  0  0  0  0  0  0  0  0  0  0  0
   -2.6850    2.5187    1.1851 C   0  0  0  0  0  0  0  0  0  0  0  0
   -3.8425    2.6155    1.9431 C   0  0  0  0  0  0  0  0  0  0  0  0
   -3.7874    2.9462    3.4069 C   0  0  0  0  0  0  0  0  0  0  0  0
   -3.8930    1.6695    4.2440 C   0  0  0  0  0  0  0  0  0  0  0  0
   -5.0592    2.3528    1.3249 C   0  0  0  0  0  0  0  0  0  0  0  0
   -5.1157    1.9892   -0.0061 C   0  0  0  0  0  0  0  0  0  0  0  0
   -5.0528    0.3812   -2.4362 C   0  0  0  0  0  0  0  0  0  0  0  0
   -6.0176    0.4471   -3.4295 C   0  0  0  0  0  0  0  0  0  0  0  0
   -6.8976   -0.6039   -3.6168 C   0  0  0  0  0  0  0  0  0  0  0  0
   -6.8301   -1.7439   -2.8283 C   0  0  0  0  0  0  0  0  0  0  0  0
   -7.8150   -2.8628   -3.0083 C   0  0  0  0  0  0  0  0  0  0  0  0
   -9.0524   -2.6290   -2.1393 C   0  0  0  0  0  0  0  0  0  0  0  0
   -5.8571   -1.8052   -1.8382 C   0  0  0  0  0  0  0  0  0  0  0  0
   -4.9793   -0.7573   -1.6434 C   0  0  0  0  0  0  0  0  0  0  0  0
   -2.7126    1.0516   -2.7955 C   0  0  0  0  0  0  0  0  0  0  0  0
   -1.9121   -0.0620   -2.5398 C   0  0  0  0  0  0  0  0  0  0  0  0
   -0.6303   -0.1238   -3.3490 C   0  0  0  0  0  0  0  0  0  0  0  0
    0.4736   -0.2179   -2.3211 C   0  0  0  0  0  0  0  0  0  0  0  0
    2.2070    0.4116   -2.5748 Se  0  0  0  0  0  2  0  0  0  0  0  0
   -5.2762    3.7062   -3.0904 C   0  0  0  0  0  0  0  0  0  0  0  0
   -4.9841    4.6959   -4.0242 C   0  0  0  0  0  0  0  0  0  0  0  0
   -3.4232    4.4084   -4.8043 S   0  0  0  0  0  0  0  0  0  0  0  0
   -5.6912    5.8369   -4.4476 C   0  0  0  0  0  0  0  0  0  0  0  0
   -6.9245    6.3146   -4.1119 C   0  0  0  0  0  0  0  0  0  0  0  0
   -7.4891    7.8027   -4.8731 S   0  0  0  0  0  0  0  0  0  0  0  0
   -9.0505    7.7335   -4.0161 C   0  0  0  0  0  0  0  0  0  0  0  0
   -9.9288    8.5392   -4.1328 O   0  0  0  0  0  0  0  0  0  0  0  0
   -9.0578    6.6276   -3.2178 N   0  0  0  0  0  0  0  0  0  0  0  0
  -10.2329    6.3093   -2.4234 C   0  0  0  0  0  0  0  0  0  0  0  0
  -11.2820    5.5859   -3.2577 C   0  0  0  0  0  0  0  0  0  0  0  0
   -7.9447    5.7989   -3.2084 C   0  0  0  0  0  0  0  0  0  0  0  0
   -7.8999    4.8025   -2.5160 O   0  0  0  0  0  0  0  0  0  0  0  0
    6.6698   -1.8657    2.9771 H   0  0  0  0  0  0  0  0  0  0  0  0
   12.1248   -1.0499    3.0918 H   0  0  0  0  0  0  0  0  0  0  0  0
   13.6954    0.0807    1.5974 H   0  0  0  0  0  0  0  0  0  0  0  0
   14.1744    1.3712   -0.4171 H   0  0  0  0  0  0  0  0  0  0  0  0
   13.3904    2.4967   -2.4611 H   0  0  0  0  0  0  0  0  0  0  0  0
   10.9978    2.5038   -3.0393 H   0  0  0  0  0  0  0  0  0  0  0  0
    9.3586    1.3796   -1.5765 H   0  0  0  0  0  0  0  0  0  0  0  0
    4.3387   -2.2033    2.7395 H   0  0  0  0  0  0  0  0  0  0  0  0
   -0.2609   -3.0787    1.9576 H   0  0  0  0  0  0  0  0  0  0  0  0
   -0.7630   -5.4525    1.6313 H   0  0  0  0  0  0  0  0  0  0  0  0
    1.0991   -7.6708   -0.6540 H   0  0  0  0  0  0  0  0  0  0  0  0
   -0.3898   -7.4796    0.2832 H   0  0  0  0  0  0  0  0  0  0  0  0
    2.3908   -7.9553    1.4627 H   0  0  0  0  0  0  0  0  0  0  0  0
    0.9070   -7.7651    2.3964 H   0  0  0  0  0  0  0  0  0  0  0  0
    1.1072   -9.1625    1.3338 H   0  0  0  0  0  0  0  0  0  0  0  0
    2.7818   -5.8911   -0.6977 H   0  0  0  0  0  0  0  0  0  0  0  0
    3.2824   -3.5141   -0.3868 H   0  0  0  0  0  0  0  0  0  0  0  0
    2.0363   -2.5458    3.4714 H   0  0  0  0  0  0  0  0  0  0  0  0
    1.1664   -1.5518    5.5345 H   0  0  0  0  0  0  0  0  0  0  0  0
   -0.5697   -0.0367    6.5269 H   0  0  0  0  0  0  0  0  0  0  0  0
   -1.1137    1.3794    5.6161 H   0  0  0  0  0  0  0  0  0  0  0  0
    1.1760    2.3578    5.7741 H   0  0  0  0  0  0  0  0  0  0  0  0
    0.5108    2.0320    7.3783 H   0  0  0  0  0  0  0  0  0  0  0  0
    1.7195    0.9480    6.6823 H   0  0  0  0  0  0  0  0  0  0  0  0
   -0.5946    1.5986    3.2710 H   0  0  0  0  0  0  0  0  0  0  0  0
    0.2664    0.6096    1.2024 H   0  0  0  0  0  0  0  0  0  0  0  0
   -1.0179   -2.5058   -0.3579 H   0  0  0  0  0  0  0  0  0  0  0  0
   -1.8160    2.0845   -0.7134 H   0  0  0  0  0  0  0  0  0  0  0  0
   -1.7284    2.7420    1.6344 H   0  0  0  0  0  0  0  0  0  0  0  0
   -4.6109    3.6147    3.6669 H   0  0  0  0  0  0  0  0  0  0  0  0
   -2.8503    3.4568    3.6381 H   0  0  0  0  0  0  0  0  0  0  0  0
   -3.0880    0.9819    3.9918 H   0  0  0  0  0  0  0  0  0  0  0  0
   -4.8389    1.1686    4.0514 H   0  0  0  0  0  0  0  0  0  0  0  0
   -3.8358    1.9031    5.3050 H   0  0  0  0  0  0  0  0  0  0  0  0
   -5.9747    2.4390    1.8922 H   0  0  0  0  0  0  0  0  0  0  0  0
   -6.0699    1.7927   -0.4719 H   0  0  0  0  0  0  0  0  0  0  0  0
   -6.0888    1.3213   -4.0593 H   0  0  0  0  0  0  0  0  0  0  0  0
   -7.6456   -0.5366   -4.3938 H   0  0  0  0  0  0  0  0  0  0  0  0
   -7.3526   -3.8116   -2.7286 H   0  0  0  0  0  0  0  0  0  0  0  0
   -8.1175   -2.9251   -4.0555 H   0  0  0  0  0  0  0  0  0  0  0  0
   -9.5332   -1.6920   -2.4110 H   0  0  0  0  0  0  0  0  0  0  0  0
   -8.7726   -2.5775   -1.0895 H   0  0  0  0  0  0  0  0  0  0  0  0
   -9.7678   -3.4376   -2.2697 H   0  0  0  0  0  0  0  0  0  0  0  0
   -5.7846   -2.6848   -1.2146 H   0  0  0  0  0  0  0  0  0  0  0  0
   -4.2198   -0.8231   -0.8751 H   0  0  0  0  0  0  0  0  0  0  0  0
   -0.5491   -0.9861   -4.0269 H   0  0  0  0  0  0  0  0  0  0  0  0
   -6.1804    3.7154   -2.5116 H   0  0  0  0  0  0  0  0  0  0  0  0
   -5.1615    6.4357   -5.1807 H   0  0  0  0  0  0  0  0  0  0  0  0
   -9.8899    5.6763   -1.6017 H   0  0  0  0  0  0  0  0  0  0  0  0
  -10.6357    7.2469   -2.0341 H   0  0  0  0  0  0  0  0  0  0  0  0
  -11.6058    6.2169   -4.0820 H   0  0  0  0  0  0  0  0  0  0  0  0
  -10.8739    4.6598   -3.6562 H   0  0  0  0  0  0  0  0  0  0  0  0
  -12.1428    5.3512   -2.6382 H   0  0  0  0  0  0  0  0  0  0  0  0
  1  2  2  0  0  0  0
  2  3  1  0  0  0  0
  3  4  2  0  0  0  0
  3  5  1  0  0  0  0
  5  6  2  0  0  0  0
  6  7  1  0  0  0  0
  7  8  2  0  0  0  0
  8  9  1  0  0  0  0
  9 10  2  0  0  0  0
 10 11  1  0  0  0  0
 11 12  2  0  0  0  0
 12 13  1  0  0  0  0
 13 14  2  0  0  0  0
  6 15  1  0  0  0  0
 15 16  2  0  0  0  0
 16 17  1  0  0  0  0
 17 18  3  0  0  0  0
 16 19  1  0  0  0  0
 19 20  3  0  0  0  0
  1 21  1  0  0  0  0
 21 22  1  0  0  0  0
 22 23  1  0  0  0  0
 23 24  1  0  0  0  0
 24 25  2  0  0  0  0
 25 26  1  0  0  0  0
 26 27  1  0  0  0  0
 27 28  1  0  0  0  0
 26 29  1  0  0  0  0
 29 30  2  0  0  0  0
 30 31  1  0  0  0  0
 31 32  2  0  0  0  0
 32 33  1  0  0  0  0
 33 34  1  0  0  0  0
 32 35  1  0  0  0  0
 35 36  2  0  0  0  0
 26 37  1  0  0  0  0
 37 38  2  0  0  0  0
 38 39  1  0  0  0  0
 39 40  2  0  0  0  0
 40 41  1  0  0  0  0
 41 42  1  0  0  0  0
 40 43  1  0  0  0  0
 43 44  2  0  0  0  0
 25 45  1  0  0  0  0
 45 46  2  0  0  0  0
 46 47  1  0  0  0  0
 47 48  1  0  0  0  0
 48 49  1  0  0  0  0
 49 50  1  0  0  0  0
 50 51  2  0  0  0  0
 51 52  1  0  0  0  0
 52 53  1  0  0  0  0
 53 54  2  0  0  0  0
 54 55  1  0  0  0  0
 55 56  2  0  0  0  0
 56 57  1  0  0  0  0
 57 58  1  0  0  0  0
 56 59  1  0  0  0  0
 59 60  2  0  0  0  0
 52 61  1  0  0  0  0
 61 62  2  0  0  0  0
 62 63  1  0  0  0  0
 63 64  2  0  0  0  0
 64 65  1  0  0  0  0
 65 66  1  0  0  0  0
 64 67  1  0  0  0  0
 67 68  2  0  0  0  0
 52 69  1  0  0  0  0
 69 70  1  0  0  0  0
 70 71  1  0  0  0  0
 71 72  2  0  0  0  0
 72 73  1  0  0  0  0
 51 74  1  0  0  0  0
 74 75  2  0  0  0  0
 75 76  1  0  0  0  0
 75 77  1  0  0  0  0
 77 78  2  0  0  0  0
 78 79  1  0  0  0  0
 79 80  1  0  0  0  0
 80 81  2  0  0  0  0
 80 82  1  0  0  0  0
 82 83  1  0  0  0  0
 83 84  1  0  0  0  0
 82 85  1  0  0  0  0
 85 86  2  0  0  0  0
 15  2  1  0  0  0  0
 28 21  2  0  0  0  0
 36 29  1  0  0  0  0
 44 37  1  0  0  0  0
 72 45  1  0  0  0  0
 85 78  1  0  0  0  0
 14  5  1  0  0  0  0
 27 23  2  0  0  0  0
 70 47  2  0  0  0  0
 14  9  1  0  0  0  0
 73 24  1  0  0  0  0
 69 49  2  0  0  0  0
 76 50  1  0  0  0  0
 60 53  1  0  0  0  0
 68 61  1  0  0  0  0
  1 87  1  0  0  0  0
  7 88  1  0  0  0  0
  8 89  1  0  0  0  0
 10 90  1  0  0  0  0
 11 91  1  0  0  0  0
 12 92  1  0  0  0  0
 13 93  1  0  0  0  0
 28 94  1  0  0  0  0
 30 95  1  0  0  0  0
 31 96  1  0  0  0  0
 33 97  1  0  0  0  0
 33 98  1  0  0  0  0
 34 99  1  0  0  0  0
 34100  1  0  0  0  0
 34101  1  0  0  0  0
 35102  1  0  0  0  0
 36103  1  0  0  0  0
 38104  1  0  0  0  0
 39105  1  0  0  0  0
 41106  1  0  0  0  0
 41107  1  0  0  0  0
 42108  1  0  0  0  0
 42109  1  0  0  0  0
 42110  1  0  0  0  0
 43111  1  0  0  0  0
 44112  1  0  0  0  0
 46113  1  0  0  0  0
 54114  1  0  0  0  0
 55115  1  0  0  0  0
 57116  1  0  0  0  0
 57117  1  0  0  0  0
 58118  1  0  0  0  0
 58119  1  0  0  0  0
 58120  1  0  0  0  0
 59121  1  0  0  0  0
 60122  1  0  0  0  0
 62123  1  0  0  0  0
 63124  1  0  0  0  0
 65125  1  0  0  0  0
 65126  1  0  0  0  0
 66127  1  0  0  0  0
 66128  1  0  0  0  0
 66129  1  0  0  0  0
 67130  1  0  0  0  0
 68131  1  0  0  0  0
 71132  1  0  0  0  0
 74133  1  0  0  0  0
 77134  1  0  0  0  0
 83135  1  0  0  0  0
 83136  1  0  0  0  0
 84137  1  0  0  0  0
 84138  1  0  0  0  0
 84139  1  0  0  0  0
M  END
