
  xtb     02112205253D
 energy: -179.548367909000 gnorm: 0.000555129073 xtb: 6.4.1 (unknown)
 91103  0     0  0            999 V2000
    5.2664   -5.8857    2.3771 C   0  0  0  0  0  0  0  0  0  0  0  0
    6.4546   -5.7709    1.7000 C   0  0  0  0  0  0  0  0  0  0  0  0
    6.7825   -4.7225    0.7398 C   0  0  0  0  0  0  0  0  0  0  0  0
    6.0483   -3.8000    0.3939 O   0  0  0  0  0  0  0  0  0  0  0  0
    8.1481   -4.9886    0.2736 C   0  0  0  0  0  0  0  0  0  0  0  0
    8.6274   -6.1361    0.9071 C   0  0  0  0  0  0  0  0  0  0  0  0
    9.9172   -6.6077    0.6330 C   0  0  0  0  0  0  0  0  0  0  0  0
   10.6949   -5.9222   -0.2651 C   0  0  0  0  0  0  0  0  0  0  0  0
   10.2379   -4.7594   -0.9210 C   0  0  0  0  0  0  0  0  0  0  0  0
   11.0456   -4.0625   -1.8431 C   0  0  0  0  0  0  0  0  0  0  0  0
   10.5798   -2.9382   -2.4668 C   0  0  0  0  0  0  0  0  0  0  0  0
    9.2876   -2.4582   -2.1982 C   0  0  0  0  0  0  0  0  0  0  0  0
    8.4743   -3.1061   -1.3099 C   0  0  0  0  0  0  0  0  0  0  0  0
    8.9271   -4.2679   -0.6523 C   0  0  0  0  0  0  0  0  0  0  0  0
    7.5972   -6.6579    1.8047 C   0  0  0  0  0  0  0  0  0  0  0  0
    7.7134   -7.7805    2.5811 C   0  0  0  0  0  0  0  0  0  0  0  0
    8.8564   -8.6075    2.6302 C   0  0  0  0  0  0  0  0  0  0  0  0
    9.7460   -9.3263    2.7288 N   0  0  0  0  0  0  0  0  0  0  0  0
    6.7201   -8.2908    3.4444 C   0  0  0  0  0  0  0  0  0  0  0  0
    5.9697   -8.7759    4.1662 N   0  0  0  0  0  0  0  0  0  0  0  0
    4.1086   -5.0949    2.3360 C   0  0  0  0  0  0  0  0  0  0  0  0
    2.9952   -5.4216    3.1128 C   0  0  0  0  0  0  0  0  0  0  0  0
    1.9100   -4.5770    2.9701 C   0  0  0  0  0  0  0  0  0  0  0  0
    0.3162   -4.6404    3.7014 S   0  0  0  0  0  0  0  0  0  0  0  0
   -0.1182   -3.2353    2.7949 C   0  0  0  0  0  0  0  0  0  0  0  0
   -1.2405   -2.4340    2.5516 C   0  0  0  0  0  0  0  0  0  0  0  0
   -2.5794   -2.5744    2.9793 C   0  0  0  0  0  0  0  0  0  0  0  0
   -3.5736   -1.6989    2.4346 C   0  0  0  0  0  0  0  0  0  0  0  0
   -4.7915   -1.9831    2.8679 N   0  0  0  0  0  0  0  0  0  0  0  0
   -4.6936   -3.2420    3.8806 S   0  0  0  0  0  0  0  0  0  0  0  0
   -3.0947   -3.4741    3.8022 N   0  0  0  0  0  0  0  0  0  0  0  0
   -3.1612   -0.6467    1.5873 C   0  0  0  0  0  0  0  0  0  0  0  0
   -3.8879    0.4089    1.0238 C   0  0  0  0  0  0  0  0  0  0  0  0
   -2.9628    1.2558    0.3970 C   0  0  0  0  0  0  0  0  0  0  0  0
   -1.6981    0.7449    0.5386 N   0  0  0  0  0  0  0  0  0  0  0  0
   -0.5601    1.5900    0.2615 C   0  0  0  0  0  0  0  0  0  0  0  0
   -0.2155    1.6281   -1.2267 C   0  0  0  0  0  0  0  0  0  0  0  0
   -1.7914   -0.4415    1.2433 C   0  0  0  0  0  0  0  0  0  0  0  0
   -0.8386   -1.4202    1.6301 C   0  0  0  0  0  0  0  0  0  0  0  0
    0.4935   -1.6303    1.3104 N   0  0  0  0  0  0  0  0  0  0  0  0
    0.9190   -2.7376    1.9982 C   0  0  0  0  0  0  0  0  0  0  0  0
    2.0865   -3.5031    2.0736 C   0  0  0  0  0  0  0  0  0  0  0  0
    3.7866   -3.5370    1.3001 Se  0  0  0  0  0  2  0  0  0  0  0  0
    1.2587   -1.2300    0.1512 C   0  0  0  0  0  0  0  0  0  0  0  0
    0.8561   -2.0439   -1.0764 C   0  0  0  0  0  0  0  0  0  0  0  0
   -3.5649    2.3871   -0.1569 C   0  0  0  0  0  0  0  0  0  0  0  0
   -4.9653    2.3665    0.0441 C   0  0  0  0  0  0  0  0  0  0  0  0
   -5.5194    0.9613    0.9284 S   0  0  0  0  0  0  0  0  0  0  0  0
   -5.6835    3.4308   -0.4772 C   0  0  0  0  0  0  0  0  0  0  0  0
   -4.9100    4.3830   -1.1246 C   0  0  0  0  0  0  0  0  0  0  0  0
   -3.0544    3.9193   -1.0799 Se  0  0  0  0  0  2  0  0  0  0  0  0
   -5.2307    5.5832   -1.7741 C   0  0  0  0  0  0  0  0  0  0  0  0
   -6.4321    6.1822   -2.0687 C   0  0  0  0  0  0  0  0  0  0  0  0
   -7.7968    5.6592   -1.8637 C   0  0  0  0  0  0  0  0  0  0  0  0
   -8.1579    4.6561   -1.2841 O   0  0  0  0  0  0  0  0  0  0  0  0
   -8.6969    6.6234   -2.5361 C   0  0  0  0  0  0  0  0  0  0  0  0
  -10.0696    6.5530   -2.6669 C   0  0  0  0  0  0  0  0  0  0  0  0
  -10.7016    7.5749   -3.3563 C   0  0  0  0  0  0  0  0  0  0  0  0
  -12.0309    7.5482   -3.5120 F   0  0  0  0  0  0  0  0  0  0  0  0
   -9.9645    8.6310   -3.8927 C   0  0  0  0  0  0  0  0  0  0  0  0
  -10.5995    9.6020   -4.5590 F   0  0  0  0  0  0  0  0  0  0  0  0
   -8.5860    8.7022   -3.7566 C   0  0  0  0  0  0  0  0  0  0  0  0
   -7.9465    7.6828   -3.0680 C   0  0  0  0  0  0  0  0  0  0  0  0
   -6.5354    7.4591   -2.7532 C   0  0  0  0  0  0  0  0  0  0  0  0
   -5.5264    8.3467   -3.0274 C   0  0  0  0  0  0  0  0  0  0  0  0
   -4.1668    8.2030   -2.6772 C   0  0  0  0  0  0  0  0  0  0  0  0
   -3.0465    8.1794   -2.4229 N   0  0  0  0  0  0  0  0  0  0  0  0
   -5.7174    9.5771   -3.6924 C   0  0  0  0  0  0  0  0  0  0  0  0
   -5.7993   10.5877   -4.2304 N   0  0  0  0  0  0  0  0  0  0  0  0
    5.1792   -6.7216    3.0621 H   0  0  0  0  0  0  0  0  0  0  0  0
   10.2998   -7.4920    1.1145 H   0  0  0  0  0  0  0  0  0  0  0  0
   11.6919   -6.2754   -0.4853 H   0  0  0  0  0  0  0  0  0  0  0  0
   12.0393   -4.4342   -2.0470 H   0  0  0  0  0  0  0  0  0  0  0  0
   11.2044   -2.4102   -3.1721 H   0  0  0  0  0  0  0  0  0  0  0  0
    8.9399   -1.5685   -2.7017 H   0  0  0  0  0  0  0  0  0  0  0  0
    7.4805   -2.7453   -1.0964 H   0  0  0  0  0  0  0  0  0  0  0  0
    2.9918   -6.2788    3.7650 H   0  0  0  0  0  0  0  0  0  0  0  0
    0.2813    1.2657    0.8757 H   0  0  0  0  0  0  0  0  0  0  0  0
   -0.8233    2.6072    0.5811 H   0  0  0  0  0  0  0  0  0  0  0  0
   -1.0131    2.1237   -1.7792 H   0  0  0  0  0  0  0  0  0  0  0  0
    0.7026    2.1888   -1.3784 H   0  0  0  0  0  0  0  0  0  0  0  0
   -0.0951    0.6294   -1.6369 H   0  0  0  0  0  0  0  0  0  0  0  0
    1.1501   -0.1696   -0.0463 H   0  0  0  0  0  0  0  0  0  0  0  0
    2.3131   -1.4221    0.3869 H   0  0  0  0  0  0  0  0  0  0  0  0
    1.4451   -1.7351   -1.9355 H   0  0  0  0  0  0  0  0  0  0  0  0
    1.0337   -3.1026   -0.8996 H   0  0  0  0  0  0  0  0  0  0  0  0
   -0.2002   -1.9040   -1.2993 H   0  0  0  0  0  0  0  0  0  0  0  0
   -6.7527    3.5219   -0.3991 H   0  0  0  0  0  0  0  0  0  0  0  0
   -4.3538    6.1186   -2.1236 H   0  0  0  0  0  0  0  0  0  0  0  0
  -10.6334    5.7333   -2.2509 H   0  0  0  0  0  0  0  0  0  0  0  0
   -8.0656    9.5389   -4.1921 H   0  0  0  0  0  0  0  0  0  0  0  0
  1  2  2  0  0  0  0
  2  3  1  0  0  0  0
  3  4  2  0  0  0  0
  3  5  1  0  0  0  0
  5  6  2  0  0  0  0
  6  7  1  0  0  0  0
  7  8  2  0  0  0  0
  8  9  1  0  0  0  0
  9 10  2  0  0  0  0
 10 11  1  0  0  0  0
 11 12  2  0  0  0  0
 12 13  1  0  0  0  0
 13 14  2  0  0  0  0
  6 15  1  0  0  0  0
 15 16  2  0  0  0  0
 16 17  1  0  0  0  0
 17 18  3  0  0  0  0
 16 19  1  0  0  0  0
 19 20  3  0  0  0  0
  1 21  1  0  0  0  0
 21 22  2  0  0  0  0
 22 23  1  0  0  0  0
 23 24  1  0  0  0  0
 24 25  1  0  0  0  0
 25 26  1  0  0  0  0
 26 27  1  0  0  0  0
 27 28  1  0  0  0  0
 28 29  2  0  0  0  0
 29 30  1  0  0  0  0
 30 31  1  0  0  0  0
 28 32  1  0  0  0  0
 32 33  1  0  0  0  0
 33 34  2  0  0  0  0
 34 35  1  0  0  0  0
 35 36  1  0  0  0  0
 36 37  1  0  0  0  0
 35 38  1  0  0  0  0
 38 39  1  0  0  0  0
 39 40  1  0  0  0  0
 40 41  1  0  0  0  0
 41 42  1  0  0  0  0
 42 43  1  0  0  0  0
 40 44  1  0  0  0  0
 44 45  1  0  0  0  0
 34 46  1  0  0  0  0
 46 47  2  0  0  0  0
 47 48  1  0  0  0  0
 47 49  1  0  0  0  0
 49 50  2  0  0  0  0
 50 51  1  0  0  0  0
 50 52  1  0  0  0  0
 52 53  2  0  0  0  0
 53 54  1  0  0  0  0
 54 55  2  0  0  0  0
 54 56  1  0  0  0  0
 56 57  2  0  0  0  0
 57 58  1  0  0  0  0
 58 59  1  0  0  0  0
 58 60  2  0  0  0  0
 60 61  1  0  0  0  0
 60 62  1  0  0  0  0
 62 63  2  0  0  0  0
 63 64  1  0  0  0  0
 64 65  2  0  0  0  0
 65 66  1  0  0  0  0
 66 67  3  0  0  0  0
 65 68  1  0  0  0  0
 68 69  3  0  0  0  0
 15  2  1  0  0  0  0
 43 21  1  0  0  0  0
 51 46  1  0  0  0  0
 64 53  1  0  0  0  0
 14  5  1  0  0  0  0
 42 23  2  0  0  0  0
 63 56  1  0  0  0  0
 14  9  1  0  0  0  0
 41 25  2  0  0  0  0
 39 26  2  0  0  0  0
 31 27  2  0  0  0  0
 38 32  2  0  0  0  0
 48 33  1  0  0  0  0
  1 70  1  0  0  0  0
  7 71  1  0  0  0  0
  8 72  1  0  0  0  0
 10 73  1  0  0  0  0
 11 74  1  0  0  0  0
 12 75  1  0  0  0  0
 13 76  1  0  0  0  0
 22 77  1  0  0  0  0
 36 78  1  0  0  0  0
 36 79  1  0  0  0  0
 37 80  1  0  0  0  0
 37 81  1  0  0  0  0
 37 82  1  0  0  0  0
 44 83  1  0  0  0  0
 44 84  1  0  0  0  0
 45 85  1  0  0  0  0
 45 86  1  0  0  0  0
 45 87  1  0  0  0  0
 49 88  1  0  0  0  0
 52 89  1  0  0  0  0
 57 90  1  0  0  0  0
 62 91  1  0  0  0  0
M  END
