
  xtb     02112200033D
 energy: -187.981569784370 gnorm: 0.000288911788 xtb: 6.4.1 (unknown)
107121  0     0  0            999 V2000
    5.3202    4.8666   -4.6215 C   0  0  0  0  0  0  0  0  0  0  0  0
    4.7929    5.9361   -5.2731 C   0  0  0  0  0  0  0  0  0  0  0  0
    5.6515    6.8501   -6.0738 C   0  0  0  0  0  0  0  0  0  0  0  0
    6.7925    6.6350   -6.4224 O   0  0  0  0  0  0  0  0  0  0  0  0
    4.8298    8.0566   -6.2901 C   0  0  0  0  0  0  0  0  0  0  0  0
    3.5430    7.8377   -5.7969 C   0  0  0  0  0  0  0  0  0  0  0  0
    2.5724    8.8456   -5.8528 C   0  0  0  0  0  0  0  0  0  0  0  0
    2.9082   10.0506   -6.4121 C   0  0  0  0  0  0  0  0  0  0  0  0
    4.1947   10.2996   -6.9388 C   0  0  0  0  0  0  0  0  0  0  0  0
    4.5257   11.5367   -7.5280 C   0  0  0  0  0  0  0  0  0  0  0  0
    5.7782   11.7568   -8.0314 C   0  0  0  0  0  0  0  0  0  0  0  0
    6.7582   10.7532   -7.9676 C   0  0  0  0  0  0  0  0  0  0  0  0
    6.4762    9.5401   -7.4028 C   0  0  0  0  0  0  0  0  0  0  0  0
    5.1928    9.2836   -6.8787 C   0  0  0  0  0  0  0  0  0  0  0  0
    3.4464    6.4686   -5.3024 C   0  0  0  0  0  0  0  0  0  0  0  0
    2.2869    5.7432   -5.1980 C   0  0  0  0  0  0  0  0  0  0  0  0
    2.2593    4.3464   -5.0033 C   0  0  0  0  0  0  0  0  0  0  0  0
    2.1891    3.2041   -4.9037 N   0  0  0  0  0  0  0  0  0  0  0  0
    0.9973    6.2808   -5.3833 C   0  0  0  0  0  0  0  0  0  0  0  0
   -0.0763    6.6632   -5.5216 N   0  0  0  0  0  0  0  0  0  0  0  0
    4.7383    4.1540   -3.5402 C   0  0  0  0  0  0  0  0  0  0  0  0
    3.6331    5.0179   -2.2352 Se  0  0  0  0  0  2  0  0  0  0  0  0
    3.4837    3.3492   -1.4703 C   0  0  0  0  0  0  0  0  0  0  0  0
    2.8608    2.7203   -0.3870 C   0  0  0  0  0  0  0  0  0  0  0  0
    2.1660    3.2644    0.7125 C   0  0  0  0  0  0  0  0  0  0  0  0
    1.7156    2.3871    1.7517 C   0  0  0  0  0  0  0  0  0  0  0  0
    1.1394    3.0412    2.7479 N   0  0  0  0  0  0  0  0  0  0  0  0
    1.1584    4.6229    2.4036 S   0  0  0  0  0  0  0  0  0  0  0  0
    1.9062    4.5367    0.9671 N   0  0  0  0  0  0  0  0  0  0  0  0
    1.8541    0.9933    1.5625 C   0  0  0  0  0  0  0  0  0  0  0  0
    1.3085   -0.0843    2.2755 C   0  0  0  0  0  0  0  0  0  0  0  0
    0.3384   -0.3653    3.6771 S   0  0  0  0  0  0  0  0  0  0  0  0
    0.2248   -2.0548    3.2374 C   0  0  0  0  0  0  0  0  0  0  0  0
   -0.4988   -3.1310    3.7749 C   0  0  0  0  0  0  0  0  0  0  0  0
   -1.2197   -3.0735    5.0841 C   0  0  0  0  0  0  0  0  0  0  0  0
   -2.2745   -1.9696    5.1368 C   0  0  0  0  0  0  0  0  0  0  0  0
   -0.3202   -4.2764    3.0160 C   0  0  0  0  0  0  0  0  0  0  0  0
    0.8129   -4.0376    1.6868 S   0  0  0  0  0  0  0  0  0  0  0  0
    0.9539   -2.3670    2.0827 C   0  0  0  0  0  0  0  0  0  0  0  0
    1.5743   -1.2398    1.5346 C   0  0  0  0  0  0  0  0  0  0  0  0
    2.3137   -0.9294    0.4228 N   0  0  0  0  0  0  0  0  0  0  0  0
    2.4926    0.4458    0.4117 C   0  0  0  0  0  0  0  0  0  0  0  0
    3.1305    1.3281   -0.5000 C   0  0  0  0  0  0  0  0  0  0  0  0
    3.9730    1.1426   -1.5779 N   0  0  0  0  0  0  0  0  0  0  0  0
    4.1841    2.3600   -2.1749 C   0  0  0  0  0  0  0  0  0  0  0  0
    4.9251    2.8128   -3.2709 C   0  0  0  0  0  0  0  0  0  0  0  0
    4.8047    0.0142   -1.9265 C   0  0  0  0  0  0  0  0  0  0  0  0
    4.3859   -0.6271   -3.2490 C   0  0  0  0  0  0  0  0  0  0  0  0
    2.3002   -1.8564   -0.6883 C   0  0  0  0  0  0  0  0  0  0  0  0
    1.1317   -1.5646   -1.6272 C   0  0  0  0  0  0  0  0  0  0  0  0
   -0.8784   -5.5742    3.1585 C   0  0  0  0  0  0  0  0  0  0  0  0
   -2.1940   -5.8263    3.4116 C   0  0  0  0  0  0  0  0  0  0  0  0
   -3.2775   -4.8479    3.1404 C   0  0  0  0  0  0  0  0  0  0  0  0
   -3.1639   -3.6846    2.8181 O   0  0  0  0  0  0  0  0  0  0  0  0
   -4.5304   -5.6208    3.2007 C   0  0  0  0  0  0  0  0  0  0  0  0
   -5.8147   -5.1370    2.9595 C   0  0  0  0  0  0  0  0  0  0  0  0
   -6.7997   -6.0878    3.0720 C   0  0  0  0  0  0  0  0  0  0  0  0
   -6.5289   -7.4254    3.3923 C   0  0  0  0  0  0  0  0  0  0  0  0
   -5.2661   -7.9184    3.6205 C   0  0  0  0  0  0  0  0  0  0  0  0
   -4.2476   -6.9651    3.5165 C   0  0  0  0  0  0  0  0  0  0  0  0
   -2.8048   -7.1108    3.6817 C   0  0  0  0  0  0  0  0  0  0  0  0
   -2.1435   -8.2380    4.0954 C   0  0  0  0  0  0  0  0  0  0  0  0
   -2.7646   -9.4731    4.3697 C   0  0  0  0  0  0  0  0  0  0  0  0
   -3.2106  -10.5055    4.6016 N   0  0  0  0  0  0  0  0  0  0  0  0
   -0.7538   -8.2964    4.3301 C   0  0  0  0  0  0  0  0  0  0  0  0
    0.3660   -8.4035    4.5612 N   0  0  0  0  0  0  0  0  0  0  0  0
   -7.9855   -7.8148    3.3401 C   0  0  0  0  0  0  0  0  0  0  0  0
   -8.7012   -7.9893    4.6966 C   0  0  0  0  0  0  0  0  0  0  0  0
  -10.1684   -7.8893    4.3461 C   0  0  0  0  0  0  0  0  0  0  0  0
  -10.4249   -6.6239    4.0398 C   0  0  0  0  0  0  0  0  0  0  0  0
   -9.1355   -5.8473    4.1782 C   0  0  0  0  0  0  0  0  0  0  0  0
   -8.4898   -6.6127    5.3404 C   0  0  0  0  0  0  0  0  0  0  0  0
   -8.2862   -6.3242    2.9810 C   0  0  0  0  0  0  0  0  0  0  0  0
    6.3184    4.5678   -4.9290 H   0  0  0  0  0  0  0  0  0  0  0  0
    1.5853    8.6825   -5.4513 H   0  0  0  0  0  0  0  0  0  0  0  0
    2.1746   10.8426   -6.4588 H   0  0  0  0  0  0  0  0  0  0  0  0
    3.7696   12.3072   -7.5758 H   0  0  0  0  0  0  0  0  0  0  0  0
    6.0226   12.7074   -8.4821 H   0  0  0  0  0  0  0  0  0  0  0  0
    7.7409   10.9484   -8.3704 H   0  0  0  0  0  0  0  0  0  0  0  0
    7.2206    8.7615   -7.3478 H   0  0  0  0  0  0  0  0  0  0  0  0
   -0.4730   -2.8887    5.8639 H   0  0  0  0  0  0  0  0  0  0  0  0
   -1.6832   -4.0400    5.2859 H   0  0  0  0  0  0  0  0  0  0  0  0
   -1.8116   -0.9896    5.0605 H   0  0  0  0  0  0  0  0  0  0  0  0
   -2.8158   -2.0251    6.0781 H   0  0  0  0  0  0  0  0  0  0  0  0
   -2.9772   -2.0877    4.3174 H   0  0  0  0  0  0  0  0  0  0  0  0
    5.5296    2.1903   -3.9076 H   0  0  0  0  0  0  0  0  0  0  0  0
    5.8334    0.3818   -2.0222 H   0  0  0  0  0  0  0  0  0  0  0  0
    4.7954   -0.7007   -1.1022 H   0  0  0  0  0  0  0  0  0  0  0  0
    4.4883    0.0875   -4.0606 H   0  0  0  0  0  0  0  0  0  0  0  0
    3.3495   -0.9493   -3.2258 H   0  0  0  0  0  0  0  0  0  0  0  0
    5.0187   -1.4856   -3.4588 H   0  0  0  0  0  0  0  0  0  0  0  0
    2.1890   -2.8563   -0.2608 H   0  0  0  0  0  0  0  0  0  0  0  0
    3.2409   -1.8314   -1.2301 H   0  0  0  0  0  0  0  0  0  0  0  0
    1.1222   -2.2821   -2.4431 H   0  0  0  0  0  0  0  0  0  0  0  0
    1.2096   -0.5601   -2.0384 H   0  0  0  0  0  0  0  0  0  0  0  0
    0.1900   -1.6420   -1.0886 H   0  0  0  0  0  0  0  0  0  0  0  0
   -0.2074   -6.4035    2.9655 H   0  0  0  0  0  0  0  0  0  0  0  0
   -5.9782   -4.1004    2.7096 H   0  0  0  0  0  0  0  0  0  0  0  0
   -5.0703   -8.9528    3.8493 H   0  0  0  0  0  0  0  0  0  0  0  0
   -8.2452   -8.5879    2.6196 H   0  0  0  0  0  0  0  0  0  0  0  0
   -8.3917   -8.8618    5.2653 H   0  0  0  0  0  0  0  0  0  0  0  0
  -10.8339   -8.7314    4.3044 H   0  0  0  0  0  0  0  0  0  0  0  0
  -11.3473   -6.1978    3.6911 H   0  0  0  0  0  0  0  0  0  0  0  0
   -9.2218   -4.7683    4.2743 H   0  0  0  0  0  0  0  0  0  0  0  0
   -9.0496   -6.5019    6.2675 H   0  0  0  0  0  0  0  0  0  0  0  0
   -7.4455   -6.3589    5.5133 H   0  0  0  0  0  0  0  0  0  0  0  0
   -8.7436   -6.1021    2.0186 H   0  0  0  0  0  0  0  0  0  0  0  0
  1  2  2  0  0  0  0
  2  3  1  0  0  0  0
  3  4  2  0  0  0  0
  3  5  1  0  0  0  0
  5  6  2  0  0  0  0
  6  7  1  0  0  0  0
  7  8  2  0  0  0  0
  8  9  1  0  0  0  0
  9 10  2  0  0  0  0
 10 11  1  0  0  0  0
 11 12  2  0  0  0  0
 12 13  1  0  0  0  0
 13 14  2  0  0  0  0
  6 15  1  0  0  0  0
 15 16  2  0  0  0  0
 16 17  1  0  0  0  0
 17 18  3  0  0  0  0
 16 19  1  0  0  0  0
 19 20  3  0  0  0  0
  1 21  1  0  0  0  0
 21 22  1  0  0  0  0
 22 23  1  0  0  0  0
 23 24  1  0  0  0  0
 24 25  1  0  0  0  0
 25 26  1  0  0  0  0
 26 27  2  0  0  0  0
 27 28  1  0  0  0  0
 28 29  1  0  0  0  0
 26 30  1  0  0  0  0
 30 31  1  0  0  0  0
 31 32  1  0  0  0  0
 32 33  1  0  0  0  0
 33 34  1  0  0  0  0
 34 35  1  0  0  0  0
 35 36  1  0  0  0  0
 34 37  2  0  0  0  0
 37 38  1  0  0  0  0
 38 39  1  0  0  0  0
 39 40  1  0  0  0  0
 40 41  1  0  0  0  0
 41 42  1  0  0  0  0
 42 43  1  0  0  0  0
 43 44  1  0  0  0  0
 44 45  1  0  0  0  0
 45 46  1  0  0  0  0
 44 47  1  0  0  0  0
 47 48  1  0  0  0  0
 41 49  1  0  0  0  0
 49 50  1  0  0  0  0
 37 51  1  0  0  0  0
 51 52  2  0  0  0  0
 52 53  1  0  0  0  0
 53 54  2  0  0  0  0
 53 55  1  0  0  0  0
 55 56  2  0  0  0  0
 56 57  1  0  0  0  0
 57 58  2  0  0  0  0
 58 59  1  0  0  0  0
 59 60  2  0  0  0  0
 60 61  1  0  0  0  0
 61 62  2  0  0  0  0
 62 63  1  0  0  0  0
 63 64  3  0  0  0  0
 62 65  1  0  0  0  0
 65 66  3  0  0  0  0
 58 67  1  0  0  0  0
 67 68  1  0  0  0  0
 68 69  1  0  0  0  0
 69 70  2  0  0  0  0
 70 71  1  0  0  0  0
 71 72  1  0  0  0  0
 71 73  1  0  0  0  0
 15  2  1  0  0  0  0
 46 21  2  0  0  0  0
 61 52  1  0  0  0  0
 73 67  1  0  0  0  0
 14  5  1  0  0  0  0
 45 23  2  0  0  0  0
 60 55  1  0  0  0  0
 72 68  1  0  0  0  0
 14  9  1  0  0  0  0
 43 24  2  0  0  0  0
 73 57  1  0  0  0  0
 29 25  2  0  0  0  0
 42 30  2  0  0  0  0
 40 31  2  0  0  0  0
 39 33  2  0  0  0  0
  1 74  1  0  0  0  0
  7 75  1  0  0  0  0
  8 76  1  0  0  0  0
 10 77  1  0  0  0  0
 11 78  1  0  0  0  0
 12 79  1  0  0  0  0
 13 80  1  0  0  0  0
 35 81  1  0  0  0  0
 35 82  1  0  0  0  0
 36 83  1  0  0  0  0
 36 84  1  0  0  0  0
 36 85  1  0  0  0  0
 46 86  1  0  0  0  0
 47 87  1  0  0  0  0
 47 88  1  0  0  0  0
 48 89  1  0  0  0  0
 48 90  1  0  0  0  0
 48 91  1  0  0  0  0
 49 92  1  0  0  0  0
 49 93  1  0  0  0  0
 50 94  1  0  0  0  0
 50 95  1  0  0  0  0
 50 96  1  0  0  0  0
 51 97  1  0  0  0  0
 56 98  1  0  0  0  0
 59 99  1  0  0  0  0
 67100  1  0  0  0  0
 68101  1  0  0  0  0
 69102  1  0  0  0  0
 70103  1  0  0  0  0
 71104  1  0  0  0  0
 72105  1  0  0  0  0
 72106  1  0  0  0  0
 73107  1  0  0  0  0
M  END
