
  xtb     02022205013D
 energy: -231.738337139095 gnorm: 0.000950404909 xtb: 6.4.1 (unknown)
136153  0     0  0            999 V2000
    2.9720   -6.1965   -5.6640 C   0  0  0  0  0  0  0  0  0  0  0  0
    3.5981   -7.0941   -4.8336 C   0  0  0  0  0  0  0  0  0  0  0  0
    3.7253   -6.9829   -3.3788 C   0  0  0  0  0  0  0  0  0  0  0  0
    3.2809   -6.0911   -2.6704 O   0  0  0  0  0  0  0  0  0  0  0  0
    4.4979   -8.1568   -2.9405 C   0  0  0  0  0  0  0  0  0  0  0  0
    4.8080   -8.9400   -4.0508 C   0  0  0  0  0  0  0  0  0  0  0  0
    5.5463  -10.1209   -3.8978 C   0  0  0  0  0  0  0  0  0  0  0  0
    5.9587  -10.4852   -2.6421 C   0  0  0  0  0  0  0  0  0  0  0  0
    5.6645   -9.7097   -1.5004 C   0  0  0  0  0  0  0  0  0  0  0  0
    6.0986  -10.0887   -0.2136 C   0  0  0  0  0  0  0  0  0  0  0  0
    5.8032   -9.3184    0.8768 C   0  0  0  0  0  0  0  0  0  0  0  0
    5.0599   -8.1355    0.7328 C   0  0  0  0  0  0  0  0  0  0  0  0
    4.6203   -7.7351   -0.4984 C   0  0  0  0  0  0  0  0  0  0  0  0
    4.9109   -8.5084   -1.6412 C   0  0  0  0  0  0  0  0  0  0  0  0
    4.2585   -8.3119   -5.2524 C   0  0  0  0  0  0  0  0  0  0  0  0
    4.3623   -8.8132   -6.5251 C   0  0  0  0  0  0  0  0  0  0  0  0
    3.8415   -8.2296   -7.6992 C   0  0  0  0  0  0  0  0  0  0  0  0
    3.4644   -7.8417   -8.7133 N   0  0  0  0  0  0  0  0  0  0  0  0
    5.0136  -10.0195   -6.8591 C   0  0  0  0  0  0  0  0  0  0  0  0
    5.5167  -10.9891   -7.2136 N   0  0  0  0  0  0  0  0  0  0  0  0
    2.3296   -4.9865   -5.3822 C   0  0  0  0  0  0  0  0  0  0  0  0
    1.7657   -4.1794   -6.3902 C   0  0  0  0  0  0  0  0  0  0  0  0
    1.6224   -4.5785   -7.7870 C   0  0  0  0  0  0  0  0  0  0  0  0
    2.0157   -3.7130   -8.8054 C   0  0  0  0  0  0  0  0  0  0  0  0
    1.8963   -4.0937  -10.1265 C   0  0  0  0  0  0  0  0  0  0  0  0
    1.3732   -5.3350  -10.4687 C   0  0  0  0  0  0  0  0  0  0  0  0
    1.2209   -5.7356  -11.9060 C   0  0  0  0  0  0  0  0  0  0  0  0
   -0.1567   -5.3265  -12.4328 C   0  0  0  0  0  0  0  0  0  0  0  0
    0.9468   -6.1799   -9.4513 C   0  0  0  0  0  0  0  0  0  0  0  0
    1.0694   -5.8122   -8.1275 C   0  0  0  0  0  0  0  0  0  0  0  0
    1.3381   -2.9538   -5.8857 C   0  0  0  0  0  0  0  0  0  0  0  0
    0.5932   -1.5561   -6.6378 S   0  0  0  0  0  0  0  0  0  0  0  0
    0.5136   -0.8038   -5.0819 C   0  0  0  0  0  0  0  0  0  0  0  0
    0.1051    0.4071   -4.5085 C   0  0  0  0  0  0  0  0  0  0  0  0
   -0.3579    1.6009   -5.1052 C   0  0  0  0  0  0  0  0  0  0  0  0
   -0.5847    2.7461   -4.2738 C   0  0  0  0  0  0  0  0  0  0  0  0
   -0.9582    3.8095   -4.9672 N   0  0  0  0  0  0  0  0  0  0  0  0
   -1.0241    3.4027   -6.5334 S   0  0  0  0  0  0  0  0  0  0  0  0
   -0.5764    1.8532   -6.3857 N   0  0  0  0  0  0  0  0  0  0  0  0
   -0.4539    2.6081   -2.8740 C   0  0  0  0  0  0  0  0  0  0  0  0
   -0.7498    3.5009   -1.8363 C   0  0  0  0  0  0  0  0  0  0  0  0
   -1.2764    5.1353   -1.6262 S   0  0  0  0  0  0  0  0  0  0  0  0
   -1.3030    4.8670    0.1060 C   0  0  0  0  0  0  0  0  0  0  0  0
   -1.6829    5.6727    1.1764 C   0  0  0  0  0  0  0  0  0  0  0  0
   -2.1499    7.0488    1.0394 C   0  0  0  0  0  0  0  0  0  0  0  0
   -1.4306    7.9507    0.2580 C   0  0  0  0  0  0  0  0  0  0  0  0
   -1.8423    9.2636    0.1533 C   0  0  0  0  0  0  0  0  0  0  0  0
   -2.9820    9.7105    0.8113 C   0  0  0  0  0  0  0  0  0  0  0  0
   -3.4399   11.1321    0.6767 C   0  0  0  0  0  0  0  0  0  0  0  0
   -4.4151   11.2712   -0.4945 C   0  0  0  0  0  0  0  0  0  0  0  0
   -3.7190    8.7987    1.5571 C   0  0  0  0  0  0  0  0  0  0  0  0
   -3.3127    7.4854    1.6729 C   0  0  0  0  0  0  0  0  0  0  0  0
   -1.5725    4.9891    2.4027 C   0  0  0  0  0  0  0  0  0  0  0  0
   -1.0352    3.3256    2.1886 S   0  0  0  0  0  0  0  0  0  0  0  0
   -0.9176    3.5705    0.4836 C   0  0  0  0  0  0  0  0  0  0  0  0
   -0.5904    2.7983   -0.6361 C   0  0  0  0  0  0  0  0  0  0  0  0
   -0.1691    1.5217   -0.8940 N   0  0  0  0  0  0  0  0  0  0  0  0
   -0.0681    1.3763   -2.2664 C   0  0  0  0  0  0  0  0  0  0  0  0
    0.3298    0.2995   -3.1037 C   0  0  0  0  0  0  0  0  0  0  0  0
    0.9039   -0.9341   -2.8512 N   0  0  0  0  0  0  0  0  0  0  0  0
    1.0208   -1.5949   -4.0444 C   0  0  0  0  0  0  0  0  0  0  0  0
    1.5088   -2.8244   -4.4981 C   0  0  0  0  0  0  0  0  0  0  0  0
    2.2435   -4.2202   -3.7974 S   0  0  0  0  0  0  0  0  0  0  0  0
    1.6512   -1.4012   -1.7044 C   0  0  0  0  0  0  0  0  0  0  0  0
    2.8180   -0.4714   -1.3815 C   0  0  0  0  0  0  0  0  0  0  0  0
   -0.2399    0.5245    0.1507 C   0  0  0  0  0  0  0  0  0  0  0  0
   -1.3759   -0.4648   -0.0955 C   0  0  0  0  0  0  0  0  0  0  0  0
   -1.7860    5.6185    3.6334 C   0  0  0  0  0  0  0  0  0  0  0  0
   -1.8086    5.1065    4.9068 C   0  0  0  0  0  0  0  0  0  0  0  0
   -1.6327    3.7008    5.2761 C   0  0  0  0  0  0  0  0  0  0  0  0
   -1.3486    2.7682    4.5409 O   0  0  0  0  0  0  0  0  0  0  0  0
   -1.8663    3.6209    6.7279 C   0  0  0  0  0  0  0  0  0  0  0  0
   -1.8472    2.4749    7.5198 C   0  0  0  0  0  0  0  0  0  0  0  0
   -2.1225    2.7074    8.8460 C   0  0  0  0  0  0  0  0  0  0  0  0
   -2.4002    3.9859    9.3467 C   0  0  0  0  0  0  0  0  0  0  0  0
   -2.4205    5.1246    8.5766 C   0  0  0  0  0  0  0  0  0  0  0  0
   -2.1383    4.9119    7.2240 C   0  0  0  0  0  0  0  0  0  0  0  0
   -2.0795    5.8615    6.1125 C   0  0  0  0  0  0  0  0  0  0  0  0
   -2.2466    7.2192    6.2223 C   0  0  0  0  0  0  0  0  0  0  0  0
   -2.5014    7.8956    7.4337 C   0  0  0  0  0  0  0  0  0  0  0  0
   -2.7086    8.5175    8.3770 N   0  0  0  0  0  0  0  0  0  0  0  0
   -2.1867    8.1557    5.1687 C   0  0  0  0  0  0  0  0  0  0  0  0
   -2.1541    8.9972    4.3863 N   0  0  0  0  0  0  0  0  0  0  0  0
   -2.5888    3.4815   10.7557 C   0  0  0  0  0  0  0  0  0  0  0  0
   -1.4244    3.7279   11.7382 C   0  0  0  0  0  0  0  0  0  0  0  0
   -1.6740    2.7352   12.8506 C   0  0  0  0  0  0  0  0  0  0  0  0
   -1.4090    1.5241   12.3774 C   0  0  0  0  0  0  0  0  0  0  0  0
   -0.9754    1.6780   10.9372 C   0  0  0  0  0  0  0  0  0  0  0  0
   -0.2602    3.0328   11.0203 C   0  0  0  0  0  0  0  0  0  0  0  0
   -2.2767    2.0555   10.1980 C   0  0  0  0  0  0  0  0  0  0  0  0
    2.9839   -6.4317   -6.7212 H   0  0  0  0  0  0  0  0  0  0  0  0
    5.7919  -10.7365   -4.7469 H   0  0  0  0  0  0  0  0  0  0  0  0
    6.5301  -11.3928   -2.5107 H   0  0  0  0  0  0  0  0  0  0  0  0
    6.6704  -10.9993   -0.1065 H   0  0  0  0  0  0  0  0  0  0  0  0
    6.1408   -9.6150    1.8590 H   0  0  0  0  0  0  0  0  0  0  0  0
    4.8378   -7.5420    1.6074 H   0  0  0  0  0  0  0  0  0  0  0  0
    4.0489   -6.8285   -0.6205 H   0  0  0  0  0  0  0  0  0  0  0  0
    2.4411   -2.7529   -8.5534 H   0  0  0  0  0  0  0  0  0  0  0  0
    2.2232   -3.4199  -10.9054 H   0  0  0  0  0  0  0  0  0  0  0  0
    1.9939   -5.2547  -12.5084 H   0  0  0  0  0  0  0  0  0  0  0  0
    1.3372   -6.8167  -11.9988 H   0  0  0  0  0  0  0  0  0  0  0  0
   -0.9422   -5.8067  -11.8532 H   0  0  0  0  0  0  0  0  0  0  0  0
   -0.2666   -5.6175  -13.4750 H   0  0  0  0  0  0  0  0  0  0  0  0
   -0.2869   -4.2492  -12.3569 H   0  0  0  0  0  0  0  0  0  0  0  0
    0.5245   -7.1422   -9.6989 H   0  0  0  0  0  0  0  0  0  0  0  0
    0.7141   -6.4722   -7.3488 H   0  0  0  0  0  0  0  0  0  0  0  0
   -0.5311    7.6220   -0.2412 H   0  0  0  0  0  0  0  0  0  0  0  0
   -1.2633    9.9565   -0.4400 H   0  0  0  0  0  0  0  0  0  0  0  0
   -2.5801   11.7832    0.5089 H   0  0  0  0  0  0  0  0  0  0  0  0
   -3.9333   11.4468    1.5979 H   0  0  0  0  0  0  0  0  0  0  0  0
   -4.7468   12.3022   -0.5923 H   0  0  0  0  0  0  0  0  0  0  0  0
   -5.2866   10.6390   -0.3395 H   0  0  0  0  0  0  0  0  0  0  0  0
   -3.9362   10.9702   -1.4237 H   0  0  0  0  0  0  0  0  0  0  0  0
   -4.6169    9.1245    2.0613 H   0  0  0  0  0  0  0  0  0  0  0  0
   -3.9099    6.7835    2.2380 H   0  0  0  0  0  0  0  0  0  0  0  0
    2.0396   -2.3876   -1.9688 H   0  0  0  0  0  0  0  0  0  0  0  0
    0.9942   -1.5358   -0.8449 H   0  0  0  0  0  0  0  0  0  0  0  0
    3.5047   -0.4326   -2.2240 H   0  0  0  0  0  0  0  0  0  0  0  0
    3.3570   -0.8426   -0.5141 H   0  0  0  0  0  0  0  0  0  0  0  0
    2.4744    0.5401   -1.1773 H   0  0  0  0  0  0  0  0  0  0  0  0
   -0.4294    1.0634    1.0820 H   0  0  0  0  0  0  0  0  0  0  0  0
    0.7186    0.0173    0.2630 H   0  0  0  0  0  0  0  0  0  0  0  0
   -1.3997   -1.2044    0.7001 H   0  0  0  0  0  0  0  0  0  0  0  0
   -2.3279    0.0608   -0.1064 H   0  0  0  0  0  0  0  0  0  0  0  0
   -1.2587   -0.9749   -1.0488 H   0  0  0  0  0  0  0  0  0  0  0  0
   -1.9747    6.6806    3.5377 H   0  0  0  0  0  0  0  0  0  0  0  0
   -1.6365    1.5081    7.0900 H   0  0  0  0  0  0  0  0  0  0  0  0
   -2.6428    6.0984    8.9787 H   0  0  0  0  0  0  0  0  0  0  0  0
   -3.5659    3.6654   11.1986 H   0  0  0  0  0  0  0  0  0  0  0  0
   -1.2865    4.7657   12.0291 H   0  0  0  0  0  0  0  0  0  0  0  0
   -2.0591    3.0018   13.8174 H   0  0  0  0  0  0  0  0  0  0  0  0
   -1.5284    0.5770   12.8701 H   0  0  0  0  0  0  0  0  0  0  0  0
   -0.4273    0.8475   10.4999 H   0  0  0  0  0  0  0  0  0  0  0  0
    0.6359    2.9882   11.6372 H   0  0  0  0  0  0  0  0  0  0  0  0
   -0.0144    3.4652   10.0520 H   0  0  0  0  0  0  0  0  0  0  0  0
   -3.0455    1.2883   10.2705 H   0  0  0  0  0  0  0  0  0  0  0  0
  1  2  2  0  0  0  0
  2  3  1  0  0  0  0
  3  4  2  0  0  0  0
  3  5  1  0  0  0  0
  5  6  2  0  0  0  0
  6  7  1  0  0  0  0
  7  8  2  0  0  0  0
  8  9  1  0  0  0  0
  9 10  2  0  0  0  0
 10 11  1  0  0  0  0
 11 12  2  0  0  0  0
 12 13  1  0  0  0  0
 13 14  2  0  0  0  0
  6 15  1  0  0  0  0
 15 16  2  0  0  0  0
 16 17  1  0  0  0  0
 17 18  3  0  0  0  0
 16 19  1  0  0  0  0
 19 20  3  0  0  0  0
  1 21  1  0  0  0  0
 21 22  2  0  0  0  0
 22 23  1  0  0  0  0
 23 24  2  0  0  0  0
 24 25  1  0  0  0  0
 25 26  2  0  0  0  0
 26 27  1  0  0  0  0
 27 28  1  0  0  0  0
 26 29  1  0  0  0  0
 29 30  2  0  0  0  0
 22 31  1  0  0  0  0
 31 32  1  0  0  0  0
 32 33  1  0  0  0  0
 33 34  1  0  0  0  0
 34 35  1  0  0  0  0
 35 36  1  0  0  0  0
 36 37  2  0  0  0  0
 37 38  1  0  0  0  0
 38 39  1  0  0  0  0
 36 40  1  0  0  0  0
 40 41  1  0  0  0  0
 41 42  1  0  0  0  0
 42 43  1  0  0  0  0
 43 44  1  0  0  0  0
 44 45  1  0  0  0  0
 45 46  2  0  0  0  0
 46 47  1  0  0  0  0
 47 48  2  0  0  0  0
 48 49  1  0  0  0  0
 49 50  1  0  0  0  0
 48 51  1  0  0  0  0
 51 52  2  0  0  0  0
 44 53  2  0  0  0  0
 53 54  1  0  0  0  0
 54 55  1  0  0  0  0
 55 56  1  0  0  0  0
 56 57  1  0  0  0  0
 57 58  1  0  0  0  0
 58 59  1  0  0  0  0
 59 60  1  0  0  0  0
 60 61  1  0  0  0  0
 61 62  1  0  0  0  0
 62 63  1  0  0  0  0
 60 64  1  0  0  0  0
 64 65  1  0  0  0  0
 57 66  1  0  0  0  0
 66 67  1  0  0  0  0
 53 68  1  0  0  0  0
 68 69  2  0  0  0  0
 69 70  1  0  0  0  0
 70 71  2  0  0  0  0
 70 72  1  0  0  0  0
 72 73  2  0  0  0  0
 73 74  1  0  0  0  0
 74 75  2  0  0  0  0
 75 76  1  0  0  0  0
 76 77  2  0  0  0  0
 77 78  1  0  0  0  0
 78 79  2  0  0  0  0
 79 80  1  0  0  0  0
 80 81  3  0  0  0  0
 79 82  1  0  0  0  0
 82 83  3  0  0  0  0
 75 84  1  0  0  0  0
 84 85  1  0  0  0  0
 85 86  1  0  0  0  0
 86 87  2  0  0  0  0
 87 88  1  0  0  0  0
 88 89  1  0  0  0  0
 88 90  1  0  0  0  0
 15  2  1  0  0  0  0
 63 21  1  0  0  0  0
 78 69  1  0  0  0  0
 90 84  1  0  0  0  0
 14  5  1  0  0  0  0
 30 23  1  0  0  0  0
 62 31  2  0  0  0  0
 77 72  1  0  0  0  0
 89 85  1  0  0  0  0
 14  9  1  0  0  0  0
 61 33  2  0  0  0  0
 90 74  1  0  0  0  0
 59 34  2  0  0  0  0
 39 35  2  0  0  0  0
 58 40  2  0  0  0  0
 56 41  2  0  0  0  0
 55 43  2  0  0  0  0
 52 45  1  0  0  0  0
  1 91  1  0  0  0  0
  7 92  1  0  0  0  0
  8 93  1  0  0  0  0
 10 94  1  0  0  0  0
 11 95  1  0  0  0  0
 12 96  1  0  0  0  0
 13 97  1  0  0  0  0
 24 98  1  0  0  0  0
 25 99  1  0  0  0  0
 27100  1  0  0  0  0
 27101  1  0  0  0  0
 28102  1  0  0  0  0
 28103  1  0  0  0  0
 28104  1  0  0  0  0
 29105  1  0  0  0  0
 30106  1  0  0  0  0
 46107  1  0  0  0  0
 47108  1  0  0  0  0
 49109  1  0  0  0  0
 49110  1  0  0  0  0
 50111  1  0  0  0  0
 50112  1  0  0  0  0
 50113  1  0  0  0  0
 51114  1  0  0  0  0
 52115  1  0  0  0  0
 64116  1  0  0  0  0
 64117  1  0  0  0  0
 65118  1  0  0  0  0
 65119  1  0  0  0  0
 65120  1  0  0  0  0
 66121  1  0  0  0  0
 66122  1  0  0  0  0
 67123  1  0  0  0  0
 67124  1  0  0  0  0
 67125  1  0  0  0  0
 68126  1  0  0  0  0
 73127  1  0  0  0  0
 76128  1  0  0  0  0
 84129  1  0  0  0  0
 85130  1  0  0  0  0
 86131  1  0  0  0  0
 87132  1  0  0  0  0
 88133  1  0  0  0  0
 89134  1  0  0  0  0
 89135  1  0  0  0  0
 90136  1  0  0  0  0
M  END
