
  xtb     02022218093D
 energy: -189.122618595914 gnorm: 0.000188317936 xtb: 6.4.1 (unknown)
104119  0     0  0            999 V2000
   -5.9445    7.1813   -1.0371 C   0  0  0  0  0  0  0  0  0  0  0  0
   -6.1279    7.8530    0.1473 C   0  0  0  0  0  0  0  0  0  0  0  0
   -5.8128    7.3322    1.4721 C   0  0  0  0  0  0  0  0  0  0  0  0
   -5.3934    6.2065    1.7306 O   0  0  0  0  0  0  0  0  0  0  0  0
   -6.0986    8.4086    2.4285 C   0  0  0  0  0  0  0  0  0  0  0  0
   -6.5822    9.5164    1.7315 C   0  0  0  0  0  0  0  0  0  0  0  0
   -6.9266   10.6871    2.4183 C   0  0  0  0  0  0  0  0  0  0  0  0
   -6.7770   10.7225    3.7813 C   0  0  0  0  0  0  0  0  0  0  0  0
   -6.2888    9.6190    4.5127 C   0  0  0  0  0  0  0  0  0  0  0  0
   -6.1351    9.6667    5.9137 C   0  0  0  0  0  0  0  0  0  0  0  0
   -5.6580    8.5843    6.5997 C   0  0  0  0  0  0  0  0  0  0  0  0
   -5.3134    7.4050    5.9192 C   0  0  0  0  0  0  0  0  0  0  0  0
   -5.4485    7.3196    4.5611 C   0  0  0  0  0  0  0  0  0  0  0  0
   -5.9372    8.4198    3.8273 C   0  0  0  0  0  0  0  0  0  0  0  0
   -6.6276    9.2045    0.3028 C   0  0  0  0  0  0  0  0  0  0  0  0
   -7.0632   10.0519   -0.6821 C   0  0  0  0  0  0  0  0  0  0  0  0
   -7.1120    9.7560   -2.0611 C   0  0  0  0  0  0  0  0  0  0  0  0
   -7.1865    9.6020   -3.1971 N   0  0  0  0  0  0  0  0  0  0  0  0
   -7.5371   11.3627   -0.4605 C   0  0  0  0  0  0  0  0  0  0  0  0
   -7.9332   12.4359   -0.3632 N   0  0  0  0  0  0  0  0  0  0  0  0
   -5.4148    5.9099   -1.2946 C   0  0  0  0  0  0  0  0  0  0  0  0
   -5.2523    5.4564   -2.6068 C   0  0  0  0  0  0  0  0  0  0  0  0
   -4.6567    4.2158   -2.7300 C   0  0  0  0  0  0  0  0  0  0  0  0
   -4.2042    3.2967   -4.1560 S   0  0  0  0  0  0  0  0  0  0  0  0
   -3.5313    2.0830   -3.1249 C   0  0  0  0  0  0  0  0  0  0  0  0
   -2.8340    0.8697   -3.2179 C   0  0  0  0  0  0  0  0  0  0  0  0
   -2.4640    0.0807   -4.3298 C   0  0  0  0  0  0  0  0  0  0  0  0
   -1.7216   -1.1275   -4.1092 C   0  0  0  0  0  0  0  0  0  0  0  0
   -1.4713   -1.7790   -5.2335 N   0  0  0  0  0  0  0  0  0  0  0  0
   -2.1129   -0.9461   -6.4639 S   0  0  0  0  0  0  0  0  0  0  0  0
   -2.7311    0.2821   -5.6102 N   0  0  0  0  0  0  0  0  0  0  0  0
   -1.2840   -1.4303   -2.7998 C   0  0  0  0  0  0  0  0  0  0  0  0
   -0.3569   -2.3733   -2.3347 C   0  0  0  0  0  0  0  0  0  0  0  0
   -0.1498   -2.1082   -0.9752 C   0  0  0  0  0  0  0  0  0  0  0  0
   -0.9322   -1.0550   -0.5828 N   0  0  0  0  0  0  0  0  0  0  0  0
   -0.6878   -0.4277    0.6945 C   0  0  0  0  0  0  0  0  0  0  0  0
   -1.3306   -1.2052    1.8431 C   0  0  0  0  0  0  0  0  0  0  0  0
   -1.6442   -0.6199   -1.6843 C   0  0  0  0  0  0  0  0  0  0  0  0
   -2.5287    0.4692   -1.8835 C   0  0  0  0  0  0  0  0  0  0  0  0
   -3.0910    1.3820   -1.0084 N   0  0  0  0  0  0  0  0  0  0  0  0
   -3.6732    2.3704   -1.7624 C   0  0  0  0  0  0  0  0  0  0  0  0
   -4.3174    3.5835   -1.5160 C   0  0  0  0  0  0  0  0  0  0  0  0
   -4.7804    4.6284   -0.0423 Se  0  0  0  0  0  2  0  0  0  0  0  0
   -3.5644    1.1903    0.3452 C   0  0  0  0  0  0  0  0  0  0  0  0
   -5.0527    0.8426    0.3672 C   0  0  0  0  0  0  0  0  0  0  0  0
    0.8705   -2.8911   -0.4258 C   0  0  0  0  0  0  0  0  0  0  0  0
    1.4269   -3.7503   -1.3922 C   0  0  0  0  0  0  0  0  0  0  0  0
    0.6715   -3.6114   -2.9635 S   0  0  0  0  0  0  0  0  0  0  0  0
    2.4988   -4.5319   -0.9742 C   0  0  0  0  0  0  0  0  0  0  0  0
    2.8594   -4.3532    0.3488 C   0  0  0  0  0  0  0  0  0  0  0  0
    1.7499   -3.0722    1.2037 Se  0  0  0  0  0  2  0  0  0  0  0  0
    3.9549   -4.8696    1.0703 C   0  0  0  0  0  0  0  0  0  0  0  0
    4.8500   -5.8418    0.7399 C   0  0  0  0  0  0  0  0  0  0  0  0
    6.1819   -5.8350    1.4062 C   0  0  0  0  0  0  0  0  0  0  0  0
    6.4784   -5.2461    2.4213 O   0  0  0  0  0  0  0  0  0  0  0  0
    7.0574   -6.6317    0.5265 C   0  0  0  0  0  0  0  0  0  0  0  0
    8.4398   -6.7743    0.6178 C   0  0  0  0  0  0  0  0  0  0  0  0
    8.9929   -7.5199   -0.3953 C   0  0  0  0  0  0  0  0  0  0  0  0
    8.2308   -8.0889   -1.4248 C   0  0  0  0  0  0  0  0  0  0  0  0
    6.8634   -7.9747   -1.5166 C   0  0  0  0  0  0  0  0  0  0  0  0
    6.2833   -7.2157   -0.4984 C   0  0  0  0  0  0  0  0  0  0  0  0
    4.8811   -6.8693   -0.2737 C   0  0  0  0  0  0  0  0  0  0  0  0
    3.7982   -7.5652   -0.7469 C   0  0  0  0  0  0  0  0  0  0  0  0
    3.8839   -8.6374   -1.6563 C   0  0  0  0  0  0  0  0  0  0  0  0
    3.9014   -9.5053   -2.4075 N   0  0  0  0  0  0  0  0  0  0  0  0
    2.4874   -7.3221   -0.2904 C   0  0  0  0  0  0  0  0  0  0  0  0
    1.4169   -7.1505    0.0869 N   0  0  0  0  0  0  0  0  0  0  0  0
    9.4443   -8.6561   -2.1171 C   0  0  0  0  0  0  0  0  0  0  0  0
    9.9677   -7.9132   -3.3720 C   0  0  0  0  0  0  0  0  0  0  0  0
    9.5511   -6.4708   -3.2244 C   0  0  0  0  0  0  0  0  0  0  0  0
   10.2727   -5.9386   -2.2470 C   0  0  0  0  0  0  0  0  0  0  0  0
   11.1903   -7.0121   -1.7158 C   0  0  0  0  0  0  0  0  0  0  0  0
   11.4566   -7.8029   -3.0066 C   0  0  0  0  0  0  0  0  0  0  0  0
   10.2926   -8.0283   -0.9666 C   0  0  0  0  0  0  0  0  0  0  0  0
   -6.2234    7.7116   -1.9407 H   0  0  0  0  0  0  0  0  0  0  0  0
   -7.3008   11.5499    1.8932 H   0  0  0  0  0  0  0  0  0  0  0  0
   -7.0371   11.6204    4.3230 H   0  0  0  0  0  0  0  0  0  0  0  0
   -6.4010   10.5754    6.4340 H   0  0  0  0  0  0  0  0  0  0  0  0
   -5.5426    8.6291    7.6725 H   0  0  0  0  0  0  0  0  0  0  0  0
   -4.9386    6.5621    6.4806 H   0  0  0  0  0  0  0  0  0  0  0  0
   -5.1867    6.4187    4.0290 H   0  0  0  0  0  0  0  0  0  0  0  0
   -5.5578    6.0505   -3.4518 H   0  0  0  0  0  0  0  0  0  0  0  0
   -1.0237    0.6089    0.6588 H   0  0  0  0  0  0  0  0  0  0  0  0
    0.3994   -0.4166    0.8519 H   0  0  0  0  0  0  0  0  0  0  0  0
   -0.8446   -2.1739    1.9537 H   0  0  0  0  0  0  0  0  0  0  0  0
   -1.2156   -0.6547    2.7724 H   0  0  0  0  0  0  0  0  0  0  0  0
   -2.3889   -1.3849    1.6661 H   0  0  0  0  0  0  0  0  0  0  0  0
   -3.0159    0.3848    0.8186 H   0  0  0  0  0  0  0  0  0  0  0  0
   -3.3978    2.1241    0.8983 H   0  0  0  0  0  0  0  0  0  0  0  0
   -5.6503    1.6616   -0.0271 H   0  0  0  0  0  0  0  0  0  0  0  0
   -5.3656    0.6526    1.3901 H   0  0  0  0  0  0  0  0  0  0  0  0
   -5.2418   -0.0472   -0.2300 H   0  0  0  0  0  0  0  0  0  0  0  0
    3.0399   -5.1706   -1.6495 H   0  0  0  0  0  0  0  0  0  0  0  0
    4.1987   -4.3407    1.9899 H   0  0  0  0  0  0  0  0  0  0  0  0
    8.9931   -6.3170    1.4231 H   0  0  0  0  0  0  0  0  0  0  0  0
    6.2841   -8.4110   -2.3143 H   0  0  0  0  0  0  0  0  0  0  0  0
    9.4654   -9.7373   -2.2367 H   0  0  0  0  0  0  0  0  0  0  0  0
    9.7174   -8.3906   -4.3156 H   0  0  0  0  0  0  0  0  0  0  0  0
    8.7597   -6.0148   -3.7900 H   0  0  0  0  0  0  0  0  0  0  0  0
   10.2041   -4.9497   -1.8327 H   0  0  0  0  0  0  0  0  0  0  0  0
   12.0533   -6.6693   -1.1512 H   0  0  0  0  0  0  0  0  0  0  0  0
   11.9341   -8.7665   -2.8346 H   0  0  0  0  0  0  0  0  0  0  0  0
   12.0286   -7.2340   -3.7381 H   0  0  0  0  0  0  0  0  0  0  0  0
   10.8659   -8.7002   -0.3311 H   0  0  0  0  0  0  0  0  0  0  0  0
  1  2  2  0  0  0  0
  2  3  1  0  0  0  0
  3  4  2  0  0  0  0
  3  5  1  0  0  0  0
  5  6  2  0  0  0  0
  6  7  1  0  0  0  0
  7  8  2  0  0  0  0
  8  9  1  0  0  0  0
  9 10  2  0  0  0  0
 10 11  1  0  0  0  0
 11 12  2  0  0  0  0
 12 13  1  0  0  0  0
 13 14  2  0  0  0  0
  6 15  1  0  0  0  0
 15 16  2  0  0  0  0
 16 17  1  0  0  0  0
 17 18  3  0  0  0  0
 16 19  1  0  0  0  0
 19 20  3  0  0  0  0
  1 21  1  0  0  0  0
 21 22  2  0  0  0  0
 22 23  1  0  0  0  0
 23 24  1  0  0  0  0
 24 25  1  0  0  0  0
 25 26  1  0  0  0  0
 26 27  1  0  0  0  0
 27 28  1  0  0  0  0
 28 29  2  0  0  0  0
 29 30  1  0  0  0  0
 30 31  1  0  0  0  0
 28 32  1  0  0  0  0
 32 33  1  0  0  0  0
 33 34  2  0  0  0  0
 34 35  1  0  0  0  0
 35 36  1  0  0  0  0
 36 37  1  0  0  0  0
 35 38  1  0  0  0  0
 38 39  1  0  0  0  0
 39 40  1  0  0  0  0
 40 41  1  0  0  0  0
 41 42  1  0  0  0  0
 42 43  1  0  0  0  0
 40 44  1  0  0  0  0
 44 45  1  0  0  0  0
 34 46  1  0  0  0  0
 46 47  2  0  0  0  0
 47 48  1  0  0  0  0
 47 49  1  0  0  0  0
 49 50  2  0  0  0  0
 50 51  1  0  0  0  0
 50 52  1  0  0  0  0
 52 53  2  0  0  0  0
 53 54  1  0  0  0  0
 54 55  2  0  0  0  0
 54 56  1  0  0  0  0
 56 57  2  0  0  0  0
 57 58  1  0  0  0  0
 58 59  2  0  0  0  0
 59 60  1  0  0  0  0
 60 61  2  0  0  0  0
 61 62  1  0  0  0  0
 62 63  2  0  0  0  0
 63 64  1  0  0  0  0
 64 65  3  0  0  0  0
 63 66  1  0  0  0  0
 66 67  3  0  0  0  0
 59 68  1  0  0  0  0
 68 69  1  0  0  0  0
 69 70  1  0  0  0  0
 70 71  2  0  0  0  0
 71 72  1  0  0  0  0
 72 73  1  0  0  0  0
 72 74  1  0  0  0  0
 15  2  1  0  0  0  0
 43 21  1  0  0  0  0
 51 46  1  0  0  0  0
 62 53  1  0  0  0  0
 74 68  1  0  0  0  0
 14  5  1  0  0  0  0
 42 23  2  0  0  0  0
 61 56  1  0  0  0  0
 73 69  1  0  0  0  0
 14  9  1  0  0  0  0
 41 25  2  0  0  0  0
 74 58  1  0  0  0  0
 39 26  2  0  0  0  0
 31 27  2  0  0  0  0
 38 32  2  0  0  0  0
 48 33  1  0  0  0  0
  1 75  1  0  0  0  0
  7 76  1  0  0  0  0
  8 77  1  0  0  0  0
 10 78  1  0  0  0  0
 11 79  1  0  0  0  0
 12 80  1  0  0  0  0
 13 81  1  0  0  0  0
 22 82  1  0  0  0  0
 36 83  1  0  0  0  0
 36 84  1  0  0  0  0
 37 85  1  0  0  0  0
 37 86  1  0  0  0  0
 37 87  1  0  0  0  0
 44 88  1  0  0  0  0
 44 89  1  0  0  0  0
 45 90  1  0  0  0  0
 45 91  1  0  0  0  0
 45 92  1  0  0  0  0
 49 93  1  0  0  0  0
 52 94  1  0  0  0  0
 57 95  1  0  0  0  0
 60 96  1  0  0  0  0
 68 97  1  0  0  0  0
 69 98  1  0  0  0  0
 70 99  1  0  0  0  0
 71100  1  0  0  0  0
 72101  1  0  0  0  0
 73102  1  0  0  0  0
 73103  1  0  0  0  0
 74104  1  0  0  0  0
M  END
