107

C          5.32020        4.86660       -4.62150
C          4.79290        5.93610       -5.27310
C          5.65150        6.85010       -6.07380
O          6.79250        6.63500       -6.42240
C          4.82980        8.05660       -6.29010
C          3.54300        7.83770       -5.79690
C          2.57240        8.84560       -5.85280
C          2.90820       10.05060       -6.41210
C          4.19470       10.29960       -6.93880
C          4.52570       11.53670       -7.52800
C          5.77820       11.75680       -8.03140
C          6.75820       10.75320       -7.96760
C          6.47620        9.54010       -7.40280
C          5.19280        9.28360       -6.87870
C          3.44640        6.46860       -5.30240
C          2.28690        5.74320       -5.19800
C          2.25930        4.34640       -5.00330
N          2.18910        3.20410       -4.90370
C          0.99730        6.28080       -5.38330
N         -0.07630        6.66320       -5.52160
C          4.73830        4.15400       -3.54020
Se         3.63310        5.01790       -2.23520
C          3.48370        3.34920       -1.47030
C          2.86080        2.72030       -0.38700
C          2.16600        3.26440        0.71250
C          1.71560        2.38710        1.75170
N          1.13940        3.04120        2.74790
S          1.15840        4.62290        2.40360
N          1.90620        4.53670        0.96710
C          1.85410        0.99330        1.56250
C          1.30850       -0.08430        2.27550
S          0.33840       -0.36530        3.67710
C          0.22480       -2.05480        3.23740
C         -0.49880       -3.13100        3.77490
C         -1.21970       -3.07350        5.08410
C         -2.27450       -1.96960        5.13680
C         -0.32020       -4.27640        3.01600
S          0.81290       -4.03760        1.68680
C          0.95390       -2.36700        2.08270
C          1.57430       -1.23980        1.53460
N          2.31370       -0.92940        0.42280
C          2.49260        0.44580        0.41170
C          3.13050        1.32810       -0.50000
N          3.97300        1.14260       -1.57790
C          4.18410        2.36000       -2.17490
C          4.92510        2.81280       -3.27090
C          4.80470        0.01420       -1.92650
C          4.38590       -0.62710       -3.24900
C          2.30020       -1.85640       -0.68830
C          1.13170       -1.56460       -1.62720
C         -0.87840       -5.57420        3.15850
C         -2.19400       -5.82630        3.41160
C         -3.27750       -4.84790        3.14040
O         -3.16390       -3.68460        2.81810
C         -4.53040       -5.62080        3.20070
C         -5.81470       -5.13700        2.95950
C         -6.79970       -6.08780        3.07200
C         -6.52890       -7.42540        3.39230
C         -5.26610       -7.91840        3.62050
C         -4.24760       -6.96510        3.51650
C         -2.80480       -7.11080        3.68170
C         -2.14350       -8.23800        4.09540
C         -2.76460       -9.47310        4.36970
N         -3.21060      -10.50550        4.60160
C         -0.75380       -8.29640        4.33010
N          0.36600       -8.40350        4.56120
C         -7.98550       -7.81480        3.34010
C         -8.70120       -7.98930        4.69660
C        -10.16840       -7.88930        4.34610
C        -10.42490       -6.62390        4.03980
C         -9.13550       -5.84730        4.17820
C         -8.48980       -6.61270        5.34040
C         -8.28620       -6.32420        2.98100
H          6.31840        4.56780       -4.92900
H          1.58530        8.68250       -5.45130
H          2.17460       10.84260       -6.45880
H          3.76960       12.30720       -7.57580
H          6.02260       12.70740       -8.48210
H          7.74090       10.94840       -8.37040
H          7.22060        8.76150       -7.34780
H         -0.47300       -2.88870        5.86390
H         -1.68320       -4.04000        5.28590
H         -1.81160       -0.98960        5.06050
H         -2.81580       -2.02510        6.07810
H         -2.97720       -2.08770        4.31740
H          5.52960        2.19030       -3.90760
H          5.83340        0.38180       -2.02220
H          4.79540       -0.70070       -1.10220
H          4.48830        0.08750       -4.06060
H          3.34950       -0.94930       -3.22580
H          5.01870       -1.48560       -3.45880
H          2.18900       -2.85630       -0.26080
H          3.24090       -1.83140       -1.23010
H          1.12220       -2.28210       -2.44310
H          1.20960       -0.56010       -2.03840
H          0.19000       -1.64200       -1.08860
H         -0.20740       -6.40350        2.96550
H         -5.97820       -4.10040        2.70960
H         -5.07030       -8.95280        3.84930
H         -8.24520       -8.58790        2.61960
H         -8.39170       -8.86180        5.26530
H        -10.83390       -8.73140        4.30440
H        -11.34730       -6.19780        3.69110
H         -9.22180       -4.76830        4.27430
H         -9.04960       -6.50190        6.26750
H         -7.44550       -6.35890        5.51330
H         -8.74360       -6.10210        2.01860
