91

C          5.26640       -5.88570        2.37710
C          6.45460       -5.77090        1.70000
C          6.78250       -4.72250        0.73980
O          6.04830       -3.80000        0.39390
C          8.14810       -4.98860        0.27360
C          8.62740       -6.13610        0.90710
C          9.91720       -6.60770        0.63300
C         10.69490       -5.92220       -0.26510
C         10.23790       -4.75940       -0.92100
C         11.04560       -4.06250       -1.84310
C         10.57980       -2.93820       -2.46680
C          9.28760       -2.45820       -2.19820
C          8.47430       -3.10610       -1.30990
C          8.92710       -4.26790       -0.65230
C          7.59720       -6.65790        1.80470
C          7.71340       -7.78050        2.58110
C          8.85640       -8.60750        2.63020
N          9.74600       -9.32630        2.72880
C          6.72010       -8.29080        3.44440
N          5.96970       -8.77590        4.16620
C          4.10860       -5.09490        2.33600
C          2.99520       -5.42160        3.11280
C          1.91000       -4.57700        2.97010
S          0.31620       -4.64040        3.70140
C         -0.11820       -3.23530        2.79490
C         -1.24050       -2.43400        2.55160
C         -2.57940       -2.57440        2.97930
C         -3.57360       -1.69890        2.43460
N         -4.79150       -1.98310        2.86790
S         -4.69360       -3.24200        3.88060
N         -3.09470       -3.47410        3.80220
C         -3.16120       -0.64670        1.58730
C         -3.88790        0.40890        1.02380
C         -2.96280        1.25580        0.39700
N         -1.69810        0.74490        0.53860
C         -0.56010        1.59000        0.26150
C         -0.21550        1.62810       -1.22670
C         -1.79140       -0.44150        1.24330
C         -0.83860       -1.42020        1.63010
N          0.49350       -1.63030        1.31040
C          0.91900       -2.73760        1.99820
C          2.08650       -3.50310        2.07360
Se         3.78660       -3.53700        1.30010
C          1.25870       -1.23000        0.15120
C          0.85610       -2.04390       -1.07640
C         -3.56490        2.38710       -0.15690
C         -4.96530        2.36650        0.04410
S         -5.51940        0.96130        0.92840
C         -5.68350        3.43080       -0.47720
C         -4.91000        4.38300       -1.12460
Se        -3.05440        3.91930       -1.07990
C         -5.23070        5.58320       -1.77410
C         -6.43210        6.18220       -2.06870
C         -7.79680        5.65920       -1.86370
O         -8.15790        4.65610       -1.28410
C         -8.69690        6.62340       -2.53610
C        -10.06960        6.55300       -2.66690
C        -10.70160        7.57490       -3.35630
F        -12.03090        7.54820       -3.51200
C         -9.96450        8.63100       -3.89270
F        -10.59950        9.60200       -4.55900
C         -8.58600        8.70220       -3.75660
C         -7.94650        7.68280       -3.06800
C         -6.53540        7.45910       -2.75320
C         -5.52640        8.34670       -3.02740
C         -4.16680        8.20300       -2.67720
N         -3.04650        8.17940       -2.42290
C         -5.71740        9.57710       -3.69240
N         -5.79930       10.58770       -4.23040
H          5.17920       -6.72160        3.06210
H         10.29980       -7.49200        1.11450
H         11.69190       -6.27540       -0.48530
H         12.03930       -4.43420       -2.04700
H         11.20440       -2.41020       -3.17210
H          8.93990       -1.56850       -2.70170
H          7.48050       -2.74530       -1.09640
H          2.99180       -6.27880        3.76500
H          0.28130        1.26570        0.87570
H         -0.82330        2.60720        0.58110
H         -1.01310        2.12370       -1.77920
H          0.70260        2.18880       -1.37840
H         -0.09510        0.62940       -1.63690
H          1.15010       -0.16960       -0.04630
H          2.31310       -1.42210        0.38690
H          1.44510       -1.73510       -1.93550
H          1.03370       -3.10260       -0.89960
H         -0.20020       -1.90400       -1.29930
H         -6.75270        3.52190       -0.39910
H         -4.35380        6.11860       -2.12360
H        -10.63340        5.73330       -2.25090
H         -8.06560        9.53890       -4.19210
