
  xtb     02012222293D
 energy: -192.371018414640 gnorm: 0.000736464431 xtb: 6.4.1 (unknown)
103115  0     0  0            999 V2000
   -1.3120   -7.1853   -1.7842 C   0  0  0  0  0  0  0  0  0  0  0  0
   -2.5778   -7.1943   -1.2869 C   0  0  0  0  0  0  0  0  0  0  0  0
   -3.6124   -8.0724   -1.8973 C   0  0  0  0  0  0  0  0  0  0  0  0
   -3.4076   -8.9946   -2.6569 O   0  0  0  0  0  0  0  0  0  0  0  0
   -4.9012   -7.5333   -1.4225 C   0  0  0  0  0  0  0  0  0  0  0  0
   -4.6673   -6.5120   -0.5007 C   0  0  0  0  0  0  0  0  0  0  0  0
   -5.7333   -5.8142    0.0807 C   0  0  0  0  0  0  0  0  0  0  0  0
   -7.0128   -6.1580   -0.2696 C   0  0  0  0  0  0  0  0  0  0  0  0
   -7.2856   -7.1979   -1.1853 C   0  0  0  0  0  0  0  0  0  0  0  0
   -8.6057   -7.5568   -1.5257 C   0  0  0  0  0  0  0  0  0  0  0  0
   -8.8464   -8.5700   -2.4123 C   0  0  0  0  0  0  0  0  0  0  0  0
   -7.7810   -9.2698   -3.0015 C   0  0  0  0  0  0  0  0  0  0  0  0
   -6.4864   -8.9498   -2.6988 C   0  0  0  0  0  0  0  0  0  0  0  0
   -6.2079   -7.9118   -1.7863 C   0  0  0  0  0  0  0  0  0  0  0  0
   -3.2308   -6.3924   -0.2759 C   0  0  0  0  0  0  0  0  0  0  0  0
   -2.6383   -5.8682    0.8435 C   0  0  0  0  0  0  0  0  0  0  0  0
   -1.2798   -6.0779    1.1621 C   0  0  0  0  0  0  0  0  0  0  0  0
   -0.1945   -6.2710    1.4830 N   0  0  0  0  0  0  0  0  0  0  0  0
   -3.3168   -5.1353    1.8359 C   0  0  0  0  0  0  0  0  0  0  0  0
   -3.8088   -4.4978    2.6544 N   0  0  0  0  0  0  0  0  0  0  0  0
   -0.3194   -6.1866   -1.6507 C   0  0  0  0  0  0  0  0  0  0  0  0
    1.0445   -6.3307   -1.8585 C   0  0  0  0  0  0  0  0  0  0  0  0
    1.7319   -7.6027   -2.2308 C   0  0  0  0  0  0  0  0  0  0  0  0
    1.9136   -7.6855   -3.7488 C   0  0  0  0  0  0  0  0  0  0  0  0
    1.7213   -5.1197   -1.6710 C   0  0  0  0  0  0  0  0  0  0  0  0
    3.4166   -4.6953   -1.7275 S   0  0  0  0  0  0  0  0  0  0  0  0
    2.9994   -3.0754   -1.2917 C   0  0  0  0  0  0  0  0  0  0  0  0
    3.6295   -1.8627   -0.9828 C   0  0  0  0  0  0  0  0  0  0  0  0
    5.0015   -1.5434   -0.8806 C   0  0  0  0  0  0  0  0  0  0  0  0
    5.3741   -0.2441   -0.4084 C   0  0  0  0  0  0  0  0  0  0  0  0
    6.6861   -0.0977   -0.3108 N   0  0  0  0  0  0  0  0  0  0  0  0
    7.3915   -1.4772   -0.7781 S   0  0  0  0  0  0  0  0  0  0  0  0
    6.0497   -2.3148   -1.1222 N   0  0  0  0  0  0  0  0  0  0  0  0
    4.3592    0.7048   -0.1545 C   0  0  0  0  0  0  0  0  0  0  0  0
    4.4440    2.0504    0.2193 C   0  0  0  0  0  0  0  0  0  0  0  0
    5.6485    3.2193    0.6336 S   0  0  0  0  0  0  0  0  0  0  0  0
    4.3769    4.4149    0.8150 C   0  0  0  0  0  0  0  0  0  0  0  0
    4.4011    5.7543    1.1694 C   0  0  0  0  0  0  0  0  0  0  0  0
    5.6651    6.4998    1.4455 C   0  0  0  0  0  0  0  0  0  0  0  0
    6.1313    7.2607    0.2009 C   0  0  0  0  0  0  0  0  0  0  0  0
    3.1053    6.3085    1.1729 C   0  0  0  0  0  0  0  0  0  0  0  0
    1.8748    5.1214    0.7292 S   0  0  0  0  0  0  0  0  0  0  0  0
    3.0876    3.9104    0.5571 C   0  0  0  0  0  0  0  0  0  0  0  0
    3.1372    2.5553    0.2241 C   0  0  0  0  0  0  0  0  0  0  0  0
    2.2521    1.5640   -0.1047 N   0  0  0  0  0  0  0  0  0  0  0  0
    2.9736    0.4065   -0.3347 C   0  0  0  0  0  0  0  0  0  0  0  0
    2.6027   -0.9255   -0.6630 C   0  0  0  0  0  0  0  0  0  0  0  0
    1.3815   -1.5746   -0.7624 N   0  0  0  0  0  0  0  0  0  0  0  0
    1.6250   -2.8696   -1.1289 C   0  0  0  0  0  0  0  0  0  0  0  0
    0.8925   -4.0397   -1.3450 C   0  0  0  0  0  0  0  0  0  0  0  0
   -0.7606   -4.5199   -1.2764 S   0  0  0  0  0  0  0  0  0  0  0  0
    0.0863   -1.2358   -0.2144 C   0  0  0  0  0  0  0  0  0  0  0  0
    0.1400   -1.0969    1.3046 C   0  0  0  0  0  0  0  0  0  0  0  0
    0.8964    1.9191   -0.4614 C   0  0  0  0  0  0  0  0  0  0  0  0
    0.6653    1.7960   -1.9654 C   0  0  0  0  0  0  0  0  0  0  0  0
    2.8511    7.6376    1.5073 C   0  0  0  0  0  0  0  0  0  0  0  0
    1.6754    8.3553    1.5414 C   0  0  0  0  0  0  0  0  0  0  0  0
    0.3492    7.8585    1.1813 C   0  0  0  0  0  0  0  0  0  0  0  0
    0.0377    6.7358    0.8236 O   0  0  0  0  0  0  0  0  0  0  0  0
   -0.5710    9.0055    1.3357 C   0  0  0  0  0  0  0  0  0  0  0  0
   -1.9308    9.0526    1.1038 C   0  0  0  0  0  0  0  0  0  0  0  0
   -2.5773   10.2592    1.3195 C   0  0  0  0  0  0  0  0  0  0  0  0
   -3.8960   10.3520    1.1053 F   0  0  0  0  0  0  0  0  0  0  0  0
   -1.8674   11.3771    1.7562 C   0  0  0  0  0  0  0  0  0  0  0  0
   -2.5166   12.5301    1.9548 F   0  0  0  0  0  0  0  0  0  0  0  0
   -0.5007   11.3279    1.9907 C   0  0  0  0  0  0  0  0  0  0  0  0
    0.1534   10.1253    1.7767 C   0  0  0  0  0  0  0  0  0  0  0  0
    1.5606    9.7462    1.9244 C   0  0  0  0  0  0  0  0  0  0  0  0
    2.5566   10.5820    2.3627 C   0  0  0  0  0  0  0  0  0  0  0  0
    2.3541   11.9297    2.7280 C   0  0  0  0  0  0  0  0  0  0  0  0
    2.2617   13.0313    3.0372 N   0  0  0  0  0  0  0  0  0  0  0  0
    3.9145   10.2364    2.5233 C   0  0  0  0  0  0  0  0  0  0  0  0
    5.0350   10.0374    2.6828 N   0  0  0  0  0  0  0  0  0  0  0  0
   -1.0670   -8.0171   -2.4368 H   0  0  0  0  0  0  0  0  0  0  0  0
   -5.5517   -5.0143    0.7803 H   0  0  0  0  0  0  0  0  0  0  0  0
   -7.8478   -5.6264    0.1636 H   0  0  0  0  0  0  0  0  0  0  0  0
   -9.4238   -7.0174   -1.0704 H   0  0  0  0  0  0  0  0  0  0  0  0
   -9.8611   -8.8396   -2.6658 H   0  0  0  0  0  0  0  0  0  0  0  0
   -7.9937  -10.0666   -3.6984 H   0  0  0  0  0  0  0  0  0  0  0  0
   -5.6599   -9.4797   -3.1453 H   0  0  0  0  0  0  0  0  0  0  0  0
    1.1602   -8.4600   -1.8759 H   0  0  0  0  0  0  0  0  0  0  0  0
    2.7123   -7.6195   -1.7510 H   0  0  0  0  0  0  0  0  0  0  0  0
    0.9499   -7.6596   -4.2528 H   0  0  0  0  0  0  0  0  0  0  0  0
    2.5128   -6.8503   -4.1038 H   0  0  0  0  0  0  0  0  0  0  0  0
    2.4182   -8.6110   -4.0125 H   0  0  0  0  0  0  0  0  0  0  0  0
    5.5344    7.2014    2.2708 H   0  0  0  0  0  0  0  0  0  0  0  0
    6.4325    5.7771    1.7291 H   0  0  0  0  0  0  0  0  0  0  0  0
    7.0502    7.7961    0.4210 H   0  0  0  0  0  0  0  0  0  0  0  0
    5.3803    7.9808   -0.1154 H   0  0  0  0  0  0  0  0  0  0  0  0
    6.3162    6.5693   -0.6178 H   0  0  0  0  0  0  0  0  0  0  0  0
   -0.3110   -0.3403   -0.6908 H   0  0  0  0  0  0  0  0  0  0  0  0
   -0.5840   -2.0588   -0.4741 H   0  0  0  0  0  0  0  0  0  0  0  0
    0.8533   -0.3332    1.6065 H   0  0  0  0  0  0  0  0  0  0  0  0
   -0.8424   -0.8347    1.6875 H   0  0  0  0  0  0  0  0  0  0  0  0
    0.4423   -2.0410    1.7522 H   0  0  0  0  0  0  0  0  0  0  0  0
    0.1816    1.3269    0.1095 H   0  0  0  0  0  0  0  0  0  0  0  0
    0.7594    2.9610   -0.1624 H   0  0  0  0  0  0  0  0  0  0  0  0
    0.8612    0.7852   -2.3162 H   0  0  0  0  0  0  0  0  0  0  0  0
   -0.3611    2.0605   -2.2042 H   0  0  0  0  0  0  0  0  0  0  0  0
    1.3284    2.4737   -2.4980 H   0  0  0  0  0  0  0  0  0  0  0  0
    3.7417    8.1863    1.7806 H   0  0  0  0  0  0  0  0  0  0  0  0
   -2.4756    8.1856    0.7660 H   0  0  0  0  0  0  0  0  0  0  0  0
   -0.0002   12.2208    2.3271 H   0  0  0  0  0  0  0  0  0  0  0  0
  1  2  2  0  0  0  0
  2  3  1  0  0  0  0
  3  4  2  0  0  0  0
  3  5  1  0  0  0  0
  5  6  2  0  0  0  0
  6  7  1  0  0  0  0
  7  8  2  0  0  0  0
  8  9  1  0  0  0  0
  9 10  2  0  0  0  0
 10 11  1  0  0  0  0
 11 12  2  0  0  0  0
 12 13  1  0  0  0  0
 13 14  2  0  0  0  0
  6 15  1  0  0  0  0
 15 16  2  0  0  0  0
 16 17  1  0  0  0  0
 17 18  3  0  0  0  0
 16 19  1  0  0  0  0
 19 20  3  0  0  0  0
  1 21  1  0  0  0  0
 21 22  2  0  0  0  0
 22 23  1  0  0  0  0
 23 24  1  0  0  0  0
 22 25  1  0  0  0  0
 25 26  1  0  0  0  0
 26 27  1  0  0  0  0
 27 28  1  0  0  0  0
 28 29  1  0  0  0  0
 29 30  1  0  0  0  0
 30 31  2  0  0  0  0
 31 32  1  0  0  0  0
 32 33  1  0  0  0  0
 30 34  1  0  0  0  0
 34 35  1  0  0  0  0
 35 36  1  0  0  0  0
 36 37  1  0  0  0  0
 37 38  1  0  0  0  0
 38 39  1  0  0  0  0
 39 40  1  0  0  0  0
 38 41  2  0  0  0  0
 41 42  1  0  0  0  0
 42 43  1  0  0  0  0
 43 44  1  0  0  0  0
 44 45  1  0  0  0  0
 45 46  1  0  0  0  0
 46 47  1  0  0  0  0
 47 48  1  0  0  0  0
 48 49  1  0  0  0  0
 49 50  1  0  0  0  0
 50 51  1  0  0  0  0
 48 52  1  0  0  0  0
 52 53  1  0  0  0  0
 45 54  1  0  0  0  0
 54 55  1  0  0  0  0
 41 56  1  0  0  0  0
 56 57  2  0  0  0  0
 57 58  1  0  0  0  0
 58 59  2  0  0  0  0
 58 60  1  0  0  0  0
 60 61  2  0  0  0  0
 61 62  1  0  0  0  0
 62 63  1  0  0  0  0
 62 64  2  0  0  0  0
 64 65  1  0  0  0  0
 64 66  1  0  0  0  0
 66 67  2  0  0  0  0
 67 68  1  0  0  0  0
 68 69  2  0  0  0  0
 69 70  1  0  0  0  0
 70 71  3  0  0  0  0
 69 72  1  0  0  0  0
 72 73  3  0  0  0  0
 15  2  1  0  0  0  0
 51 21  1  0  0  0  0
 68 57  1  0  0  0  0
 14  5  1  0  0  0  0
 50 25  2  0  0  0  0
 67 60  1  0  0  0  0
 14  9  1  0  0  0  0
 49 27  2  0  0  0  0
 47 28  2  0  0  0  0
 33 29  2  0  0  0  0
 46 34  2  0  0  0  0
 44 35  2  0  0  0  0
 43 37  2  0  0  0  0
  1 74  1  0  0  0  0
  7 75  1  0  0  0  0
  8 76  1  0  0  0  0
 10 77  1  0  0  0  0
 11 78  1  0  0  0  0
 12 79  1  0  0  0  0
 13 80  1  0  0  0  0
 23 81  1  0  0  0  0
 23 82  1  0  0  0  0
 24 83  1  0  0  0  0
 24 84  1  0  0  0  0
 24 85  1  0  0  0  0
 39 86  1  0  0  0  0
 39 87  1  0  0  0  0
 40 88  1  0  0  0  0
 40 89  1  0  0  0  0
 40 90  1  0  0  0  0
 52 91  1  0  0  0  0
 52 92  1  0  0  0  0
 53 93  1  0  0  0  0
 53 94  1  0  0  0  0
 53 95  1  0  0  0  0
 54 96  1  0  0  0  0
 54 97  1  0  0  0  0
 55 98  1  0  0  0  0
 55 99  1  0  0  0  0
 55100  1  0  0  0  0
 56101  1  0  0  0  0
 61102  1  0  0  0  0
 66103  1  0  0  0  0
M  END
