147

C          7.74650        0.07300        4.29570
C          8.46150       -0.59290        5.25290
C          8.11220       -1.83850        5.97550
O          7.21520       -2.62100        5.72660
C          9.07990       -1.94280        7.08370
C          9.99840       -0.89840        7.00290
C         11.01720       -0.77270        7.95740
C         11.09300       -1.69580        8.96710
C         10.18070       -2.76790        9.07390
C         10.26910       -3.71290       10.11600
C          9.37260       -4.74220       10.20220
C          8.34750       -4.87360        9.25190
C          8.22920       -3.97680        8.22640
C          9.13930       -2.90600        8.11060
C          9.68760       -0.07660        5.83820
C         10.46470        0.94600        5.36020
C         11.65630        1.39690        5.96720
N         12.62910        1.82620        6.40040
C         10.23360        1.68030        4.17670
N         10.14550        2.31460        3.22280
C          6.55780       -0.25200        3.61460
C          5.78310       -1.40000        3.56560
C          4.68340       -1.24860        2.73360
S          3.36370       -2.29750        2.29470
C          2.70280       -1.02700        1.32390
C          1.52520       -0.86410        0.52970
C          0.46620       -1.73180        0.27750
C         -0.57780       -1.24630       -0.47450
C         -1.85150       -1.96470       -0.88550
C         -1.47040       -3.15760       -1.74360
C         -1.14920       -4.36810       -1.14260
C         -0.76120       -5.44980       -1.90930
C         -0.67840       -5.35200       -3.29250
C         -0.30820       -6.54420       -4.12610
C         -1.55710       -7.35370       -4.48160
C         -0.99380       -4.13810       -3.88690
C         -1.37890       -3.05110       -3.12390
C         -2.74530       -2.36650        0.27370
C         -2.58420       -1.83460        1.54370
C         -3.45120       -2.18630        2.56420
C         -4.50290       -3.06250        2.34000
C         -5.45170       -3.43840        3.43660
C         -4.66870       -3.57890        1.05930
C         -3.80450       -3.23630        0.03920
C         -2.55580       -0.87470       -1.64710
C         -1.79120        0.27980       -1.67000
C         -0.55870        0.07770       -0.97380
C          0.51330        0.93620       -0.74520
C          1.55720        0.45070        0.00670
C          2.81980        1.17650        0.43780
C          3.79910        1.43700       -0.69510
C          4.89570        2.25720       -0.45620
C          5.83880        2.47090       -1.44150
C          5.71320        1.87230       -2.68930
C          6.76490        2.07060       -3.74220
C          7.88150        1.03690       -3.57970
C          4.62090        1.04740       -2.91820
C          3.67440        0.82550       -1.93330
C          2.43690        2.45740        1.15190
C          2.23460        2.48270        2.52410
C          1.85440        3.65320        3.15480
C          1.65940        4.82240        2.43280
C          1.20820        6.08290        3.11220
C         -0.31900        6.17610        3.10640
C          1.84640        4.78690        1.05680
C          2.22960        3.62130        0.42230
C          3.45040        0.13890        1.32690
C          4.58780        0.01850        2.12050
S          5.89750        1.02670        2.58180
S         -2.54320        1.61390       -2.47520
C         -3.93650        0.61550       -2.78620
C         -5.15280        0.84670       -3.41240
C         -5.96220       -0.27800       -3.40290
S         -5.16870       -1.64830       -2.60840
C         -3.78230       -0.69240       -2.27990
C         -7.25280       -0.53450       -3.90420
C         -8.20210        0.28770       -4.44600
C         -8.20310        1.76610       -4.54690
O         -7.27700        2.52930       -4.35000
C         -9.57730        2.13940       -4.93170
C        -10.33610        0.98840       -5.13300
C        -11.68730        1.08180       -5.49400
C        -12.24450        2.32400       -5.64850
C        -11.50090        3.50890       -5.45900
C        -12.08350        4.78180       -5.62470
C        -11.34510        5.91700       -5.43340
C         -9.99240        5.83220       -5.06700
C         -9.39200        4.61540       -4.89660
C        -10.12690        3.42740       -5.08870
C         -9.49600       -0.18340       -4.91060
C         -9.85800       -1.47930       -5.17150
C         -9.01880       -2.60990       -5.06820
N         -8.40810       -3.58240       -5.03920
C        -11.13090       -1.87660       -5.63310
N        -12.14080       -2.28110       -6.00020
H          8.13010        1.04750        4.01500
H         11.72690        0.03610        7.90810
H         11.87090       -1.61030        9.71210
H         11.05920       -3.60810       10.84560
H          9.44710       -5.46190       11.00410
H          7.64920       -5.69280        9.33820
H          7.44490       -4.06980        7.49240
H          6.01980       -2.28830        4.12070
H          0.46620       -2.73430        0.67610
H         -1.21700       -4.46840       -0.06900
H         -0.51770       -6.38510       -1.42570
H          0.18190       -6.21630       -5.04500
H          0.38810       -7.17970       -3.57490
H         -2.25930       -6.73970       -5.04080
H         -2.05240       -7.70140       -3.57780
H         -1.29130       -8.21720       -5.08680
H         -0.93540       -4.03880       -4.96140
H         -1.61130       -2.11530       -3.61130
H         -1.77830       -1.14360        1.74390
H         -3.30440       -1.76760        3.54970
H         -5.57880       -4.51870        3.47900
H         -6.43090       -2.99620        3.25320
H         -5.09200       -3.08880        4.40100
H         -5.48560       -4.25730        0.86010
H         -3.94650       -3.65220       -0.94780
H          0.51110        1.94120       -1.13780
H          5.00590        2.73560        0.50640
H          6.68440        3.11160       -1.23830
H          6.32090        1.96920       -4.73460
H          7.18910        3.07310       -3.65700
H          8.64510        1.17880       -4.34080
H          7.48080        0.02960       -3.67230
H          8.34490        1.13190       -2.60020
H          4.50600        0.56880       -3.88040
H          2.83630        0.17410       -2.13470
H          2.37690        1.58490        3.10830
H          1.71080        3.65730        4.22600
H          1.62290        6.95030        2.59460
H          1.56610        6.09680        4.14340
H         -0.64630        7.09080        3.59510
H         -0.69460        6.17360        2.08560
H         -0.75180        5.32720        3.63120
H          1.69590        5.68510        0.47500
H          2.38470        3.61820       -0.64700
H         -5.45410        1.77960       -3.85080
H         -7.53520       -1.57650       -3.80330
H        -12.28460        0.19770       -5.64180
H        -13.28570        2.41200       -5.92340
H        -13.12490        4.84290       -5.90630
H        -11.79910        6.88850       -5.56240
H         -9.42720        6.74040       -4.91960
H         -8.35390        4.54070       -4.61500
