104

C         -7.84010        0.24690        3.17740
C         -7.74080        1.55570        3.60030
C         -6.58860        2.43430        3.41920
O         -5.51800        2.17810        2.89500
C         -6.97530        3.73650        4.00130
C         -6.24010        4.90010        4.07230
C         -6.82490        6.00970        4.66930
Br        -5.84460        7.62290        4.78130
C         -8.12120        5.93350        5.17870
Br        -8.91150        7.44910        5.98950
C         -8.85950        4.75650        5.10510
C         -8.28210        3.64760        4.51090
C         -8.78450        2.29170        4.28020
C        -10.02320        1.84010        4.66190
C        -10.98250        2.63460        5.32420
N        -11.80390        3.22880        5.86260
C        -10.52470        0.53720        4.46320
N        -11.00560       -0.49960        4.34230
C         -6.92790       -0.57470        2.51900
C         -7.22000       -1.90480        2.15270
C         -8.48880       -2.63300        2.45180
C         -8.46750       -3.19920        3.87470
C         -6.14400       -2.50090        1.51650
C         -5.01950       -1.66360        1.37450
S         -5.29350       -0.10070        2.04340
C         -3.98070       -2.32620        0.71970
C         -4.31210       -3.64830        0.38780
S         -5.91320       -4.10690        0.84940
C         -3.17560       -4.22310       -0.19180
C         -2.89840       -5.55490       -0.57460
N         -3.70330       -6.60500       -0.55140
S         -2.85800       -7.90930       -1.00490
N         -1.43300       -7.18320       -1.24970
C         -1.56760       -5.89300       -0.98780
C         -0.61160       -4.86120       -1.12570
C          0.69660       -4.87740       -1.62750
S          1.85960       -6.01670       -2.21420
C          2.94760       -4.68420       -2.54620
C          4.22370       -4.60970       -3.07290
C          4.70100       -3.30100       -3.14930
S          3.52230       -2.14210       -2.54890
C          2.41680       -3.42320       -2.21230
C          1.12990       -3.54660       -1.68030
N          0.15490       -2.71180       -1.19860
C          0.16920       -1.32580       -1.61970
C         -0.66160       -1.13680       -2.88710
C         -0.92570       -3.50060       -0.83730
C         -2.17780       -3.20340       -0.24100
N         -2.68880       -2.06420        0.34560
C         -2.00640       -0.90790        0.88340
C         -2.34860        0.37530        0.12880
C          5.97520       -3.00380       -3.65870
C          6.62360       -1.80410       -3.78210
C          6.10890       -0.50050       -3.34690
O          5.00760       -0.25790       -2.88020
C          7.18930        0.47070       -3.57490
C          7.17300        1.83050       -3.27270
C          8.34000        2.48630       -3.58260
C          9.44510        1.83510       -4.14700
C          9.47420        0.49430       -4.44960
C          8.29430       -0.19140       -4.14850
C          7.95670       -1.60340       -4.32020
C          8.75930       -2.54270       -4.91370
C         10.04030       -2.27970       -5.44430
N         11.08540       -2.14530       -5.90030
C          8.43510       -3.90200       -5.10850
N          8.25060       -5.01780       -5.31050
C         10.26950        3.09670       -4.18700
C         10.43150        3.81090       -5.55140
C          9.21710        3.45150       -6.37120
C          8.17150        4.06960       -5.83860
C          8.65960        4.85780       -4.64830
C         10.06440        5.24500       -5.13760
C          9.03800        3.82310       -3.55950
H         -8.78460       -0.23900        3.37990
H         -5.23860        4.94580        3.67360
H         -9.85810        4.73860        5.51000
H         -8.58360       -3.45750        1.74250
H         -9.35460       -1.97980        2.33520
H         -9.39490       -3.72820        4.07270
H         -8.36470       -2.40120        4.60620
H         -7.63670       -3.89060        3.99420
H          4.80330       -5.45560       -3.39540
H          1.21230       -1.07080       -1.82140
H         -0.18780       -0.66890       -0.83220
H         -0.62340       -0.09800       -3.20310
H         -0.27000       -1.75700       -3.69000
H         -1.69900       -1.41650       -2.71290
H         -0.93450       -1.11010        0.89360
H         -2.32820       -0.79190        1.92430
H         -3.38670        0.64360        0.30380
H         -1.72490        1.18840        0.48940
H         -2.20040        0.26220       -0.94140
H          6.50990       -3.88670       -3.98690
H          6.30210        2.28940       -2.83120
H         10.33610        0.01050       -4.87720
H         11.19580        3.07760       -3.61640
H         11.39530        3.65750       -6.02900
H          9.23360        2.76160       -7.19450
H          7.13920        3.99950       -6.12790
H          8.01110        5.65900       -4.30370
H         10.04160        5.93380       -5.98060
H         10.70250        5.64640       -4.35150
H          9.16050        4.27900       -2.57890
