
  xtb     02022213003D
 energy: -219.713727737558 gnorm: 0.000545429726 xtb: 6.4.1 (unknown)
117130  0     0  0            999 V2000
   -3.1897    4.3920   -4.7345 C   0  0  0  0  0  0  0  0  0  0  0  0
   -4.4706    3.9432   -4.9758 C   0  0  0  0  0  0  0  0  0  0  0  0
   -5.2039    2.9695   -4.1716 C   0  0  0  0  0  0  0  0  0  0  0  0
   -4.8136    2.3490   -3.1975 O   0  0  0  0  0  0  0  0  0  0  0  0
   -6.5479    2.8727   -4.7785 C   0  0  0  0  0  0  0  0  0  0  0  0
   -7.6193    2.1028   -4.3799 C   0  0  0  0  0  0  0  0  0  0  0  0
   -8.7944    2.1830   -5.1165 C   0  0  0  0  0  0  0  0  0  0  0  0
  -10.2849    1.1423   -4.5959 Br  0  0  0  0  0  0  0  0  0  0  0  0
   -8.8727    3.0236   -6.2268 C   0  0  0  0  0  0  0  0  0  0  0  0
  -10.4769    3.1291   -7.2237 Br  0  0  0  0  0  0  0  0  0  0  0  0
   -7.7880    3.7976   -6.6266 C   0  0  0  0  0  0  0  0  0  0  0  0
   -6.6144    3.7224   -5.8964 C   0  0  0  0  0  0  0  0  0  0  0  0
   -5.3237    4.3969   -6.0515 C   0  0  0  0  0  0  0  0  0  0  0  0
   -5.0168    5.2818   -7.0545 C   0  0  0  0  0  0  0  0  0  0  0  0
   -3.7836    5.9399   -7.2435 C   0  0  0  0  0  0  0  0  0  0  0  0
   -2.8259    6.5260   -7.4884 N   0  0  0  0  0  0  0  0  0  0  0  0
   -5.9193    5.6613   -8.0706 C   0  0  0  0  0  0  0  0  0  0  0  0
   -6.6055    6.0108   -8.9221 N   0  0  0  0  0  0  0  0  0  0  0  0
   -2.2660    4.0210   -3.7590 C   0  0  0  0  0  0  0  0  0  0  0  0
   -0.9909    4.6239   -3.6583 C   0  0  0  0  0  0  0  0  0  0  0  0
   -0.5737    5.7816   -4.4393 C   0  0  0  0  0  0  0  0  0  0  0  0
    0.6588    5.7712   -5.0912 C   0  0  0  0  0  0  0  0  0  0  0  0
    1.0323    6.8326   -5.8888 C   0  0  0  0  0  0  0  0  0  0  0  0
    0.2016    7.9363   -6.0467 C   0  0  0  0  0  0  0  0  0  0  0  0
    0.5633    9.0371   -6.9962 C   0  0  0  0  0  0  0  0  0  0  0  0
    0.0570    8.6847   -8.3977 C   0  0  0  0  0  0  0  0  0  0  0  0
   -1.0037    7.9653   -5.3552 C   0  0  0  0  0  0  0  0  0  0  0  0
   -1.3901    6.9060   -4.5609 C   0  0  0  0  0  0  0  0  0  0  0  0
   -0.1856    3.9585   -2.7408 C   0  0  0  0  0  0  0  0  0  0  0  0
    1.4619    4.2117   -2.1969 S   0  0  0  0  0  0  0  0  0  0  0  0
    1.2940    2.8481   -1.1464 C   0  0  0  0  0  0  0  0  0  0  0  0
    2.0709    2.0921   -0.2554 C   0  0  0  0  0  0  0  0  0  0  0  0
    3.4463    2.1107    0.0761 C   0  0  0  0  0  0  0  0  0  0  0  0
    3.9892    1.0461    0.8783 C   0  0  0  0  0  0  0  0  0  0  0  0
    5.2994    1.1500    1.0302 N   0  0  0  0  0  0  0  0  0  0  0  0
    5.8083    2.4712    0.2466 S   0  0  0  0  0  0  0  0  0  0  0  0
    4.3760    2.9623   -0.3245 N   0  0  0  0  0  0  0  0  0  0  0  0
    3.1119    0.0897    1.4411 C   0  0  0  0  0  0  0  0  0  0  0  0
    3.3019   -0.9927    2.3145 C   0  0  0  0  0  0  0  0  0  0  0  0
    4.5996   -1.8663    3.0527 S   0  0  0  0  0  0  0  0  0  0  0  0
    3.4208   -2.9284    3.7980 C   0  0  0  0  0  0  0  0  0  0  0  0
    3.5437   -4.0747    4.5761 C   0  0  0  0  0  0  0  0  0  0  0  0
    4.8228   -4.6601    4.9613 C   0  0  0  0  0  0  0  0  0  0  0  0
    5.0771   -6.0199    4.7845 C   0  0  0  0  0  0  0  0  0  0  0  0
    6.2922   -6.5562    5.1567 C   0  0  0  0  0  0  0  0  0  0  0  0
    7.2836   -5.7582    5.7151 C   0  0  0  0  0  0  0  0  0  0  0  0
    8.6118   -6.3428    6.0915 C   0  0  0  0  0  0  0  0  0  0  0  0
    9.5678   -6.3027    4.8968 C   0  0  0  0  0  0  0  0  0  0  0  0
    7.0370   -4.3982    5.8638 C   0  0  0  0  0  0  0  0  0  0  0  0
    5.8280   -3.8505    5.4876 C   0  0  0  0  0  0  0  0  0  0  0  0
    2.2800   -4.6127    4.9073 C   0  0  0  0  0  0  0  0  0  0  0  0
    0.9580   -3.6955    4.1837 S   0  0  0  0  0  0  0  0  0  0  0  0
    2.0897   -2.5945    3.4923 C   0  0  0  0  0  0  0  0  0  0  0  0
    2.0305   -1.4897    2.6414 C   0  0  0  0  0  0  0  0  0  0  0  0
    1.0611   -0.7651    1.9931 N   0  0  0  0  0  0  0  0  0  0  0  0
    1.7101    0.1743    1.2182 C   0  0  0  0  0  0  0  0  0  0  0  0
    1.2189    1.0682    0.2430 C   0  0  0  0  0  0  0  0  0  0  0  0
   -0.0171    1.1603   -0.3639 N   0  0  0  0  0  0  0  0  0  0  0  0
    0.0278    2.2450   -1.2041 C   0  0  0  0  0  0  0  0  0  0  0  0
   -0.8241    2.8734   -2.1133 C   0  0  0  0  0  0  0  0  0  0  0  0
   -2.4528    2.6708   -2.6393 S   0  0  0  0  0  0  0  0  0  0  0  0
   -0.9419    0.0771   -0.6359 C   0  0  0  0  0  0  0  0  0  0  0  0
   -0.6871   -0.5304   -2.0149 C   0  0  0  0  0  0  0  0  0  0  0  0
   -0.2741   -0.6540    2.5487 C   0  0  0  0  0  0  0  0  0  0  0  0
   -0.2307   -0.1808    4.0011 C   0  0  0  0  0  0  0  0  0  0  0  0
    2.1342   -5.6961    5.7738 C   0  0  0  0  0  0  0  0  0  0  0  0
    1.0084   -6.3844    6.1703 C   0  0  0  0  0  0  0  0  0  0  0  0
   -0.3610   -6.1136    5.7387 C   0  0  0  0  0  0  0  0  0  0  0  0
   -0.7562   -5.2275    5.0008 O   0  0  0  0  0  0  0  0  0  0  0  0
   -1.2042   -7.1390    6.3881 C   0  0  0  0  0  0  0  0  0  0  0  0
   -2.5695   -7.3153    6.2889 C   0  0  0  0  0  0  0  0  0  0  0  0
   -3.1345   -8.3625    6.9989 C   0  0  0  0  0  0  0  0  0  0  0  0
   -4.4552   -8.5726    6.9317 F   0  0  0  0  0  0  0  0  0  0  0  0
   -2.3397   -9.1994    7.7816 C   0  0  0  0  0  0  0  0  0  0  0  0
   -2.9109  -10.2040    8.4558 F   0  0  0  0  0  0  0  0  0  0  0  0
   -0.9675   -9.0196    7.8816 C   0  0  0  0  0  0  0  0  0  0  0  0
   -0.3942   -7.9747    7.1748 C   0  0  0  0  0  0  0  0  0  0  0  0
    0.9953   -7.5229    7.0639 C   0  0  0  0  0  0  0  0  0  0  0  0
    2.0616   -8.1051    7.7005 C   0  0  0  0  0  0  0  0  0  0  0  0
    3.4102   -7.6992    7.6162 C   0  0  0  0  0  0  0  0  0  0  0  0
    4.5317   -7.4494    7.6143 N   0  0  0  0  0  0  0  0  0  0  0  0
    1.9550   -9.2264    8.5508 C   0  0  0  0  0  0  0  0  0  0  0  0
    1.9398  -10.1375    9.2489 N   0  0  0  0  0  0  0  0  0  0  0  0
   -2.8164    5.1533   -5.4086 H   0  0  0  0  0  0  0  0  0  0  0  0
   -7.5455    1.4573   -3.5186 H   0  0  0  0  0  0  0  0  0  0  0  0
   -7.8889    4.4343   -7.4902 H   0  0  0  0  0  0  0  0  0  0  0  0
    1.3031    4.9098   -4.9971 H   0  0  0  0  0  0  0  0  0  0  0  0
    1.9795    6.8007   -6.4074 H   0  0  0  0  0  0  0  0  0  0  0  0
    1.6466    9.1715   -7.0231 H   0  0  0  0  0  0  0  0  0  0  0  0
    0.1071    9.9743   -6.6726 H   0  0  0  0  0  0  0  0  0  0  0  0
    0.5458    7.7833   -8.7596 H   0  0  0  0  0  0  0  0  0  0  0  0
    0.2626    9.4960   -9.0918 H   0  0  0  0  0  0  0  0  0  0  0  0
   -1.0142    8.5016   -8.3742 H   0  0  0  0  0  0  0  0  0  0  0  0
   -1.6508    8.8247   -5.4482 H   0  0  0  0  0  0  0  0  0  0  0  0
   -2.3193    6.9540   -4.0107 H   0  0  0  0  0  0  0  0  0  0  0  0
    4.3276   -6.6494    4.3262 H   0  0  0  0  0  0  0  0  0  0  0  0
    6.4720   -7.6119    5.0192 H   0  0  0  0  0  0  0  0  0  0  0  0
    9.0448   -5.7766    6.9180 H   0  0  0  0  0  0  0  0  0  0  0  0
    8.4801   -7.3765    6.4151 H   0  0  0  0  0  0  0  0  0  0  0  0
    9.1645   -6.8815    4.0688 H   0  0  0  0  0  0  0  0  0  0  0  0
    9.7103   -5.2783    4.5598 H   0  0  0  0  0  0  0  0  0  0  0  0
   10.5353   -6.7163    5.1709 H   0  0  0  0  0  0  0  0  0  0  0  0
    7.8002   -3.7616    6.2875 H   0  0  0  0  0  0  0  0  0  0  0  0
    5.6434   -2.7954    5.6261 H   0  0  0  0  0  0  0  0  0  0  0  0
   -1.9602    0.4741   -0.5880 H   0  0  0  0  0  0  0  0  0  0  0  0
   -0.8174   -0.7038    0.1100 H   0  0  0  0  0  0  0  0  0  0  0  0
   -0.8610    0.1983   -2.8013 H   0  0  0  0  0  0  0  0  0  0  0  0
    0.3389   -0.8860   -2.0857 H   0  0  0  0  0  0  0  0  0  0  0  0
   -1.3595   -1.3692   -2.1690 H   0  0  0  0  0  0  0  0  0  0  0  0
   -0.7630   -1.6319    2.4954 H   0  0  0  0  0  0  0  0  0  0  0  0
   -0.8377    0.0754    1.9690 H   0  0  0  0  0  0  0  0  0  0  0  0
    0.2572   -0.9134    4.6369 H   0  0  0  0  0  0  0  0  0  0  0  0
    0.3058    0.7630    4.0745 H   0  0  0  0  0  0  0  0  0  0  0  0
   -1.2449   -0.0351    4.3619 H   0  0  0  0  0  0  0  0  0  0  0  0
    3.0745   -6.0380    6.1886 H   0  0  0  0  0  0  0  0  0  0  0  0
   -3.1792   -6.6655    5.6817 H   0  0  0  0  0  0  0  0  0  0  0  0
   -0.4009   -9.6952    8.5007 H   0  0  0  0  0  0  0  0  0  0  0  0
  1  2  2  0  0  0  0
  2  3  1  0  0  0  0
  3  4  2  0  0  0  0
  3  5  1  0  0  0  0
  5  6  2  0  0  0  0
  6  7  1  0  0  0  0
  7  8  1  0  0  0  0
  7  9  2  0  0  0  0
  9 10  1  0  0  0  0
  9 11  1  0  0  0  0
 11 12  2  0  0  0  0
 12 13  1  0  0  0  0
 13 14  2  0  0  0  0
 14 15  1  0  0  0  0
 15 16  3  0  0  0  0
 14 17  1  0  0  0  0
 17 18  3  0  0  0  0
  1 19  1  0  0  0  0
 19 20  2  0  0  0  0
 20 21  1  0  0  0  0
 21 22  2  0  0  0  0
 22 23  1  0  0  0  0
 23 24  2  0  0  0  0
 24 25  1  0  0  0  0
 25 26  1  0  0  0  0
 24 27  1  0  0  0  0
 27 28  2  0  0  0  0
 20 29  1  0  0  0  0
 29 30  1  0  0  0  0
 30 31  1  0  0  0  0
 31 32  1  0  0  0  0
 32 33  1  0  0  0  0
 33 34  1  0  0  0  0
 34 35  2  0  0  0  0
 35 36  1  0  0  0  0
 36 37  1  0  0  0  0
 34 38  1  0  0  0  0
 38 39  1  0  0  0  0
 39 40  1  0  0  0  0
 40 41  1  0  0  0  0
 41 42  1  0  0  0  0
 42 43  1  0  0  0  0
 43 44  2  0  0  0  0
 44 45  1  0  0  0  0
 45 46  2  0  0  0  0
 46 47  1  0  0  0  0
 47 48  1  0  0  0  0
 46 49  1  0  0  0  0
 49 50  2  0  0  0  0
 42 51  2  0  0  0  0
 51 52  1  0  0  0  0
 52 53  1  0  0  0  0
 53 54  1  0  0  0  0
 54 55  1  0  0  0  0
 55 56  1  0  0  0  0
 56 57  1  0  0  0  0
 57 58  1  0  0  0  0
 58 59  1  0  0  0  0
 59 60  1  0  0  0  0
 60 61  1  0  0  0  0
 58 62  1  0  0  0  0
 62 63  1  0  0  0  0
 55 64  1  0  0  0  0
 64 65  1  0  0  0  0
 51 66  1  0  0  0  0
 66 67  2  0  0  0  0
 67 68  1  0  0  0  0
 68 69  2  0  0  0  0
 68 70  1  0  0  0  0
 70 71  2  0  0  0  0
 71 72  1  0  0  0  0
 72 73  1  0  0  0  0
 72 74  2  0  0  0  0
 74 75  1  0  0  0  0
 74 76  1  0  0  0  0
 76 77  2  0  0  0  0
 77 78  1  0  0  0  0
 78 79  2  0  0  0  0
 79 80  1  0  0  0  0
 80 81  3  0  0  0  0
 79 82  1  0  0  0  0
 82 83  3  0  0  0  0
 13  2  1  0  0  0  0
 61 19  1  0  0  0  0
 78 67  1  0  0  0  0
 12  5  1  0  0  0  0
 28 21  1  0  0  0  0
 60 29  2  0  0  0  0
 77 70  1  0  0  0  0
 59 31  2  0  0  0  0
 57 32  2  0  0  0  0
 37 33  2  0  0  0  0
 56 38  2  0  0  0  0
 54 39  2  0  0  0  0
 53 41  2  0  0  0  0
 50 43  1  0  0  0  0
  1 84  1  0  0  0  0
  6 85  1  0  0  0  0
 11 86  1  0  0  0  0
 22 87  1  0  0  0  0
 23 88  1  0  0  0  0
 25 89  1  0  0  0  0
 25 90  1  0  0  0  0
 26 91  1  0  0  0  0
 26 92  1  0  0  0  0
 26 93  1  0  0  0  0
 27 94  1  0  0  0  0
 28 95  1  0  0  0  0
 44 96  1  0  0  0  0
 45 97  1  0  0  0  0
 47 98  1  0  0  0  0
 47 99  1  0  0  0  0
 48100  1  0  0  0  0
 48101  1  0  0  0  0
 48102  1  0  0  0  0
 49103  1  0  0  0  0
 50104  1  0  0  0  0
 62105  1  0  0  0  0
 62106  1  0  0  0  0
 63107  1  0  0  0  0
 63108  1  0  0  0  0
 63109  1  0  0  0  0
 64110  1  0  0  0  0
 64111  1  0  0  0  0
 65112  1  0  0  0  0
 65113  1  0  0  0  0
 65114  1  0  0  0  0
 66115  1  0  0  0  0
 71116  1  0  0  0  0
 76117  1  0  0  0  0
M  END
