
  xtb     01272209293D
 energy: -175.965028884066 gnorm: 0.000588686136 xtb: 6.4.1 (unknown)
 88 98  0     0  0            999 V2000
    5.2038   -2.7089   -5.4819 C   0  0  0  0  0  0  0  0  0  0  0  0
    4.8654   -3.0028   -6.7833 C   0  0  0  0  0  0  0  0  0  0  0  0
    3.5271   -3.0750   -7.3964 C   0  0  0  0  0  0  0  0  0  0  0  0
    2.4473   -2.7404   -6.9480 O   0  0  0  0  0  0  0  0  0  0  0  0
    3.7333   -3.6799   -8.7306 C   0  0  0  0  0  0  0  0  0  0  0  0
    2.7816   -4.0136   -9.6709 C   0  0  0  0  0  0  0  0  0  0  0  0
    3.2075   -4.5946  -10.8579 C   0  0  0  0  0  0  0  0  0  0  0  0
    1.9278   -5.0708  -12.1661 Br  0  0  0  0  0  0  0  0  0  0  0  0
    4.5654   -4.8274  -11.0798 C   0  0  0  0  0  0  0  0  0  0  0  0
    5.1375   -5.6293  -12.6946 Br  0  0  0  0  0  0  0  0  0  0  0  0
    5.5225   -4.4831  -10.1313 C   0  0  0  0  0  0  0  0  0  0  0  0
    5.1025   -3.9034   -8.9458 C   0  0  0  0  0  0  0  0  0  0  0  0
    5.8382   -3.4373   -7.7715 C   0  0  0  0  0  0  0  0  0  0  0  0
    7.2046   -3.3720   -7.6841 C   0  0  0  0  0  0  0  0  0  0  0  0
    7.9463   -2.8361   -6.6089 C   0  0  0  0  0  0  0  0  0  0  0  0
    8.6313   -2.4017   -5.7958 N   0  0  0  0  0  0  0  0  0  0  0  0
    8.0781   -3.8045   -8.7050 C   0  0  0  0  0  0  0  0  0  0  0  0
    8.8392   -4.1418   -9.4952 N   0  0  0  0  0  0  0  0  0  0  0  0
    4.4433   -2.2622   -4.3920 C   0  0  0  0  0  0  0  0  0  0  0  0
    5.3241   -2.2026   -2.6791 Se  0  0  0  0  0  2  0  0  0  0  0  0
    3.7107   -1.6000   -2.0353 C   0  0  0  0  0  0  0  0  0  0  0  0
    3.1023   -1.2407   -0.8296 C   0  0  0  0  0  0  0  0  0  0  0  0
    3.6003   -1.3083    0.4883 C   0  0  0  0  0  0  0  0  0  0  0  0
    2.7222   -1.0092    1.5768 C   0  0  0  0  0  0  0  0  0  0  0  0
    3.3052   -1.1749    2.7542 N   0  0  0  0  0  0  0  0  0  0  0  0
    4.8295   -1.6588    2.5092 S   0  0  0  0  0  0  0  0  0  0  0  0
    4.8050   -1.6813    0.8893 N   0  0  0  0  0  0  0  0  0  0  0  0
    1.4172   -0.5522    1.2841 C   0  0  0  0  0  0  0  0  0  0  0  0
    0.3982   -0.0991    2.1306 C   0  0  0  0  0  0  0  0  0  0  0  0
    0.0872    0.0889    3.8189 S   0  0  0  0  0  0  0  0  0  0  0  0
   -1.4685    0.7907    3.4342 C   0  0  0  0  0  0  0  0  0  0  0  0
   -2.4802    1.3477    4.2270 C   0  0  0  0  0  0  0  0  0  0  0  0
   -2.4942    1.2912    5.7199 C   0  0  0  0  0  0  0  0  0  0  0  0
   -2.2682   -0.1276    6.2427 C   0  0  0  0  0  0  0  0  0  0  0  0
   -3.5127    1.8511    3.4399 C   0  0  0  0  0  0  0  0  0  0  0  0
   -3.2489    1.5564    1.7233 S   0  0  0  0  0  0  0  0  0  0  0  0
   -1.7135    0.8565    2.0546 C   0  0  0  0  0  0  0  0  0  0  0  0
   -0.6455    0.3461    1.3113 C   0  0  0  0  0  0  0  0  0  0  0  0
   -0.3225    0.1617   -0.0048 N   0  0  0  0  0  0  0  0  0  0  0  0
    0.9427   -0.4036   -0.0546 C   0  0  0  0  0  0  0  0  0  0  0  0
    1.7624   -0.8553   -1.1231 C   0  0  0  0  0  0  0  0  0  0  0  0
    1.5603   -1.0145   -2.4821 N   0  0  0  0  0  0  0  0  0  0  0  0
    2.7296   -1.4715   -3.0403 C   0  0  0  0  0  0  0  0  0  0  0  0
    3.1239   -1.8301   -4.3227 C   0  0  0  0  0  0  0  0  0  0  0  0
    0.3219   -1.1102   -3.2234 C   0  0  0  0  0  0  0  0  0  0  0  0
   -0.5787   -2.2113   -2.6687 C   0  0  0  0  0  0  0  0  0  0  0  0
   -1.0633    0.8767   -1.0221 C   0  0  0  0  0  0  0  0  0  0  0  0
   -0.2471    2.0301   -1.5990 C   0  0  0  0  0  0  0  0  0  0  0  0
   -4.7147    2.5046    3.7828 C   0  0  0  0  0  0  0  0  0  0  0  0
   -5.0071    3.3122    4.8446 C   0  0  0  0  0  0  0  0  0  0  0  0
   -6.4295    3.5490    5.2018 C   0  0  0  0  0  0  0  0  0  0  0  0
   -7.4034    3.2385    4.5572 O   0  0  0  0  0  0  0  0  0  0  0  0
   -6.3900    4.1960    6.5336 C   0  0  0  0  0  0  0  0  0  0  0  0
   -7.4432    4.5268    7.3629 C   0  0  0  0  0  0  0  0  0  0  0  0
   -7.1419    5.1022    8.5873 C   0  0  0  0  0  0  0  0  0  0  0  0
   -8.1312    5.4343    9.4242 F   0  0  0  0  0  0  0  0  0  0  0  0
   -5.8171    5.3348    8.9590 C   0  0  0  0  0  0  0  0  0  0  0  0
   -5.5563    5.8769   10.1528 F   0  0  0  0  0  0  0  0  0  0  0  0
   -4.7588    5.0133    8.1217 C   0  0  0  0  0  0  0  0  0  0  0  0
   -5.0533    4.4390    6.8960 C   0  0  0  0  0  0  0  0  0  0  0  0
   -4.1822    4.0174    5.7976 C   0  0  0  0  0  0  0  0  0  0  0  0
   -2.8887    4.4337    5.6121 C   0  0  0  0  0  0  0  0  0  0  0  0
   -2.1658    4.2399    4.4184 C   0  0  0  0  0  0  0  0  0  0  0  0
   -1.5488    4.1465    3.4550 N   0  0  0  0  0  0  0  0  0  0  0  0
   -2.1594    5.1820    6.5590 C   0  0  0  0  0  0  0  0  0  0  0  0
   -1.5141    5.7689    7.3047 N   0  0  0  0  0  0  0  0  0  0  0  0
    6.2450   -2.8790   -5.2274 H   0  0  0  0  0  0  0  0  0  0  0  0
    1.7346   -3.8301   -9.4856 H   0  0  0  0  0  0  0  0  0  0  0  0
    6.5612   -4.6816  -10.3392 H   0  0  0  0  0  0  0  0  0  0  0  0
   -3.4551    1.6523    6.0893 H   0  0  0  0  0  0  0  0  0  0  0  0
   -1.7089    1.9470    6.1106 H   0  0  0  0  0  0  0  0  0  0  0  0
   -1.2804   -0.4925    5.9779 H   0  0  0  0  0  0  0  0  0  0  0  0
   -3.0133   -0.8045    5.8306 H   0  0  0  0  0  0  0  0  0  0  0  0
   -2.3571   -0.1339    7.3259 H   0  0  0  0  0  0  0  0  0  0  0  0
    2.5038   -1.7984   -5.2003 H   0  0  0  0  0  0  0  0  0  0  0  0
    0.5908   -1.3564   -4.2517 H   0  0  0  0  0  0  0  0  0  0  0  0
   -0.1851   -0.1451   -3.2462 H   0  0  0  0  0  0  0  0  0  0  0  0
   -0.8097   -2.0462   -1.6189 H   0  0  0  0  0  0  0  0  0  0  0  0
   -0.0821   -3.1746   -2.7590 H   0  0  0  0  0  0  0  0  0  0  0  0
   -1.5073   -2.2487   -3.2318 H   0  0  0  0  0  0  0  0  0  0  0  0
   -1.4068    0.1948   -1.7997 H   0  0  0  0  0  0  0  0  0  0  0  0
   -1.9536    1.2779   -0.5319 H   0  0  0  0  0  0  0  0  0  0  0  0
   -0.8253    2.5474   -2.3596 H   0  0  0  0  0  0  0  0  0  0  0  0
    0.6811    1.6761   -2.0418 H   0  0  0  0  0  0  0  0  0  0  0  0
    0.0001    2.7387   -0.8120 H   0  0  0  0  0  0  0  0  0  0  0  0
   -5.5536    2.3222    3.1160 H   0  0  0  0  0  0  0  0  0  0  0  0
   -8.4663    4.3457    7.0745 H   0  0  0  0  0  0  0  0  0  0  0  0
   -3.7519    5.2094    8.4526 H   0  0  0  0  0  0  0  0  0  0  0  0
  1  2  2  0  0  0  0
  2  3  1  0  0  0  0
  3  4  2  0  0  0  0
  3  5  1  0  0  0  0
  5  6  2  0  0  0  0
  6  7  1  0  0  0  0
  7  8  1  0  0  0  0
  7  9  2  0  0  0  0
  9 10  1  0  0  0  0
  9 11  1  0  0  0  0
 11 12  2  0  0  0  0
 12 13  1  0  0  0  0
 13 14  2  0  0  0  0
 14 15  1  0  0  0  0
 15 16  3  0  0  0  0
 14 17  1  0  0  0  0
 17 18  3  0  0  0  0
  1 19  1  0  0  0  0
 19 20  1  0  0  0  0
 20 21  1  0  0  0  0
 21 22  1  0  0  0  0
 22 23  1  0  0  0  0
 23 24  1  0  0  0  0
 24 25  2  0  0  0  0
 25 26  1  0  0  0  0
 26 27  1  0  0  0  0
 24 28  1  0  0  0  0
 28 29  1  0  0  0  0
 29 30  1  0  0  0  0
 30 31  1  0  0  0  0
 31 32  1  0  0  0  0
 32 33  1  0  0  0  0
 33 34  1  0  0  0  0
 32 35  2  0  0  0  0
 35 36  1  0  0  0  0
 36 37  1  0  0  0  0
 37 38  1  0  0  0  0
 38 39  1  0  0  0  0
 39 40  1  0  0  0  0
 40 41  1  0  0  0  0
 41 42  1  0  0  0  0
 42 43  1  0  0  0  0
 43 44  1  0  0  0  0
 42 45  1  0  0  0  0
 45 46  1  0  0  0  0
 39 47  1  0  0  0  0
 47 48  1  0  0  0  0
 35 49  1  0  0  0  0
 49 50  2  0  0  0  0
 50 51  1  0  0  0  0
 51 52  2  0  0  0  0
 51 53  1  0  0  0  0
 53 54  2  0  0  0  0
 54 55  1  0  0  0  0
 55 56  1  0  0  0  0
 55 57  2  0  0  0  0
 57 58  1  0  0  0  0
 57 59  1  0  0  0  0
 59 60  2  0  0  0  0
 60 61  1  0  0  0  0
 61 62  2  0  0  0  0
 62 63  1  0  0  0  0
 63 64  3  0  0  0  0
 62 65  1  0  0  0  0
 65 66  3  0  0  0  0
 13  2  1  0  0  0  0
 44 19  2  0  0  0  0
 61 50  1  0  0  0  0
 12  5  1  0  0  0  0
 43 21  2  0  0  0  0
 60 53  1  0  0  0  0
 41 22  2  0  0  0  0
 27 23  2  0  0  0  0
 40 28  2  0  0  0  0
 38 29  2  0  0  0  0
 37 31  2  0  0  0  0
  1 67  1  0  0  0  0
  6 68  1  0  0  0  0
 11 69  1  0  0  0  0
 33 70  1  0  0  0  0
 33 71  1  0  0  0  0
 34 72  1  0  0  0  0
 34 73  1  0  0  0  0
 34 74  1  0  0  0  0
 44 75  1  0  0  0  0
 45 76  1  0  0  0  0
 45 77  1  0  0  0  0
 46 78  1  0  0  0  0
 46 79  1  0  0  0  0
 46 80  1  0  0  0  0
 47 81  1  0  0  0  0
 47 82  1  0  0  0  0
 48 83  1  0  0  0  0
 48 84  1  0  0  0  0
 48 85  1  0  0  0  0
 49 86  1  0  0  0  0
 54 87  1  0  0  0  0
 59 88  1  0  0  0  0
M  END
