
  xtb     02112203113D
 energy: -186.720767558376 gnorm: 0.000838447286 xtb: 6.4.1 (unknown)
 91103  0     0  0            999 V2000
    4.7313    6.8554   -0.3833 C   0  0  0  0  0  0  0  0  0  0  0  0
    4.8887    7.1230   -1.7276 C   0  0  0  0  0  0  0  0  0  0  0  0
    4.4941    6.2363   -2.8086 C   0  0  0  0  0  0  0  0  0  0  0  0
    3.9531    5.1402   -2.7185 O   0  0  0  0  0  0  0  0  0  0  0  0
    4.8773    6.9100   -4.0619 C   0  0  0  0  0  0  0  0  0  0  0  0
    4.7270    6.4744   -5.3613 C   0  0  0  0  0  0  0  0  0  0  0  0
    5.1750    7.2996   -6.3853 C   0  0  0  0  0  0  0  0  0  0  0  0
    4.9868    6.7327   -8.1786 Br  0  0  0  0  0  0  0  0  0  0  0  0
    5.7575    8.5331   -6.0922 C   0  0  0  0  0  0  0  0  0  0  0  0
    6.3633    9.6501   -7.4922 Br  0  0  0  0  0  0  0  0  0  0  0  0
    5.9073    8.9688   -4.7789 C   0  0  0  0  0  0  0  0  0  0  0  0
    5.4648    8.1508   -3.7541 C   0  0  0  0  0  0  0  0  0  0  0  0
    5.4800    8.3157   -2.2987 C   0  0  0  0  0  0  0  0  0  0  0  0
    5.9588    9.4169   -1.6377 C   0  0  0  0  0  0  0  0  0  0  0  0
    6.5101   10.5452   -2.2818 C   0  0  0  0  0  0  0  0  0  0  0  0
    6.9667   11.4889   -2.7489 N   0  0  0  0  0  0  0  0  0  0  0  0
    5.9689    9.5974   -0.2383 C   0  0  0  0  0  0  0  0  0  0  0  0
    6.0119    9.8221    0.8872 N   0  0  0  0  0  0  0  0  0  0  0  0
    4.1533    5.7626    0.2649 C   0  0  0  0  0  0  0  0  0  0  0  0
    4.0982    5.7072    1.6643 C   0  0  0  0  0  0  0  0  0  0  0  0
    3.4712    4.5945    2.1831 C   0  0  0  0  0  0  0  0  0  0  0  0
    3.1836    4.1119    3.8465 S   0  0  0  0  0  0  0  0  0  0  0  0
    2.3879    2.6922    3.2650 C   0  0  0  0  0  0  0  0  0  0  0  0
    1.7615    1.5429    3.7622 C   0  0  0  0  0  0  0  0  0  0  0  0
    1.6241    1.0566    5.0821 C   0  0  0  0  0  0  0  0  0  0  0  0
    1.0109   -0.2221    5.2894 C   0  0  0  0  0  0  0  0  0  0  0  0
    0.9997   -0.5763    6.5644 N   0  0  0  0  0  0  0  0  0  0  0  0
    1.6961    0.5997    7.4307 S   0  0  0  0  0  0  0  0  0  0  0  0
    2.0396    1.6070    6.2116 N   0  0  0  0  0  0  0  0  0  0  0  0
    0.4469   -0.8956    4.1820 C   0  0  0  0  0  0  0  0  0  0  0  0
   -0.3572   -2.0388    4.1159 C   0  0  0  0  0  0  0  0  0  0  0  0
   -0.7923   -2.1579    2.7885 C   0  0  0  0  0  0  0  0  0  0  0  0
   -0.2617   -1.1458    2.0341 N   0  0  0  0  0  0  0  0  0  0  0  0
   -0.7820   -0.9069    0.7085 C   0  0  0  0  0  0  0  0  0  0  0  0
   -0.1667   -1.8493   -0.3263 C   0  0  0  0  0  0  0  0  0  0  0  0
    0.5212   -0.3630    2.8584 C   0  0  0  0  0  0  0  0  0  0  0  0
    1.2999    0.8004    2.6328 C   0  0  0  0  0  0  0  0  0  0  0  0
    1.6861    1.4673    1.4832 N   0  0  0  0  0  0  0  0  0  0  0  0
    2.3436    2.6086    1.8671 C   0  0  0  0  0  0  0  0  0  0  0  0
    2.9697    3.6787    1.2292 C   0  0  0  0  0  0  0  0  0  0  0  0
    3.3322    4.2315   -0.5129 Se  0  0  0  0  0  2  0  0  0  0  0  0
    1.9419    0.9711    0.1490 C   0  0  0  0  0  0  0  0  0  0  0  0
    3.3471    0.3810    0.0454 C   0  0  0  0  0  0  0  0  0  0  0  0
   -1.6910   -3.2084    2.5948 C   0  0  0  0  0  0  0  0  0  0  0  0
   -1.9107   -3.8960    3.8099 C   0  0  0  0  0  0  0  0  0  0  0  0
   -1.0108   -3.2437    5.1682 S   0  0  0  0  0  0  0  0  0  0  0  0
   -2.8027   -4.9466    3.7477 C   0  0  0  0  0  0  0  0  0  0  0  0
   -3.3725   -5.1707    2.4889 C   0  0  0  0  0  0  0  0  0  0  0  0
   -2.7086   -3.9335    1.2087 Se  0  0  0  0  0  2  0  0  0  0  0  0
   -4.3117   -6.1886    2.2997 C   0  0  0  0  0  0  0  0  0  0  0  0
   -5.0133   -6.5647    1.1752 C   0  0  0  0  0  0  0  0  0  0  0  0
   -4.9039   -5.9316   -0.1297 C   0  0  0  0  0  0  0  0  0  0  0  0
   -4.1617   -5.0067   -0.4458 O   0  0  0  0  0  0  0  0  0  0  0  0
   -5.8614   -6.6122   -1.0129 C   0  0  0  0  0  0  0  0  0  0  0  0
   -6.1424   -6.3698   -2.3264 C   0  0  0  0  0  0  0  0  0  0  0  0
   -7.1243   -7.1541   -2.9721 C   0  0  0  0  0  0  0  0  0  0  0  0
   -7.4573   -6.9455   -4.3243 C   0  0  0  0  0  0  0  0  0  0  0  0
   -8.4141   -7.7161   -4.9238 C   0  0  0  0  0  0  0  0  0  0  0  0
   -8.7303   -7.5155   -6.2103 F   0  0  0  0  0  0  0  0  0  0  0  0
   -9.0772   -8.7261   -4.1990 C   0  0  0  0  0  0  0  0  0  0  0  0
  -10.0108   -9.4654   -4.8120 F   0  0  0  0  0  0  0  0  0  0  0  0
   -8.7748   -8.9525   -2.8851 C   0  0  0  0  0  0  0  0  0  0  0  0
   -7.7936   -8.1755   -2.2382 C   0  0  0  0  0  0  0  0  0  0  0  0
   -7.4765   -8.4036   -0.8782 C   0  0  0  0  0  0  0  0  0  0  0  0
   -6.5218   -7.6327   -0.2711 C   0  0  0  0  0  0  0  0  0  0  0  0
   -5.9939   -7.6293    1.0935 C   0  0  0  0  0  0  0  0  0  0  0  0
   -6.3731   -8.4955    2.0864 C   0  0  0  0  0  0  0  0  0  0  0  0
   -7.3386   -9.5109    1.9205 C   0  0  0  0  0  0  0  0  0  0  0  0
   -8.1153  -10.3532    1.8499 N   0  0  0  0  0  0  0  0  0  0  0  0
   -5.8665   -8.5147    3.4027 C   0  0  0  0  0  0  0  0  0  0  0  0
   -5.5014   -8.6045    4.4881 N   0  0  0  0  0  0  0  0  0  0  0  0
    5.1075    7.6060    0.3024 H   0  0  0  0  0  0  0  0  0  0  0  0
    4.2743    5.5188   -5.5752 H   0  0  0  0  0  0  0  0  0  0  0  0
    6.3632    9.9278   -4.5945 H   0  0  0  0  0  0  0  0  0  0  0  0
    4.5175    6.4882    2.2761 H   0  0  0  0  0  0  0  0  0  0  0  0
   -0.6427    0.1445    0.4523 H   0  0  0  0  0  0  0  0  0  0  0  0
   -1.8639   -1.0958    0.7426 H   0  0  0  0  0  0  0  0  0  0  0  0
   -0.4677   -1.5488   -1.3259 H   0  0  0  0  0  0  0  0  0  0  0  0
   -0.5199   -2.8663   -0.1568 H   0  0  0  0  0  0  0  0  0  0  0  0
    0.9194   -1.8582   -0.2676 H   0  0  0  0  0  0  0  0  0  0  0  0
    1.2146    0.2201   -0.1314 H   0  0  0  0  0  0  0  0  0  0  0  0
    1.8501    1.8233   -0.5371 H   0  0  0  0  0  0  0  0  0  0  0  0
    3.5142    0.0069   -0.9606 H   0  0  0  0  0  0  0  0  0  0  0  0
    4.0979    1.1390    0.2594 H   0  0  0  0  0  0  0  0  0  0  0  0
    3.4684   -0.4379    0.7520 H   0  0  0  0  0  0  0  0  0  0  0  0
   -3.0597   -5.5535    4.5995 H   0  0  0  0  0  0  0  0  0  0  0  0
   -4.5130   -6.7520    3.2039 H   0  0  0  0  0  0  0  0  0  0  0  0
   -5.6252   -5.5900   -2.8643 H   0  0  0  0  0  0  0  0  0  0  0  0
   -6.9589   -6.1760   -4.8927 H   0  0  0  0  0  0  0  0  0  0  0  0
   -9.2920   -9.7300   -2.3450 H   0  0  0  0  0  0  0  0  0  0  0  0
   -8.0029   -9.1838   -0.3531 H   0  0  0  0  0  0  0  0  0  0  0  0
  1  2  2  0  0  0  0
  2  3  1  0  0  0  0
  3  4  2  0  0  0  0
  3  5  1  0  0  0  0
  5  6  2  0  0  0  0
  6  7  1  0  0  0  0
  7  8  1  0  0  0  0
  7  9  2  0  0  0  0
  9 10  1  0  0  0  0
  9 11  1  0  0  0  0
 11 12  2  0  0  0  0
 12 13  1  0  0  0  0
 13 14  2  0  0  0  0
 14 15  1  0  0  0  0
 15 16  3  0  0  0  0
 14 17  1  0  0  0  0
 17 18  3  0  0  0  0
  1 19  1  0  0  0  0
 19 20  2  0  0  0  0
 20 21  1  0  0  0  0
 21 22  1  0  0  0  0
 22 23  1  0  0  0  0
 23 24  1  0  0  0  0
 24 25  1  0  0  0  0
 25 26  1  0  0  0  0
 26 27  2  0  0  0  0
 27 28  1  0  0  0  0
 28 29  1  0  0  0  0
 26 30  1  0  0  0  0
 30 31  1  0  0  0  0
 31 32  2  0  0  0  0
 32 33  1  0  0  0  0
 33 34  1  0  0  0  0
 34 35  1  0  0  0  0
 33 36  1  0  0  0  0
 36 37  1  0  0  0  0
 37 38  1  0  0  0  0
 38 39  1  0  0  0  0
 39 40  1  0  0  0  0
 40 41  1  0  0  0  0
 38 42  1  0  0  0  0
 42 43  1  0  0  0  0
 32 44  1  0  0  0  0
 44 45  2  0  0  0  0
 45 46  1  0  0  0  0
 45 47  1  0  0  0  0
 47 48  2  0  0  0  0
 48 49  1  0  0  0  0
 48 50  1  0  0  0  0
 50 51  2  0  0  0  0
 51 52  1  0  0  0  0
 52 53  2  0  0  0  0
 52 54  1  0  0  0  0
 54 55  2  0  0  0  0
 55 56  1  0  0  0  0
 56 57  2  0  0  0  0
 57 58  1  0  0  0  0
 58 59  1  0  0  0  0
 58 60  2  0  0  0  0
 60 61  1  0  0  0  0
 60 62  1  0  0  0  0
 62 63  2  0  0  0  0
 63 64  1  0  0  0  0
 64 65  2  0  0  0  0
 65 66  1  0  0  0  0
 66 67  2  0  0  0  0
 67 68  1  0  0  0  0
 68 69  3  0  0  0  0
 67 70  1  0  0  0  0
 70 71  3  0  0  0  0
 13  2  1  0  0  0  0
 41 19  1  0  0  0  0
 49 44  1  0  0  0  0
 66 51  1  0  0  0  0
 12  5  1  0  0  0  0
 40 21  2  0  0  0  0
 65 54  1  0  0  0  0
 39 23  2  0  0  0  0
 63 56  1  0  0  0  0
 37 24  2  0  0  0  0
 29 25  2  0  0  0  0
 36 30  2  0  0  0  0
 46 31  1  0  0  0  0
  1 72  1  0  0  0  0
  6 73  1  0  0  0  0
 11 74  1  0  0  0  0
 20 75  1  0  0  0  0
 34 76  1  0  0  0  0
 34 77  1  0  0  0  0
 35 78  1  0  0  0  0
 35 79  1  0  0  0  0
 35 80  1  0  0  0  0
 42 81  1  0  0  0  0
 42 82  1  0  0  0  0
 43 83  1  0  0  0  0
 43 84  1  0  0  0  0
 43 85  1  0  0  0  0
 47 86  1  0  0  0  0
 50 87  1  0  0  0  0
 55 88  1  0  0  0  0
 57 89  1  0  0  0  0
 62 90  1  0  0  0  0
 64 91  1  0  0  0  0
M  END
