
  xtb     02112204253D
 energy: -176.770076508227 gnorm: 0.000499683076 xtb: 6.4.1 (unknown)
 85 96  0     0  0            999 V2000
   -6.9912   -2.4132   -3.0039 C   0  0  0  0  0  0  0  0  0  0  0  0
   -7.3522   -1.3707   -3.8335 C   0  0  0  0  0  0  0  0  0  0  0  0
   -6.7170   -0.0645   -3.8625 C   0  0  0  0  0  0  0  0  0  0  0  0
   -5.8175    0.3485   -3.1394 O   0  0  0  0  0  0  0  0  0  0  0  0
   -7.3693    0.6946   -4.9432 C   0  0  0  0  0  0  0  0  0  0  0  0
   -7.1055    1.9744   -5.3831 C   0  0  0  0  0  0  0  0  0  0  0  0
   -7.8555    2.4706   -6.4418 C   0  0  0  0  0  0  0  0  0  0  0  0
   -7.5159    4.2192   -7.0744 Br  0  0  0  0  0  0  0  0  0  0  0  0
   -8.8458    1.6847   -7.0323 C   0  0  0  0  0  0  0  0  0  0  0  0
   -9.8585    2.3656   -8.4765 Br  0  0  0  0  0  0  0  0  0  0  0  0
   -9.1106    0.3945   -6.5824 C   0  0  0  0  0  0  0  0  0  0  0  0
   -8.3664   -0.1064   -5.5286 C   0  0  0  0  0  0  0  0  0  0  0  0
   -8.3914   -1.4009   -4.8427 C   0  0  0  0  0  0  0  0  0  0  0  0
   -9.2544   -2.4256   -5.1320 C   0  0  0  0  0  0  0  0  0  0  0  0
   -9.2984   -3.6746   -4.4771 C   0  0  0  0  0  0  0  0  0  0  0  0
   -9.4013   -4.7125   -3.9963 N   0  0  0  0  0  0  0  0  0  0  0  0
  -10.2397   -2.3647   -6.1407 C   0  0  0  0  0  0  0  0  0  0  0  0
  -11.0571   -2.3745   -6.9463 N   0  0  0  0  0  0  0  0  0  0  0  0
   -5.9664   -2.5095   -2.0607 C   0  0  0  0  0  0  0  0  0  0  0  0
   -5.7248   -3.7112   -1.3788 C   0  0  0  0  0  0  0  0  0  0  0  0
   -4.6328   -3.6979   -0.5365 C   0  0  0  0  0  0  0  0  0  0  0  0
   -3.9169   -4.9611    0.4537 S   0  0  0  0  0  0  0  0  0  0  0  0
   -2.6667   -3.8576    0.9164 C   0  0  0  0  0  0  0  0  0  0  0  0
   -1.4902   -3.8261    1.6794 C   0  0  0  0  0  0  0  0  0  0  0  0
   -0.8777   -4.7797    2.5253 C   0  0  0  0  0  0  0  0  0  0  0  0
    0.3485   -4.4392    3.1911 C   0  0  0  0  0  0  0  0  0  0  0  0
    0.7803   -5.4107    3.9784 N   0  0  0  0  0  0  0  0  0  0  0  0
   -0.2592   -6.6475    3.8906 S   0  0  0  0  0  0  0  0  0  0  0  0
   -1.3017   -5.9928    2.8405 N   0  0  0  0  0  0  0  0  0  0  0  0
    0.9804   -3.2113    2.8826 C   0  0  0  0  0  0  0  0  0  0  0  0
    2.2644   -2.7278    3.1652 C   0  0  0  0  0  0  0  0  0  0  0  0
    2.4298   -1.5488    2.4232 C   0  0  0  0  0  0  0  0  0  0  0  0
    1.2851   -1.2719    1.7263 N   0  0  0  0  0  0  0  0  0  0  0  0
    1.3060   -0.2684    0.6873 C   0  0  0  0  0  0  0  0  0  0  0  0
    1.2058    1.1476    1.2551 C   0  0  0  0  0  0  0  0  0  0  0  0
    0.3744   -2.2709    1.9966 C   0  0  0  0  0  0  0  0  0  0  0  0
   -0.9283   -2.5257    1.5072 C   0  0  0  0  0  0  0  0  0  0  0  0
   -1.7818   -1.7700    0.7261 N   0  0  0  0  0  0  0  0  0  0  0  0
   -2.8184   -2.5848    0.3490 C   0  0  0  0  0  0  0  0  0  0  0  0
   -3.9342   -2.4708   -0.4759 C   0  0  0  0  0  0  0  0  0  0  0  0
   -4.7012   -1.1747   -1.5679 Se  0  0  0  0  0  2  0  0  0  0  0  0
   -1.9995   -0.3394    0.7257 C   0  0  0  0  0  0  0  0  0  0  0  0
   -3.1307    0.0466    1.6783 C   0  0  0  0  0  0  0  0  0  0  0  0
    3.7196   -1.0222    2.4991 C   0  0  0  0  0  0  0  0  0  0  0  0
    4.5293   -1.8189    3.3391 C   0  0  0  0  0  0  0  0  0  0  0  0
    3.6878   -3.1976    4.0288 S   0  0  0  0  0  0  0  0  0  0  0  0
    5.8444   -1.4149    3.4518 C   0  0  0  0  0  0  0  0  0  0  0  0
    6.1867   -0.2829    2.7017 C   0  0  0  0  0  0  0  0  0  0  0  0
    4.6842    0.3880    1.7534 Se  0  0  0  0  0  2  0  0  0  0  0  0
    7.4972    0.2047    2.6884 C   0  0  0  0  0  0  0  0  0  0  0  0
    8.0531    1.2632    2.0031 C   0  0  0  0  0  0  0  0  0  0  0  0
    7.3319    2.1584    1.1116 C   0  0  0  0  0  0  0  0  0  0  0  0
    6.1360    2.1383    0.8428 O   0  0  0  0  0  0  0  0  0  0  0  0
    8.3205    3.1116    0.5830 C   0  0  0  0  0  0  0  0  0  0  0  0
    8.1338    4.1496   -0.3065 C   0  0  0  0  0  0  0  0  0  0  0  0
    9.2369    4.9160   -0.6620 C   0  0  0  0  0  0  0  0  0  0  0  0
    9.0496    6.2163   -1.7672 Cl  0  0  0  0  0  0  0  0  0  0  0  0
   10.4961    4.6300   -0.1234 C   0  0  0  0  0  0  0  0  0  0  0  0
   11.8513    5.5832   -0.5723 Cl  0  0  0  0  0  0  0  0  0  0  0  0
   10.6775    3.5819    0.7745 C   0  0  0  0  0  0  0  0  0  0  0  0
    9.5814    2.8156    1.1316 C   0  0  0  0  0  0  0  0  0  0  0  0
    9.4461    1.6670    2.0297 C   0  0  0  0  0  0  0  0  0  0  0  0
   10.4690    1.1028    2.7456 C   0  0  0  0  0  0  0  0  0  0  0  0
   10.3553   -0.0022    3.6159 C   0  0  0  0  0  0  0  0  0  0  0  0
   10.3496   -0.8931    4.3408 N   0  0  0  0  0  0  0  0  0  0  0  0
   11.8039    1.5610    2.7112 C   0  0  0  0  0  0  0  0  0  0  0  0
   12.9058    1.8811    2.7299 N   0  0  0  0  0  0  0  0  0  0  0  0
   -7.5646   -3.3277   -3.1053 H   0  0  0  0  0  0  0  0  0  0  0  0
   -6.3358    2.5709   -4.9186 H   0  0  0  0  0  0  0  0  0  0  0  0
   -9.8833   -0.1800   -7.0667 H   0  0  0  0  0  0  0  0  0  0  0  0
   -6.3457   -4.5782   -1.5297 H   0  0  0  0  0  0  0  0  0  0  0  0
    2.2671   -0.3586    0.1622 H   0  0  0  0  0  0  0  0  0  0  0  0
    0.5154   -0.4808   -0.0330 H   0  0  0  0  0  0  0  0  0  0  0  0
    1.0704    1.8597    0.4463 H   0  0  0  0  0  0  0  0  0  0  0  0
    0.3798    1.2453    1.9566 H   0  0  0  0  0  0  0  0  0  0  0  0
    2.1237    1.4033    1.7841 H   0  0  0  0  0  0  0  0  0  0  0  0
   -1.0962    0.1710    1.0374 H   0  0  0  0  0  0  0  0  0  0  0  0
   -2.2597   -0.0352   -0.2966 H   0  0  0  0  0  0  0  0  0  0  0  0
   -4.0770   -0.3828    1.3559 H   0  0  0  0  0  0  0  0  0  0  0  0
   -2.9134   -0.3039    2.6854 H   0  0  0  0  0  0  0  0  0  0  0  0
   -3.2351    1.1276    1.6976 H   0  0  0  0  0  0  0  0  0  0  0  0
    6.5712   -1.9319    4.0555 H   0  0  0  0  0  0  0  0  0  0  0  0
    8.1693   -0.3688    3.3167 H   0  0  0  0  0  0  0  0  0  0  0  0
    7.1572    4.3578   -0.7139 H   0  0  0  0  0  0  0  0  0  0  0  0
   11.6636    3.3944    1.1661 H   0  0  0  0  0  0  0  0  0  0  0  0
  1  2  2  0  0  0  0
  2  3  1  0  0  0  0
  3  4  2  0  0  0  0
  3  5  1  0  0  0  0
  5  6  2  0  0  0  0
  6  7  1  0  0  0  0
  7  8  1  0  0  0  0
  7  9  2  0  0  0  0
  9 10  1  0  0  0  0
  9 11  1  0  0  0  0
 11 12  2  0  0  0  0
 12 13  1  0  0  0  0
 13 14  2  0  0  0  0
 14 15  1  0  0  0  0
 15 16  3  0  0  0  0
 14 17  1  0  0  0  0
 17 18  3  0  0  0  0
  1 19  1  0  0  0  0
 19 20  2  0  0  0  0
 20 21  1  0  0  0  0
 21 22  1  0  0  0  0
 22 23  1  0  0  0  0
 23 24  1  0  0  0  0
 24 25  1  0  0  0  0
 25 26  1  0  0  0  0
 26 27  2  0  0  0  0
 27 28  1  0  0  0  0
 28 29  1  0  0  0  0
 26 30  1  0  0  0  0
 30 31  1  0  0  0  0
 31 32  2  0  0  0  0
 32 33  1  0  0  0  0
 33 34  1  0  0  0  0
 34 35  1  0  0  0  0
 33 36  1  0  0  0  0
 36 37  1  0  0  0  0
 37 38  1  0  0  0  0
 38 39  1  0  0  0  0
 39 40  1  0  0  0  0
 40 41  1  0  0  0  0
 38 42  1  0  0  0  0
 42 43  1  0  0  0  0
 32 44  1  0  0  0  0
 44 45  2  0  0  0  0
 45 46  1  0  0  0  0
 45 47  1  0  0  0  0
 47 48  2  0  0  0  0
 48 49  1  0  0  0  0
 48 50  1  0  0  0  0
 50 51  2  0  0  0  0
 51 52  1  0  0  0  0
 52 53  2  0  0  0  0
 52 54  1  0  0  0  0
 54 55  2  0  0  0  0
 55 56  1  0  0  0  0
 56 57  1  0  0  0  0
 56 58  2  0  0  0  0
 58 59  1  0  0  0  0
 58 60  1  0  0  0  0
 60 61  2  0  0  0  0
 61 62  1  0  0  0  0
 62 63  2  0  0  0  0
 63 64  1  0  0  0  0
 64 65  3  0  0  0  0
 63 66  1  0  0  0  0
 66 67  3  0  0  0  0
 13  2  1  0  0  0  0
 41 19  1  0  0  0  0
 49 44  1  0  0  0  0
 62 51  1  0  0  0  0
 12  5  1  0  0  0  0
 40 21  2  0  0  0  0
 61 54  1  0  0  0  0
 39 23  2  0  0  0  0
 37 24  2  0  0  0  0
 29 25  2  0  0  0  0
 36 30  2  0  0  0  0
 46 31  1  0  0  0  0
  1 68  1  0  0  0  0
  6 69  1  0  0  0  0
 11 70  1  0  0  0  0
 20 71  1  0  0  0  0
 34 72  1  0  0  0  0
 34 73  1  0  0  0  0
 35 74  1  0  0  0  0
 35 75  1  0  0  0  0
 35 76  1  0  0  0  0
 42 77  1  0  0  0  0
 42 78  1  0  0  0  0
 43 79  1  0  0  0  0
 43 80  1  0  0  0  0
 43 81  1  0  0  0  0
 47 82  1  0  0  0  0
 50 83  1  0  0  0  0
 55 84  1  0  0  0  0
 60 85  1  0  0  0  0
M  END
