112

C         -3.44140        6.19370        4.72600
C         -4.49690        7.04930        4.51740
C         -5.44430        7.13840        3.39010
O         -5.54620        6.44610        2.39620
C         -6.30340        8.30860        3.67810
C         -7.33520        8.81170        2.91450
C         -8.01110        9.93090        3.38150
Br        -9.43360       10.64670        2.36110
C         -7.64300       10.51930        4.59160
Br        -8.56630       12.04600        5.22250
C         -6.60130       10.00830        5.35770
C         -5.92430        8.89060        4.89690
C         -4.80970        8.12330        5.45040
C         -4.21490        8.39640        6.65630
C         -3.15740        7.69020        7.26950
N         -2.30920        7.19770        7.86900
C         -4.59580        9.46320        7.49860
N         -4.85140       10.30990        8.23040
C         -2.91750        5.06310        4.04500
C         -1.71230        4.51740        4.57070
C         -1.09840        3.42730        4.02170
C         -1.67240        2.80920        2.90120
C         -1.36770        1.72260        2.06410
C         -2.34920        1.67450        1.05740
N         -3.27940        2.64480        1.25150
C         -2.88630        3.36180        2.35990
C         -3.50000        4.45690        2.92130
C         -4.37950        2.95510        0.37400
C         -4.04350        4.11900       -0.55550
C         -1.97830        0.66820        0.15510
C         -2.45270        0.29680       -1.12060
C         -1.68900       -0.58960       -1.92850
N         -2.30120       -0.68810       -3.11110
N         -3.35550        0.08410       -2.99350
C         -4.32120        0.20990       -4.04580
C         -5.26910       -0.98600       -4.05290
N         -3.50410        0.69410       -1.84160
C         -0.53890       -1.20660       -1.39630
C         -0.15180       -0.95370       -0.04740
C         -0.78230        0.08760        0.67530
N         -0.42510        0.74630        1.83980
C          0.84730        0.78060        2.52510
C          0.74100        0.29260        3.97040
N          0.92590       -1.76310        0.28600
C          1.18180       -2.32570        1.59440
C          0.66920       -3.76240        1.69950
C          1.25790       -2.46980       -0.84920
C          0.38010       -2.14430       -1.89370
N          0.71710       -2.82020       -3.02590
C         -0.01010       -2.80320       -4.26900
C         -0.92210       -4.02160       -4.40070
C          1.81470       -3.59480       -2.71990
C          2.19030       -3.39670       -1.34620
C          3.29120       -4.08920       -0.83100
C          4.01150       -4.91450       -1.65250
C          3.66840       -5.09190       -3.01300
C          2.53190       -4.44500       -3.52950
C          4.38040       -5.94950       -3.90270
C          5.66660       -6.41530       -3.87240
C          6.80020       -5.90340       -3.06640
O          6.80140       -5.07180       -2.18530
C          8.00450       -6.56720       -3.61690
C          9.31830       -6.40110       -3.23070
C         10.29710       -7.12550       -3.89920
Cl        11.94480       -6.95240       -3.44650
C          9.94420       -7.99230       -4.93890
Cl        11.16540       -8.87550       -5.76420
C          8.61830       -8.15540       -5.32450
C          7.63960       -7.43730       -4.65610
C          6.18920       -7.38960       -4.81610
C          5.46340       -8.18890       -5.66160
C          6.03580       -9.13020       -6.54310
N          6.43630       -9.90770       -7.28680
C          4.05660       -8.21930       -5.76690
N          2.92150       -8.32530       -5.91170
H         -2.86230        6.43090        5.61050
H         -7.60730        8.34580        1.98020
H         -6.34820       10.49460        6.28510
H         -1.26890        4.99270        5.43330
H         -0.17630        3.05970        4.44480
H         -4.40800        4.85350        2.50350
H         -4.58420        2.06160       -0.22000
H         -5.25600        3.20150        0.97940
H         -3.17400        3.87340       -1.16070
H         -4.88360        4.31490       -1.21520
H         -3.83410        5.01910        0.01670
H         -4.86910        1.13720       -3.87000
H         -3.78120        0.26890       -4.99370
H         -4.70670       -1.90550       -4.19560
H         -5.98750       -0.88410       -4.86100
H         -5.80790       -1.04590       -3.11040
H          1.57740        0.20000        1.96090
H          1.18830        1.82300        2.53480
H          1.70630        0.38940        4.45990
H          0.42780       -0.74680        4.03000
H          0.01090        0.88520        4.51390
H          0.65950       -1.72630        2.33330
H          2.25820       -2.29730        1.79380
H          1.17950       -4.41450        0.99650
H          0.83790       -4.13610        2.70610
H         -0.39800       -3.79440        1.49000
H         -0.61520       -1.89360       -4.28100
H          0.70400       -2.77330       -5.09740
H         -1.65350       -4.02510       -3.59640
H         -0.34680       -4.94300       -4.35210
H         -1.44880       -3.98780       -5.35000
H          3.57510       -3.96960        0.20350
H          4.84920       -5.45580       -1.25100
H          2.25480       -4.59770       -4.56200
H          3.79680       -6.25200       -4.76520
H          9.57450       -5.72630       -2.42930
H          8.38640       -8.82890       -6.13300
