
  xtb     01272209093D
 energy: -179.593694437944 gnorm: 0.000619284081 xtb: 6.4.1 (unknown)
 95106  0     0  0            999 V2000
    7.2474   -3.5310    1.7360 C   0  0  0  0  0  0  0  0  0  0  0  0
    7.4562   -4.4437    2.7473 C   0  0  0  0  0  0  0  0  0  0  0  0
    6.4768   -5.0254    3.6798 C   0  0  0  0  0  0  0  0  0  0  0  0
    5.2644   -4.9253    3.6984 O   0  0  0  0  0  0  0  0  0  0  0  0
    7.2708   -5.7956    4.6630 C   0  0  0  0  0  0  0  0  0  0  0  0
    6.8196   -6.4938    5.7629 C   0  0  0  0  0  0  0  0  0  0  0  0
    7.7565   -7.1355    6.5619 C   0  0  0  0  0  0  0  0  0  0  0  0
    7.1732   -8.1002    8.0803 Br  0  0  0  0  0  0  0  0  0  0  0  0
    9.1139   -7.0660    6.2480 C   0  0  0  0  0  0  0  0  0  0  0  0
   10.3854   -7.9341    7.3476 Br  0  0  0  0  0  0  0  0  0  0  0  0
    9.5638   -6.3646    5.1345 C   0  0  0  0  0  0  0  0  0  0  0  0
    8.6331   -5.7247    4.3331 C   0  0  0  0  0  0  0  0  0  0  0  0
    8.7749   -4.9260    3.1158 C   0  0  0  0  0  0  0  0  0  0  0  0
    9.9573   -4.7390    2.4462 C   0  0  0  0  0  0  0  0  0  0  0  0
   10.1335   -4.0501    1.2269 C   0  0  0  0  0  0  0  0  0  0  0  0
   10.3787   -3.5333    0.2309 N   0  0  0  0  0  0  0  0  0  0  0  0
   11.1969   -5.2550    2.8809 C   0  0  0  0  0  0  0  0  0  0  0  0
   12.2352   -5.6409    3.1819 N   0  0  0  0  0  0  0  0  0  0  0  0
    6.0807   -2.9538    1.2247 C   0  0  0  0  0  0  0  0  0  0  0  0
    6.3151   -1.7121   -0.0276 S   0  0  0  0  0  0  0  0  0  0  0  0
    4.6213   -1.4871   -0.1389 C   0  0  0  0  0  0  0  0  0  0  0  0
    3.6640   -0.7211   -0.7930 C   0  0  0  0  0  0  0  0  0  0  0  0
    3.6115    0.6064   -1.9172 S   0  0  0  0  0  0  0  0  0  0  0  0
    1.8921    0.6080   -1.7521 C   0  0  0  0  0  0  0  0  0  0  0  0
    0.8107    1.3594   -2.2373 C   0  0  0  0  0  0  0  0  0  0  0  0
    0.7427    2.4199   -3.1674 C   0  0  0  0  0  0  0  0  0  0  0  0
   -0.5430    2.9529   -3.5194 C   0  0  0  0  0  0  0  0  0  0  0  0
   -0.4586    3.9022   -4.4381 N   0  0  0  0  0  0  0  0  0  0  0  0
    1.0973    4.1125   -4.8214 S   0  0  0  0  0  0  0  0  0  0  0  0
    1.7302    3.0002   -3.8319 N   0  0  0  0  0  0  0  0  0  0  0  0
   -1.6876    2.4815   -2.8392 C   0  0  0  0  0  0  0  0  0  0  0  0
   -3.0265    2.8993   -2.8660 C   0  0  0  0  0  0  0  0  0  0  0  0
   -4.0051    4.0051   -3.7225 S   0  0  0  0  0  0  0  0  0  0  0  0
   -5.3933    3.4864   -2.7646 C   0  0  0  0  0  0  0  0  0  0  0  0
   -5.0822    2.4754   -1.8330 C   0  0  0  0  0  0  0  0  0  0  0  0
   -6.1076    1.8358   -0.9442 C   0  0  0  0  0  0  0  0  0  0  0  0
   -6.3404    2.6435    0.3368 C   0  0  0  0  0  0  0  0  0  0  0  0
   -3.7202    2.1703   -1.8820 C   0  0  0  0  0  0  0  0  0  0  0  0
   -2.8403    1.3054   -1.2548 N   0  0  0  0  0  0  0  0  0  0  0  0
   -1.5985    1.4658   -1.8516 C   0  0  0  0  0  0  0  0  0  0  0  0
   -0.3591    0.8168   -1.6460 C   0  0  0  0  0  0  0  0  0  0  0  0
   -0.0052   -0.2852   -0.8714 N   0  0  0  0  0  0  0  0  0  0  0  0
    1.3733   -0.3844   -0.9079 C   0  0  0  0  0  0  0  0  0  0  0  0
    2.3946   -1.1443   -0.3154 C   0  0  0  0  0  0  0  0  0  0  0  0
    2.5632   -2.1453    0.6145 N   0  0  0  0  0  0  0  0  0  0  0  0
    3.9163   -2.3504    0.7425 C   0  0  0  0  0  0  0  0  0  0  0  0
    4.7332   -3.1674    1.5028 C   0  0  0  0  0  0  0  0  0  0  0  0
    1.5962   -2.6712    1.5493 C   0  0  0  0  0  0  0  0  0  0  0  0
    1.0400   -1.5780    2.4575 C   0  0  0  0  0  0  0  0  0  0  0  0
   -0.8103   -1.4817   -0.6955 C   0  0  0  0  0  0  0  0  0  0  0  0
   -1.6658   -1.8001   -1.9179 C   0  0  0  0  0  0  0  0  0  0  0  0
   -3.0668    0.8033    0.0850 C   0  0  0  0  0  0  0  0  0  0  0  0
   -2.0995    1.4064    1.1013 C   0  0  0  0  0  0  0  0  0  0  0  0
   -6.6830    4.0249   -2.8935 C   0  0  0  0  0  0  0  0  0  0  0  0
   -7.1820    5.0068   -3.7070 C   0  0  0  0  0  0  0  0  0  0  0  0
   -6.4573    5.7769   -4.7407 C   0  0  0  0  0  0  0  0  0  0  0  0
   -5.2871    5.6796   -5.0517 O   0  0  0  0  0  0  0  0  0  0  0  0
   -7.4568    6.6859   -5.3212 C   0  0  0  0  0  0  0  0  0  0  0  0
   -7.5179    7.6766   -6.3144 C   0  0  0  0  0  0  0  0  0  0  0  0
   -8.7759    8.1959   -6.4073 C   0  0  0  0  0  0  0  0  0  0  0  0
   -9.9039    7.4994   -5.3005 S   0  0  0  0  0  0  0  0  0  0  0  0
   -8.6718    6.4786   -4.6859 C   0  0  0  0  0  0  0  0  0  0  0  0
   -8.5661    5.4574   -3.6791 C   0  0  0  0  0  0  0  0  0  0  0  0
   -9.6050    5.0448   -2.8803 C   0  0  0  0  0  0  0  0  0  0  0  0
   -9.5452    4.0566   -1.8820 C   0  0  0  0  0  0  0  0  0  0  0  0
   -9.5646    3.2598   -1.0534 N   0  0  0  0  0  0  0  0  0  0  0  0
  -10.8847    5.6236   -3.0107 C   0  0  0  0  0  0  0  0  0  0  0  0
  -11.9294    6.0890   -3.1053 N   0  0  0  0  0  0  0  0  0  0  0  0
    8.1433   -3.1651    1.2487 H   0  0  0  0  0  0  0  0  0  0  0  0
    5.7668   -6.5374    5.9949 H   0  0  0  0  0  0  0  0  0  0  0  0
   10.6209   -6.3337    4.9276 H   0  0  0  0  0  0  0  0  0  0  0  0
   -7.0567    1.7443   -1.4742 H   0  0  0  0  0  0  0  0  0  0  0  0
   -5.7910    0.8210   -0.6962 H   0  0  0  0  0  0  0  0  0  0  0  0
   -6.7283    3.6298    0.0969 H   0  0  0  0  0  0  0  0  0  0  0  0
   -5.4174    2.7728    0.8990 H   0  0  0  0  0  0  0  0  0  0  0  0
   -7.0671    2.1373    0.9663 H   0  0  0  0  0  0  0  0  0  0  0  0
    4.4146   -3.8864    2.2339 H   0  0  0  0  0  0  0  0  0  0  0  0
    0.7841   -3.1704    1.0121 H   0  0  0  0  0  0  0  0  0  0  0  0
    2.1106   -3.4240    2.1488 H   0  0  0  0  0  0  0  0  0  0  0  0
    1.8438   -1.1265    3.0338 H   0  0  0  0  0  0  0  0  0  0  0  0
    0.5567   -0.7995    1.8726 H   0  0  0  0  0  0  0  0  0  0  0  0
    0.3146   -2.0022    3.1458 H   0  0  0  0  0  0  0  0  0  0  0  0
   -1.4234   -1.4089    0.2076 H   0  0  0  0  0  0  0  0  0  0  0  0
   -0.1083   -2.3044   -0.5548 H   0  0  0  0  0  0  0  0  0  0  0  0
   -2.4133   -1.0350   -2.1036 H   0  0  0  0  0  0  0  0  0  0  0  0
   -2.1728   -2.7496   -1.7650 H   0  0  0  0  0  0  0  0  0  0  0  0
   -1.0357   -1.8822   -2.8008 H   0  0  0  0  0  0  0  0  0  0  0  0
   -3.0163   -0.2875    0.0985 H   0  0  0  0  0  0  0  0  0  0  0  0
   -4.0778    1.0862    0.3675 H   0  0  0  0  0  0  0  0  0  0  0  0
   -2.1797    2.4912    1.0920 H   0  0  0  0  0  0  0  0  0  0  0  0
   -1.0693    1.1408    0.8832 H   0  0  0  0  0  0  0  0  0  0  0  0
   -2.3485    1.0490    2.0973 H   0  0  0  0  0  0  0  0  0  0  0  0
   -7.4052    3.5899   -2.2162 H   0  0  0  0  0  0  0  0  0  0  0  0
   -6.6864    7.9851   -6.9204 H   0  0  0  0  0  0  0  0  0  0  0  0
   -9.1198    8.9634   -7.0730 H   0  0  0  0  0  0  0  0  0  0  0  0
  1  2  2  0  0  0  0
  2  3  1  0  0  0  0
  3  4  2  0  0  0  0
  3  5  1  0  0  0  0
  5  6  2  0  0  0  0
  6  7  1  0  0  0  0
  7  8  1  0  0  0  0
  7  9  2  0  0  0  0
  9 10  1  0  0  0  0
  9 11  1  0  0  0  0
 11 12  2  0  0  0  0
 12 13  1  0  0  0  0
 13 14  2  0  0  0  0
 14 15  1  0  0  0  0
 15 16  3  0  0  0  0
 14 17  1  0  0  0  0
 17 18  3  0  0  0  0
  1 19  1  0  0  0  0
 19 20  1  0  0  0  0
 20 21  1  0  0  0  0
 21 22  1  0  0  0  0
 22 23  1  0  0  0  0
 23 24  1  0  0  0  0
 24 25  1  0  0  0  0
 25 26  1  0  0  0  0
 26 27  1  0  0  0  0
 27 28  2  0  0  0  0
 28 29  1  0  0  0  0
 29 30  1  0  0  0  0
 27 31  1  0  0  0  0
 31 32  1  0  0  0  0
 32 33  1  0  0  0  0
 33 34  1  0  0  0  0
 34 35  2  0  0  0  0
 35 36  1  0  0  0  0
 36 37  1  0  0  0  0
 35 38  1  0  0  0  0
 38 39  1  0  0  0  0
 39 40  1  0  0  0  0
 40 41  1  0  0  0  0
 41 42  1  0  0  0  0
 42 43  1  0  0  0  0
 43 44  1  0  0  0  0
 44 45  1  0  0  0  0
 45 46  1  0  0  0  0
 46 47  1  0  0  0  0
 45 48  1  0  0  0  0
 48 49  1  0  0  0  0
 42 50  1  0  0  0  0
 50 51  1  0  0  0  0
 39 52  1  0  0  0  0
 52 53  1  0  0  0  0
 34 54  1  0  0  0  0
 54 55  2  0  0  0  0
 55 56  1  0  0  0  0
 56 57  2  0  0  0  0
 56 58  1  0  0  0  0
 58 59  1  0  0  0  0
 59 60  2  0  0  0  0
 60 61  1  0  0  0  0
 61 62  1  0  0  0  0
 62 63  1  0  0  0  0
 63 64  2  0  0  0  0
 64 65  1  0  0  0  0
 65 66  3  0  0  0  0
 64 67  1  0  0  0  0
 67 68  3  0  0  0  0
 13  2  1  0  0  0  0
 47 19  2  0  0  0  0
 63 55  1  0  0  0  0
 12  5  1  0  0  0  0
 46 21  2  0  0  0  0
 62 58  2  0  0  0  0
 44 22  2  0  0  0  0
 43 24  2  0  0  0  0
 41 25  2  0  0  0  0
 30 26  2  0  0  0  0
 40 31  2  0  0  0  0
 38 32  2  0  0  0  0
  1 69  1  0  0  0  0
  6 70  1  0  0  0  0
 11 71  1  0  0  0  0
 36 72  1  0  0  0  0
 36 73  1  0  0  0  0
 37 74  1  0  0  0  0
 37 75  1  0  0  0  0
 37 76  1  0  0  0  0
 47 77  1  0  0  0  0
 48 78  1  0  0  0  0
 48 79  1  0  0  0  0
 49 80  1  0  0  0  0
 49 81  1  0  0  0  0
 49 82  1  0  0  0  0
 50 83  1  0  0  0  0
 50 84  1  0  0  0  0
 51 85  1  0  0  0  0
 51 86  1  0  0  0  0
 51 87  1  0  0  0  0
 52 88  1  0  0  0  0
 52 89  1  0  0  0  0
 53 90  1  0  0  0  0
 53 91  1  0  0  0  0
 53 92  1  0  0  0  0
 54 93  1  0  0  0  0
 59 94  1  0  0  0  0
 60 95  1  0  0  0  0
M  END
