95

C          7.24740       -3.53100        1.73600
C          7.45620       -4.44370        2.74730
C          6.47680       -5.02540        3.67980
O          5.26440       -4.92530        3.69840
C          7.27080       -5.79560        4.66300
C          6.81960       -6.49380        5.76290
C          7.75650       -7.13550        6.56190
Br         7.17320       -8.10020        8.08030
C          9.11390       -7.06600        6.24800
Br        10.38540       -7.93410        7.34760
C          9.56380       -6.36460        5.13450
C          8.63310       -5.72470        4.33310
C          8.77490       -4.92600        3.11580
C          9.95730       -4.73900        2.44620
C         10.13350       -4.05010        1.22690
N         10.37870       -3.53330        0.23090
C         11.19690       -5.25500        2.88090
N         12.23520       -5.64090        3.18190
C          6.08070       -2.95380        1.22470
S          6.31510       -1.71210       -0.02760
C          4.62130       -1.48710       -0.13890
C          3.66400       -0.72110       -0.79300
S          3.61150        0.60640       -1.91720
C          1.89210        0.60800       -1.75210
C          0.81070        1.35940       -2.23730
C          0.74270        2.41990       -3.16740
C         -0.54300        2.95290       -3.51940
N         -0.45860        3.90220       -4.43810
S          1.09730        4.11250       -4.82140
N          1.73020        3.00020       -3.83190
C         -1.68760        2.48150       -2.83920
C         -3.02650        2.89930       -2.86600
S         -4.00510        4.00510       -3.72250
C         -5.39330        3.48640       -2.76460
C         -5.08220        2.47540       -1.83300
C         -6.10760        1.83580       -0.94420
C         -6.34040        2.64350        0.33680
C         -3.72020        2.17030       -1.88200
N         -2.84030        1.30540       -1.25480
C         -1.59850        1.46580       -1.85160
C         -0.35910        0.81680       -1.64600
N         -0.00520       -0.28520       -0.87140
C          1.37330       -0.38440       -0.90790
C          2.39460       -1.14430       -0.31540
N          2.56320       -2.14530        0.61450
C          3.91630       -2.35040        0.74250
C          4.73320       -3.16740        1.50280
C          1.59620       -2.67120        1.54930
C          1.04000       -1.57800        2.45750
C         -0.81030       -1.48170       -0.69550
C         -1.66580       -1.80010       -1.91790
C         -3.06680        0.80330        0.08500
C         -2.09950        1.40640        1.10130
C         -6.68300        4.02490       -2.89350
C         -7.18200        5.00680       -3.70700
C         -6.45730        5.77690       -4.74070
O         -5.28710        5.67960       -5.05170
C         -7.45680        6.68590       -5.32120
C         -7.51790        7.67660       -6.31440
C         -8.77590        8.19590       -6.40730
S         -9.90390        7.49940       -5.30050
C         -8.67180        6.47860       -4.68590
C         -8.56610        5.45740       -3.67910
C         -9.60500        5.04480       -2.88030
C         -9.54520        4.05660       -1.88200
N         -9.56460        3.25980       -1.05340
C        -10.88470        5.62360       -3.01070
N        -11.92940        6.08900       -3.10530
H          8.14330       -3.16510        1.24870
H          5.76680       -6.53740        5.99490
H         10.62090       -6.33370        4.92760
H         -7.05670        1.74430       -1.47420
H         -5.79100        0.82100       -0.69620
H         -6.72830        3.62980        0.09690
H         -5.41740        2.77280        0.89900
H         -7.06710        2.13730        0.96630
H          4.41460       -3.88640        2.23390
H          0.78410       -3.17040        1.01210
H          2.11060       -3.42400        2.14880
H          1.84380       -1.12650        3.03380
H          0.55670       -0.79950        1.87260
H          0.31460       -2.00220        3.14580
H         -1.42340       -1.40890        0.20760
H         -0.10830       -2.30440       -0.55480
H         -2.41330       -1.03500       -2.10360
H         -2.17280       -2.74960       -1.76500
H         -1.03570       -1.88220       -2.80080
H         -3.01630       -0.28750        0.09850
H         -4.07780        1.08620        0.36750
H         -2.17970        2.49120        1.09200
H         -1.06930        1.14080        0.88320
H         -2.34850        1.04900        2.09730
H         -7.40520        3.58990       -2.21620
H         -6.68640        7.98510       -6.92040
H         -9.11980        8.96340       -7.07300
