97

C          7.89180        0.25660        0.51430
C          8.02670        0.50280        1.85220
C          9.21330        0.00120        2.58310
O         10.23330       -0.44440        2.11080
C          8.84970        0.10970        4.01700
C          9.54920       -0.32200        5.12390
C          8.97950       -0.13330        6.37750
Br         9.91140       -0.71990        7.91460
C          7.73160        0.47900        6.50250
Br         6.95610        0.70980        8.21180
C          7.03310        0.92660        5.38660
C          7.59740        0.74020        4.13740
C          7.13940        1.12650        2.80450
C          6.23240        2.11960        2.53490
C          6.08530        2.68790        1.25250
N          5.98630        3.20690        0.23320
C          5.42440        2.73390        3.51060
N          4.72210        3.23850        4.26570
C          6.72190        0.23170       -0.26500
C          6.65180        0.28870       -1.65530
C          7.81460        0.54280       -2.55180
C          8.13990        2.03860       -2.58700
C          5.33330        0.20000       -2.10310
S          4.63040        0.27200       -3.70200
C          3.06730        0.08780       -2.99310
C          1.72290        0.10760       -3.38550
C          1.12260        0.39070       -4.63350
C         -0.29840        0.57740       -4.69180
N         -0.71300        0.91910       -5.90130
S          0.57050        0.99190       -6.88390
N          1.70740        0.59400       -5.80310
C         -1.06800        0.33480       -3.53150
C         -2.45210        0.35300       -3.31260
S         -3.90690        0.75080       -4.15780
C         -4.82300        0.28490       -2.73530
C         -6.18150        0.28090       -2.45810
C         -7.21460        0.68720       -3.45690
C         -7.77730       -0.53590       -4.18610
C         -6.43720       -0.19830       -1.15780
S         -4.95390       -0.63290       -0.30340
C         -4.01910       -0.16320       -1.67040
C         -2.66550       -0.10870       -2.00680
N         -1.46640       -0.38560       -1.40190
C         -0.46620       -0.09270       -2.31090
C          0.94700       -0.06530       -2.20300
N          1.80400       -0.13880       -1.12180
C          3.08550       -0.04480       -1.59640
C          4.38150        0.03120       -1.08490
S          5.13180        0.00110        0.46660
C          1.54070        0.04520        0.28890
C          1.86190       -1.20950        1.10090
C         -1.45690       -1.32480       -0.30020
C         -1.84990       -2.72420       -0.77200
C         -7.72340       -0.28510       -0.62400
C         -8.16810       -0.73280        0.59960
C         -7.34190       -1.29800        1.66510
O         -6.13270       -1.44750        1.67870
C         -8.27390       -1.66630        2.75140
C         -7.98530       -2.24930        3.96880
C         -9.04330       -2.49830        4.82830
F         -8.81080       -3.06400        6.01900
C        -10.34760       -2.16540        4.46370
F        -11.35020       -2.41690        5.31250
C        -10.63640       -1.57920        3.23970
C         -9.58410       -1.32810        2.37370
C         -9.54950       -0.73550        1.03480
C        -10.64410       -0.26380        0.35620
C        -10.63150        0.31790       -0.92870
N        -10.70580        0.80130       -1.96850
C        -11.96050       -0.29020        0.86420
N        -13.05260       -0.28100        1.21700
H          8.80510       -0.04300        0.00910
H         10.51370       -0.79390        5.01870
H          6.07050        1.39530        5.51520
H          7.56120        0.20220       -3.55750
H          8.68830       -0.01190       -2.20410
H          7.28430        2.60160       -2.95080
H          8.38600        2.39880       -1.59110
H          8.98410        2.21990       -3.24650
H         -8.03080        1.23120       -2.97940
H         -6.74260        1.34940       -4.18510
H         -8.51720       -0.21980       -4.91550
H         -8.25320       -1.21780       -3.48550
H         -6.98160       -1.06730       -4.70270
H          0.50580        0.36300        0.41850
H          2.18090        0.86200        0.64180
H          1.54240       -1.07190        2.12990
H          1.37060       -2.09040        0.69330
H          2.93270       -1.39450        1.09690
H         -0.47060       -1.36910        0.14450
H         -2.17520       -0.97220        0.44560
H         -1.15820       -3.07520       -1.53550
H         -2.85510       -2.72520       -1.18440
H         -1.82390       -3.41160        0.06870
H         -8.49040        0.06320       -1.30160
H         -6.97510       -2.50420        4.24660
H        -11.66170       -1.34260        3.00810
