100

C          3.99340        0.79190        6.68200
C          3.12340        0.32810        7.64560
C          1.77470       -0.18320        7.41520
O          1.15880       -0.24290        6.36480
C          1.27930       -0.63030        8.73360
C          0.06860       -1.20970        9.04690
C         -0.17070       -1.55300       10.37150
Br        -1.82000       -2.35290       10.83560
C          0.79680       -1.31120       11.34710
Br         0.46450       -1.78430       13.14830
C          2.01700       -0.72480       11.02630
C          2.26130       -0.38100        9.70780
C          3.42100        0.23330        9.05860
C          4.55600        0.64740        9.70960
C          5.67650        1.25570        9.10700
N          6.62400        1.75760        8.69360
C          4.75570        0.52530       11.10080
N          4.97670        0.45770       12.22520
C          3.84210        0.93340        5.30400
C          4.88050        1.37850        4.46020
C          6.27100        1.70950        4.89200
C          7.12160        0.44140        5.00950
C          4.47180        1.42120        3.13720
S          5.30660        1.86390        1.65900
C          3.85340        1.54090        0.78050
C          3.37060        1.62250       -0.53050
C          3.96510        2.12460       -1.70990
C          3.16690        2.22980       -2.89580
N          3.82900        2.77520       -3.90370
S          5.32950        3.12060       -3.40600
N          5.19210        2.58980       -1.88290
C          1.85080        1.71530       -2.88170
C          0.90810        1.57290       -3.90830
S          0.72830        1.96220       -5.58330
C         -0.83520        1.16640       -5.56570
C         -1.79170        0.96440       -6.55150
C         -1.63800        1.47800       -7.94560
C         -2.31970        2.84000       -8.10430
C         -2.91150        0.28080       -6.04520
S         -2.73150       -0.11940       -4.33590
C         -1.18180        0.63260       -4.31230
C         -0.17840        0.87300       -3.36960
N          0.04300        0.60160       -2.04400
C          1.28450        1.12180       -1.71490
C          2.01030        1.18980       -0.49770
N          1.67540        0.90710        0.81060
C          2.78880        1.10650        1.58340
C          3.13070        1.03960        2.93460
S          2.36000        0.59030        4.40690
C          0.37850        0.79710        1.44130
C          0.10120       -0.61170        1.96280
C         -0.67590       -0.50640       -1.44910
C          0.09960       -1.81040       -1.62280
C         -4.03160       -0.02260       -6.82530
C         -5.22340       -0.62200       -6.49790
C         -5.61590       -1.10680       -5.17220
O         -4.94500       -1.11990       -4.15380
C         -7.00190       -1.58980       -5.30730
C         -7.82880       -2.11850       -4.33610
C         -9.11940       -2.50830       -4.67670
C        -10.07260       -3.08050       -3.67970
C         -9.51200       -2.34220       -6.00620
F        -10.75990       -2.71480       -6.34540
C         -8.70070       -1.81750       -6.99960
C         -7.41900       -1.43320       -6.63990
C         -6.32460       -0.84870       -7.41340
C         -6.36240       -0.58760       -8.75910
C         -5.31310       -0.03760       -9.52400
N         -4.50780        0.40100      -10.21680
C         -7.47890       -0.84790       -9.58210
N         -8.34980       -1.02970      -10.30720
H          4.97060        1.08800        7.03770
H         -0.67080       -1.39190        8.28260
H          2.73870       -0.55580       11.80870
H          6.71400        2.36570        4.14030
H          6.27070        2.23580        5.84770
H          7.16850       -0.07250        4.05230
H          8.13030        0.70320        5.31550
H          6.70240       -0.23790        5.74820
H         -2.05510        0.77740       -8.67040
H         -0.57160        1.58870       -8.15170
H         -1.88610        3.56250       -7.41690
H         -3.38550        2.76390       -7.90210
H         -2.18710        3.20050       -9.12030
H         -0.38170        1.13740        0.73700
H          0.36870        1.48760        2.29200
H          0.25820       -1.36180        1.19290
H         -0.92390       -0.67540        2.31670
H          0.76010       -0.83540        2.79720
H         -0.88170       -0.32760       -0.39880
H         -1.63310       -0.57490       -1.97160
H          1.07140       -1.74780       -1.13660
H          0.25750       -2.01730       -2.67870
H         -0.46070       -2.63420       -1.18960
H         -3.93080        0.29310       -7.85460
H         -7.46990       -2.22310       -3.32350
H        -10.94370       -2.43340       -3.58060
H         -9.59850       -3.18870       -2.70870
H        -10.42980       -4.05330       -4.01530
H         -9.08740       -1.72480       -8.00080
