
  xtb     01262218123D
 energy: -249.395537143067 gnorm: 0.000475468533 xtb: 6.4.1 (unknown)
150165  0     0  0            999 V2000
    0.2965    1.3676   -7.1359 C   0  0  0  0  0  0  0  0  0  0  0  0
    0.0425    1.1241   -8.4653 C   0  0  0  0  0  0  0  0  0  0  0  0
   -0.8661    0.1268   -9.0625 C   0  0  0  0  0  0  0  0  0  0  0  0
   -1.5996   -0.6763   -8.5226 O   0  0  0  0  0  0  0  0  0  0  0  0
   -0.7341    0.2948  -10.5267 C   0  0  0  0  0  0  0  0  0  0  0  0
   -1.3728   -0.4112  -11.5239 C   0  0  0  0  0  0  0  0  0  0  0  0
   -1.0957   -0.0791  -12.8432 C   0  0  0  0  0  0  0  0  0  0  0  0
   -1.9525   -1.0271  -14.2367 Br  0  0  0  0  0  0  0  0  0  0  0  0
   -0.1939    0.9449  -13.1352 C   0  0  0  0  0  0  0  0  0  0  0  0
    0.1782    1.3949  -14.9345 Br  0  0  0  0  0  0  0  0  0  0  0  0
    0.4473    1.6545  -12.1257 C   0  0  0  0  0  0  0  0  0  0  0  0
    0.1752    1.3262  -10.8076 C   0  0  0  0  0  0  0  0  0  0  0  0
    0.6743    1.8663   -9.5428 C   0  0  0  0  0  0  0  0  0  0  0  0
    1.5837    2.8884   -9.4455 C   0  0  0  0  0  0  0  0  0  0  0  0
    2.1476    3.5501  -10.5578 C   0  0  0  0  0  0  0  0  0  0  0  0
    2.6426    4.1330  -11.4139 N   0  0  0  0  0  0  0  0  0  0  0  0
    2.1076    3.4484   -8.2605 C   0  0  0  0  0  0  0  0  0  0  0  0
    2.5953    3.9744   -7.3629 N   0  0  0  0  0  0  0  0  0  0  0  0
   -0.1666    0.7499   -5.9658 C   0  0  0  0  0  0  0  0  0  0  0  0
    0.4680    1.3728   -4.4480 S   0  0  0  0  0  0  0  0  0  0  0  0
   -0.4249    0.2013   -3.5524 C   0  0  0  0  0  0  0  0  0  0  0  0
   -0.3173    0.0026   -2.1454 C   0  0  0  0  0  0  0  0  0  0  0  0
   -0.9134   -1.1826   -1.6039 C   0  0  0  0  0  0  0  0  0  0  0  0
   -0.6527   -1.5048   -0.2506 C   0  0  0  0  0  0  0  0  0  0  0  0
   -1.1888   -2.6988    0.2583 C   0  0  0  0  0  0  0  0  0  0  0  0
   -1.9497   -3.5226   -0.5321 C   0  0  0  0  0  0  0  0  0  0  0  0
   -2.2299   -3.1806   -1.8518 C   0  0  0  0  0  0  0  0  0  0  0  0
   -1.7262   -2.0198   -2.3976 C   0  0  0  0  0  0  0  0  0  0  0  0
   -2.1391   -1.6217   -3.8029 C   0  0  0  0  0  0  0  0  0  0  0  0
   -1.1888   -0.6090   -4.3814 C   0  0  0  0  0  0  0  0  0  0  0  0
   -1.0371   -0.3058   -5.7282 C   0  0  0  0  0  0  0  0  0  0  0  0
   -2.1846   -2.8588   -4.6857 C   0  0  0  0  0  0  0  0  0  0  0  0
   -0.9951   -3.3763   -5.1836 C   0  0  0  0  0  0  0  0  0  0  0  0
   -0.9958   -4.5024   -5.9835 C   0  0  0  0  0  0  0  0  0  0  0  0
   -2.1822   -5.1525   -6.2974 C   0  0  0  0  0  0  0  0  0  0  0  0
   -2.1894   -6.3359   -7.2209 C   0  0  0  0  0  0  0  0  0  0  0  0
   -2.3289   -5.8726   -8.6726 C   0  0  0  0  0  0  0  0  0  0  0  0
   -3.3653   -4.6511   -5.7729 C   0  0  0  0  0  0  0  0  0  0  0  0
   -3.3693   -3.5227   -4.9734 C   0  0  0  0  0  0  0  0  0  0  0  0
   -3.4853   -0.8886   -3.7639 C   0  0  0  0  0  0  0  0  0  0  0  0
   -4.0679   -0.4751   -2.5745 C   0  0  0  0  0  0  0  0  0  0  0  0
   -5.2636    0.2218   -2.5817 C   0  0  0  0  0  0  0  0  0  0  0  0
   -5.9078    0.5302   -3.7709 C   0  0  0  0  0  0  0  0  0  0  0  0
   -7.1801    1.3269   -3.7739 C   0  0  0  0  0  0  0  0  0  0  0  0
   -6.8714    2.8256   -3.7680 C   0  0  0  0  0  0  0  0  0  0  0  0
   -5.3160    0.1239   -4.9602 C   0  0  0  0  0  0  0  0  0  0  0  0
   -4.1228   -0.5713   -4.9590 C   0  0  0  0  0  0  0  0  0  0  0  0
    0.1193   -0.5976    0.5648 C   0  0  0  0  0  0  0  0  0  0  0  0
    0.4383   -0.9033    1.8965 C   0  0  0  0  0  0  0  0  0  0  0  0
    1.1168   -0.0257    2.7088 C   0  0  0  0  0  0  0  0  0  0  0  0
    1.5177   -0.3908    4.0275 C   0  0  0  0  0  0  0  0  0  0  0  0
    2.1332    0.4953    4.9031 C   0  0  0  0  0  0  0  0  0  0  0  0
    2.2274    1.9632    4.5834 C   0  0  0  0  0  0  0  0  0  0  0  0
    1.0246    2.5806    5.3056 C   0  0  0  0  0  0  0  0  0  0  0  0
   -0.1026    3.0145    4.6228 C   0  0  0  0  0  0  0  0  0  0  0  0
   -1.1883    3.5287    5.3102 C   0  0  0  0  0  0  0  0  0  0  0  0
   -1.1837    3.6213    6.6940 C   0  0  0  0  0  0  0  0  0  0  0  0
   -2.3786    4.1402    7.4397 C   0  0  0  0  0  0  0  0  0  0  0  0
   -3.3155    2.9896    7.8132 C   0  0  0  0  0  0  0  0  0  0  0  0
   -0.0590    3.1737    7.3758 C   0  0  0  0  0  0  0  0  0  0  0  0
    1.0253    2.6577    6.6945 C   0  0  0  0  0  0  0  0  0  0  0  0
    3.5497    2.5298    5.0754 C   0  0  0  0  0  0  0  0  0  0  0  0
    3.6464    3.7838    5.6647 C   0  0  0  0  0  0  0  0  0  0  0  0
    4.8718    4.2737    6.0771 C   0  0  0  0  0  0  0  0  0  0  0  0
    6.0336    3.5326    5.9070 C   0  0  0  0  0  0  0  0  0  0  0  0
    7.3633    4.0866    6.3295 C   0  0  0  0  0  0  0  0  0  0  0  0
    7.9493    4.9721    5.2280 C   0  0  0  0  0  0  0  0  0  0  0  0
    5.9373    2.2920    5.2909 C   0  0  0  0  0  0  0  0  0  0  0  0
    4.7144    1.7987    4.8771 C   0  0  0  0  0  0  0  0  0  0  0  0
    2.1090    2.2098    3.0889 C   0  0  0  0  0  0  0  0  0  0  0  0
    2.5161    3.4215    2.5735 C   0  0  0  0  0  0  0  0  0  0  0  0
    2.3276    3.7187    1.2269 C   0  0  0  0  0  0  0  0  0  0  0  0
    1.7101    2.8225    0.3914 C   0  0  0  0  0  0  0  0  0  0  0  0
    1.2777    1.5741    0.8667 C   0  0  0  0  0  0  0  0  0  0  0  0
    0.5910    0.6231    0.0250 C   0  0  0  0  0  0  0  0  0  0  0  0
    0.3906    0.8657   -1.3426 C   0  0  0  0  0  0  0  0  0  0  0  0
    1.5047    1.2668    2.2301 C   0  0  0  0  0  0  0  0  0  0  0  0
    2.5253   -0.1282    6.0761 C   0  0  0  0  0  0  0  0  0  0  0  0
    2.2125   -1.4895    6.1263 C   0  0  0  0  0  0  0  0  0  0  0  0
    1.4044   -1.9909    4.6621 S   0  0  0  0  0  0  0  0  0  0  0  0
    2.5374   -2.2893    7.2292 C   0  0  0  0  0  0  0  0  0  0  0  0
    2.3205   -3.6261    7.4572 C   0  0  0  0  0  0  0  0  0  0  0  0
    1.6762   -4.5646    6.5311 C   0  0  0  0  0  0  0  0  0  0  0  0
    1.1950   -4.3260    5.4379 O   0  0  0  0  0  0  0  0  0  0  0  0
    1.7235   -5.8837    7.1897 C   0  0  0  0  0  0  0  0  0  0  0  0
    1.2643   -7.1016    6.7281 C   0  0  0  0  0  0  0  0  0  0  0  0
    1.4276   -8.2186    7.5331 C   0  0  0  0  0  0  0  0  0  0  0  0
    2.0426   -8.0905    8.7697 C   0  0  0  0  0  0  0  0  0  0  0  0
    2.2820   -9.8082    9.9752 I   0  0  0  0  0  0  0  0  0  0  0  0
    2.5080   -6.8722    9.2472 C   0  0  0  0  0  0  0  0  0  0  0  0
    2.3434   -5.7558    8.4442 C   0  0  0  0  0  0  0  0  0  0  0  0
    2.7114   -4.3525    8.6487 C   0  0  0  0  0  0  0  0  0  0  0  0
    3.2978   -3.8509    9.7813 C   0  0  0  0  0  0  0  0  0  0  0  0
    3.6445   -4.6300   10.9060 C   0  0  0  0  0  0  0  0  0  0  0  0
    3.9526   -5.2038   11.8512 N   0  0  0  0  0  0  0  0  0  0  0  0
    3.6327   -2.4997   10.0115 C   0  0  0  0  0  0  0  0  0  0  0  0
    3.9322   -1.4252   10.2863 N   0  0  0  0  0  0  0  0  0  0  0  0
    0.9913    2.1742   -6.9357 H   0  0  0  0  0  0  0  0  0  0  0  0
   -2.0675   -1.2005  -11.2814 H   0  0  0  0  0  0  0  0  0  0  0  0
    1.1366    2.4378  -12.3947 H   0  0  0  0  0  0  0  0  0  0  0  0
   -1.0177   -2.9830    1.2831 H   0  0  0  0  0  0  0  0  0  0  0  0
   -2.3513   -4.4384   -0.1252 H   0  0  0  0  0  0  0  0  0  0  0  0
   -2.8554   -3.8272   -2.4476 H   0  0  0  0  0  0  0  0  0  0  0  0
   -1.5158   -0.8378   -6.5284 H   0  0  0  0  0  0  0  0  0  0  0  0
   -0.0586   -2.8917   -4.9447 H   0  0  0  0  0  0  0  0  0  0  0  0
   -0.0607   -4.8829   -6.3693 H   0  0  0  0  0  0  0  0  0  0  0  0
   -3.0222   -6.9968   -6.9722 H   0  0  0  0  0  0  0  0  0  0  0  0
   -1.2604   -6.8990   -7.1100 H   0  0  0  0  0  0  0  0  0  0  0  0
   -3.2603   -5.3275   -8.8073 H   0  0  0  0  0  0  0  0  0  0  0  0
   -1.5063   -5.2126   -8.9389 H   0  0  0  0  0  0  0  0  0  0  0  0
   -2.3238   -6.7256   -9.3473 H   0  0  0  0  0  0  0  0  0  0  0  0
   -4.2991   -5.1493   -5.9918 H   0  0  0  0  0  0  0  0  0  0  0  0
   -4.3050   -3.1560   -4.5767 H   0  0  0  0  0  0  0  0  0  0  0  0
   -3.5991   -0.6972   -1.6277 H   0  0  0  0  0  0  0  0  0  0  0  0
   -5.7018    0.5279   -1.6423 H   0  0  0  0  0  0  0  0  0  0  0  0
   -7.7669    1.0841   -4.6618 H   0  0  0  0  0  0  0  0  0  0  0  0
   -7.7746    1.0790   -2.8921 H   0  0  0  0  0  0  0  0  0  0  0  0
   -7.7922    3.4040   -3.7762 H   0  0  0  0  0  0  0  0  0  0  0  0
   -6.2844    3.0940   -4.6435 H   0  0  0  0  0  0  0  0  0  0  0  0
   -6.3017    3.0913   -2.8803 H   0  0  0  0  0  0  0  0  0  0  0  0
   -5.7955    0.3529   -5.9011 H   0  0  0  0  0  0  0  0  0  0  0  0
   -3.6914   -0.8787   -5.8991 H   0  0  0  0  0  0  0  0  0  0  0  0
    0.1691   -1.8573    2.3200 H   0  0  0  0  0  0  0  0  0  0  0  0
   -0.1448    2.9619    3.5454 H   0  0  0  0  0  0  0  0  0  0  0  0
   -2.0522    3.8661    4.7553 H   0  0  0  0  0  0  0  0  0  0  0  0
   -2.9193    4.8582    6.8200 H   0  0  0  0  0  0  0  0  0  0  0  0
   -2.0543    4.6490    8.3497 H   0  0  0  0  0  0  0  0  0  0  0  0
   -2.7956    2.2656    8.4367 H   0  0  0  0  0  0  0  0  0  0  0  0
   -4.1780    3.3633    8.3599 H   0  0  0  0  0  0  0  0  0  0  0  0
   -3.6650    2.4806    6.9176 H   0  0  0  0  0  0  0  0  0  0  0  0
   -0.0301    3.2317    8.4545 H   0  0  0  0  0  0  0  0  0  0  0  0
    1.8877    2.3253    7.2519 H   0  0  0  0  0  0  0  0  0  0  0  0
    2.7593    4.3836    5.8089 H   0  0  0  0  0  0  0  0  0  0  0  0
    4.9246    5.2479    6.5420 H   0  0  0  0  0  0  0  0  0  0  0  0
    7.2443    4.6777    7.2399 H   0  0  0  0  0  0  0  0  0  0  0  0
    8.0549    3.2689    6.5409 H   0  0  0  0  0  0  0  0  0  0  0  0
    8.9123    5.3734    5.5348 H   0  0  0  0  0  0  0  0  0  0  0  0
    7.2800    5.8021    5.0125 H   0  0  0  0  0  0  0  0  0  0  0  0
    8.0869    4.3981    4.3143 H   0  0  0  0  0  0  0  0  0  0  0  0
    6.8297    1.7027    5.1353 H   0  0  0  0  0  0  0  0  0  0  0  0
    4.6639    0.8326    4.3946 H   0  0  0  0  0  0  0  0  0  0  0  0
    2.9763    4.1537    3.2184 H   0  0  0  0  0  0  0  0  0  0  0  0
    2.6566    4.6729    0.8438 H   0  0  0  0  0  0  0  0  0  0  0  0
    1.5542    3.1018   -0.6372 H   0  0  0  0  0  0  0  0  0  0  0  0
    0.8088    1.7432   -1.8100 H   0  0  0  0  0  0  0  0  0  0  0  0
    3.0441    0.3590    6.8827 H   0  0  0  0  0  0  0  0  0  0  0  0
    3.0478   -1.7396    8.0109 H   0  0  0  0  0  0  0  0  0  0  0  0
    0.7908   -7.1739    5.7612 H   0  0  0  0  0  0  0  0  0  0  0  0
    1.0793   -9.1838    7.1995 H   0  0  0  0  0  0  0  0  0  0  0  0
    2.9816   -6.8137   10.2132 H   0  0  0  0  0  0  0  0  0  0  0  0
  1  2  2  0  0  0  0
  2  3  1  0  0  0  0
  3  4  2  0  0  0  0
  3  5  1  0  0  0  0
  5  6  2  0  0  0  0
  6  7  1  0  0  0  0
  7  8  1  0  0  0  0
  7  9  2  0  0  0  0
  9 10  1  0  0  0  0
  9 11  1  0  0  0  0
 11 12  2  0  0  0  0
 12 13  1  0  0  0  0
 13 14  2  0  0  0  0
 14 15  1  0  0  0  0
 15 16  3  0  0  0  0
 14 17  1  0  0  0  0
 17 18  3  0  0  0  0
  1 19  1  0  0  0  0
 19 20  1  0  0  0  0
 20 21  1  0  0  0  0
 21 22  1  0  0  0  0
 22 23  2  0  0  0  0
 23 24  1  0  0  0  0
 24 25  1  0  0  0  0
 25 26  2  0  0  0  0
 26 27  1  0  0  0  0
 27 28  2  0  0  0  0
 28 29  1  0  0  0  0
 29 30  1  0  0  0  0
 30 31  1  0  0  0  0
 29 32  1  0  0  0  0
 32 33  2  0  0  0  0
 33 34  1  0  0  0  0
 34 35  2  0  0  0  0
 35 36  1  0  0  0  0
 36 37  1  0  0  0  0
 35 38  1  0  0  0  0
 38 39  2  0  0  0  0
 29 40  1  0  0  0  0
 40 41  2  0  0  0  0
 41 42  1  0  0  0  0
 42 43  2  0  0  0  0
 43 44  1  0  0  0  0
 44 45  1  0  0  0  0
 43 46  1  0  0  0  0
 46 47  2  0  0  0  0
 24 48  2  0  0  0  0
 48 49  1  0  0  0  0
 49 50  2  0  0  0  0
 50 51  1  0  0  0  0
 51 52  2  0  0  0  0
 52 53  1  0  0  0  0
 53 54  1  0  0  0  0
 54 55  2  0  0  0  0
 55 56  1  0  0  0  0
 56 57  2  0  0  0  0
 57 58  1  0  0  0  0
 58 59  1  0  0  0  0
 57 60  1  0  0  0  0
 60 61  2  0  0  0  0
 53 62  1  0  0  0  0
 62 63  2  0  0  0  0
 63 64  1  0  0  0  0
 64 65  2  0  0  0  0
 65 66  1  0  0  0  0
 66 67  1  0  0  0  0
 65 68  1  0  0  0  0
 68 69  2  0  0  0  0
 53 70  1  0  0  0  0
 70 71  1  0  0  0  0
 71 72  2  0  0  0  0
 72 73  1  0  0  0  0
 73 74  2  0  0  0  0
 74 75  1  0  0  0  0
 75 76  2  0  0  0  0
 74 77  1  0  0  0  0
 52 78  1  0  0  0  0
 78 79  2  0  0  0  0
 79 80  1  0  0  0  0
 79 81  1  0  0  0  0
 81 82  2  0  0  0  0
 82 83  1  0  0  0  0
 83 84  2  0  0  0  0
 83 85  1  0  0  0  0
 85 86  2  0  0  0  0
 86 87  1  0  0  0  0
 87 88  2  0  0  0  0
 88 89  1  0  0  0  0
 88 90  1  0  0  0  0
 90 91  2  0  0  0  0
 91 92  1  0  0  0  0
 92 93  2  0  0  0  0
 93 94  1  0  0  0  0
 94 95  3  0  0  0  0
 93 96  1  0  0  0  0
 96 97  3  0  0  0  0
 13  2  1  0  0  0  0
 31 19  2  0  0  0  0
 39 32  1  0  0  0  0
 47 40  1  0  0  0  0
 75 48  1  0  0  0  0
 92 82  1  0  0  0  0
 12  5  1  0  0  0  0
 30 21  2  0  0  0  0
 77 50  1  0  0  0  0
 91 85  1  0  0  0  0
 76 22  1  0  0  0  0
 28 23  1  0  0  0  0
 80 51  1  0  0  0  0
 61 54  1  0  0  0  0
 69 62  1  0  0  0  0
 77 70  2  0  0  0  0
  1 98  1  0  0  0  0
  6 99  1  0  0  0  0
 11100  1  0  0  0  0
 25101  1  0  0  0  0
 26102  1  0  0  0  0
 27103  1  0  0  0  0
 31104  1  0  0  0  0
 33105  1  0  0  0  0
 34106  1  0  0  0  0
 36107  1  0  0  0  0
 36108  1  0  0  0  0
 37109  1  0  0  0  0
 37110  1  0  0  0  0
 37111  1  0  0  0  0
 38112  1  0  0  0  0
 39113  1  0  0  0  0
 41114  1  0  0  0  0
 42115  1  0  0  0  0
 44116  1  0  0  0  0
 44117  1  0  0  0  0
 45118  1  0  0  0  0
 45119  1  0  0  0  0
 45120  1  0  0  0  0
 46121  1  0  0  0  0
 47122  1  0  0  0  0
 49123  1  0  0  0  0
 55124  1  0  0  0  0
 56125  1  0  0  0  0
 58126  1  0  0  0  0
 58127  1  0  0  0  0
 59128  1  0  0  0  0
 59129  1  0  0  0  0
 59130  1  0  0  0  0
 60131  1  0  0  0  0
 61132  1  0  0  0  0
 63133  1  0  0  0  0
 64134  1  0  0  0  0
 66135  1  0  0  0  0
 66136  1  0  0  0  0
 67137  1  0  0  0  0
 67138  1  0  0  0  0
 67139  1  0  0  0  0
 68140  1  0  0  0  0
 69141  1  0  0  0  0
 71142  1  0  0  0  0
 72143  1  0  0  0  0
 73144  1  0  0  0  0
 76145  1  0  0  0  0
 78146  1  0  0  0  0
 81147  1  0  0  0  0
 86148  1  0  0  0  0
 87149  1  0  0  0  0
 90150  1  0  0  0  0
M  END
