
  xtb     02012223073D
 energy: -169.151382079878 gnorm: 0.000802427848 xtb: 6.4.1 (unknown)
 86 95  0     0  0            999 V2000
   -1.6301   -2.8744   -5.8501 C   0  0  0  0  0  0  0  0  0  0  0  0
   -2.7269   -3.6142   -6.2206 C   0  0  0  0  0  0  0  0  0  0  0  0
   -3.9150   -3.8617   -5.3977 C   0  0  0  0  0  0  0  0  0  0  0  0
   -4.1199   -3.5104   -4.2519 O   0  0  0  0  0  0  0  0  0  0  0  0
   -4.8422   -4.6358   -6.2509 C   0  0  0  0  0  0  0  0  0  0  0  0
   -6.1057   -5.0975   -5.9483 C   0  0  0  0  0  0  0  0  0  0  0  0
   -6.8018   -5.8049   -6.9224 C   0  0  0  0  0  0  0  0  0  0  0  0
   -8.3794   -6.3950   -6.5846 Cl  0  0  0  0  0  0  0  0  0  0  0  0
   -6.2138   -6.0297   -8.1695 C   0  0  0  0  0  0  0  0  0  0  0  0
   -7.1622   -6.9876   -9.4961 Br  0  0  0  0  0  0  0  0  0  0  0  0
   -4.9393   -5.5650   -8.4722 C   0  0  0  0  0  0  0  0  0  0  0  0
   -4.2448   -4.8605   -7.5030 C   0  0  0  0  0  0  0  0  0  0  0  0
   -2.9155   -4.2492   -7.5092 C   0  0  0  0  0  0  0  0  0  0  0  0
   -2.0303   -4.3037   -8.5555 C   0  0  0  0  0  0  0  0  0  0  0  0
   -0.7365   -3.7426   -8.5739 C   0  0  0  0  0  0  0  0  0  0  0  0
    0.3252   -3.3150   -8.6760 N   0  0  0  0  0  0  0  0  0  0  0  0
   -2.2944   -4.9519   -9.7809 C   0  0  0  0  0  0  0  0  0  0  0  0
   -2.4444   -5.4612  -10.7985 N   0  0  0  0  0  0  0  0  0  0  0  0
   -1.3281   -2.2157   -4.6522 C   0  0  0  0  0  0  0  0  0  0  0  0
   -2.3074   -2.1952   -3.1832 S   0  0  0  0  0  0  0  0  0  0  0  0
   -1.1227   -1.2227   -2.4184 C   0  0  0  0  0  0  0  0  0  0  0  0
   -0.8501   -0.6412   -1.1731 C   0  0  0  0  0  0  0  0  0  0  0  0
   -1.4826   -0.7437    0.0828 C   0  0  0  0  0  0  0  0  0  0  0  0
   -2.5800   -1.3815    0.4928 N   0  0  0  0  0  0  0  0  0  0  0  0
   -2.6090   -1.1707    1.7838 N   0  0  0  0  0  0  0  0  0  0  0  0
   -3.6260   -1.7457    2.6158 C   0  0  0  0  0  0  0  0  0  0  0  0
   -3.1698   -3.0963    3.1602 C   0  0  0  0  0  0  0  0  0  0  0  0
   -1.6357   -0.4518    2.2831 N   0  0  0  0  0  0  0  0  0  0  0  0
   -0.8804   -0.1498    1.2252 C   0  0  0  0  0  0  0  0  0  0  0  0
    0.2677    0.6526    1.0686 C   0  0  0  0  0  0  0  0  0  0  0  0
    0.9884    1.4593    1.9547 C   0  0  0  0  0  0  0  0  0  0  0  0
    1.0374    1.8659    3.6173 S   0  0  0  0  0  0  0  0  0  0  0  0
    2.3538    3.0011    3.3043 C   0  0  0  0  0  0  0  0  0  0  0  0
    2.6917    3.0592    1.9595 C   0  0  0  0  0  0  0  0  0  0  0  0
    1.9445    2.1628    1.2027 C   0  0  0  0  0  0  0  0  0  0  0  0
    1.8719    1.7810   -0.1140 N   0  0  0  0  0  0  0  0  0  0  0  0
    2.3430    2.6837   -1.1439 C   0  0  0  0  0  0  0  0  0  0  0  0
    1.1894    3.4830   -1.7463 C   0  0  0  0  0  0  0  0  0  0  0  0
    0.8568    0.8366   -0.2181 C   0  0  0  0  0  0  0  0  0  0  0  0
    0.3763    0.0751   -1.3079 C   0  0  0  0  0  0  0  0  0  0  0  0
    0.8668   -0.1207   -2.5905 N   0  0  0  0  0  0  0  0  0  0  0  0
   -0.0385   -0.9058   -3.2631 C   0  0  0  0  0  0  0  0  0  0  0  0
   -0.1428   -1.4798   -4.5149 C   0  0  0  0  0  0  0  0  0  0  0  0
    2.2343   -0.0420   -3.0570 C   0  0  0  0  0  0  0  0  0  0  0  0
    2.3999    0.9406   -4.2148 C   0  0  0  0  0  0  0  0  0  0  0  0
    2.9060    3.8163    4.3146 C   0  0  0  0  0  0  0  0  0  0  0  0
    2.8743    3.6502    5.6681 C   0  0  0  0  0  0  0  0  0  0  0  0
    3.0628    4.8184    6.5628 C   0  0  0  0  0  0  0  0  0  0  0  0
    3.4679    5.9160    6.2584 O   0  0  0  0  0  0  0  0  0  0  0  0
    2.5891    4.3610    7.8910 C   0  0  0  0  0  0  0  0  0  0  0  0
    2.4374    5.0930    9.0523 C   0  0  0  0  0  0  0  0  0  0  0  0
    1.9419    4.4359   10.1672 C   0  0  0  0  0  0  0  0  0  0  0  0
    1.7757    5.1085   11.3127 F   0  0  0  0  0  0  0  0  0  0  0  0
    1.6102    3.0815   10.1095 C   0  0  0  0  0  0  0  0  0  0  0  0
    1.1197    2.4798   11.1987 F   0  0  0  0  0  0  0  0  0  0  0  0
    1.7734    2.3417    8.9477 C   0  0  0  0  0  0  0  0  0  0  0  0
    2.2687    2.9928    7.8301 C   0  0  0  0  0  0  0  0  0  0  0  0
    2.5875    2.4971    6.4918 C   0  0  0  0  0  0  0  0  0  0  0  0
    2.8595    1.1929    6.1736 C   0  0  0  0  0  0  0  0  0  0  0  0
    3.4836    0.8141    4.9659 C   0  0  0  0  0  0  0  0  0  0  0  0
    4.0496    0.4817    4.0243 N   0  0  0  0  0  0  0  0  0  0  0  0
    2.6523    0.1100    7.0511 C   0  0  0  0  0  0  0  0  0  0  0  0
    2.4806   -0.8018    7.7264 N   0  0  0  0  0  0  0  0  0  0  0  0
   -0.8554   -2.7606   -6.5988 H   0  0  0  0  0  0  0  0  0  0  0  0
   -6.5414   -4.9120   -4.9794 H   0  0  0  0  0  0  0  0  0  0  0  0
   -4.5259   -5.7613   -9.4481 H   0  0  0  0  0  0  0  0  0  0  0  0
   -4.5204   -1.8624    2.0013 H   0  0  0  0  0  0  0  0  0  0  0  0
   -3.8165   -1.0494    3.4348 H   0  0  0  0  0  0  0  0  0  0  0  0
   -2.9679   -3.7816    2.3406 H   0  0  0  0  0  0  0  0  0  0  0  0
   -3.9460   -3.5214    3.7897 H   0  0  0  0  0  0  0  0  0  0  0  0
   -2.2651   -2.9756    3.7510 H   0  0  0  0  0  0  0  0  0  0  0  0
    3.4754    3.7000    1.5981 H   0  0  0  0  0  0  0  0  0  0  0  0
    2.8813    2.1476   -1.9224 H   0  0  0  0  0  0  0  0  0  0  0  0
    3.0497    3.3632   -0.6645 H   0  0  0  0  0  0  0  0  0  0  0  0
    1.5675    4.1792   -2.4902 H   0  0  0  0  0  0  0  0  0  0  0  0
    0.4671    2.8204   -2.2179 H   0  0  0  0  0  0  0  0  0  0  0  0
    0.6781    4.0489   -0.9706 H   0  0  0  0  0  0  0  0  0  0  0  0
    0.5701   -1.4006   -5.3156 H   0  0  0  0  0  0  0  0  0  0  0  0
    2.5275   -1.0412   -3.4010 H   0  0  0  0  0  0  0  0  0  0  0  0
    2.8784    0.2091   -2.2136 H   0  0  0  0  0  0  0  0  0  0  0  0
    1.8416    0.5988   -5.0815 H   0  0  0  0  0  0  0  0  0  0  0  0
    2.0372    1.9307   -3.9545 H   0  0  0  0  0  0  0  0  0  0  0  0
    3.4493    1.0101   -4.4889 H   0  0  0  0  0  0  0  0  0  0  0  0
    3.3470    4.7497    3.9769 H   0  0  0  0  0  0  0  0  0  0  0  0
    2.6939    6.1394    9.0974 H   0  0  0  0  0  0  0  0  0  0  0  0
    1.5028    1.2983    8.9459 H   0  0  0  0  0  0  0  0  0  0  0  0
  1  2  2  0  0  0  0
  2  3  1  0  0  0  0
  3  4  2  0  0  0  0
  3  5  1  0  0  0  0
  5  6  2  0  0  0  0
  6  7  1  0  0  0  0
  7  8  1  0  0  0  0
  7  9  2  0  0  0  0
  9 10  1  0  0  0  0
  9 11  1  0  0  0  0
 11 12  2  0  0  0  0
 12 13  1  0  0  0  0
 13 14  2  0  0  0  0
 14 15  1  0  0  0  0
 15 16  3  0  0  0  0
 14 17  1  0  0  0  0
 17 18  3  0  0  0  0
  1 19  1  0  0  0  0
 19 20  1  0  0  0  0
 20 21  1  0  0  0  0
 21 22  1  0  0  0  0
 22 23  1  0  0  0  0
 23 24  2  0  0  0  0
 24 25  1  0  0  0  0
 25 26  1  0  0  0  0
 26 27  1  0  0  0  0
 25 28  1  0  0  0  0
 28 29  2  0  0  0  0
 29 30  1  0  0  0  0
 30 31  1  0  0  0  0
 31 32  1  0  0  0  0
 32 33  1  0  0  0  0
 33 34  2  0  0  0  0
 34 35  1  0  0  0  0
 35 36  1  0  0  0  0
 36 37  1  0  0  0  0
 37 38  1  0  0  0  0
 36 39  1  0  0  0  0
 39 40  1  0  0  0  0
 40 41  1  0  0  0  0
 41 42  1  0  0  0  0
 42 43  1  0  0  0  0
 41 44  1  0  0  0  0
 44 45  1  0  0  0  0
 33 46  1  0  0  0  0
 46 47  2  0  0  0  0
 47 48  1  0  0  0  0
 48 49  2  0  0  0  0
 48 50  1  0  0  0  0
 50 51  2  0  0  0  0
 51 52  1  0  0  0  0
 52 53  1  0  0  0  0
 52 54  2  0  0  0  0
 54 55  1  0  0  0  0
 54 56  1  0  0  0  0
 56 57  2  0  0  0  0
 57 58  1  0  0  0  0
 58 59  2  0  0  0  0
 59 60  1  0  0  0  0
 60 61  3  0  0  0  0
 59 62  1  0  0  0  0
 62 63  3  0  0  0  0
 13  2  1  0  0  0  0
 43 19  2  0  0  0  0
 58 47  1  0  0  0  0
 12  5  1  0  0  0  0
 42 21  2  0  0  0  0
 57 50  1  0  0  0  0
 40 22  2  0  0  0  0
 29 23  1  0  0  0  0
 39 30  2  0  0  0  0
 35 31  2  0  0  0  0
  1 64  1  0  0  0  0
  6 65  1  0  0  0  0
 11 66  1  0  0  0  0
 26 67  1  0  0  0  0
 26 68  1  0  0  0  0
 27 69  1  0  0  0  0
 27 70  1  0  0  0  0
 27 71  1  0  0  0  0
 34 72  1  0  0  0  0
 37 73  1  0  0  0  0
 37 74  1  0  0  0  0
 38 75  1  0  0  0  0
 38 76  1  0  0  0  0
 38 77  1  0  0  0  0
 43 78  1  0  0  0  0
 44 79  1  0  0  0  0
 44 80  1  0  0  0  0
 45 81  1  0  0  0  0
 45 82  1  0  0  0  0
 45 83  1  0  0  0  0
 46 84  1  0  0  0  0
 51 85  1  0  0  0  0
 56 86  1  0  0  0  0
M  END
