
  xtb     02022223313D
 energy: -192.633879791419 gnorm: 0.000176384968 xtb: 6.4.1 (unknown)
108121  0     0  0            999 V2000
   -3.1288    2.3874   -7.6275 C   0  0  0  0  0  0  0  0  0  0  0  0
   -2.8602    1.6407   -8.7466 C   0  0  0  0  0  0  0  0  0  0  0  0
   -2.7026    2.3307  -10.0452 C   0  0  0  0  0  0  0  0  0  0  0  0
   -2.9410    3.4931  -10.2897 O   0  0  0  0  0  0  0  0  0  0  0  0
   -2.1508    1.3083  -10.9653 C   0  0  0  0  0  0  0  0  0  0  0  0
   -1.7342    1.4514  -12.2716 C   0  0  0  0  0  0  0  0  0  0  0  0
   -1.2207    0.3382  -12.9292 C   0  0  0  0  0  0  0  0  0  0  0  0
   -0.6909    0.4802  -14.5585 Cl  0  0  0  0  0  0  0  0  0  0  0  0
   -1.1368   -0.8858  -12.2627 C   0  0  0  0  0  0  0  0  0  0  0  0
   -0.4181   -2.3939  -13.1504 Br  0  0  0  0  0  0  0  0  0  0  0  0
   -1.5679   -1.0333  -10.9492 C   0  0  0  0  0  0  0  0  0  0  0  0
   -2.0811    0.0732  -10.2963 C   0  0  0  0  0  0  0  0  0  0  0  0
   -2.6417    0.2325   -8.9530 C   0  0  0  0  0  0  0  0  0  0  0  0
   -3.1017   -0.7999   -8.1722 C   0  0  0  0  0  0  0  0  0  0  0  0
   -2.9000   -2.1620   -8.4685 C   0  0  0  0  0  0  0  0  0  0  0  0
   -2.7368   -3.2852   -8.6432 N   0  0  0  0  0  0  0  0  0  0  0  0
   -3.9033   -0.6251   -7.0279 C   0  0  0  0  0  0  0  0  0  0  0  0
   -4.5954   -0.5516   -6.1144 N   0  0  0  0  0  0  0  0  0  0  0  0
   -2.9413    2.0662   -6.2753 C   0  0  0  0  0  0  0  0  0  0  0  0
   -2.0933    1.0896   -5.7072 C   0  0  0  0  0  0  0  0  0  0  0  0
   -2.1979    1.2451   -4.3382 C   0  0  0  0  0  0  0  0  0  0  0  0
   -3.1241    2.2828   -4.0895 C   0  0  0  0  0  0  0  0  0  0  0  0
   -3.5369    2.8011   -5.2601 N   0  0  0  0  0  0  0  0  0  0  0  0
   -4.5769    3.7875   -5.4189 C   0  0  0  0  0  0  0  0  0  0  0  0
   -5.8826    3.1470   -5.8821 C   0  0  0  0  0  0  0  0  0  0  0  0
   -3.3056    2.3510   -2.6974 C   0  0  0  0  0  0  0  0  0  0  0  0
   -4.2052    3.0920   -1.9004 C   0  0  0  0  0  0  0  0  0  0  0  0
   -4.2723    2.8224   -0.4930 C   0  0  0  0  0  0  0  0  0  0  0  0
   -5.1983    3.5422    0.1196 N   0  0  0  0  0  0  0  0  0  0  0  0
   -5.9259    4.4858   -0.9720 S   0  0  0  0  0  0  0  0  0  0  0  0
   -5.0807    4.0143   -2.2755 N   0  0  0  0  0  0  0  0  0  0  0  0
   -3.3362    1.9310    0.0737 C   0  0  0  0  0  0  0  0  0  0  0  0
   -3.0552    1.6237    1.4102 C   0  0  0  0  0  0  0  0  0  0  0  0
   -3.6908    1.9511    2.9826 S   0  0  0  0  0  0  0  0  0  0  0  0
   -2.3507    1.0672    3.6755 C   0  0  0  0  0  0  0  0  0  0  0  0
   -2.0036    0.7800    4.9969 C   0  0  0  0  0  0  0  0  0  0  0  0
   -2.8175    1.2332    6.1643 C   0  0  0  0  0  0  0  0  0  0  0  0
   -2.3566    2.6140    6.6393 C   0  0  0  0  0  0  0  0  0  0  0  0
   -0.8139    0.0587    5.0667 C   0  0  0  0  0  0  0  0  0  0  0  0
   -0.1282   -0.2287    3.4683 S   0  0  0  0  0  0  0  0  0  0  0  0
   -1.4606    0.5630    2.7165 C   0  0  0  0  0  0  0  0  0  0  0  0
   -1.8864    0.8503    1.4161 C   0  0  0  0  0  0  0  0  0  0  0  0
   -1.4735    0.6270    0.1313 N   0  0  0  0  0  0  0  0  0  0  0  0
   -2.3562    1.2641   -0.7199 C   0  0  0  0  0  0  0  0  0  0  0  0
   -2.4347    1.3709   -2.1321 C   0  0  0  0  0  0  0  0  0  0  0  0
   -1.7740    0.6983   -3.1504 N   0  0  0  0  0  0  0  0  0  0  0  0
   -1.2484   -0.6509   -3.1541 C   0  0  0  0  0  0  0  0  0  0  0  0
    0.1901   -0.7105   -3.6611 C   0  0  0  0  0  0  0  0  0  0  0  0
   -0.1827    0.0297   -0.1234 C   0  0  0  0  0  0  0  0  0  0  0  0
   -0.1700   -1.4718    0.1610 C   0  0  0  0  0  0  0  0  0  0  0  0
   -0.1505   -0.2966    6.2580 C   0  0  0  0  0  0  0  0  0  0  0  0
    0.9801   -1.0225    6.4803 C   0  0  0  0  0  0  0  0  0  0  0  0
    1.7049   -0.8217    7.7639 C   0  0  0  0  0  0  0  0  0  0  0  0
    1.2709   -0.2921    8.7630 O   0  0  0  0  0  0  0  0  0  0  0  0
    3.0660   -1.3375    7.5273 C   0  0  0  0  0  0  0  0  0  0  0  0
    4.1547   -1.2691    8.3932 C   0  0  0  0  0  0  0  0  0  0  0  0
    5.3118   -1.8042    7.8809 C   0  0  0  0  0  0  0  0  0  0  0  0
    5.3882   -2.3615    6.5969 C   0  0  0  0  0  0  0  0  0  0  0  0
    4.3184   -2.4517    5.7377 C   0  0  0  0  0  0  0  0  0  0  0  0
    3.1302   -1.9196    6.2432 C   0  0  0  0  0  0  0  0  0  0  0  0
    1.7910   -1.8898    5.6576 C   0  0  0  0  0  0  0  0  0  0  0  0
    1.3278   -2.7488    4.6942 C   0  0  0  0  0  0  0  0  0  0  0  0
   -0.0461   -2.9498    4.4462 C   0  0  0  0  0  0  0  0  0  0  0  0
   -1.1538   -3.1921    4.2653 N   0  0  0  0  0  0  0  0  0  0  0  0
    2.1475   -3.5974    3.9265 C   0  0  0  0  0  0  0  0  0  0  0  0
    2.7694   -4.2792    3.2427 N   0  0  0  0  0  0  0  0  0  0  0  0
    6.8569   -2.6752    6.7352 C   0  0  0  0  0  0  0  0  0  0  0  0
    7.8669   -1.7369    6.0285 C   0  0  0  0  0  0  0  0  0  0  0  0
    7.2008   -0.3877    5.9212 C   0  0  0  0  0  0  0  0  0  0  0  0
    7.1289    0.1273    7.1413 C   0  0  0  0  0  0  0  0  0  0  0  0
    7.7443   -0.8653    8.0963 C   0  0  0  0  0  0  0  0  0  0  0  0
    8.8323   -1.4698    7.1946 C   0  0  0  0  0  0  0  0  0  0  0  0
    6.7687   -2.0657    8.1698 C   0  0  0  0  0  0  0  0  0  0  0  0
   -3.4586    3.3986   -7.8459 H   0  0  0  0  0  0  0  0  0  0  0  0
   -1.8064    2.4044  -12.7712 H   0  0  0  0  0  0  0  0  0  0  0  0
   -1.4856   -1.9957  -10.4697 H   0  0  0  0  0  0  0  0  0  0  0  0
   -1.4666    0.4193   -6.2611 H   0  0  0  0  0  0  0  0  0  0  0  0
   -4.7262    4.2536   -4.4418 H   0  0  0  0  0  0  0  0  0  0  0  0
   -4.2506    4.5487   -6.1342 H   0  0  0  0  0  0  0  0  0  0  0  0
   -6.1963    2.3885   -5.1696 H   0  0  0  0  0  0  0  0  0  0  0  0
   -5.7621    2.6754   -6.8547 H   0  0  0  0  0  0  0  0  0  0  0  0
   -6.6580    3.9042   -5.9517 H   0  0  0  0  0  0  0  0  0  0  0  0
   -2.7455    0.5154    6.9815 H   0  0  0  0  0  0  0  0  0  0  0  0
   -3.8618    1.2941    5.8514 H   0  0  0  0  0  0  0  0  0  0  0  0
   -2.4485    3.3396    5.8345 H   0  0  0  0  0  0  0  0  0  0  0  0
   -2.9699    2.9426    7.4739 H   0  0  0  0  0  0  0  0  0  0  0  0
   -1.3185    2.5841    6.9623 H   0  0  0  0  0  0  0  0  0  0  0  0
   -1.8800   -1.2509   -3.8211 H   0  0  0  0  0  0  0  0  0  0  0  0
   -1.3345   -1.0702   -2.1554 H   0  0  0  0  0  0  0  0  0  0  0  0
    0.5442   -1.7370   -3.6286 H   0  0  0  0  0  0  0  0  0  0  0  0
    0.8563   -0.0944   -3.0616 H   0  0  0  0  0  0  0  0  0  0  0  0
    0.2433   -0.3582   -4.6872 H   0  0  0  0  0  0  0  0  0  0  0  0
    0.1066    0.2470   -1.1491 H   0  0  0  0  0  0  0  0  0  0  0  0
    0.5426    0.5144    0.5409 H   0  0  0  0  0  0  0  0  0  0  0  0
    0.8019   -1.8835   -0.0953 H   0  0  0  0  0  0  0  0  0  0  0  0
   -0.3539   -1.6623    1.2148 H   0  0  0  0  0  0  0  0  0  0  0  0
   -0.9327   -1.9984   -0.4074 H   0  0  0  0  0  0  0  0  0  0  0  0
   -0.5450    0.1748    7.1532 H   0  0  0  0  0  0  0  0  0  0  0  0
    4.0567   -0.8299    9.3736 H   0  0  0  0  0  0  0  0  0  0  0  0
    4.3842   -2.8838    4.7524 H   0  0  0  0  0  0  0  0  0  0  0  0
    7.1313   -3.7240    6.6413 H   0  0  0  0  0  0  0  0  0  0  0  0
    8.2890   -2.1381    5.1109 H   0  0  0  0  0  0  0  0  0  0  0  0
    6.8105    0.0164    5.0054 H   0  0  0  0  0  0  0  0  0  0  0  0
    6.6668    1.0472    7.4487 H   0  0  0  0  0  0  0  0  0  0  0  0
    8.0540   -0.4745    9.0619 H   0  0  0  0  0  0  0  0  0  0  0  0
    9.2807   -2.3745    7.6028 H   0  0  0  0  0  0  0  0  0  0  0  0
    9.6132   -0.7548    6.9399 H   0  0  0  0  0  0  0  0  0  0  0  0
    6.9772   -2.7202    9.0138 H   0  0  0  0  0  0  0  0  0  0  0  0
  1  2  2  0  0  0  0
  2  3  1  0  0  0  0
  3  4  2  0  0  0  0
  3  5  1  0  0  0  0
  5  6  2  0  0  0  0
  6  7  1  0  0  0  0
  7  8  1  0  0  0  0
  7  9  2  0  0  0  0
  9 10  1  0  0  0  0
  9 11  1  0  0  0  0
 11 12  2  0  0  0  0
 12 13  1  0  0  0  0
 13 14  2  0  0  0  0
 14 15  1  0  0  0  0
 15 16  3  0  0  0  0
 14 17  1  0  0  0  0
 17 18  3  0  0  0  0
  1 19  1  0  0  0  0
 19 20  2  0  0  0  0
 20 21  1  0  0  0  0
 21 22  2  0  0  0  0
 22 23  1  0  0  0  0
 23 24  1  0  0  0  0
 24 25  1  0  0  0  0
 22 26  1  0  0  0  0
 26 27  1  0  0  0  0
 27 28  1  0  0  0  0
 28 29  2  0  0  0  0
 29 30  1  0  0  0  0
 30 31  1  0  0  0  0
 28 32  1  0  0  0  0
 32 33  1  0  0  0  0
 33 34  1  0  0  0  0
 34 35  1  0  0  0  0
 35 36  1  0  0  0  0
 36 37  1  0  0  0  0
 37 38  1  0  0  0  0
 36 39  2  0  0  0  0
 39 40  1  0  0  0  0
 40 41  1  0  0  0  0
 41 42  1  0  0  0  0
 42 43  1  0  0  0  0
 43 44  1  0  0  0  0
 44 45  1  0  0  0  0
 45 46  1  0  0  0  0
 46 47  1  0  0  0  0
 47 48  1  0  0  0  0
 43 49  1  0  0  0  0
 49 50  1  0  0  0  0
 39 51  1  0  0  0  0
 51 52  2  0  0  0  0
 52 53  1  0  0  0  0
 53 54  2  0  0  0  0
 53 55  1  0  0  0  0
 55 56  2  0  0  0  0
 56 57  1  0  0  0  0
 57 58  2  0  0  0  0
 58 59  1  0  0  0  0
 59 60  2  0  0  0  0
 60 61  1  0  0  0  0
 61 62  2  0  0  0  0
 62 63  1  0  0  0  0
 63 64  3  0  0  0  0
 62 65  1  0  0  0  0
 65 66  3  0  0  0  0
 58 67  1  0  0  0  0
 67 68  1  0  0  0  0
 68 69  1  0  0  0  0
 69 70  2  0  0  0  0
 70 71  1  0  0  0  0
 71 72  1  0  0  0  0
 71 73  1  0  0  0  0
 13  2  1  0  0  0  0
 23 19  1  0  0  0  0
 45 26  2  0  0  0  0
 61 52  1  0  0  0  0
 73 67  1  0  0  0  0
 12  5  1  0  0  0  0
 46 21  1  0  0  0  0
 60 55  1  0  0  0  0
 72 68  1  0  0  0  0
 31 27  2  0  0  0  0
 44 32  2  0  0  0  0
 73 57  1  0  0  0  0
 42 33  2  0  0  0  0
 41 35  2  0  0  0  0
  1 74  1  0  0  0  0
  6 75  1  0  0  0  0
 11 76  1  0  0  0  0
 20 77  1  0  0  0  0
 24 78  1  0  0  0  0
 24 79  1  0  0  0  0
 25 80  1  0  0  0  0
 25 81  1  0  0  0  0
 25 82  1  0  0  0  0
 37 83  1  0  0  0  0
 37 84  1  0  0  0  0
 38 85  1  0  0  0  0
 38 86  1  0  0  0  0
 38 87  1  0  0  0  0
 47 88  1  0  0  0  0
 47 89  1  0  0  0  0
 48 90  1  0  0  0  0
 48 91  1  0  0  0  0
 48 92  1  0  0  0  0
 49 93  1  0  0  0  0
 49 94  1  0  0  0  0
 50 95  1  0  0  0  0
 50 96  1  0  0  0  0
 50 97  1  0  0  0  0
 51 98  1  0  0  0  0
 56 99  1  0  0  0  0
 59100  1  0  0  0  0
 67101  1  0  0  0  0
 68102  1  0  0  0  0
 69103  1  0  0  0  0
 70104  1  0  0  0  0
 71105  1  0  0  0  0
 72106  1  0  0  0  0
 72107  1  0  0  0  0
 73108  1  0  0  0  0
M  END
