164

C          5.02670        1.62450       -6.96860
C          4.76630        1.24960       -8.26480
C          3.56240        0.55700       -8.73260
O          2.60100        0.19690       -8.07900
C          3.73940        0.37550      -10.18850
C          2.88550       -0.22460      -11.08980
C          3.26670       -0.27930      -12.42580
Cl         2.23110       -1.02010      -13.57920
C          4.48950        0.26870      -12.82090
Br         5.00730        0.19650      -14.63840
C          5.34930        0.87250      -11.91080
C          4.97190        0.92620      -10.57950
C          5.63880        1.47780       -9.39970
C          6.86610        2.08890       -9.40570
C          7.53180        2.62290       -8.28220
N          8.14470        3.08110       -7.42540
C          7.65170        2.27110      -10.56410
N          8.33840        2.45170      -11.46590
C          4.27060        1.46230       -5.80210
C          4.72500        1.93110       -4.56440
C          3.83350        1.67270       -3.54520
S          3.83740        1.98580       -1.83030
C          2.29640        1.20760       -1.71240
C          1.38510        0.91440       -0.65170
C          1.48770        1.16950        0.72380
C          2.69830        1.78270        1.26610
C          2.90230        3.02940        1.76770
C          4.24290        3.25630        2.15190
C          5.05600        2.18790        1.94570
C          6.51450        2.05750        2.22050
C          6.78570        1.15360        3.42360
S          4.17170        0.85600        1.27500
C          0.42070        0.75750        1.50180
C          0.24210        0.91730        3.00190
C          1.43770        0.31230        3.71460
C          2.39660        1.08380        4.35390
C          3.48420        0.48340        4.96050
C          3.65540       -0.89320        4.92900
C          4.81240       -1.54460        5.62910
C          4.42260       -1.92430        7.05920
C          2.70120       -1.65940        4.27210
C          1.60740       -1.06650        3.67270
C         -0.08480        2.34020        3.42090
C         -0.40840        3.31880        2.49190
C         -0.76070        4.59100        2.90700
C         -0.81110        4.91590        4.25530
C         -1.23470        6.28410        4.70450
C         -2.74420        6.32030        4.95190
C         -0.51330        3.92470        5.18240
C         -0.15980        2.65380        4.77330
C         -1.02280        0.12600        3.21760
C         -1.52630       -0.33160        2.00780
C         -0.65320        0.03330        0.93690
C         -0.74560       -0.24050       -0.43580
C          0.27390        0.25740       -1.22710
C          0.42870        0.14360       -2.73370
C         -0.51970        1.04740       -3.50300
C         -1.27470        2.02270       -2.86710
C         -2.08590        2.87100       -3.60010
C         -2.15150        2.78020       -4.98330
C         -3.07100        3.66770       -5.77090
C         -4.43790        3.00120       -5.94120
C         -1.37410        1.81860       -5.61680
C         -0.56410        0.96790       -4.89030
C          0.36600       -1.31740       -3.13940
C         -0.71580       -1.85860       -3.81830
C         -0.73700       -3.20290       -4.13890
C          0.30540       -4.04460       -3.77720
C          0.29860       -5.49240       -4.17380
C          0.92470       -5.66640       -5.55970
C          1.37740       -3.50100       -3.08190
C          1.40840       -2.15670       -2.76590
C          1.80020        0.74100       -2.91990
C          2.66780        0.99860       -3.97690
S          2.69420        0.68730       -5.66820
C         -1.84100       -1.06070       -0.94780
C         -2.91920       -0.71610       -1.70020
C         -3.78280       -1.80450       -1.95680
C         -3.36380       -2.97300       -1.40510
C         -4.01040       -4.31440       -1.45250
C         -3.20440       -5.30370       -2.29410
S         -1.86960       -2.75600       -0.55350
S         -3.01870       -1.19270        2.13730
C         -2.98240       -0.95420        3.86220
C         -3.82480       -1.34010        4.88860
C         -3.36110       -0.91930        6.13080
S         -1.84040       -0.01730        5.98360
C         -1.84570       -0.22210        4.28100
C         -3.86020       -1.04840        7.43330
C         -4.95640       -1.70530        7.94240
C         -5.90610       -2.58210        7.23030
O         -5.98240       -2.82600        6.04700
C         -6.78760       -3.14390        8.28500
C         -6.42860       -2.61910        9.53710
C         -7.10690       -3.00580       10.68090
C         -8.14340       -3.91870       10.54890
F         -8.80810       -4.30740       11.63980
C         -8.51350       -4.44540        9.31370
F         -9.51830       -5.32140        9.22860
C         -7.82450       -4.05170        8.16470
F         -8.17800       -4.55770        6.98700
C         -5.31380       -1.68880        9.34710
C         -4.76860       -0.91990       10.34380
C         -5.18090       -0.96150       11.69310
N         -5.45980       -0.94500       12.80640
C         -3.74790        0.04440       10.19650
N         -2.93880        0.85970       10.18020
H          5.96690        2.13290       -6.79230
H          1.94600       -0.64120      -10.76320
H          6.28300        1.28160      -12.26120
H          5.66810        2.43370       -4.44610
H          2.12500        3.76800        1.84950
H          4.58850        4.19020        2.55880
H          6.92660        3.05160        2.40590
H          7.01230        1.64010        1.34160
H          7.85600        1.03730        3.57450
H          6.34440        0.17240        3.26260
H          6.35240        1.58530        4.32230
H          2.30360        2.15870        4.37740
H          4.21330        1.10060        5.46490
H          5.11370       -2.44370        5.08760
H          5.66300       -0.86110        5.65840
H          3.58350       -2.61630        7.05220
H          5.25890       -2.39690        7.56870
H          4.12990       -1.03870        7.61870
H          2.81630       -2.73280        4.22690
H          0.87920       -1.68090        3.16170
H         -0.38570        3.09220        1.43560
H         -1.00020        5.34240        2.16770
H         -0.71370        6.54820        5.62680
H         -0.97680        7.02160        3.94180
H         -3.05250        7.31130        5.27630
H         -3.01890        5.60180        5.72080
H         -3.28330        6.06930        4.04090
H         -0.55920        4.14910        6.23800
H          0.06600        1.89860        5.51180
H         -1.23360        2.12580       -1.79230
H         -2.67220        3.61950       -3.08580
H         -2.64180        3.86420       -6.75530
H         -3.19760        4.62190       -5.25560
H         -4.33400        2.05410       -6.46580
H         -4.88800        2.80710       -4.97000
H         -5.10580        3.64270       -6.51110
H         -1.39560        1.73770       -6.69380
H          0.03760        0.23470       -5.40640
H         -1.55090       -1.23450       -4.09680
H         -1.58280       -3.60190       -4.68000
H         -0.72610       -5.86820       -4.19310
H          0.86400       -6.07870       -3.44650
H          0.36780       -5.09690       -6.30070
H          0.92030       -6.71420       -5.85060
H          1.95260       -5.30990       -5.55850
H          2.19770       -4.13740       -2.78200
H          2.25090       -1.75510       -2.21990
H         -3.09910        0.28450       -2.05090
H         -4.69040       -1.71360       -2.52700
H         -4.10550       -4.70510       -0.43590
H         -5.01360       -4.20510       -1.86980
H         -3.15400       -4.96470       -3.32580
H         -2.19080       -5.38740       -1.90780
H         -3.67070       -6.28550       -2.27230
H         -4.73160       -1.90200        4.76390
H         -3.24540       -0.53720        8.16480
H         -6.86670       -2.63580       11.66350
