117

C         -0.10270       -0.83910        8.06940
C         -1.32020       -1.29020        8.52270
C         -2.48390       -1.59940        7.69450
O         -2.61180       -1.44330        6.49210
C         -3.49680       -2.15860        8.61410
C         -4.75970       -2.62900        8.32250
C         -5.53800       -3.12300        9.36370
Cl        -7.11660       -3.71950        9.03940
C         -5.03140       -3.13210       10.66530
Br        -6.08800       -3.80940       12.08030
C         -3.75920       -2.65430       10.95840
C         -2.98320       -2.16170        9.92320
C         -1.63540       -1.59280        9.90250
C         -0.85550       -1.35990       11.00630
C          0.41120       -0.73750       11.00720
N          1.43500       -0.22560       11.10590
C         -1.23890       -1.69330       12.32270
N         -1.49280       -1.94320       13.41380
C          0.31860       -0.49400        6.78480
C          1.63120       -0.04810        6.53600
C          2.67170       -0.02020        7.57420
C          3.16130       -1.23290        8.05230
C          4.13400       -1.26030        9.03210
C          4.61840       -0.07110        9.54820
C          4.12780        1.13350        9.08070
C          3.15500        1.18320        8.09160
C          2.57530        2.50430        7.67420
C          1.27910        2.78000        8.44010
C          1.80880        0.30060        5.20520
S          3.20260        0.86440        4.30330
C          2.23220        0.85900        2.87100
C          2.38190        1.06440        1.49410
C          3.53310        1.28670        0.70370
C          3.41850        1.21230       -0.72460
N          4.58560        1.35180       -1.33250
S          5.72920        1.56720       -0.20760
N          4.77960        1.48540        1.10050
C          2.13710        1.06200       -1.30190
C          1.71360        1.03920       -2.63810
S          2.39350        1.04200       -4.22950
C          0.76760        1.00590       -4.88680
C          0.27470        0.95620       -6.18230
C          1.08620        0.86940       -7.40520
C          1.81640        1.95870       -7.88310
C          1.74230        3.30320       -7.21800
C          0.48640        4.05110       -7.67200
C          2.54920        1.80090       -9.05160
C          2.56940        0.59800       -9.73200
C          1.84320       -0.47820       -9.25250
C          1.10110       -0.33950       -8.09640
C         -1.13400        0.93090       -6.20100
S         -1.82480        0.94660       -4.58050
C         -0.24080        1.00160       -3.90300
C          0.31260        1.00700       -2.62180
N         -0.14490        0.98420       -1.32880
C          0.96130        0.98630       -0.49880
C          1.10290        0.83970        0.90420
N          0.22390        0.45820        1.89600
C          0.90210        0.46750        3.08560
C          0.65240        0.13170        4.41830
S         -0.67720       -0.47750        5.33290
C         -1.06850       -0.18420        1.80170
C         -2.18930        0.69290        2.36050
C         -1.48320        1.47270       -1.06900
C         -1.58760        2.96650       -1.37570
C         -1.84450        0.95510       -7.40150
C         -3.19850        0.94040       -7.64280
C         -4.24810        0.80180       -6.63530
O         -4.12450        0.75740       -5.42360
C         -5.51930        0.71440       -7.38550
C         -6.79780        0.54960       -6.89230
C         -7.83620        0.48720       -7.80780
F         -9.09280        0.32670       -7.37430
C         -7.58420        0.58890       -9.17570
F         -8.60540        0.52150      -10.03730
C         -6.29890        0.75790       -9.67040
C         -5.25490        0.82150       -8.76160
C         -3.81340        0.99800       -8.95110
C         -3.19380        1.22100      -10.15390
C         -1.81820        1.47740      -10.33940
N         -0.71980        1.70990      -10.58310
C         -3.86980        1.25740      -11.39200
N         -4.35980        1.29240      -12.42930
H          0.67960       -0.72670        8.81070
H         -5.13320       -2.61420        7.31090
H         -3.40780       -2.68110       11.97720
H          2.77470       -2.15510        7.64120
H          4.50620       -2.20620        9.39500
H          5.37160       -0.08320       10.32110
H          4.49830        2.05950        9.49540
H          3.29340        3.29690        7.89050
H          2.37300        2.51580        6.60210
H          1.45480        2.71530        9.51150
H          0.51430        2.05180        8.17770
H          0.90400        3.77360        8.20590
H          2.62330        3.88740       -7.48860
H          1.72890        3.19580       -6.13240
H          0.47770        5.05970       -7.26520
H          0.45650        4.11050       -8.75740
H         -0.41110        3.53570       -7.33610
H          3.10660        2.64250       -9.43610
H          3.14430        0.50150      -10.64030
H          1.84860       -1.42050       -9.77900
H          0.52890       -1.17230       -7.71170
H         -1.24640       -0.46840        0.76380
H         -1.02420       -1.10490        2.39390
H         -3.15300        0.24980        2.12640
H         -2.10270        0.76570        3.44080
H         -2.15410        1.70060        1.95170
H         -2.17260        0.91520       -1.70970
H         -1.74600        1.31000       -0.03120
H         -1.37940        3.16220       -2.42390
H         -2.59290        3.31350       -1.15440
H         -0.88030        3.52790       -0.76840
H         -1.19760        0.98790       -8.27030
H         -6.98830        0.47100       -5.83390
H         -6.15830        0.83030      -10.73620
