
  xtb     02022217323D
 energy: -182.953297657396 gnorm: 0.000385498059 xtb: 6.4.1 (unknown)
 91103  0     0  0            999 V2000
    3.7314    4.3204   -7.1644 C   0  0  0  0  0  0  0  0  0  0  0  0
    3.4551    4.1360   -8.4878 C   0  0  0  0  0  0  0  0  0  0  0  0
    4.4037    4.5796   -9.5373 C   0  0  0  0  0  0  0  0  0  0  0  0
    5.5408    4.9595   -9.3830 O   0  0  0  0  0  0  0  0  0  0  0  0
    3.6349    4.5026  -10.8025 C   0  0  0  0  0  0  0  0  0  0  0  0
    4.0131    4.8958  -12.0692 C   0  0  0  0  0  0  0  0  0  0  0  0
    3.1037    4.7428  -13.1107 C   0  0  0  0  0  0  0  0  0  0  0  0
    3.5425    5.2198  -14.7013 Cl  0  0  0  0  0  0  0  0  0  0  0  0
    1.8391    4.2033  -12.8585 C   0  0  0  0  0  0  0  0  0  0  0  0
    0.5981    4.0148  -14.2721 Br  0  0  0  0  0  0  0  0  0  0  0  0
    1.4604    3.7972  -11.5846 C   0  0  0  0  0  0  0  0  0  0  0  0
    2.3670    3.9464  -10.5494 C   0  0  0  0  0  0  0  0  0  0  0  0
    2.2866    3.5821   -9.1370 C   0  0  0  0  0  0  0  0  0  0  0  0
    1.4253    2.6558   -8.6053 C   0  0  0  0  0  0  0  0  0  0  0  0
    0.3526    2.0804   -9.3155 C   0  0  0  0  0  0  0  0  0  0  0  0
   -0.5425    1.5986   -9.8479 N   0  0  0  0  0  0  0  0  0  0  0  0
    1.5892    2.1049   -7.3187 C   0  0  0  0  0  0  0  0  0  0  0  0
    1.7343    1.5842   -6.3047 N   0  0  0  0  0  0  0  0  0  0  0  0
    2.7842    4.3174   -6.1156 C   0  0  0  0  0  0  0  0  0  0  0  0
    1.4639    4.7244   -6.1735 C   0  0  0  0  0  0  0  0  0  0  0  0
    0.7506    4.5280   -4.9956 C   0  0  0  0  0  0  0  0  0  0  0  0
   -0.9228    4.8481   -4.6012 S   0  0  0  0  0  0  0  0  0  0  0  0
   -0.6846    4.0987   -3.0615 C   0  0  0  0  0  0  0  0  0  0  0  0
   -1.4195    3.7658   -1.9112 C   0  0  0  0  0  0  0  0  0  0  0  0
   -2.7235    4.0824   -1.4621 C   0  0  0  0  0  0  0  0  0  0  0  0
   -3.1355    3.6653   -0.1462 C   0  0  0  0  0  0  0  0  0  0  0  0
   -4.3467    4.0995    0.1607 N   0  0  0  0  0  0  0  0  0  0  0  0
   -4.9262    4.9477   -1.0890 S   0  0  0  0  0  0  0  0  0  0  0  0
   -3.6519    4.7987   -2.0747 N   0  0  0  0  0  0  0  0  0  0  0  0
   -2.2937    2.8088    0.6028 C   0  0  0  0  0  0  0  0  0  0  0  0
   -2.4758    2.0774    1.7875 C   0  0  0  0  0  0  0  0  0  0  0  0
   -1.3684    1.2261    1.9210 C   0  0  0  0  0  0  0  0  0  0  0  0
   -0.4873    1.4304    0.8880 N   0  0  0  0  0  0  0  0  0  0  0  0
    0.3925    0.3536    0.4807 C   0  0  0  0  0  0  0  0  0  0  0  0
   -0.4053   -0.8582    0.0019 C   0  0  0  0  0  0  0  0  0  0  0  0
   -1.0287    2.4141    0.0857 C   0  0  0  0  0  0  0  0  0  0  0  0
   -0.5299    3.0389   -1.0750 C   0  0  0  0  0  0  0  0  0  0  0  0
    0.7260    3.0118   -1.6487 N   0  0  0  0  0  0  0  0  0  0  0  0
    0.6265    3.6417   -2.8630 C   0  0  0  0  0  0  0  0  0  0  0  0
    1.4614    3.9082   -3.9502 C   0  0  0  0  0  0  0  0  0  0  0  0
    3.2301    3.6010   -4.4205 Se  0  0  0  0  0  2  0  0  0  0  0  0
    1.9979    2.9406   -0.9608 C   0  0  0  0  0  0  0  0  0  0  0  0
    2.5859    4.3340   -0.7400 C   0  0  0  0  0  0  0  0  0  0  0  0
   -1.4487    0.3805    3.0267 C   0  0  0  0  0  0  0  0  0  0  0  0
   -2.6371    0.6231    3.7491 C   0  0  0  0  0  0  0  0  0  0  0  0
   -3.6407    1.8841    3.0512 S   0  0  0  0  0  0  0  0  0  0  0  0
   -2.8286   -0.1761    4.8583 C   0  0  0  0  0  0  0  0  0  0  0  0
   -1.8219   -1.1208    5.0917 C   0  0  0  0  0  0  0  0  0  0  0  0
   -0.4486   -0.9996    3.7803 Se  0  0  0  0  0  2  0  0  0  0  0  0
   -1.9072   -2.0064    6.1714 C   0  0  0  0  0  0  0  0  0  0  0  0
   -1.0719   -3.0302    6.5596 C   0  0  0  0  0  0  0  0  0  0  0  0
    0.1433   -3.4303    5.8645 C   0  0  0  0  0  0  0  0  0  0  0  0
    0.6420   -2.8987    4.8769 O   0  0  0  0  0  0  0  0  0  0  0  0
    0.6656   -4.6083    6.5673 C   0  0  0  0  0  0  0  0  0  0  0  0
    1.7682   -5.3609    6.2832 C   0  0  0  0  0  0  0  0  0  0  0  0
    2.0667   -6.4759    7.0975 C   0  0  0  0  0  0  0  0  0  0  0  0
    3.1884   -7.2924    6.8479 C   0  0  0  0  0  0  0  0  0  0  0  0
    3.4621   -8.3739    7.6385 C   0  0  0  0  0  0  0  0  0  0  0  0
    2.6073   -8.6631    8.7104 C   0  0  0  0  0  0  0  0  0  0  0  0
    2.8913   -9.7318    9.4761 F   0  0  0  0  0  0  0  0  0  0  0  0
    1.5075   -7.9024    8.9976 C   0  0  0  0  0  0  0  0  0  0  0  0
    1.2104   -6.7854    8.1937 C   0  0  0  0  0  0  0  0  0  0  0  0
    0.0774   -5.9812    8.4660 C   0  0  0  0  0  0  0  0  0  0  0  0
   -0.1929   -4.9053    7.6646 C   0  0  0  0  0  0  0  0  0  0  0  0
   -1.2696   -3.9152    7.6908 C   0  0  0  0  0  0  0  0  0  0  0  0
   -2.2589   -3.8526    8.6383 C   0  0  0  0  0  0  0  0  0  0  0  0
   -3.2870   -2.8889    8.6942 C   0  0  0  0  0  0  0  0  0  0  0  0
   -4.1511   -2.1412    8.8146 N   0  0  0  0  0  0  0  0  0  0  0  0
   -2.3767   -4.7545    9.7167 C   0  0  0  0  0  0  0  0  0  0  0  0
   -2.5309   -5.4535   10.6143 N   0  0  0  0  0  0  0  0  0  0  0  0
    4.7675    4.5281   -6.9133 H   0  0  0  0  0  0  0  0  0  0  0  0
    4.9929    5.3098  -12.2471 H   0  0  0  0  0  0  0  0  0  0  0  0
    0.4753    3.3873  -11.4276 H   0  0  0  0  0  0  0  0  0  0  0  0
    1.0415    5.1906   -7.0476 H   0  0  0  0  0  0  0  0  0  0  0  0
    1.0088    0.0740    1.3442 H   0  0  0  0  0  0  0  0  0  0  0  0
    1.0323    0.6871   -0.3330 H   0  0  0  0  0  0  0  0  0  0  0  0
   -1.0605   -0.5767   -0.8198 H   0  0  0  0  0  0  0  0  0  0  0  0
    0.2780   -1.6288   -0.3429 H   0  0  0  0  0  0  0  0  0  0  0  0
   -1.0095   -1.2705    0.8075 H   0  0  0  0  0  0  0  0  0  0  0  0
    1.8550    2.4720    0.0115 H   0  0  0  0  0  0  0  0  0  0  0  0
    2.6876    2.3386   -1.5656 H   0  0  0  0  0  0  0  0  0  0  0  0
    1.8897    4.9515   -0.1765 H   0  0  0  0  0  0  0  0  0  0  0  0
    2.7986    4.8239   -1.6879 H   0  0  0  0  0  0  0  0  0  0  0  0
    3.5129    4.2518   -0.1796 H   0  0  0  0  0  0  0  0  0  0  0  0
   -3.6893   -0.0987    5.5010 H   0  0  0  0  0  0  0  0  0  0  0  0
   -2.7938   -1.8524    6.7763 H   0  0  0  0  0  0  0  0  0  0  0  0
    2.4024   -5.1111    5.4459 H   0  0  0  0  0  0  0  0  0  0  0  0
    3.8318   -7.0492    6.0157 H   0  0  0  0  0  0  0  0  0  0  0  0
    4.3150   -9.0095    7.4606 H   0  0  0  0  0  0  0  0  0  0  0  0
    0.8718   -8.1551    9.8318 H   0  0  0  0  0  0  0  0  0  0  0  0
   -0.5485   -6.2448    9.3030 H   0  0  0  0  0  0  0  0  0  0  0  0
  1  2  2  0  0  0  0
  2  3  1  0  0  0  0
  3  4  2  0  0  0  0
  3  5  1  0  0  0  0
  5  6  2  0  0  0  0
  6  7  1  0  0  0  0
  7  8  1  0  0  0  0
  7  9  2  0  0  0  0
  9 10  1  0  0  0  0
  9 11  1  0  0  0  0
 11 12  2  0  0  0  0
 12 13  1  0  0  0  0
 13 14  2  0  0  0  0
 14 15  1  0  0  0  0
 15 16  3  0  0  0  0
 14 17  1  0  0  0  0
 17 18  3  0  0  0  0
  1 19  1  0  0  0  0
 19 20  2  0  0  0  0
 20 21  1  0  0  0  0
 21 22  1  0  0  0  0
 22 23  1  0  0  0  0
 23 24  1  0  0  0  0
 24 25  1  0  0  0  0
 25 26  1  0  0  0  0
 26 27  2  0  0  0  0
 27 28  1  0  0  0  0
 28 29  1  0  0  0  0
 26 30  1  0  0  0  0
 30 31  1  0  0  0  0
 31 32  2  0  0  0  0
 32 33  1  0  0  0  0
 33 34  1  0  0  0  0
 34 35  1  0  0  0  0
 33 36  1  0  0  0  0
 36 37  1  0  0  0  0
 37 38  1  0  0  0  0
 38 39  1  0  0  0  0
 39 40  1  0  0  0  0
 40 41  1  0  0  0  0
 38 42  1  0  0  0  0
 42 43  1  0  0  0  0
 32 44  1  0  0  0  0
 44 45  2  0  0  0  0
 45 46  1  0  0  0  0
 45 47  1  0  0  0  0
 47 48  2  0  0  0  0
 48 49  1  0  0  0  0
 48 50  1  0  0  0  0
 50 51  2  0  0  0  0
 51 52  1  0  0  0  0
 52 53  2  0  0  0  0
 52 54  1  0  0  0  0
 54 55  2  0  0  0  0
 55 56  1  0  0  0  0
 56 57  2  0  0  0  0
 57 58  1  0  0  0  0
 58 59  2  0  0  0  0
 59 60  1  0  0  0  0
 59 61  1  0  0  0  0
 61 62  2  0  0  0  0
 62 63  1  0  0  0  0
 63 64  2  0  0  0  0
 64 65  1  0  0  0  0
 65 66  2  0  0  0  0
 66 67  1  0  0  0  0
 67 68  3  0  0  0  0
 66 69  1  0  0  0  0
 69 70  3  0  0  0  0
 13  2  1  0  0  0  0
 41 19  1  0  0  0  0
 49 44  1  0  0  0  0
 65 51  1  0  0  0  0
 12  5  1  0  0  0  0
 40 21  2  0  0  0  0
 64 54  1  0  0  0  0
 39 23  2  0  0  0  0
 62 56  1  0  0  0  0
 37 24  2  0  0  0  0
 29 25  2  0  0  0  0
 36 30  2  0  0  0  0
 46 31  1  0  0  0  0
  1 71  1  0  0  0  0
  6 72  1  0  0  0  0
 11 73  1  0  0  0  0
 20 74  1  0  0  0  0
 34 75  1  0  0  0  0
 34 76  1  0  0  0  0
 35 77  1  0  0  0  0
 35 78  1  0  0  0  0
 35 79  1  0  0  0  0
 42 80  1  0  0  0  0
 42 81  1  0  0  0  0
 43 82  1  0  0  0  0
 43 83  1  0  0  0  0
 43 84  1  0  0  0  0
 47 85  1  0  0  0  0
 50 86  1  0  0  0  0
 55 87  1  0  0  0  0
 57 88  1  0  0  0  0
 58 89  1  0  0  0  0
 61 90  1  0  0  0  0
 63 91  1  0  0  0  0
M  END
