91

C          3.73140        4.32040       -7.16440
C          3.45510        4.13600       -8.48780
C          4.40370        4.57960       -9.53730
O          5.54080        4.95950       -9.38300
C          3.63490        4.50260      -10.80250
C          4.01310        4.89580      -12.06920
C          3.10370        4.74280      -13.11070
Cl         3.54250        5.21980      -14.70130
C          1.83910        4.20330      -12.85850
Br         0.59810        4.01480      -14.27210
C          1.46040        3.79720      -11.58460
C          2.36700        3.94640      -10.54940
C          2.28660        3.58210       -9.13700
C          1.42530        2.65580       -8.60530
C          0.35260        2.08040       -9.31550
N         -0.54250        1.59860       -9.84790
C          1.58920        2.10490       -7.31870
N          1.73430        1.58420       -6.30470
C          2.78420        4.31740       -6.11560
C          1.46390        4.72440       -6.17350
C          0.75060        4.52800       -4.99560
S         -0.92280        4.84810       -4.60120
C         -0.68460        4.09870       -3.06150
C         -1.41950        3.76580       -1.91120
C         -2.72350        4.08240       -1.46210
C         -3.13550        3.66530       -0.14620
N         -4.34670        4.09950        0.16070
S         -4.92620        4.94770       -1.08900
N         -3.65190        4.79870       -2.07470
C         -2.29370        2.80880        0.60280
C         -2.47580        2.07740        1.78750
C         -1.36840        1.22610        1.92100
N         -0.48730        1.43040        0.88800
C          0.39250        0.35360        0.48070
C         -0.40530       -0.85820        0.00190
C         -1.02870        2.41410        0.08570
C         -0.52990        3.03890       -1.07500
N          0.72600        3.01180       -1.64870
C          0.62650        3.64170       -2.86300
C          1.46140        3.90820       -3.95020
Se         3.23010        3.60100       -4.42050
C          1.99790        2.94060       -0.96080
C          2.58590        4.33400       -0.74000
C         -1.44870        0.38050        3.02670
C         -2.63710        0.62310        3.74910
S         -3.64070        1.88410        3.05120
C         -2.82860       -0.17610        4.85830
C         -1.82190       -1.12080        5.09170
Se        -0.44860       -0.99960        3.78030
C         -1.90720       -2.00640        6.17140
C         -1.07190       -3.03020        6.55960
C          0.14330       -3.43030        5.86450
O          0.64200       -2.89870        4.87690
C          0.66560       -4.60830        6.56730
C          1.76820       -5.36090        6.28320
C          2.06670       -6.47590        7.09750
C          3.18840       -7.29240        6.84790
C          3.46210       -8.37390        7.63850
C          2.60730       -8.66310        8.71040
F          2.89130       -9.73180        9.47610
C          1.50750       -7.90240        8.99760
C          1.21040       -6.78540        8.19370
C          0.07740       -5.98120        8.46600
C         -0.19290       -4.90530        7.66460
C         -1.26960       -3.91520        7.69080
C         -2.25890       -3.85260        8.63830
C         -3.28700       -2.88890        8.69420
N         -4.15110       -2.14120        8.81460
C         -2.37670       -4.75450        9.71670
N         -2.53090       -5.45350       10.61430
H          4.76750        4.52810       -6.91330
H          4.99290        5.30980      -12.24710
H          0.47530        3.38730      -11.42760
H          1.04150        5.19060       -7.04760
H          1.00880        0.07400        1.34420
H          1.03230        0.68710       -0.33300
H         -1.06050       -0.57670       -0.81980
H          0.27800       -1.62880       -0.34290
H         -1.00950       -1.27050        0.80750
H          1.85500        2.47200        0.01150
H          2.68760        2.33860       -1.56560
H          1.88970        4.95150       -0.17650
H          2.79860        4.82390       -1.68790
H          3.51290        4.25180       -0.17960
H         -3.68930       -0.09870        5.50100
H         -2.79380       -1.85240        6.77630
H          2.40240       -5.11110        5.44590
H          3.83180       -7.04920        6.01570
H          4.31500       -9.00950        7.46060
H          0.87180       -8.15510        9.83180
H         -0.54850       -6.24480        9.30300
