64

C          2.03190       -3.57880        3.80720
C          3.32340       -3.83470        3.46540
C          3.97270       -5.09180        3.92890
O          3.58310       -5.83540        4.79640
C          5.15450       -5.25180        3.05160
C          6.03160       -6.31360        2.96790
C          7.06260       -6.25040        2.03650
Cl         8.17240       -7.55380        1.90480
C          7.18920       -5.12830        1.21090
Br         8.57780       -5.05590       -0.06820
C          6.31350       -4.05330        1.30230
C          5.29010       -4.11540        2.23200
C          4.25460       -3.15030        2.59120
C          4.32600       -1.79880        2.38660
C          5.32380       -1.17590        1.60850
N          6.10660       -0.63050        0.97160
C          3.46480       -0.87800        3.02060
N          2.81430       -0.10300        3.56210
C          1.09360       -2.71910        3.18960
C         -0.09240       -2.27430        3.75310
C         -0.84130       -1.46700        2.90510
C         -2.19780       -0.88440        3.18420
N         -3.16840       -1.94110        2.94650
C         -4.33410       -1.60170        2.59590
C         -4.72610       -0.20020        2.40910
N         -3.87990        0.73150        2.29780
C         -2.47520        0.38530        2.34630
C         -1.96090        0.26340        0.93390
C         -0.87480       -0.55870        0.64170
C         -0.26070       -1.33360        1.65000
S          1.23590       -2.17780        1.53470
S         -0.44080       -0.48040       -1.01930
C         -1.72610        0.67310       -1.33600
C         -2.43450        0.95160       -0.17510
C         -1.84600        1.11250       -2.67090
C         -2.64650        2.05920       -3.24670
C         -3.57180        3.01530       -2.59130
O         -3.97940        3.02270       -1.45090
C         -3.92160        4.00210       -3.63600
C         -4.69260        5.13950       -3.50370
C         -4.86150        5.91430       -4.64110
F         -5.60050        7.03170       -4.56350
C         -4.29030        5.57860       -5.86070
C         -3.52350        4.43000       -5.98000
C         -3.33820        3.63170       -4.85930
C         -2.60710        2.38270       -4.66720
C         -2.06110        1.62660       -5.66920
C         -1.46020        0.35780       -5.51380
N         -0.98240       -0.68570       -5.48140
C         -2.07240        1.99670       -7.03210
N         -2.04340        2.23920       -8.15340
H          1.64230       -4.18120        4.62270
H          5.91940       -7.17210        3.61090
H          6.43900       -3.20640        0.64630
H         -0.37730       -2.51360        4.76160
H         -2.26640       -0.63700        4.25260
H         -5.05580       -2.38820        2.41710
H         -5.77470        0.06140        2.35750
H         -1.96410        1.24150        2.80940
H         -3.26240        1.63640       -0.14220
H         -1.14770        0.61720       -3.33610
H         -5.13930        5.41250       -2.56110
H         -4.45140        6.22290       -6.71060
H         -3.08190        4.18230       -6.93090
