115

C          4.69910        5.84280        4.33660
C          4.02290        7.01310        4.52950
C          4.34480        7.89110        5.67900
O          5.29890        7.81210        6.41790
C          3.21400        8.84760        5.75640
C          2.95840        9.81140        6.70930
C          1.80660       10.58080        6.58190
Cl         1.45760       11.79130        7.75090
C          0.93940       10.36560        5.50770
Br        -0.63750       11.39700        5.35020
C          1.20180        9.40330        4.54010
C          2.34960        8.64090        4.66570
C          2.91610        7.60170        3.80910
C          2.64260        7.44340        2.47480
C          3.43320        6.65510        1.61300
N          4.08780        6.06890        0.87410
C          1.61190        8.12540        1.79860
N          0.77460        8.64460        1.20970
C          4.28950        4.71490        3.59640
S          2.59080        4.33010        3.34330
C          3.03180        2.93960        2.45200
C          2.34140        1.87510        1.79840
C          3.32930        1.05610        1.20470
C          4.72300        1.59950        1.46670
C          4.40920        2.79050        2.32850
C          5.11870        3.76050        3.01930
C          5.32380        2.03750        0.11030
C          6.57330        2.90200        0.20840
C          5.61780        0.57540        2.18080
C          5.00720        0.07580        3.48520
C          2.96110       -0.03050        0.44710
C          1.60110       -0.30580        0.32730
C          0.93900       -1.33470       -0.44110
C         -0.45100       -1.21840       -0.24750
C         -0.76440       -0.07200        0.69250
C         -1.42410       -0.67180        1.95370
C         -1.75380        0.31360        3.06700
C         -1.59120        1.04770        0.02650
C         -3.01790        0.69240       -0.37160
C          0.62160        0.47020        0.97780
C          0.98280        1.58990        1.69510
C         -1.31030       -2.10930       -0.85100
C         -0.75430       -3.07280       -1.68880
C         -1.38790       -4.06500       -2.49630
C         -0.42960       -4.78100       -3.22020
C          0.95950       -4.29430       -2.88740
C          0.64010       -3.18140       -1.90040
C          1.49430       -2.30250       -1.27490
C          1.72350       -5.46810       -2.23840
C          3.14280       -5.16720       -1.77550
C          1.67450       -3.67820       -4.10590
C          1.98990       -4.65140       -5.23390
C         -0.99950       -5.76260       -3.99880
C         -2.40080       -5.79470       -3.89630
S         -2.99130       -4.57520       -2.77650
C         -3.17010       -6.69960       -4.63380
C         -4.52840       -6.91000       -4.66590
C         -5.51940       -6.21820       -3.83400
O         -5.32060       -5.32240       -3.03630
C         -6.82000       -6.84030       -4.15930
C         -8.08370       -6.59680       -3.65450
F         -8.28440       -5.66490       -2.71710
C         -9.17000       -7.32810       -4.11970
C         -8.97570       -8.29760       -5.08740
C         -7.71480       -8.55950       -5.61050
C         -6.63540       -7.82770       -5.14480
C         -5.21320       -7.87650       -5.49500
C         -4.66980       -8.68500       -6.46100
C         -3.31000       -8.72700       -6.83340
N         -2.22570       -8.82280       -7.20170
C         -5.40750       -9.59590       -7.24590
N         -5.93920      -10.35720       -7.92120
H          5.63980        5.75020        4.87120
H          3.63740        9.96520        7.53300
H          0.50890        9.26350        3.72560
H          6.18940        3.82450        3.08820
H          4.55830        2.59660       -0.43260
H          5.54660        1.13460       -0.46210
H          6.33670        3.86660        0.64840
H          6.96780        3.07680       -0.78980
H          7.34900        2.41970        0.79790
H          6.58460        1.03440        2.39100
H          5.78420       -0.27040        1.51090
H          4.04720       -0.40240        3.30290
H          4.85320        0.89930        4.17910
H          5.66880       -0.64800        3.95490
H          3.69500       -0.64990       -0.04530
H         -2.33780       -1.18170        1.64490
H         -0.74570       -1.43400        2.34730
H         -2.26400       -0.21260        3.87120
H         -2.40850        1.10620        2.71560
H         -0.85040        0.75620        3.47740
H         -1.04630        1.37140       -0.86450
H         -1.61830        1.89550        0.71280
H         -3.58500        0.31070        0.47290
H         -3.51880        1.58730       -0.73520
H         -3.03270       -0.04360       -1.16980
H          0.25990        2.24440        2.15630
H         -2.37800       -2.08400       -0.70440
H          2.56140       -2.33700       -1.42670
H          1.74750       -6.28780       -2.95840
H          1.13760       -5.80680       -1.37970
H          3.14330       -4.44300       -0.96590
H          3.75560       -4.79060       -2.59000
H          3.60020       -6.08250       -1.40590
H          2.59890       -3.21200       -3.76190
H          1.03460       -2.88090       -4.49350
H          2.50130       -4.12170       -6.03470
H          1.07990       -5.08000       -5.64330
H          2.63670       -5.45630       -4.89580
H         -0.47200       -6.45720       -4.62810
H         -2.57110       -7.33390       -5.27620
H        -10.15020       -7.12790       -3.71650
H         -9.82170       -8.86440       -5.44450
H         -7.59690       -9.32230       -6.36150
