
  xtb     01262217223D
 energy: -189.747781618983 gnorm: 0.000344806937 xtb: 6.4.1 (unknown)
 98109  0     0  0            999 V2000
   -3.9657   -2.4887   -6.5646 C   0  0  0  0  0  0  0  0  0  0  0  0
   -5.2321   -2.1960   -7.0159 C   0  0  0  0  0  0  0  0  0  0  0  0
   -6.4160   -2.0058   -6.1756 C   0  0  0  0  0  0  0  0  0  0  0  0
   -6.5159   -2.1674   -4.9736 O   0  0  0  0  0  0  0  0  0  0  0  0
   -7.4955   -1.5745   -7.0888 C   0  0  0  0  0  0  0  0  0  0  0  0
   -8.7926   -1.2235   -6.7813 C   0  0  0  0  0  0  0  0  0  0  0  0
   -9.6307   -0.8205   -7.8155 C   0  0  0  0  0  0  0  0  0  0  0  0
  -11.2518   -0.3662   -7.4720 Cl  0  0  0  0  0  0  0  0  0  0  0  0
   -9.1471   -0.7839   -9.1253 C   0  0  0  0  0  0  0  0  0  0  0  0
  -10.2838   -0.2270  -10.5307 Br  0  0  0  0  0  0  0  0  0  0  0  0
   -7.8401   -1.1433   -9.4340 C   0  0  0  0  0  0  0  0  0  0  0  0
   -7.0039   -1.5425   -8.4051 C   0  0  0  0  0  0  0  0  0  0  0  0
   -5.5992   -1.9534   -8.3949 C   0  0  0  0  0  0  0  0  0  0  0  0
   -4.8056   -2.0692   -9.5083 C   0  0  0  0  0  0  0  0  0  0  0  0
   -5.2466   -1.8070  -10.8226 C   0  0  0  0  0  0  0  0  0  0  0  0
   -5.5404   -1.6076  -11.9142 N   0  0  0  0  0  0  0  0  0  0  0  0
   -3.4526   -2.4655   -9.5195 C   0  0  0  0  0  0  0  0  0  0  0  0
   -2.3506   -2.7767   -9.6177 N   0  0  0  0  0  0  0  0  0  0  0  0
   -3.4700   -2.6187   -5.2643 C   0  0  0  0  0  0  0  0  0  0  0  0
   -4.4075   -2.5353   -3.7695 S   0  0  0  0  0  0  0  0  0  0  0  0
   -2.9545   -2.6312   -2.8613 C   0  0  0  0  0  0  0  0  0  0  0  0
   -2.4945   -2.5658   -1.5489 C   0  0  0  0  0  0  0  0  0  0  0  0
   -3.1911   -2.4394    0.0368 S   0  0  0  0  0  0  0  0  0  0  0  0
   -1.5896   -2.2781    0.6560 C   0  0  0  0  0  0  0  0  0  0  0  0
   -1.0070   -2.0304    1.9027 C   0  0  0  0  0  0  0  0  0  0  0  0
   -1.5719   -2.0627    3.1960 C   0  0  0  0  0  0  0  0  0  0  0  0
   -0.7142   -1.8532    4.3222 C   0  0  0  0  0  0  0  0  0  0  0  0
   -1.3528   -1.9720    5.4757 N   0  0  0  0  0  0  0  0  0  0  0  0
   -2.9043   -2.3151    5.1670 S   0  0  0  0  0  0  0  0  0  0  0  0
   -2.8199   -2.3249    3.5512 N   0  0  0  0  0  0  0  0  0  0  0  0
    0.6242   -1.4720    4.0849 C   0  0  0  0  0  0  0  0  0  0  0  0
    1.5824   -0.9654    4.9701 C   0  0  0  0  0  0  0  0  0  0  0  0
    1.7269   -0.6086    6.6335 S   0  0  0  0  0  0  0  0  0  0  0  0
    3.2276    0.2683    6.2884 C   0  0  0  0  0  0  0  0  0  0  0  0
    3.6515    0.1444    4.9648 C   0  0  0  0  0  0  0  0  0  0  0  0
    5.0440    0.4890    4.5414 C   0  0  0  0  0  0  0  0  0  0  0  0
    5.8257   -0.7815    4.1963 C   0  0  0  0  0  0  0  0  0  0  0  0
    2.6828   -0.5388    4.2120 C   0  0  0  0  0  0  0  0  0  0  0  0
    2.4452   -0.8107    2.8774 N   0  0  0  0  0  0  0  0  0  0  0  0
    1.1761   -1.3719    2.7761 C   0  0  0  0  0  0  0  0  0  0  0  0
    0.3801   -1.8032    1.6771 C   0  0  0  0  0  0  0  0  0  0  0  0
    0.6294   -2.0284    0.3330 N   0  0  0  0  0  0  0  0  0  0  0  0
   -0.5615   -2.3128   -0.3000 C   0  0  0  0  0  0  0  0  0  0  0  0
   -1.0762   -2.5622   -1.5879 C   0  0  0  0  0  0  0  0  0  0  0  0
   -0.6551   -2.6821   -2.9049 N   0  0  0  0  0  0  0  0  0  0  0  0
   -1.7992   -2.7240   -3.6770 C   0  0  0  0  0  0  0  0  0  0  0  0
   -2.0938   -2.7449   -5.0244 C   0  0  0  0  0  0  0  0  0  0  0  0
    0.5707   -3.2692   -3.4010 C   0  0  0  0  0  0  0  0  0  0  0  0
    0.6251   -4.7696   -3.1153 C   0  0  0  0  0  0  0  0  0  0  0  0
    1.8844   -2.1041   -0.3703 C   0  0  0  0  0  0  0  0  0  0  0  0
    2.0661   -0.9078   -1.3099 C   0  0  0  0  0  0  0  0  0  0  0  0
    3.0929    0.0318    1.8931 C   0  0  0  0  0  0  0  0  0  0  0  0
    2.4936    1.4373    1.8897 C   0  0  0  0  0  0  0  0  0  0  0  0
    3.7383    1.0817    7.3163 C   0  0  0  0  0  0  0  0  0  0  0  0
    4.2413    2.3480    7.1342 C   0  0  0  0  0  0  0  0  0  0  0  0
    3.9809    3.1725    5.9388 C   0  0  0  0  0  0  0  0  0  0  0  0
    3.5562    2.8294    4.8529 O   0  0  0  0  0  0  0  0  0  0  0  0
    4.2576    4.5638    6.3599 C   0  0  0  0  0  0  0  0  0  0  0  0
    4.0919    5.7247    5.6342 C   0  0  0  0  0  0  0  0  0  0  0  0
    4.4044    6.9353    6.2428 C   0  0  0  0  0  0  0  0  0  0  0  0
    4.2095    8.4025    5.3691 Cl  0  0  0  0  0  0  0  0  0  0  0  0
    4.8708    6.9518    7.5594 C   0  0  0  0  0  0  0  0  0  0  0  0
    5.2819    8.6009    8.3891 Br  0  0  0  0  0  0  0  0  0  0  0  0
    5.0391    5.7808    8.2900 C   0  0  0  0  0  0  0  0  0  0  0  0
    4.7294    4.5756    7.6838 C   0  0  0  0  0  0  0  0  0  0  0  0
    4.7821    3.1998    8.1703 C   0  0  0  0  0  0  0  0  0  0  0  0
    5.3262    2.7792    9.3551 C   0  0  0  0  0  0  0  0  0  0  0  0
    5.4623    1.4210    9.7129 C   0  0  0  0  0  0  0  0  0  0  0  0
    5.6295    0.3330   10.0382 N   0  0  0  0  0  0  0  0  0  0  0  0
    5.8623    3.6494   10.3260 C   0  0  0  0  0  0  0  0  0  0  0  0
    6.3040    4.3219   11.1443 N   0  0  0  0  0  0  0  0  0  0  0  0
   -3.1966   -2.5835   -7.3214 H   0  0  0  0  0  0  0  0  0  0  0  0
   -9.1445   -1.2564   -5.7624 H   0  0  0  0  0  0  0  0  0  0  0  0
   -7.5101   -1.0977  -10.4592 H   0  0  0  0  0  0  0  0  0  0  0  0
    5.5507    0.9966    5.3621 H   0  0  0  0  0  0  0  0  0  0  0  0
    5.0286    1.1772    3.6944 H   0  0  0  0  0  0  0  0  0  0  0  0
    5.3310   -1.3592    3.4187 H   0  0  0  0  0  0  0  0  0  0  0  0
    6.8249   -0.5219    3.8554 H   0  0  0  0  0  0  0  0  0  0  0  0
    5.9166   -1.4116    5.0780 H   0  0  0  0  0  0  0  0  0  0  0  0
   -1.3841   -2.8084   -5.8299 H   0  0  0  0  0  0  0  0  0  0  0  0
    0.5897   -3.0973   -4.4791 H   0  0  0  0  0  0  0  0  0  0  0  0
    1.4373   -2.7716   -2.9692 H   0  0  0  0  0  0  0  0  0  0  0  0
    1.5474   -5.1909   -3.5056 H   0  0  0  0  0  0  0  0  0  0  0  0
    0.5780   -4.9581   -2.0444 H   0  0  0  0  0  0  0  0  0  0  0  0
   -0.2153   -5.2730   -3.5873 H   0  0  0  0  0  0  0  0  0  0  0  0
    1.8857   -3.0330   -0.9499 H   0  0  0  0  0  0  0  0  0  0  0  0
    2.6960   -2.1893    0.3540 H   0  0  0  0  0  0  0  0  0  0  0  0
    2.0510    0.0337   -0.7674 H   0  0  0  0  0  0  0  0  0  0  0  0
    3.0097   -0.9883   -1.8439 H   0  0  0  0  0  0  0  0  0  0  0  0
    1.2526   -0.8683   -2.0295 H   0  0  0  0  0  0  0  0  0  0  0  0
    4.1527    0.0806    2.1411 H   0  0  0  0  0  0  0  0  0  0  0  0
    3.0044   -0.4074    0.9096 H   0  0  0  0  0  0  0  0  0  0  0  0
    2.9781    2.0418    1.1270 H   0  0  0  0  0  0  0  0  0  0  0  0
    2.6363    1.9169    2.8547 H   0  0  0  0  0  0  0  0  0  0  0  0
    1.4269    1.3931    1.6770 H   0  0  0  0  0  0  0  0  0  0  0  0
    3.5825    0.7301    8.3294 H   0  0  0  0  0  0  0  0  0  0  0  0
    3.7264    5.6932    4.6201 H   0  0  0  0  0  0  0  0  0  0  0  0
    5.3944    5.8364    9.3066 H   0  0  0  0  0  0  0  0  0  0  0  0
  1  2  2  0  0  0  0
  2  3  1  0  0  0  0
  3  4  2  0  0  0  0
  3  5  1  0  0  0  0
  5  6  2  0  0  0  0
  6  7  1  0  0  0  0
  7  8  1  0  0  0  0
  7  9  2  0  0  0  0
  9 10  1  0  0  0  0
  9 11  1  0  0  0  0
 11 12  2  0  0  0  0
 12 13  1  0  0  0  0
 13 14  2  0  0  0  0
 14 15  1  0  0  0  0
 15 16  3  0  0  0  0
 14 17  1  0  0  0  0
 17 18  3  0  0  0  0
  1 19  1  0  0  0  0
 19 20  1  0  0  0  0
 20 21  1  0  0  0  0
 21 22  1  0  0  0  0
 22 23  1  0  0  0  0
 23 24  1  0  0  0  0
 24 25  1  0  0  0  0
 25 26  1  0  0  0  0
 26 27  1  0  0  0  0
 27 28  2  0  0  0  0
 28 29  1  0  0  0  0
 29 30  1  0  0  0  0
 27 31  1  0  0  0  0
 31 32  1  0  0  0  0
 32 33  1  0  0  0  0
 33 34  1  0  0  0  0
 34 35  2  0  0  0  0
 35 36  1  0  0  0  0
 36 37  1  0  0  0  0
 35 38  1  0  0  0  0
 38 39  1  0  0  0  0
 39 40  1  0  0  0  0
 40 41  1  0  0  0  0
 41 42  1  0  0  0  0
 42 43  1  0  0  0  0
 43 44  1  0  0  0  0
 44 45  1  0  0  0  0
 45 46  1  0  0  0  0
 46 47  1  0  0  0  0
 45 48  1  0  0  0  0
 48 49  1  0  0  0  0
 42 50  1  0  0  0  0
 50 51  1  0  0  0  0
 39 52  1  0  0  0  0
 52 53  1  0  0  0  0
 34 54  1  0  0  0  0
 54 55  2  0  0  0  0
 55 56  1  0  0  0  0
 56 57  2  0  0  0  0
 56 58  1  0  0  0  0
 58 59  2  0  0  0  0
 59 60  1  0  0  0  0
 60 61  1  0  0  0  0
 60 62  2  0  0  0  0
 62 63  1  0  0  0  0
 62 64  1  0  0  0  0
 64 65  2  0  0  0  0
 65 66  1  0  0  0  0
 66 67  2  0  0  0  0
 67 68  1  0  0  0  0
 68 69  3  0  0  0  0
 67 70  1  0  0  0  0
 70 71  3  0  0  0  0
 13  2  1  0  0  0  0
 47 19  2  0  0  0  0
 66 55  1  0  0  0  0
 12  5  1  0  0  0  0
 46 21  2  0  0  0  0
 65 58  1  0  0  0  0
 44 22  2  0  0  0  0
 43 24  2  0  0  0  0
 41 25  2  0  0  0  0
 30 26  2  0  0  0  0
 40 31  2  0  0  0  0
 38 32  2  0  0  0  0
  1 72  1  0  0  0  0
  6 73  1  0  0  0  0
 11 74  1  0  0  0  0
 36 75  1  0  0  0  0
 36 76  1  0  0  0  0
 37 77  1  0  0  0  0
 37 78  1  0  0  0  0
 37 79  1  0  0  0  0
 47 80  1  0  0  0  0
 48 81  1  0  0  0  0
 48 82  1  0  0  0  0
 49 83  1  0  0  0  0
 49 84  1  0  0  0  0
 49 85  1  0  0  0  0
 50 86  1  0  0  0  0
 50 87  1  0  0  0  0
 51 88  1  0  0  0  0
 51 89  1  0  0  0  0
 51 90  1  0  0  0  0
 52 91  1  0  0  0  0
 52 92  1  0  0  0  0
 53 93  1  0  0  0  0
 53 94  1  0  0  0  0
 53 95  1  0  0  0  0
 54 96  1  0  0  0  0
 59 97  1  0  0  0  0
 64 98  1  0  0  0  0
M  END
