
  xtb     02022201523D
 energy: -133.299875219147 gnorm: 0.000502961854 xtb: 6.4.1 (unknown)
 64 71  0     0  0            999 V2000
    2.0319   -3.5788    3.8072 C   0  0  0  0  0  0  0  0  0  0  0  0
    3.3234   -3.8347    3.4654 C   0  0  0  0  0  0  0  0  0  0  0  0
    3.9727   -5.0918    3.9289 C   0  0  0  0  0  0  0  0  0  0  0  0
    3.5831   -5.8354    4.7964 O   0  0  0  0  0  0  0  0  0  0  0  0
    5.1545   -5.2518    3.0516 C   0  0  0  0  0  0  0  0  0  0  0  0
    6.0316   -6.3136    2.9679 C   0  0  0  0  0  0  0  0  0  0  0  0
    7.0626   -6.2504    2.0365 C   0  0  0  0  0  0  0  0  0  0  0  0
    8.1724   -7.5538    1.9048 Cl  0  0  0  0  0  0  0  0  0  0  0  0
    7.1892   -5.1283    1.2109 C   0  0  0  0  0  0  0  0  0  0  0  0
    8.5778   -5.0559   -0.0682 Br  0  0  0  0  0  0  0  0  0  0  0  0
    6.3135   -4.0533    1.3023 C   0  0  0  0  0  0  0  0  0  0  0  0
    5.2901   -4.1154    2.2320 C   0  0  0  0  0  0  0  0  0  0  0  0
    4.2546   -3.1503    2.5912 C   0  0  0  0  0  0  0  0  0  0  0  0
    4.3260   -1.7988    2.3866 C   0  0  0  0  0  0  0  0  0  0  0  0
    5.3238   -1.1759    1.6085 C   0  0  0  0  0  0  0  0  0  0  0  0
    6.1066   -0.6305    0.9716 N   0  0  0  0  0  0  0  0  0  0  0  0
    3.4648   -0.8780    3.0206 C   0  0  0  0  0  0  0  0  0  0  0  0
    2.8143   -0.1030    3.5621 N   0  0  0  0  0  0  0  0  0  0  0  0
    1.0936   -2.7191    3.1896 C   0  0  0  0  0  0  0  0  0  0  0  0
   -0.0924   -2.2743    3.7531 C   0  0  0  0  0  0  0  0  0  0  0  0
   -0.8413   -1.4670    2.9051 C   0  0  0  0  0  0  0  0  0  0  0  0
   -2.1978   -0.8844    3.1842 C   0  0  0  0  0  0  0  0  0  0  0  0
   -3.1684   -1.9411    2.9465 N   0  0  0  0  0  0  0  0  0  0  0  0
   -4.3341   -1.6017    2.5959 C   0  0  0  0  0  0  0  0  0  0  0  0
   -4.7261   -0.2002    2.4091 C   0  0  0  0  0  0  0  0  0  0  0  0
   -3.8799    0.7315    2.2978 N   0  0  0  0  0  0  0  0  0  0  0  0
   -2.4752    0.3853    2.3463 C   0  0  0  0  0  0  0  0  0  0  0  0
   -1.9609    0.2634    0.9339 C   0  0  0  0  0  0  0  0  0  0  0  0
   -0.8748   -0.5587    0.6417 C   0  0  0  0  0  0  0  0  0  0  0  0
   -0.2607   -1.3336    1.6500 C   0  0  0  0  0  0  0  0  0  0  0  0
    1.2359   -2.1778    1.5347 S   0  0  0  0  0  0  0  0  0  0  0  0
   -0.4408   -0.4804   -1.0193 S   0  0  0  0  0  0  0  0  0  0  0  0
   -1.7261    0.6731   -1.3360 C   0  0  0  0  0  0  0  0  0  0  0  0
   -2.4345    0.9516   -0.1751 C   0  0  0  0  0  0  0  0  0  0  0  0
   -1.8460    1.1125   -2.6709 C   0  0  0  0  0  0  0  0  0  0  0  0
   -2.6465    2.0592   -3.2467 C   0  0  0  0  0  0  0  0  0  0  0  0
   -3.5718    3.0153   -2.5913 C   0  0  0  0  0  0  0  0  0  0  0  0
   -3.9794    3.0227   -1.4509 O   0  0  0  0  0  0  0  0  0  0  0  0
   -3.9216    4.0021   -3.6360 C   0  0  0  0  0  0  0  0  0  0  0  0
   -4.6926    5.1395   -3.5037 C   0  0  0  0  0  0  0  0  0  0  0  0
   -4.8615    5.9143   -4.6411 C   0  0  0  0  0  0  0  0  0  0  0  0
   -5.6005    7.0317   -4.5635 F   0  0  0  0  0  0  0  0  0  0  0  0
   -4.2903    5.5786   -5.8607 C   0  0  0  0  0  0  0  0  0  0  0  0
   -3.5235    4.4300   -5.9800 C   0  0  0  0  0  0  0  0  0  0  0  0
   -3.3382    3.6317   -4.8593 C   0  0  0  0  0  0  0  0  0  0  0  0
   -2.6071    2.3827   -4.6672 C   0  0  0  0  0  0  0  0  0  0  0  0
   -2.0611    1.6266   -5.6692 C   0  0  0  0  0  0  0  0  0  0  0  0
   -1.4602    0.3578   -5.5138 C   0  0  0  0  0  0  0  0  0  0  0  0
   -0.9824   -0.6857   -5.4814 N   0  0  0  0  0  0  0  0  0  0  0  0
   -2.0724    1.9967   -7.0321 C   0  0  0  0  0  0  0  0  0  0  0  0
   -2.0434    2.2392   -8.1534 N   0  0  0  0  0  0  0  0  0  0  0  0
    1.6423   -4.1812    4.6227 H   0  0  0  0  0  0  0  0  0  0  0  0
    5.9194   -7.1721    3.6109 H   0  0  0  0  0  0  0  0  0  0  0  0
    6.4390   -3.2064    0.6463 H   0  0  0  0  0  0  0  0  0  0  0  0
   -0.3773   -2.5136    4.7616 H   0  0  0  0  0  0  0  0  0  0  0  0
   -2.2664   -0.6370    4.2526 H   0  0  0  0  0  0  0  0  0  0  0  0
   -5.0558   -2.3882    2.4171 H   0  0  0  0  0  0  0  0  0  0  0  0
   -5.7747    0.0614    2.3575 H   0  0  0  0  0  0  0  0  0  0  0  0
   -1.9641    1.2415    2.8094 H   0  0  0  0  0  0  0  0  0  0  0  0
   -3.2624    1.6364   -0.1422 H   0  0  0  0  0  0  0  0  0  0  0  0
   -1.1477    0.6172   -3.3361 H   0  0  0  0  0  0  0  0  0  0  0  0
   -5.1393    5.4125   -2.5611 H   0  0  0  0  0  0  0  0  0  0  0  0
   -4.4514    6.2229   -6.7106 H   0  0  0  0  0  0  0  0  0  0  0  0
   -3.0819    4.1823   -6.9309 H   0  0  0  0  0  0  0  0  0  0  0  0
  1  2  2  0  0  0  0
  2  3  1  0  0  0  0
  3  4  2  0  0  0  0
  3  5  1  0  0  0  0
  5  6  2  0  0  0  0
  6  7  1  0  0  0  0
  7  8  1  0  0  0  0
  7  9  2  0  0  0  0
  9 10  1  0  0  0  0
  9 11  1  0  0  0  0
 11 12  2  0  0  0  0
 12 13  1  0  0  0  0
 13 14  2  0  0  0  0
 14 15  1  0  0  0  0
 15 16  3  0  0  0  0
 14 17  1  0  0  0  0
 17 18  3  0  0  0  0
  1 19  1  0  0  0  0
 19 20  2  0  0  0  0
 20 21  1  0  0  0  0
 21 22  1  0  0  0  0
 22 23  1  0  0  0  0
 23 24  2  0  0  0  0
 24 25  1  0  0  0  0
 25 26  2  0  0  0  0
 26 27  1  0  0  0  0
 27 28  1  0  0  0  0
 28 29  2  0  0  0  0
 29 30  1  0  0  0  0
 30 31  1  0  0  0  0
 29 32  1  0  0  0  0
 32 33  1  0  0  0  0
 33 34  2  0  0  0  0
 33 35  1  0  0  0  0
 35 36  2  0  0  0  0
 36 37  1  0  0  0  0
 37 38  2  0  0  0  0
 37 39  1  0  0  0  0
 39 40  2  0  0  0  0
 40 41  1  0  0  0  0
 41 42  1  0  0  0  0
 41 43  2  0  0  0  0
 43 44  1  0  0  0  0
 44 45  2  0  0  0  0
 45 46  1  0  0  0  0
 46 47  2  0  0  0  0
 47 48  1  0  0  0  0
 48 49  3  0  0  0  0
 47 50  1  0  0  0  0
 50 51  3  0  0  0  0
 13  2  1  0  0  0  0
 31 19  1  0  0  0  0
 46 36  1  0  0  0  0
 12  5  1  0  0  0  0
 30 21  2  0  0  0  0
 45 39  1  0  0  0  0
 27 22  1  0  0  0  0
 34 28  1  0  0  0  0
  1 52  1  0  0  0  0
  6 53  1  0  0  0  0
 11 54  1  0  0  0  0
 20 55  1  0  0  0  0
 22 56  1  0  0  0  0
 24 57  1  0  0  0  0
 25 58  1  0  0  0  0
 27 59  1  0  0  0  0
 34 60  1  0  0  0  0
 35 61  1  0  0  0  0
 40 62  1  0  0  0  0
 43 63  1  0  0  0  0
 44 64  1  0  0  0  0
M  END
