138

C          4.29370       -2.03510       -3.89670
C          4.42320       -2.59820       -5.14050
C          3.36680       -3.20970       -5.97250
O          2.20370       -3.42090       -5.70090
C          4.01410       -3.52960       -7.26420
C          3.44010       -4.08170       -8.39030
C          4.24040       -4.28600       -9.50830
Cl         3.56210       -4.96750      -10.93210
C          5.59170       -3.93280       -9.46640
Br         6.68050       -4.20400      -10.98880
C          6.16870       -3.37920       -8.32990
C          5.37160       -3.17500       -7.21520
C          5.66460       -2.61750       -5.89560
C          6.90680       -2.21310       -5.48050
C          7.24280       -1.69530       -4.21110
N          7.61940       -1.26980       -3.21280
C          8.06500       -2.27100       -6.28590
N          9.04500       -2.28830       -6.88320
C          3.18110       -1.89210       -3.05300
O          3.41430       -1.15020       -1.91310
C          2.25570       -1.07800       -1.27490
C          1.74030       -0.42150       -0.11850
C          0.34910       -0.70860       -0.09270
C         -0.04060       -1.69180       -1.18910
C         -1.23520       -1.17920       -1.96470
C         -1.07780       -0.42630       -3.11880
C         -2.18380        0.05600       -3.79510
C         -3.46850       -0.18890       -3.33000
C         -4.67010        0.29190       -4.09080
C         -5.14480       -0.78340       -5.07050
C         -3.61910       -0.93540       -2.16820
C         -2.51870       -1.42520       -1.49250
C         -0.30060       -3.09420       -0.65170
C         -0.07130       -3.44370        0.67010
C         -0.28130       -4.74440        1.09420
C         -0.71760       -5.72350        0.21330
C         -0.89290       -7.14380        0.66700
C          0.41030       -7.92530        0.48650
C         -0.93820       -5.36750       -1.11200
C         -0.73120       -4.07170       -1.54130
C          1.24930       -1.76560       -1.95520
C          1.83890       -2.30040       -3.08950
C         -0.47440       -0.08900        0.81760
C          0.12620        0.77160        1.73420
C         -0.42620        1.62610        2.73280
C          0.57570        2.32260        3.41360
C          1.93130        1.89860        2.92110
C          1.53120        0.96790        1.78170
C          2.34730        0.39490        0.83490
C          2.79170        3.02270        2.37940
C          4.17090        2.87110        2.30840
C          4.95970        3.87530        1.78080
C          4.39470        5.05340        1.30910
C          5.25280        6.12420        0.70050
C          5.45720        5.85920       -0.79260
C          3.01480        5.19340        1.37000
C          2.22030        4.19050        1.89480
C          2.62030        1.17480        4.06850
C          2.73140       -0.20590        4.12110
C          3.33540       -0.81660        5.20650
C          3.83510       -0.06860        6.26280
C          4.44720       -0.73770        7.45910
C          3.38050       -1.00770        8.52250
C          3.70980        1.31460        6.20920
C          3.10920        1.92940        5.12870
C         -0.08000        3.13780        4.32180
C         -1.45370        2.91580        4.11100
O         -1.63380        1.97550        3.14360
C         -2.51020        3.58840        4.75050
C         -3.84340        3.61930        4.43910
C         -4.49000        3.04930        3.22960
O         -4.02660        2.30730        2.39370
C         -5.85740        3.61590        3.21550
C         -6.82300        3.46340        2.26360
C         -8.06020        4.12440        2.42920
C         -9.08690        4.01250        1.47170
C        -10.27020        4.67190        1.65180
F        -11.24470        4.56750        0.73710
C        -10.47940        5.46780        2.79570
F        -11.64980        6.10310        2.94510
C         -9.50280        5.59450        3.74310
C         -8.26990        4.92930        3.58620
C         -7.25130        5.06210        4.55740
C         -6.05800        4.41360        4.37410
C         -4.83720        4.37890        5.17470
C         -4.69730        4.93300        6.42150
C         -5.71700        5.64750        7.08460
N         -6.50300        6.24060        7.67500
C         -3.54700        4.85180        7.23380
N         -2.65790        4.82340        7.96070
H          5.17890       -1.57890       -3.47000
H          2.39440       -4.34540       -8.40020
H          7.21490       -3.12080       -8.34520
H         -0.08740       -0.21920       -3.49740
H         -2.04440        0.63410       -4.69740
H         -5.47840        0.52620       -3.39520
H         -4.42100        1.19920       -4.64440
H         -6.01840       -0.43980       -5.61930
H         -4.35740       -1.01980       -5.78260
H         -5.40590       -1.69380       -4.53550
H         -4.61040       -1.13560       -1.78760
H         -2.65680       -2.01490       -0.59760
H          0.26900       -2.70240        1.37810
H         -0.10260       -4.99950        2.12910
H         -1.68290       -7.62370        0.08610
H         -1.18150       -7.16420        1.71980
H          1.20860       -7.46940        1.06810
H          0.28540       -8.95440        0.81460
H          0.70850       -7.92740       -0.55950
H         -1.27550       -6.11480       -1.81560
H         -0.90880       -3.80970       -2.57380
H          1.39710       -2.88910       -3.86590
H         -1.54230       -0.23820        0.82350
H          3.41080        0.57390        0.81400
H          4.63120        1.96720        2.68050
H          6.03130        3.74370        1.73840
H          4.77880        7.09880        0.83190
H          6.22470        6.14640        1.19740
H          4.49930        5.84020       -1.30790
H          5.94540        4.89910       -0.94350
H          6.07510        6.63660       -1.23540
H          2.55420        6.10000        1.00410
H          1.14820        4.32090        1.92950
H          2.35120       -0.81310        3.31280
H          3.42020       -1.89370        5.22880
H          5.22410       -0.09880        7.88350
H          4.90580       -1.68250        7.16110
H          2.60110       -1.65190        8.12160
H          2.92120       -0.07550        8.84360
H          3.82220       -1.49410        9.38890
H          4.08880        1.91610        7.02270
H          3.02580        3.00590        5.09770
H          0.33210        3.82680        5.03080
H         -2.17360        4.20290        5.57530
H         -6.64140        2.85160        1.39300
H         -8.94160        3.40750        0.59040
H         -9.67960        6.20750        4.61300
H         -7.43960        5.68370        5.41750
