142

C         -2.05600        5.14000        4.04670
C         -1.38960        6.34120        4.14120
C         -0.05560        6.62480        3.61090
O          0.72250        5.85380        3.07850
C          0.17680        8.06580        3.84700
C          1.27140        8.82850        3.49960
C          1.26040       10.18260        3.81570
Cl         2.60410       11.16800        3.39470
C          0.15660       10.73270        4.47060
Br         0.13860       12.57610        4.89510
C         -0.94510        9.96140        4.82280
C         -0.93600        8.61310        4.50780
C         -1.92260        7.55400        4.72580
C         -3.11890        7.71820        5.37660
C         -3.56050        8.94400        5.91770
N         -3.97710        9.90930        6.37870
C         -4.07750        6.71090        5.61270
N         -4.90920        5.95470        5.85070
C         -1.67920        3.93190        3.45640
S         -0.13440        3.56830        2.69340
C         -0.71470        2.02330        2.25950
C         -0.23640        0.92760        1.48240
C         -1.28850       -0.01520        1.38910
C         -2.47070        0.40620        2.24530
C         -2.59640       -0.41510        3.52020
C         -1.58630       -1.25990        3.95510
C         -1.71290       -1.94290        5.15180
C         -2.84000       -1.79140        5.94680
C         -2.99070       -2.56160        7.22660
C         -3.70380       -3.89090        6.97060
C         -3.84670       -0.93970        5.50790
C         -3.72650       -0.25680        4.31390
C         -3.73890        0.36290        1.42030
C         -4.16200        1.46640        0.69370
C         -5.29860        1.39470       -0.09120
C         -6.03500        0.22120       -0.17660
C         -7.24390        0.12900       -1.06190
C         -6.85500       -0.40490       -2.44210
C         -5.59800       -0.88540        0.54050
C         -4.46490       -0.81850        1.32770
C         -2.03100        1.78460        2.67200
C         -2.56600        2.84440        3.36440
C         -1.18760       -1.10060        0.55130
C          0.00340       -1.24710       -0.15600
C          0.37530       -2.16980       -1.17920
C          1.65990       -1.91160       -1.64010
C          2.29160       -0.81540       -0.81030
C          1.09920       -0.36950        0.02900
C          0.98400        0.73590        0.83430
C          3.33540       -1.49250        0.07590
C          2.91810       -2.28450        1.14030
C          3.83420       -2.96200        1.92080
C          5.19600       -2.87900        1.65980
C          6.19190       -3.58530        2.53270
C          6.59250       -2.69810        3.71310
C          5.60960       -2.09180        0.59510
C          4.69500       -1.41230       -0.19060
C          2.81850        0.36640       -1.59060
C          3.63670        1.30470       -0.96920
C          4.08620        2.41350       -1.65920
C          3.72970        2.62310       -2.98560
C          4.19010        3.85130       -3.71490
C          3.24370        5.02110       -3.43760
C          2.89700        1.69620       -3.59650
C          2.44210        0.58490       -2.90910
C          1.98290       -2.74360       -2.71520
C          0.90360       -3.60610       -3.05420
S         -0.47570       -3.41880       -2.02210
C          1.28020       -4.31770       -4.18860
S          0.67730       -5.46830       -5.31580
C          2.18200       -5.35160       -6.23360
C          3.09560       -4.46210       -5.65230
C          2.59260       -3.87320       -4.51040
N          3.00070       -2.91690       -3.61490
C          4.30930       -2.31580       -3.60100
C          5.34210       -3.24580       -2.96920
C          2.47680       -6.00860       -7.43240
C          1.72370       -6.85980       -8.20570
C          0.36180       -7.32490       -7.89380
O         -0.30280       -7.06250       -6.90940
C         -0.02280       -8.17890       -9.02390
C          1.05420       -8.23400       -9.96640
C          0.77780       -9.00560      -11.05070
S         -0.80720       -9.68510      -10.94650
C         -1.10450       -8.91090       -9.40560
Cl        -2.57570       -9.11180       -8.58840
C          2.15110       -7.42170       -9.47140
C          3.34150       -7.25100      -10.13440
C          4.43140       -6.47350       -9.70220
N          5.35750       -5.85720       -9.41230
C          3.58250       -7.87380      -11.37570
N          3.79920       -8.37050      -12.38770
H         -3.05670        5.11170        4.46070
H          2.11320        8.38410        2.99270
H         -1.77570       10.42940        5.32580
H         -0.69350       -1.38810        3.36050
H         -0.91710       -2.59900        5.47480
H         -2.00750       -2.75790        7.65880
H         -3.56890       -1.97610        7.94410
H         -4.69200       -3.71550        6.55150
H         -3.13610       -4.49540        6.26670
H         -3.81360       -4.44830        7.89790
H         -4.73190       -0.80460        6.11250
H         -4.51910        0.40070        3.98800
H         -3.60290        2.38980        0.74180
H         -5.61840        2.26640       -0.64430
H         -7.69960        1.11490       -1.17190
H         -7.98070       -0.54020       -0.61280
H         -7.73020       -0.47370       -3.08380
H         -6.40970       -1.39340       -2.35440
H         -6.12970        0.25540       -2.91240
H         -6.15430       -1.81020        0.48460
H         -4.14750       -1.68750        1.88610
H         -3.55820        2.88590        3.77690
H         -1.99790       -1.80090        0.42060
H          1.77970        1.45420        0.94960
H          1.86510       -2.37720        1.36180
H          3.48480       -3.57060        2.74250
H          7.08200       -3.83550        1.95210
H          5.75850       -4.51310        2.91150
H          7.04120       -1.77360        3.35660
H          7.31150       -3.21130        4.34710
H          5.71940       -2.44610        4.31080
H          6.66310       -2.01220        0.36770
H          5.05740       -0.81110       -1.01070
H          3.93580        1.16000        0.05870
H          4.72570        3.12720       -1.16000
H          5.19720        4.11930       -3.38840
H          4.21890        3.65710       -4.78880
H          3.20870        5.23590       -2.37200
H          3.57860        5.91310       -3.96170
H          2.23660        4.77960       -3.77020
H          2.59750        1.84320       -4.62430
H          1.78630       -0.11490       -3.40660
H          4.06170       -4.27410       -6.08560
H          4.59080       -2.09070       -4.63430
H          4.24540       -1.37730       -3.04800
H          6.31970       -2.77230       -2.97500
H          5.40230       -4.17770       -3.52630
H          5.06880       -3.47040       -1.94080
H          3.46550       -5.77410       -7.80940
H          1.38660       -9.22620      -11.90470
