
  xtb     02012223303D
 energy: -186.001726376530 gnorm: 0.000455365897 xtb: 6.4.1 (unknown)
 97108  0     0  0            999 V2000
   -2.0809    5.0539   -5.0994 C   0  0  0  0  0  0  0  0  0  0  0  0
   -3.2411    5.5804   -4.5761 C   0  0  0  0  0  0  0  0  0  0  0  0
   -3.9874    5.0600   -3.4321 C   0  0  0  0  0  0  0  0  0  0  0  0
   -3.7266    4.0897   -2.7419 O   0  0  0  0  0  0  0  0  0  0  0  0
   -5.1555    5.9503   -3.2689 C   0  0  0  0  0  0  0  0  0  0  0  0
   -6.1665    5.8810   -2.3341 C   0  0  0  0  0  0  0  0  0  0  0  0
   -7.1754    6.8368   -2.3801 C   0  0  0  0  0  0  0  0  0  0  0  0
   -8.4534    6.7839   -1.2323 Cl  0  0  0  0  0  0  0  0  0  0  0  0
   -7.1439    7.8322   -3.3592 C   0  0  0  0  0  0  0  0  0  0  0  0
   -8.5183    9.1302   -3.4243 Br  0  0  0  0  0  0  0  0  0  0  0  0
   -6.1230    7.9009   -4.3005 C   0  0  0  0  0  0  0  0  0  0  0  0
   -5.1172    6.9505   -4.2555 C   0  0  0  0  0  0  0  0  0  0  0  0
   -3.9294    6.7481   -5.0862 C   0  0  0  0  0  0  0  0  0  0  0  0
   -3.5667    7.5427   -6.1443 C   0  0  0  0  0  0  0  0  0  0  0  0
   -2.4291    7.3668   -6.9590 C   0  0  0  0  0  0  0  0  0  0  0  0
   -1.5277    7.2953   -7.6683 N   0  0  0  0  0  0  0  0  0  0  0  0
   -4.2981    8.6717   -6.5701 C   0  0  0  0  0  0  0  0  0  0  0  0
   -4.8449    9.6002   -6.9656 N   0  0  0  0  0  0  0  0  0  0  0  0
   -1.3179    3.9515   -4.7145 C   0  0  0  0  0  0  0  0  0  0  0  0
   -0.1414    3.5641   -5.3871 C   0  0  0  0  0  0  0  0  0  0  0  0
    0.4780    4.2769   -6.5438 C   0  0  0  0  0  0  0  0  0  0  0  0
    1.3438    5.4445   -6.0614 C   0  0  0  0  0  0  0  0  0  0  0  0
    0.4279    2.4436   -4.8023 C   0  0  0  0  0  0  0  0  0  0  0  0
    1.8611    1.5062   -5.1862 S   0  0  0  0  0  0  0  0  0  0  0  0
    1.4984    0.4632   -3.8555 C   0  0  0  0  0  0  0  0  0  0  0  0
    2.0065   -0.6884   -3.2387 C   0  0  0  0  0  0  0  0  0  0  0  0
    3.0685   -1.5527   -3.5886 C   0  0  0  0  0  0  0  0  0  0  0  0
    3.2914   -2.7330   -2.8033 C   0  0  0  0  0  0  0  0  0  0  0  0
    4.2752   -3.4785   -3.2805 N   0  0  0  0  0  0  0  0  0  0  0  0
    4.8746   -2.7566   -4.5989 S   0  0  0  0  0  0  0  0  0  0  0  0
    3.9008   -1.4644   -4.6138 N   0  0  0  0  0  0  0  0  0  0  0  0
    2.5348   -2.9227   -1.6245 C   0  0  0  0  0  0  0  0  0  0  0  0
    2.6688   -3.8437   -0.5765 C   0  0  0  0  0  0  0  0  0  0  0  0
    3.6455   -5.2052   -0.1581 S   0  0  0  0  0  0  0  0  0  0  0  0
    2.8743   -5.2428    1.4099 C   0  0  0  0  0  0  0  0  0  0  0  0
    3.0494   -6.0695    2.5227 C   0  0  0  0  0  0  0  0  0  0  0  0
    4.0728   -7.1505    2.6029 C   0  0  0  0  0  0  0  0  0  0  0  0
    5.3098   -6.6600    3.3597 C   0  0  0  0  0  0  0  0  0  0  0  0
    2.2312   -5.6802    3.5776 C   0  0  0  0  0  0  0  0  0  0  0  0
    1.1985   -4.3174    3.1460 S   0  0  0  0  0  0  0  0  0  0  0  0
    1.9027   -4.2450    1.5743 C   0  0  0  0  0  0  0  0  0  0  0  0
    1.7789   -3.4497    0.4330 C   0  0  0  0  0  0  0  0  0  0  0  0
    1.0820   -2.3403    0.0328 N   0  0  0  0  0  0  0  0  0  0  0  0
    1.5158   -2.0069   -1.2365 C   0  0  0  0  0  0  0  0  0  0  0  0
    1.1573   -0.9642   -2.1267 C   0  0  0  0  0  0  0  0  0  0  0  0
    0.1303   -0.0390   -2.1108 N   0  0  0  0  0  0  0  0  0  0  0  0
    0.3422    0.8278   -3.1525 C   0  0  0  0  0  0  0  0  0  0  0  0
   -0.2833    1.9527   -3.6911 C   0  0  0  0  0  0  0  0  0  0  0  0
   -1.6889    2.8870   -3.3540 S   0  0  0  0  0  0  0  0  0  0  0  0
   -1.2157   -0.1800   -1.5971 C   0  0  0  0  0  0  0  0  0  0  0  0
   -2.1468   -0.7689   -2.6566 C   0  0  0  0  0  0  0  0  0  0  0  0
    0.3778   -1.5353    1.0078 C   0  0  0  0  0  0  0  0  0  0  0  0
   -0.9648   -2.1495    1.4034 C   0  0  0  0  0  0  0  0  0  0  0  0
    2.1260   -6.3132    4.8326 C   0  0  0  0  0  0  0  0  0  0  0  0
    1.6006   -5.8308    5.9944 C   0  0  0  0  0  0  0  0  0  0  0  0
    1.1327   -6.7758    7.0423 C   0  0  0  0  0  0  0  0  0  0  0  0
    1.3736   -7.9586    7.1042 O   0  0  0  0  0  0  0  0  0  0  0  0
    0.2793   -5.9599    7.9342 C   0  0  0  0  0  0  0  0  0  0  0  0
   -0.5130   -6.3428    9.0046 C   0  0  0  0  0  0  0  0  0  0  0  0
   -0.5893   -7.9818    9.5052 Cl  0  0  0  0  0  0  0  0  0  0  0  0
   -1.2530   -5.3693    9.6739 C   0  0  0  0  0  0  0  0  0  0  0  0
   -1.1953   -4.0472    9.2701 C   0  0  0  0  0  0  0  0  0  0  0  0
   -0.3988   -3.6462    8.2036 C   0  0  0  0  0  0  0  0  0  0  0  0
    0.3399   -4.6082    7.5391 C   0  0  0  0  0  0  0  0  0  0  0  0
    1.2823   -4.4919    6.4271 C   0  0  0  0  0  0  0  0  0  0  0  0
    1.9476   -3.3490    6.0646 C   0  0  0  0  0  0  0  0  0  0  0  0
    1.6394   -2.0635    6.5490 C   0  0  0  0  0  0  0  0  0  0  0  0
    1.4075   -0.9887    6.8797 N   0  0  0  0  0  0  0  0  0  0  0  0
    3.0779   -3.3606    5.2206 C   0  0  0  0  0  0  0  0  0  0  0  0
    4.0329   -3.3486    4.5833 N   0  0  0  0  0  0  0  0  0  0  0  0
   -1.6777    5.5728   -5.9580 H   0  0  0  0  0  0  0  0  0  0  0  0
   -6.1732    5.1036   -1.5867 H   0  0  0  0  0  0  0  0  0  0  0  0
   -6.1398    8.6866   -5.0381 H   0  0  0  0  0  0  0  0  0  0  0  0
    1.1075    3.5671   -7.0840 H   0  0  0  0  0  0  0  0  0  0  0  0
   -0.2830    4.6505   -7.2302 H   0  0  0  0  0  0  0  0  0  0  0  0
    2.1363    5.0840   -5.4100 H   0  0  0  0  0  0  0  0  0  0  0  0
    0.7450    6.1682   -5.5137 H   0  0  0  0  0  0  0  0  0  0  0  0
    1.7920    5.9452   -6.9144 H   0  0  0  0  0  0  0  0  0  0  0  0
    3.6580   -8.0236    3.1111 H   0  0  0  0  0  0  0  0  0  0  0  0
    4.3560   -7.4389    1.5889 H   0  0  0  0  0  0  0  0  0  0  0  0
    5.0463   -6.3718    4.3744 H   0  0  0  0  0  0  0  0  0  0  0  0
    5.7381   -5.7945    2.8609 H   0  0  0  0  0  0  0  0  0  0  0  0
    6.0581   -7.4469    3.3999 H   0  0  0  0  0  0  0  0  0  0  0  0
   -1.2158   -0.8306   -0.7314 H   0  0  0  0  0  0  0  0  0  0  0  0
   -1.5698    0.8132   -1.3058 H   0  0  0  0  0  0  0  0  0  0  0  0
   -1.7843   -1.7427   -2.9803 H   0  0  0  0  0  0  0  0  0  0  0  0
   -3.1431   -0.8856   -2.2399 H   0  0  0  0  0  0  0  0  0  0  0  0
   -2.2116   -0.1152   -3.5219 H   0  0  0  0  0  0  0  0  0  0  0  0
    0.2639   -0.5244    0.6150 H   0  0  0  0  0  0  0  0  0  0  0  0
    1.0077   -1.4705    1.9027 H   0  0  0  0  0  0  0  0  0  0  0  0
   -0.8074   -3.0666    1.9644 H   0  0  0  0  0  0  0  0  0  0  0  0
   -1.5136   -1.4541    2.0318 H   0  0  0  0  0  0  0  0  0  0  0  0
   -1.5702   -2.3922    0.5328 H   0  0  0  0  0  0  0  0  0  0  0  0
    2.4255   -7.3569    4.8621 H   0  0  0  0  0  0  0  0  0  0  0  0
   -1.8710   -5.6592   10.5086 H   0  0  0  0  0  0  0  0  0  0  0  0
   -1.7810   -3.3094    9.7969 H   0  0  0  0  0  0  0  0  0  0  0  0
   -0.3723   -2.6113    7.9035 H   0  0  0  0  0  0  0  0  0  0  0  0
  1  2  2  0  0  0  0
  2  3  1  0  0  0  0
  3  4  2  0  0  0  0
  3  5  1  0  0  0  0
  5  6  2  0  0  0  0
  6  7  1  0  0  0  0
  7  8  1  0  0  0  0
  7  9  2  0  0  0  0
  9 10  1  0  0  0  0
  9 11  1  0  0  0  0
 11 12  2  0  0  0  0
 12 13  1  0  0  0  0
 13 14  2  0  0  0  0
 14 15  1  0  0  0  0
 15 16  3  0  0  0  0
 14 17  1  0  0  0  0
 17 18  3  0  0  0  0
  1 19  1  0  0  0  0
 19 20  2  0  0  0  0
 20 21  1  0  0  0  0
 21 22  1  0  0  0  0
 20 23  1  0  0  0  0
 23 24  1  0  0  0  0
 24 25  1  0  0  0  0
 25 26  1  0  0  0  0
 26 27  1  0  0  0  0
 27 28  1  0  0  0  0
 28 29  2  0  0  0  0
 29 30  1  0  0  0  0
 30 31  1  0  0  0  0
 28 32  1  0  0  0  0
 32 33  1  0  0  0  0
 33 34  1  0  0  0  0
 34 35  1  0  0  0  0
 35 36  1  0  0  0  0
 36 37  1  0  0  0  0
 37 38  1  0  0  0  0
 36 39  2  0  0  0  0
 39 40  1  0  0  0  0
 40 41  1  0  0  0  0
 41 42  1  0  0  0  0
 42 43  1  0  0  0  0
 43 44  1  0  0  0  0
 44 45  1  0  0  0  0
 45 46  1  0  0  0  0
 46 47  1  0  0  0  0
 47 48  1  0  0  0  0
 48 49  1  0  0  0  0
 46 50  1  0  0  0  0
 50 51  1  0  0  0  0
 43 52  1  0  0  0  0
 52 53  1  0  0  0  0
 39 54  1  0  0  0  0
 54 55  2  0  0  0  0
 55 56  1  0  0  0  0
 56 57  2  0  0  0  0
 56 58  1  0  0  0  0
 58 59  2  0  0  0  0
 59 60  1  0  0  0  0
 59 61  1  0  0  0  0
 61 62  2  0  0  0  0
 62 63  1  0  0  0  0
 63 64  2  0  0  0  0
 64 65  1  0  0  0  0
 65 66  2  0  0  0  0
 66 67  1  0  0  0  0
 67 68  3  0  0  0  0
 66 69  1  0  0  0  0
 69 70  3  0  0  0  0
 13  2  1  0  0  0  0
 49 19  1  0  0  0  0
 65 55  1  0  0  0  0
 12  5  1  0  0  0  0
 48 23  2  0  0  0  0
 64 58  1  0  0  0  0
 47 25  2  0  0  0  0
 45 26  2  0  0  0  0
 31 27  2  0  0  0  0
 44 32  2  0  0  0  0
 42 33  2  0  0  0  0
 41 35  2  0  0  0  0
  1 71  1  0  0  0  0
  6 72  1  0  0  0  0
 11 73  1  0  0  0  0
 21 74  1  0  0  0  0
 21 75  1  0  0  0  0
 22 76  1  0  0  0  0
 22 77  1  0  0  0  0
 22 78  1  0  0  0  0
 37 79  1  0  0  0  0
 37 80  1  0  0  0  0
 38 81  1  0  0  0  0
 38 82  1  0  0  0  0
 38 83  1  0  0  0  0
 50 84  1  0  0  0  0
 50 85  1  0  0  0  0
 51 86  1  0  0  0  0
 51 87  1  0  0  0  0
 51 88  1  0  0  0  0
 52 89  1  0  0  0  0
 52 90  1  0  0  0  0
 53 91  1  0  0  0  0
 53 92  1  0  0  0  0
 53 93  1  0  0  0  0
 54 94  1  0  0  0  0
 61 95  1  0  0  0  0
 62 96  1  0  0  0  0
 63 97  1  0  0  0  0
M  END
