97

C         -4.60980        5.21510       -3.76640
C         -3.70250        6.13020       -4.25020
C         -2.25000        6.07290       -4.09230
O         -1.59010        5.22760       -3.51330
C         -1.71760        7.26220       -4.78810
C         -0.40520        7.66070       -4.92850
C         -0.14150        8.82930       -5.63460
Cl         1.48070        9.35890       -5.83220
C         -1.19780        9.56450       -6.17760
Br        -0.83960       11.15500       -7.13650
C         -2.52030        9.16080       -6.03530
C         -2.78440        7.99660       -5.33380
C         -4.03870        7.31420       -5.01450
C         -5.28550        7.74520       -5.39040
C         -6.50610        7.10500       -5.09230
N         -7.54110        6.64920       -4.88950
C         -5.52160        8.91390       -6.14550
N         -5.78120        9.84820       -6.75940
C         -4.42790        4.04230       -3.03170
C         -5.50010        3.22620       -2.62000
C         -6.94910        3.50960       -2.84360
C         -7.48330        4.47810       -1.78430
C         -5.04990        2.12350       -1.90990
S         -5.88680        0.77600       -1.16070
C         -4.35760        0.13960       -0.66430
C         -3.84470       -0.95280        0.05180
C         -4.45020       -1.98540        0.80600
C         -3.61840       -2.87730        1.57030
N         -4.32680       -3.73730        2.28390
S         -5.89830       -3.46050        2.01680
N         -5.73900       -2.22920        0.97990
C         -2.21260       -2.79870        1.43140
C         -1.15510       -3.58430        1.91690
S         -0.89960       -4.89970        3.00660
C          0.80950       -4.83850        2.64410
C          1.89740       -5.57960        3.10820
C          1.76720       -6.70570        4.07910
C          1.46270       -8.01320        3.34210
C          3.09190       -5.13510        2.54750
S          2.83580       -3.81030        1.40690
C          1.14140       -3.84270        1.71290
C          0.01990       -3.12390        1.30070
N         -0.26660       -2.07010        0.46910
C         -1.62440       -1.83510        0.56930
C         -2.42950       -0.81490        0.02070
N         -2.09280        0.35590       -0.62700
C         -3.26440        0.92900       -1.05540
C         -3.65130        2.06620       -1.76580
S         -2.86450        3.39950       -2.51840
C         -0.92180        1.17700       -0.38350
C         -1.23030        2.29910        0.60660
C          0.57710       -1.77800       -0.67310
C          0.74190       -3.00600       -1.56790
C          4.36770       -5.69800        2.74230
C          5.59490       -5.17200        2.45380
C          6.75420       -6.07420        2.25480
O          6.81900       -7.25250        2.51990
C          7.78660       -5.23140        1.60550
C          9.01860       -5.60080        1.10770
C          9.81140       -4.62660        0.50980
Cl        11.35180       -5.05210       -0.12230
C          9.35200       -3.30970        0.42480
Br        10.42200       -1.99230       -0.40910
C          8.11640       -2.93340        0.93760
C          7.32910       -3.90270        1.53320
C          6.02800       -3.81890        2.19300
C          5.48090       -2.67840        2.72270
C          4.41000       -2.69780        3.64060
N          3.57900       -2.68500        4.43250
C          5.97880       -1.38270        2.48490
N          6.32650       -0.30600        2.29110
H         -5.64790        5.42440       -3.98430
H          0.39540        7.07880       -4.50060
H         -3.30270        9.75990       -6.47200
H         -7.49570        2.56730       -2.77200
H         -7.11990        3.92930       -3.83600
H         -7.35920        4.05690       -0.78940
H         -8.53940        4.66350       -1.95640
H         -6.95590        5.42790       -1.82850
H          0.94540       -6.48020        4.76130
H          2.68090       -6.81050        4.66350
H          0.53590       -7.92380        2.78040
H          2.26460       -8.26110        2.65030
H          1.35790       -8.82500        4.05640
H         -0.59050        1.60440       -1.33480
H         -0.13260        0.55790        0.03800
H         -0.32030        2.85460        0.81420
H         -1.96680        2.98700        0.20220
H         -1.60800        1.88560        1.53940
H          1.55590       -1.44600       -0.31230
H          0.11640       -0.98700       -1.26150
H          1.25410       -3.80840       -1.04480
H         -0.23140       -3.36610       -1.89460
H          1.32670       -2.73850       -2.44330
H          4.38400       -6.72870        3.08220
H          9.35900       -6.62140        1.18190
H          7.79430       -1.90760        0.85310
