
  xtb     02022202153D
 energy: -186.177189239165 gnorm: 0.000816790639 xtb: 6.4.1 (unknown)
 97108  0     0  0            999 V2000
    6.5992   -3.6340   -3.1246 C   0  0  0  0  0  0  0  0  0  0  0  0
    6.3060   -3.5839   -4.4584 C   0  0  0  0  0  0  0  0  0  0  0  0
    6.8699   -4.5971   -5.3803 C   0  0  0  0  0  0  0  0  0  0  0  0
    7.7638   -5.3795   -5.1527 O   0  0  0  0  0  0  0  0  0  0  0  0
    6.0568   -4.4815   -6.6152 C   0  0  0  0  0  0  0  0  0  0  0  0
    6.0861   -5.2672   -7.7482 C   0  0  0  0  0  0  0  0  0  0  0  0
    5.1936   -4.9815   -8.7764 C   0  0  0  0  0  0  0  0  0  0  0  0
    5.2008   -5.9424  -10.2014 Cl  0  0  0  0  0  0  0  0  0  0  0  0
    4.2961   -3.9189   -8.6455 C   0  0  0  0  0  0  0  0  0  0  0  0
    3.0662   -3.5499  -10.0338 Br  0  0  0  0  0  0  0  0  0  0  0  0
    4.2752   -3.1171   -7.5105 C   0  0  0  0  0  0  0  0  0  0  0  0
    5.1636   -3.4016   -6.4889 C   0  0  0  0  0  0  0  0  0  0  0  0
    5.4125   -2.7363   -5.2122 C   0  0  0  0  0  0  0  0  0  0  0  0
    5.0973   -1.4341   -4.9192 C   0  0  0  0  0  0  0  0  0  0  0  0
    5.6616   -0.7440   -3.8260 C   0  0  0  0  0  0  0  0  0  0  0  0
    6.1563   -0.1453   -2.9805 N   0  0  0  0  0  0  0  0  0  0  0  0
    4.2626   -0.6284   -5.7169 C   0  0  0  0  0  0  0  0  0  0  0  0
    3.5631    0.0536   -6.3195 N   0  0  0  0  0  0  0  0  0  0  0  0
    5.8812   -3.1021   -2.0387 C   0  0  0  0  0  0  0  0  0  0  0  0
    6.3631   -2.9216   -0.7437 C   0  0  0  0  0  0  0  0  0  0  0  0
    7.7831   -3.1212   -0.3370 C   0  0  0  0  0  0  0  0  0  0  0  0
    8.6459   -1.9502   -0.8144 C   0  0  0  0  0  0  0  0  0  0  0  0
    5.3722   -2.4263    0.1046 C   0  0  0  0  0  0  0  0  0  0  0  0
    5.3782   -1.9908    1.7988 S   0  0  0  0  0  0  0  0  0  0  0  0
    3.7051   -1.5808    1.6733 C   0  0  0  0  0  0  0  0  0  0  0  0
    2.6617   -1.1158    2.4864 C   0  0  0  0  0  0  0  0  0  0  0  0
    2.5971   -0.8818    3.8783 C   0  0  0  0  0  0  0  0  0  0  0  0
    1.3423   -0.5019    4.4600 C   0  0  0  0  0  0  0  0  0  0  0  0
    1.4138   -0.3748    5.7754 N   0  0  0  0  0  0  0  0  0  0  0  0
    2.9288   -0.6993    6.2420 S   0  0  0  0  0  0  0  0  0  0  0  0
    3.5537   -1.0166    4.7830 N   0  0  0  0  0  0  0  0  0  0  0  0
    0.2446   -0.2458    3.6077 C   0  0  0  0  0  0  0  0  0  0  0  0
   -1.0182    0.3001    3.8676 C   0  0  0  0  0  0  0  0  0  0  0  0
   -1.9515    0.8406    5.2185 S   0  0  0  0  0  0  0  0  0  0  0  0
   -3.1984    1.3671    4.1026 C   0  0  0  0  0  0  0  0  0  0  0  0
   -4.4262    1.9807    4.3014 C   0  0  0  0  0  0  0  0  0  0  0  0
   -4.9209    2.3821    5.6521 C   0  0  0  0  0  0  0  0  0  0  0  0
   -4.5835    3.8481    5.9393 C   0  0  0  0  0  0  0  0  0  0  0  0
   -5.0825    2.2206    3.0790 C   0  0  0  0  0  0  0  0  0  0  0  0
   -4.1397    1.6581    1.6973 S   0  0  0  0  0  0  0  0  0  0  0  0
   -2.8884    1.1216    2.7522 C   0  0  0  0  0  0  0  0  0  0  0  0
   -1.6416    0.5027    2.6282 C   0  0  0  0  0  0  0  0  0  0  0  0
   -0.8180    0.0789    1.6193 N   0  0  0  0  0  0  0  0  0  0  0  0
    0.3389   -0.4071    2.1931 C   0  0  0  0  0  0  0  0  0  0  0  0
    1.5173   -0.9779    1.6485 C   0  0  0  0  0  0  0  0  0  0  0  0
    1.8493   -1.3998    0.3714 N   0  0  0  0  0  0  0  0  0  0  0  0
    3.1722   -1.7614    0.3901 C   0  0  0  0  0  0  0  0  0  0  0  0
    4.1204   -2.2536   -0.5063 C   0  0  0  0  0  0  0  0  0  0  0  0
    4.1673   -2.6967   -2.1700 S   0  0  0  0  0  0  0  0  0  0  0  0
    1.0039   -1.9759   -0.6525 C   0  0  0  0  0  0  0  0  0  0  0  0
    0.7861   -3.4680   -0.4030 C   0  0  0  0  0  0  0  0  0  0  0  0
   -1.0836    0.4796    0.2542 C   0  0  0  0  0  0  0  0  0  0  0  0
   -2.1706   -0.3735   -0.4004 C   0  0  0  0  0  0  0  0  0  0  0  0
   -6.3315    2.8406    2.9994 C   0  0  0  0  0  0  0  0  0  0  0  0
   -7.1193    3.1539    1.9162 C   0  0  0  0  0  0  0  0  0  0  0  0
   -6.8138    2.8524    0.5153 C   0  0  0  0  0  0  0  0  0  0  0  0
   -5.8193    2.3050    0.0757 O   0  0  0  0  0  0  0  0  0  0  0  0
   -7.9688    3.3416   -0.2635 C   0  0  0  0  0  0  0  0  0  0  0  0
   -8.2169    3.3037   -1.6230 C   0  0  0  0  0  0  0  0  0  0  0  0
   -7.3361    2.7597   -2.4691 F   0  0  0  0  0  0  0  0  0  0  0  0
   -9.3971    3.8354   -2.1284 C   0  0  0  0  0  0  0  0  0  0  0  0
  -10.3166    4.4001   -1.2623 C   0  0  0  0  0  0  0  0  0  0  0  0
  -10.0896    4.4487    0.1083 C   0  0  0  0  0  0  0  0  0  0  0  0
   -8.9126    3.9170    0.6078 C   0  0  0  0  0  0  0  0  0  0  0  0
   -8.4032    3.8171    1.9781 C   0  0  0  0  0  0  0  0  0  0  0  0
   -9.0509    4.2867    3.0929 C   0  0  0  0  0  0  0  0  0  0  0  0
   -8.5770    4.2057    4.4189 C   0  0  0  0  0  0  0  0  0  0  0  0
   -8.2600    4.1863    5.5234 N   0  0  0  0  0  0  0  0  0  0  0  0
  -10.3056    4.9315    3.0735 C   0  0  0  0  0  0  0  0  0  0  0  0
  -11.3199    5.4655    3.1374 N   0  0  0  0  0  0  0  0  0  0  0  0
    7.4596   -4.2452   -2.8681 H   0  0  0  0  0  0  0  0  0  0  0  0
    6.7856   -6.0835   -7.8344 H   0  0  0  0  0  0  0  0  0  0  0  0
    3.5679   -2.3056   -7.4434 H   0  0  0  0  0  0  0  0  0  0  0  0
    7.8277   -3.1870    0.7517 H   0  0  0  0  0  0  0  0  0  0  0  0
    8.1679   -4.0524   -0.7586 H   0  0  0  0  0  0  0  0  0  0  0  0
    8.6199   -1.8743   -1.8987 H   0  0  0  0  0  0  0  0  0  0  0  0
    9.6749   -2.0921   -0.4955 H   0  0  0  0  0  0  0  0  0  0  0  0
    8.2763   -1.0161   -0.3995 H   0  0  0  0  0  0  0  0  0  0  0  0
   -4.4299    1.7516    6.3960 H   0  0  0  0  0  0  0  0  0  0  0  0
   -5.9985    2.2355    5.7369 H   0  0  0  0  0  0  0  0  0  0  0  0
   -4.9343    4.1180    6.9310 H   0  0  0  0  0  0  0  0  0  0  0  0
   -5.0629    4.5032    5.2159 H   0  0  0  0  0  0  0  0  0  0  0  0
   -3.5084    4.0049    5.8927 H   0  0  0  0  0  0  0  0  0  0  0  0
    1.5065   -1.8281   -1.6130 H   0  0  0  0  0  0  0  0  0  0  0  0
    0.0438   -1.4767   -0.6795 H   0  0  0  0  0  0  0  0  0  0  0  0
    0.3061   -3.6234    0.5612 H   0  0  0  0  0  0  0  0  0  0  0  0
    1.7324   -4.0034   -0.4093 H   0  0  0  0  0  0  0  0  0  0  0  0
    0.1507   -3.8806   -1.1815 H   0  0  0  0  0  0  0  0  0  0  0  0
   -1.4295    1.5188    0.2770 H   0  0  0  0  0  0  0  0  0  0  0  0
   -0.1475    0.4594   -0.3060 H   0  0  0  0  0  0  0  0  0  0  0  0
   -2.2107   -0.1618   -1.4651 H   0  0  0  0  0  0  0  0  0  0  0  0
   -3.1406   -0.1359    0.0268 H   0  0  0  0  0  0  0  0  0  0  0  0
   -1.9904   -1.4367   -0.2554 H   0  0  0  0  0  0  0  0  0  0  0  0
   -6.7331    3.1133    3.9656 H   0  0  0  0  0  0  0  0  0  0  0  0
   -9.5779    3.7988   -3.1910 H   0  0  0  0  0  0  0  0  0  0  0  0
  -11.2319    4.8115   -1.6588 H   0  0  0  0  0  0  0  0  0  0  0  0
  -10.8265    4.8938    0.7552 H   0  0  0  0  0  0  0  0  0  0  0  0
  1  2  2  0  0  0  0
  2  3  1  0  0  0  0
  3  4  2  0  0  0  0
  3  5  1  0  0  0  0
  5  6  2  0  0  0  0
  6  7  1  0  0  0  0
  7  8  1  0  0  0  0
  7  9  2  0  0  0  0
  9 10  1  0  0  0  0
  9 11  1  0  0  0  0
 11 12  2  0  0  0  0
 12 13  1  0  0  0  0
 13 14  2  0  0  0  0
 14 15  1  0  0  0  0
 15 16  3  0  0  0  0
 14 17  1  0  0  0  0
 17 18  3  0  0  0  0
  1 19  1  0  0  0  0
 19 20  2  0  0  0  0
 20 21  1  0  0  0  0
 21 22  1  0  0  0  0
 20 23  1  0  0  0  0
 23 24  1  0  0  0  0
 24 25  1  0  0  0  0
 25 26  1  0  0  0  0
 26 27  1  0  0  0  0
 27 28  1  0  0  0  0
 28 29  2  0  0  0  0
 29 30  1  0  0  0  0
 30 31  1  0  0  0  0
 28 32  1  0  0  0  0
 32 33  1  0  0  0  0
 33 34  1  0  0  0  0
 34 35  1  0  0  0  0
 35 36  1  0  0  0  0
 36 37  1  0  0  0  0
 37 38  1  0  0  0  0
 36 39  2  0  0  0  0
 39 40  1  0  0  0  0
 40 41  1  0  0  0  0
 41 42  1  0  0  0  0
 42 43  1  0  0  0  0
 43 44  1  0  0  0  0
 44 45  1  0  0  0  0
 45 46  1  0  0  0  0
 46 47  1  0  0  0  0
 47 48  1  0  0  0  0
 48 49  1  0  0  0  0
 46 50  1  0  0  0  0
 50 51  1  0  0  0  0
 43 52  1  0  0  0  0
 52 53  1  0  0  0  0
 39 54  1  0  0  0  0
 54 55  2  0  0  0  0
 55 56  1  0  0  0  0
 56 57  2  0  0  0  0
 56 58  1  0  0  0  0
 58 59  2  0  0  0  0
 59 60  1  0  0  0  0
 59 61  1  0  0  0  0
 61 62  2  0  0  0  0
 62 63  1  0  0  0  0
 63 64  2  0  0  0  0
 64 65  1  0  0  0  0
 65 66  2  0  0  0  0
 66 67  1  0  0  0  0
 67 68  3  0  0  0  0
 66 69  1  0  0  0  0
 69 70  3  0  0  0  0
 13  2  1  0  0  0  0
 49 19  1  0  0  0  0
 65 55  1  0  0  0  0
 12  5  1  0  0  0  0
 48 23  2  0  0  0  0
 64 58  1  0  0  0  0
 47 25  2  0  0  0  0
 45 26  2  0  0  0  0
 31 27  2  0  0  0  0
 44 32  2  0  0  0  0
 42 33  2  0  0  0  0
 41 35  2  0  0  0  0
  1 71  1  0  0  0  0
  6 72  1  0  0  0  0
 11 73  1  0  0  0  0
 21 74  1  0  0  0  0
 21 75  1  0  0  0  0
 22 76  1  0  0  0  0
 22 77  1  0  0  0  0
 22 78  1  0  0  0  0
 37 79  1  0  0  0  0
 37 80  1  0  0  0  0
 38 81  1  0  0  0  0
 38 82  1  0  0  0  0
 38 83  1  0  0  0  0
 50 84  1  0  0  0  0
 50 85  1  0  0  0  0
 51 86  1  0  0  0  0
 51 87  1  0  0  0  0
 51 88  1  0  0  0  0
 52 89  1  0  0  0  0
 52 90  1  0  0  0  0
 53 91  1  0  0  0  0
 53 92  1  0  0  0  0
 53 93  1  0  0  0  0
 54 94  1  0  0  0  0
 61 95  1  0  0  0  0
 62 96  1  0  0  0  0
 63 97  1  0  0  0  0
M  END
