
  xtb     02012223133D
 energy: -189.351856011513 gnorm: 0.000579494997 xtb: 6.4.1 (unknown)
100111  0     0  0            999 V2000
    5.5082   -1.9513    4.9823 C   0  0  0  0  0  0  0  0  0  0  0  0
    5.1363   -1.1038    6.0024 C   0  0  0  0  0  0  0  0  0  0  0  0
    4.1554   -0.0239    5.9133 C   0  0  0  0  0  0  0  0  0  0  0  0
    3.4987    0.3178    4.9451 O   0  0  0  0  0  0  0  0  0  0  0  0
    4.1132    0.5995    7.2523 C   0  0  0  0  0  0  0  0  0  0  0  0
    3.3482    1.6627    7.6828 C   0  0  0  0  0  0  0  0  0  0  0  0
    3.4822    2.0815    9.0019 C   0  0  0  0  0  0  0  0  0  0  0  0
    2.5472    3.4045    9.5761 Cl  0  0  0  0  0  0  0  0  0  0  0  0
    4.3760    1.4248    9.8509 C   0  0  0  0  0  0  0  0  0  0  0  0
    4.5588    1.9949   11.6451 Br  0  0  0  0  0  0  0  0  0  0  0  0
    5.1464    0.3528    9.4148 C   0  0  0  0  0  0  0  0  0  0  0  0
    5.0149   -0.0648    8.1013 C   0  0  0  0  0  0  0  0  0  0  0  0
    5.6690   -1.1361    7.3486 C   0  0  0  0  0  0  0  0  0  0  0  0
    6.6089   -1.9946    7.8608 C   0  0  0  0  0  0  0  0  0  0  0  0
    7.2487   -3.0353    7.1564 C   0  0  0  0  0  0  0  0  0  0  0  0
    7.8145   -3.9016    6.6563 N   0  0  0  0  0  0  0  0  0  0  0  0
    7.0734   -1.9522    9.1925 C   0  0  0  0  0  0  0  0  0  0  0  0
    7.4926   -1.9719   10.2607 N   0  0  0  0  0  0  0  0  0  0  0  0
    5.0793   -2.0371    3.6578 C   0  0  0  0  0  0  0  0  0  0  0  0
    5.5804   -2.9951    2.7534 C   0  0  0  0  0  0  0  0  0  0  0  0
    6.5747   -4.0620    3.0739 C   0  0  0  0  0  0  0  0  0  0  0  0
    5.8854   -5.2701    3.7149 C   0  0  0  0  0  0  0  0  0  0  0  0
    4.9840   -2.8731    1.5080 C   0  0  0  0  0  0  0  0  0  0  0  0
    5.1887   -3.7561    0.0052 S   0  0  0  0  0  0  0  0  0  0  0  0
    3.9971   -2.7355   -0.7219 C   0  0  0  0  0  0  0  0  0  0  0  0
    3.3712   -2.5497   -1.9625 C   0  0  0  0  0  0  0  0  0  0  0  0
    3.5890   -3.1399   -3.2281 C   0  0  0  0  0  0  0  0  0  0  0  0
    2.8392   -2.6634   -4.3556 C   0  0  0  0  0  0  0  0  0  0  0  0
    3.1888   -3.2610   -5.4833 N   0  0  0  0  0  0  0  0  0  0  0  0
    4.3545   -4.3349   -5.1565 S   0  0  0  0  0  0  0  0  0  0  0  0
    4.4602   -4.0783   -3.5624 N   0  0  0  0  0  0  0  0  0  0  0  0
    1.8079   -1.7203   -4.1425 C   0  0  0  0  0  0  0  0  0  0  0  0
    0.7969   -1.2441   -4.9886 C   0  0  0  0  0  0  0  0  0  0  0  0
    0.2940   -1.4092   -6.6322 S   0  0  0  0  0  0  0  0  0  0  0  0
   -1.1274   -0.4615   -6.2641 C   0  0  0  0  0  0  0  0  0  0  0  0
   -2.2119   -0.0548   -7.0456 C   0  0  0  0  0  0  0  0  0  0  0  0
   -2.3984   -0.4424   -8.4730 C   0  0  0  0  0  0  0  0  0  0  0  0
   -3.3622   -1.6263   -8.5850 C   0  0  0  0  0  0  0  0  0  0  0  0
   -3.1397    0.6582   -6.2943 C   0  0  0  0  0  0  0  0  0  0  0  0
   -2.6149    0.8699   -4.6243 S   0  0  0  0  0  0  0  0  0  0  0  0
   -1.1823   -0.0394   -4.9278 C   0  0  0  0  0  0  0  0  0  0  0  0
   -0.0755   -0.4809   -4.1991 C   0  0  0  0  0  0  0  0  0  0  0  0
    0.3780   -0.4439   -2.9062 N   0  0  0  0  0  0  0  0  0  0  0  0
    1.5439   -1.1849   -2.8504 C   0  0  0  0  0  0  0  0  0  0  0  0
    2.4272   -1.4956   -1.7875 C   0  0  0  0  0  0  0  0  0  0  0  0
    2.5275   -1.0163   -0.4955 N   0  0  0  0  0  0  0  0  0  0  0  0
    3.4701   -1.7741    0.1515 C   0  0  0  0  0  0  0  0  0  0  0  0
    4.0335   -1.8382    1.4263 C   0  0  0  0  0  0  0  0  0  0  0  0
    3.8644   -0.9911    2.9151 S   0  0  0  0  0  0  0  0  0  0  0  0
    2.2447    0.3145   -0.0011 C   0  0  0  0  0  0  0  0  0  0  0  0
    3.4850    1.2041   -0.0803 C   0  0  0  0  0  0  0  0  0  0  0  0
   -0.5149   -0.0612   -1.8323 C   0  0  0  0  0  0  0  0  0  0  0  0
   -0.6992    1.4529   -1.7395 C   0  0  0  0  0  0  0  0  0  0  0  0
   -4.3257    1.2502   -6.7743 C   0  0  0  0  0  0  0  0  0  0  0  0
   -5.4056    1.7004   -6.0751 C   0  0  0  0  0  0  0  0  0  0  0  0
   -6.3079    2.7157   -6.6768 C   0  0  0  0  0  0  0  0  0  0  0  0
   -6.3566    3.0485   -7.8390 O   0  0  0  0  0  0  0  0  0  0  0  0
   -7.0766    3.2639   -5.5385 C   0  0  0  0  0  0  0  0  0  0  0  0
   -7.9699    4.3172   -5.5237 C   0  0  0  0  0  0  0  0  0  0  0  0
   -8.5667    4.6917   -4.3247 C   0  0  0  0  0  0  0  0  0  0  0  0
   -9.5406    5.8205   -4.2357 C   0  0  0  0  0  0  0  0  0  0  0  0
   -8.2262    3.9699   -3.1785 C   0  0  0  0  0  0  0  0  0  0  0  0
   -8.7880    4.3373   -2.0117 F   0  0  0  0  0  0  0  0  0  0  0  0
   -7.3445    2.9014   -3.1659 C   0  0  0  0  0  0  0  0  0  0  0  0
   -6.7615    2.5461   -4.3705 C   0  0  0  0  0  0  0  0  0  0  0  0
   -5.8408    1.4675   -4.7166 C   0  0  0  0  0  0  0  0  0  0  0  0
   -5.6570    0.3146   -3.9980 C   0  0  0  0  0  0  0  0  0  0  0  0
   -5.0295   -0.8276   -4.5374 C   0  0  0  0  0  0  0  0  0  0  0  0
   -4.5751   -1.7883   -4.9721 N   0  0  0  0  0  0  0  0  0  0  0  0
   -6.1397    0.1162   -2.6904 C   0  0  0  0  0  0  0  0  0  0  0  0
   -6.4800   -0.0821   -1.6119 N   0  0  0  0  0  0  0  0  0  0  0  0
    6.2609   -2.6853    5.2350 H   0  0  0  0  0  0  0  0  0  0  0  0
    2.6637    2.1562    7.0114 H   0  0  0  0  0  0  0  0  0  0  0  0
    5.8233   -0.1235   10.1052 H   0  0  0  0  0  0  0  0  0  0  0  0
    7.3503   -3.6900    3.7447 H   0  0  0  0  0  0  0  0  0  0  0  0
    7.0495   -4.3764    2.1425 H   0  0  0  0  0  0  0  0  0  0  0  0
    6.6206   -6.0392    3.9322 H   0  0  0  0  0  0  0  0  0  0  0  0
    5.1373   -5.6805    3.0409 H   0  0  0  0  0  0  0  0  0  0  0  0
    5.3984   -4.9875    4.6452 H   0  0  0  0  0  0  0  0  0  0  0  0
   -1.4280   -0.7218   -8.8879 H   0  0  0  0  0  0  0  0  0  0  0  0
   -2.7915    0.4019   -9.0433 H   0  0  0  0  0  0  0  0  0  0  0  0
   -2.9811   -2.4767   -8.0258 H   0  0  0  0  0  0  0  0  0  0  0  0
   -4.3373   -1.3633   -8.1819 H   0  0  0  0  0  0  0  0  0  0  0  0
   -3.4775   -1.9152   -9.6261 H   0  0  0  0  0  0  0  0  0  0  0  0
    1.9177    0.2286    1.0393 H   0  0  0  0  0  0  0  0  0  0  0  0
    1.4566    0.7637   -0.5931 H   0  0  0  0  0  0  0  0  0  0  0  0
    4.2838    0.8138    0.5440 H   0  0  0  0  0  0  0  0  0  0  0  0
    3.2370    2.2033    0.2660 H   0  0  0  0  0  0  0  0  0  0  0  0
    3.8414    1.2660   -1.1068 H   0  0  0  0  0  0  0  0  0  0  0  0
   -1.4913   -0.5177   -2.0327 H   0  0  0  0  0  0  0  0  0  0  0  0
   -0.1424   -0.4821   -0.8978 H   0  0  0  0  0  0  0  0  0  0  0  0
   -1.2308    1.8217   -2.6123 H   0  0  0  0  0  0  0  0  0  0  0  0
   -1.2834    1.6940   -0.8560 H   0  0  0  0  0  0  0  0  0  0  0  0
    0.2534    1.9753   -1.6849 H   0  0  0  0  0  0  0  0  0  0  0  0
   -4.3513    1.4567   -7.8403 H   0  0  0  0  0  0  0  0  0  0  0  0
   -8.1987    4.8405   -6.4396 H   0  0  0  0  0  0  0  0  0  0  0  0
  -10.5096    5.4537   -3.8981 H   0  0  0  0  0  0  0  0  0  0  0  0
   -9.2008    6.5544   -3.5060 H   0  0  0  0  0  0  0  0  0  0  0  0
   -9.6610    6.3044   -5.2004 H   0  0  0  0  0  0  0  0  0  0  0  0
   -7.1322    2.3944   -2.2387 H   0  0  0  0  0  0  0  0  0  0  0  0
  1  2  2  0  0  0  0
  2  3  1  0  0  0  0
  3  4  2  0  0  0  0
  3  5  1  0  0  0  0
  5  6  2  0  0  0  0
  6  7  1  0  0  0  0
  7  8  1  0  0  0  0
  7  9  2  0  0  0  0
  9 10  1  0  0  0  0
  9 11  1  0  0  0  0
 11 12  2  0  0  0  0
 12 13  1  0  0  0  0
 13 14  2  0  0  0  0
 14 15  1  0  0  0  0
 15 16  3  0  0  0  0
 14 17  1  0  0  0  0
 17 18  3  0  0  0  0
  1 19  1  0  0  0  0
 19 20  2  0  0  0  0
 20 21  1  0  0  0  0
 21 22  1  0  0  0  0
 20 23  1  0  0  0  0
 23 24  1  0  0  0  0
 24 25  1  0  0  0  0
 25 26  1  0  0  0  0
 26 27  1  0  0  0  0
 27 28  1  0  0  0  0
 28 29  2  0  0  0  0
 29 30  1  0  0  0  0
 30 31  1  0  0  0  0
 28 32  1  0  0  0  0
 32 33  1  0  0  0  0
 33 34  1  0  0  0  0
 34 35  1  0  0  0  0
 35 36  1  0  0  0  0
 36 37  1  0  0  0  0
 37 38  1  0  0  0  0
 36 39  2  0  0  0  0
 39 40  1  0  0  0  0
 40 41  1  0  0  0  0
 41 42  1  0  0  0  0
 42 43  1  0  0  0  0
 43 44  1  0  0  0  0
 44 45  1  0  0  0  0
 45 46  1  0  0  0  0
 46 47  1  0  0  0  0
 47 48  1  0  0  0  0
 48 49  1  0  0  0  0
 46 50  1  0  0  0  0
 50 51  1  0  0  0  0
 43 52  1  0  0  0  0
 52 53  1  0  0  0  0
 39 54  1  0  0  0  0
 54 55  2  0  0  0  0
 55 56  1  0  0  0  0
 56 57  2  0  0  0  0
 56 58  1  0  0  0  0
 58 59  2  0  0  0  0
 59 60  1  0  0  0  0
 60 61  1  0  0  0  0
 60 62  2  0  0  0  0
 62 63  1  0  0  0  0
 62 64  1  0  0  0  0
 64 65  2  0  0  0  0
 65 66  1  0  0  0  0
 66 67  2  0  0  0  0
 67 68  1  0  0  0  0
 68 69  3  0  0  0  0
 67 70  1  0  0  0  0
 70 71  3  0  0  0  0
 13  2  1  0  0  0  0
 49 19  1  0  0  0  0
 66 55  1  0  0  0  0
 12  5  1  0  0  0  0
 48 23  2  0  0  0  0
 65 58  1  0  0  0  0
 47 25  2  0  0  0  0
 45 26  2  0  0  0  0
 31 27  2  0  0  0  0
 44 32  2  0  0  0  0
 42 33  2  0  0  0  0
 41 35  2  0  0  0  0
  1 72  1  0  0  0  0
  6 73  1  0  0  0  0
 11 74  1  0  0  0  0
 21 75  1  0  0  0  0
 21 76  1  0  0  0  0
 22 77  1  0  0  0  0
 22 78  1  0  0  0  0
 22 79  1  0  0  0  0
 37 80  1  0  0  0  0
 37 81  1  0  0  0  0
 38 82  1  0  0  0  0
 38 83  1  0  0  0  0
 38 84  1  0  0  0  0
 50 85  1  0  0  0  0
 50 86  1  0  0  0  0
 51 87  1  0  0  0  0
 51 88  1  0  0  0  0
 51 89  1  0  0  0  0
 52 90  1  0  0  0  0
 52 91  1  0  0  0  0
 53 92  1  0  0  0  0
 53 93  1  0  0  0  0
 53 94  1  0  0  0  0
 54 95  1  0  0  0  0
 59 96  1  0  0  0  0
 61 97  1  0  0  0  0
 61 98  1  0  0  0  0
 61 99  1  0  0  0  0
 64100  1  0  0  0  0
M  END
