
  xtb     02022200323D
 energy: -199.996484688566 gnorm: 0.000868473975 xtb: 6.4.1 (unknown)
103115  0     0  0            999 V2000
    5.7141    3.1528    6.4318 C   0  0  0  0  0  0  0  0  0  0  0  0
    6.9158    3.5157    5.8647 C   0  0  0  0  0  0  0  0  0  0  0  0
    7.2155    3.5653    4.4353 C   0  0  0  0  0  0  0  0  0  0  0  0
    6.4777    3.2983    3.5020 O   0  0  0  0  0  0  0  0  0  0  0  0
    8.6218    4.0060    4.3290 C   0  0  0  0  0  0  0  0  0  0  0  0
    9.3768    4.2079    3.1930 C   0  0  0  0  0  0  0  0  0  0  0  0
   10.6944    4.6269    3.3414 C   0  0  0  0  0  0  0  0  0  0  0  0
   11.6678    4.8895    1.9499 Cl  0  0  0  0  0  0  0  0  0  0  0  0
   11.2172    4.8315    4.6205 C   0  0  0  0  0  0  0  0  0  0  0  0
   13.0096    5.4013    4.8225 Br  0  0  0  0  0  0  0  0  0  0  0  0
   10.4543    4.6269    5.7646 C   0  0  0  0  0  0  0  0  0  0  0  0
    9.1423    4.2094    5.6187 C   0  0  0  0  0  0  0  0  0  0  0  0
    8.0995    3.9088    6.6007 C   0  0  0  0  0  0  0  0  0  0  0  0
    8.2552    3.9899    7.9616 C   0  0  0  0  0  0  0  0  0  0  0  0
    9.4539    4.3791    8.5963 C   0  0  0  0  0  0  0  0  0  0  0  0
   10.3969    4.6895    9.1728 N   0  0  0  0  0  0  0  0  0  0  0  0
    7.2672    3.7005    8.9254 C   0  0  0  0  0  0  0  0  0  0  0  0
    6.5196    3.4852    9.7713 N   0  0  0  0  0  0  0  0  0  0  0  0
    4.5119    2.7477    5.8528 C   0  0  0  0  0  0  0  0  0  0  0  0
    3.3730    2.4097    6.6108 C   0  0  0  0  0  0  0  0  0  0  0  0
    3.2602    2.4858    8.0978 C   0  0  0  0  0  0  0  0  0  0  0  0
    2.9288    3.9121    8.5463 C   0  0  0  0  0  0  0  0  0  0  0  0
    2.3167    2.0353    5.7953 C   0  0  0  0  0  0  0  0  0  0  0  0
    0.6797    1.5137    6.1520 S   0  0  0  0  0  0  0  0  0  0  0  0
    0.4055    1.3311    4.4550 C   0  0  0  0  0  0  0  0  0  0  0  0
   -0.6241    0.9653    3.5826 C   0  0  0  0  0  0  0  0  0  0  0  0
   -1.9665    0.6240    3.8566 C   0  0  0  0  0  0  0  0  0  0  0  0
   -2.8437    0.3523    2.7606 C   0  0  0  0  0  0  0  0  0  0  0  0
   -4.0779    0.0783    3.1538 N   0  0  0  0  0  0  0  0  0  0  0  0
   -4.1277    0.1546    4.7699 S   0  0  0  0  0  0  0  0  0  0  0  0
   -2.5769    0.5404    5.0283 N   0  0  0  0  0  0  0  0  0  0  0  0
   -2.3166    0.3639    1.4510 C   0  0  0  0  0  0  0  0  0  0  0  0
   -2.9269    0.0312    0.2363 C   0  0  0  0  0  0  0  0  0  0  0  0
   -4.4649   -0.4795   -0.3598 S   0  0  0  0  0  0  0  0  0  0  0  0
   -3.7748   -0.6221   -1.9626 C   0  0  0  0  0  0  0  0  0  0  0  0
   -4.2950   -1.0744   -3.1823 C   0  0  0  0  0  0  0  0  0  0  0  0
   -5.7354   -1.3797   -3.4167 C   0  0  0  0  0  0  0  0  0  0  0  0
   -6.6526   -0.2609   -2.9253 C   0  0  0  0  0  0  0  0  0  0  0  0
   -3.3140   -1.0782   -4.1701 C   0  0  0  0  0  0  0  0  0  0  0  0
   -1.7772   -0.4279   -3.5960 S   0  0  0  0  0  0  0  0  0  0  0  0
   -2.4181   -0.2651   -2.0062 C   0  0  0  0  0  0  0  0  0  0  0  0
   -1.9378    0.1109   -0.7487 C   0  0  0  0  0  0  0  0  0  0  0  0
   -0.7490    0.4857   -0.1867 N   0  0  0  0  0  0  0  0  0  0  0  0
   -0.9486    0.6675    1.1707 C   0  0  0  0  0  0  0  0  0  0  0  0
   -0.1026    1.0452    2.2525 C   0  0  0  0  0  0  0  0  0  0  0  0
    1.2013    1.4946    2.3400 N   0  0  0  0  0  0  0  0  0  0  0  0
    1.5137    1.6531    3.6625 C   0  0  0  0  0  0  0  0  0  0  0  0
    2.6127    2.0651    4.4191 C   0  0  0  0  0  0  0  0  0  0  0  0
    4.2279    2.5813    4.1177 S   0  0  0  0  0  0  0  0  0  0  0  0
    2.1687    1.9133    1.3518 C   0  0  0  0  0  0  0  0  0  0  0  0
    3.2521    0.8571    1.1321 C   0  0  0  0  0  0  0  0  0  0  0  0
    0.4262    0.5198   -1.0256 C   0  0  0  0  0  0  0  0  0  0  0  0
    0.5024    1.8124   -1.8385 C   0  0  0  0  0  0  0  0  0  0  0  0
   -3.3687   -1.4815   -5.5189 C   0  0  0  0  0  0  0  0  0  0  0  0
   -4.0802   -2.5453   -6.0100 C   0  0  0  0  0  0  0  0  0  0  0  0
   -4.5152   -3.6963   -5.1876 C   0  0  0  0  0  0  0  0  0  0  0  0
   -4.4758   -3.8095   -3.9803 O   0  0  0  0  0  0  0  0  0  0  0  0
   -4.9010   -4.7442   -6.1552 C   0  0  0  0  0  0  0  0  0  0  0  0
   -5.3322   -6.0136   -5.9020 C   0  0  0  0  0  0  0  0  0  0  0  0
   -5.6411   -6.8626   -6.9884 C   0  0  0  0  0  0  0  0  0  0  0  0
   -6.0911   -8.1810   -6.7829 C   0  0  0  0  0  0  0  0  0  0  0  0
   -6.3783   -8.9840   -7.8510 C   0  0  0  0  0  0  0  0  0  0  0  0
   -6.8040  -10.2395   -7.6536 F   0  0  0  0  0  0  0  0  0  0  0  0
   -6.2301   -8.5042   -9.1675 C   0  0  0  0  0  0  0  0  0  0  0  0
   -6.5203   -9.3133  -10.1951 F   0  0  0  0  0  0  0  0  0  0  0  0
   -5.7955   -7.2291   -9.3985 C   0  0  0  0  0  0  0  0  0  0  0  0
   -5.4900   -6.3761   -8.3191 C   0  0  0  0  0  0  0  0  0  0  0  0
   -5.0372   -5.0563   -8.5491 C   0  0  0  0  0  0  0  0  0  0  0  0
   -4.7479   -4.2500   -7.4804 C   0  0  0  0  0  0  0  0  0  0  0  0
   -4.2681   -2.8737   -7.4056 C   0  0  0  0  0  0  0  0  0  0  0  0
   -4.1125   -2.0146   -8.4632 C   0  0  0  0  0  0  0  0  0  0  0  0
   -4.3389   -2.3712   -9.8079 C   0  0  0  0  0  0  0  0  0  0  0  0
   -4.5023   -2.6115  -10.9185 N   0  0  0  0  0  0  0  0  0  0  0  0
   -3.7440   -0.6593   -8.3347 C   0  0  0  0  0  0  0  0  0  0  0  0
   -3.4744    0.4561   -8.2910 N   0  0  0  0  0  0  0  0  0  0  0  0
    5.6792    3.1792    7.5121 H   0  0  0  0  0  0  0  0  0  0  0  0
    8.9539    4.0447    2.2145 H   0  0  0  0  0  0  0  0  0  0  0  0
   10.9000    4.7969    6.7313 H   0  0  0  0  0  0  0  0  0  0  0  0
    2.4556    1.8183    8.4126 H   0  0  0  0  0  0  0  0  0  0  0  0
    4.1830    2.1602    8.5800 H   0  0  0  0  0  0  0  0  0  0  0  0
    2.8403    3.9449    9.6282 H   0  0  0  0  0  0  0  0  0  0  0  0
    3.7119    4.6034    8.2441 H   0  0  0  0  0  0  0  0  0  0  0  0
    1.9885    4.2377    8.1077 H   0  0  0  0  0  0  0  0  0  0  0  0
   -5.9790   -2.3127   -2.9009 H   0  0  0  0  0  0  0  0  0  0  0  0
   -5.9002   -1.5381   -4.4838 H   0  0  0  0  0  0  0  0  0  0  0  0
   -6.5915   -0.1447   -1.8472 H   0  0  0  0  0  0  0  0  0  0  0  0
   -6.3841    0.6833   -3.3943 H   0  0  0  0  0  0  0  0  0  0  0  0
   -7.6814   -0.4945   -3.1861 H   0  0  0  0  0  0  0  0  0  0  0  0
    1.6588    2.1746    0.4291 H   0  0  0  0  0  0  0  0  0  0  0  0
    2.6469    2.8213    1.7340 H   0  0  0  0  0  0  0  0  0  0  0  0
    3.8824    1.1454    0.2958 H   0  0  0  0  0  0  0  0  0  0  0  0
    3.8777    0.7763    2.0168 H   0  0  0  0  0  0  0  0  0  0  0  0
    2.8228   -0.1231    0.9329 H   0  0  0  0  0  0  0  0  0  0  0  0
    1.3148    0.3661   -0.4216 H   0  0  0  0  0  0  0  0  0  0  0  0
    0.3500   -0.3236   -1.7201 H   0  0  0  0  0  0  0  0  0  0  0  0
   -0.3167    1.8534   -2.5516 H   0  0  0  0  0  0  0  0  0  0  0  0
    1.4382    1.8474   -2.3889 H   0  0  0  0  0  0  0  0  0  0  0  0
    0.4347    2.6907   -1.1996 H   0  0  0  0  0  0  0  0  0  0  0  0
   -2.7220   -0.9370   -6.1977 H   0  0  0  0  0  0  0  0  0  0  0  0
   -5.4371   -6.3650   -4.8868 H   0  0  0  0  0  0  0  0  0  0  0  0
   -6.2092   -8.5630   -5.7810 H   0  0  0  0  0  0  0  0  0  0  0  0
   -5.6886   -6.8774  -10.4128 H   0  0  0  0  0  0  0  0  0  0  0  0
   -4.9233   -4.7188   -9.5667 H   0  0  0  0  0  0  0  0  0  0  0  0
  1  2  2  0  0  0  0
  2  3  1  0  0  0  0
  3  4  2  0  0  0  0
  3  5  1  0  0  0  0
  5  6  2  0  0  0  0
  6  7  1  0  0  0  0
  7  8  1  0  0  0  0
  7  9  2  0  0  0  0
  9 10  1  0  0  0  0
  9 11  1  0  0  0  0
 11 12  2  0  0  0  0
 12 13  1  0  0  0  0
 13 14  2  0  0  0  0
 14 15  1  0  0  0  0
 15 16  3  0  0  0  0
 14 17  1  0  0  0  0
 17 18  3  0  0  0  0
  1 19  1  0  0  0  0
 19 20  2  0  0  0  0
 20 21  1  0  0  0  0
 21 22  1  0  0  0  0
 20 23  1  0  0  0  0
 23 24  1  0  0  0  0
 24 25  1  0  0  0  0
 25 26  1  0  0  0  0
 26 27  1  0  0  0  0
 27 28  1  0  0  0  0
 28 29  2  0  0  0  0
 29 30  1  0  0  0  0
 30 31  1  0  0  0  0
 28 32  1  0  0  0  0
 32 33  1  0  0  0  0
 33 34  1  0  0  0  0
 34 35  1  0  0  0  0
 35 36  1  0  0  0  0
 36 37  1  0  0  0  0
 37 38  1  0  0  0  0
 36 39  2  0  0  0  0
 39 40  1  0  0  0  0
 40 41  1  0  0  0  0
 41 42  1  0  0  0  0
 42 43  1  0  0  0  0
 43 44  1  0  0  0  0
 44 45  1  0  0  0  0
 45 46  1  0  0  0  0
 46 47  1  0  0  0  0
 47 48  1  0  0  0  0
 48 49  1  0  0  0  0
 46 50  1  0  0  0  0
 50 51  1  0  0  0  0
 43 52  1  0  0  0  0
 52 53  1  0  0  0  0
 39 54  1  0  0  0  0
 54 55  2  0  0  0  0
 55 56  1  0  0  0  0
 56 57  2  0  0  0  0
 56 58  1  0  0  0  0
 58 59  2  0  0  0  0
 59 60  1  0  0  0  0
 60 61  2  0  0  0  0
 61 62  1  0  0  0  0
 62 63  1  0  0  0  0
 62 64  2  0  0  0  0
 64 65  1  0  0  0  0
 64 66  1  0  0  0  0
 66 67  2  0  0  0  0
 67 68  1  0  0  0  0
 68 69  2  0  0  0  0
 69 70  1  0  0  0  0
 70 71  2  0  0  0  0
 71 72  1  0  0  0  0
 72 73  3  0  0  0  0
 71 74  1  0  0  0  0
 74 75  3  0  0  0  0
 13  2  1  0  0  0  0
 49 19  1  0  0  0  0
 70 55  1  0  0  0  0
 12  5  1  0  0  0  0
 48 23  2  0  0  0  0
 69 58  1  0  0  0  0
 47 25  2  0  0  0  0
 67 60  1  0  0  0  0
 45 26  2  0  0  0  0
 31 27  2  0  0  0  0
 44 32  2  0  0  0  0
 42 33  2  0  0  0  0
 41 35  2  0  0  0  0
  1 76  1  0  0  0  0
  6 77  1  0  0  0  0
 11 78  1  0  0  0  0
 21 79  1  0  0  0  0
 21 80  1  0  0  0  0
 22 81  1  0  0  0  0
 22 82  1  0  0  0  0
 22 83  1  0  0  0  0
 37 84  1  0  0  0  0
 37 85  1  0  0  0  0
 38 86  1  0  0  0  0
 38 87  1  0  0  0  0
 38 88  1  0  0  0  0
 50 89  1  0  0  0  0
 50 90  1  0  0  0  0
 51 91  1  0  0  0  0
 51 92  1  0  0  0  0
 51 93  1  0  0  0  0
 52 94  1  0  0  0  0
 52 95  1  0  0  0  0
 53 96  1  0  0  0  0
 53 97  1  0  0  0  0
 53 98  1  0  0  0  0
 54 99  1  0  0  0  0
 59100  1  0  0  0  0
 61101  1  0  0  0  0
 66102  1  0  0  0  0
 68103  1  0  0  0  0
M  END
