142

C         -4.64590       -2.93520        6.22610
C         -5.92130       -3.32820        6.54790
C         -7.12760       -3.32430        5.69620
O         -7.23240       -3.08000        4.51210
C         -8.24880       -3.67890        6.59460
C         -9.58970       -3.77230        6.28550
C        -10.47880       -4.11640        7.29710
Cl       -12.15730       -4.24320        6.95280
C        -10.00060       -4.35590        8.58800
Br       -11.21000       -4.81750        9.96670
C         -8.64890       -4.26410        8.89670
C         -7.76190       -3.92310        7.88850
C         -6.31020       -3.75430        7.88220
C         -5.49100       -4.01530        8.95010
C         -4.08130       -3.94530        8.96520
N         -2.93770       -3.93600        9.07440
C         -5.95640       -4.43520       10.21520
N         -6.26400       -4.77330       11.26790
C         -4.06690       -2.51970        5.01720
C         -4.54550       -2.43810        3.71540
C         -3.57880       -1.98120        2.83600
S         -3.57270       -1.67000        1.12120
C         -1.92260       -1.16650        1.23860
C         -0.94120       -0.68300        0.31910
C         -1.01870       -0.42450       -1.04740
C          0.10910        0.07050       -1.65820
C          0.30020        0.44360       -3.11720
C         -0.76240        1.42100       -3.58130
C         -0.54530        2.78960       -3.58010
C         -1.51340        3.67120       -4.03050
C         -2.74000        3.19340       -4.48070
O         -3.75710        3.94160       -4.96820
C         -3.63230        5.35190       -5.04260
C         -3.86700        6.03200       -3.69720
C         -2.96910        1.81410       -4.45420
C         -1.99590        0.94530       -4.01670
C          0.36690       -0.76650       -4.03910
C          0.49570       -2.05870       -3.55960
C          0.60860       -3.13590       -4.42370
C          0.60350       -2.93320       -5.79910
O          0.68560       -3.90000       -6.74900
C          0.89230       -5.24770       -6.37460
C          2.34060       -5.53530       -5.98960
C          0.48580       -1.62700       -6.28260
C          0.37200       -0.56420       -5.41640
C          1.68320        1.02980       -3.07410
C          2.23810        0.89560       -1.81090
C          1.28790        0.31960       -0.91200
C          1.36820        0.05170        0.45210
C          0.24570       -0.46120        1.05860
C          0.04960       -0.81160        2.52320
C          0.86040       -2.00810        2.99020
C          0.91980       -2.29270        4.34690
C          1.59260       -3.40400        4.81970
C          2.22340       -4.26720        3.92830
O          2.89850       -5.39800        4.25790
C          3.10020       -5.73020        5.61850
C          4.20260       -4.89890        6.26780
C          2.15550       -3.98540        2.56230
C          1.47880       -2.87670        2.10030
C          0.33110        0.42170        3.36060
C          1.63030        0.69900        3.77550
C          1.90990        1.83890        4.49420
C          0.89540        2.74330        4.81880
O          1.27870        3.83240        5.52910
C          0.30920        4.79880        5.88640
C          1.01820        5.89970        6.65910
C         -0.40250        2.47200        4.40060
C         -0.67160        1.32370        3.67450
C         -1.39620       -1.22860        2.52000
C         -2.33010       -1.69950        3.43610
S         -2.36960       -2.01590        5.12070
S          3.83920        1.53540       -1.67250
C          3.76410        2.04010       -3.33630
C          4.60780        2.77160       -4.16270
C          4.02430        3.04680       -5.38830
S          2.44850        2.27280       -5.55620
C          2.54500        1.68280       -3.94500
C          4.57500        3.83370       -6.42260
C          3.90730        4.50310       -7.40610
C          4.61160        4.90420       -8.64960
O          5.80310        4.89910       -8.84960
C          3.53190        5.25830       -9.60230
C          3.63420        5.58890      -10.93910
C          2.46140        5.85640      -11.62770
F          2.51430        6.17900      -12.92530
C          1.22460        5.79090      -10.98450
F          0.10970        6.04120      -11.67950
C          1.12090        5.46970       -9.63920
C          2.28960        5.20250       -8.94550
C          2.51680        4.88090       -7.53740
C          1.65160        5.17660       -6.51650
C          0.33400        5.63810       -6.69900
N         -0.75100        6.00730       -6.77080
C          2.00770        5.15570       -5.15080
N          2.25720        5.21960       -4.03200
H         -3.93970       -2.92370        7.04810
H         -9.93600       -3.58170        5.28210
H         -8.32640       -4.45540        9.90720
H         -5.55220       -2.70000        3.44710
H         -1.93220       -0.60020       -1.59340
H          0.39220        3.19510       -3.22820
H         -1.28760        4.72560       -4.02970
H         -4.41220        5.65190       -5.74790
H         -2.66060        5.63220       -5.46370
H         -3.12390        5.72170       -2.96660
H         -3.81040        7.10990       -3.82080
H         -4.85160        5.77060       -3.31660
H         -3.92400        1.44940       -4.79830
H         -2.18580       -0.11800       -4.03100
H          0.50660       -2.24370       -2.49550
H          0.69690       -4.12480       -4.00250
H          0.62710       -5.81900       -7.26860
H          0.20770       -5.53540       -5.56720
H          2.45780       -6.59280       -5.76940
H          2.99890       -5.27070       -6.81320
H          2.63430       -4.95730       -5.11660
H          0.48410       -1.47560       -7.35010
H          0.27710        0.43760       -5.80940
H          2.27440        0.24830        1.00330
H          0.43960       -1.63050        5.05260
H          1.60680       -3.58310        5.88260
H          3.39420       -6.78330        5.59720
H          2.16280       -5.64620        6.18120
H          3.94180       -3.84340        6.27530
H          5.12970       -5.01970        5.71310
H          4.35680       -5.23160        7.29050
H          2.64190       -4.66180        1.87720
H          1.43610       -2.68570        1.03820
H          2.42620        0.00700        3.54280
H          2.91400        2.05800        4.82110
H         -0.46960        4.33820        6.51010
H         -0.16140        5.21160        4.98320
H          1.48550        5.48660        7.54870
H          0.30430        6.66410        6.95230
H          1.78950        6.34930        6.03990
H         -1.21390        3.14460        4.62930
H         -1.68620        1.13900        3.35280
H          5.57150        3.15110       -3.87600
H          5.65850        3.87030       -6.47900
H          4.58980        5.63980      -11.43620
H          0.14500        5.42640       -9.18320
