
  xtb     02012223243D
 energy: -197.808207520380 gnorm: 0.000768062708 xtb: 6.4.1 (unknown)
100111  0     0  0            999 V2000
   -1.1270   -7.6551   -2.8647 C   0  0  0  0  0  0  0  0  0  0  0  0
   -2.2387   -8.1081   -2.1902 C   0  0  0  0  0  0  0  0  0  0  0  0
   -2.9706   -7.3879   -1.1498 C   0  0  0  0  0  0  0  0  0  0  0  0
   -2.7425   -6.2771   -0.7024 O   0  0  0  0  0  0  0  0  0  0  0  0
   -4.0730   -8.2798   -0.7354 C   0  0  0  0  0  0  0  0  0  0  0  0
   -5.0444   -8.0615    0.2184 C   0  0  0  0  0  0  0  0  0  0  0  0
   -5.9894   -9.0576    0.4391 C   0  0  0  0  0  0  0  0  0  0  0  0
   -7.2155   -8.8237    1.6200 Cl  0  0  0  0  0  0  0  0  0  0  0  0
   -5.9351  -10.2412   -0.3006 C   0  0  0  0  0  0  0  0  0  0  0  0
   -7.2202  -11.5963   -0.0005 Br  0  0  0  0  0  0  0  0  0  0  0  0
   -4.9553  -10.4589   -1.2626 C   0  0  0  0  0  0  0  0  0  0  0  0
   -4.0136   -9.4683   -1.4833 C   0  0  0  0  0  0  0  0  0  0  0  0
   -2.8782   -9.3904   -2.4033 C   0  0  0  0  0  0  0  0  0  0  0  0
   -2.5178  -10.3724   -3.2909 C   0  0  0  0  0  0  0  0  0  0  0  0
   -3.2046  -11.5967   -3.4350 C   0  0  0  0  0  0  0  0  0  0  0  0
   -3.7167  -12.6103   -3.6013 N   0  0  0  0  0  0  0  0  0  0  0  0
   -1.4285  -10.3192   -4.1852 C   0  0  0  0  0  0  0  0  0  0  0  0
   -0.5601  -10.3579   -4.9368 N   0  0  0  0  0  0  0  0  0  0  0  0
   -0.4103   -6.4629   -2.7560 C   0  0  0  0  0  0  0  0  0  0  0  0
    0.7321   -6.1838   -3.5319 C   0  0  0  0  0  0  0  0  0  0  0  0
    1.3572   -7.1025   -4.5293 C   0  0  0  0  0  0  0  0  0  0  0  0
    2.2960   -8.0962   -3.8389 C   0  0  0  0  0  0  0  0  0  0  0  0
    1.2672   -4.9447   -3.2147 C   0  0  0  0  0  0  0  0  0  0  0  0
    2.6711   -4.0792   -3.8138 S   0  0  0  0  0  0  0  0  0  0  0  0
    2.2986   -2.7904   -2.7235 C   0  0  0  0  0  0  0  0  0  0  0  0
    2.8282   -1.5614   -2.3180 C   0  0  0  0  0  0  0  0  0  0  0  0
    4.0302   -0.9200   -2.6909 C   0  0  0  0  0  0  0  0  0  0  0  0
    4.4010    0.2896   -2.0233 C   0  0  0  0  0  0  0  0  0  0  0  0
    5.5692    0.7576   -2.4331 N   0  0  0  0  0  0  0  0  0  0  0  0
    6.1509   -0.2405   -3.5673 S   0  0  0  0  0  0  0  0  0  0  0  0
    4.9340   -1.3081   -3.5766 N   0  0  0  0  0  0  0  0  0  0  0  0
    3.5079    0.8478   -1.0819 C   0  0  0  0  0  0  0  0  0  0  0  0
    3.5790    2.0517   -0.3744 C   0  0  0  0  0  0  0  0  0  0  0  0
    4.6582    3.3864   -0.1690 S   0  0  0  0  0  0  0  0  0  0  0  0
    3.4712    4.1397    0.8817 C   0  0  0  0  0  0  0  0  0  0  0  0
    3.4706    5.3373    1.5789 C   0  0  0  0  0  0  0  0  0  0  0  0
    4.5951    6.3173    1.5095 C   0  0  0  0  0  0  0  0  0  0  0  0
    4.3108    7.3993    0.4637 C   0  0  0  0  0  0  0  0  0  0  0  0
    2.2682    5.5148    2.2935 C   0  0  0  0  0  0  0  0  0  0  0  0
    1.1589    4.1585    2.0729 S   0  0  0  0  0  0  0  0  0  0  0  0
    2.3004    3.3751    1.0492 C   0  0  0  0  0  0  0  0  0  0  0  0
    2.3773    2.1781    0.3344 C   0  0  0  0  0  0  0  0  0  0  0  0
    1.5810    1.0914    0.0971 N   0  0  0  0  0  0  0  0  0  0  0  0
    2.2558    0.2385   -0.7545 C   0  0  0  0  0  0  0  0  0  0  0  0
    1.9534   -1.0339   -1.3168 C   0  0  0  0  0  0  0  0  0  0  0  0
    0.9482   -1.9576   -1.1059 N   0  0  0  0  0  0  0  0  0  0  0  0
    1.1492   -3.0113   -1.9542 C   0  0  0  0  0  0  0  0  0  0  0  0
    0.5562   -4.2479   -2.2195 C   0  0  0  0  0  0  0  0  0  0  0  0
   -0.7992   -5.1443   -1.6482 S   0  0  0  0  0  0  0  0  0  0  0  0
   -0.0936   -2.0601   -0.1097 C   0  0  0  0  0  0  0  0  0  0  0  0
   -1.4753   -1.7689   -0.6954 C   0  0  0  0  0  0  0  0  0  0  0  0
    0.2208    1.1087    0.5860 C   0  0  0  0  0  0  0  0  0  0  0  0
    0.1399    0.7601    2.0720 C   0  0  0  0  0  0  0  0  0  0  0  0
    2.0152    6.6340    3.0853 C   0  0  0  0  0  0  0  0  0  0  0  0
    0.9130    6.9807    3.8367 C   0  0  0  0  0  0  0  0  0  0  0  0
   -0.3226    6.2106    3.9609 C   0  0  0  0  0  0  0  0  0  0  0  0
   -0.5933    5.1354    3.4549 O   0  0  0  0  0  0  0  0  0  0  0  0
   -1.2089    6.9998    4.8429 C   0  0  0  0  0  0  0  0  0  0  0  0
   -2.4910    6.7044    5.2575 C   0  0  0  0  0  0  0  0  0  0  0  0
   -3.1206    7.6198    6.0933 C   0  0  0  0  0  0  0  0  0  0  0  0
   -4.5167    7.3708    6.5941 C   0  0  0  0  0  0  0  0  0  0  0  0
   -5.0666    6.2571    6.0966 F   0  0  0  0  0  0  0  0  0  0  0  0
   -4.5558    7.2512    7.9339 F   0  0  0  0  0  0  0  0  0  0  0  0
   -5.3503    8.3805    6.2869 F   0  0  0  0  0  0  0  0  0  0  0  0
   -2.4783    8.7868    6.4953 C   0  0  0  0  0  0  0  0  0  0  0  0
   -1.1880    9.0745    6.0737 C   0  0  0  0  0  0  0  0  0  0  0  0
   -0.5457    8.1726    5.2391 C   0  0  0  0  0  0  0  0  0  0  0  0
    0.7888    8.1838    4.6310 C   0  0  0  0  0  0  0  0  0  0  0  0
    1.7255    9.1688    4.8170 C   0  0  0  0  0  0  0  0  0  0  0  0
    3.0168    9.1973    4.2501 C   0  0  0  0  0  0  0  0  0  0  0  0
    4.0831    9.2934    3.8325 N   0  0  0  0  0  0  0  0  0  0  0  0
    1.5253   10.3116    5.6202 C   0  0  0  0  0  0  0  0  0  0  0  0
    1.4335   11.2614    6.2581 N   0  0  0  0  0  0  0  0  0  0  0  0
   -0.7224   -8.3293   -3.6069 H   0  0  0  0  0  0  0  0  0  0  0  0
   -5.0687   -7.1406    0.7790 H   0  0  0  0  0  0  0  0  0  0  0  0
   -4.9527  -11.3877   -1.8095 H   0  0  0  0  0  0  0  0  0  0  0  0
    0.5989   -7.6506   -5.0901 H   0  0  0  0  0  0  0  0  0  0  0  0
    1.9341   -6.4992   -5.2329 H   0  0  0  0  0  0  0  0  0  0  0  0
    1.7507   -8.7108   -3.1265 H   0  0  0  0  0  0  0  0  0  0  0  0
    3.0848   -7.5664   -3.3102 H   0  0  0  0  0  0  0  0  0  0  0  0
    2.7483   -8.7486   -4.5800 H   0  0  0  0  0  0  0  0  0  0  0  0
    4.7675    6.7872    2.4789 H   0  0  0  0  0  0  0  0  0  0  0  0
    5.5003    5.7773    1.2251 H   0  0  0  0  0  0  0  0  0  0  0  0
    4.1787    6.9510   -0.5182 H   0  0  0  0  0  0  0  0  0  0  0  0
    3.4105    7.9542    0.7167 H   0  0  0  0  0  0  0  0  0  0  0  0
    5.1433    8.0955    0.4209 H   0  0  0  0  0  0  0  0  0  0  0  0
   -0.0877   -3.0909    0.2603 H   0  0  0  0  0  0  0  0  0  0  0  0
    0.1391   -1.4076    0.7263 H   0  0  0  0  0  0  0  0  0  0  0  0
   -2.2097   -1.7262    0.1035 H   0  0  0  0  0  0  0  0  0  0  0  0
   -1.4901   -0.8275   -1.2411 H   0  0  0  0  0  0  0  0  0  0  0  0
   -1.7648   -2.5601   -1.3813 H   0  0  0  0  0  0  0  0  0  0  0  0
   -0.1589    2.1272    0.4516 H   0  0  0  0  0  0  0  0  0  0  0  0
   -0.3896    0.4462   -0.0204 H   0  0  0  0  0  0  0  0  0  0  0  0
    0.6589   -0.1696    2.2967 H   0  0  0  0  0  0  0  0  0  0  0  0
    0.5913    1.5492    2.6666 H   0  0  0  0  0  0  0  0  0  0  0  0
   -0.9006    0.6651    2.3684 H   0  0  0  0  0  0  0  0  0  0  0  0
    2.8335    7.3405    3.1003 H   0  0  0  0  0  0  0  0  0  0  0  0
   -2.9781    5.7960    4.9386 H   0  0  0  0  0  0  0  0  0  0  0  0
   -2.9955    9.4772    7.1443 H   0  0  0  0  0  0  0  0  0  0  0  0
   -0.7145    9.9854    6.3993 H   0  0  0  0  0  0  0  0  0  0  0  0
  1  2  2  0  0  0  0
  2  3  1  0  0  0  0
  3  4  2  0  0  0  0
  3  5  1  0  0  0  0
  5  6  2  0  0  0  0
  6  7  1  0  0  0  0
  7  8  1  0  0  0  0
  7  9  2  0  0  0  0
  9 10  1  0  0  0  0
  9 11  1  0  0  0  0
 11 12  2  0  0  0  0
 12 13  1  0  0  0  0
 13 14  2  0  0  0  0
 14 15  1  0  0  0  0
 15 16  3  0  0  0  0
 14 17  1  0  0  0  0
 17 18  3  0  0  0  0
  1 19  1  0  0  0  0
 19 20  2  0  0  0  0
 20 21  1  0  0  0  0
 21 22  1  0  0  0  0
 20 23  1  0  0  0  0
 23 24  1  0  0  0  0
 24 25  1  0  0  0  0
 25 26  1  0  0  0  0
 26 27  1  0  0  0  0
 27 28  1  0  0  0  0
 28 29  2  0  0  0  0
 29 30  1  0  0  0  0
 30 31  1  0  0  0  0
 28 32  1  0  0  0  0
 32 33  1  0  0  0  0
 33 34  1  0  0  0  0
 34 35  1  0  0  0  0
 35 36  1  0  0  0  0
 36 37  1  0  0  0  0
 37 38  1  0  0  0  0
 36 39  2  0  0  0  0
 39 40  1  0  0  0  0
 40 41  1  0  0  0  0
 41 42  1  0  0  0  0
 42 43  1  0  0  0  0
 43 44  1  0  0  0  0
 44 45  1  0  0  0  0
 45 46  1  0  0  0  0
 46 47  1  0  0  0  0
 47 48  1  0  0  0  0
 48 49  1  0  0  0  0
 46 50  1  0  0  0  0
 50 51  1  0  0  0  0
 43 52  1  0  0  0  0
 52 53  1  0  0  0  0
 39 54  1  0  0  0  0
 54 55  2  0  0  0  0
 55 56  1  0  0  0  0
 56 57  2  0  0  0  0
 56 58  1  0  0  0  0
 58 59  2  0  0  0  0
 59 60  1  0  0  0  0
 60 61  1  0  0  0  0
 61 62  1  0  0  0  0
 61 63  1  0  0  0  0
 61 64  1  0  0  0  0
 60 65  2  0  0  0  0
 65 66  1  0  0  0  0
 66 67  2  0  0  0  0
 67 68  1  0  0  0  0
 68 69  2  0  0  0  0
 69 70  1  0  0  0  0
 70 71  3  0  0  0  0
 69 72  1  0  0  0  0
 72 73  3  0  0  0  0
 13  2  1  0  0  0  0
 49 19  1  0  0  0  0
 68 55  1  0  0  0  0
 12  5  1  0  0  0  0
 48 23  2  0  0  0  0
 67 58  1  0  0  0  0
 47 25  2  0  0  0  0
 45 26  2  0  0  0  0
 31 27  2  0  0  0  0
 44 32  2  0  0  0  0
 42 33  2  0  0  0  0
 41 35  2  0  0  0  0
  1 74  1  0  0  0  0
  6 75  1  0  0  0  0
 11 76  1  0  0  0  0
 21 77  1  0  0  0  0
 21 78  1  0  0  0  0
 22 79  1  0  0  0  0
 22 80  1  0  0  0  0
 22 81  1  0  0  0  0
 37 82  1  0  0  0  0
 37 83  1  0  0  0  0
 38 84  1  0  0  0  0
 38 85  1  0  0  0  0
 38 86  1  0  0  0  0
 50 87  1  0  0  0  0
 50 88  1  0  0  0  0
 51 89  1  0  0  0  0
 51 90  1  0  0  0  0
 51 91  1  0  0  0  0
 52 92  1  0  0  0  0
 52 93  1  0  0  0  0
 53 94  1  0  0  0  0
 53 95  1  0  0  0  0
 53 96  1  0  0  0  0
 54 97  1  0  0  0  0
 59 98  1  0  0  0  0
 65 99  1  0  0  0  0
 66100  1  0  0  0  0
M  END
