97

C         -2.08090        5.05390       -5.09940
C         -3.24110        5.58040       -4.57610
C         -3.98740        5.06000       -3.43210
O         -3.72660        4.08970       -2.74190
C         -5.15550        5.95030       -3.26890
C         -6.16650        5.88100       -2.33410
C         -7.17540        6.83680       -2.38010
Cl        -8.45340        6.78390       -1.23230
C         -7.14390        7.83220       -3.35920
Br        -8.51830        9.13020       -3.42430
C         -6.12300        7.90090       -4.30050
C         -5.11720        6.95050       -4.25550
C         -3.92940        6.74810       -5.08620
C         -3.56670        7.54270       -6.14430
C         -2.42910        7.36680       -6.95900
N         -1.52770        7.29530       -7.66830
C         -4.29810        8.67170       -6.57010
N         -4.84490        9.60020       -6.96560
C         -1.31790        3.95150       -4.71450
C         -0.14140        3.56410       -5.38710
C          0.47800        4.27690       -6.54380
C          1.34380        5.44450       -6.06140
C          0.42790        2.44360       -4.80230
S          1.86110        1.50620       -5.18620
C          1.49840        0.46320       -3.85550
C          2.00650       -0.68840       -3.23870
C          3.06850       -1.55270       -3.58860
C          3.29140       -2.73300       -2.80330
N          4.27520       -3.47850       -3.28050
S          4.87460       -2.75660       -4.59890
N          3.90080       -1.46440       -4.61380
C          2.53480       -2.92270       -1.62450
C          2.66880       -3.84370       -0.57650
S          3.64550       -5.20520       -0.15810
C          2.87430       -5.24280        1.40990
C          3.04940       -6.06950        2.52270
C          4.07280       -7.15050        2.60290
C          5.30980       -6.66000        3.35970
C          2.23120       -5.68020        3.57760
S          1.19850       -4.31740        3.14600
C          1.90270       -4.24500        1.57430
C          1.77890       -3.44970        0.43300
N          1.08200       -2.34030        0.03280
C          1.51580       -2.00690       -1.23650
C          1.15730       -0.96420       -2.12670
N          0.13030       -0.03900       -2.11080
C          0.34220        0.82780       -3.15250
C         -0.28330        1.95270       -3.69110
S         -1.68890        2.88700       -3.35400
C         -1.21570       -0.18000       -1.59710
C         -2.14680       -0.76890       -2.65660
C          0.37780       -1.53530        1.00780
C         -0.96480       -2.14950        1.40340
C          2.12600       -6.31320        4.83260
C          1.60060       -5.83080        5.99440
C          1.13270       -6.77580        7.04230
O          1.37360       -7.95860        7.10420
C          0.27930       -5.95990        7.93420
C         -0.51300       -6.34280        9.00460
Cl        -0.58930       -7.98180        9.50520
C         -1.25300       -5.36930        9.67390
C         -1.19530       -4.04720        9.27010
C         -0.39880       -3.64620        8.20360
C          0.33990       -4.60820        7.53910
C          1.28230       -4.49190        6.42710
C          1.94760       -3.34900        6.06460
C          1.63940       -2.06350        6.54900
N          1.40750       -0.98870        6.87970
C          3.07790       -3.36060        5.22060
N          4.03290       -3.34860        4.58330
H         -1.67770        5.57280       -5.95800
H         -6.17320        5.10360       -1.58670
H         -6.13980        8.68660       -5.03810
H          1.10750        3.56710       -7.08400
H         -0.28300        4.65050       -7.23020
H          2.13630        5.08400       -5.41000
H          0.74500        6.16820       -5.51370
H          1.79200        5.94520       -6.91440
H          3.65800       -8.02360        3.11110
H          4.35600       -7.43890        1.58890
H          5.04630       -6.37180        4.37440
H          5.73810       -5.79450        2.86090
H          6.05810       -7.44690        3.39990
H         -1.21580       -0.83060       -0.73140
H         -1.56980        0.81320       -1.30580
H         -1.78430       -1.74270       -2.98030
H         -3.14310       -0.88560       -2.23990
H         -2.21160       -0.11520       -3.52190
H          0.26390       -0.52440        0.61500
H          1.00770       -1.47050        1.90270
H         -0.80740       -3.06660        1.96440
H         -1.51360       -1.45410        2.03180
H         -1.57020       -2.39220        0.53280
H          2.42550       -7.35690        4.86210
H         -1.87100       -5.65920       10.50860
H         -1.78100       -3.30940        9.79690
H         -0.37230       -2.61130        7.90350
