97

C         -3.65810       -5.20270       -4.50250
C         -4.79800       -4.55130       -4.91990
C         -5.23320       -3.21970       -4.50370
O         -4.70830       -2.47510       -3.69390
C         -6.46720       -2.93810       -5.26670
C         -7.25010       -1.80340       -5.24860
C         -8.37260       -1.76230       -6.06840
Cl        -9.37150       -0.36380       -6.07710
C         -8.67950       -2.85670       -6.87970
Br       -10.20460       -2.79940       -7.99750
C         -7.89020       -4.00120       -6.89450
C         -6.77150       -4.04320       -6.07990
C         -5.75330       -5.07430       -5.87390
C         -5.74570       -6.30350       -6.48380
C         -4.78090       -7.31410       -6.29370
N         -4.03920       -8.18650       -6.19590
C         -6.72930       -6.73620       -7.39820
N         -7.49440       -7.14800       -8.14830
C         -2.65180       -4.81550       -3.61830
C         -1.51760       -5.61080       -3.35710
C         -1.20990       -6.92670       -3.99240
C         -0.54790       -6.72900       -5.35910
C         -0.66050       -4.98820       -2.46350
S          0.89080       -5.45520       -1.79050
C          0.92440       -3.96770       -0.90980
C          1.75560       -3.28830       -0.00640
C          2.93990       -3.64900        0.67870
C          3.47740       -2.75550        1.67110
N          4.53870       -3.26040        2.27860
S          4.84500       -4.72240        1.65700
N          3.63170       -4.77290        0.58720
C          2.89790       -1.47510        1.83430
C          3.25940       -0.34710        2.58760
S          4.43020        0.11380        3.77420
C          3.75160        1.73150        3.77290
C          4.06880        2.88050        4.48530
C          5.21660        2.94900        5.43850
C          6.46550        3.50110        4.74530
C          3.21630        3.94500        4.14310
S          2.02290        3.48210        2.92750
C          2.67370        1.88760        2.88520
C          2.39840        0.69530        2.21210
N          1.50520        0.25180        1.26880
C          1.77650       -1.08450        1.05270
C          1.11510       -2.04720        0.26190
N         -0.09720       -2.00060       -0.39540
C         -0.20490       -3.16070       -1.12270
C         -1.11540       -3.73560       -2.00910
S         -2.62430       -3.29790       -2.71310
C         -1.28700       -1.29000        0.03230
C         -2.23120       -2.20920        0.80610
C          0.92130        1.18230        0.32230
C          2.00400        1.94110       -0.44430
C          3.31830        5.21470        4.72190
C          2.57610        6.35510        4.53820
C          1.42170        6.50810        3.63740
O          0.95370        5.66910        2.88400
C          0.94830        7.87690        3.83520
C          1.78330        8.53200        4.79820
C          1.40170        9.81440        5.03660
S          0.01930       10.23240        4.08840
C         -0.05800        8.65190        3.34800
C         -1.09720        8.29850        2.35540
C          2.80550        7.60500        5.24210
C          3.78080        7.91220        6.15790
C          4.79570        7.05130        6.61380
N          5.64730        6.39800        7.02580
C          3.84720        9.19130        6.74690
N          3.91660       10.22860        7.23360
H         -3.49150       -6.17830       -4.93780
H         -6.99540       -0.96880       -4.61510
H         -8.16510       -4.82160       -7.53730
H         -0.52200       -7.46770       -3.33970
H         -2.11270       -7.52760       -4.11060
H          0.37830       -6.16900       -5.25320
H         -1.20730       -6.18630       -6.03240
H         -0.32380       -7.69520       -5.80160
H          4.97680        3.57250        6.30080
H          5.42450        1.93800        5.79460
H          6.74190        2.86970        3.90400
H          6.28940        4.51030        4.38070
H          7.29300        3.53010        5.44810
H         -1.79800       -0.89600       -0.85160
H         -0.99560       -0.47080        0.68690
H         -3.07820       -1.63290        1.16720
H         -2.60560       -3.00840        0.17330
H         -1.71640       -2.64680        1.65900
H          0.31700        0.63110       -0.39520
H          0.29260        1.89020        0.87090
H          1.53740        2.58090       -1.18780
H          2.59170        2.56390        0.22360
H          2.66740        1.24240       -0.94980
H          4.12170        5.29210        5.44230
H          1.82400       10.54600        5.69580
H         -1.05200        8.96660        1.49590
H         -2.09150        8.38650        2.79300
H         -0.94030        7.27430        2.02430
