
  xtb     02012222553D
 energy: -194.610762557184 gnorm: 0.000491655536 xtb: 6.4.1 (unknown)
 97108  0     0  0            999 V2000
    4.6395   -6.0215    2.4799 C   0  0  0  0  0  0  0  0  0  0  0  0
    5.5112   -6.2193    3.5184 C   0  0  0  0  0  0  0  0  0  0  0  0
    5.6143   -5.3303    4.6954 C   0  0  0  0  0  0  0  0  0  0  0  0
    4.8660   -4.4368    5.0287 O   0  0  0  0  0  0  0  0  0  0  0  0
    6.9071   -5.6784    5.3291 C   0  0  0  0  0  0  0  0  0  0  0  0
    7.5028   -5.1000    6.4303 C   0  0  0  0  0  0  0  0  0  0  0  0
    8.7435   -5.5772    6.8392 C   0  0  0  0  0  0  0  0  0  0  0  0
    9.5149   -4.8817    8.2076 Cl  0  0  0  0  0  0  0  0  0  0  0  0
    9.3562   -6.6164    6.1337 C   0  0  0  0  0  0  0  0  0  0  0  0
   11.0493   -7.2551    6.6833 Br  0  0  0  0  0  0  0  0  0  0  0  0
    8.7562   -7.1986    5.0236 C   0  0  0  0  0  0  0  0  0  0  0  0
    7.5199   -6.7248    4.6180 C   0  0  0  0  0  0  0  0  0  0  0  0
    6.6513   -7.1109    3.5105 C   0  0  0  0  0  0  0  0  0  0  0  0
    6.8302   -8.1823    2.6758 C   0  0  0  0  0  0  0  0  0  0  0  0
    5.8979   -8.5805    1.6941 C   0  0  0  0  0  0  0  0  0  0  0  0
    5.1661   -8.9678    0.8990 N   0  0  0  0  0  0  0  0  0  0  0  0
    7.9458   -9.0436    2.7270 C   0  0  0  0  0  0  0  0  0  0  0  0
    8.8368   -9.7666    2.7256 N   0  0  0  0  0  0  0  0  0  0  0  0
    3.4539   -5.2613    2.5222 C   0  0  0  0  0  0  0  0  0  0  0  0
    2.4981   -5.1170    3.5237 C   0  0  0  0  0  0  0  0  0  0  0  0
    2.4845   -5.8947    4.7956 C   0  0  0  0  0  0  0  0  0  0  0  0
    1.1422   -6.5767    5.0528 C   0  0  0  0  0  0  0  0  0  0  0  0
    1.4881   -4.2299    3.1268 C   0  0  0  0  0  0  0  0  0  0  0  0
    0.0814   -3.5877    3.9472 S   0  0  0  0  0  0  0  0  0  0  0  0
   -0.2436   -2.5921    2.5746 C   0  0  0  0  0  0  0  0  0  0  0  0
   -1.1723   -1.6305    2.1562 C   0  0  0  0  0  0  0  0  0  0  0  0
   -2.3573   -1.1652    2.7682 C   0  0  0  0  0  0  0  0  0  0  0  0
   -3.1653   -0.2098    2.0717 C   0  0  0  0  0  0  0  0  0  0  0  0
   -4.2661    0.1030    2.7367 N   0  0  0  0  0  0  0  0  0  0  0  0
   -4.2821   -0.7319    4.1232 S   0  0  0  0  0  0  0  0  0  0  0  0
   -2.8845   -1.5241    3.9282 N   0  0  0  0  0  0  0  0  0  0  0  0
   -2.6920    0.3189    0.8498 C   0  0  0  0  0  0  0  0  0  0  0  0
   -3.1746    1.3719    0.0657 C   0  0  0  0  0  0  0  0  0  0  0  0
   -4.5049    2.4756    0.0360 S   0  0  0  0  0  0  0  0  0  0  0  0
   -3.7686    3.2721   -1.3436 C   0  0  0  0  0  0  0  0  0  0  0  0
   -4.1327    4.3892   -2.0772 C   0  0  0  0  0  0  0  0  0  0  0  0
   -5.3993    5.1414   -1.8345 C   0  0  0  0  0  0  0  0  0  0  0  0
   -6.5014    4.6767   -2.7910 C   0  0  0  0  0  0  0  0  0  0  0  0
   -3.1831    4.6774   -3.0802 C   0  0  0  0  0  0  0  0  0  0  0  0
   -1.8486    3.5193   -3.0820 S   0  0  0  0  0  0  0  0  0  0  0  0
   -2.5575    2.6817   -1.7558 C   0  0  0  0  0  0  0  0  0  0  0  0
   -2.2324    1.5896   -0.9492 C   0  0  0  0  0  0  0  0  0  0  0  0
   -1.2125    0.6832   -0.8418 N   0  0  0  0  0  0  0  0  0  0  0  0
   -1.4653   -0.1136    0.2588 C   0  0  0  0  0  0  0  0  0  0  0  0
   -0.7568   -1.1839    0.8672 C   0  0  0  0  0  0  0  0  0  0  0  0
    0.3667   -1.9076    0.4988 N   0  0  0  0  0  0  0  0  0  0  0  0
    0.6749   -2.7522    1.5309 C   0  0  0  0  0  0  0  0  0  0  0  0
    1.6570   -3.6975    1.8391 C   0  0  0  0  0  0  0  0  0  0  0  0
    3.0444   -4.3571    1.0626 S   0  0  0  0  0  0  0  0  0  0  0  0
    0.9302   -2.1502   -0.8120 C   0  0  0  0  0  0  0  0  0  0  0  0
   -0.1216   -2.6760   -1.7851 C   0  0  0  0  0  0  0  0  0  0  0  0
    0.0049    0.8887   -1.5949 C   0  0  0  0  0  0  0  0  0  0  0  0
    1.1395    1.3816   -0.7009 C   0  0  0  0  0  0  0  0  0  0  0  0
   -3.2952    5.7705   -3.9360 C   0  0  0  0  0  0  0  0  0  0  0  0
   -2.4627    6.2327   -4.9344 C   0  0  0  0  0  0  0  0  0  0  0  0
   -1.1988    5.6258   -5.3452 C   0  0  0  0  0  0  0  0  0  0  0  0
   -0.6801    4.6133   -4.9150 O   0  0  0  0  0  0  0  0  0  0  0  0
   -0.6580    6.5044   -6.4089 C   0  0  0  0  0  0  0  0  0  0  0  0
   -1.5481    7.5696   -6.6322 C   0  0  0  0  0  0  0  0  0  0  0  0
   -1.2589    8.5381   -7.5778 C   0  0  0  0  0  0  0  0  0  0  0  0
   -0.0732    8.4228   -8.2903 C   0  0  0  0  0  0  0  0  0  0  0  0
    0.2259    9.3482   -9.2049 F   0  0  0  0  0  0  0  0  0  0  0  0
    0.8175    7.3728   -8.0813 C   0  0  0  0  0  0  0  0  0  0  0  0
    1.9490    7.2979   -8.7873 F   0  0  0  0  0  0  0  0  0  0  0  0
    0.5197    6.3987   -7.1258 C   0  0  0  0  0  0  0  0  0  0  0  0
    1.3723    5.3975   -6.9248 F   0  0  0  0  0  0  0  0  0  0  0  0
   -2.6922    7.4176   -5.7283 C   0  0  0  0  0  0  0  0  0  0  0  0
   -3.7672    8.2697   -5.6771 C   0  0  0  0  0  0  0  0  0  0  0  0
   -4.8779    8.1455   -4.8165 C   0  0  0  0  0  0  0  0  0  0  0  0
   -5.8150    8.1208   -4.1518 N   0  0  0  0  0  0  0  0  0  0  0  0
   -3.9172    9.4086   -6.4963 C   0  0  0  0  0  0  0  0  0  0  0  0
   -4.1008   10.3476   -7.1304 N   0  0  0  0  0  0  0  0  0  0  0  0
    4.9096   -6.4101    1.5043 H   0  0  0  0  0  0  0  0  0  0  0  0
    7.0167   -4.2962    6.9599 H   0  0  0  0  0  0  0  0  0  0  0  0
    9.2649   -7.9931    4.5014 H   0  0  0  0  0  0  0  0  0  0  0  0
    2.7166   -5.2119    5.6180 H   0  0  0  0  0  0  0  0  0  0  0  0
    3.2725   -6.6492    4.7615 H   0  0  0  0  0  0  0  0  0  0  0  0
    0.3497   -5.8483    5.1977 H   0  0  0  0  0  0  0  0  0  0  0  0
    0.8767   -7.2204    4.2170 H   0  0  0  0  0  0  0  0  0  0  0  0
    1.2120   -7.1874    5.9491 H   0  0  0  0  0  0  0  0  0  0  0  0
   -5.7165    4.9516   -0.8072 H   0  0  0  0  0  0  0  0  0  0  0  0
   -5.2479    6.2153   -1.9526 H   0  0  0  0  0  0  0  0  0  0  0  0
   -6.6972    3.6156   -2.6557 H   0  0  0  0  0  0  0  0  0  0  0  0
   -6.2132    4.8487   -3.8252 H   0  0  0  0  0  0  0  0  0  0  0  0
   -7.4149    5.2294   -2.5928 H   0  0  0  0  0  0  0  0  0  0  0  0
    1.4209   -1.2549   -1.1942 H   0  0  0  0  0  0  0  0  0  0  0  0
    1.7067   -2.9076   -0.6791 H   0  0  0  0  0  0  0  0  0  0  0  0
   -0.9480   -1.9771   -1.8911 H   0  0  0  0  0  0  0  0  0  0  0  0
    0.3276   -2.8398   -2.7607 H   0  0  0  0  0  0  0  0  0  0  0  0
   -0.5215   -3.6214   -1.4258 H   0  0  0  0  0  0  0  0  0  0  0  0
   -0.2171    1.6515   -2.3448 H   0  0  0  0  0  0  0  0  0  0  0  0
    0.2783   -0.0188   -2.1329 H   0  0  0  0  0  0  0  0  0  0  0  0
    2.0426    1.5124   -1.2904 H   0  0  0  0  0  0  0  0  0  0  0  0
    0.8742    2.3399   -0.2608 H   0  0  0  0  0  0  0  0  0  0  0  0
    1.3423    0.6819    0.1067 H   0  0  0  0  0  0  0  0  0  0  0  0
   -4.1877    6.3566   -3.7655 H   0  0  0  0  0  0  0  0  0  0  0  0
   -1.9067    9.3737   -7.7837 H   0  0  0  0  0  0  0  0  0  0  0  0
  1  2  2  0  0  0  0
  2  3  1  0  0  0  0
  3  4  2  0  0  0  0
  3  5  1  0  0  0  0
  5  6  2  0  0  0  0
  6  7  1  0  0  0  0
  7  8  1  0  0  0  0
  7  9  2  0  0  0  0
  9 10  1  0  0  0  0
  9 11  1  0  0  0  0
 11 12  2  0  0  0  0
 12 13  1  0  0  0  0
 13 14  2  0  0  0  0
 14 15  1  0  0  0  0
 15 16  3  0  0  0  0
 14 17  1  0  0  0  0
 17 18  3  0  0  0  0
  1 19  1  0  0  0  0
 19 20  2  0  0  0  0
 20 21  1  0  0  0  0
 21 22  1  0  0  0  0
 20 23  1  0  0  0  0
 23 24  1  0  0  0  0
 24 25  1  0  0  0  0
 25 26  1  0  0  0  0
 26 27  1  0  0  0  0
 27 28  1  0  0  0  0
 28 29  2  0  0  0  0
 29 30  1  0  0  0  0
 30 31  1  0  0  0  0
 28 32  1  0  0  0  0
 32 33  1  0  0  0  0
 33 34  1  0  0  0  0
 34 35  1  0  0  0  0
 35 36  1  0  0  0  0
 36 37  1  0  0  0  0
 37 38  1  0  0  0  0
 36 39  2  0  0  0  0
 39 40  1  0  0  0  0
 40 41  1  0  0  0  0
 41 42  1  0  0  0  0
 42 43  1  0  0  0  0
 43 44  1  0  0  0  0
 44 45  1  0  0  0  0
 45 46  1  0  0  0  0
 46 47  1  0  0  0  0
 47 48  1  0  0  0  0
 48 49  1  0  0  0  0
 46 50  1  0  0  0  0
 50 51  1  0  0  0  0
 43 52  1  0  0  0  0
 52 53  1  0  0  0  0
 39 54  1  0  0  0  0
 54 55  2  0  0  0  0
 55 56  1  0  0  0  0
 56 57  2  0  0  0  0
 56 58  1  0  0  0  0
 58 59  2  0  0  0  0
 59 60  1  0  0  0  0
 60 61  2  0  0  0  0
 61 62  1  0  0  0  0
 61 63  1  0  0  0  0
 63 64  1  0  0  0  0
 63 65  2  0  0  0  0
 65 66  1  0  0  0  0
 59 67  1  0  0  0  0
 67 68  2  0  0  0  0
 68 69  1  0  0  0  0
 69 70  3  0  0  0  0
 68 71  1  0  0  0  0
 71 72  3  0  0  0  0
 13  2  1  0  0  0  0
 49 19  1  0  0  0  0
 67 55  1  0  0  0  0
 12  5  1  0  0  0  0
 48 23  2  0  0  0  0
 65 58  1  0  0  0  0
 47 25  2  0  0  0  0
 45 26  2  0  0  0  0
 31 27  2  0  0  0  0
 44 32  2  0  0  0  0
 42 33  2  0  0  0  0
 41 35  2  0  0  0  0
  1 73  1  0  0  0  0
  6 74  1  0  0  0  0
 11 75  1  0  0  0  0
 21 76  1  0  0  0  0
 21 77  1  0  0  0  0
 22 78  1  0  0  0  0
 22 79  1  0  0  0  0
 22 80  1  0  0  0  0
 37 81  1  0  0  0  0
 37 82  1  0  0  0  0
 38 83  1  0  0  0  0
 38 84  1  0  0  0  0
 38 85  1  0  0  0  0
 50 86  1  0  0  0  0
 50 87  1  0  0  0  0
 51 88  1  0  0  0  0
 51 89  1  0  0  0  0
 51 90  1  0  0  0  0
 52 91  1  0  0  0  0
 52 92  1  0  0  0  0
 53 93  1  0  0  0  0
 53 94  1  0  0  0  0
 53 95  1  0  0  0  0
 54 96  1  0  0  0  0
 60 97  1  0  0  0  0
M  END
