156

C          5.49780       -1.66420        6.96650
C          5.83700       -2.63430        7.88150
C          5.36950       -4.03070        7.96170
O          4.63200       -4.64480        7.21650
C          5.99320       -4.59130        9.18070
C          5.84910       -5.85970        9.70280
C          6.52830       -6.17320       10.87410
Cl         6.37370       -7.74210       11.55810
C          7.33120       -5.20890       11.48800
Br         8.25250       -5.63260       13.08490
C          7.47680       -3.93230       10.95860
C          6.80060       -3.61910        9.79070
C          6.74180       -2.39460        8.99310
C          7.45020       -1.25450        9.27470
C          7.45950       -0.05590        8.52950
N          7.54340        0.95790        7.99520
C          8.31290       -1.11660       10.38370
N          9.02870       -0.93220       11.26190
C          4.65560       -1.68180        5.84810
S          4.48960       -0.14510        4.98240
C          3.41470       -0.87580        3.88220
C          2.61410       -0.49650        2.78420
C          1.88180       -1.58250        2.32330
C          2.23990       -2.82380        3.12640
C          3.20110       -2.23500        4.14530
C          3.89000       -2.68470        5.25160
C          3.01670       -3.84840        2.31370
C          3.56960       -4.95480        2.95200
C          4.31370       -5.87840        2.24440
C          4.54100       -5.72330        0.88270
C          5.31760       -6.74940        0.11040
C          4.38820       -7.85470       -0.39530
C          3.99720       -4.61420        0.25170
C          3.25080       -3.68530        0.95510
C          1.02330       -3.36920        3.86150
C          0.62740       -4.69720        3.81470
C         -0.47990       -5.12320        4.52710
C         -1.22440       -4.24040        5.29530
C         -2.40220       -4.71350        6.09590
C         -1.97300       -5.05960        7.52320
C         -0.82550       -2.90990        5.33780
C          0.28180       -2.48080        4.63380
C          1.01300       -1.22640        1.25900
C          0.08640       -1.99370        0.49690
C         -0.17970       -3.44640        0.76010
C         -1.51180       -3.61660        1.49340
C         -0.62590       -1.37130       -0.49130
C         -0.49360        0.00060       -0.78850
C         -1.24140        0.65620       -1.78000
S         -2.44310       -0.15590       -2.74790
C         -2.76690        1.33080       -3.54760
C         -3.67060        1.75450       -4.54370
C         -3.50080        3.12540       -4.75440
C         -2.36720        3.65390       -3.89310
C         -2.90590        4.72790       -2.95930
C         -2.36910        6.00350       -2.86020
C         -2.91760        6.92910       -1.98960
C         -4.00610        6.60850       -1.19090
C         -4.62230        7.62990       -0.28040
C         -5.72200        8.40220       -1.01210
C         -4.53740        5.32850       -1.28930
C         -3.99640        4.40270       -2.15920
C         -1.28030        4.10510       -4.85470
C         -0.09330        3.39920       -5.00020
C          0.85680        3.80200       -5.92130
C          0.64550        4.90800       -6.73200
C          1.69750        5.36650       -7.69860
C          2.66020        6.34140       -7.01710
C         -0.55060        5.60110       -6.59680
C         -1.50320        5.20250       -5.67950
C         -1.99440        2.40150       -3.11350
C         -1.10220        2.02890       -2.07560
C         -0.14710        2.79220       -1.33600
C          0.02370        4.25460       -1.62470
C          1.26370        4.90110       -1.01890
C          0.57380        2.16230       -0.36240
C          0.42500        0.79040       -0.06060
C          1.15330        0.14540        0.95060
S          2.31250        0.97780        1.95250
C         -4.40500        3.63970       -5.66100
C         -5.24900        2.66330       -6.19210
S         -4.91890        1.08050       -5.49270
C         -6.31440        2.90950       -7.07130
C         -7.08330        2.03470       -7.79100
C         -8.44150        2.44920       -8.21530
O         -8.90240        3.56410       -8.19640
C         -9.11440        1.18300       -8.61080
C         -8.19170        0.12190       -8.55540
C         -8.57900       -1.17320       -8.84810
C         -9.90420       -1.39180       -9.19760
F        -10.30820       -2.63480       -9.47130
C        -10.83000       -0.35340       -9.26840
F        -12.09570       -0.60470       -9.61460
C        -10.42970        0.95200       -8.97160
F        -11.31970        1.93700       -9.03870
C         -6.88200        0.66550       -8.18900
C         -5.67760        0.06910       -8.46490
C         -5.54010       -1.24940       -8.94050
N         -5.37680       -2.32320       -9.31160
C         -4.45020        0.76150       -8.40400
N         -3.44410        1.31380       -8.42180
H          5.95070       -0.69390        7.13160
H          5.22260       -6.58750        9.21200
H          8.10670       -3.22190       11.46830
H          3.85970       -3.67780        5.65780
H          3.42040       -5.09870        4.01040
H          4.73260       -6.72910        2.76230
H          6.08540       -7.18970        0.74960
H          5.81090       -6.27650       -0.74110
H          3.62170       -7.43720       -1.04440
H          3.89740       -8.34860        0.44040
H          4.95120       -8.59740       -0.95550
H          4.16370       -4.46550       -0.80550
H          2.85390       -2.83040        0.42920
H          1.17220       -5.41210        3.21670
H         -0.77110       -6.16270        4.47770
H         -3.16470       -3.93240        6.12900
H         -2.83840       -5.59720        5.62630
H         -1.21920       -5.84350        7.51150
H         -2.82550       -5.40500        8.10320
H         -1.54940       -4.18610        8.01380
H         -1.39040       -2.20130        5.92670
H          0.57310       -1.44070        4.68170
H          0.61950       -3.88780        1.34780
H         -0.23030       -3.97600       -0.19430
H         -1.69580       -4.66810        1.69740
H         -1.49630       -3.08180        2.43990
H         -2.33090       -3.22950        0.89210
H         -1.32790       -1.94690       -1.07820
H         -1.51110        6.28350       -3.45180
H         -2.48320        7.91660       -1.92710
H         -3.85780        8.33010        0.06210
H         -5.05060        7.13570        0.59380
H         -5.31230        8.91220       -1.88120
H         -6.50140        7.72290       -1.35000
H         -6.16840        9.14290       -0.35320
H         -5.38300        5.05260       -0.67580
H         -4.42530        3.41210       -2.21650
H          0.09900        2.52440       -4.39690
H          1.77380        3.23850       -6.01490
H          2.25860        4.50660       -8.06900
H          1.22710        5.86090       -8.55050
H          3.14650        5.86350       -6.16940
H          3.42540        6.67040       -7.71590
H          2.12220        7.21490       -6.65520
H         -0.74440        6.45840       -7.22520
H         -2.42880        5.75270       -5.60350
H         -0.86380        4.77630       -1.25510
H          0.05280        4.39260       -2.70660
H          1.33930        5.92730       -1.37070
H          2.16430        4.37060       -1.31960
H          1.21220        4.92340        0.06680
H          1.29550        2.71290        0.21950
H         -4.47630        4.66810       -5.96350
H         -6.64520        3.94340       -7.11680
H         -7.90220       -2.01080       -8.80610
