
  xtb     02022200473D
 energy: -267.740602583684 gnorm: 0.000314470650 xtb: 6.4.1 (unknown)
156171  0     0  0            999 V2000
    5.4978   -1.6642    6.9665 C   0  0  0  0  0  0  0  0  0  0  0  0
    5.8370   -2.6343    7.8815 C   0  0  0  0  0  0  0  0  0  0  0  0
    5.3695   -4.0307    7.9617 C   0  0  0  0  0  0  0  0  0  0  0  0
    4.6320   -4.6448    7.2165 O   0  0  0  0  0  0  0  0  0  0  0  0
    5.9932   -4.5913    9.1807 C   0  0  0  0  0  0  0  0  0  0  0  0
    5.8491   -5.8597    9.7028 C   0  0  0  0  0  0  0  0  0  0  0  0
    6.5283   -6.1732   10.8741 C   0  0  0  0  0  0  0  0  0  0  0  0
    6.3737   -7.7421   11.5581 Cl  0  0  0  0  0  0  0  0  0  0  0  0
    7.3312   -5.2089   11.4880 C   0  0  0  0  0  0  0  0  0  0  0  0
    8.2525   -5.6326   13.0849 Br  0  0  0  0  0  0  0  0  0  0  0  0
    7.4768   -3.9323   10.9586 C   0  0  0  0  0  0  0  0  0  0  0  0
    6.8006   -3.6191    9.7907 C   0  0  0  0  0  0  0  0  0  0  0  0
    6.7418   -2.3946    8.9931 C   0  0  0  0  0  0  0  0  0  0  0  0
    7.4502   -1.2545    9.2747 C   0  0  0  0  0  0  0  0  0  0  0  0
    7.4595   -0.0559    8.5295 C   0  0  0  0  0  0  0  0  0  0  0  0
    7.5434    0.9579    7.9952 N   0  0  0  0  0  0  0  0  0  0  0  0
    8.3129   -1.1166   10.3837 C   0  0  0  0  0  0  0  0  0  0  0  0
    9.0287   -0.9322   11.2619 N   0  0  0  0  0  0  0  0  0  0  0  0
    4.6556   -1.6818    5.8481 C   0  0  0  0  0  0  0  0  0  0  0  0
    4.4896   -0.1451    4.9824 S   0  0  0  0  0  0  0  0  0  0  0  0
    3.4147   -0.8758    3.8822 C   0  0  0  0  0  0  0  0  0  0  0  0
    2.6141   -0.4965    2.7842 C   0  0  0  0  0  0  0  0  0  0  0  0
    1.8818   -1.5825    2.3233 C   0  0  0  0  0  0  0  0  0  0  0  0
    2.2399   -2.8238    3.1264 C   0  0  0  0  0  0  0  0  0  0  0  0
    3.2011   -2.2350    4.1453 C   0  0  0  0  0  0  0  0  0  0  0  0
    3.8900   -2.6847    5.2516 C   0  0  0  0  0  0  0  0  0  0  0  0
    3.0167   -3.8484    2.3137 C   0  0  0  0  0  0  0  0  0  0  0  0
    3.5696   -4.9548    2.9520 C   0  0  0  0  0  0  0  0  0  0  0  0
    4.3137   -5.8784    2.2444 C   0  0  0  0  0  0  0  0  0  0  0  0
    4.5410   -5.7233    0.8827 C   0  0  0  0  0  0  0  0  0  0  0  0
    5.3176   -6.7494    0.1104 C   0  0  0  0  0  0  0  0  0  0  0  0
    4.3882   -7.8547   -0.3953 C   0  0  0  0  0  0  0  0  0  0  0  0
    3.9972   -4.6142    0.2517 C   0  0  0  0  0  0  0  0  0  0  0  0
    3.2508   -3.6853    0.9551 C   0  0  0  0  0  0  0  0  0  0  0  0
    1.0233   -3.3692    3.8615 C   0  0  0  0  0  0  0  0  0  0  0  0
    0.6274   -4.6972    3.8147 C   0  0  0  0  0  0  0  0  0  0  0  0
   -0.4799   -5.1232    4.5271 C   0  0  0  0  0  0  0  0  0  0  0  0
   -1.2244   -4.2404    5.2953 C   0  0  0  0  0  0  0  0  0  0  0  0
   -2.4022   -4.7135    6.0959 C   0  0  0  0  0  0  0  0  0  0  0  0
   -1.9730   -5.0596    7.5232 C   0  0  0  0  0  0  0  0  0  0  0  0
   -0.8255   -2.9099    5.3378 C   0  0  0  0  0  0  0  0  0  0  0  0
    0.2818   -2.4808    4.6338 C   0  0  0  0  0  0  0  0  0  0  0  0
    1.0130   -1.2264    1.2590 C   0  0  0  0  0  0  0  0  0  0  0  0
    0.0864   -1.9937    0.4969 C   0  0  0  0  0  0  0  0  0  0  0  0
   -0.1797   -3.4464    0.7601 C   0  0  0  0  0  0  0  0  0  0  0  0
   -1.5118   -3.6166    1.4934 C   0  0  0  0  0  0  0  0  0  0  0  0
   -0.6259   -1.3713   -0.4913 C   0  0  0  0  0  0  0  0  0  0  0  0
   -0.4936    0.0006   -0.7885 C   0  0  0  0  0  0  0  0  0  0  0  0
   -1.2414    0.6562   -1.7800 C   0  0  0  0  0  0  0  0  0  0  0  0
   -2.4431   -0.1559   -2.7479 S   0  0  0  0  0  0  0  0  0  0  0  0
   -2.7669    1.3308   -3.5476 C   0  0  0  0  0  0  0  0  0  0  0  0
   -3.6706    1.7545   -4.5437 C   0  0  0  0  0  0  0  0  0  0  0  0
   -3.5008    3.1254   -4.7544 C   0  0  0  0  0  0  0  0  0  0  0  0
   -2.3672    3.6539   -3.8931 C   0  0  0  0  0  0  0  0  0  0  0  0
   -2.9059    4.7279   -2.9593 C   0  0  0  0  0  0  0  0  0  0  0  0
   -2.3691    6.0035   -2.8602 C   0  0  0  0  0  0  0  0  0  0  0  0
   -2.9176    6.9291   -1.9896 C   0  0  0  0  0  0  0  0  0  0  0  0
   -4.0061    6.6085   -1.1909 C   0  0  0  0  0  0  0  0  0  0  0  0
   -4.6223    7.6299   -0.2804 C   0  0  0  0  0  0  0  0  0  0  0  0
   -5.7220    8.4022   -1.0121 C   0  0  0  0  0  0  0  0  0  0  0  0
   -4.5374    5.3285   -1.2893 C   0  0  0  0  0  0  0  0  0  0  0  0
   -3.9964    4.4027   -2.1592 C   0  0  0  0  0  0  0  0  0  0  0  0
   -1.2803    4.1051   -4.8547 C   0  0  0  0  0  0  0  0  0  0  0  0
   -0.0933    3.3992   -5.0002 C   0  0  0  0  0  0  0  0  0  0  0  0
    0.8568    3.8020   -5.9213 C   0  0  0  0  0  0  0  0  0  0  0  0
    0.6455    4.9080   -6.7320 C   0  0  0  0  0  0  0  0  0  0  0  0
    1.6975    5.3665   -7.6986 C   0  0  0  0  0  0  0  0  0  0  0  0
    2.6602    6.3414   -7.0171 C   0  0  0  0  0  0  0  0  0  0  0  0
   -0.5506    5.6011   -6.5968 C   0  0  0  0  0  0  0  0  0  0  0  0
   -1.5032    5.2025   -5.6795 C   0  0  0  0  0  0  0  0  0  0  0  0
   -1.9944    2.4015   -3.1135 C   0  0  0  0  0  0  0  0  0  0  0  0
   -1.1022    2.0289   -2.0756 C   0  0  0  0  0  0  0  0  0  0  0  0
   -0.1471    2.7922   -1.3360 C   0  0  0  0  0  0  0  0  0  0  0  0
    0.0237    4.2546   -1.6247 C   0  0  0  0  0  0  0  0  0  0  0  0
    1.2637    4.9011   -1.0189 C   0  0  0  0  0  0  0  0  0  0  0  0
    0.5738    2.1623   -0.3624 C   0  0  0  0  0  0  0  0  0  0  0  0
    0.4250    0.7904   -0.0606 C   0  0  0  0  0  0  0  0  0  0  0  0
    1.1533    0.1454    0.9506 C   0  0  0  0  0  0  0  0  0  0  0  0
    2.3125    0.9778    1.9525 S   0  0  0  0  0  0  0  0  0  0  0  0
   -4.4050    3.6397   -5.6610 C   0  0  0  0  0  0  0  0  0  0  0  0
   -5.2490    2.6633   -6.1921 C   0  0  0  0  0  0  0  0  0  0  0  0
   -4.9189    1.0805   -5.4927 S   0  0  0  0  0  0  0  0  0  0  0  0
   -6.3144    2.9095   -7.0713 C   0  0  0  0  0  0  0  0  0  0  0  0
   -7.0833    2.0347   -7.7910 C   0  0  0  0  0  0  0  0  0  0  0  0
   -8.4415    2.4492   -8.2153 C   0  0  0  0  0  0  0  0  0  0  0  0
   -8.9024    3.5641   -8.1964 O   0  0  0  0  0  0  0  0  0  0  0  0
   -9.1144    1.1830   -8.6108 C   0  0  0  0  0  0  0  0  0  0  0  0
   -8.1917    0.1219   -8.5554 C   0  0  0  0  0  0  0  0  0  0  0  0
   -8.5790   -1.1732   -8.8481 C   0  0  0  0  0  0  0  0  0  0  0  0
   -9.9042   -1.3918   -9.1976 C   0  0  0  0  0  0  0  0  0  0  0  0
  -10.3082   -2.6348   -9.4713 F   0  0  0  0  0  0  0  0  0  0  0  0
  -10.8300   -0.3534   -9.2684 C   0  0  0  0  0  0  0  0  0  0  0  0
  -12.0957   -0.6047   -9.6146 F   0  0  0  0  0  0  0  0  0  0  0  0
  -10.4297    0.9520   -8.9716 C   0  0  0  0  0  0  0  0  0  0  0  0
  -11.3197    1.9370   -9.0387 F   0  0  0  0  0  0  0  0  0  0  0  0
   -6.8820    0.6655   -8.1890 C   0  0  0  0  0  0  0  0  0  0  0  0
   -5.6776    0.0691   -8.4649 C   0  0  0  0  0  0  0  0  0  0  0  0
   -5.5401   -1.2494   -8.9405 C   0  0  0  0  0  0  0  0  0  0  0  0
   -5.3768   -2.3232   -9.3116 N   0  0  0  0  0  0  0  0  0  0  0  0
   -4.4502    0.7615   -8.4040 C   0  0  0  0  0  0  0  0  0  0  0  0
   -3.4441    1.3138   -8.4218 N   0  0  0  0  0  0  0  0  0  0  0  0
    5.9507   -0.6939    7.1316 H   0  0  0  0  0  0  0  0  0  0  0  0
    5.2226   -6.5875    9.2120 H   0  0  0  0  0  0  0  0  0  0  0  0
    8.1067   -3.2219   11.4683 H   0  0  0  0  0  0  0  0  0  0  0  0
    3.8597   -3.6778    5.6578 H   0  0  0  0  0  0  0  0  0  0  0  0
    3.4204   -5.0987    4.0104 H   0  0  0  0  0  0  0  0  0  0  0  0
    4.7326   -6.7291    2.7623 H   0  0  0  0  0  0  0  0  0  0  0  0
    6.0854   -7.1897    0.7496 H   0  0  0  0  0  0  0  0  0  0  0  0
    5.8109   -6.2765   -0.7411 H   0  0  0  0  0  0  0  0  0  0  0  0
    3.6217   -7.4372   -1.0444 H   0  0  0  0  0  0  0  0  0  0  0  0
    3.8974   -8.3486    0.4404 H   0  0  0  0  0  0  0  0  0  0  0  0
    4.9512   -8.5974   -0.9555 H   0  0  0  0  0  0  0  0  0  0  0  0
    4.1637   -4.4655   -0.8055 H   0  0  0  0  0  0  0  0  0  0  0  0
    2.8539   -2.8304    0.4292 H   0  0  0  0  0  0  0  0  0  0  0  0
    1.1722   -5.4121    3.2167 H   0  0  0  0  0  0  0  0  0  0  0  0
   -0.7711   -6.1627    4.4777 H   0  0  0  0  0  0  0  0  0  0  0  0
   -3.1647   -3.9324    6.1290 H   0  0  0  0  0  0  0  0  0  0  0  0
   -2.8384   -5.5972    5.6263 H   0  0  0  0  0  0  0  0  0  0  0  0
   -1.2192   -5.8435    7.5115 H   0  0  0  0  0  0  0  0  0  0  0  0
   -2.8255   -5.4050    8.1032 H   0  0  0  0  0  0  0  0  0  0  0  0
   -1.5494   -4.1861    8.0138 H   0  0  0  0  0  0  0  0  0  0  0  0
   -1.3904   -2.2013    5.9267 H   0  0  0  0  0  0  0  0  0  0  0  0
    0.5731   -1.4407    4.6817 H   0  0  0  0  0  0  0  0  0  0  0  0
    0.6195   -3.8878    1.3478 H   0  0  0  0  0  0  0  0  0  0  0  0
   -0.2303   -3.9760   -0.1943 H   0  0  0  0  0  0  0  0  0  0  0  0
   -1.6958   -4.6681    1.6974 H   0  0  0  0  0  0  0  0  0  0  0  0
   -1.4963   -3.0818    2.4399 H   0  0  0  0  0  0  0  0  0  0  0  0
   -2.3309   -3.2295    0.8921 H   0  0  0  0  0  0  0  0  0  0  0  0
   -1.3279   -1.9469   -1.0782 H   0  0  0  0  0  0  0  0  0  0  0  0
   -1.5111    6.2835   -3.4518 H   0  0  0  0  0  0  0  0  0  0  0  0
   -2.4832    7.9166   -1.9271 H   0  0  0  0  0  0  0  0  0  0  0  0
   -3.8578    8.3301    0.0621 H   0  0  0  0  0  0  0  0  0  0  0  0
   -5.0506    7.1357    0.5938 H   0  0  0  0  0  0  0  0  0  0  0  0
   -5.3123    8.9122   -1.8812 H   0  0  0  0  0  0  0  0  0  0  0  0
   -6.5014    7.7229   -1.3500 H   0  0  0  0  0  0  0  0  0  0  0  0
   -6.1684    9.1429   -0.3532 H   0  0  0  0  0  0  0  0  0  0  0  0
   -5.3830    5.0526   -0.6758 H   0  0  0  0  0  0  0  0  0  0  0  0
   -4.4253    3.4121   -2.2165 H   0  0  0  0  0  0  0  0  0  0  0  0
    0.0990    2.5244   -4.3969 H   0  0  0  0  0  0  0  0  0  0  0  0
    1.7738    3.2385   -6.0149 H   0  0  0  0  0  0  0  0  0  0  0  0
    2.2586    4.5066   -8.0690 H   0  0  0  0  0  0  0  0  0  0  0  0
    1.2271    5.8609   -8.5505 H   0  0  0  0  0  0  0  0  0  0  0  0
    3.1465    5.8635   -6.1694 H   0  0  0  0  0  0  0  0  0  0  0  0
    3.4254    6.6704   -7.7159 H   0  0  0  0  0  0  0  0  0  0  0  0
    2.1222    7.2149   -6.6552 H   0  0  0  0  0  0  0  0  0  0  0  0
   -0.7444    6.4584   -7.2252 H   0  0  0  0  0  0  0  0  0  0  0  0
   -2.4288    5.7527   -5.6035 H   0  0  0  0  0  0  0  0  0  0  0  0
   -0.8638    4.7763   -1.2551 H   0  0  0  0  0  0  0  0  0  0  0  0
    0.0528    4.3926   -2.7066 H   0  0  0  0  0  0  0  0  0  0  0  0
    1.3393    5.9273   -1.3707 H   0  0  0  0  0  0  0  0  0  0  0  0
    2.1643    4.3706   -1.3196 H   0  0  0  0  0  0  0  0  0  0  0  0
    1.2122    4.9234    0.0668 H   0  0  0  0  0  0  0  0  0  0  0  0
    1.2955    2.7129    0.2195 H   0  0  0  0  0  0  0  0  0  0  0  0
   -4.4763    4.6681   -5.9635 H   0  0  0  0  0  0  0  0  0  0  0  0
   -6.6452    3.9434   -7.1168 H   0  0  0  0  0  0  0  0  0  0  0  0
   -7.9022   -2.0108   -8.8061 H   0  0  0  0  0  0  0  0  0  0  0  0
  1  2  2  0  0  0  0
  2  3  1  0  0  0  0
  3  4  2  0  0  0  0
  3  5  1  0  0  0  0
  5  6  2  0  0  0  0
  6  7  1  0  0  0  0
  7  8  1  0  0  0  0
  7  9  2  0  0  0  0
  9 10  1  0  0  0  0
  9 11  1  0  0  0  0
 11 12  2  0  0  0  0
 12 13  1  0  0  0  0
 13 14  2  0  0  0  0
 14 15  1  0  0  0  0
 15 16  3  0  0  0  0
 14 17  1  0  0  0  0
 17 18  3  0  0  0  0
  1 19  1  0  0  0  0
 19 20  1  0  0  0  0
 20 21  1  0  0  0  0
 21 22  1  0  0  0  0
 22 23  2  0  0  0  0
 23 24  1  0  0  0  0
 24 25  1  0  0  0  0
 25 26  1  0  0  0  0
 24 27  1  0  0  0  0
 27 28  2  0  0  0  0
 28 29  1  0  0  0  0
 29 30  2  0  0  0  0
 30 31  1  0  0  0  0
 31 32  1  0  0  0  0
 30 33  1  0  0  0  0
 33 34  2  0  0  0  0
 24 35  1  0  0  0  0
 35 36  2  0  0  0  0
 36 37  1  0  0  0  0
 37 38  2  0  0  0  0
 38 39  1  0  0  0  0
 39 40  1  0  0  0  0
 38 41  1  0  0  0  0
 41 42  2  0  0  0  0
 23 43  1  0  0  0  0
 43 44  2  0  0  0  0
 44 45  1  0  0  0  0
 45 46  1  0  0  0  0
 44 47  1  0  0  0  0
 47 48  2  0  0  0  0
 48 49  1  0  0  0  0
 49 50  1  0  0  0  0
 50 51  1  0  0  0  0
 51 52  1  0  0  0  0
 52 53  2  0  0  0  0
 53 54  1  0  0  0  0
 54 55  1  0  0  0  0
 55 56  2  0  0  0  0
 56 57  1  0  0  0  0
 57 58  2  0  0  0  0
 58 59  1  0  0  0  0
 59 60  1  0  0  0  0
 58 61  1  0  0  0  0
 61 62  2  0  0  0  0
 54 63  1  0  0  0  0
 63 64  2  0  0  0  0
 64 65  1  0  0  0  0
 65 66  2  0  0  0  0
 66 67  1  0  0  0  0
 67 68  1  0  0  0  0
 66 69  1  0  0  0  0
 69 70  2  0  0  0  0
 54 71  1  0  0  0  0
 71 72  1  0  0  0  0
 72 73  1  0  0  0  0
 73 74  1  0  0  0  0
 74 75  1  0  0  0  0
 73 76  2  0  0  0  0
 76 77  1  0  0  0  0
 77 78  2  0  0  0  0
 78 79  1  0  0  0  0
 53 80  1  0  0  0  0
 80 81  2  0  0  0  0
 81 82  1  0  0  0  0
 81 83  1  0  0  0  0
 83 84  2  0  0  0  0
 84 85  1  0  0  0  0
 85 86  2  0  0  0  0
 85 87  1  0  0  0  0
 87 88  2  0  0  0  0
 88 89  1  0  0  0  0
 89 90  2  0  0  0  0
 90 91  1  0  0  0  0
 90 92  1  0  0  0  0
 92 93  1  0  0  0  0
 92 94  2  0  0  0  0
 94 95  1  0  0  0  0
 88 96  1  0  0  0  0
 96 97  2  0  0  0  0
 97 98  1  0  0  0  0
 98 99  3  0  0  0  0
 97100  1  0  0  0  0
100101  3  0  0  0  0
 13  2  1  0  0  0  0
 26 19  2  0  0  0  0
 34 27  1  0  0  0  0
 42 35  1  0  0  0  0
 78 43  1  0  0  0  0
 96 84  1  0  0  0  0
 12  5  1  0  0  0  0
 25 21  2  0  0  0  0
 77 48  1  0  0  0  0
 94 87  1  0  0  0  0
 79 22  1  0  0  0  0
 72 49  2  0  0  0  0
 71 51  2  0  0  0  0
 82 52  1  0  0  0  0
 62 55  1  0  0  0  0
 70 63  1  0  0  0  0
  1102  1  0  0  0  0
  6103  1  0  0  0  0
 11104  1  0  0  0  0
 26105  1  0  0  0  0
 28106  1  0  0  0  0
 29107  1  0  0  0  0
 31108  1  0  0  0  0
 31109  1  0  0  0  0
 32110  1  0  0  0  0
 32111  1  0  0  0  0
 32112  1  0  0  0  0
 33113  1  0  0  0  0
 34114  1  0  0  0  0
 36115  1  0  0  0  0
 37116  1  0  0  0  0
 39117  1  0  0  0  0
 39118  1  0  0  0  0
 40119  1  0  0  0  0
 40120  1  0  0  0  0
 40121  1  0  0  0  0
 41122  1  0  0  0  0
 42123  1  0  0  0  0
 45124  1  0  0  0  0
 45125  1  0  0  0  0
 46126  1  0  0  0  0
 46127  1  0  0  0  0
 46128  1  0  0  0  0
 47129  1  0  0  0  0
 56130  1  0  0  0  0
 57131  1  0  0  0  0
 59132  1  0  0  0  0
 59133  1  0  0  0  0
 60134  1  0  0  0  0
 60135  1  0  0  0  0
 60136  1  0  0  0  0
 61137  1  0  0  0  0
 62138  1  0  0  0  0
 64139  1  0  0  0  0
 65140  1  0  0  0  0
 67141  1  0  0  0  0
 67142  1  0  0  0  0
 68143  1  0  0  0  0
 68144  1  0  0  0  0
 68145  1  0  0  0  0
 69146  1  0  0  0  0
 70147  1  0  0  0  0
 74148  1  0  0  0  0
 74149  1  0  0  0  0
 75150  1  0  0  0  0
 75151  1  0  0  0  0
 75152  1  0  0  0  0
 76153  1  0  0  0  0
 80154  1  0  0  0  0
 83155  1  0  0  0  0
 89156  1  0  0  0  0
M  END
