
  xtb     01272209163D
 energy: -198.805947369230 gnorm: 0.000929685145 xtb: 6.4.1 (unknown)
106117  0     0  0            999 V2000
   -3.3916   -5.7489   -4.6638 C   0  0  0  0  0  0  0  0  0  0  0  0
   -3.2814   -6.9740   -4.0436 C   0  0  0  0  0  0  0  0  0  0  0  0
   -2.6510   -7.2339   -2.7509 C   0  0  0  0  0  0  0  0  0  0  0  0
   -2.1107   -6.4368   -2.0036 O   0  0  0  0  0  0  0  0  0  0  0  0
   -2.7918   -8.6860   -2.5144 C   0  0  0  0  0  0  0  0  0  0  0  0
   -2.3636   -9.4279   -1.4341 C   0  0  0  0  0  0  0  0  0  0  0  0
   -2.6105  -10.7964   -1.4327 C   0  0  0  0  0  0  0  0  0  0  0  0
   -2.0919  -11.7553   -0.1042 Cl  0  0  0  0  0  0  0  0  0  0  0  0
   -3.2778  -11.3819   -2.5108 C   0  0  0  0  0  0  0  0  0  0  0  0
   -3.6146  -13.2433   -2.5089 Br  0  0  0  0  0  0  0  0  0  0  0  0
   -3.7083  -10.6322   -3.5996 C   0  0  0  0  0  0  0  0  0  0  0  0
   -3.4629   -9.2697   -3.6027 C   0  0  0  0  0  0  0  0  0  0  0  0
   -3.7784   -8.2246   -4.5775 C   0  0  0  0  0  0  0  0  0  0  0  0
   -4.4204   -8.4331   -5.7722 C   0  0  0  0  0  0  0  0  0  0  0  0
   -4.8655   -9.6953   -6.2190 C   0  0  0  0  0  0  0  0  0  0  0  0
   -5.2517  -10.6909   -6.6399 N   0  0  0  0  0  0  0  0  0  0  0  0
   -4.7281   -7.4440   -6.7290 C   0  0  0  0  0  0  0  0  0  0  0  0
   -5.0176   -6.7005   -7.5564 N   0  0  0  0  0  0  0  0  0  0  0  0
   -2.9554   -4.4821   -4.2781 C   0  0  0  0  0  0  0  0  0  0  0  0
   -3.1671   -3.3295   -5.0605 C   0  0  0  0  0  0  0  0  0  0  0  0
   -3.9239   -3.2762   -6.3467 C   0  0  0  0  0  0  0  0  0  0  0  0
   -5.4305   -3.1889   -6.0864 C   0  0  0  0  0  0  0  0  0  0  0  0
   -2.6259   -2.2037   -4.4598 C   0  0  0  0  0  0  0  0  0  0  0  0
   -1.9937   -2.4567   -3.2269 C   0  0  0  0  0  0  0  0  0  0  0  0
   -2.0727   -4.1215   -2.7911 S   0  0  0  0  0  0  0  0  0  0  0  0
   -1.4615   -1.2835   -2.6875 C   0  0  0  0  0  0  0  0  0  0  0  0
   -1.6799   -0.1696   -3.5082 C   0  0  0  0  0  0  0  0  0  0  0  0
   -2.5596   -0.5213   -4.9523 S   0  0  0  0  0  0  0  0  0  0  0  0
   -1.0640    0.9241   -2.8893 C   0  0  0  0  0  0  0  0  0  0  0  0
   -0.9166    2.2526   -3.3667 C   0  0  0  0  0  0  0  0  0  0  0  0
   -1.4596    2.6317   -4.5296 N   0  0  0  0  0  0  0  0  0  0  0  0
   -1.2423    3.8650   -4.9359 C   0  0  0  0  0  0  0  0  0  0  0  0
   -1.8571    4.2689   -6.2342 C   0  0  0  0  0  0  0  0  0  0  0  0
   -0.4550    4.7636   -4.1715 C   0  0  0  0  0  0  0  0  0  0  0  0
   -0.1916    6.1597   -4.6279 C   0  0  0  0  0  0  0  0  0  0  0  0
    0.0753    4.3999   -3.0227 N   0  0  0  0  0  0  0  0  0  0  0  0
   -0.1474    3.1498   -2.6001 C   0  0  0  0  0  0  0  0  0  0  0  0
    0.3561    2.6986   -1.3521 C   0  0  0  0  0  0  0  0  0  0  0  0
    1.0665    3.4115   -0.3795 C   0  0  0  0  0  0  0  0  0  0  0  0
    1.7298    4.9894   -0.1480 S   0  0  0  0  0  0  0  0  0  0  0  0
    2.2622    4.4932    1.4483 C   0  0  0  0  0  0  0  0  0  0  0  0
    2.9536    5.1577    2.4488 C   0  0  0  0  0  0  0  0  0  0  0  0
    3.3706    6.5869    2.3338 C   0  0  0  0  0  0  0  0  0  0  0  0
    2.3436    7.5088    2.9976 C   0  0  0  0  0  0  0  0  0  0  0  0
    3.1484    4.3330    3.5749 C   0  0  0  0  0  0  0  0  0  0  0  0
    2.4564    2.7238    3.3460 S   0  0  0  0  0  0  0  0  0  0  0  0
    1.9260    3.1629    1.7670 C   0  0  0  0  0  0  0  0  0  0  0  0
    1.2473    2.5513    0.7111 C   0  0  0  0  0  0  0  0  0  0  0  0
    0.7019    1.3258    0.4347 N   0  0  0  0  0  0  0  0  0  0  0  0
    0.4868    0.3855    1.5119 C   0  0  0  0  0  0  0  0  0  0  0  0
   -0.9835    0.3353    1.9204 C   0  0  0  0  0  0  0  0  0  0  0  0
    0.1499    1.3856   -0.8332 C   0  0  0  0  0  0  0  0  0  0  0  0
   -0.5046    0.4461   -1.6670 C   0  0  0  0  0  0  0  0  0  0  0  0
   -0.7629   -0.9101   -1.5706 N   0  0  0  0  0  0  0  0  0  0  0  0
   -0.1681   -1.9260   -0.7315 C   0  0  0  0  0  0  0  0  0  0  0  0
    1.3364   -2.0328   -0.9687 C   0  0  0  0  0  0  0  0  0  0  0  0
    3.8213    4.7600    4.7186 C   0  0  0  0  0  0  0  0  0  0  0  0
    4.0914    4.1153    5.9060 C   0  0  0  0  0  0  0  0  0  0  0  0
    3.6925    2.7548    6.2601 C   0  0  0  0  0  0  0  0  0  0  0  0
    3.0755    1.9509    5.5830 O   0  0  0  0  0  0  0  0  0  0  0  0
    4.1924    2.5279    7.6328 C   0  0  0  0  0  0  0  0  0  0  0  0
    4.0666    1.3985    8.4161 C   0  0  0  0  0  0  0  0  0  0  0  0
    4.6275    1.4302    9.6829 C   0  0  0  0  0  0  0  0  0  0  0  0
    4.5294    0.3574   10.4781 F   0  0  0  0  0  0  0  0  0  0  0  0
    5.2926    2.5689   10.1365 C   0  0  0  0  0  0  0  0  0  0  0  0
    5.8243    2.5726   11.3642 F   0  0  0  0  0  0  0  0  0  0  0  0
    5.4189    3.7034    9.3476 C   0  0  0  0  0  0  0  0  0  0  0  0
    4.8606    3.6800    8.0796 C   0  0  0  0  0  0  0  0  0  0  0  0
    4.8174    4.6893    7.0188 C   0  0  0  0  0  0  0  0  0  0  0  0
    5.3816    5.9374    7.1002 C   0  0  0  0  0  0  0  0  0  0  0  0
    5.3592    6.9221    6.0909 C   0  0  0  0  0  0  0  0  0  0  0  0
    5.3873    7.7765    5.3230 N   0  0  0  0  0  0  0  0  0  0  0  0
    6.0809    6.4167    8.2281 C   0  0  0  0  0  0  0  0  0  0  0  0
    6.6583    6.8694    9.1105 N   0  0  0  0  0  0  0  0  0  0  0  0
   -3.9014   -5.7520   -5.6172 H   0  0  0  0  0  0  0  0  0  0  0  0
   -1.8500   -8.9566   -0.6112 H   0  0  0  0  0  0  0  0  0  0  0  0
   -4.2195  -11.1268   -4.4096 H   0  0  0  0  0  0  0  0  0  0  0  0
   -3.7136   -4.1504   -6.9645 H   0  0  0  0  0  0  0  0  0  0  0  0
   -3.6049   -2.3863   -6.8926 H   0  0  0  0  0  0  0  0  0  0  0  0
   -5.6630   -2.2994   -5.5057 H   0  0  0  0  0  0  0  0  0  0  0  0
   -5.7789   -4.0620   -5.5397 H   0  0  0  0  0  0  0  0  0  0  0  0
   -5.9640   -3.1398   -7.0312 H   0  0  0  0  0  0  0  0  0  0  0  0
   -1.0865    4.5696   -6.9426 H   0  0  0  0  0  0  0  0  0  0  0  0
   -2.5294    5.1135   -6.0908 H   0  0  0  0  0  0  0  0  0  0  0  0
   -2.4136    3.4298   -6.6415 H   0  0  0  0  0  0  0  0  0  0  0  0
    0.3234    6.1549   -5.5875 H   0  0  0  0  0  0  0  0  0  0  0  0
   -1.1273    6.7030   -4.7517 H   0  0  0  0  0  0  0  0  0  0  0  0
    0.4247    6.6656   -3.8904 H   0  0  0  0  0  0  0  0  0  0  0  0
    4.3491    6.7490    2.7880 H   0  0  0  0  0  0  0  0  0  0  0  0
    3.4397    6.8367    1.2733 H   0  0  0  0  0  0  0  0  0  0  0  0
    2.2487    7.2817    4.0569 H   0  0  0  0  0  0  0  0  0  0  0  0
    2.6587    8.5431    2.8949 H   0  0  0  0  0  0  0  0  0  0  0  0
    1.3700    7.3905    2.5279 H   0  0  0  0  0  0  0  0  0  0  0  0
    1.0829    0.7383    2.3570 H   0  0  0  0  0  0  0  0  0  0  0  0
    0.8642   -0.6001    1.2417 H   0  0  0  0  0  0  0  0  0  0  0  0
   -1.1218   -0.3892    2.7181 H   0  0  0  0  0  0  0  0  0  0  0  0
   -1.6181    0.0619    1.0800 H   0  0  0  0  0  0  0  0  0  0  0  0
   -1.3013    1.3106    2.2815 H   0  0  0  0  0  0  0  0  0  0  0  0
   -0.6428   -2.8719   -1.0032 H   0  0  0  0  0  0  0  0  0  0  0  0
   -0.3995   -1.7396    0.3168 H   0  0  0  0  0  0  0  0  0  0  0  0
    1.8333   -1.0818   -0.7893 H   0  0  0  0  0  0  0  0  0  0  0  0
    1.5290   -2.3268   -1.9978 H   0  0  0  0  0  0  0  0  0  0  0  0
    1.7629   -2.7844   -0.3102 H   0  0  0  0  0  0  0  0  0  0  0  0
    4.1855    5.7753    4.6447 H   0  0  0  0  0  0  0  0  0  0  0  0
    3.5515    0.5204    8.0608 H   0  0  0  0  0  0  0  0  0  0  0  0
    5.9426    4.5561    9.7468 H   0  0  0  0  0  0  0  0  0  0  0  0
  1  2  2  0  0  0  0
  2  3  1  0  0  0  0
  3  4  2  0  0  0  0
  3  5  1  0  0  0  0
  5  6  2  0  0  0  0
  6  7  1  0  0  0  0
  7  8  1  0  0  0  0
  7  9  2  0  0  0  0
  9 10  1  0  0  0  0
  9 11  1  0  0  0  0
 11 12  2  0  0  0  0
 12 13  1  0  0  0  0
 13 14  2  0  0  0  0
 14 15  1  0  0  0  0
 15 16  3  0  0  0  0
 14 17  1  0  0  0  0
 17 18  3  0  0  0  0
  1 19  1  0  0  0  0
 19 20  2  0  0  0  0
 20 21  1  0  0  0  0
 21 22  1  0  0  0  0
 20 23  1  0  0  0  0
 23 24  2  0  0  0  0
 24 25  1  0  0  0  0
 24 26  1  0  0  0  0
 26 27  2  0  0  0  0
 27 28  1  0  0  0  0
 27 29  1  0  0  0  0
 29 30  2  0  0  0  0
 30 31  1  0  0  0  0
 31 32  2  0  0  0  0
 32 33  1  0  0  0  0
 32 34  1  0  0  0  0
 34 35  1  0  0  0  0
 34 36  2  0  0  0  0
 36 37  1  0  0  0  0
 37 38  2  0  0  0  0
 38 39  1  0  0  0  0
 39 40  1  0  0  0  0
 40 41  1  0  0  0  0
 41 42  1  0  0  0  0
 42 43  1  0  0  0  0
 43 44  1  0  0  0  0
 42 45  2  0  0  0  0
 45 46  1  0  0  0  0
 46 47  1  0  0  0  0
 47 48  1  0  0  0  0
 48 49  1  0  0  0  0
 49 50  1  0  0  0  0
 50 51  1  0  0  0  0
 49 52  1  0  0  0  0
 52 53  2  0  0  0  0
 53 54  1  0  0  0  0
 54 55  1  0  0  0  0
 55 56  1  0  0  0  0
 45 57  1  0  0  0  0
 57 58  2  0  0  0  0
 58 59  1  0  0  0  0
 59 60  2  0  0  0  0
 59 61  1  0  0  0  0
 61 62  2  0  0  0  0
 62 63  1  0  0  0  0
 63 64  1  0  0  0  0
 63 65  2  0  0  0  0
 65 66  1  0  0  0  0
 65 67  1  0  0  0  0
 67 68  2  0  0  0  0
 68 69  1  0  0  0  0
 69 70  2  0  0  0  0
 70 71  1  0  0  0  0
 71 72  3  0  0  0  0
 70 73  1  0  0  0  0
 73 74  3  0  0  0  0
 13  2  1  0  0  0  0
 25 19  1  0  0  0  0
 54 26  1  0  0  0  0
 69 58  1  0  0  0  0
 12  5  1  0  0  0  0
 28 23  1  0  0  0  0
 53 29  1  0  0  0  0
 68 61  1  0  0  0  0
 37 30  1  0  0  0  0
 52 38  1  0  0  0  0
 48 39  2  0  0  0  0
 47 41  2  0  0  0  0
  1 75  1  0  0  0  0
  6 76  1  0  0  0  0
 11 77  1  0  0  0  0
 21 78  1  0  0  0  0
 21 79  1  0  0  0  0
 22 80  1  0  0  0  0
 22 81  1  0  0  0  0
 22 82  1  0  0  0  0
 33 83  1  0  0  0  0
 33 84  1  0  0  0  0
 33 85  1  0  0  0  0
 35 86  1  0  0  0  0
 35 87  1  0  0  0  0
 35 88  1  0  0  0  0
 43 89  1  0  0  0  0
 43 90  1  0  0  0  0
 44 91  1  0  0  0  0
 44 92  1  0  0  0  0
 44 93  1  0  0  0  0
 50 94  1  0  0  0  0
 50 95  1  0  0  0  0
 51 96  1  0  0  0  0
 51 97  1  0  0  0  0
 51 98  1  0  0  0  0
 55 99  1  0  0  0  0
 55100  1  0  0  0  0
 56101  1  0  0  0  0
 56102  1  0  0  0  0
 56103  1  0  0  0  0
 57104  1  0  0  0  0
 62105  1  0  0  0  0
 67106  1  0  0  0  0
M  END
