106

C         -3.39160       -5.74890       -4.66380
C         -3.28140       -6.97400       -4.04360
C         -2.65100       -7.23390       -2.75090
O         -2.11070       -6.43680       -2.00360
C         -2.79180       -8.68600       -2.51440
C         -2.36360       -9.42790       -1.43410
C         -2.61050      -10.79640       -1.43270
Cl        -2.09190      -11.75530       -0.10420
C         -3.27780      -11.38190       -2.51080
Br        -3.61460      -13.24330       -2.50890
C         -3.70830      -10.63220       -3.59960
C         -3.46290       -9.26970       -3.60270
C         -3.77840       -8.22460       -4.57750
C         -4.42040       -8.43310       -5.77220
C         -4.86550       -9.69530       -6.21900
N         -5.25170      -10.69090       -6.63990
C         -4.72810       -7.44400       -6.72900
N         -5.01760       -6.70050       -7.55640
C         -2.95540       -4.48210       -4.27810
C         -3.16710       -3.32950       -5.06050
C         -3.92390       -3.27620       -6.34670
C         -5.43050       -3.18890       -6.08640
C         -2.62590       -2.20370       -4.45980
C         -1.99370       -2.45670       -3.22690
S         -2.07270       -4.12150       -2.79110
C         -1.46150       -1.28350       -2.68750
C         -1.67990       -0.16960       -3.50820
S         -2.55960       -0.52130       -4.95230
C         -1.06400        0.92410       -2.88930
C         -0.91660        2.25260       -3.36670
N         -1.45960        2.63170       -4.52960
C         -1.24230        3.86500       -4.93590
C         -1.85710        4.26890       -6.23420
C         -0.45500        4.76360       -4.17150
C         -0.19160        6.15970       -4.62790
N          0.07530        4.39990       -3.02270
C         -0.14740        3.14980       -2.60010
C          0.35610        2.69860       -1.35210
C          1.06650        3.41150       -0.37950
S          1.72980        4.98940       -0.14800
C          2.26220        4.49320        1.44830
C          2.95360        5.15770        2.44880
C          3.37060        6.58690        2.33380
C          2.34360        7.50880        2.99760
C          3.14840        4.33300        3.57490
S          2.45640        2.72380        3.34600
C          1.92600        3.16290        1.76700
C          1.24730        2.55130        0.71110
N          0.70190        1.32580        0.43470
C          0.48680        0.38550        1.51190
C         -0.98350        0.33530        1.92040
C          0.14990        1.38560       -0.83320
C         -0.50460        0.44610       -1.66700
N         -0.76290       -0.91010       -1.57060
C         -0.16810       -1.92600       -0.73150
C          1.33640       -2.03280       -0.96870
C          3.82130        4.76000        4.71860
C          4.09140        4.11530        5.90600
C          3.69250        2.75480        6.26010
O          3.07550        1.95090        5.58300
C          4.19240        2.52790        7.63280
C          4.06660        1.39850        8.41610
C          4.62750        1.43020        9.68290
F          4.52940        0.35740       10.47810
C          5.29260        2.56890       10.13650
F          5.82430        2.57260       11.36420
C          5.41890        3.70340        9.34760
C          4.86060        3.68000        8.07960
C          4.81740        4.68930        7.01880
C          5.38160        5.93740        7.10020
C          5.35920        6.92210        6.09090
N          5.38730        7.77650        5.32300
C          6.08090        6.41670        8.22810
N          6.65830        6.86940        9.11050
H         -3.90140       -5.75200       -5.61720
H         -1.85000       -8.95660       -0.61120
H         -4.21950      -11.12680       -4.40960
H         -3.71360       -4.15040       -6.96450
H         -3.60490       -2.38630       -6.89260
H         -5.66300       -2.29940       -5.50570
H         -5.77890       -4.06200       -5.53970
H         -5.96400       -3.13980       -7.03120
H         -1.08650        4.56960       -6.94260
H         -2.52940        5.11350       -6.09080
H         -2.41360        3.42980       -6.64150
H          0.32340        6.15490       -5.58750
H         -1.12730        6.70300       -4.75170
H          0.42470        6.66560       -3.89040
H          4.34910        6.74900        2.78800
H          3.43970        6.83670        1.27330
H          2.24870        7.28170        4.05690
H          2.65870        8.54310        2.89490
H          1.37000        7.39050        2.52790
H          1.08290        0.73830        2.35700
H          0.86420       -0.60010        1.24170
H         -1.12180       -0.38920        2.71810
H         -1.61810        0.06190        1.08000
H         -1.30130        1.31060        2.28150
H         -0.64280       -2.87190       -1.00320
H         -0.39950       -1.73960        0.31680
H          1.83330       -1.08180       -0.78930
H          1.52900       -2.32680       -1.99780
H          1.76290       -2.78440       -0.31020
H          4.18550        5.77530        4.64470
H          3.55150        0.52040        8.06080
H          5.94260        4.55610        9.74680
