112

C          8.40450        3.35110       -2.60250
C          8.42390        4.24800       -3.64940
C          7.29060        4.61170       -4.49600
O          6.14720        4.19100       -4.44670
C          7.80390        5.61140       -5.45640
C          7.12540        6.26850       -6.46060
C          7.82620        7.17630       -7.24690
Cl         7.01530        8.01480       -8.50960
C          9.18330        7.40020       -7.00580
Br        10.13690        8.63640       -8.07430
C          9.86580        6.73640       -5.99260
C          9.16970        5.83150       -5.20950
C          9.58710        4.98890       -4.08770
C         10.86050        4.93610       -3.57780
C         11.28610        4.13620       -2.49760
N         11.71510        3.51730       -1.62940
C         11.94250        5.69060       -4.07800
N         12.86530        6.27270       -4.43530
C          7.37130        2.58000       -2.07430
C          7.54260        1.72350       -0.96730
C          8.80150        1.55590       -0.18180
C          8.93660        2.66500        0.86550
C          6.36030        1.08260       -0.63520
C          5.27300        1.41480       -1.46740
S          5.71330        2.55080       -2.68460
C          4.11920        0.73470       -1.07680
C          4.32850       -0.08950        0.03460
S          5.95110       -0.06560        0.62800
C          3.09620       -0.67340        0.34840
C          2.77440       -1.53030        1.43220
N          3.71430       -1.93750        2.29390
C          3.33910       -2.71230        3.28990
C          4.40100       -3.15900        4.23860
C          1.98500       -3.10300        3.44910
C          1.54940       -3.98600        4.57100
N          1.05520       -2.70480        2.60670
C          1.43040       -1.91900        1.59000
C          0.49170       -1.47690        0.62340
C         -0.87660       -1.76740        0.54010
S         -2.08770       -2.62250        1.42350
C         -3.26840       -2.17300        0.21180
C         -4.65370       -2.38320        0.09760
C         -5.46120       -3.24690        1.00630
C         -4.76270       -4.55220        1.37650
C         -5.15780       -1.76390       -1.03650
S         -3.90110       -0.99060       -2.00140
C         -2.71410       -1.41060       -0.82480
C         -1.35020       -1.17080       -0.62990
N         -0.33000       -0.52100       -1.26840
C         -0.58660        0.08670       -2.55210
C         -1.22850        1.46700       -2.40720
C          0.81620       -0.66730       -0.50500
C          2.15130       -0.19910       -0.61340
N          2.80630        0.67500       -1.45920
C          2.36710        1.51670       -2.54700
C          2.67350        0.88860       -3.90640
C         -6.47430       -1.69810       -1.55860
C         -7.62730       -1.55750       -0.85280
S         -9.20260       -1.68360       -1.62370
C        -10.01480       -1.26720       -0.13070
C        -11.38360       -1.20720       -0.07930
C        -12.13150       -1.52160       -1.23340
N        -12.74520       -1.78130       -2.16700
C        -12.16420       -0.82000        1.02200
N        -12.86420       -0.49000        1.87060
N         -9.12280       -1.01040        0.86040
C         -9.48510       -0.72260        2.23340
C         -9.99170       -1.94580        2.95940
C         -9.46610       -3.20130        2.68420
C         -9.92480       -4.31630        3.36270
C        -10.90750       -4.18480        4.32800
C        -11.42660       -2.93370        4.61450
C        -10.97240       -1.81890        3.93330
C         -7.77610       -1.13920        0.53490
O         -6.89150       -0.85920        1.31530
H          9.34560        3.21370       -2.08810
H          6.07710        6.08160       -6.63060
H         10.91320        6.94140       -5.84200
H          8.75940        0.59050        0.32610
H          9.67720        1.56330       -0.83210
H          8.98370        3.64140        0.38910
H          8.08680        2.64930        1.54400
H          9.84640        2.51890        1.44030
H          4.47540       -4.24560        4.24120
H          5.35290       -2.73350        3.93430
H          4.16730       -2.83590        5.25200
H          1.78760       -3.52990        5.53070
H          0.47710       -4.14520        4.50300
H          2.06100       -4.94610        4.51870
H         -6.41260       -3.47090        0.51750
H         -5.68480       -2.67630        1.91320
H         -4.45550       -5.08850        0.48120
H         -5.44620       -5.18290        1.93950
H         -3.88580       -4.36860        1.98990
H          0.33190        0.12390       -3.13130
H         -1.28540       -0.56790       -3.08410
H         -1.31460        1.93970       -3.38160
H         -2.22410        1.37150       -1.98220
H         -0.64520        2.11000       -1.75110
H          1.31180        1.74590       -2.43280
H          2.92100        2.45790       -2.46910
H          2.27430       -0.12150       -3.97810
H          3.74850        0.83850       -4.05700
H          2.24620        1.49660       -4.69860
H         -6.55740       -1.72690       -2.63940
H         -8.56030       -0.36940        2.70710
H        -10.22530        0.08010        2.26390
H         -8.68930       -3.31420        1.94010
H         -9.51200       -5.28820        3.13590
H        -11.26720       -5.05550        4.85540
H        -12.19290       -2.82420        5.36650
H        -11.38890       -0.84710        4.14940
