
  xtb     02022200163D
 energy: -254.090498312358 gnorm: 0.000267481328 xtb: 6.4.1 (unknown)
148162  0     0  0            999 V2000
   -4.1685    6.5374    4.1806 C   0  0  0  0  0  0  0  0  0  0  0  0
   -5.2754    7.2160    3.7456 C   0  0  0  0  0  0  0  0  0  0  0  0
   -5.4585    8.6323    4.1440 C   0  0  0  0  0  0  0  0  0  0  0  0
   -4.8524    9.2386    4.9967 O   0  0  0  0  0  0  0  0  0  0  0  0
   -6.5044    9.1551    3.2320 C   0  0  0  0  0  0  0  0  0  0  0  0
   -6.9741   10.4449    3.1017 C   0  0  0  0  0  0  0  0  0  0  0  0
   -7.9496   10.7014    2.1434 C   0  0  0  0  0  0  0  0  0  0  0  0
   -8.5554   12.2981    1.9514 Cl  0  0  0  0  0  0  0  0  0  0  0  0
   -8.4293    9.6625    1.3422 C   0  0  0  0  0  0  0  0  0  0  0  0
   -9.7397   10.0182    0.0259 Br  0  0  0  0  0  0  0  0  0  0  0  0
   -7.9657    8.3596    1.4814 C   0  0  0  0  0  0  0  0  0  0  0  0
   -6.9957    8.1055    2.4348 C   0  0  0  0  0  0  0  0  0  0  0  0
   -6.3422    6.8625    2.8417 C   0  0  0  0  0  0  0  0  0  0  0  0
   -6.8331    5.6011    2.6148 C   0  0  0  0  0  0  0  0  0  0  0  0
   -6.3550    4.4629    3.2918 C   0  0  0  0  0  0  0  0  0  0  0  0
   -6.0274    3.5220    3.8622 N   0  0  0  0  0  0  0  0  0  0  0  0
   -7.9131    5.3123    1.7584 C   0  0  0  0  0  0  0  0  0  0  0  0
   -8.7657    5.0202    1.0472 N   0  0  0  0  0  0  0  0  0  0  0  0
   -3.5511    5.4009    3.6324 C   0  0  0  0  0  0  0  0  0  0  0  0
   -2.3123    4.5764    4.5701 S   0  0  0  0  0  0  0  0  0  0  0  0
   -2.0321    3.4951    3.2798 C   0  0  0  0  0  0  0  0  0  0  0  0
   -1.1563    2.3986    3.0180 C   0  0  0  0  0  0  0  0  0  0  0  0
   -1.4051    1.9836    1.6810 C   0  0  0  0  0  0  0  0  0  0  0  0
   -2.4967    2.8263    1.0421 C   0  0  0  0  0  0  0  0  0  0  0  0
   -3.6492    1.9220    0.6421 C   0  0  0  0  0  0  0  0  0  0  0  0
   -3.6535    1.3087   -0.6046 C   0  0  0  0  0  0  0  0  0  0  0  0
   -4.6954    0.4791   -0.9734 C   0  0  0  0  0  0  0  0  0  0  0  0
   -5.7549    0.2355   -0.1089 C   0  0  0  0  0  0  0  0  0  0  0  0
   -6.9243   -0.6023   -0.5376 C   0  0  0  0  0  0  0  0  0  0  0  0
   -8.0102    0.2828   -1.1535 C   0  0  0  0  0  0  0  0  0  0  0  0
   -5.7323    0.8320    1.1444 C   0  0  0  0  0  0  0  0  0  0  0  0
   -4.6894    1.6575    1.5215 C   0  0  0  0  0  0  0  0  0  0  0  0
   -2.0211    3.6722   -0.1267 C   0  0  0  0  0  0  0  0  0  0  0  0
   -2.9637    4.3137   -0.9224 C   0  0  0  0  0  0  0  0  0  0  0  0
   -2.5665    5.1247   -1.9671 C   0  0  0  0  0  0  0  0  0  0  0  0
   -1.2190    5.3241   -2.2421 C   0  0  0  0  0  0  0  0  0  0  0  0
   -0.7911    6.1613   -3.4123 C   0  0  0  0  0  0  0  0  0  0  0  0
   -0.7066    5.3042   -4.6771 C   0  0  0  0  0  0  0  0  0  0  0  0
   -0.2824    4.6904   -1.4379 C   0  0  0  0  0  0  0  0  0  0  0  0
   -0.6749    3.8794   -0.3875 C   0  0  0  0  0  0  0  0  0  0  0  0
   -2.8333    3.7646    2.1725 C   0  0  0  0  0  0  0  0  0  0  0  0
   -3.6885    4.8330    2.3665 C   0  0  0  0  0  0  0  0  0  0  0  0
   -0.7008    0.9471    1.1244 C   0  0  0  0  0  0  0  0  0  0  0  0
    0.2825    0.3407    1.9077 C   0  0  0  0  0  0  0  0  0  0  0  0
    1.2191   -0.7015    1.6400 C   0  0  0  0  0  0  0  0  0  0  0  0
    1.4732   -1.4715    0.5037 C   0  0  0  0  0  0  0  0  0  0  0  0
    2.4984   -2.3791    0.5706 C   0  0  0  0  0  0  0  0  0  0  0  0
    3.2757   -2.5204    1.7535 C   0  0  0  0  0  0  0  0  0  0  0  0
    3.0267   -1.7816    2.8993 C   0  0  0  0  0  0  0  0  0  0  0  0
    1.9905   -0.8634    2.8259 C   0  0  0  0  0  0  0  0  0  0  0  0
    1.5584    0.0321    3.7712 N   0  0  0  0  0  0  0  0  0  0  0  0
    2.0601    0.1377    5.1165 C   0  0  0  0  0  0  0  0  0  0  0  0
    1.3098   -0.7896    6.0708 C   0  0  0  0  0  0  0  0  0  0  0  0
    0.5264    0.7667    3.2438 C   0  0  0  0  0  0  0  0  0  0  0  0
   -0.2008    1.7964    3.8208 C   0  0  0  0  0  0  0  0  0  0  0  0
    4.3106   -3.4586    1.4586 C   0  0  0  0  0  0  0  0  0  0  0  0
    5.6561   -4.1215    2.2739 S   0  0  0  0  0  0  0  0  0  0  0  0
    6.1859   -4.9054    0.7928 C   0  0  0  0  0  0  0  0  0  0  0  0
    5.2897   -4.6758   -0.2508 C   0  0  0  0  0  0  0  0  0  0  0  0
    4.2322   -3.8743    0.1301 C   0  0  0  0  0  0  0  0  0  0  0  0
    3.0014   -3.3003   -0.5269 C   0  0  0  0  0  0  0  0  0  0  0  0
    3.3265   -2.4999   -1.7739 C   0  0  0  0  0  0  0  0  0  0  0  0
    2.4540   -2.4402   -2.8515 C   0  0  0  0  0  0  0  0  0  0  0  0
    2.7974   -1.7332   -3.9900 C   0  0  0  0  0  0  0  0  0  0  0  0
    4.0107   -1.0641   -4.0790 C   0  0  0  0  0  0  0  0  0  0  0  0
    4.4328   -0.3855   -5.3487 C   0  0  0  0  0  0  0  0  0  0  0  0
    5.2690   -1.3439   -6.2003 C   0  0  0  0  0  0  0  0  0  0  0  0
    4.8558   -1.0842   -2.9767 C   0  0  0  0  0  0  0  0  0  0  0  0
    4.5140   -1.7817   -1.8349 C   0  0  0  0  0  0  0  0  0  0  0  0
    2.0707   -4.4690   -0.8095 C   0  0  0  0  0  0  0  0  0  0  0  0
    0.9612   -4.7365   -0.0216 C   0  0  0  0  0  0  0  0  0  0  0  0
    0.1676   -5.8402   -0.2804 C   0  0  0  0  0  0  0  0  0  0  0  0
    0.4647   -6.7085   -1.3211 C   0  0  0  0  0  0  0  0  0  0  0  0
   -0.4249   -7.8788   -1.6253 C   0  0  0  0  0  0  0  0  0  0  0  0
   -1.5277   -7.4707   -2.6044 C   0  0  0  0  0  0  0  0  0  0  0  0
    1.5811   -6.4401   -2.1037 C   0  0  0  0  0  0  0  0  0  0  0  0
    2.3762   -5.3401   -1.8496 C   0  0  0  0  0  0  0  0  0  0  0  0
    7.3643   -5.6710    0.7808 C   0  0  0  0  0  0  0  0  0  0  0  0
    8.1212   -6.0067   -0.3121 C   0  0  0  0  0  0  0  0  0  0  0  0
    9.0205   -7.1822   -0.2635 C   0  0  0  0  0  0  0  0  0  0  0  0
    9.3376   -7.8202    0.7098 O   0  0  0  0  0  0  0  0  0  0  0  0
    9.4006   -7.4249   -1.6830 C   0  0  0  0  0  0  0  0  0  0  0  0
    8.8623   -6.4102   -2.4961 C   0  0  0  0  0  0  0  0  0  0  0  0
    9.0589   -6.4136   -3.8654 C   0  0  0  0  0  0  0  0  0  0  0  0
    9.8017   -7.4503   -4.4121 C   0  0  0  0  0  0  0  0  0  0  0  0
    9.9972   -7.4846   -5.7326 F   0  0  0  0  0  0  0  0  0  0  0  0
   10.3502   -8.4595   -3.6240 C   0  0  0  0  0  0  0  0  0  0  0  0
   11.0661   -9.4361   -4.1876 F   0  0  0  0  0  0  0  0  0  0  0  0
   10.1479   -8.4465   -2.2410 C   0  0  0  0  0  0  0  0  0  0  0  0
   10.6768   -9.4126   -1.4978 F   0  0  0  0  0  0  0  0  0  0  0  0
    8.1775   -5.4440   -1.6369 C   0  0  0  0  0  0  0  0  0  0  0  0
    7.9051   -4.1415   -1.9767 C   0  0  0  0  0  0  0  0  0  0  0  0
    7.5995   -3.1578   -1.0162 C   0  0  0  0  0  0  0  0  0  0  0  0
    7.4193   -2.3107   -0.2626 N   0  0  0  0  0  0  0  0  0  0  0  0
    7.9730   -3.6157   -3.2802 C   0  0  0  0  0  0  0  0  0  0  0  0
    7.9657   -3.1412   -4.3259 N   0  0  0  0  0  0  0  0  0  0  0  0
   -3.6529    7.0040    5.0144 H   0  0  0  0  0  0  0  0  0  0  0  0
   -6.5934   11.2355    3.7286 H   0  0  0  0  0  0  0  0  0  0  0  0
   -8.3591    7.5837    0.8438 H   0  0  0  0  0  0  0  0  0  0  0  0
   -2.8467    1.4965   -1.2987 H   0  0  0  0  0  0  0  0  0  0  0  0
   -4.6874    0.0175   -1.9508 H   0  0  0  0  0  0  0  0  0  0  0  0
   -7.3373   -1.1301    0.3243 H   0  0  0  0  0  0  0  0  0  0  0  0
   -6.6025   -1.3434   -1.2722 H   0  0  0  0  0  0  0  0  0  0  0  0
   -8.3482    1.0241   -0.4330 H   0  0  0  0  0  0  0  0  0  0  0  0
   -7.6224    0.8062   -2.0247 H   0  0  0  0  0  0  0  0  0  0  0  0
   -8.8630   -0.3182   -1.4603 H   0  0  0  0  0  0  0  0  0  0  0  0
   -6.5411    0.6543    1.8380 H   0  0  0  0  0  0  0  0  0  0  0  0
   -4.7017    2.1059    2.5037 H   0  0  0  0  0  0  0  0  0  0  0  0
   -4.0164    4.1624   -0.7296 H   0  0  0  0  0  0  0  0  0  0  0  0
   -3.3132    5.6117   -2.5781 H   0  0  0  0  0  0  0  0  0  0  0  0
    0.1859    6.6059   -3.2128 H   0  0  0  0  0  0  0  0  0  0  0  0
   -1.5086    6.9686   -3.5724 H   0  0  0  0  0  0  0  0  0  0  0  0
   -0.3987    5.9090   -5.5267 H   0  0  0  0  0  0  0  0  0  0  0  0
    0.0147    4.5013   -4.5419 H   0  0  0  0  0  0  0  0  0  0  0  0
   -1.6748    4.8608   -4.8987 H   0  0  0  0  0  0  0  0  0  0  0  0
    0.7711    4.8339   -1.6314 H   0  0  0  0  0  0  0  0  0  0  0  0
    0.0751    3.4032    0.2268 H   0  0  0  0  0  0  0  0  0  0  0  0
   -4.3498    5.2284    1.6172 H   0  0  0  0  0  0  0  0  0  0  0  0
   -0.8812    0.6184    0.1131 H   0  0  0  0  0  0  0  0  0  0  0  0
    0.8895   -1.3458   -0.3950 H   0  0  0  0  0  0  0  0  0  0  0  0
    3.6321   -1.9137    3.7822 H   0  0  0  0  0  0  0  0  0  0  0  0
    1.9579    1.1756    5.4428 H   0  0  0  0  0  0  0  0  0  0  0  0
    3.1244   -0.1107    5.1092 H   0  0  0  0  0  0  0  0  0  0  0  0
    1.4170   -1.8244    5.7541 H   0  0  0  0  0  0  0  0  0  0  0  0
    0.2512   -0.5410    6.0843 H   0  0  0  0  0  0  0  0  0  0  0  0
    1.7055   -0.6894    7.0775 H   0  0  0  0  0  0  0  0  0  0  0  0
   -0.0416    2.1320    4.8334 H   0  0  0  0  0  0  0  0  0  0  0  0
    5.4127   -5.1129   -1.2254 H   0  0  0  0  0  0  0  0  0  0  0  0
    1.5081   -2.9610   -2.8102 H   0  0  0  0  0  0  0  0  0  0  0  0
    2.1128   -1.7095   -4.8262 H   0  0  0  0  0  0  0  0  0  0  0  0
    3.5539   -0.0690   -5.9144 H   0  0  0  0  0  0  0  0  0  0  0  0
    5.0283    0.4992   -5.1150 H   0  0  0  0  0  0  0  0  0  0  0  0
    5.5989   -0.8521   -7.1122 H   0  0  0  0  0  0  0  0  0  0  0  0
    6.1442   -1.6783   -5.6480 H   0  0  0  0  0  0  0  0  0  0  0  0
    4.6810   -2.2185   -6.4708 H   0  0  0  0  0  0  0  0  0  0  0  0
    5.7963   -0.5538   -3.0128 H   0  0  0  0  0  0  0  0  0  0  0  0
    5.1828   -1.7741   -0.9871 H   0  0  0  0  0  0  0  0  0  0  0  0
    0.7088   -4.0812    0.7989 H   0  0  0  0  0  0  0  0  0  0  0  0
   -0.6949   -6.0300    0.3424 H   0  0  0  0  0  0  0  0  0  0  0  0
   -0.8804   -8.2468   -0.7039 H   0  0  0  0  0  0  0  0  0  0  0  0
    0.1634   -8.6877   -2.0630 H   0  0  0  0  0  0  0  0  0  0  0  0
   -2.1313   -6.6706   -2.1817 H   0  0  0  0  0  0  0  0  0  0  0  0
   -2.1751   -8.3167   -2.8223 H   0  0  0  0  0  0  0  0  0  0  0  0
   -1.0937   -7.1159   -3.5366 H   0  0  0  0  0  0  0  0  0  0  0  0
    1.8325   -7.1032   -2.9192 H   0  0  0  0  0  0  0  0  0  0  0  0
    3.2361   -5.1449   -2.4740 H   0  0  0  0  0  0  0  0  0  0  0  0
    7.6840   -6.1038    1.7228 H   0  0  0  0  0  0  0  0  0  0  0  0
    8.6562   -5.6550   -4.5168 H   0  0  0  0  0  0  0  0  0  0  0  0
  1  2  2  0  0  0  0
  2  3  1  0  0  0  0
  3  4  2  0  0  0  0
  3  5  1  0  0  0  0
  5  6  2  0  0  0  0
  6  7  1  0  0  0  0
  7  8  1  0  0  0  0
  7  9  2  0  0  0  0
  9 10  1  0  0  0  0
  9 11  1  0  0  0  0
 11 12  2  0  0  0  0
 12 13  1  0  0  0  0
 13 14  2  0  0  0  0
 14 15  1  0  0  0  0
 15 16  3  0  0  0  0
 14 17  1  0  0  0  0
 17 18  3  0  0  0  0
  1 19  1  0  0  0  0
 19 20  1  0  0  0  0
 20 21  1  0  0  0  0
 21 22  1  0  0  0  0
 22 23  2  0  0  0  0
 23 24  1  0  0  0  0
 24 25  1  0  0  0  0
 25 26  2  0  0  0  0
 26 27  1  0  0  0  0
 27 28  2  0  0  0  0
 28 29  1  0  0  0  0
 29 30  1  0  0  0  0
 28 31  1  0  0  0  0
 31 32  2  0  0  0  0
 24 33  1  0  0  0  0
 33 34  2  0  0  0  0
 34 35  1  0  0  0  0
 35 36  2  0  0  0  0
 36 37  1  0  0  0  0
 37 38  1  0  0  0  0
 36 39  1  0  0  0  0
 39 40  2  0  0  0  0
 24 41  1  0  0  0  0
 41 42  1  0  0  0  0
 23 43  1  0  0  0  0
 43 44  2  0  0  0  0
 44 45  1  0  0  0  0
 45 46  2  0  0  0  0
 46 47  1  0  0  0  0
 47 48  2  0  0  0  0
 48 49  1  0  0  0  0
 49 50  2  0  0  0  0
 50 51  1  0  0  0  0
 51 52  1  0  0  0  0
 52 53  1  0  0  0  0
 51 54  1  0  0  0  0
 54 55  2  0  0  0  0
 48 56  1  0  0  0  0
 56 57  1  0  0  0  0
 57 58  1  0  0  0  0
 58 59  2  0  0  0  0
 59 60  1  0  0  0  0
 60 61  1  0  0  0  0
 61 62  1  0  0  0  0
 62 63  2  0  0  0  0
 63 64  1  0  0  0  0
 64 65  2  0  0  0  0
 65 66  1  0  0  0  0
 66 67  1  0  0  0  0
 65 68  1  0  0  0  0
 68 69  2  0  0  0  0
 61 70  1  0  0  0  0
 70 71  2  0  0  0  0
 71 72  1  0  0  0  0
 72 73  2  0  0  0  0
 73 74  1  0  0  0  0
 74 75  1  0  0  0  0
 73 76  1  0  0  0  0
 76 77  2  0  0  0  0
 58 78  1  0  0  0  0
 78 79  2  0  0  0  0
 79 80  1  0  0  0  0
 80 81  2  0  0  0  0
 80 82  1  0  0  0  0
 82 83  2  0  0  0  0
 83 84  1  0  0  0  0
 84 85  2  0  0  0  0
 85 86  1  0  0  0  0
 85 87  1  0  0  0  0
 87 88  1  0  0  0  0
 87 89  2  0  0  0  0
 89 90  1  0  0  0  0
 83 91  1  0  0  0  0
 91 92  2  0  0  0  0
 92 93  1  0  0  0  0
 93 94  3  0  0  0  0
 92 95  1  0  0  0  0
 95 96  3  0  0  0  0
 13  2  1  0  0  0  0
 42 19  2  0  0  0  0
 54 44  1  0  0  0  0
 60 56  2  0  0  0  0
 69 62  1  0  0  0  0
 77 70  1  0  0  0  0
 91 79  1  0  0  0  0
 12  5  1  0  0  0  0
 41 21  2  0  0  0  0
 50 45  1  0  0  0  0
 89 82  1  0  0  0  0
 55 22  1  0  0  0  0
 32 25  1  0  0  0  0
 40 33  1  0  0  0  0
 61 47  1  0  0  0  0
  1 97  1  0  0  0  0
  6 98  1  0  0  0  0
 11 99  1  0  0  0  0
 26100  1  0  0  0  0
 27101  1  0  0  0  0
 29102  1  0  0  0  0
 29103  1  0  0  0  0
 30104  1  0  0  0  0
 30105  1  0  0  0  0
 30106  1  0  0  0  0
 31107  1  0  0  0  0
 32108  1  0  0  0  0
 34109  1  0  0  0  0
 35110  1  0  0  0  0
 37111  1  0  0  0  0
 37112  1  0  0  0  0
 38113  1  0  0  0  0
 38114  1  0  0  0  0
 38115  1  0  0  0  0
 39116  1  0  0  0  0
 40117  1  0  0  0  0
 42118  1  0  0  0  0
 43119  1  0  0  0  0
 46120  1  0  0  0  0
 49121  1  0  0  0  0
 52122  1  0  0  0  0
 52123  1  0  0  0  0
 53124  1  0  0  0  0
 53125  1  0  0  0  0
 53126  1  0  0  0  0
 55127  1  0  0  0  0
 59128  1  0  0  0  0
 63129  1  0  0  0  0
 64130  1  0  0  0  0
 66131  1  0  0  0  0
 66132  1  0  0  0  0
 67133  1  0  0  0  0
 67134  1  0  0  0  0
 67135  1  0  0  0  0
 68136  1  0  0  0  0
 69137  1  0  0  0  0
 71138  1  0  0  0  0
 72139  1  0  0  0  0
 74140  1  0  0  0  0
 74141  1  0  0  0  0
 75142  1  0  0  0  0
 75143  1  0  0  0  0
 75144  1  0  0  0  0
 76145  1  0  0  0  0
 77146  1  0  0  0  0
 78147  1  0  0  0  0
 84148  1  0  0  0  0
M  END
