162

C         -3.13170       -4.87510       -8.36530
C         -3.27300       -6.20830       -8.68260
C         -2.88590       -7.33500       -7.83400
O         -2.36820       -7.30450       -6.73260
C         -3.25670       -8.55420       -8.58550
C         -3.10660       -9.87300       -8.21370
C         -3.53820      -10.86040       -9.09280
Cl        -3.36870      -12.51660       -8.66520
C         -4.10690      -10.49950      -10.31540
Br        -4.69860      -11.84240      -11.50950
C         -4.25630       -9.16880      -10.68930
C         -3.82620       -8.18470       -9.81570
C         -3.84240       -6.72370       -9.90780
C         -4.31410       -6.01090      -10.98240
C         -4.85210       -6.60010      -12.14530
N         -5.30130       -7.01490      -13.11710
C         -4.33530       -4.60620      -11.09830
N         -4.39060       -3.47240      -11.27850
C         -2.60570       -4.25510       -7.23120
S         -1.92290       -5.06080       -5.81330
C         -1.60750       -3.52970       -5.09810
C         -1.07090       -2.95430       -3.95240
S         -0.31930       -3.43670       -2.46650
C         -0.14360       -1.76510       -2.05830
C          0.40450       -1.08030       -0.93240
C          0.98260       -1.57550        0.23320
C          1.38700       -0.65960        1.17410
C          2.03750       -0.90870        2.53230
C          1.14180       -1.75830        3.41680
C          1.63450       -2.76120        4.24680
C          0.76560       -3.47610        5.05070
C         -0.59270       -3.20990        5.05630
C         -1.09300       -2.20060        4.23950
O         -2.39480       -1.83440        4.15350
C         -3.36050       -2.52270        4.92440
C         -4.71720       -1.91460        4.60650
C         -0.21430       -1.48240        3.42830
C          3.40580       -1.51000        2.26150
C          4.55750       -0.74150        2.32060
C          5.78610       -1.31350        2.02340
C          5.87510       -2.63840        1.66020
C          4.71920       -3.41890        1.57420
O          4.91060       -4.70340        1.17720
C          3.81090       -5.58250        1.04670
C          3.33450       -6.14320        2.38400
C          3.49150       -2.84410        1.87520
C          2.11030        0.50170        3.07860
C          1.64740        1.39920        2.12690
C          1.20110        0.72180        0.95270
C          0.62650        1.21710       -0.21470
C          0.23530        0.30280       -1.16300
C         -0.45070        0.54980       -2.50460
C         -1.82260        1.17290       -2.27720
C         -2.33890        2.17590       -3.08970
C         -3.59460        2.69260       -2.82990
C         -4.36440        2.22330       -1.78040
C         -3.86700        1.20530       -0.97250
O         -4.49860        0.65320        0.09510
C         -5.80560        1.06810        0.43900
C         -6.87540        0.44680       -0.45440
C         -2.59770        0.69020       -1.23610
C          0.46370        1.38430       -3.38080
C          1.18010        0.81960       -4.42420
C          2.02230        1.61050       -5.19160
C          2.16150        2.95400       -4.92510
C          1.45740        3.53360       -3.86630
O          1.67920        4.85920       -3.67350
C          1.00580        5.55380       -2.64200
C         -0.43610        5.90260       -3.00160
C          0.61390        2.73940       -3.10090
C         -0.63510       -0.86900       -2.99610
C         -1.17040       -1.54290       -4.09760
N         -1.73300       -1.25120       -5.31030
C         -2.01840       -2.44510       -5.92440
C         -2.57260       -2.85690       -7.11710
C         -2.06670        0.04580       -5.83940
C         -3.54680        0.36350       -5.64400
S          1.68830        3.06370        2.59250
C          2.33870        2.57630        4.12210
C          2.75530        3.15340        5.31610
S          2.91010        4.68090        6.08970
C          3.53320        3.87990        7.53630
C          3.60530        2.48720        7.38680
C          3.16650        2.07390        6.14630
N          2.99920        0.88100        5.48880
C          3.29960       -0.40880        6.05650
C          4.76280       -0.79800        5.85940
C          2.50440        1.16840        4.24420
C          3.92080        4.49870        8.72760
C          3.90840        5.82220        9.10390
C          3.45230        6.94070        8.27210
O          3.04100        6.89420        7.12910
C          3.59490        8.14920        9.11210
C          3.30350        9.47280        8.84050
F          2.80580        9.84190        7.65550
C          3.52550       10.44560        9.80800
C          4.03890       10.07870       11.03910
C          4.33920        8.75410       11.33510
C          4.11570        7.78820       10.36840
C          4.32500        6.33750       10.38700
C          4.82900        5.63150       11.45150
C          5.04080        4.23830       11.49350
N          5.24540        3.11430       11.61950
C          5.21540        6.20710       12.67940
N          5.55000        6.60060       13.70520
H         -3.48440       -4.16810       -9.10610
H         -2.66490      -10.12990       -7.26400
H         -4.70150       -8.93720      -11.64320
H          1.07550       -2.63980        0.37710
H          2.68910       -2.99260        4.26100
H          1.15230       -4.25670        5.68940
H         -1.24210       -3.78710        5.69470
H         -3.35430       -3.59160        4.66960
H         -3.13640       -2.41490        5.99490
H         -4.72060       -0.86000        4.86810
H         -5.49330       -2.42570        5.16870
H         -4.92250       -2.00790        3.54360
H         -0.62580       -0.70400        2.80470
H          4.50620        0.30260        2.58830
H          6.68090       -0.71170        2.07740
H          6.82260       -3.09590        1.42580
H          4.19160       -6.39660        0.42350
H          2.98770       -5.09640        0.50890
H          2.55740       -6.88270        2.21100
H          2.93570       -5.35960        3.02350
H          4.16590       -6.61850        2.89840
H          2.58580       -3.42520        1.82140
H          0.48790        2.27920       -0.33400
H         -1.76890        2.56170       -3.92050
H         -3.98680        3.47750       -3.45990
H         -5.33590        2.65770       -1.60820
H         -5.93600        0.72130        1.46810
H         -5.87850        2.16250        0.43380
H         -6.80860       -0.63730       -0.40920
H         -6.74760        0.75480       -1.48930
H         -7.86010        0.75450       -0.11390
H         -2.23390       -0.09540       -0.59230
H          1.09170       -0.23290       -4.64410
H          2.57410        1.16620       -6.00620
H          2.81190        3.58090       -5.51350
H          1.58450        6.47320       -2.51690
H          1.05070        4.99090       -1.70160
H         -0.86730        6.51610       -2.21550
H         -1.04330        5.00850       -3.12020
H         -0.45590        6.45970       -3.93500
H          0.04990        3.16370       -2.28700
H         -2.94620       -2.21440       -7.89410
H         -1.44430        0.78540       -5.33360
H         -1.82000        0.05310       -6.90560
H         -4.16270       -0.37320       -6.15420
H         -3.77080        1.34630       -6.04800
H         -3.79680        0.35680       -4.58590
H          3.96640        1.84910        8.17340
H          3.06910       -0.36150        7.12490
H          2.64300       -1.14730        5.59330
H          4.99080       -0.90100        4.80110
H          4.95950       -1.74630        6.35170
H          5.41680       -0.04170        6.28700
H          4.27950        3.79470        9.46880
H          3.29280       11.47430        9.58230
H          4.20970       10.83700       11.78750
H          4.73690        8.50120       12.30340
