
  xtb     02022200523D
 energy: -281.456265724000 gnorm: 0.000525713962 xtb: 6.4.1 (unknown)
162178  0     0  0            999 V2000
   -3.1317   -4.8751   -8.3653 C   0  0  0  0  0  0  0  0  0  0  0  0
   -3.2730   -6.2083   -8.6826 C   0  0  0  0  0  0  0  0  0  0  0  0
   -2.8859   -7.3350   -7.8340 C   0  0  0  0  0  0  0  0  0  0  0  0
   -2.3682   -7.3045   -6.7326 O   0  0  0  0  0  0  0  0  0  0  0  0
   -3.2567   -8.5542   -8.5855 C   0  0  0  0  0  0  0  0  0  0  0  0
   -3.1066   -9.8730   -8.2137 C   0  0  0  0  0  0  0  0  0  0  0  0
   -3.5382  -10.8604   -9.0928 C   0  0  0  0  0  0  0  0  0  0  0  0
   -3.3687  -12.5166   -8.6652 Cl  0  0  0  0  0  0  0  0  0  0  0  0
   -4.1069  -10.4995  -10.3154 C   0  0  0  0  0  0  0  0  0  0  0  0
   -4.6986  -11.8424  -11.5095 Br  0  0  0  0  0  0  0  0  0  0  0  0
   -4.2563   -9.1688  -10.6893 C   0  0  0  0  0  0  0  0  0  0  0  0
   -3.8262   -8.1847   -9.8157 C   0  0  0  0  0  0  0  0  0  0  0  0
   -3.8424   -6.7237   -9.9078 C   0  0  0  0  0  0  0  0  0  0  0  0
   -4.3141   -6.0109  -10.9824 C   0  0  0  0  0  0  0  0  0  0  0  0
   -4.8521   -6.6001  -12.1453 C   0  0  0  0  0  0  0  0  0  0  0  0
   -5.3013   -7.0149  -13.1171 N   0  0  0  0  0  0  0  0  0  0  0  0
   -4.3353   -4.6062  -11.0983 C   0  0  0  0  0  0  0  0  0  0  0  0
   -4.3906   -3.4724  -11.2785 N   0  0  0  0  0  0  0  0  0  0  0  0
   -2.6057   -4.2551   -7.2312 C   0  0  0  0  0  0  0  0  0  0  0  0
   -1.9229   -5.0608   -5.8133 S   0  0  0  0  0  0  0  0  0  0  0  0
   -1.6075   -3.5297   -5.0981 C   0  0  0  0  0  0  0  0  0  0  0  0
   -1.0709   -2.9543   -3.9524 C   0  0  0  0  0  0  0  0  0  0  0  0
   -0.3193   -3.4367   -2.4665 S   0  0  0  0  0  0  0  0  0  0  0  0
   -0.1436   -1.7651   -2.0583 C   0  0  0  0  0  0  0  0  0  0  0  0
    0.4045   -1.0803   -0.9324 C   0  0  0  0  0  0  0  0  0  0  0  0
    0.9826   -1.5755    0.2332 C   0  0  0  0  0  0  0  0  0  0  0  0
    1.3870   -0.6596    1.1741 C   0  0  0  0  0  0  0  0  0  0  0  0
    2.0375   -0.9087    2.5323 C   0  0  0  0  0  0  0  0  0  0  0  0
    1.1418   -1.7583    3.4168 C   0  0  0  0  0  0  0  0  0  0  0  0
    1.6345   -2.7612    4.2468 C   0  0  0  0  0  0  0  0  0  0  0  0
    0.7656   -3.4761    5.0507 C   0  0  0  0  0  0  0  0  0  0  0  0
   -0.5927   -3.2099    5.0563 C   0  0  0  0  0  0  0  0  0  0  0  0
   -1.0930   -2.2006    4.2395 C   0  0  0  0  0  0  0  0  0  0  0  0
   -2.3948   -1.8344    4.1535 O   0  0  0  0  0  0  0  0  0  0  0  0
   -3.3605   -2.5227    4.9244 C   0  0  0  0  0  0  0  0  0  0  0  0
   -4.7172   -1.9146    4.6065 C   0  0  0  0  0  0  0  0  0  0  0  0
   -0.2143   -1.4824    3.4283 C   0  0  0  0  0  0  0  0  0  0  0  0
    3.4058   -1.5100    2.2615 C   0  0  0  0  0  0  0  0  0  0  0  0
    4.5575   -0.7415    2.3206 C   0  0  0  0  0  0  0  0  0  0  0  0
    5.7861   -1.3135    2.0234 C   0  0  0  0  0  0  0  0  0  0  0  0
    5.8751   -2.6384    1.6602 C   0  0  0  0  0  0  0  0  0  0  0  0
    4.7192   -3.4189    1.5742 C   0  0  0  0  0  0  0  0  0  0  0  0
    4.9106   -4.7034    1.1772 O   0  0  0  0  0  0  0  0  0  0  0  0
    3.8109   -5.5825    1.0467 C   0  0  0  0  0  0  0  0  0  0  0  0
    3.3345   -6.1432    2.3840 C   0  0  0  0  0  0  0  0  0  0  0  0
    3.4915   -2.8441    1.8752 C   0  0  0  0  0  0  0  0  0  0  0  0
    2.1103    0.5017    3.0786 C   0  0  0  0  0  0  0  0  0  0  0  0
    1.6474    1.3992    2.1269 C   0  0  0  0  0  0  0  0  0  0  0  0
    1.2011    0.7218    0.9527 C   0  0  0  0  0  0  0  0  0  0  0  0
    0.6265    1.2171   -0.2147 C   0  0  0  0  0  0  0  0  0  0  0  0
    0.2353    0.3028   -1.1630 C   0  0  0  0  0  0  0  0  0  0  0  0
   -0.4507    0.5498   -2.5046 C   0  0  0  0  0  0  0  0  0  0  0  0
   -1.8226    1.1729   -2.2772 C   0  0  0  0  0  0  0  0  0  0  0  0
   -2.3389    2.1759   -3.0897 C   0  0  0  0  0  0  0  0  0  0  0  0
   -3.5946    2.6926   -2.8299 C   0  0  0  0  0  0  0  0  0  0  0  0
   -4.3644    2.2233   -1.7804 C   0  0  0  0  0  0  0  0  0  0  0  0
   -3.8670    1.2053   -0.9725 C   0  0  0  0  0  0  0  0  0  0  0  0
   -4.4986    0.6532    0.0951 O   0  0  0  0  0  0  0  0  0  0  0  0
   -5.8056    1.0681    0.4390 C   0  0  0  0  0  0  0  0  0  0  0  0
   -6.8754    0.4468   -0.4544 C   0  0  0  0  0  0  0  0  0  0  0  0
   -2.5977    0.6902   -1.2361 C   0  0  0  0  0  0  0  0  0  0  0  0
    0.4637    1.3843   -3.3808 C   0  0  0  0  0  0  0  0  0  0  0  0
    1.1801    0.8196   -4.4242 C   0  0  0  0  0  0  0  0  0  0  0  0
    2.0223    1.6105   -5.1916 C   0  0  0  0  0  0  0  0  0  0  0  0
    2.1615    2.9540   -4.9251 C   0  0  0  0  0  0  0  0  0  0  0  0
    1.4574    3.5336   -3.8663 C   0  0  0  0  0  0  0  0  0  0  0  0
    1.6792    4.8592   -3.6735 O   0  0  0  0  0  0  0  0  0  0  0  0
    1.0058    5.5538   -2.6420 C   0  0  0  0  0  0  0  0  0  0  0  0
   -0.4361    5.9026   -3.0016 C   0  0  0  0  0  0  0  0  0  0  0  0
    0.6139    2.7394   -3.1009 C   0  0  0  0  0  0  0  0  0  0  0  0
   -0.6351   -0.8690   -2.9961 C   0  0  0  0  0  0  0  0  0  0  0  0
   -1.1704   -1.5429   -4.0976 C   0  0  0  0  0  0  0  0  0  0  0  0
   -1.7330   -1.2512   -5.3103 N   0  0  0  0  0  0  0  0  0  0  0  0
   -2.0184   -2.4451   -5.9244 C   0  0  0  0  0  0  0  0  0  0  0  0
   -2.5726   -2.8569   -7.1171 C   0  0  0  0  0  0  0  0  0  0  0  0
   -2.0667    0.0458   -5.8394 C   0  0  0  0  0  0  0  0  0  0  0  0
   -3.5468    0.3635   -5.6440 C   0  0  0  0  0  0  0  0  0  0  0  0
    1.6883    3.0637    2.5925 S   0  0  0  0  0  0  0  0  0  0  0  0
    2.3387    2.5763    4.1221 C   0  0  0  0  0  0  0  0  0  0  0  0
    2.7553    3.1534    5.3161 C   0  0  0  0  0  0  0  0  0  0  0  0
    2.9101    4.6809    6.0897 S   0  0  0  0  0  0  0  0  0  0  0  0
    3.5332    3.8799    7.5363 C   0  0  0  0  0  0  0  0  0  0  0  0
    3.6053    2.4872    7.3868 C   0  0  0  0  0  0  0  0  0  0  0  0
    3.1665    2.0739    6.1463 C   0  0  0  0  0  0  0  0  0  0  0  0
    2.9992    0.8810    5.4888 N   0  0  0  0  0  0  0  0  0  0  0  0
    3.2996   -0.4088    6.0565 C   0  0  0  0  0  0  0  0  0  0  0  0
    4.7628   -0.7980    5.8594 C   0  0  0  0  0  0  0  0  0  0  0  0
    2.5044    1.1684    4.2442 C   0  0  0  0  0  0  0  0  0  0  0  0
    3.9208    4.4987    8.7276 C   0  0  0  0  0  0  0  0  0  0  0  0
    3.9084    5.8222    9.1039 C   0  0  0  0  0  0  0  0  0  0  0  0
    3.4523    6.9407    8.2721 C   0  0  0  0  0  0  0  0  0  0  0  0
    3.0410    6.8942    7.1291 O   0  0  0  0  0  0  0  0  0  0  0  0
    3.5949    8.1492    9.1121 C   0  0  0  0  0  0  0  0  0  0  0  0
    3.3035    9.4728    8.8405 C   0  0  0  0  0  0  0  0  0  0  0  0
    2.8058    9.8419    7.6555 F   0  0  0  0  0  0  0  0  0  0  0  0
    3.5255   10.4456    9.8080 C   0  0  0  0  0  0  0  0  0  0  0  0
    4.0389   10.0787   11.0391 C   0  0  0  0  0  0  0  0  0  0  0  0
    4.3392    8.7541   11.3351 C   0  0  0  0  0  0  0  0  0  0  0  0
    4.1157    7.7882   10.3684 C   0  0  0  0  0  0  0  0  0  0  0  0
    4.3250    6.3375   10.3870 C   0  0  0  0  0  0  0  0  0  0  0  0
    4.8290    5.6315   11.4515 C   0  0  0  0  0  0  0  0  0  0  0  0
    5.0408    4.2383   11.4935 C   0  0  0  0  0  0  0  0  0  0  0  0
    5.2454    3.1143   11.6195 N   0  0  0  0  0  0  0  0  0  0  0  0
    5.2154    6.2071   12.6794 C   0  0  0  0  0  0  0  0  0  0  0  0
    5.5500    6.6006   13.7052 N   0  0  0  0  0  0  0  0  0  0  0  0
   -3.4844   -4.1681   -9.1061 H   0  0  0  0  0  0  0  0  0  0  0  0
   -2.6649  -10.1299   -7.2640 H   0  0  0  0  0  0  0  0  0  0  0  0
   -4.7015   -8.9372  -11.6432 H   0  0  0  0  0  0  0  0  0  0  0  0
    1.0755   -2.6398    0.3771 H   0  0  0  0  0  0  0  0  0  0  0  0
    2.6891   -2.9926    4.2610 H   0  0  0  0  0  0  0  0  0  0  0  0
    1.1523   -4.2567    5.6894 H   0  0  0  0  0  0  0  0  0  0  0  0
   -1.2421   -3.7871    5.6947 H   0  0  0  0  0  0  0  0  0  0  0  0
   -3.3543   -3.5916    4.6696 H   0  0  0  0  0  0  0  0  0  0  0  0
   -3.1364   -2.4149    5.9949 H   0  0  0  0  0  0  0  0  0  0  0  0
   -4.7206   -0.8600    4.8681 H   0  0  0  0  0  0  0  0  0  0  0  0
   -5.4933   -2.4257    5.1687 H   0  0  0  0  0  0  0  0  0  0  0  0
   -4.9225   -2.0079    3.5436 H   0  0  0  0  0  0  0  0  0  0  0  0
   -0.6258   -0.7040    2.8047 H   0  0  0  0  0  0  0  0  0  0  0  0
    4.5062    0.3026    2.5883 H   0  0  0  0  0  0  0  0  0  0  0  0
    6.6809   -0.7117    2.0774 H   0  0  0  0  0  0  0  0  0  0  0  0
    6.8226   -3.0959    1.4258 H   0  0  0  0  0  0  0  0  0  0  0  0
    4.1916   -6.3966    0.4235 H   0  0  0  0  0  0  0  0  0  0  0  0
    2.9877   -5.0964    0.5089 H   0  0  0  0  0  0  0  0  0  0  0  0
    2.5574   -6.8827    2.2110 H   0  0  0  0  0  0  0  0  0  0  0  0
    2.9357   -5.3596    3.0235 H   0  0  0  0  0  0  0  0  0  0  0  0
    4.1659   -6.6185    2.8984 H   0  0  0  0  0  0  0  0  0  0  0  0
    2.5858   -3.4252    1.8214 H   0  0  0  0  0  0  0  0  0  0  0  0
    0.4879    2.2792   -0.3340 H   0  0  0  0  0  0  0  0  0  0  0  0
   -1.7689    2.5617   -3.9205 H   0  0  0  0  0  0  0  0  0  0  0  0
   -3.9868    3.4775   -3.4599 H   0  0  0  0  0  0  0  0  0  0  0  0
   -5.3359    2.6577   -1.6082 H   0  0  0  0  0  0  0  0  0  0  0  0
   -5.9360    0.7213    1.4681 H   0  0  0  0  0  0  0  0  0  0  0  0
   -5.8785    2.1625    0.4338 H   0  0  0  0  0  0  0  0  0  0  0  0
   -6.8086   -0.6373   -0.4092 H   0  0  0  0  0  0  0  0  0  0  0  0
   -6.7476    0.7548   -1.4893 H   0  0  0  0  0  0  0  0  0  0  0  0
   -7.8601    0.7545   -0.1139 H   0  0  0  0  0  0  0  0  0  0  0  0
   -2.2339   -0.0954   -0.5923 H   0  0  0  0  0  0  0  0  0  0  0  0
    1.0917   -0.2329   -4.6441 H   0  0  0  0  0  0  0  0  0  0  0  0
    2.5741    1.1662   -6.0062 H   0  0  0  0  0  0  0  0  0  0  0  0
    2.8119    3.5809   -5.5135 H   0  0  0  0  0  0  0  0  0  0  0  0
    1.5845    6.4732   -2.5169 H   0  0  0  0  0  0  0  0  0  0  0  0
    1.0507    4.9909   -1.7016 H   0  0  0  0  0  0  0  0  0  0  0  0
   -0.8673    6.5161   -2.2155 H   0  0  0  0  0  0  0  0  0  0  0  0
   -1.0433    5.0085   -3.1202 H   0  0  0  0  0  0  0  0  0  0  0  0
   -0.4559    6.4597   -3.9350 H   0  0  0  0  0  0  0  0  0  0  0  0
    0.0499    3.1637   -2.2870 H   0  0  0  0  0  0  0  0  0  0  0  0
   -2.9462   -2.2144   -7.8941 H   0  0  0  0  0  0  0  0  0  0  0  0
   -1.4443    0.7854   -5.3336 H   0  0  0  0  0  0  0  0  0  0  0  0
   -1.8200    0.0531   -6.9056 H   0  0  0  0  0  0  0  0  0  0  0  0
   -4.1627   -0.3732   -6.1542 H   0  0  0  0  0  0  0  0  0  0  0  0
   -3.7708    1.3463   -6.0480 H   0  0  0  0  0  0  0  0  0  0  0  0
   -3.7968    0.3568   -4.5859 H   0  0  0  0  0  0  0  0  0  0  0  0
    3.9664    1.8491    8.1734 H   0  0  0  0  0  0  0  0  0  0  0  0
    3.0691   -0.3615    7.1249 H   0  0  0  0  0  0  0  0  0  0  0  0
    2.6430   -1.1473    5.5933 H   0  0  0  0  0  0  0  0  0  0  0  0
    4.9908   -0.9010    4.8011 H   0  0  0  0  0  0  0  0  0  0  0  0
    4.9595   -1.7463    6.3517 H   0  0  0  0  0  0  0  0  0  0  0  0
    5.4168   -0.0417    6.2870 H   0  0  0  0  0  0  0  0  0  0  0  0
    4.2795    3.7947    9.4688 H   0  0  0  0  0  0  0  0  0  0  0  0
    3.2928   11.4743    9.5823 H   0  0  0  0  0  0  0  0  0  0  0  0
    4.2097   10.8370   11.7875 H   0  0  0  0  0  0  0  0  0  0  0  0
    4.7369    8.5012   12.3034 H   0  0  0  0  0  0  0  0  0  0  0  0
  1  2  2  0  0  0  0
  2  3  1  0  0  0  0
  3  4  2  0  0  0  0
  3  5  1  0  0  0  0
  5  6  2  0  0  0  0
  6  7  1  0  0  0  0
  7  8  1  0  0  0  0
  7  9  2  0  0  0  0
  9 10  1  0  0  0  0
  9 11  1  0  0  0  0
 11 12  2  0  0  0  0
 12 13  1  0  0  0  0
 13 14  2  0  0  0  0
 14 15  1  0  0  0  0
 15 16  3  0  0  0  0
 14 17  1  0  0  0  0
 17 18  3  0  0  0  0
  1 19  1  0  0  0  0
 19 20  1  0  0  0  0
 20 21  1  0  0  0  0
 21 22  1  0  0  0  0
 22 23  1  0  0  0  0
 23 24  1  0  0  0  0
 24 25  1  0  0  0  0
 25 26  2  0  0  0  0
 26 27  1  0  0  0  0
 27 28  1  0  0  0  0
 28 29  1  0  0  0  0
 29 30  2  0  0  0  0
 30 31  1  0  0  0  0
 31 32  2  0  0  0  0
 32 33  1  0  0  0  0
 33 34  1  0  0  0  0
 34 35  1  0  0  0  0
 35 36  1  0  0  0  0
 33 37  2  0  0  0  0
 28 38  1  0  0  0  0
 38 39  2  0  0  0  0
 39 40  1  0  0  0  0
 40 41  2  0  0  0  0
 41 42  1  0  0  0  0
 42 43  1  0  0  0  0
 43 44  1  0  0  0  0
 44 45  1  0  0  0  0
 42 46  2  0  0  0  0
 28 47  1  0  0  0  0
 47 48  2  0  0  0  0
 48 49  1  0  0  0  0
 49 50  1  0  0  0  0
 50 51  2  0  0  0  0
 51 52  1  0  0  0  0
 52 53  1  0  0  0  0
 53 54  2  0  0  0  0
 54 55  1  0  0  0  0
 55 56  2  0  0  0  0
 56 57  1  0  0  0  0
 57 58  1  0  0  0  0
 58 59  1  0  0  0  0
 59 60  1  0  0  0  0
 57 61  2  0  0  0  0
 52 62  1  0  0  0  0
 62 63  2  0  0  0  0
 63 64  1  0  0  0  0
 64 65  2  0  0  0  0
 65 66  1  0  0  0  0
 66 67  1  0  0  0  0
 67 68  1  0  0  0  0
 68 69  1  0  0  0  0
 66 70  2  0  0  0  0
 52 71  1  0  0  0  0
 71 72  1  0  0  0  0
 72 73  1  0  0  0  0
 73 74  1  0  0  0  0
 74 75  1  0  0  0  0
 73 76  1  0  0  0  0
 76 77  1  0  0  0  0
 48 78  1  0  0  0  0
 78 79  1  0  0  0  0
 79 80  1  0  0  0  0
 80 81  1  0  0  0  0
 81 82  1  0  0  0  0
 82 83  2  0  0  0  0
 83 84  1  0  0  0  0
 84 85  1  0  0  0  0
 85 86  1  0  0  0  0
 86 87  1  0  0  0  0
 85 88  1  0  0  0  0
 82 89  1  0  0  0  0
 89 90  2  0  0  0  0
 90 91  1  0  0  0  0
 91 92  2  0  0  0  0
 91 93  1  0  0  0  0
 93 94  2  0  0  0  0
 94 95  1  0  0  0  0
 94 96  1  0  0  0  0
 96 97  2  0  0  0  0
 97 98  1  0  0  0  0
 98 99  2  0  0  0  0
 99100  1  0  0  0  0
100101  2  0  0  0  0
101102  1  0  0  0  0
102103  3  0  0  0  0
101104  1  0  0  0  0
104105  3  0  0  0  0
 13  2  1  0  0  0  0
 75 19  2  0  0  0  0
 88 79  2  0  0  0  0
100 90  1  0  0  0  0
 12  5  1  0  0  0  0
 74 21  2  0  0  0  0
 84 80  2  0  0  0  0
 99 93  1  0  0  0  0
 72 22  2  0  0  0  0
 71 24  2  0  0  0  0
 51 25  1  0  0  0  0
 61 53  1  0  0  0  0
 70 62  1  0  0  0  0
 49 27  2  0  0  0  0
 37 29  1  0  0  0  0
 46 38  1  0  0  0  0
 88 47  1  0  0  0  0
  1106  1  0  0  0  0
  6107  1  0  0  0  0
 11108  1  0  0  0  0
 26109  1  0  0  0  0
 30110  1  0  0  0  0
 31111  1  0  0  0  0
 32112  1  0  0  0  0
 35113  1  0  0  0  0
 35114  1  0  0  0  0
 36115  1  0  0  0  0
 36116  1  0  0  0  0
 36117  1  0  0  0  0
 37118  1  0  0  0  0
 39119  1  0  0  0  0
 40120  1  0  0  0  0
 41121  1  0  0  0  0
 44122  1  0  0  0  0
 44123  1  0  0  0  0
 45124  1  0  0  0  0
 45125  1  0  0  0  0
 45126  1  0  0  0  0
 46127  1  0  0  0  0
 50128  1  0  0  0  0
 54129  1  0  0  0  0
 55130  1  0  0  0  0
 56131  1  0  0  0  0
 59132  1  0  0  0  0
 59133  1  0  0  0  0
 60134  1  0  0  0  0
 60135  1  0  0  0  0
 60136  1  0  0  0  0
 61137  1  0  0  0  0
 63138  1  0  0  0  0
 64139  1  0  0  0  0
 65140  1  0  0  0  0
 68141  1  0  0  0  0
 68142  1  0  0  0  0
 69143  1  0  0  0  0
 69144  1  0  0  0  0
 69145  1  0  0  0  0
 70146  1  0  0  0  0
 75147  1  0  0  0  0
 76148  1  0  0  0  0
 76149  1  0  0  0  0
 77150  1  0  0  0  0
 77151  1  0  0  0  0
 77152  1  0  0  0  0
 83153  1  0  0  0  0
 86154  1  0  0  0  0
 86155  1  0  0  0  0
 87156  1  0  0  0  0
 87157  1  0  0  0  0
 87158  1  0  0  0  0
 89159  1  0  0  0  0
 96160  1  0  0  0  0
 97161  1  0  0  0  0
 98162  1  0  0  0  0
M  END
