
  xtb     01262217563D
 energy: -187.895169896000 gnorm: 0.000802031077 xtb: 6.4.1 (unknown)
116126  0     0  0            999 V2000
    5.4996    6.0000    8.4475 N   0  0  0  0  0  0  0  0  0  0  0  0
    4.5584    5.6651    7.8810 C   0  0  0  0  0  0  0  0  0  0  0  0
    3.4091    5.2683    7.1983 C   0  0  0  0  0  0  0  0  0  0  0  0
    2.1242    5.7174    7.4037 C   0  0  0  0  0  0  0  0  0  0  0  0
    1.1976    5.1167    6.5510 C   0  0  0  0  0  0  0  0  0  0  0  0
    1.7638    4.2028    5.6850 C   0  0  0  0  0  0  0  0  0  0  0  0
    3.4784    4.0834    5.9290 S   0  0  0  0  0  0  0  0  0  0  0  0
    1.1059    3.4218    4.6917 C   0  0  0  0  0  0  0  0  0  0  0  0
   -0.2393    3.4058    4.3929 C   0  0  0  0  0  0  0  0  0  0  0  0
   -0.5490    2.5052    3.3637 C   0  0  0  0  0  0  0  0  0  0  0  0
   -1.7844    2.3344    2.8572 O   0  0  0  0  0  0  0  0  0  0  0  0
   -2.0114    1.0499    2.2366 C   0  0  0  0  0  0  0  0  0  0  0  0
   -3.3013    1.1791    1.4488 C   0  0  0  0  0  0  0  0  0  0  0  0
   -4.1946    0.1202    1.3539 C   0  0  0  0  0  0  0  0  0  0  0  0
   -5.3390    0.2422    0.5886 C   0  0  0  0  0  0  0  0  0  0  0  0
   -5.6208    1.4183   -0.0947 C   0  0  0  0  0  0  0  0  0  0  0  0
   -6.8398    1.5217   -0.9649 C   0  0  0  0  0  0  0  0  0  0  0  0
   -6.5497    0.9523   -2.3553 C   0  0  0  0  0  0  0  0  0  0  0  0
   -4.7225    2.4723    0.0056 C   0  0  0  0  0  0  0  0  0  0  0  0
   -3.5731    2.3552    0.7644 C   0  0  0  0  0  0  0  0  0  0  0  0
   -2.1540    0.0246    3.3577 C   0  0  0  0  0  0  0  0  0  0  0  0
   -2.9669    0.3546    4.4359 C   0  0  0  0  0  0  0  0  0  0  0  0
   -3.1263   -0.5238    5.4888 C   0  0  0  0  0  0  0  0  0  0  0  0
   -2.4811   -1.7546    5.4917 C   0  0  0  0  0  0  0  0  0  0  0  0
   -2.6941   -2.7284    6.6143 C   0  0  0  0  0  0  0  0  0  0  0  0
   -3.9071   -3.6161    6.3276 C   0  0  0  0  0  0  0  0  0  0  0  0
   -1.6756   -2.0803    4.4093 C   0  0  0  0  0  0  0  0  0  0  0  0
   -1.5078   -1.2023    3.3528 C   0  0  0  0  0  0  0  0  0  0  0  0
   -0.8654    0.6756    1.3131 C   0  0  0  0  0  0  0  0  0  0  0  0
    0.4447    1.0050    1.7113 C   0  0  0  0  0  0  0  0  0  0  0  0
    0.5582    1.8412    2.8638 C   0  0  0  0  0  0  0  0  0  0  0  0
    2.0006    2.3151    3.6860 S   0  0  0  0  0  0  0  0  0  0  0  0
    1.5368    0.5942    0.9458 C   0  0  0  0  0  0  0  0  0  0  0  0
    1.3459   -0.1222   -0.2158 C   0  0  0  0  0  0  0  0  0  0  0  0
    0.0353   -0.4309   -0.6250 C   0  0  0  0  0  0  0  0  0  0  0  0
   -1.0572   -0.0327    0.1487 C   0  0  0  0  0  0  0  0  0  0  0  0
   -0.0874   -1.2153   -1.8119 C   0  0  0  0  0  0  0  0  0  0  0  0
   -1.5331   -1.6108   -2.6641 S   0  0  0  0  0  0  0  0  0  0  0  0
   -0.6448   -2.6542   -3.7480 C   0  0  0  0  0  0  0  0  0  0  0  0
    0.7019   -2.6720   -3.4457 C   0  0  0  0  0  0  0  0  0  0  0  0
    1.0189   -1.8507   -2.3581 C   0  0  0  0  0  0  0  0  0  0  0  0
    2.2511   -1.7272   -1.8388 O   0  0  0  0  0  0  0  0  0  0  0  0
    2.5065   -0.5002   -1.1185 C   0  0  0  0  0  0  0  0  0  0  0  0
    3.7464   -0.7603   -0.2813 C   0  0  0  0  0  0  0  0  0  0  0  0
    4.7107    0.2196   -0.0904 C   0  0  0  0  0  0  0  0  0  0  0  0
    5.8036   -0.0284    0.7197 C   0  0  0  0  0  0  0  0  0  0  0  0
    5.9600   -1.2531    1.3550 C   0  0  0  0  0  0  0  0  0  0  0  0
    7.1690   -1.5339    2.1995 C   0  0  0  0  0  0  0  0  0  0  0  0
    8.2742   -2.1723    1.3558 C   0  0  0  0  0  0  0  0  0  0  0  0
    4.9921   -2.2292    1.1558 C   0  0  0  0  0  0  0  0  0  0  0  0
    3.8939   -1.9857    0.3537 C   0  0  0  0  0  0  0  0  0  0  0  0
    2.7579    0.5882   -2.1580 C   0  0  0  0  0  0  0  0  0  0  0  0
    2.1643    1.8405   -2.1075 C   0  0  0  0  0  0  0  0  0  0  0  0
    2.4348    2.7778   -3.0890 C   0  0  0  0  0  0  0  0  0  0  0  0
    3.2949    2.4891   -4.1393 C   0  0  0  0  0  0  0  0  0  0  0  0
    3.5459    3.4948   -5.2252 C   0  0  0  0  0  0  0  0  0  0  0  0
    2.5108    3.3429   -6.3418 C   0  0  0  0  0  0  0  0  0  0  0  0
    3.8812    1.2301   -4.1865 C   0  0  0  0  0  0  0  0  0  0  0  0
    3.6196    0.2921   -3.2079 C   0  0  0  0  0  0  0  0  0  0  0  0
   -1.3108   -3.3456   -4.7871 C   0  0  0  0  0  0  0  0  0  0  0  0
   -2.6608   -3.3042   -5.1050 C   0  0  0  0  0  0  0  0  0  0  0  0
   -3.0021   -4.1018   -6.1852 C   0  0  0  0  0  0  0  0  0  0  0  0
   -1.9202   -4.7795   -6.7289 C   0  0  0  0  0  0  0  0  0  0  0  0
   -1.8658   -5.6760   -7.8289 C   0  0  0  0  0  0  0  0  0  0  0  0
   -2.9215   -6.0918   -8.6160 C   0  0  0  0  0  0  0  0  0  0  0  0
   -2.7071   -6.9879   -9.6848 C   0  0  0  0  0  0  0  0  0  0  0  0
   -2.5534   -7.7121  -10.5608 N   0  0  0  0  0  0  0  0  0  0  0  0
   -4.2606   -5.6974   -8.4543 C   0  0  0  0  0  0  0  0  0  0  0  0
   -5.3664   -5.4013   -8.3607 N   0  0  0  0  0  0  0  0  0  0  0  0
   -0.5871   -6.2011   -8.1551 C   0  0  0  0  0  0  0  0  0  0  0  0
    0.4501   -6.6173   -8.4055 N   0  0  0  0  0  0  0  0  0  0  0  0
   -0.4487   -4.3997   -5.8581 S   0  0  0  0  0  0  0  0  0  0  0  0
    1.8772    6.4538    8.1475 H   0  0  0  0  0  0  0  0  0  0  0  0
    0.1471    5.3404    6.5637 H   0  0  0  0  0  0  0  0  0  0  0  0
   -0.9755    4.0123    4.8848 H   0  0  0  0  0  0  0  0  0  0  0  0
   -3.9941   -0.8026    1.8784 H   0  0  0  0  0  0  0  0  0  0  0  0
   -6.0259   -0.5895    0.5236 H   0  0  0  0  0  0  0  0  0  0  0  0
   -7.6646    0.9661   -0.5143 H   0  0  0  0  0  0  0  0  0  0  0  0
   -7.1417    2.5664   -1.0589 H   0  0  0  0  0  0  0  0  0  0  0  0
   -6.2629   -0.0945   -2.2832 H   0  0  0  0  0  0  0  0  0  0  0  0
   -5.7342    1.4981   -2.8248 H   0  0  0  0  0  0  0  0  0  0  0  0
   -7.4300    1.0288   -2.9889 H   0  0  0  0  0  0  0  0  0  0  0  0
   -4.9233    3.3958   -0.5184 H   0  0  0  0  0  0  0  0  0  0  0  0
   -2.8827    3.1818    0.8352 H   0  0  0  0  0  0  0  0  0  0  0  0
   -3.4711    1.3099    4.4394 H   0  0  0  0  0  0  0  0  0  0  0  0
   -3.7601   -0.2514    6.3205 H   0  0  0  0  0  0  0  0  0  0  0  0
   -2.8585   -2.1864    7.5477 H   0  0  0  0  0  0  0  0  0  0  0  0
   -1.8089   -3.3560    6.7340 H   0  0  0  0  0  0  0  0  0  0  0  0
   -4.8023   -3.0088    6.2140 H   0  0  0  0  0  0  0  0  0  0  0  0
   -3.7561   -4.1779    5.4086 H   0  0  0  0  0  0  0  0  0  0  0  0
   -4.0649   -4.3187    7.1424 H   0  0  0  0  0  0  0  0  0  0  0  0
   -1.1659   -3.0331    4.3920 H   0  0  0  0  0  0  0  0  0  0  0  0
   -0.8734   -1.4816    2.5243 H   0  0  0  0  0  0  0  0  0  0  0  0
    2.5312    0.8644    1.2688 H   0  0  0  0  0  0  0  0  0  0  0  0
   -2.0510   -0.3027   -0.1764 H   0  0  0  0  0  0  0  0  0  0  0  0
    1.4245   -3.2547   -3.9872 H   0  0  0  0  0  0  0  0  0  0  0  0
    4.6077    1.1799   -0.5743 H   0  0  0  0  0  0  0  0  0  0  0  0
    6.5451    0.7446    0.8616 H   0  0  0  0  0  0  0  0  0  0  0  0
    7.5402   -0.6044    2.6353 H   0  0  0  0  0  0  0  0  0  0  0  0
    6.9021   -2.2109    3.0134 H   0  0  0  0  0  0  0  0  0  0  0  0
    7.9257   -3.1055    0.9191 H   0  0  0  0  0  0  0  0  0  0  0  0
    9.1480   -2.3801    1.9688 H   0  0  0  0  0  0  0  0  0  0  0  0
    8.5664   -1.5052    0.5480 H   0  0  0  0  0  0  0  0  0  0  0  0
    5.0950   -3.1889    1.6417 H   0  0  0  0  0  0  0  0  0  0  0  0
    3.1463   -2.7513    0.2112 H   0  0  0  0  0  0  0  0  0  0  0  0
    1.4927    2.0948   -1.3007 H   0  0  0  0  0  0  0  0  0  0  0  0
    1.9681    3.7510   -3.0343 H   0  0  0  0  0  0  0  0  0  0  0  0
    4.5454    3.3506   -5.6397 H   0  0  0  0  0  0  0  0  0  0  0  0
    3.4875    4.5051   -4.8157 H   0  0  0  0  0  0  0  0  0  0  0  0
    1.5072    3.4930   -5.9502 H   0  0  0  0  0  0  0  0  0  0  0  0
    2.5634    2.3458   -6.7733 H   0  0  0  0  0  0  0  0  0  0  0  0
    2.6900    4.0719   -7.1284 H   0  0  0  0  0  0  0  0  0  0  0  0
    4.5553    0.9850   -4.9945 H   0  0  0  0  0  0  0  0  0  0  0  0
    4.0832   -0.6827   -3.2469 H   0  0  0  0  0  0  0  0  0  0  0  0
   -3.3612   -2.7026   -4.5536 H   0  0  0  0  0  0  0  0  0  0  0  0
   -4.0028   -4.1881   -6.5667 H   0  0  0  0  0  0  0  0  0  0  0  0
  1  2  3  0  0  0  0
  2  3  1  0  0  0  0
  3  4  2  0  0  0  0
  4  5  1  0  0  0  0
  5  6  2  0  0  0  0
  6  7  1  0  0  0  0
  6  8  1  0  0  0  0
  8  9  2  0  0  0  0
  9 10  1  0  0  0  0
 10 11  1  0  0  0  0
 11 12  1  0  0  0  0
 12 13  1  0  0  0  0
 13 14  2  0  0  0  0
 14 15  1  0  0  0  0
 15 16  2  0  0  0  0
 16 17  1  0  0  0  0
 17 18  1  0  0  0  0
 16 19  1  0  0  0  0
 19 20  2  0  0  0  0
 12 21  1  0  0  0  0
 21 22  2  0  0  0  0
 22 23  1  0  0  0  0
 23 24  2  0  0  0  0
 24 25  1  0  0  0  0
 25 26  1  0  0  0  0
 24 27  1  0  0  0  0
 27 28  2  0  0  0  0
 12 29  1  0  0  0  0
 29 30  2  0  0  0  0
 30 31  1  0  0  0  0
 31 32  1  0  0  0  0
 30 33  1  0  0  0  0
 33 34  2  0  0  0  0
 34 35  1  0  0  0  0
 35 36  2  0  0  0  0
 35 37  1  0  0  0  0
 37 38  1  0  0  0  0
 38 39  1  0  0  0  0
 39 40  2  0  0  0  0
 40 41  1  0  0  0  0
 41 42  1  0  0  0  0
 42 43  1  0  0  0  0
 43 44  1  0  0  0  0
 44 45  2  0  0  0  0
 45 46  1  0  0  0  0
 46 47  2  0  0  0  0
 47 48  1  0  0  0  0
 48 49  1  0  0  0  0
 47 50  1  0  0  0  0
 50 51  2  0  0  0  0
 43 52  1  0  0  0  0
 52 53  2  0  0  0  0
 53 54  1  0  0  0  0
 54 55  2  0  0  0  0
 55 56  1  0  0  0  0
 56 57  1  0  0  0  0
 55 58  1  0  0  0  0
 58 59  2  0  0  0  0
 39 60  1  0  0  0  0
 60 61  2  0  0  0  0
 61 62  1  0  0  0  0
 62 63  2  0  0  0  0
 63 64  1  0  0  0  0
 64 65  2  0  0  0  0
 65 66  1  0  0  0  0
 66 67  3  0  0  0  0
 65 68  1  0  0  0  0
 68 69  3  0  0  0  0
 64 70  1  0  0  0  0
 70 71  3  0  0  0  0
 63 72  1  0  0  0  0
  7  3  1  0  0  0  0
 32  8  1  0  0  0  0
 43 34  1  0  0  0  0
 51 44  1  0  0  0  0
 59 52  1  0  0  0  0
 72 60  1  0  0  0  0
 31 10  2  0  0  0  0
 41 37  2  0  0  0  0
 20 13  1  0  0  0  0
 28 21  1  0  0  0  0
 36 29  1  0  0  0  0
  4 73  1  0  0  0  0
  5 74  1  0  0  0  0
  9 75  1  0  0  0  0
 14 76  1  0  0  0  0
 15 77  1  0  0  0  0
 17 78  1  0  0  0  0
 17 79  1  0  0  0  0
 18 80  1  0  0  0  0
 18 81  1  0  0  0  0
 18 82  1  0  0  0  0
 19 83  1  0  0  0  0
 20 84  1  0  0  0  0
 22 85  1  0  0  0  0
 23 86  1  0  0  0  0
 25 87  1  0  0  0  0
 25 88  1  0  0  0  0
 26 89  1  0  0  0  0
 26 90  1  0  0  0  0
 26 91  1  0  0  0  0
 27 92  1  0  0  0  0
 28 93  1  0  0  0  0
 33 94  1  0  0  0  0
 36 95  1  0  0  0  0
 40 96  1  0  0  0  0
 45 97  1  0  0  0  0
 46 98  1  0  0  0  0
 48 99  1  0  0  0  0
 48100  1  0  0  0  0
 49101  1  0  0  0  0
 49102  1  0  0  0  0
 49103  1  0  0  0  0
 50104  1  0  0  0  0
 51105  1  0  0  0  0
 53106  1  0  0  0  0
 54107  1  0  0  0  0
 56108  1  0  0  0  0
 56109  1  0  0  0  0
 57110  1  0  0  0  0
 57111  1  0  0  0  0
 57112  1  0  0  0  0
 58113  1  0  0  0  0
 59114  1  0  0  0  0
 61115  1  0  0  0  0
 62116  1  0  0  0  0
M  END
