
  xtb     02032200143D
 energy: -169.922240776467 gnorm: 0.000200036145 xtb: 6.4.1 (unknown)
 98111  0     0  0            999 V2000
   -6.5563   11.2780   -3.7400 N   0  0  0  0  0  0  0  0  0  0  0  0
   -5.5314   11.0139   -3.2939 C   0  0  0  0  0  0  0  0  0  0  0  0
   -4.2881   10.7004   -2.7470 C   0  0  0  0  0  0  0  0  0  0  0  0
   -3.5154   11.4842   -1.9233 C   0  0  0  0  0  0  0  0  0  0  0  0
   -2.3226   10.8652   -1.5398 C   0  0  0  0  0  0  0  0  0  0  0  0
   -2.1658    9.6024   -2.0699 C   0  0  0  0  0  0  0  0  0  0  0  0
   -3.5291    9.1696   -3.0624 S   0  0  0  0  0  0  0  0  0  0  0  0
   -1.1076    8.6587   -1.8957 C   0  0  0  0  0  0  0  0  0  0  0  0
    0.2017    8.8436   -1.5021 C   0  0  0  0  0  0  0  0  0  0  0  0
    0.8695   10.1361   -1.1610 C   0  0  0  0  0  0  0  0  0  0  0  0
    0.8543   10.3751    0.3505 C   0  0  0  0  0  0  0  0  0  0  0  0
    0.8912    7.6176   -1.4436 C   0  0  0  0  0  0  0  0  0  0  0  0
    2.5297    7.2173   -0.9805 S   0  0  0  0  0  0  0  0  0  0  0  0
    2.1723    5.5471   -1.2532 C   0  0  0  0  0  0  0  0  0  0  0  0
    2.7805    4.2908   -1.1009 C   0  0  0  0  0  0  0  0  0  0  0  0
    4.0339    3.9429   -0.5434 C   0  0  0  0  0  0  0  0  0  0  0  0
    4.3134    2.5511   -0.3038 C   0  0  0  0  0  0  0  0  0  0  0  0
    5.4689    2.3089    0.2837 N   0  0  0  0  0  0  0  0  0  0  0  0
    6.2912    3.8428    0.5667 Se  0  0  0  0  0  2  0  0  0  0  0  0
    4.9759    4.7765   -0.1471 N   0  0  0  0  0  0  0  0  0  0  0  0
    3.3712    1.5893   -0.7391 C   0  0  0  0  0  0  0  0  0  0  0  0
    3.3965    0.1872   -0.6655 C   0  0  0  0  0  0  0  0  0  0  0  0
    4.3489   -1.0745    0.0327 S   0  0  0  0  0  0  0  0  0  0  0  0
    3.1899   -2.2479   -0.5518 C   0  0  0  0  0  0  0  0  0  0  0  0
    3.0465   -3.6286   -0.3398 C   0  0  0  0  0  0  0  0  0  0  0  0
    4.0793   -4.4768    0.3227 C   0  0  0  0  0  0  0  0  0  0  0  0
    5.4216   -4.3843   -0.4033 C   0  0  0  0  0  0  0  0  0  0  0  0
    1.8879   -4.1036   -0.9299 C   0  0  0  0  0  0  0  0  0  0  0  0
    1.0236   -2.8536   -1.8293 S   0  0  0  0  0  0  0  0  0  0  0  0
    2.1523   -1.6679   -1.2911 C   0  0  0  0  0  0  0  0  0  0  0  0
    2.2638   -0.2753   -1.3412 C   0  0  0  0  0  0  0  0  0  0  0  0
    1.5296    0.7816   -1.8104 N   0  0  0  0  0  0  0  0  0  0  0  0
    2.1743    1.9441   -1.4223 C   0  0  0  0  0  0  0  0  0  0  0  0
    1.8221    3.3180   -1.4992 C   0  0  0  0  0  0  0  0  0  0  0  0
    0.6595    3.9754   -1.8632 N   0  0  0  0  0  0  0  0  0  0  0  0
    0.8675    5.3167   -1.6955 C   0  0  0  0  0  0  0  0  0  0  0  0
    0.1307    6.5039   -1.7993 C   0  0  0  0  0  0  0  0  0  0  0  0
   -1.4763    6.9670   -2.2242 S   0  0  0  0  0  0  0  0  0  0  0  0
   -0.6866    3.4741   -2.0203 C   0  0  0  0  0  0  0  0  0  0  0  0
   -1.1865    2.7984   -0.7458 C   0  0  0  0  0  0  0  0  0  0  0  0
    0.5571    0.5632   -2.8592 C   0  0  0  0  0  0  0  0  0  0  0  0
    1.0092    1.1810   -4.1796 C   0  0  0  0  0  0  0  0  0  0  0  0
    1.2719   -5.3784   -0.8677 C   0  0  0  0  0  0  0  0  0  0  0  0
    1.1426   -6.1224    0.2678 C   0  0  0  0  0  0  0  0  0  0  0  0
    1.2830   -5.5693    1.6379 C   0  0  0  0  0  0  0  0  0  0  0  0
    1.7942   -4.5218    1.9727 O   0  0  0  0  0  0  0  0  0  0  0  0
    0.5536   -6.5082    2.5112 C   0  0  0  0  0  0  0  0  0  0  0  0
    0.3021   -6.3492    3.8717 C   0  0  0  0  0  0  0  0  0  0  0  0
   -0.4621   -7.3509    4.4196 C   0  0  0  0  0  0  0  0  0  0  0  0
   -0.9433   -8.4340    3.6714 C   0  0  0  0  0  0  0  0  0  0  0  0
   -0.6918   -8.6105    2.3313 C   0  0  0  0  0  0  0  0  0  0  0  0
    0.0818   -7.5998    1.7539 C   0  0  0  0  0  0  0  0  0  0  0  0
    0.5084   -7.4211    0.3708 C   0  0  0  0  0  0  0  0  0  0  0  0
    0.4039   -8.3354   -0.6434 C   0  0  0  0  0  0  0  0  0  0  0  0
   -0.1940   -9.6050   -0.5126 C   0  0  0  0  0  0  0  0  0  0  0  0
   -0.6739  -10.6469   -0.4655 N   0  0  0  0  0  0  0  0  0  0  0  0
    0.9312   -8.1286   -1.9359 C   0  0  0  0  0  0  0  0  0  0  0  0
    1.3606   -8.0240   -2.9955 N   0  0  0  0  0  0  0  0  0  0  0  0
   -1.6770   -9.0234    4.8497 C   0  0  0  0  0  0  0  0  0  0  0  0
   -3.2115   -8.8187    4.9139 C   0  0  0  0  0  0  0  0  0  0  0  0
   -3.5103   -7.5523    4.1505 C   0  0  0  0  0  0  0  0  0  0  0  0
   -3.0493   -6.5320    4.8616 C   0  0  0  0  0  0  0  0  0  0  0  0
   -2.4298   -7.0905    6.1189 C   0  0  0  0  0  0  0  0  0  0  0  0
   -3.3448   -8.3025    6.3557 C   0  0  0  0  0  0  0  0  0  0  0  0
   -1.1345   -7.8209    5.6847 C   0  0  0  0  0  0  0  0  0  0  0  0
   -3.8149   12.4674   -1.6062 H   0  0  0  0  0  0  0  0  0  0  0  0
   -1.6209   11.3220   -0.8688 H   0  0  0  0  0  0  0  0  0  0  0  0
    1.9075   10.0808   -1.4969 H   0  0  0  0  0  0  0  0  0  0  0  0
    0.3835   10.9604   -1.6839 H   0  0  0  0  0  0  0  0  0  0  0  0
    1.4001    9.5834    0.8578 H   0  0  0  0  0  0  0  0  0  0  0  0
   -0.1645   10.3856    0.7322 H   0  0  0  0  0  0  0  0  0  0  0  0
    1.3263   11.3257    0.5850 H   0  0  0  0  0  0  0  0  0  0  0  0
    3.7446   -5.5144    0.3389 H   0  0  0  0  0  0  0  0  0  0  0  0
    4.1934   -4.1399    1.3554 H   0  0  0  0  0  0  0  0  0  0  0  0
    6.1480   -5.0286    0.0849 H   0  0  0  0  0  0  0  0  0  0  0  0
    5.3157   -4.7052   -1.4376 H   0  0  0  0  0  0  0  0  0  0  0  0
    5.8013   -3.3661   -0.3908 H   0  0  0  0  0  0  0  0  0  0  0  0
   -0.7484    2.8074   -2.8807 H   0  0  0  0  0  0  0  0  0  0  0  0
   -1.3171    4.3396   -2.2391 H   0  0  0  0  0  0  0  0  0  0  0  0
   -0.5402    1.9731   -0.4569 H   0  0  0  0  0  0  0  0  0  0  0  0
   -2.1943    2.4213   -0.8971 H   0  0  0  0  0  0  0  0  0  0  0  0
   -1.2047    3.5162    0.0710 H   0  0  0  0  0  0  0  0  0  0  0  0
    0.4710   -0.5197   -2.9794 H   0  0  0  0  0  0  0  0  0  0  0  0
   -0.4262    0.9291   -2.5605 H   0  0  0  0  0  0  0  0  0  0  0  0
    0.2603    1.0029   -4.9466 H   0  0  0  0  0  0  0  0  0  0  0  0
    1.9459    0.7303   -4.4991 H   0  0  0  0  0  0  0  0  0  0  0  0
    1.1657    2.2527   -4.0820 H   0  0  0  0  0  0  0  0  0  0  0  0
    0.7671   -5.7077   -1.7693 H   0  0  0  0  0  0  0  0  0  0  0  0
    0.6844   -5.4956    4.4094 H   0  0  0  0  0  0  0  0  0  0  0  0
   -1.0725   -9.4436    1.7636 H   0  0  0  0  0  0  0  0  0  0  0  0
   -1.3804  -10.0273    5.1462 H   0  0  0  0  0  0  0  0  0  0  0  0
   -3.7949   -9.6932    4.6388 H   0  0  0  0  0  0  0  0  0  0  0  0
   -3.9613   -7.5329    3.1755 H   0  0  0  0  0  0  0  0  0  0  0  0
   -3.0376   -5.4902    4.5993 H   0  0  0  0  0  0  0  0  0  0  0  0
   -2.3005   -6.3920    6.9415 H   0  0  0  0  0  0  0  0  0  0  0  0
   -2.9616   -8.9963    7.1025 H   0  0  0  0  0  0  0  0  0  0  0  0
   -4.3648   -8.0166    6.6079 H   0  0  0  0  0  0  0  0  0  0  0  0
   -0.4781   -8.0386    6.5248 H   0  0  0  0  0  0  0  0  0  0  0  0
  1  2  3  0  0  0  0
  2  3  1  0  0  0  0
  3  4  2  0  0  0  0
  4  5  1  0  0  0  0
  5  6  2  0  0  0  0
  6  7  1  0  0  0  0
  6  8  1  0  0  0  0
  8  9  2  0  0  0  0
  9 10  1  0  0  0  0
 10 11  1  0  0  0  0
  9 12  1  0  0  0  0
 12 13  1  0  0  0  0
 13 14  1  0  0  0  0
 14 15  1  0  0  0  0
 15 16  1  0  0  0  0
 16 17  1  0  0  0  0
 17 18  2  0  0  0  0
 18 19  1  0  0  0  0
 19 20  1  0  0  0  0
 17 21  1  0  0  0  0
 21 22  1  0  0  0  0
 22 23  1  0  0  0  0
 23 24  1  0  0  0  0
 24 25  1  0  0  0  0
 25 26  1  0  0  0  0
 26 27  1  0  0  0  0
 25 28  2  0  0  0  0
 28 29  1  0  0  0  0
 29 30  1  0  0  0  0
 30 31  1  0  0  0  0
 31 32  1  0  0  0  0
 32 33  1  0  0  0  0
 33 34  1  0  0  0  0
 34 35  1  0  0  0  0
 35 36  1  0  0  0  0
 36 37  1  0  0  0  0
 37 38  1  0  0  0  0
 35 39  1  0  0  0  0
 39 40  1  0  0  0  0
 32 41  1  0  0  0  0
 41 42  1  0  0  0  0
 28 43  1  0  0  0  0
 43 44  2  0  0  0  0
 44 45  1  0  0  0  0
 45 46  2  0  0  0  0
 45 47  1  0  0  0  0
 47 48  2  0  0  0  0
 48 49  1  0  0  0  0
 49 50  2  0  0  0  0
 50 51  1  0  0  0  0
 51 52  2  0  0  0  0
 52 53  1  0  0  0  0
 53 54  2  0  0  0  0
 54 55  1  0  0  0  0
 55 56  3  0  0  0  0
 54 57  1  0  0  0  0
 57 58  3  0  0  0  0
 50 59  1  0  0  0  0
 59 60  1  0  0  0  0
 60 61  1  0  0  0  0
 61 62  2  0  0  0  0
 62 63  1  0  0  0  0
 63 64  1  0  0  0  0
 63 65  1  0  0  0  0
  7  3  1  0  0  0  0
 38  8  1  0  0  0  0
 53 44  1  0  0  0  0
 65 59  1  0  0  0  0
 37 12  2  0  0  0  0
 52 47  1  0  0  0  0
 64 60  1  0  0  0  0
 36 14  2  0  0  0  0
 65 49  1  0  0  0  0
 34 15  2  0  0  0  0
 20 16  2  0  0  0  0
 33 21  2  0  0  0  0
 31 22  2  0  0  0  0
 30 24  2  0  0  0  0
  4 66  1  0  0  0  0
  5 67  1  0  0  0  0
 10 68  1  0  0  0  0
 10 69  1  0  0  0  0
 11 70  1  0  0  0  0
 11 71  1  0  0  0  0
 11 72  1  0  0  0  0
 26 73  1  0  0  0  0
 26 74  1  0  0  0  0
 27 75  1  0  0  0  0
 27 76  1  0  0  0  0
 27 77  1  0  0  0  0
 39 78  1  0  0  0  0
 39 79  1  0  0  0  0
 40 80  1  0  0  0  0
 40 81  1  0  0  0  0
 40 82  1  0  0  0  0
 41 83  1  0  0  0  0
 41 84  1  0  0  0  0
 42 85  1  0  0  0  0
 42 86  1  0  0  0  0
 42 87  1  0  0  0  0
 43 88  1  0  0  0  0
 48 89  1  0  0  0  0
 51 90  1  0  0  0  0
 59 91  1  0  0  0  0
 60 92  1  0  0  0  0
 61 93  1  0  0  0  0
 62 94  1  0  0  0  0
 63 95  1  0  0  0  0
 64 96  1  0  0  0  0
 64 97  1  0  0  0  0
 65 98  1  0  0  0  0
M  END
