98

N         -6.55630       11.27800       -3.74000
C         -5.53140       11.01390       -3.29390
C         -4.28810       10.70040       -2.74700
C         -3.51540       11.48420       -1.92330
C         -2.32260       10.86520       -1.53980
C         -2.16580        9.60240       -2.06990
S         -3.52910        9.16960       -3.06240
C         -1.10760        8.65870       -1.89570
C          0.20170        8.84360       -1.50210
C          0.86950       10.13610       -1.16100
C          0.85430       10.37510        0.35050
C          0.89120        7.61760       -1.44360
S          2.52970        7.21730       -0.98050
C          2.17230        5.54710       -1.25320
C          2.78050        4.29080       -1.10090
C          4.03390        3.94290       -0.54340
C          4.31340        2.55110       -0.30380
N          5.46890        2.30890        0.28370
Se         6.29120        3.84280        0.56670
N          4.97590        4.77650       -0.14710
C          3.37120        1.58930       -0.73910
C          3.39650        0.18720       -0.66550
S          4.34890       -1.07450        0.03270
C          3.18990       -2.24790       -0.55180
C          3.04650       -3.62860       -0.33980
C          4.07930       -4.47680        0.32270
C          5.42160       -4.38430       -0.40330
C          1.88790       -4.10360       -0.92990
S          1.02360       -2.85360       -1.82930
C          2.15230       -1.66790       -1.29110
C          2.26380       -0.27530       -1.34120
N          1.52960        0.78160       -1.81040
C          2.17430        1.94410       -1.42230
C          1.82210        3.31800       -1.49920
N          0.65950        3.97540       -1.86320
C          0.86750        5.31670       -1.69550
C          0.13070        6.50390       -1.79930
S         -1.47630        6.96700       -2.22420
C         -0.68660        3.47410       -2.02030
C         -1.18650        2.79840       -0.74580
C          0.55710        0.56320       -2.85920
C          1.00920        1.18100       -4.17960
C          1.27190       -5.37840       -0.86770
C          1.14260       -6.12240        0.26780
C          1.28300       -5.56930        1.63790
O          1.79420       -4.52180        1.97270
C          0.55360       -6.50820        2.51120
C          0.30210       -6.34920        3.87170
C         -0.46210       -7.35090        4.41960
C         -0.94330       -8.43400        3.67140
C         -0.69180       -8.61050        2.33130
C          0.08180       -7.59980        1.75390
C          0.50840       -7.42110        0.37080
C          0.40390       -8.33540       -0.64340
C         -0.19400       -9.60500       -0.51260
N         -0.67390      -10.64690       -0.46550
C          0.93120       -8.12860       -1.93590
N          1.36060       -8.02400       -2.99550
C         -1.67700       -9.02340        4.84970
C         -3.21150       -8.81870        4.91390
C         -3.51030       -7.55230        4.15050
C         -3.04930       -6.53200        4.86160
C         -2.42980       -7.09050        6.11890
C         -3.34480       -8.30250        6.35570
C         -1.13450       -7.82090        5.68470
H         -3.81490       12.46740       -1.60620
H         -1.62090       11.32200       -0.86880
H          1.90750       10.08080       -1.49690
H          0.38350       10.96040       -1.68390
H          1.40010        9.58340        0.85780
H         -0.16450       10.38560        0.73220
H          1.32630       11.32570        0.58500
H          3.74460       -5.51440        0.33890
H          4.19340       -4.13990        1.35540
H          6.14800       -5.02860        0.08490
H          5.31570       -4.70520       -1.43760
H          5.80130       -3.36610       -0.39080
H         -0.74840        2.80740       -2.88070
H         -1.31710        4.33960       -2.23910
H         -0.54020        1.97310       -0.45690
H         -2.19430        2.42130       -0.89710
H         -1.20470        3.51620        0.07100
H          0.47100       -0.51970       -2.97940
H         -0.42620        0.92910       -2.56050
H          0.26030        1.00290       -4.94660
H          1.94590        0.73030       -4.49910
H          1.16570        2.25270       -4.08200
H          0.76710       -5.70770       -1.76930
H          0.68440       -5.49560        4.40940
H         -1.07250       -9.44360        1.76360
H         -1.38040      -10.02730        5.14620
H         -3.79490       -9.69320        4.63880
H         -3.96130       -7.53290        3.17550
H         -3.03760       -5.49020        4.59930
H         -2.30050       -6.39200        6.94150
H         -2.96160       -8.99630        7.10250
H         -4.36480       -8.01660        6.60790
H         -0.47810       -8.03860        6.52480
