
  xtb     02112207523D
 energy: -162.465522548340 gnorm: 0.000415161465 xtb: 6.4.1 (unknown)
 95107  0     0  0            999 V2000
   13.1180    1.5196    5.5979 N   0  0  0  0  0  0  0  0  0  0  0  0
   11.9890    1.7309    5.5710 C   0  0  0  0  0  0  0  0  0  0  0  0
   10.6205    1.9885    5.5395 C   0  0  0  0  0  0  0  0  0  0  0  0
    9.9119    2.8860    6.3038 C   0  0  0  0  0  0  0  0  0  0  0  0
    8.5501    2.8934    6.0057 C   0  0  0  0  0  0  0  0  0  0  0  0
    8.1869    2.0117    5.0056 C   0  0  0  0  0  0  0  0  0  0  0  0
    9.5809    1.1422    4.4331 S   0  0  0  0  0  0  0  0  0  0  0  0
    6.8548    1.8135    4.5297 C   0  0  0  0  0  0  0  0  0  0  0  0
    5.5854    2.5913    5.4796 S   0  0  0  0  0  0  0  0  0  0  0  0
    4.4136    1.9717    4.4016 C   0  0  0  0  0  0  0  0  0  0  0  0
    3.0238    1.9823    4.2470 C   0  0  0  0  0  0  0  0  0  0  0  0
    2.0370    2.5637    5.0691 C   0  0  0  0  0  0  0  0  0  0  0  0
    0.6648    2.3727    4.7212 C   0  0  0  0  0  0  0  0  0  0  0  0
   -0.1630    2.9476    5.5800 N   0  0  0  0  0  0  0  0  0  0  0  0
    0.7187    3.6700    6.7304 S   0  0  0  0  0  0  0  0  0  0  0  0
    2.1888    3.2753    6.1753 N   0  0  0  0  0  0  0  0  0  0  0  0
    0.3592    1.6476    3.5502 C   0  0  0  0  0  0  0  0  0  0  0  0
   -0.8908    1.3677    2.9882 C   0  0  0  0  0  0  0  0  0  0  0  0
   -2.5681    1.6363    3.3153 S   0  0  0  0  0  0  0  0  0  0  0  0
   -2.9572    0.7994    1.8219 C   0  0  0  0  0  0  0  0  0  0  0  0
   -4.1643    0.4993    1.2053 C   0  0  0  0  0  0  0  0  0  0  0  0
   -5.4840    0.9234    1.7621 C   0  0  0  0  0  0  0  0  0  0  0  0
   -5.9322    2.2514    1.1455 C   0  0  0  0  0  0  0  0  0  0  0  0
   -3.9653   -0.1826   -0.0080 C   0  0  0  0  0  0  0  0  0  0  0  0
   -2.2544   -0.4504   -0.3470 S   0  0  0  0  0  0  0  0  0  0  0  0
   -1.8268    0.3450    1.1212 C   0  0  0  0  0  0  0  0  0  0  0  0
   -0.6505    0.6723    1.8018 C   0  0  0  0  0  0  0  0  0  0  0  0
    0.6964    0.5168    1.6131 N   0  0  0  0  0  0  0  0  0  0  0  0
    1.3580    1.0879    2.6893 C   0  0  0  0  0  0  0  0  0  0  0  0
    2.7274    1.2295    3.0753 C   0  0  0  0  0  0  0  0  0  0  0  0
    3.9325    0.7598    2.5721 N   0  0  0  0  0  0  0  0  0  0  0  0
    4.9627    1.2165    3.3648 C   0  0  0  0  0  0  0  0  0  0  0  0
    6.3751    1.1170    3.4309 C   0  0  0  0  0  0  0  0  0  0  0  0
    7.2671    0.3559    2.4979 C   0  0  0  0  0  0  0  0  0  0  0  0
    7.4670   -1.0865    2.9714 C   0  0  0  0  0  0  0  0  0  0  0  0
    4.1828   -0.0224    1.3895 C   0  0  0  0  0  0  0  0  0  0  0  0
    4.4427    0.8694    0.1730 C   0  0  0  0  0  0  0  0  0  0  0  0
    1.1023   -0.1865    0.4169 C   0  0  0  0  0  0  0  0  0  0  0  0
    1.0950   -1.7014    0.6252 C   0  0  0  0  0  0  0  0  0  0  0  0
   -5.0167   -0.5915   -0.8344 C   0  0  0  0  0  0  0  0  0  0  0  0
   -5.0097   -1.2060   -2.0624 C   0  0  0  0  0  0  0  0  0  0  0  0
   -3.8270   -1.5623   -2.8486 C   0  0  0  0  0  0  0  0  0  0  0  0
   -2.6555   -1.4621   -2.5196 O   0  0  0  0  0  0  0  0  0  0  0  0
   -4.3225   -2.0725   -4.1377 C   0  0  0  0  0  0  0  0  0  0  0  0
   -3.5581   -2.4844   -5.2261 C   0  0  0  0  0  0  0  0  0  0  0  0
   -4.3008   -2.8921   -6.3080 C   0  0  0  0  0  0  0  0  0  0  0  0
   -5.7016   -2.8879   -6.3075 C   0  0  0  0  0  0  0  0  0  0  0  0
   -6.4673   -2.4848   -5.2389 C   0  0  0  0  0  0  0  0  0  0  0  0
   -5.7318   -2.0692   -4.1258 C   0  0  0  0  0  0  0  0  0  0  0  0
   -6.1853   -1.5669   -2.8288 C   0  0  0  0  0  0  0  0  0  0  0  0
   -7.4948   -1.4900   -2.4248 C   0  0  0  0  0  0  0  0  0  0  0  0
   -7.9454   -1.0245   -1.1725 C   0  0  0  0  0  0  0  0  0  0  0  0
   -8.3958   -0.6607   -0.1793 N   0  0  0  0  0  0  0  0  0  0  0  0
   -8.5970   -1.8917   -3.2076 C   0  0  0  0  0  0  0  0  0  0  0  0
   -9.5429   -2.1996   -3.7815 N   0  0  0  0  0  0  0  0  0  0  0  0
   -5.7831   -3.4164   -7.7177 C   0  0  0  0  0  0  0  0  0  0  0  0
   -6.1333   -4.9125   -7.9102 C   0  0  0  0  0  0  0  0  0  0  0  0
   -5.6778   -5.6233   -6.6600 C   0  0  0  0  0  0  0  0  0  0  0  0
   -4.3516   -5.6297   -6.6584 C   0  0  0  0  0  0  0  0  0  0  0  0
   -3.8861   -4.9232   -7.9076 C   0  0  0  0  0  0  0  0  0  0  0  0
   -5.0104   -5.3196   -8.8778 C   0  0  0  0  0  0  0  0  0  0  0  0
   -4.2218   -3.4233   -7.7173 C   0  0  0  0  0  0  0  0  0  0  0  0
   10.3738    3.5102    7.0477 H   0  0  0  0  0  0  0  0  0  0  0  0
    7.8377    3.5298    6.4992 H   0  0  0  0  0  0  0  0  0  0  0  0
   -5.3728    1.0520    2.8406 H   0  0  0  0  0  0  0  0  0  0  0  0
   -6.2479    0.1647    1.5852 H   0  0  0  0  0  0  0  0  0  0  0  0
   -6.0506    2.1555    0.0686 H   0  0  0  0  0  0  0  0  0  0  0  0
   -6.8847    2.5528    1.5719 H   0  0  0  0  0  0  0  0  0  0  0  0
   -5.1978    3.0280    1.3463 H   0  0  0  0  0  0  0  0  0  0  0  0
    8.2388    0.8497    2.4424 H   0  0  0  0  0  0  0  0  0  0  0  0
    6.8562    0.3585    1.4891 H   0  0  0  0  0  0  0  0  0  0  0  0
    8.1106   -1.6229    2.2789 H   0  0  0  0  0  0  0  0  0  0  0  0
    6.5153   -1.6103    3.0411 H   0  0  0  0  0  0  0  0  0  0  0  0
    7.9309   -1.1027    3.9540 H   0  0  0  0  0  0  0  0  0  0  0  0
    5.0569   -0.6461    1.5811 H   0  0  0  0  0  0  0  0  0  0  0  0
    3.3484   -0.6972    1.2237 H   0  0  0  0  0  0  0  0  0  0  0  0
    4.5576    0.2629   -0.7219 H   0  0  0  0  0  0  0  0  0  0  0  0
    5.3501    1.4515    0.3173 H   0  0  0  0  0  0  0  0  0  0  0  0
    3.6274    1.5746    0.0232 H   0  0  0  0  0  0  0  0  0  0  0  0
    2.0619    0.1761    0.0635 H   0  0  0  0  0  0  0  0  0  0  0  0
    0.3635    0.0552   -0.3535 H   0  0  0  0  0  0  0  0  0  0  0  0
    1.6952   -1.9917    1.4859 H   0  0  0  0  0  0  0  0  0  0  0  0
    1.4802   -2.1981   -0.2608 H   0  0  0  0  0  0  0  0  0  0  0  0
    0.0775   -2.0440    0.7936 H   0  0  0  0  0  0  0  0  0  0  0  0
   -5.9915   -0.3585   -0.4287 H   0  0  0  0  0  0  0  0  0  0  0  0
   -2.4802   -2.4654   -5.1854 H   0  0  0  0  0  0  0  0  0  0  0  0
   -7.5442   -2.4827   -5.2591 H   0  0  0  0  0  0  0  0  0  0  0  0
   -6.2896   -2.7760   -8.4372 H   0  0  0  0  0  0  0  0  0  0  0  0
   -7.1569   -5.0997   -8.2229 H   0  0  0  0  0  0  0  0  0  0  0  0
   -6.3458   -5.9859   -5.9008 H   0  0  0  0  0  0  0  0  0  0  0  0
   -3.6895   -5.9987   -5.8969 H   0  0  0  0  0  0  0  0  0  0  0  0
   -2.8635   -5.1211   -8.2186 H   0  0  0  0  0  0  0  0  0  0  0  0
   -5.0065   -4.7462   -9.8038 H   0  0  0  0  0  0  0  0  0  0  0  0
   -5.0151   -6.3846   -9.1045 H   0  0  0  0  0  0  0  0  0  0  0  0
   -3.7094   -2.7890   -8.4383 H   0  0  0  0  0  0  0  0  0  0  0  0
  1  2  3  0  0  0  0
  2  3  1  0  0  0  0
  3  4  2  0  0  0  0
  4  5  1  0  0  0  0
  5  6  2  0  0  0  0
  6  7  1  0  0  0  0
  6  8  1  0  0  0  0
  8  9  1  0  0  0  0
  9 10  1  0  0  0  0
 10 11  1  0  0  0  0
 11 12  1  0  0  0  0
 12 13  1  0  0  0  0
 13 14  2  0  0  0  0
 14 15  1  0  0  0  0
 15 16  1  0  0  0  0
 13 17  1  0  0  0  0
 17 18  1  0  0  0  0
 18 19  1  0  0  0  0
 19 20  1  0  0  0  0
 20 21  1  0  0  0  0
 21 22  1  0  0  0  0
 22 23  1  0  0  0  0
 21 24  2  0  0  0  0
 24 25  1  0  0  0  0
 25 26  1  0  0  0  0
 26 27  1  0  0  0  0
 27 28  1  0  0  0  0
 28 29  1  0  0  0  0
 29 30  1  0  0  0  0
 30 31  1  0  0  0  0
 31 32  1  0  0  0  0
 32 33  1  0  0  0  0
 33 34  1  0  0  0  0
 34 35  1  0  0  0  0
 31 36  1  0  0  0  0
 36 37  1  0  0  0  0
 28 38  1  0  0  0  0
 38 39  1  0  0  0  0
 24 40  1  0  0  0  0
 40 41  2  0  0  0  0
 41 42  1  0  0  0  0
 42 43  2  0  0  0  0
 42 44  1  0  0  0  0
 44 45  2  0  0  0  0
 45 46  1  0  0  0  0
 46 47  2  0  0  0  0
 47 48  1  0  0  0  0
 48 49  2  0  0  0  0
 49 50  1  0  0  0  0
 50 51  2  0  0  0  0
 51 52  1  0  0  0  0
 52 53  3  0  0  0  0
 51 54  1  0  0  0  0
 54 55  3  0  0  0  0
 47 56  1  0  0  0  0
 56 57  1  0  0  0  0
 57 58  1  0  0  0  0
 58 59  2  0  0  0  0
 59 60  1  0  0  0  0
 60 61  1  0  0  0  0
 60 62  1  0  0  0  0
  7  3  1  0  0  0  0
 33  8  2  0  0  0  0
 50 41  1  0  0  0  0
 62 56  1  0  0  0  0
 32 10  2  0  0  0  0
 49 44  1  0  0  0  0
 61 57  1  0  0  0  0
 30 11  2  0  0  0  0
 62 46  1  0  0  0  0
 16 12  2  0  0  0  0
 29 17  2  0  0  0  0
 27 18  2  0  0  0  0
 26 20  2  0  0  0  0
  4 63  1  0  0  0  0
  5 64  1  0  0  0  0
 22 65  1  0  0  0  0
 22 66  1  0  0  0  0
 23 67  1  0  0  0  0
 23 68  1  0  0  0  0
 23 69  1  0  0  0  0
 34 70  1  0  0  0  0
 34 71  1  0  0  0  0
 35 72  1  0  0  0  0
 35 73  1  0  0  0  0
 35 74  1  0  0  0  0
 36 75  1  0  0  0  0
 36 76  1  0  0  0  0
 37 77  1  0  0  0  0
 37 78  1  0  0  0  0
 37 79  1  0  0  0  0
 38 80  1  0  0  0  0
 38 81  1  0  0  0  0
 39 82  1  0  0  0  0
 39 83  1  0  0  0  0
 39 84  1  0  0  0  0
 40 85  1  0  0  0  0
 45 86  1  0  0  0  0
 48 87  1  0  0  0  0
 56 88  1  0  0  0  0
 57 89  1  0  0  0  0
 58 90  1  0  0  0  0
 59 91  1  0  0  0  0
 60 92  1  0  0  0  0
 61 93  1  0  0  0  0
 61 94  1  0  0  0  0
 62 95  1  0  0  0  0
M  END
