105

N         11.95500       -3.13480       -0.81000
C         11.20510       -2.47130       -0.24780
C         10.30820       -1.66020        0.44560
C         10.59890       -0.74940        1.43490
C          9.46790       -0.09270        1.92340
C          8.29840       -0.49610        1.31290
S          8.60470       -1.71270        0.10840
C          6.96760       -0.03860        1.54460
C          6.50190        0.79070        2.54690
C          7.28030        1.36150        3.65950
C          7.52740        2.72980        3.65600
C          8.22290        3.32120        4.69390
C          8.66750        2.54460        5.74950
C          8.40800        1.18570        5.76280
C          7.71490        0.57250        4.72790
C          7.39060       -0.89240        4.80450
C          5.97400       -1.09910        5.34450
C          5.12900        1.05590        2.39060
S          4.01070        2.02520        3.31830
C          2.74980        1.56680        2.22360
C          1.38310        1.81990        2.01140
C          0.46430        2.71990        2.59930
C         -0.84830        2.85970        2.02380
N         -1.56460        3.79440        2.62710
S         -0.67690        4.43850        3.81700
N          0.66000        3.55140        3.60990
C         -1.24240        1.98370        0.98590
C         -2.46250        1.76380        0.32620
S         -4.04020        2.46180        0.23140
C         -4.50450        1.20710       -0.89660
C         -5.68390        0.94160       -1.59580
C         -6.89980        1.76110       -1.59550
C         -7.67700        1.95320       -0.44940
C         -7.37700        1.23710        0.83680
C         -7.78360       -0.23530        0.74440
C         -8.80480        2.75690       -0.54720
C         -9.16020        3.36110       -1.73980
C         -8.39190        3.15660       -2.87310
C         -7.27000        2.35420       -2.80130
C         -5.54530       -0.16520       -2.43730
S         -3.94240       -0.89200       -2.31790
C         -3.46330        0.30640       -1.17550
C         -2.29790        0.62810       -0.48260
N         -1.01340        0.15360       -0.37140
C         -0.34650        0.99610        0.49660
C          1.00750        1.03700        0.88910
N          2.11890        0.38360        0.38720
C          3.17320        0.70390        1.20490
C          4.54040        0.41740        1.29700
S          5.69830       -0.52100        0.42580
C          2.34620        0.01810       -0.99760
C          3.12610        1.10470       -1.73680
C         -0.71890       -1.24580       -0.60780
C         -1.58390       -2.14960        0.27020
C         -6.58530       -0.74940       -3.17860
C         -6.51030       -1.70360       -4.15710
C         -7.66570       -2.58770       -4.42710
O         -8.80240       -2.45560       -4.03540
C         -7.10820       -3.70720       -5.22780
C         -7.73340       -4.86430       -5.64690
C         -6.97920       -5.78040       -6.36370
F         -7.54500       -6.91920       -6.78380
C         -5.63680       -5.53210       -6.65000
F         -4.93140       -6.44220       -7.33230
C         -5.00990       -4.36440       -6.24040
C         -5.75740       -3.44790       -5.52060
C         -5.41000       -2.13310       -4.98330
C         -4.37580       -1.34150       -5.41630
C         -3.34240       -1.78460       -6.26250
N         -2.46170       -2.10850       -6.92400
C         -4.30790        0.03490       -5.11810
N         -4.27030        1.16760       -4.93370
H         11.60030       -0.56930        1.78330
H          9.50090        0.66030        2.68860
H          7.17510        3.32640        2.82710
H          8.41360        4.38350        4.67880
H          9.21130        2.99710        6.56520
H          8.74690        0.58430        6.59430
H          8.10300       -1.38690        5.46750
H          7.47180       -1.35380        3.81910
H          5.75070       -2.16040        5.42420
H          5.87570       -0.64730        6.32890
H          5.24210       -0.63940        4.68460
H         -6.31540        1.30330        1.07600
H         -7.93210        1.71070        1.64820
H         -7.61890       -0.73250        1.69730
H         -8.83660       -0.32210        0.48590
H         -7.20190       -0.74950       -0.01760
H         -9.41710        2.90720        0.33030
H        -10.04010        3.98520       -1.78570
H         -8.66510        3.61750       -3.80990
H         -6.65260        2.19560       -3.67360
H          2.90380       -0.92360       -1.02360
H          1.38730       -0.11160       -1.49520
H          4.11910        1.23110       -1.31520
H          2.59670        2.05320       -1.67610
H          3.22840        0.82830       -2.78230
H         -0.89900       -1.46970       -1.66420
H          0.32570       -1.43420       -0.36720
H         -2.63740       -2.03970        0.02940
H         -1.30130       -3.18640        0.11080
H         -1.43730       -1.90450        1.32010
H         -7.58930       -0.47930       -2.86440
H         -8.77170       -5.05550       -5.42800
H         -3.97050       -4.21200       -6.48220
