
  xtb     02022206203D
 energy: -199.780217392925 gnorm: 0.000242058185 xtb: 6.4.1 (unknown)
118133  0     0  0            999 V2000
   12.0042   -7.2141   -4.4992 N   0  0  0  0  0  0  0  0  0  0  0  0
   10.9025   -7.3912   -4.2261 C   0  0  0  0  0  0  0  0  0  0  0  0
    9.5668   -7.6138   -3.8966 C   0  0  0  0  0  0  0  0  0  0  0  0
    8.8804   -8.8053   -3.9420 C   0  0  0  0  0  0  0  0  0  0  0  0
    7.5483   -8.6842   -3.5422 C   0  0  0  0  0  0  0  0  0  0  0  0
    7.1995   -7.3971   -3.1916 C   0  0  0  0  0  0  0  0  0  0  0  0
    8.5503   -6.3137   -3.3513 S   0  0  0  0  0  0  0  0  0  0  0  0
    5.9472   -6.9110   -2.7098 C   0  0  0  0  0  0  0  0  0  0  0  0
    4.6909   -7.4790   -2.8169 C   0  0  0  0  0  0  0  0  0  0  0  0
    4.3362   -8.6411   -3.6340 C   0  0  0  0  0  0  0  0  0  0  0  0
    3.5270   -9.6462   -3.1141 C   0  0  0  0  0  0  0  0  0  0  0  0
    3.1584  -10.7206   -3.9009 C   0  0  0  0  0  0  0  0  0  0  0  0
    3.5760  -10.8152   -5.2222 C   0  0  0  0  0  0  0  0  0  0  0  0
    3.1319  -11.9556   -6.0908 C   0  0  0  0  0  0  0  0  0  0  0  0
    1.8451  -11.5878   -6.8329 C   0  0  0  0  0  0  0  0  0  0  0  0
    4.3711   -9.7996   -5.7417 C   0  0  0  0  0  0  0  0  0  0  0  0
    4.7490   -8.7258   -4.9618 C   0  0  0  0  0  0  0  0  0  0  0  0
    3.7321   -6.7294   -2.1040 C   0  0  0  0  0  0  0  0  0  0  0  0
    2.0104   -6.9260   -1.8808 S   0  0  0  0  0  0  0  0  0  0  0  0
    1.9844   -5.4548   -0.9684 C   0  0  0  0  0  0  0  0  0  0  0  0
    1.0554   -4.6056   -0.3436 C   0  0  0  0  0  0  0  0  0  0  0  0
   -0.3580   -4.6073   -0.3180 C   0  0  0  0  0  0  0  0  0  0  0  0
   -1.0515   -3.4490    0.1791 C   0  0  0  0  0  0  0  0  0  0  0  0
   -2.3646   -3.5559    0.0540 N   0  0  0  0  0  0  0  0  0  0  0  0
   -2.7034   -4.9891   -0.6176 S   0  0  0  0  0  0  0  0  0  0  0  0
   -1.1865   -5.5285   -0.7834 N   0  0  0  0  0  0  0  0  0  0  0  0
   -0.3036   -2.3980    0.7552 C   0  0  0  0  0  0  0  0  0  0  0  0
   -0.6676   -1.1709    1.3370 C   0  0  0  0  0  0  0  0  0  0  0  0
   -2.0770   -0.1913    1.5477 S   0  0  0  0  0  0  0  0  0  0  0  0
   -1.0799    1.0517    2.2660 C   0  0  0  0  0  0  0  0  0  0  0  0
   -1.3561    2.3467    2.7249 C   0  0  0  0  0  0  0  0  0  0  0  0
   -2.6827    2.9431    2.8222 C   0  0  0  0  0  0  0  0  0  0  0  0
   -3.0380    3.6913    3.9435 C   0  0  0  0  0  0  0  0  0  0  0  0
   -4.2418    4.3619    3.9793 C   0  0  0  0  0  0  0  0  0  0  0  0
   -5.1220    4.3055    2.9029 C   0  0  0  0  0  0  0  0  0  0  0  0
   -6.3646    5.1467    2.8996 C   0  0  0  0  0  0  0  0  0  0  0  0
   -6.0167    6.5748    2.4716 C   0  0  0  0  0  0  0  0  0  0  0  0
   -4.7895    3.5106    1.8146 C   0  0  0  0  0  0  0  0  0  0  0  0
   -3.5893    2.8276    1.7721 C   0  0  0  0  0  0  0  0  0  0  0  0
   -0.1935    2.9932    3.1442 C   0  0  0  0  0  0  0  0  0  0  0  0
    1.2177    1.9397    3.0725 S   0  0  0  0  0  0  0  0  0  0  0  0
    0.2693    0.6840    2.3688 C   0  0  0  0  0  0  0  0  0  0  0  0
    0.5038   -0.5847    1.8337 C   0  0  0  0  0  0  0  0  0  0  0  0
    1.5794   -1.4016    1.5839 N   0  0  0  0  0  0  0  0  0  0  0  0
    1.1087   -2.4907    0.8742 C   0  0  0  0  0  0  0  0  0  0  0  0
    1.7982   -3.5196    0.1918 C   0  0  0  0  0  0  0  0  0  0  0  0
    3.1365   -3.6831   -0.1313 N   0  0  0  0  0  0  0  0  0  0  0  0
    3.2391   -4.8517   -0.8402 C   0  0  0  0  0  0  0  0  0  0  0  0
    4.2403   -5.5830   -1.4918 C   0  0  0  0  0  0  0  0  0  0  0  0
    5.9387   -5.4301   -1.7622 S   0  0  0  0  0  0  0  0  0  0  0  0
    4.1635   -2.6687   -0.2710 C   0  0  0  0  0  0  0  0  0  0  0  0
    3.6887   -1.4926   -1.1185 C   0  0  0  0  0  0  0  0  0  0  0  0
    2.7519   -1.3799    2.4326 C   0  0  0  0  0  0  0  0  0  0  0  0
    2.3765   -1.4370    3.9126 C   0  0  0  0  0  0  0  0  0  0  0  0
   -0.0005    4.3250    3.5694 C   0  0  0  0  0  0  0  0  0  0  0  0
   -0.6948    5.4152    3.1163 C   0  0  0  0  0  0  0  0  0  0  0  0
   -1.4365    5.4665    1.8367 C   0  0  0  0  0  0  0  0  0  0  0  0
   -1.5963    4.5717    1.0318 O   0  0  0  0  0  0  0  0  0  0  0  0
   -1.8291    6.8755    1.6579 C   0  0  0  0  0  0  0  0  0  0  0  0
   -2.5309    7.4111    0.5809 C   0  0  0  0  0  0  0  0  0  0  0  0
   -2.7268    8.7686    0.6611 C   0  0  0  0  0  0  0  0  0  0  0  0
   -2.2465    9.5409    1.7270 C   0  0  0  0  0  0  0  0  0  0  0  0
   -1.5501    9.0248    2.7945 C   0  0  0  0  0  0  0  0  0  0  0  0
   -1.3506    7.6417    2.7383 C   0  0  0  0  0  0  0  0  0  0  0  0
   -0.6709    6.7480    3.6734 C   0  0  0  0  0  0  0  0  0  0  0  0
   -0.1940    7.0931    4.9132 C   0  0  0  0  0  0  0  0  0  0  0  0
    0.3468    6.1790    5.8403 C   0  0  0  0  0  0  0  0  0  0  0  0
    0.7706    5.4860    6.6527 N   0  0  0  0  0  0  0  0  0  0  0  0
   -0.2188    8.3982    5.4436 C   0  0  0  0  0  0  0  0  0  0  0  0
   -0.2051    9.4376    5.9323 N   0  0  0  0  0  0  0  0  0  0  0  0
   -2.7809   10.8252    1.1409 C   0  0  0  0  0  0  0  0  0  0  0  0
   -4.0714   11.3918    1.7690 C   0  0  0  0  0  0  0  0  0  0  0  0
   -4.6040   12.3346    0.7141 C   0  0  0  0  0  0  0  0  0  0  0  0
   -5.0651   11.5989   -0.2893 C   0  0  0  0  0  0  0  0  0  0  0  0
   -4.8502   10.1463    0.0699 C   0  0  0  0  0  0  0  0  0  0  0  0
   -5.0428   10.2182    1.5899 C   0  0  0  0  0  0  0  0  0  0  0  0
   -3.3221    9.9618   -0.0436 C   0  0  0  0  0  0  0  0  0  0  0  0
    9.3382   -9.7288   -4.2489 H   0  0  0  0  0  0  0  0  0  0  0  0
    6.8622   -9.5095   -3.4941 H   0  0  0  0  0  0  0  0  0  0  0  0
    3.1985   -9.5895   -2.0870 H   0  0  0  0  0  0  0  0  0  0  0  0
    2.5357  -11.4978   -3.4819 H   0  0  0  0  0  0  0  0  0  0  0  0
    3.9111  -12.1927   -6.8182 H   0  0  0  0  0  0  0  0  0  0  0  0
    2.9537  -12.8415   -5.4783 H   0  0  0  0  0  0  0  0  0  0  0  0
    1.0527  -11.3580   -6.1242 H   0  0  0  0  0  0  0  0  0  0  0  0
    1.5207  -12.4127   -7.4628 H   0  0  0  0  0  0  0  0  0  0  0  0
    2.0063  -10.7138   -7.4599 H   0  0  0  0  0  0  0  0  0  0  0  0
    4.6960   -9.8512   -6.7710 H   0  0  0  0  0  0  0  0  0  0  0  0
    5.3581   -7.9385   -5.3816 H   0  0  0  0  0  0  0  0  0  0  0  0
   -2.3644    3.7443    4.7873 H   0  0  0  0  0  0  0  0  0  0  0  0
   -4.5019    4.9462    4.8508 H   0  0  0  0  0  0  0  0  0  0  0  0
   -7.0989    4.7294    2.2086 H   0  0  0  0  0  0  0  0  0  0  0  0
   -6.8052    5.1680    3.8985 H   0  0  0  0  0  0  0  0  0  0  0  0
   -5.2979    7.0099    3.1635 H   0  0  0  0  0  0  0  0  0  0  0  0
   -5.5734    6.5740    1.4780 H   0  0  0  0  0  0  0  0  0  0  0  0
   -6.9072    7.1989    2.4565 H   0  0  0  0  0  0  0  0  0  0  0  0
   -5.4719    3.4377    0.9800 H   0  0  0  0  0  0  0  0  0  0  0  0
   -3.3270    2.2461    0.9026 H   0  0  0  0  0  0  0  0  0  0  0  0
    5.0096   -3.1544   -0.7630 H   0  0  0  0  0  0  0  0  0  0  0  0
    4.5140   -2.3164    0.7005 H   0  0  0  0  0  0  0  0  0  0  0  0
    2.8658   -0.9707   -0.6379 H   0  0  0  0  0  0  0  0  0  0  0  0
    3.3542   -1.8424   -2.0926 H   0  0  0  0  0  0  0  0  0  0  0  0
    4.5077   -0.7935   -1.2624 H   0  0  0  0  0  0  0  0  0  0  0  0
    3.3316   -0.4736    2.2291 H   0  0  0  0  0  0  0  0  0  0  0  0
    3.3470   -2.2614    2.2034 H   0  0  0  0  0  0  0  0  0  0  0  0
    1.7521   -2.3062    4.1087 H   0  0  0  0  0  0  0  0  0  0  0  0
    1.8404   -0.5441    4.2193 H   0  0  0  0  0  0  0  0  0  0  0  0
    3.2805   -1.5150    4.5104 H   0  0  0  0  0  0  0  0  0  0  0  0
    0.8148    4.4799    4.2672 H   0  0  0  0  0  0  0  0  0  0  0  0
   -2.8678    6.7802   -0.2267 H   0  0  0  0  0  0  0  0  0  0  0  0
   -1.1739    9.6331    3.6003 H   0  0  0  0  0  0  0  0  0  0  0  0
   -2.0384   11.5920    0.9281 H   0  0  0  0  0  0  0  0  0  0  0  0
   -3.9510   11.7952    2.7706 H   0  0  0  0  0  0  0  0  0  0  0  0
   -4.5416   13.4050    0.7792 H   0  0  0  0  0  0  0  0  0  0  0  0
   -5.4640   11.9318   -1.2296 H   0  0  0  0  0  0  0  0  0  0  0  0
   -5.4398    9.4145   -0.4760 H   0  0  0  0  0  0  0  0  0  0  0  0
   -4.7463    9.3136    2.1163 H   0  0  0  0  0  0  0  0  0  0  0  0
   -6.0630   10.4818    1.8634 H   0  0  0  0  0  0  0  0  0  0  0  0
   -2.9439   10.1569   -1.0456 H   0  0  0  0  0  0  0  0  0  0  0  0
  1  2  3  0  0  0  0
  2  3  1  0  0  0  0
  3  4  2  0  0  0  0
  4  5  1  0  0  0  0
  5  6  2  0  0  0  0
  6  7  1  0  0  0  0
  6  8  1  0  0  0  0
  8  9  2  0  0  0  0
  9 10  1  0  0  0  0
 10 11  2  0  0  0  0
 11 12  1  0  0  0  0
 12 13  2  0  0  0  0
 13 14  1  0  0  0  0
 14 15  1  0  0  0  0
 13 16  1  0  0  0  0
 16 17  2  0  0  0  0
  9 18  1  0  0  0  0
 18 19  1  0  0  0  0
 19 20  1  0  0  0  0
 20 21  1  0  0  0  0
 21 22  1  0  0  0  0
 22 23  1  0  0  0  0
 23 24  2  0  0  0  0
 24 25  1  0  0  0  0
 25 26  1  0  0  0  0
 23 27  1  0  0  0  0
 27 28  1  0  0  0  0
 28 29  1  0  0  0  0
 29 30  1  0  0  0  0
 30 31  1  0  0  0  0
 31 32  1  0  0  0  0
 32 33  2  0  0  0  0
 33 34  1  0  0  0  0
 34 35  2  0  0  0  0
 35 36  1  0  0  0  0
 36 37  1  0  0  0  0
 35 38  1  0  0  0  0
 38 39  2  0  0  0  0
 31 40  2  0  0  0  0
 40 41  1  0  0  0  0
 41 42  1  0  0  0  0
 42 43  1  0  0  0  0
 43 44  1  0  0  0  0
 44 45  1  0  0  0  0
 45 46  1  0  0  0  0
 46 47  1  0  0  0  0
 47 48  1  0  0  0  0
 48 49  1  0  0  0  0
 49 50  1  0  0  0  0
 47 51  1  0  0  0  0
 51 52  1  0  0  0  0
 44 53  1  0  0  0  0
 53 54  1  0  0  0  0
 40 55  1  0  0  0  0
 55 56  2  0  0  0  0
 56 57  1  0  0  0  0
 57 58  2  0  0  0  0
 57 59  1  0  0  0  0
 59 60  2  0  0  0  0
 60 61  1  0  0  0  0
 61 62  2  0  0  0  0
 62 63  1  0  0  0  0
 63 64  2  0  0  0  0
 64 65  1  0  0  0  0
 65 66  2  0  0  0  0
 66 67  1  0  0  0  0
 67 68  3  0  0  0  0
 66 69  1  0  0  0  0
 69 70  3  0  0  0  0
 62 71  1  0  0  0  0
 71 72  1  0  0  0  0
 72 73  1  0  0  0  0
 73 74  2  0  0  0  0
 74 75  1  0  0  0  0
 75 76  1  0  0  0  0
 75 77  1  0  0  0  0
  7  3  1  0  0  0  0
 50  8  1  0  0  0  0
 65 56  1  0  0  0  0
 77 71  1  0  0  0  0
 17 10  1  0  0  0  0
 49 18  2  0  0  0  0
 64 59  1  0  0  0  0
 76 72  1  0  0  0  0
 48 20  2  0  0  0  0
 77 61  1  0  0  0  0
 46 21  2  0  0  0  0
 26 22  2  0  0  0  0
 45 27  2  0  0  0  0
 43 28  2  0  0  0  0
 42 30  2  0  0  0  0
 39 32  1  0  0  0  0
  4 78  1  0  0  0  0
  5 79  1  0  0  0  0
 11 80  1  0  0  0  0
 12 81  1  0  0  0  0
 14 82  1  0  0  0  0
 14 83  1  0  0  0  0
 15 84  1  0  0  0  0
 15 85  1  0  0  0  0
 15 86  1  0  0  0  0
 16 87  1  0  0  0  0
 17 88  1  0  0  0  0
 33 89  1  0  0  0  0
 34 90  1  0  0  0  0
 36 91  1  0  0  0  0
 36 92  1  0  0  0  0
 37 93  1  0  0  0  0
 37 94  1  0  0  0  0
 37 95  1  0  0  0  0
 38 96  1  0  0  0  0
 39 97  1  0  0  0  0
 51 98  1  0  0  0  0
 51 99  1  0  0  0  0
 52100  1  0  0  0  0
 52101  1  0  0  0  0
 52102  1  0  0  0  0
 53103  1  0  0  0  0
 53104  1  0  0  0  0
 54105  1  0  0  0  0
 54106  1  0  0  0  0
 54107  1  0  0  0  0
 55108  1  0  0  0  0
 60109  1  0  0  0  0
 63110  1  0  0  0  0
 71111  1  0  0  0  0
 72112  1  0  0  0  0
 73113  1  0  0  0  0
 74114  1  0  0  0  0
 75115  1  0  0  0  0
 76116  1  0  0  0  0
 76117  1  0  0  0  0
 77118  1  0  0  0  0
M  END
