
  xtb     02012218563D
 energy: -156.232742815964 gnorm: 0.000592882846 xtb: 6.4.1 (unknown)
 86 95  0     0  0            999 V2000
   -0.5144  -12.6336    8.6121 N   0  0  0  0  0  0  0  0  0  0  0  0
   -0.7743  -11.5680    8.2707 C   0  0  0  0  0  0  0  0  0  0  0  0
   -1.0947  -10.2741    7.8640 C   0  0  0  0  0  0  0  0  0  0  0  0
   -2.0856   -9.4609    8.3627 C   0  0  0  0  0  0  0  0  0  0  0  0
   -2.1408   -8.2191    7.7267 C   0  0  0  0  0  0  0  0  0  0  0  0
   -1.1944   -8.0690    6.7362 C   0  0  0  0  0  0  0  0  0  0  0  0
   -0.2099   -9.4940    6.5843 S   0  0  0  0  0  0  0  0  0  0  0  0
   -0.9791   -6.9430    5.8942 C   0  0  0  0  0  0  0  0  0  0  0  0
   -2.0007   -5.5184    6.0700 S   0  0  0  0  0  0  0  0  0  0  0  0
   -1.1494   -4.7503    4.7831 C   0  0  0  0  0  0  0  0  0  0  0  0
   -1.1204   -3.5771    4.0355 C   0  0  0  0  0  0  0  0  0  0  0  0
   -1.9975   -2.0969    3.9293 S   0  0  0  0  0  0  0  0  0  0  0  0
   -0.9991   -1.6045    2.5638 C   0  0  0  0  0  0  0  0  0  0  0  0
   -1.1998   -0.4255    1.8564 C   0  0  0  0  0  0  0  0  0  0  0  0
   -2.1479    0.4995    2.1719 O   0  0  0  0  0  0  0  0  0  0  0  0
   -2.2993    0.9533    3.5162 C   0  0  0  0  0  0  0  0  0  0  0  0
   -3.7451    0.8090    3.9662 C   0  0  0  0  0  0  0  0  0  0  0  0
   -0.4349   -0.2170    0.6915 C   0  0  0  0  0  0  0  0  0  0  0  0
    0.5831   -1.1605    0.3762 C   0  0  0  0  0  0  0  0  0  0  0  0
    0.8528   -2.2832    1.1466 C   0  0  0  0  0  0  0  0  0  0  0  0
    1.8658   -3.1563    0.8440 O   0  0  0  0  0  0  0  0  0  0  0  0
    3.1934   -2.6404    0.8482 C   0  0  0  0  0  0  0  0  0  0  0  0
    3.5805   -2.0311    2.1904 C   0  0  0  0  0  0  0  0  0  0  0  0
    0.0025   -2.5593    2.2298 C   0  0  0  0  0  0  0  0  0  0  0  0
   -0.0870   -3.6963    3.0891 C   0  0  0  0  0  0  0  0  0  0  0  0
    0.5237   -4.9176    3.2526 N   0  0  0  0  0  0  0  0  0  0  0  0
   -0.1272   -5.5676    4.2642 C   0  0  0  0  0  0  0  0  0  0  0  0
   -0.0370   -6.8123    4.9000 C   0  0  0  0  0  0  0  0  0  0  0  0
    1.5210   -5.5698    2.4385 C   0  0  0  0  0  0  0  0  0  0  0  0
    0.8970   -6.2063    1.2001 C   0  0  0  0  0  0  0  0  0  0  0  0
    1.4462   -0.8011   -1.1090 S   0  0  0  0  0  0  0  0  0  0  0  0
    0.4575    0.5952   -1.3354 C   0  0  0  0  0  0  0  0  0  0  0  0
    0.3116    1.6085   -2.2748 C   0  0  0  0  0  0  0  0  0  0  0  0
    0.9442    2.1587   -3.7757 S   0  0  0  0  0  0  0  0  0  0  0  0
   -0.1989    3.5057   -3.7530 C   0  0  0  0  0  0  0  0  0  0  0  0
   -1.0225    3.4912   -2.6196 C   0  0  0  0  0  0  0  0  0  0  0  0
   -0.7436    2.4228   -1.7895 C   0  0  0  0  0  0  0  0  0  0  0  0
   -1.2284    1.9167   -0.6099 N   0  0  0  0  0  0  0  0  0  0  0  0
   -2.2659    2.5889    0.1333 C   0  0  0  0  0  0  0  0  0  0  0  0
   -1.6921    3.7354    0.9635 C   0  0  0  0  0  0  0  0  0  0  0  0
   -0.4894    0.7992   -0.3108 C   0  0  0  0  0  0  0  0  0  0  0  0
   -0.3180    4.5104   -4.7194 C   0  0  0  0  0  0  0  0  0  0  0  0
    0.3398    4.6974   -5.9118 C   0  0  0  0  0  0  0  0  0  0  0  0
    1.3474    3.7954   -6.4832 C   0  0  0  0  0  0  0  0  0  0  0  0
    1.8194    2.7969   -5.9773 O   0  0  0  0  0  0  0  0  0  0  0  0
    1.6729    4.3515   -7.8141 C   0  0  0  0  0  0  0  0  0  0  0  0
    2.5295    3.8899   -8.7961 C   0  0  0  0  0  0  0  0  0  0  0  0
    3.2403    2.7711   -8.6225 F   0  0  0  0  0  0  0  0  0  0  0  0
    2.6600    4.5906   -9.9892 C   0  0  0  0  0  0  0  0  0  0  0  0
    1.9283    5.7485  -10.1841 C   0  0  0  0  0  0  0  0  0  0  0  0
    1.0629    6.2334   -9.2103 C   0  0  0  0  0  0  0  0  0  0  0  0
    0.9366    5.5324   -8.0227 C   0  0  0  0  0  0  0  0  0  0  0  0
    0.1168    5.7865   -6.8349 C   0  0  0  0  0  0  0  0  0  0  0  0
   -0.6833    6.8873   -6.6534 C   0  0  0  0  0  0  0  0  0  0  0  0
   -0.8417    7.9220   -7.5986 C   0  0  0  0  0  0  0  0  0  0  0  0
   -1.0201    8.8008   -8.3158 N   0  0  0  0  0  0  0  0  0  0  0  0
   -1.4491    7.1693   -5.5035 C   0  0  0  0  0  0  0  0  0  0  0  0
   -2.0974    7.4815   -4.6071 N   0  0  0  0  0  0  0  0  0  0  0  0
   -2.7415   -9.7654    9.1586 H   0  0  0  0  0  0  0  0  0  0  0  0
   -2.8470   -7.4465    7.9732 H   0  0  0  0  0  0  0  0  0  0  0  0
   -1.6257    0.4177    4.1885 H   0  0  0  0  0  0  0  0  0  0  0  0
   -2.0158    2.0138    3.5194 H   0  0  0  0  0  0  0  0  0  0  0  0
   -3.8561    1.2140    4.9677 H   0  0  0  0  0  0  0  0  0  0  0  0
   -4.3997    1.3511    3.2887 H   0  0  0  0  0  0  0  0  0  0  0  0
   -4.0395   -0.2367    3.9735 H   0  0  0  0  0  0  0  0  0  0  0  0
    3.3322   -1.9038    0.0505 H   0  0  0  0  0  0  0  0  0  0  0  0
    3.8134   -3.5120    0.6233 H   0  0  0  0  0  0  0  0  0  0  0  0
    3.4424   -2.7501    2.9955 H   0  0  0  0  0  0  0  0  0  0  0  0
    4.6231   -1.7284    2.1639 H   0  0  0  0  0  0  0  0  0  0  0  0
    2.9673   -1.1565    2.3993 H   0  0  0  0  0  0  0  0  0  0  0  0
    0.6622   -7.5933    4.6605 H   0  0  0  0  0  0  0  0  0  0  0  0
    2.2694   -4.8412    2.1358 H   0  0  0  0  0  0  0  0  0  0  0  0
    1.9967   -6.3325    3.0599 H   0  0  0  0  0  0  0  0  0  0  0  0
    0.1079   -6.8998    1.4829 H   0  0  0  0  0  0  0  0  0  0  0  0
    1.6557   -6.7459    0.6408 H   0  0  0  0  0  0  0  0  0  0  0  0
    0.4791   -5.4338    0.5605 H   0  0  0  0  0  0  0  0  0  0  0  0
   -1.7731    4.2431   -2.4531 H   0  0  0  0  0  0  0  0  0  0  0  0
   -2.9894    2.9781   -0.5887 H   0  0  0  0  0  0  0  0  0  0  0  0
   -2.7609    1.8637    0.7756 H   0  0  0  0  0  0  0  0  0  0  0  0
   -1.2070    4.4669    0.3210 H   0  0  0  0  0  0  0  0  0  0  0  0
   -0.9564    3.3569    1.6693 H   0  0  0  0  0  0  0  0  0  0  0  0
   -2.4875    4.2287    1.5151 H   0  0  0  0  0  0  0  0  0  0  0  0
   -1.0736    5.2457   -4.4697 H   0  0  0  0  0  0  0  0  0  0  0  0
    3.3307    4.2177  -10.7471 H   0  0  0  0  0  0  0  0  0  0  0  0
    2.0306    6.2878  -11.1132 H   0  0  0  0  0  0  0  0  0  0  0  0
    0.5058    7.1366   -9.3938 H   0  0  0  0  0  0  0  0  0  0  0  0
  1  2  3  0  0  0  0
  2  3  1  0  0  0  0
  3  4  2  0  0  0  0
  4  5  1  0  0  0  0
  5  6  2  0  0  0  0
  6  7  1  0  0  0  0
  6  8  1  0  0  0  0
  8  9  1  0  0  0  0
  9 10  1  0  0  0  0
 10 11  1  0  0  0  0
 11 12  1  0  0  0  0
 12 13  1  0  0  0  0
 13 14  2  0  0  0  0
 14 15  1  0  0  0  0
 15 16  1  0  0  0  0
 16 17  1  0  0  0  0
 14 18  1  0  0  0  0
 18 19  2  0  0  0  0
 19 20  1  0  0  0  0
 20 21  1  0  0  0  0
 21 22  1  0  0  0  0
 22 23  1  0  0  0  0
 20 24  2  0  0  0  0
 24 25  1  0  0  0  0
 25 26  1  0  0  0  0
 26 27  1  0  0  0  0
 27 28  1  0  0  0  0
 26 29  1  0  0  0  0
 29 30  1  0  0  0  0
 19 31  1  0  0  0  0
 31 32  1  0  0  0  0
 32 33  1  0  0  0  0
 33 34  1  0  0  0  0
 34 35  1  0  0  0  0
 35 36  2  0  0  0  0
 36 37  1  0  0  0  0
 37 38  1  0  0  0  0
 38 39  1  0  0  0  0
 39 40  1  0  0  0  0
 38 41  1  0  0  0  0
 35 42  1  0  0  0  0
 42 43  2  0  0  0  0
 43 44  1  0  0  0  0
 44 45  2  0  0  0  0
 44 46  1  0  0  0  0
 46 47  2  0  0  0  0
 47 48  1  0  0  0  0
 47 49  1  0  0  0  0
 49 50  2  0  0  0  0
 50 51  1  0  0  0  0
 51 52  2  0  0  0  0
 52 53  1  0  0  0  0
 53 54  2  0  0  0  0
 54 55  1  0  0  0  0
 55 56  3  0  0  0  0
 54 57  1  0  0  0  0
 57 58  3  0  0  0  0
  7  3  1  0  0  0  0
 28  8  2  0  0  0  0
 41 32  2  0  0  0  0
 53 43  1  0  0  0  0
 27 10  2  0  0  0  0
 37 33  2  0  0  0  0
 52 46  1  0  0  0  0
 25 11  2  0  0  0  0
 24 13  1  0  0  0  0
 41 18  1  0  0  0  0
  4 59  1  0  0  0  0
  5 60  1  0  0  0  0
 16 61  1  0  0  0  0
 16 62  1  0  0  0  0
 17 63  1  0  0  0  0
 17 64  1  0  0  0  0
 17 65  1  0  0  0  0
 22 66  1  0  0  0  0
 22 67  1  0  0  0  0
 23 68  1  0  0  0  0
 23 69  1  0  0  0  0
 23 70  1  0  0  0  0
 28 71  1  0  0  0  0
 29 72  1  0  0  0  0
 29 73  1  0  0  0  0
 30 74  1  0  0  0  0
 30 75  1  0  0  0  0
 30 76  1  0  0  0  0
 36 77  1  0  0  0  0
 39 78  1  0  0  0  0
 39 79  1  0  0  0  0
 40 80  1  0  0  0  0
 40 81  1  0  0  0  0
 40 82  1  0  0  0  0
 42 83  1  0  0  0  0
 49 84  1  0  0  0  0
 50 85  1  0  0  0  0
 51 86  1  0  0  0  0
M  END
