93

N          6.98120       -8.63180        7.89770
C          6.31190       -8.07000        7.15180
C          5.50170       -7.39820        6.23860
C          4.81870       -7.93570        5.17260
C          4.09690       -6.98170        4.45320
C          4.22000       -5.70590        4.96040
S          5.25110       -5.67960        6.35960
C          3.63140       -4.50870        4.46880
S          2.61530       -4.53580        3.05070
C          2.37960       -2.82450        3.15760
C          1.61380       -2.02990        2.24820
C          1.66380       -0.63750        2.45670
O          2.37300       -0.05670        3.44770
C          2.96190       -0.80790        4.52060
C          2.10120       -0.58140        5.78520
C          0.69140       -1.14530        5.65210
C          4.36430       -0.20140        4.72610
C          5.28080       -0.45130        3.53440
C          3.05220       -2.27770        4.22520
C          3.75600       -3.23290        4.96990
C          0.97680        0.20900        1.59420
C          0.26000       -0.33920        0.54440
C         -0.54320        0.30940       -0.46930
C         -1.09330       -0.68030       -1.30470
C         -0.66450       -2.06410       -0.85950
C          0.21160       -1.72930        0.33070
C          0.86980       -2.56850        1.19560
C          0.11890       -2.71610       -2.01760
C          0.70500       -4.09460       -1.74090
C         -1.84730       -2.91400       -0.34880
C         -2.89170       -3.30090       -1.38770
C         -1.84520       -0.30610       -2.39170
C         -2.09830        1.04840       -2.62170
C         -2.85160        1.53250       -3.73780
C         -3.17360        2.86210       -3.88350
C         -2.80240        3.85130       -2.81160
O         -1.75630        3.35960       -1.96180
C         -1.57980        2.03410       -1.75830
C         -0.78270        1.65600       -0.68540
C         -4.06430        4.09030       -1.94570
C         -3.83980        5.06390       -0.79550
C         -2.25850        5.15790       -3.41180
C         -1.11030        4.91030       -4.38340
C         -3.91460        3.11830       -5.04370
C         -4.15090        1.98760       -5.79540
S         -3.44800        0.57730       -5.05000
C         -4.86630        1.89030       -7.02300
C         -5.47490        2.90790       -7.72980
C         -6.09760        2.47280       -8.90040
C         -5.97210        1.11740       -9.10220
C         -6.47680        0.37160      -10.16570
N         -6.89710       -0.23350      -11.04700
S         -5.06730        0.36250       -7.82330
H          4.84840       -8.98350        4.93170
H          3.50020       -7.20430        3.58660
H          2.04680        0.49420        5.96170
H          2.60490       -1.04520        6.63460
H          0.11860       -0.92730        6.55010
H          0.17830       -0.70030        4.80240
H          0.71540       -2.22450        5.51470
H          4.80460       -0.61790        5.63230
H          4.23890        0.87300        4.86810
H          6.23760        0.04080        3.68870
H          4.83110       -0.05640        2.62640
H          5.45900       -1.51610        3.39830
H          4.34210       -3.01510        5.84500
H          1.01440        1.27330        1.76170
H          0.83350       -3.64310        1.09920
H         -0.54680       -2.77960       -2.87970
H          0.93150       -2.03560       -2.28590
H          1.15930       -4.48030       -2.65150
H         -0.06140       -4.79680       -1.42430
H          1.47670       -4.04530       -0.97830
H         -2.33620       -2.34680        0.44800
H         -1.44080       -3.82030        0.10310
H         -3.39730       -2.42260       -1.77820
H         -2.44710       -3.84930       -2.21360
H         -3.64030       -3.93990       -0.92350
H         -2.24250       -1.02310       -3.09430
H         -0.35880        2.41670       -0.04990
H         -4.86700        4.44680       -2.59360
H         -4.36690        3.12050       -1.54040
H         -2.95180        4.78040       -0.23620
H         -3.71540        6.08000       -1.15980
H         -4.69430        5.04480       -0.12350
H         -3.07120        5.68660       -3.91080
H         -1.89740        5.77380       -2.58870
H         -0.31780        4.35490       -3.88750
H         -1.44330        4.34000       -5.24790
H         -0.70410        5.85710       -4.73060
H         -4.26910        4.09170       -5.32830
H         -5.46860        3.93300       -7.40810
H         -6.62410        3.11610       -9.58280
