135

N          2.07070       14.21500        5.73880
C          1.74760       13.11480        5.67480
C          1.36120       11.77680        5.60670
C          1.40760       10.84270        6.61550
C          0.95170        9.58630        6.21220
C          0.55320        9.54770        4.89330
S          0.74150       11.09740        4.12990
C          0.06550        8.43010        4.16050
C         -0.29540        8.38440        2.83420
C         -0.68150        7.09990        2.44270
S         -1.17580        6.40980        0.92240
C         -1.27210        4.84170        1.66900
C         -1.50510        3.54580        1.20960
C         -1.84850        2.86830       -0.09050
C         -0.94010        3.20280       -1.25190
C          0.36740        3.61670       -1.04430
C          1.19860        3.87710       -2.11860
C          0.74900        3.72340       -3.42270
C          1.66200        3.96050       -4.59080
C          2.31120        2.64840       -5.03570
C         -0.55640        3.29340       -3.62450
C         -1.39150        3.03460       -2.55530
C         -3.29540        3.24480       -0.37740
C         -3.57080        4.52020       -0.85660
C         -4.87470        4.92570       -1.06100
C         -5.93760        4.07310       -0.78800
C         -7.35260        4.50500       -1.04380
C         -7.75820        4.18610       -2.48410
C         -5.65570        2.79980       -0.31370
C         -4.35120        2.38850       -0.10400
C         -1.68270        1.41070        0.30340
C         -1.50000        1.28540        1.70160
C         -1.39600        2.61300        2.22480
S         -1.00510        3.29610        3.76820
C         -0.96100        4.86940        3.03720
C         -0.62310        6.15550        3.47180
S         -0.09000        6.86680        4.94890
C         -1.35700        0.04330        2.31360
C         -1.30160       -1.05720        1.49010
C         -1.05460       -2.50540        1.87880
C          0.10660       -2.59060        2.84790
C         -0.11960       -2.55920        4.21790
C          0.93950       -2.60680        5.10430
C          2.24900       -2.68520        4.64900
C          3.39860       -2.70220        5.61440
C          3.84950       -1.27510        5.93210
C          2.47060       -2.69480        3.27860
C          1.41510       -2.64230        2.38780
C         -2.29490       -3.19570        2.42480
C         -3.53870       -2.58300        2.43880
C         -4.64570       -3.26100        2.91770
C         -4.54080       -4.56290        3.38660
C         -5.75290       -5.30740        3.86680
C         -6.42640       -6.03940        2.70410
C         -3.29390       -5.17590        3.35710
C         -2.18510       -4.50350        2.88280
C         -0.76210       -3.10750        0.52940
C         -1.00420       -2.18440       -0.47430
C         -1.35540       -0.91550        0.08360
C         -1.59630        0.31500       -0.52200
S         -0.59490       -2.74130       -2.06080
C         -0.03770       -4.23290       -1.36730
C         -0.23170       -4.29220        0.02500
S          0.38740       -5.75610        0.73050
C          0.98920       -6.25120       -0.83000
C          1.80780       -7.28840       -1.25360
C          2.13470       -7.19110       -2.59880
S          1.37220       -5.78770       -3.34700
C          0.66900       -5.33540       -1.84590
C          3.13740       -7.94950       -3.23640
C          3.59980       -7.87410       -4.51670
C          5.01480       -8.23190       -4.80290
O          5.75510       -8.89650       -4.11550
C          5.33120       -7.52360       -6.06320
C          6.55530       -7.36230       -6.68240
C          6.63920       -6.60100       -7.84350
C          7.93280       -6.36570       -8.55260
C          5.45990       -6.03970       -8.33800
F          5.53800       -5.29170       -9.45460
C          4.21690       -6.19550       -7.74590
C          4.15920       -6.94630       -6.58450
C          3.03910       -7.29550       -5.71620
C          1.71860       -7.32960       -6.07810
C          0.73560       -7.95310       -5.28080
N         -0.06750       -8.50070       -4.67080
C          1.23330       -6.85200       -7.31100
N          0.79900       -6.46420       -8.30010
H          1.76300       11.07160        7.60430
H          0.91320        8.72430        6.85410
H         -0.26680        9.23910        2.18310
H          0.74140        3.73610       -0.03750
H          2.21240        4.20570       -1.93900
H          1.09420        4.38010       -5.42390
H          2.44120        4.67340       -4.31470
H          2.89270        2.21940       -4.22260
H          2.97080        2.81830       -5.88340
H          1.54970        1.92840       -5.32710
H         -0.92480        3.16270       -4.63210
H         -2.40640        2.70860       -2.73260
H         -2.75610        5.19640       -1.07250
H         -5.07050        5.92190       -1.43090
H         -8.02700        3.98900       -0.35730
H         -7.44720        5.57930       -0.87330
H         -8.78270        4.50020       -2.66910
H         -7.10460        4.70180       -3.18400
H         -7.68330        3.11700       -2.67020
H         -6.46720        2.11980       -0.09690
H         -4.15900        1.39520        0.27430
H         -1.24860       -0.04190        3.38400
H         -1.13140       -2.50760        4.59350
H          0.74470       -2.58810        6.16720
H          4.23500       -3.25680        5.18440
H          3.09820       -3.19890        6.53910
H          4.16420       -0.76690        5.02330
H          4.68250       -1.28580        6.63110
H          3.03200       -0.70950        6.37360
H          3.48230       -2.74620        2.90200
H          1.61470       -2.64150        1.32580
H         -3.64770       -1.56990        2.08050
H         -5.60650       -2.76620        2.92900
H         -5.46330       -6.03330        4.62920
H         -6.46410       -4.60870        4.31200
H         -7.30410       -6.57900        3.05170
H         -5.73680       -6.75000        2.25420
H         -6.73440       -5.33090        1.93840
H         -3.18930       -6.19080        3.71290
H         -1.22100       -4.99200        2.87600
H         -1.66480        0.40340       -1.59530
H          2.17640       -8.07320       -0.61880
H          3.73200       -8.56710       -2.57000
H          7.43670       -7.81980       -6.25960
H          8.75160       -6.85940       -8.03790
H          8.13920       -5.29720       -8.60970
H          7.87570       -6.73880       -9.57450
H          3.35160       -5.72440       -8.18310
