
  xtb     02012223103D
 energy: -156.034357987042 gnorm: 0.000295336665 xtb: 6.4.1 (unknown)
 85 95  0     0  0            999 V2000
   -3.6798    9.6128   -8.7463 N   0  0  0  0  0  0  0  0  0  0  0  0
   -3.3550    8.8106   -7.9910 C   0  0  0  0  0  0  0  0  0  0  0  0
   -2.9552    7.8461   -7.0680 C   0  0  0  0  0  0  0  0  0  0  0  0
   -2.1826    8.0309   -5.9452 C   0  0  0  0  0  0  0  0  0  0  0  0
   -1.9648    6.8484   -5.2391 C   0  0  0  0  0  0  0  0  0  0  0  0
   -2.5608    5.7411   -5.8103 C   0  0  0  0  0  0  0  0  0  0  0  0
   -3.4205    6.1813   -7.2552 S   0  0  0  0  0  0  0  0  0  0  0  0
   -2.5099    4.4099   -5.3053 C   0  0  0  0  0  0  0  0  0  0  0  0
   -2.9897    3.2237   -5.8240 C   0  0  0  0  0  0  0  0  0  0  0  0
   -3.7408    3.0372   -7.1017 C   0  0  0  0  0  0  0  0  0  0  0  0
   -5.2426    3.2361   -6.8898 C   0  0  0  0  0  0  0  0  0  0  0  0
   -2.7046    2.1437   -4.9689 C   0  0  0  0  0  0  0  0  0  0  0  0
   -3.0474    0.4348   -5.0979 S   0  0  0  0  0  0  0  0  0  0  0  0
   -2.2337    0.1850   -3.5921 C   0  0  0  0  0  0  0  0  0  0  0  0
   -1.8323   -0.8769   -2.7682 C   0  0  0  0  0  0  0  0  0  0  0  0
   -1.9121   -2.2755   -2.9504 C   0  0  0  0  0  0  0  0  0  0  0  0
   -1.2103   -3.1343   -2.0400 C   0  0  0  0  0  0  0  0  0  0  0  0
   -1.3048   -4.4111   -2.3756 N   0  0  0  0  0  0  0  0  0  0  0  0
   -2.2059   -4.5250   -3.7155 S   0  0  0  0  0  0  0  0  0  0  0  0
   -2.5062   -2.9478   -3.9235 N   0  0  0  0  0  0  0  0  0  0  0  0
   -0.5641   -2.5630   -0.9215 C   0  0  0  0  0  0  0  0  0  0  0  0
    0.1410   -3.1444    0.1421 C   0  0  0  0  0  0  0  0  0  0  0  0
    0.6885   -4.7018    0.6581 S   0  0  0  0  0  0  0  0  0  0  0  0
    1.3923   -3.9493    2.0798 C   0  0  0  0  0  0  0  0  0  0  0  0
    2.1265   -4.4560    3.1410 C   0  0  0  0  0  0  0  0  0  0  0  0
    2.4156   -5.9122    3.3035 C   0  0  0  0  0  0  0  0  0  0  0  0
    1.3993   -6.5679    4.2426 C   0  0  0  0  0  0  0  0  0  0  0  0
    2.5045   -3.4361    4.0368 C   0  0  0  0  0  0  0  0  0  0  0  0
    1.9143   -1.8505    3.5276 S   0  0  0  0  0  0  0  0  0  0  0  0
    1.1890   -2.5581    2.1360 C   0  0  0  0  0  0  0  0  0  0  0  0
    0.4762   -2.1100    1.0235 C   0  0  0  0  0  0  0  0  0  0  0  0
    0.0152   -0.9092    0.5424 N   0  0  0  0  0  0  0  0  0  0  0  0
   -0.6027   -1.1596   -0.6702 C   0  0  0  0  0  0  0  0  0  0  0  0
   -1.1304   -0.3033   -1.6701 C   0  0  0  0  0  0  0  0  0  0  0  0
   -1.0771    1.0660   -1.8554 N   0  0  0  0  0  0  0  0  0  0  0  0
   -1.7423    1.3597   -3.0144 C   0  0  0  0  0  0  0  0  0  0  0  0
   -2.0079    2.4827   -3.8084 C   0  0  0  0  0  0  0  0  0  0  0  0
   -1.6928    4.1793   -3.7582 S   0  0  0  0  0  0  0  0  0  0  0  0
   -0.2444    2.0681   -1.2303 C   0  0  0  0  0  0  0  0  0  0  0  0
   -1.0680    3.0645   -0.4133 C   0  0  0  0  0  0  0  0  0  0  0  0
   -0.2372    0.1442    1.5037 C   0  0  0  0  0  0  0  0  0  0  0  0
   -1.3782   -0.2382    2.4463 C   0  0  0  0  0  0  0  0  0  0  0  0
    3.2812   -3.6750    5.1712 C   0  0  0  0  0  0  0  0  0  0  0  0
    3.7808   -2.8168    6.1248 C   0  0  0  0  0  0  0  0  0  0  0  0
    3.5855   -1.3668    6.1658 C   0  0  0  0  0  0  0  0  0  0  0  0
    2.9216   -0.6869    5.4027 O   0  0  0  0  0  0  0  0  0  0  0  0
    4.3595   -0.8832    7.3251 C   0  0  0  0  0  0  0  0  0  0  0  0
    4.5355    0.4052    7.8004 C   0  0  0  0  0  0  0  0  0  0  0  0
    3.7910    1.7441    7.0260 Cl  0  0  0  0  0  0  0  0  0  0  0  0
    5.3349    0.6031    8.9243 C   0  0  0  0  0  0  0  0  0  0  0  0
    5.9359   -0.4763    9.5459 C   0  0  0  0  0  0  0  0  0  0  0  0
    5.7663   -1.7752    9.0792 C   0  0  0  0  0  0  0  0  0  0  0  0
    4.9740   -1.9776    7.9629 C   0  0  0  0  0  0  0  0  0  0  0  0
    4.6171   -3.2008    7.2393 C   0  0  0  0  0  0  0  0  0  0  0  0
    5.0214   -4.4654    7.5883 C   0  0  0  0  0  0  0  0  0  0  0  0
    5.8402   -4.7620    8.6978 C   0  0  0  0  0  0  0  0  0  0  0  0
    6.5011   -5.0819    9.5807 N   0  0  0  0  0  0  0  0  0  0  0  0
    4.6869   -5.6557    6.9105 C   0  0  0  0  0  0  0  0  0  0  0  0
    4.4616   -6.6707    6.4200 N   0  0  0  0  0  0  0  0  0  0  0  0
   -1.7951    8.9913   -5.6556 H   0  0  0  0  0  0  0  0  0  0  0  0
   -1.3855    6.7918   -4.3344 H   0  0  0  0  0  0  0  0  0  0  0  0
   -3.5619    2.0189   -7.4540 H   0  0  0  0  0  0  0  0  0  0  0  0
   -3.3788    3.7314   -7.8622 H   0  0  0  0  0  0  0  0  0  0  0  0
   -5.6161    2.5185   -6.1631 H   0  0  0  0  0  0  0  0  0  0  0  0
   -5.4517    4.2394   -6.5265 H   0  0  0  0  0  0  0  0  0  0  0  0
   -5.7727    3.0905   -7.8268 H   0  0  0  0  0  0  0  0  0  0  0  0
    2.3490   -6.3840    2.3211 H   0  0  0  0  0  0  0  0  0  0  0  0
    3.4223   -6.0729    3.6922 H   0  0  0  0  0  0  0  0  0  0  0  0
    1.6167   -7.6279    4.3361 H   0  0  0  0  0  0  0  0  0  0  0  0
    0.3915   -6.4499    3.8513 H   0  0  0  0  0  0  0  0  0  0  0  0
    1.4437   -6.1198    5.2323 H   0  0  0  0  0  0  0  0  0  0  0  0
    0.5196    1.5736   -0.6295 H   0  0  0  0  0  0  0  0  0  0  0  0
    0.2693    2.6157   -2.0288 H   0  0  0  0  0  0  0  0  0  0  0  0
   -1.6823    3.6692   -1.0750 H   0  0  0  0  0  0  0  0  0  0  0  0
   -1.7300    2.5595    0.2869 H   0  0  0  0  0  0  0  0  0  0  0  0
   -0.4062    3.7250    0.1398 H   0  0  0  0  0  0  0  0  0  0  0  0
   -0.4970    1.0644    0.9961 H   0  0  0  0  0  0  0  0  0  0  0  0
    0.6809    0.2950    2.0791 H   0  0  0  0  0  0  0  0  0  0  0  0
   -2.2905   -0.4220    1.8819 H   0  0  0  0  0  0  0  0  0  0  0  0
   -1.5563    0.5709    3.1490 H   0  0  0  0  0  0  0  0  0  0  0  0
   -1.1302   -1.1338    3.0092 H   0  0  0  0  0  0  0  0  0  0  0  0
    3.5405   -4.7171    5.2981 H   0  0  0  0  0  0  0  0  0  0  0  0
    5.4794    1.6032    9.3009 H   0  0  0  0  0  0  0  0  0  0  0  0
    6.5532   -0.3071   10.4149 H   0  0  0  0  0  0  0  0  0  0  0  0
    6.2499   -2.5934    9.5858 H   0  0  0  0  0  0  0  0  0  0  0  0
  1  2  3  0  0  0  0
  2  3  1  0  0  0  0
  3  4  2  0  0  0  0
  4  5  1  0  0  0  0
  5  6  2  0  0  0  0
  6  7  1  0  0  0  0
  6  8  1  0  0  0  0
  8  9  2  0  0  0  0
  9 10  1  0  0  0  0
 10 11  1  0  0  0  0
  9 12  1  0  0  0  0
 12 13  1  0  0  0  0
 13 14  1  0  0  0  0
 14 15  1  0  0  0  0
 15 16  1  0  0  0  0
 16 17  1  0  0  0  0
 17 18  2  0  0  0  0
 18 19  1  0  0  0  0
 19 20  1  0  0  0  0
 17 21  1  0  0  0  0
 21 22  1  0  0  0  0
 22 23  1  0  0  0  0
 23 24  1  0  0  0  0
 24 25  1  0  0  0  0
 25 26  1  0  0  0  0
 26 27  1  0  0  0  0
 25 28  2  0  0  0  0
 28 29  1  0  0  0  0
 29 30  1  0  0  0  0
 30 31  1  0  0  0  0
 31 32  1  0  0  0  0
 32 33  1  0  0  0  0
 33 34  1  0  0  0  0
 34 35  1  0  0  0  0
 35 36  1  0  0  0  0
 36 37  1  0  0  0  0
 37 38  1  0  0  0  0
 35 39  1  0  0  0  0
 39 40  1  0  0  0  0
 32 41  1  0  0  0  0
 41 42  1  0  0  0  0
 28 43  1  0  0  0  0
 43 44  2  0  0  0  0
 44 45  1  0  0  0  0
 45 46  2  0  0  0  0
 45 47  1  0  0  0  0
 47 48  2  0  0  0  0
 48 49  1  0  0  0  0
 48 50  1  0  0  0  0
 50 51  2  0  0  0  0
 51 52  1  0  0  0  0
 52 53  2  0  0  0  0
 53 54  1  0  0  0  0
 54 55  2  0  0  0  0
 55 56  1  0  0  0  0
 56 57  3  0  0  0  0
 55 58  1  0  0  0  0
 58 59  3  0  0  0  0
  7  3  1  0  0  0  0
 38  8  1  0  0  0  0
 54 44  1  0  0  0  0
 37 12  2  0  0  0  0
 53 47  1  0  0  0  0
 36 14  2  0  0  0  0
 34 15  2  0  0  0  0
 20 16  2  0  0  0  0
 33 21  2  0  0  0  0
 31 22  2  0  0  0  0
 30 24  2  0  0  0  0
  4 60  1  0  0  0  0
  5 61  1  0  0  0  0
 10 62  1  0  0  0  0
 10 63  1  0  0  0  0
 11 64  1  0  0  0  0
 11 65  1  0  0  0  0
 11 66  1  0  0  0  0
 26 67  1  0  0  0  0
 26 68  1  0  0  0  0
 27 69  1  0  0  0  0
 27 70  1  0  0  0  0
 27 71  1  0  0  0  0
 39 72  1  0  0  0  0
 39 73  1  0  0  0  0
 40 74  1  0  0  0  0
 40 75  1  0  0  0  0
 40 76  1  0  0  0  0
 41 77  1  0  0  0  0
 41 78  1  0  0  0  0
 42 79  1  0  0  0  0
 42 80  1  0  0  0  0
 42 81  1  0  0  0  0
 43 82  1  0  0  0  0
 50 83  1  0  0  0  0
 51 84  1  0  0  0  0
 52 85  1  0  0  0  0
M  END
