
  xtb     01212213013D
 energy: -225.320948329088 gnorm: 0.000328594085 xtb: 6.4.1 (unknown)
135150  0     0  0            999 V2000
    2.0707   14.2150    5.7388 N   0  0  0  0  0  0  0  0  0  0  0  0
    1.7476   13.1148    5.6748 C   0  0  0  0  0  0  0  0  0  0  0  0
    1.3612   11.7768    5.6067 C   0  0  0  0  0  0  0  0  0  0  0  0
    1.4076   10.8427    6.6155 C   0  0  0  0  0  0  0  0  0  0  0  0
    0.9517    9.5863    6.2122 C   0  0  0  0  0  0  0  0  0  0  0  0
    0.5532    9.5477    4.8933 C   0  0  0  0  0  0  0  0  0  0  0  0
    0.7415   11.0974    4.1299 S   0  0  0  0  0  0  0  0  0  0  0  0
    0.0655    8.4301    4.1605 C   0  0  0  0  0  0  0  0  0  0  0  0
   -0.2954    8.3844    2.8342 C   0  0  0  0  0  0  0  0  0  0  0  0
   -0.6815    7.0999    2.4427 C   0  0  0  0  0  0  0  0  0  0  0  0
   -1.1758    6.4098    0.9224 S   0  0  0  0  0  0  0  0  0  0  0  0
   -1.2721    4.8417    1.6690 C   0  0  0  0  0  0  0  0  0  0  0  0
   -1.5051    3.5458    1.2096 C   0  0  0  0  0  0  0  0  0  0  0  0
   -1.8485    2.8683   -0.0905 C   0  0  0  0  0  0  0  0  0  0  0  0
   -0.9401    3.2028   -1.2519 C   0  0  0  0  0  0  0  0  0  0  0  0
    0.3674    3.6167   -1.0443 C   0  0  0  0  0  0  0  0  0  0  0  0
    1.1986    3.8771   -2.1186 C   0  0  0  0  0  0  0  0  0  0  0  0
    0.7490    3.7234   -3.4227 C   0  0  0  0  0  0  0  0  0  0  0  0
    1.6620    3.9605   -4.5908 C   0  0  0  0  0  0  0  0  0  0  0  0
    2.3112    2.6484   -5.0357 C   0  0  0  0  0  0  0  0  0  0  0  0
   -0.5564    3.2934   -3.6245 C   0  0  0  0  0  0  0  0  0  0  0  0
   -1.3915    3.0346   -2.5553 C   0  0  0  0  0  0  0  0  0  0  0  0
   -3.2954    3.2448   -0.3774 C   0  0  0  0  0  0  0  0  0  0  0  0
   -3.5708    4.5202   -0.8566 C   0  0  0  0  0  0  0  0  0  0  0  0
   -4.8747    4.9257   -1.0610 C   0  0  0  0  0  0  0  0  0  0  0  0
   -5.9376    4.0731   -0.7880 C   0  0  0  0  0  0  0  0  0  0  0  0
   -7.3526    4.5050   -1.0438 C   0  0  0  0  0  0  0  0  0  0  0  0
   -7.7582    4.1861   -2.4841 C   0  0  0  0  0  0  0  0  0  0  0  0
   -5.6557    2.7998   -0.3137 C   0  0  0  0  0  0  0  0  0  0  0  0
   -4.3512    2.3885   -0.1040 C   0  0  0  0  0  0  0  0  0  0  0  0
   -1.6827    1.4107    0.3034 C   0  0  0  0  0  0  0  0  0  0  0  0
   -1.5000    1.2854    1.7016 C   0  0  0  0  0  0  0  0  0  0  0  0
   -1.3960    2.6130    2.2248 C   0  0  0  0  0  0  0  0  0  0  0  0
   -1.0051    3.2961    3.7682 S   0  0  0  0  0  0  0  0  0  0  0  0
   -0.9610    4.8694    3.0372 C   0  0  0  0  0  0  0  0  0  0  0  0
   -0.6231    6.1555    3.4718 C   0  0  0  0  0  0  0  0  0  0  0  0
   -0.0900    6.8668    4.9489 S   0  0  0  0  0  0  0  0  0  0  0  0
   -1.3570    0.0433    2.3136 C   0  0  0  0  0  0  0  0  0  0  0  0
   -1.3016   -1.0572    1.4901 C   0  0  0  0  0  0  0  0  0  0  0  0
   -1.0546   -2.5054    1.8788 C   0  0  0  0  0  0  0  0  0  0  0  0
    0.1066   -2.5906    2.8479 C   0  0  0  0  0  0  0  0  0  0  0  0
   -0.1196   -2.5592    4.2179 C   0  0  0  0  0  0  0  0  0  0  0  0
    0.9395   -2.6068    5.1043 C   0  0  0  0  0  0  0  0  0  0  0  0
    2.2490   -2.6852    4.6490 C   0  0  0  0  0  0  0  0  0  0  0  0
    3.3986   -2.7022    5.6144 C   0  0  0  0  0  0  0  0  0  0  0  0
    3.8495   -1.2751    5.9321 C   0  0  0  0  0  0  0  0  0  0  0  0
    2.4706   -2.6948    3.2786 C   0  0  0  0  0  0  0  0  0  0  0  0
    1.4151   -2.6423    2.3878 C   0  0  0  0  0  0  0  0  0  0  0  0
   -2.2949   -3.1957    2.4248 C   0  0  0  0  0  0  0  0  0  0  0  0
   -3.5387   -2.5830    2.4388 C   0  0  0  0  0  0  0  0  0  0  0  0
   -4.6457   -3.2610    2.9177 C   0  0  0  0  0  0  0  0  0  0  0  0
   -4.5408   -4.5629    3.3866 C   0  0  0  0  0  0  0  0  0  0  0  0
   -5.7529   -5.3074    3.8668 C   0  0  0  0  0  0  0  0  0  0  0  0
   -6.4264   -6.0394    2.7041 C   0  0  0  0  0  0  0  0  0  0  0  0
   -3.2939   -5.1759    3.3571 C   0  0  0  0  0  0  0  0  0  0  0  0
   -2.1851   -4.5035    2.8828 C   0  0  0  0  0  0  0  0  0  0  0  0
   -0.7621   -3.1075    0.5294 C   0  0  0  0  0  0  0  0  0  0  0  0
   -1.0042   -2.1844   -0.4743 C   0  0  0  0  0  0  0  0  0  0  0  0
   -1.3554   -0.9155    0.0836 C   0  0  0  0  0  0  0  0  0  0  0  0
   -1.5963    0.3150   -0.5220 C   0  0  0  0  0  0  0  0  0  0  0  0
   -0.5949   -2.7413   -2.0608 S   0  0  0  0  0  0  0  0  0  0  0  0
   -0.0377   -4.2329   -1.3673 C   0  0  0  0  0  0  0  0  0  0  0  0
   -0.2317   -4.2922    0.0250 C   0  0  0  0  0  0  0  0  0  0  0  0
    0.3874   -5.7561    0.7305 S   0  0  0  0  0  0  0  0  0  0  0  0
    0.9892   -6.2512   -0.8300 C   0  0  0  0  0  0  0  0  0  0  0  0
    1.8078   -7.2884   -1.2536 C   0  0  0  0  0  0  0  0  0  0  0  0
    2.1347   -7.1911   -2.5988 C   0  0  0  0  0  0  0  0  0  0  0  0
    1.3722   -5.7877   -3.3470 S   0  0  0  0  0  0  0  0  0  0  0  0
    0.6690   -5.3354   -1.8459 C   0  0  0  0  0  0  0  0  0  0  0  0
    3.1374   -7.9495   -3.2364 C   0  0  0  0  0  0  0  0  0  0  0  0
    3.5998   -7.8741   -4.5167 C   0  0  0  0  0  0  0  0  0  0  0  0
    5.0148   -8.2319   -4.8029 C   0  0  0  0  0  0  0  0  0  0  0  0
    5.7551   -8.8965   -4.1155 O   0  0  0  0  0  0  0  0  0  0  0  0
    5.3312   -7.5236   -6.0632 C   0  0  0  0  0  0  0  0  0  0  0  0
    6.5553   -7.3623   -6.6824 C   0  0  0  0  0  0  0  0  0  0  0  0
    6.6392   -6.6010   -7.8435 C   0  0  0  0  0  0  0  0  0  0  0  0
    7.9328   -6.3657   -8.5526 C   0  0  0  0  0  0  0  0  0  0  0  0
    5.4599   -6.0397   -8.3380 C   0  0  0  0  0  0  0  0  0  0  0  0
    5.5380   -5.2917   -9.4546 F   0  0  0  0  0  0  0  0  0  0  0  0
    4.2169   -6.1955   -7.7459 C   0  0  0  0  0  0  0  0  0  0  0  0
    4.1592   -6.9463   -6.5845 C   0  0  0  0  0  0  0  0  0  0  0  0
    3.0391   -7.2955   -5.7162 C   0  0  0  0  0  0  0  0  0  0  0  0
    1.7186   -7.3296   -6.0781 C   0  0  0  0  0  0  0  0  0  0  0  0
    0.7356   -7.9531   -5.2808 C   0  0  0  0  0  0  0  0  0  0  0  0
   -0.0675   -8.5007   -4.6708 N   0  0  0  0  0  0  0  0  0  0  0  0
    1.2333   -6.8520   -7.3110 C   0  0  0  0  0  0  0  0  0  0  0  0
    0.7990   -6.4642   -8.3001 N   0  0  0  0  0  0  0  0  0  0  0  0
    1.7630   11.0716    7.6043 H   0  0  0  0  0  0  0  0  0  0  0  0
    0.9132    8.7243    6.8541 H   0  0  0  0  0  0  0  0  0  0  0  0
   -0.2668    9.2391    2.1831 H   0  0  0  0  0  0  0  0  0  0  0  0
    0.7414    3.7361   -0.0375 H   0  0  0  0  0  0  0  0  0  0  0  0
    2.2124    4.2057   -1.9390 H   0  0  0  0  0  0  0  0  0  0  0  0
    1.0942    4.3801   -5.4239 H   0  0  0  0  0  0  0  0  0  0  0  0
    2.4412    4.6734   -4.3147 H   0  0  0  0  0  0  0  0  0  0  0  0
    2.8927    2.2194   -4.2226 H   0  0  0  0  0  0  0  0  0  0  0  0
    2.9708    2.8183   -5.8834 H   0  0  0  0  0  0  0  0  0  0  0  0
    1.5497    1.9284   -5.3271 H   0  0  0  0  0  0  0  0  0  0  0  0
   -0.9248    3.1627   -4.6321 H   0  0  0  0  0  0  0  0  0  0  0  0
   -2.4064    2.7086   -2.7326 H   0  0  0  0  0  0  0  0  0  0  0  0
   -2.7561    5.1964   -1.0725 H   0  0  0  0  0  0  0  0  0  0  0  0
   -5.0705    5.9219   -1.4309 H   0  0  0  0  0  0  0  0  0  0  0  0
   -8.0270    3.9890   -0.3573 H   0  0  0  0  0  0  0  0  0  0  0  0
   -7.4472    5.5793   -0.8733 H   0  0  0  0  0  0  0  0  0  0  0  0
   -8.7827    4.5002   -2.6691 H   0  0  0  0  0  0  0  0  0  0  0  0
   -7.1046    4.7018   -3.1840 H   0  0  0  0  0  0  0  0  0  0  0  0
   -7.6833    3.1170   -2.6702 H   0  0  0  0  0  0  0  0  0  0  0  0
   -6.4672    2.1198   -0.0969 H   0  0  0  0  0  0  0  0  0  0  0  0
   -4.1590    1.3952    0.2743 H   0  0  0  0  0  0  0  0  0  0  0  0
   -1.2486   -0.0419    3.3840 H   0  0  0  0  0  0  0  0  0  0  0  0
   -1.1314   -2.5076    4.5935 H   0  0  0  0  0  0  0  0  0  0  0  0
    0.7447   -2.5881    6.1672 H   0  0  0  0  0  0  0  0  0  0  0  0
    4.2350   -3.2568    5.1844 H   0  0  0  0  0  0  0  0  0  0  0  0
    3.0982   -3.1989    6.5391 H   0  0  0  0  0  0  0  0  0  0  0  0
    4.1642   -0.7669    5.0233 H   0  0  0  0  0  0  0  0  0  0  0  0
    4.6825   -1.2858    6.6311 H   0  0  0  0  0  0  0  0  0  0  0  0
    3.0320   -0.7095    6.3736 H   0  0  0  0  0  0  0  0  0  0  0  0
    3.4823   -2.7462    2.9020 H   0  0  0  0  0  0  0  0  0  0  0  0
    1.6147   -2.6415    1.3258 H   0  0  0  0  0  0  0  0  0  0  0  0
   -3.6477   -1.5699    2.0805 H   0  0  0  0  0  0  0  0  0  0  0  0
   -5.6065   -2.7662    2.9290 H   0  0  0  0  0  0  0  0  0  0  0  0
   -5.4633   -6.0333    4.6292 H   0  0  0  0  0  0  0  0  0  0  0  0
   -6.4641   -4.6087    4.3120 H   0  0  0  0  0  0  0  0  0  0  0  0
   -7.3041   -6.5790    3.0517 H   0  0  0  0  0  0  0  0  0  0  0  0
   -5.7368   -6.7500    2.2542 H   0  0  0  0  0  0  0  0  0  0  0  0
   -6.7344   -5.3309    1.9384 H   0  0  0  0  0  0  0  0  0  0  0  0
   -3.1893   -6.1908    3.7129 H   0  0  0  0  0  0  0  0  0  0  0  0
   -1.2210   -4.9920    2.8760 H   0  0  0  0  0  0  0  0  0  0  0  0
   -1.6648    0.4034   -1.5953 H   0  0  0  0  0  0  0  0  0  0  0  0
    2.1764   -8.0732   -0.6188 H   0  0  0  0  0  0  0  0  0  0  0  0
    3.7320   -8.5671   -2.5700 H   0  0  0  0  0  0  0  0  0  0  0  0
    7.4367   -7.8198   -6.2596 H   0  0  0  0  0  0  0  0  0  0  0  0
    8.7516   -6.8594   -8.0379 H   0  0  0  0  0  0  0  0  0  0  0  0
    8.1392   -5.2972   -8.6097 H   0  0  0  0  0  0  0  0  0  0  0  0
    7.8757   -6.7388   -9.5745 H   0  0  0  0  0  0  0  0  0  0  0  0
    3.3516   -5.7244   -8.1831 H   0  0  0  0  0  0  0  0  0  0  0  0
  1  2  3  0  0  0  0
  2  3  1  0  0  0  0
  3  4  2  0  0  0  0
  4  5  1  0  0  0  0
  5  6  2  0  0  0  0
  6  7  1  0  0  0  0
  6  8  1  0  0  0  0
  8  9  2  0  0  0  0
  9 10  1  0  0  0  0
 10 11  1  0  0  0  0
 11 12  1  0  0  0  0
 12 13  1  0  0  0  0
 13 14  1  0  0  0  0
 14 15  1  0  0  0  0
 15 16  2  0  0  0  0
 16 17  1  0  0  0  0
 17 18  2  0  0  0  0
 18 19  1  0  0  0  0
 19 20  1  0  0  0  0
 18 21  1  0  0  0  0
 21 22  2  0  0  0  0
 14 23  1  0  0  0  0
 23 24  2  0  0  0  0
 24 25  1  0  0  0  0
 25 26  2  0  0  0  0
 26 27  1  0  0  0  0
 27 28  1  0  0  0  0
 26 29  1  0  0  0  0
 29 30  2  0  0  0  0
 14 31  1  0  0  0  0
 31 32  2  0  0  0  0
 32 33  1  0  0  0  0
 33 34  1  0  0  0  0
 34 35  1  0  0  0  0
 35 36  1  0  0  0  0
 36 37  1  0  0  0  0
 32 38  1  0  0  0  0
 38 39  2  0  0  0  0
 39 40  1  0  0  0  0
 40 41  1  0  0  0  0
 41 42  2  0  0  0  0
 42 43  1  0  0  0  0
 43 44  2  0  0  0  0
 44 45  1  0  0  0  0
 45 46  1  0  0  0  0
 44 47  1  0  0  0  0
 47 48  2  0  0  0  0
 40 49  1  0  0  0  0
 49 50  2  0  0  0  0
 50 51  1  0  0  0  0
 51 52  2  0  0  0  0
 52 53  1  0  0  0  0
 53 54  1  0  0  0  0
 52 55  1  0  0  0  0
 55 56  2  0  0  0  0
 40 57  1  0  0  0  0
 57 58  2  0  0  0  0
 58 59  1  0  0  0  0
 59 60  2  0  0  0  0
 58 61  1  0  0  0  0
 61 62  1  0  0  0  0
 62 63  2  0  0  0  0
 63 64  1  0  0  0  0
 64 65  1  0  0  0  0
 65 66  1  0  0  0  0
 66 67  2  0  0  0  0
 67 68  1  0  0  0  0
 68 69  1  0  0  0  0
 67 70  1  0  0  0  0
 70 71  2  0  0  0  0
 71 72  1  0  0  0  0
 72 73  2  0  0  0  0
 72 74  1  0  0  0  0
 74 75  2  0  0  0  0
 75 76  1  0  0  0  0
 76 77  1  0  0  0  0
 76 78  2  0  0  0  0
 78 79  1  0  0  0  0
 78 80  1  0  0  0  0
 80 81  2  0  0  0  0
 81 82  1  0  0  0  0
 82 83  2  0  0  0  0
 83 84  1  0  0  0  0
 84 85  3  0  0  0  0
 83 86  1  0  0  0  0
 86 87  3  0  0  0  0
  7  3  1  0  0  0  0
 37  8  1  0  0  0  0
 59 39  1  0  0  0  0
 69 62  1  0  0  0  0
 82 71  1  0  0  0  0
 36 10  2  0  0  0  0
 48 41  1  0  0  0  0
 56 49  1  0  0  0  0
 63 57  1  0  0  0  0
 69 65  2  0  0  0  0
 81 74  1  0  0  0  0
 35 12  2  0  0  0  0
 33 13  2  0  0  0  0
 22 15  1  0  0  0  0
 30 23  1  0  0  0  0
 60 31  1  0  0  0  0
  4 88  1  0  0  0  0
  5 89  1  0  0  0  0
  9 90  1  0  0  0  0
 16 91  1  0  0  0  0
 17 92  1  0  0  0  0
 19 93  1  0  0  0  0
 19 94  1  0  0  0  0
 20 95  1  0  0  0  0
 20 96  1  0  0  0  0
 20 97  1  0  0  0  0
 21 98  1  0  0  0  0
 22 99  1  0  0  0  0
 24100  1  0  0  0  0
 25101  1  0  0  0  0
 27102  1  0  0  0  0
 27103  1  0  0  0  0
 28104  1  0  0  0  0
 28105  1  0  0  0  0
 28106  1  0  0  0  0
 29107  1  0  0  0  0
 30108  1  0  0  0  0
 38109  1  0  0  0  0
 42110  1  0  0  0  0
 43111  1  0  0  0  0
 45112  1  0  0  0  0
 45113  1  0  0  0  0
 46114  1  0  0  0  0
 46115  1  0  0  0  0
 46116  1  0  0  0  0
 47117  1  0  0  0  0
 48118  1  0  0  0  0
 50119  1  0  0  0  0
 51120  1  0  0  0  0
 53121  1  0  0  0  0
 53122  1  0  0  0  0
 54123  1  0  0  0  0
 54124  1  0  0  0  0
 54125  1  0  0  0  0
 55126  1  0  0  0  0
 56127  1  0  0  0  0
 60128  1  0  0  0  0
 66129  1  0  0  0  0
 70130  1  0  0  0  0
 75131  1  0  0  0  0
 77132  1  0  0  0  0
 77133  1  0  0  0  0
 77134  1  0  0  0  0
 80135  1  0  0  0  0
M  END
