149

N         -5.18810      -11.42340        8.85600
C         -4.48930      -10.99510        8.05120
C         -3.63680      -10.48770        7.07250
C         -2.67320      -11.17390        6.36900
C         -1.99010      -10.36960        5.45640
C         -2.42310       -9.05820        5.45080
S         -3.70280       -8.81570        6.60000
C         -1.94680       -7.98520        4.64650
C         -0.95330       -8.03080        3.68430
C         -0.74520       -6.79410        3.08210
C          0.16060       -6.22620        2.00360
C         -0.11960       -6.88500        0.66100
C          0.88690       -7.33370       -0.18010
C          0.57630       -7.90880       -1.39900
C         -0.74080       -8.05020       -1.81230
C         -1.06610       -8.63800       -3.15520
C         -1.05830       -7.54990       -4.23070
C         -1.74530       -7.58780       -0.97210
C         -1.44010       -7.01280        0.24620
C          1.59870       -6.36280        2.46260
C          2.36700       -5.26600        2.82330
C          3.67310       -5.43110        3.25000
C          4.24500       -6.69190        3.33930
C          5.64880       -6.86830        3.84180
C          5.65620       -7.01690        5.36460
C          3.46580       -7.79050        2.99850
C          2.16340       -7.62970        2.56810
C         -0.32620       -4.79270        1.96630
C         -1.32680       -4.59090        2.89920
C         -1.58390       -5.80470        3.58400
S         -2.63440       -6.38160        4.80820
S         -1.93610       -2.97960        2.93000
C         -0.82110       -2.54290        1.65590
C         -0.69730       -1.25070        1.11960
C          0.26990       -1.08650        0.09700
C          1.05960       -2.17200       -0.34430
C          0.93010       -3.42380        0.19670
O          1.62350       -4.52900       -0.15690
C          2.70550       -4.42100       -1.06010
C          3.95420       -3.85220       -0.39440
C         -0.03090       -3.62330        1.23260
C          0.39510        0.20520       -0.43920
C         -0.36400        1.29680        0.01870
C         -1.32660        1.09610        1.05420
C         -1.47980       -0.16390        1.56910
O         -2.00140        2.20470        1.42990
C         -3.08660        2.09760        2.33000
C         -4.34570        1.56670        1.65320
C         -0.04890        2.47110       -0.69340
C          0.91560        2.25950       -1.66890
S          1.48100        0.63130       -1.73970
C          1.18460        3.46560       -2.35090
S          2.15990        4.00310       -3.64430
C          1.52400        5.63450       -3.43600
C          0.59210        5.69410       -2.38140
C          0.39680        4.48080       -1.77490
C         -0.44580        3.92990       -0.64050
C         -1.90390        4.19850       -0.93990
C         -2.75390        3.19680       -1.38400
C         -4.07810        3.47610       -1.67220
C         -4.58460        4.76130       -1.53840
C         -6.03600        5.04790       -1.79470
C         -6.85650        4.83140       -0.52120
C         -3.72270        5.76700       -1.11920
C         -2.39990        5.49300       -0.83070
C          0.03000        4.47670        0.70080
C          1.39630        4.53620        0.95120
C          1.87200        4.97900        2.16980
C          0.99810        5.36530        3.17780
C          1.51630        5.88230        4.48860
C          1.72850        7.39600        4.42050
C         -0.36460        5.30060        2.92400
C         -0.84610        4.86000        1.70440
C          1.85520        6.76210       -4.18440
C          2.70590        6.91010       -5.26030
C          3.47540        5.83860       -5.88890
O          3.53730        4.66650       -5.56280
C          4.18350        6.46060       -7.02990
C          5.02390        5.86680       -7.94740
C          5.56580        6.67680       -8.94090
C          6.46210        6.07600       -9.98780
F          7.42630        6.91890      -10.38940
F          7.07740        4.96120       -9.57150
F          5.77730        5.73650      -11.09820
C          5.26180        8.03200       -9.00750
C          4.41600        8.62090       -8.07750
C          3.87190        7.82940       -7.07830
C          2.96140        8.14160       -5.97110
C          2.47590        9.39390       -5.68750
C          2.78290       10.55070       -6.43350
N          2.99000       11.53060       -6.99510
C          1.61640        9.72360       -4.61920
N          0.92140       10.07920       -3.77610
H         -2.47950      -12.22120        6.51900
H         -1.20410      -10.73170        4.81970
H         -0.42440       -8.93300        3.44180
H          1.92020       -7.23370        0.11220
H          1.37450       -8.25720       -2.03980
H         -2.05120       -9.10780       -3.12550
H         -0.33030       -9.40270       -3.41270
H         -1.79350       -6.78290       -3.99750
H         -1.29440       -7.97410       -5.20380
H         -0.07940       -7.07860       -4.28480
H         -2.77900       -7.68120       -1.27360
H         -2.23900       -6.65960        0.88310
H          1.95480       -4.27040        2.77060
H          4.25720       -4.56110        3.51680
H          6.09490       -7.75750        3.39150
H          6.25400       -6.00320        3.56250
H          5.22670       -6.13390        5.83270
H          6.67250       -7.14470        5.72970
H          5.06800       -7.88170        5.66330
H          3.88640       -8.78390        3.06680
H          1.58230       -8.49800        2.29500
H          1.77320       -1.96750       -1.12680
H          2.88860       -5.44890       -1.38350
H          2.42170       -3.82970       -1.93850
H          4.22110       -4.46550        0.46330
H          4.77880       -3.84900       -1.10140
H          3.78020       -2.83520       -0.05130
H         -2.19930       -0.37090        2.34550
H         -2.81410        1.48420        3.19670
H         -3.25370        3.12160        2.67410
H         -4.59830        2.20380        0.80880
H         -5.17030        1.56650        2.36030
H         -4.19250        0.55350        1.28950
H          0.10590        6.61500       -2.11430
H         -2.38800        2.18850       -1.50550
H         -4.72670        2.68070       -2.01270
H         -6.15580        6.08050       -2.12790
H         -6.41130        4.38920       -2.58050
H         -6.77210        3.79990       -0.18530
H         -6.49860        5.48110        0.27460
H         -7.90590        5.05110       -0.70300
H         -4.09120        6.77820       -1.02060
H         -1.74770        6.29030       -0.50590
H          2.09810        4.23190        0.18760
H          2.93810        5.01840        2.34290
H          0.80440        5.65410        5.28450
H          2.46450        5.39690        4.72860
H          2.44360        7.64290        3.63900
H          2.10680        7.77030        5.36880
H          0.79080        7.89970        4.19680
H         -1.06330        5.59480        3.69470
H         -1.91000        4.81340        1.53740
H          1.33780        7.65480       -3.85460
H          5.25060        4.81350       -7.88690
H          5.69460        8.63450       -9.79150
H          4.19840        9.67320       -8.15160
