
  xtb     02112200313D
 energy: -172.053460763696 gnorm: 0.000264988785 xtb: 6.4.1 (unknown)
101114  0     0  0            999 V2000
    8.1521    4.1993   11.4356 N   0  0  0  0  0  0  0  0  0  0  0  0
    7.4494    3.8939   10.5797 C   0  0  0  0  0  0  0  0  0  0  0  0
    6.6048    3.5214    9.5360 C   0  0  0  0  0  0  0  0  0  0  0  0
    6.9637    3.1262    8.2683 C   0  0  0  0  0  0  0  0  0  0  0  0
    5.8644    2.8276    7.4643 C   0  0  0  0  0  0  0  0  0  0  0  0
    4.6488    2.9936    8.0987 C   0  0  0  0  0  0  0  0  0  0  0  0
    4.8774    3.5246    9.7376 S   0  0  0  0  0  0  0  0  0  0  0  0
    3.3670    2.7597    7.5230 C   0  0  0  0  0  0  0  0  0  0  0  0
    2.0960    2.9738    8.0173 C   0  0  0  0  0  0  0  0  0  0  0  0
    1.7328    3.5072    9.3645 C   0  0  0  0  0  0  0  0  0  0  0  0
    1.6538    2.3811   10.3969 C   0  0  0  0  0  0  0  0  0  0  0  0
    1.1152    2.5896    7.0840 C   0  0  0  0  0  0  0  0  0  0  0  0
   -0.6318    2.6184    7.1444 S   0  0  0  0  0  0  0  0  0  0  0  0
   -0.6719    1.9657    5.5442 C   0  0  0  0  0  0  0  0  0  0  0  0
   -1.6143    1.5455    4.5913 C   0  0  0  0  0  0  0  0  0  0  0  0
   -3.0266    1.4707    4.6982 C   0  0  0  0  0  0  0  0  0  0  0  0
   -3.7462    0.9003    3.6192 C   0  0  0  0  0  0  0  0  0  0  0  0
   -5.0746    0.7496    3.6768 N   0  0  0  0  0  0  0  0  0  0  0  0
   -5.6700    1.1646    4.7735 C   0  0  0  0  0  0  0  0  0  0  0  0
   -4.9610    1.7436    5.8328 C   0  0  0  0  0  0  0  0  0  0  0  0
   -3.6549    1.8947    5.8010 N   0  0  0  0  0  0  0  0  0  0  0  0
   -3.0218    0.5309    2.4572 C   0  0  0  0  0  0  0  0  0  0  0  0
   -3.4997    0.0469    1.2289 C   0  0  0  0  0  0  0  0  0  0  0  0
   -4.9933   -0.4236    0.5010 S   0  0  0  0  0  0  0  0  0  0  0  0
   -4.1374   -0.7431   -0.9908 C   0  0  0  0  0  0  0  0  0  0  0  0
   -4.5607   -1.1835   -2.2490 C   0  0  0  0  0  0  0  0  0  0  0  0
   -5.9634   -1.5811   -2.5618 C   0  0  0  0  0  0  0  0  0  0  0  0
   -6.1145   -3.1028   -2.4954 C   0  0  0  0  0  0  0  0  0  0  0  0
   -3.4955   -1.3003   -3.1332 C   0  0  0  0  0  0  0  0  0  0  0  0
   -1.9682   -0.8101   -2.3976 S   0  0  0  0  0  0  0  0  0  0  0  0
   -2.7624   -0.4888   -0.9021 C   0  0  0  0  0  0  0  0  0  0  0  0
   -2.3990   -0.0458    0.3712 C   0  0  0  0  0  0  0  0  0  0  0  0
   -1.2572    0.3269    1.0296 N   0  0  0  0  0  0  0  0  0  0  0  0
   -1.6123    0.6803    2.3196 C   0  0  0  0  0  0  0  0  0  0  0  0
   -0.8798    1.1067    3.4542 C   0  0  0  0  0  0  0  0  0  0  0  0
    0.4722    1.2326    3.7296 N   0  0  0  0  0  0  0  0  0  0  0  0
    0.5919    1.7418    4.9948 C   0  0  0  0  0  0  0  0  0  0  0  0
    1.6179    2.0939    5.8808 C   0  0  0  0  0  0  0  0  0  0  0  0
    3.3439    2.0915    5.8888 S   0  0  0  0  0  0  0  0  0  0  0  0
    1.6160    0.6126    3.0995 C   0  0  0  0  0  0  0  0  0  0  0  0
    1.4978   -0.9096    3.1003 C   0  0  0  0  0  0  0  0  0  0  0  0
   -0.0597    0.6169    0.2747 C   0  0  0  0  0  0  0  0  0  0  0  0
    0.1971    2.1198    0.1927 C   0  0  0  0  0  0  0  0  0  0  0  0
   -3.5670   -1.6553   -4.4972 C   0  0  0  0  0  0  0  0  0  0  0  0
   -2.5635   -2.0567   -5.3254 C   0  0  0  0  0  0  0  0  0  0  0  0
   -2.6940   -1.8991   -6.7966 C   0  0  0  0  0  0  0  0  0  0  0  0
   -3.7110   -1.6791   -7.4162 O   0  0  0  0  0  0  0  0  0  0  0  0
   -1.3160   -2.0031   -7.3196 C   0  0  0  0  0  0  0  0  0  0  0  0
   -0.8913   -1.7954   -8.6298 C   0  0  0  0  0  0  0  0  0  0  0  0
    0.4638   -1.9393   -8.8096 C   0  0  0  0  0  0  0  0  0  0  0  0
    1.3411   -2.2537   -7.7627 C   0  0  0  0  0  0  0  0  0  0  0  0
    0.9374   -2.4681   -6.4665 C   0  0  0  0  0  0  0  0  0  0  0  0
   -0.4385   -2.3392   -6.2666 C   0  0  0  0  0  0  0  0  0  0  0  0
   -1.2281   -2.5387   -5.0555 C   0  0  0  0  0  0  0  0  0  0  0  0
   -0.8587   -3.2982   -3.9748 C   0  0  0  0  0  0  0  0  0  0  0  0
    0.4355   -3.8110   -3.7698 C   0  0  0  0  0  0  0  0  0  0  0  0
    1.4803   -4.2278   -3.5374 N   0  0  0  0  0  0  0  0  0  0  0  0
   -1.7819   -3.7183   -2.9947 C   0  0  0  0  0  0  0  0  0  0  0  0
   -2.5260   -4.1166   -2.2161 N   0  0  0  0  0  0  0  0  0  0  0  0
    2.5509   -2.2313   -8.6629 C   0  0  0  0  0  0  0  0  0  0  0  0
    3.1492   -3.5920   -9.0965 C   0  0  0  0  0  0  0  0  0  0  0  0
    2.0190   -4.5903   -9.0470 C   0  0  0  0  0  0  0  0  0  0  0  0
    1.1845   -4.3055  -10.0377 C   0  0  0  0  0  0  0  0  0  0  0  0
    1.7354   -3.1102  -10.7754 C   0  0  0  0  0  0  0  0  0  0  0  0
    3.2428   -3.3636  -10.6136 C   0  0  0  0  0  0  0  0  0  0  0  0
    1.5721   -1.8928   -9.8313 C   0  0  0  0  0  0  0  0  0  0  0  0
    7.9875    3.0597    7.9461 H   0  0  0  0  0  0  0  0  0  0  0  0
    5.9438    2.5012    6.4423 H   0  0  0  0  0  0  0  0  0  0  0  0
    0.7555    3.9883    9.2859 H   0  0  0  0  0  0  0  0  0  0  0  0
    2.4588    4.2554    9.6876 H   0  0  0  0  0  0  0  0  0  0  0  0
    0.9051    1.6514   10.0979 H   0  0  0  0  0  0  0  0  0  0  0  0
    1.3784    2.7848   11.3672 H   0  0  0  0  0  0  0  0  0  0  0  0
    2.6123    1.8763   10.4920 H   0  0  0  0  0  0  0  0  0  0  0  0
   -6.7431    1.0377    4.8132 H   0  0  0  0  0  0  0  0  0  0  0  0
   -5.4615    2.0905    6.7264 H   0  0  0  0  0  0  0  0  0  0  0  0
   -6.2392   -1.2315   -3.5591 H   0  0  0  0  0  0  0  0  0  0  0  0
   -6.6287   -1.1156   -1.8322 H   0  0  0  0  0  0  0  0  0  0  0  0
   -5.4530   -3.5826   -3.2127 H   0  0  0  0  0  0  0  0  0  0  0  0
   -5.8578   -3.4636   -1.5029 H   0  0  0  0  0  0  0  0  0  0  0  0
   -7.1401   -3.3861   -2.7170 H   0  0  0  0  0  0  0  0  0  0  0  0
    1.7602    1.0049    2.0927 H   0  0  0  0  0  0  0  0  0  0  0  0
    2.4900    0.9064    3.6863 H   0  0  0  0  0  0  0  0  0  0  0  0
    2.3581   -1.3500    2.6037 H   0  0  0  0  0  0  0  0  0  0  0  0
    0.5929   -1.2350    2.5922 H   0  0  0  0  0  0  0  0  0  0  0  0
    1.4622   -1.2781    4.1229 H   0  0  0  0  0  0  0  0  0  0  0  0
    0.7953    0.0830    0.6897 H   0  0  0  0  0  0  0  0  0  0  0  0
   -0.2237    0.2240   -0.7318 H   0  0  0  0  0  0  0  0  0  0  0  0
    0.2918    2.5573    1.1840 H   0  0  0  0  0  0  0  0  0  0  0  0
    1.1088    2.3113   -0.3667 H   0  0  0  0  0  0  0  0  0  0  0  0
   -0.6302    2.6098   -0.3155 H   0  0  0  0  0  0  0  0  0  0  0  0
   -4.5291   -1.5007   -4.9764 H   0  0  0  0  0  0  0  0  0  0  0  0
   -1.5953   -1.5475   -9.4087 H   0  0  0  0  0  0  0  0  0  0  0  0
    1.6170   -2.7048   -5.6639 H   0  0  0  0  0  0  0  0  0  0  0  0
    3.3172   -1.5000   -8.4132 H   0  0  0  0  0  0  0  0  0  0  0  0
    4.0601   -3.8718   -8.5743 H   0  0  0  0  0  0  0  0  0  0  0  0
    1.9164   -5.3404   -8.2849 H   0  0  0  0  0  0  0  0  0  0  0  0
    0.2443   -4.7709  -10.2692 H   0  0  0  0  0  0  0  0  0  0  0  0
    1.3594   -2.9529  -11.7829 H   0  0  0  0  0  0  0  0  0  0  0  0
    3.5815   -4.2472  -11.1523 H   0  0  0  0  0  0  0  0  0  0  0  0
    3.8586   -2.5076  -10.8866 H   0  0  0  0  0  0  0  0  0  0  0  0
    1.7049   -0.9456  -10.3509 H   0  0  0  0  0  0  0  0  0  0  0  0
  1  2  3  0  0  0  0
  2  3  1  0  0  0  0
  3  4  2  0  0  0  0
  4  5  1  0  0  0  0
  5  6  2  0  0  0  0
  6  7  1  0  0  0  0
  6  8  1  0  0  0  0
  8  9  2  0  0  0  0
  9 10  1  0  0  0  0
 10 11  1  0  0  0  0
  9 12  1  0  0  0  0
 12 13  1  0  0  0  0
 13 14  1  0  0  0  0
 14 15  1  0  0  0  0
 15 16  2  0  0  0  0
 16 17  1  0  0  0  0
 17 18  1  0  0  0  0
 18 19  2  0  0  0  0
 19 20  1  0  0  0  0
 20 21  2  0  0  0  0
 17 22  2  0  0  0  0
 22 23  1  0  0  0  0
 23 24  1  0  0  0  0
 24 25  1  0  0  0  0
 25 26  1  0  0  0  0
 26 27  1  0  0  0  0
 27 28  1  0  0  0  0
 26 29  2  0  0  0  0
 29 30  1  0  0  0  0
 30 31  1  0  0  0  0
 31 32  1  0  0  0  0
 32 33  1  0  0  0  0
 33 34  1  0  0  0  0
 34 35  2  0  0  0  0
 35 36  1  0  0  0  0
 36 37  1  0  0  0  0
 37 38  1  0  0  0  0
 38 39  1  0  0  0  0
 36 40  1  0  0  0  0
 40 41  1  0  0  0  0
 33 42  1  0  0  0  0
 42 43  1  0  0  0  0
 29 44  1  0  0  0  0
 44 45  2  0  0  0  0
 45 46  1  0  0  0  0
 46 47  2  0  0  0  0
 46 48  1  0  0  0  0
 48 49  2  0  0  0  0
 49 50  1  0  0  0  0
 50 51  2  0  0  0  0
 51 52  1  0  0  0  0
 52 53  2  0  0  0  0
 53 54  1  0  0  0  0
 54 55  2  0  0  0  0
 55 56  1  0  0  0  0
 56 57  3  0  0  0  0
 55 58  1  0  0  0  0
 58 59  3  0  0  0  0
 51 60  1  0  0  0  0
 60 61  1  0  0  0  0
 61 62  1  0  0  0  0
 62 63  2  0  0  0  0
 63 64  1  0  0  0  0
 64 65  1  0  0  0  0
 64 66  1  0  0  0  0
  7  3  1  0  0  0  0
 39  8  1  0  0  0  0
 54 45  1  0  0  0  0
 66 60  1  0  0  0  0
 38 12  2  0  0  0  0
 53 48  1  0  0  0  0
 65 61  1  0  0  0  0
 37 14  2  0  0  0  0
 66 50  1  0  0  0  0
 35 15  1  0  0  0  0
 21 16  1  0  0  0  0
 34 22  1  0  0  0  0
 32 23  2  0  0  0  0
 31 25  2  0  0  0  0
  4 67  1  0  0  0  0
  5 68  1  0  0  0  0
 10 69  1  0  0  0  0
 10 70  1  0  0  0  0
 11 71  1  0  0  0  0
 11 72  1  0  0  0  0
 11 73  1  0  0  0  0
 19 74  1  0  0  0  0
 20 75  1  0  0  0  0
 27 76  1  0  0  0  0
 27 77  1  0  0  0  0
 28 78  1  0  0  0  0
 28 79  1  0  0  0  0
 28 80  1  0  0  0  0
 40 81  1  0  0  0  0
 40 82  1  0  0  0  0
 41 83  1  0  0  0  0
 41 84  1  0  0  0  0
 41 85  1  0  0  0  0
 42 86  1  0  0  0  0
 42 87  1  0  0  0  0
 43 88  1  0  0  0  0
 43 89  1  0  0  0  0
 43 90  1  0  0  0  0
 44 91  1  0  0  0  0
 49 92  1  0  0  0  0
 52 93  1  0  0  0  0
 60 94  1  0  0  0  0
 61 95  1  0  0  0  0
 62 96  1  0  0  0  0
 63 97  1  0  0  0  0
 64 98  1  0  0  0  0
 65 99  1  0  0  0  0
 65100  1  0  0  0  0
 66101  1  0  0  0  0
M  END
