132

N         -0.65680        7.98950       10.21820
C         -0.60270        6.91730        9.80940
C         -0.53760        5.61240        9.32470
C         -0.57020        4.44800       10.05760
C         -0.48450        3.30360        9.26400
C         -0.38530        3.57940        7.91490
S         -0.39850        5.29130        7.62180
C         -0.28190        2.65040        6.84130
C         -0.24830        1.27080        6.92080
C         -0.15100        0.67710        5.66490
C         -0.03510       -0.72590        5.12780
C          1.23680       -1.32590        5.70130
C          2.43290       -1.31700        4.99870
C          3.58280       -1.83300        5.56880
C          3.57110       -2.36180        6.85190
C          4.83120       -2.88450        7.47910
C          5.58280       -1.75730        8.19030
C          2.37460       -2.35160        7.55770
C          1.22300       -1.83910        6.99290
C         -1.24480       -1.59730        5.40310
C         -1.13690       -2.98060        5.32940
C         -2.24080       -3.78280        5.54580
C         -3.48010       -3.22840        5.83880
C         -4.68480       -4.10220        6.03810
C         -5.38560       -4.35870        4.70240
C         -3.58580       -1.84550        5.89590
C         -2.48470       -1.03800        5.67770
C          0.04350       -0.45410        3.63520
C          0.01230        0.91630        3.36690
C         -0.09910        1.59040        4.62480
S         -0.18120        3.21150        5.18550
C          0.10020        1.40800        2.04570
C          0.09360        2.78340        1.74230
C          0.21900        3.23460        0.45040
C          0.35520        2.30800       -0.57840
C          0.52220        2.58390       -2.06220
C          1.84980        3.23400       -2.41210
C          2.90530        3.27380       -1.51300
C          4.11800        3.82790       -1.88250
C          4.31010        4.34640       -3.15530
C          5.64320        4.90140       -3.56630
C          6.52620        3.79290       -4.14320
C          3.25370        4.29090       -4.05610
C          2.04020        3.74060       -3.69230
C         -0.65640        3.40950       -2.53980
C         -1.81400        2.80260       -3.00610
C         -2.89550        3.56740       -3.40300
C         -2.85510        4.95310       -3.33210
C         -4.01010        5.78320       -3.81230
C         -3.83890        6.12690       -5.29360
C         -1.69940        5.55500       -2.85140
C         -0.61440        4.79580       -2.45710
C          0.55510        1.17860       -2.60560
C          0.69270        0.58090       -3.83580
C          0.70990       -0.82180       -3.75630
S          0.55760       -1.37000       -2.09160
C          0.46930        0.25110       -1.56060
C          0.33570        0.93550       -0.31400
C          0.21230        0.44040        1.00550
C          0.21080       -0.93430        1.30470
C          0.12730       -1.38140        2.60210
C          0.83140       -1.62510       -4.89270
C          0.89590       -2.99340       -5.02240
C          0.87840       -3.96130       -3.92190
O          0.75890       -3.73540       -2.73120
C          1.04070       -5.29120       -4.54560
C          1.11140       -6.52720       -3.94240
C          1.27770       -7.65040       -4.75520
C          1.35960       -8.98140       -4.09950
O          1.29730       -9.15290       -2.90760
O          1.51330       -9.98000       -4.97970
C          1.60120      -11.28400       -4.42500
C          1.36620       -7.50780       -6.13890
C          1.29290       -6.26090       -6.74220
C          1.12940       -5.14050       -5.94140
C          1.02620       -3.71680       -6.26870
C          1.03860       -3.20160       -7.54070
C          0.92310       -1.83840       -7.88300
N          0.83270       -0.75380       -8.25200
C          1.16080       -3.97880       -8.71140
N          1.25590       -4.54240       -9.70730
H         -0.65360        4.43830       11.12990
H         -0.49470        2.30500        9.66020
H         -0.29540        0.73380        7.84980
H          2.47020       -0.91070        3.99870
H          4.50370       -1.82660        5.00330
H          5.47510       -3.31610        6.71020
H          4.58890       -3.66690        8.20110
H          5.84200       -0.97130        7.48440
H          4.96320       -1.32340        8.97200
H          6.49740       -2.13510        8.64130
H          2.34360       -2.75340        8.56060
H          0.29900       -1.84950        7.55310
H         -0.17940       -3.43390        5.11700
H         -2.13690       -4.85720        5.49090
H         -5.38360       -3.61920        6.72410
H         -4.38180       -5.05630        6.47410
H         -6.25750       -4.99260        4.84580
H         -4.70800       -4.85060        4.00820
H         -5.70720       -3.41960        4.25760
H         -4.54180       -1.39240        6.11750
H         -2.59300        0.03590        5.72670
H         -0.00490        3.49100        2.55230
H          0.21910        4.29180        0.23400
H          2.78420        2.87360       -0.51700
H          4.92750        3.85720       -1.16700
H          6.14200        5.34570       -2.70260
H          5.50490        5.67960       -4.31950
H          6.05170        3.34590       -5.01390
H          6.68510        3.01220       -3.40260
H          7.49310        4.19210       -4.44070
H          3.38270        4.68420       -5.05430
H          1.22780        3.71240       -4.40380
H         -1.87240        1.72540       -3.06410
H         -3.78600        3.07790       -3.77100
H         -4.94370        5.23390       -3.67580
H         -4.06860        6.70700       -3.23320
H         -4.67510        6.72690       -5.64460
H         -2.91960        6.68760       -5.44790
H         -3.78870        5.21810       -5.88910
H         -1.64810        6.63250       -2.78360
H          0.27840        5.28530       -2.09530
H          0.77670        1.09700       -4.77560
H          0.28580       -1.64240        0.49340
H          0.13470       -2.43810        2.82000
H          0.89190       -1.05020       -5.80900
H          1.04330       -6.63630       -2.87080
H          1.75890      -11.96020       -5.26120
H          0.67850      -11.53420       -3.89730
H          2.43360      -11.34100       -3.72070
H          1.49530       -8.38820       -6.74840
H          1.36640       -6.18310       -7.81440
