
  xtb     02012217553D
 energy: -200.027394210576 gnorm: 0.000350984512 xtb: 6.4.1 (unknown)
113126  0     0  0            999 V2000
    1.1995   -7.1507   -3.8202 C   0  0  0  0  0  0  0  0  0  0  0  0
    0.2436   -7.9684   -3.2898 C   0  0  0  0  0  0  0  0  0  0  0  0
   -0.8211   -7.6496   -2.3443 C   0  0  0  0  0  0  0  0  0  0  0  0
   -1.0787   -6.5664   -1.8464 O   0  0  0  0  0  0  0  0  0  0  0  0
   -1.5430   -8.9204   -2.0976 C   0  0  0  0  0  0  0  0  0  0  0  0
   -2.6255   -9.1680   -1.2753 C   0  0  0  0  0  0  0  0  0  0  0  0
   -3.1191  -10.4654   -1.2161 C   0  0  0  0  0  0  0  0  0  0  0  0
   -2.5421  -11.4838   -1.9613 C   0  0  0  0  0  0  0  0  0  0  0  0
   -1.4535  -11.2369   -2.7894 C   0  0  0  0  0  0  0  0  0  0  0  0
   -0.9601   -9.9482   -2.8504 C   0  0  0  0  0  0  0  0  0  0  0  0
    0.1773   -9.4025   -3.6338 C   0  0  0  0  0  0  0  0  0  0  0  0
    0.9010  -10.0035   -4.3978 O   0  0  0  0  0  0  0  0  0  0  0  0
    1.4368   -5.7842   -3.6043 C   0  0  0  0  0  0  0  0  0  0  0  0
    2.4893   -5.0833   -4.2058 C   0  0  0  0  0  0  0  0  0  0  0  0
    3.4466   -5.6599   -5.1613 C   0  0  0  0  0  0  0  0  0  0  0  0
    4.7691   -5.8001   -4.7523 C   0  0  0  0  0  0  0  0  0  0  0  0
    5.7176   -6.3283   -5.6065 C   0  0  0  0  0  0  0  0  0  0  0  0
    5.3486   -6.7131   -6.8837 C   0  0  0  0  0  0  0  0  0  0  0  0
    4.0389   -6.5560   -7.2993 C   0  0  0  0  0  0  0  0  0  0  0  0
    3.0695   -6.0314   -6.4547 C   0  0  0  0  0  0  0  0  0  0  0  0
    1.6803   -5.7852   -6.9727 C   0  0  0  0  0  0  0  0  0  0  0  0
    1.5325   -4.3262   -7.4102 C   0  0  0  0  0  0  0  0  0  0  0  0
    2.5600   -3.7710   -3.7459 C   0  0  0  0  0  0  0  0  0  0  0  0
    3.6687   -2.4558   -4.0831 S   0  0  0  0  0  0  0  0  0  0  0  0
    2.7884   -1.4754   -2.9600 C   0  0  0  0  0  0  0  0  0  0  0  0
    2.8687   -0.2066   -2.3693 C   0  0  0  0  0  0  0  0  0  0  0  0
    3.8643    0.7916   -2.4593 C   0  0  0  0  0  0  0  0  0  0  0  0
    3.7884    1.9255   -1.5852 C   0  0  0  0  0  0  0  0  0  0  0  0
    4.8197    2.7431   -1.7251 N   0  0  0  0  0  0  0  0  0  0  0  0
    5.8007    2.1396   -2.8635 S   0  0  0  0  0  0  0  0  0  0  0  0
    4.9472    0.8115   -3.2201 N   0  0  0  0  0  0  0  0  0  0  0  0
    2.6501    2.0751   -0.7625 C   0  0  0  0  0  0  0  0  0  0  0  0
    2.2547    3.1257    0.0759 C   0  0  0  0  0  0  0  0  0  0  0  0
    2.8786    4.6139    0.6953 S   0  0  0  0  0  0  0  0  0  0  0  0
    1.3615    4.8753    1.5283 C   0  0  0  0  0  0  0  0  0  0  0  0
    0.9097    5.8733    2.3967 C   0  0  0  0  0  0  0  0  0  0  0  0
    1.6990    6.9920    2.9230 C   0  0  0  0  0  0  0  0  0  0  0  0
    2.1945    8.0136    2.1081 C   0  0  0  0  0  0  0  0  0  0  0  0
    1.8593    8.0855    0.6456 C   0  0  0  0  0  0  0  0  0  0  0  0
    0.4157    8.5505    0.4421 C   0  0  0  0  0  0  0  0  0  0  0  0
    2.9379    9.0253    2.7009 C   0  0  0  0  0  0  0  0  0  0  0  0
    3.1936    9.0320    4.0604 C   0  0  0  0  0  0  0  0  0  0  0  0
    2.6920    8.0212    4.8622 C   0  0  0  0  0  0  0  0  0  0  0  0
    1.9424    7.0092    4.2951 C   0  0  0  0  0  0  0  0  0  0  0  0
   -0.3824    5.6111    2.8546 C   0  0  0  0  0  0  0  0  0  0  0  0
   -1.0457    4.1384    2.1527 S   0  0  0  0  0  0  0  0  0  0  0  0
    0.4316    3.8456    1.3142 C   0  0  0  0  0  0  0  0  0  0  0  0
    0.9535    2.8351    0.5063 C   0  0  0  0  0  0  0  0  0  0  0  0
    0.5512    1.6317   -0.0063 N   0  0  0  0  0  0  0  0  0  0  0  0
    1.5869    1.1237   -0.7657 C   0  0  0  0  0  0  0  0  0  0  0  0
    1.7649   -0.0949   -1.4731 C   0  0  0  0  0  0  0  0  0  0  0  0
    1.0556   -1.2848   -1.5036 N   0  0  0  0  0  0  0  0  0  0  0  0
    1.6874   -2.1202   -2.3870 C   0  0  0  0  0  0  0  0  0  0  0  0
    1.5538   -3.4435   -2.8230 C   0  0  0  0  0  0  0  0  0  0  0  0
    0.5091   -4.7768   -2.4971 S   0  0  0  0  0  0  0  0  0  0  0  0
    0.2081   -1.8884   -0.4968 C   0  0  0  0  0  0  0  0  0  0  0  0
    1.0286   -2.3138    0.7189 C   0  0  0  0  0  0  0  0  0  0  0  0
   -0.8365    1.2426    0.0958 C   0  0  0  0  0  0  0  0  0  0  0  0
   -1.1707    0.6609    1.4691 C   0  0  0  0  0  0  0  0  0  0  0  0
   -1.1415    6.4706    3.6693 C   0  0  0  0  0  0  0  0  0  0  0  0
   -2.3124    6.2196    4.3277 C   0  0  0  0  0  0  0  0  0  0  0  0
   -3.2168    7.3365    4.6878 C   0  0  0  0  0  0  0  0  0  0  0  0
   -2.9618    8.5189    4.6818 O   0  0  0  0  0  0  0  0  0  0  0  0
   -4.5163    6.6893    4.9947 C   0  0  0  0  0  0  0  0  0  0  0  0
   -5.7274    7.2817    5.2845 C   0  0  0  0  0  0  0  0  0  0  0  0
   -6.8137    6.4449    5.5163 C   0  0  0  0  0  0  0  0  0  0  0  0
   -8.3501    7.1346    5.8826 Cl  0  0  0  0  0  0  0  0  0  0  0  0
   -6.6864    5.0616    5.4583 C   0  0  0  0  0  0  0  0  0  0  0  0
   -5.4628    4.4729    5.1770 C   0  0  0  0  0  0  0  0  0  0  0  0
   -4.3686    5.2907    4.9433 C   0  0  0  0  0  0  0  0  0  0  0  0
   -2.9671    4.9814    4.6767 C   0  0  0  0  0  0  0  0  0  0  0  0
   -2.3384    3.7995    4.9809 C   0  0  0  0  0  0  0  0  0  0  0  0
   -0.9346    3.6889    5.0519 C   0  0  0  0  0  0  0  0  0  0  0  0
    0.2030    3.5927    5.1766 N   0  0  0  0  0  0  0  0  0  0  0  0
   -3.0094    2.6134    5.3293 C   0  0  0  0  0  0  0  0  0  0  0  0
   -3.5080    1.6083    5.5751 N   0  0  0  0  0  0  0  0  0  0  0  0
    1.8940   -7.6327   -4.5039 H   0  0  0  0  0  0  0  0  0  0  0  0
   -3.0676   -8.3699   -0.6986 H   0  0  0  0  0  0  0  0  0  0  0  0
   -3.9641  -10.6854   -0.5805 H   0  0  0  0  0  0  0  0  0  0  0  0
   -2.9456  -12.4835   -1.8957 H   0  0  0  0  0  0  0  0  0  0  0  0
   -0.9988  -12.0236   -3.3716 H   0  0  0  0  0  0  0  0  0  0  0  0
    5.0446   -5.4989   -3.7521 H   0  0  0  0  0  0  0  0  0  0  0  0
    6.7394   -6.4377   -5.2761 H   0  0  0  0  0  0  0  0  0  0  0  0
    6.0819   -7.1286   -7.5586 H   0  0  0  0  0  0  0  0  0  0  0  0
    3.7581   -6.8446   -8.3020 H   0  0  0  0  0  0  0  0  0  0  0  0
    0.9340   -6.0070   -6.2089 H   0  0  0  0  0  0  0  0  0  0  0  0
    1.4916   -6.4384   -7.8265 H   0  0  0  0  0  0  0  0  0  0  0  0
    1.6879   -3.6576   -6.5664 H   0  0  0  0  0  0  0  0  0  0  0  0
    2.2661   -4.0844   -8.1759 H   0  0  0  0  0  0  0  0  0  0  0  0
    0.5376   -4.1507   -7.8128 H   0  0  0  0  0  0  0  0  0  0  0  0
    1.9944    7.1120    0.1733 H   0  0  0  0  0  0  0  0  0  0  0  0
    2.5341    8.7904    0.1572 H   0  0  0  0  0  0  0  0  0  0  0  0
    0.2575    9.5154    0.9186 H   0  0  0  0  0  0  0  0  0  0  0  0
    0.1967    8.6477   -0.6186 H   0  0  0  0  0  0  0  0  0  0  0  0
   -0.2836    7.8379    0.8742 H   0  0  0  0  0  0  0  0  0  0  0  0
    3.3197    9.8248    2.0823 H   0  0  0  0  0  0  0  0  0  0  0  0
    3.7786    9.8291    4.4943 H   0  0  0  0  0  0  0  0  0  0  0  0
    2.8808    8.0206    5.9248 H   0  0  0  0  0  0  0  0  0  0  0  0
    1.5543    6.2066    4.9056 H   0  0  0  0  0  0  0  0  0  0  0  0
   -0.2479   -2.7688   -0.9565 H   0  0  0  0  0  0  0  0  0  0  0  0
   -0.5899   -1.2174   -0.1982 H   0  0  0  0  0  0  0  0  0  0  0  0
    1.5251   -1.4557    1.1682 H   0  0  0  0  0  0  0  0  0  0  0  0
    0.3810   -2.7765    1.4582 H   0  0  0  0  0  0  0  0  0  0  0  0
    1.7877   -3.0350    0.4256 H   0  0  0  0  0  0  0  0  0  0  0  0
   -1.0728    0.5544   -0.7167 H   0  0  0  0  0  0  0  0  0  0  0  0
   -1.4398    2.1452   -0.0558 H   0  0  0  0  0  0  0  0  0  0  0  0
   -0.5269   -0.1776    1.7173 H   0  0  0  0  0  0  0  0  0  0  0  0
   -1.0412    1.4190    2.2369 H   0  0  0  0  0  0  0  0  0  0  0  0
   -2.2055    0.3306    1.4889 H   0  0  0  0  0  0  0  0  0  0  0  0
   -0.7951    7.4994    3.7084 H   0  0  0  0  0  0  0  0  0  0  0  0
   -5.8195    8.3553    5.3304 H   0  0  0  0  0  0  0  0  0  0  0  0
   -7.5517    4.4429    5.6372 H   0  0  0  0  0  0  0  0  0  0  0  0
   -5.3812    3.3986    5.1334 H   0  0  0  0  0  0  0  0  0  0  0  0
  1  2  2  0  0  0  0
  2  3  1  0  0  0  0
  3  4  2  0  0  0  0
  3  5  1  0  0  0  0
  5  6  2  0  0  0  0
  6  7  1  0  0  0  0
  7  8  2  0  0  0  0
  8  9  1  0  0  0  0
  9 10  2  0  0  0  0
 10 11  1  0  0  0  0
 11 12  2  0  0  0  0
  1 13  1  0  0  0  0
 13 14  2  0  0  0  0
 14 15  1  0  0  0  0
 15 16  2  0  0  0  0
 16 17  1  0  0  0  0
 17 18  2  0  0  0  0
 18 19  1  0  0  0  0
 19 20  2  0  0  0  0
 20 21  1  0  0  0  0
 21 22  1  0  0  0  0
 14 23  1  0  0  0  0
 23 24  1  0  0  0  0
 24 25  1  0  0  0  0
 25 26  1  0  0  0  0
 26 27  1  0  0  0  0
 27 28  1  0  0  0  0
 28 29  2  0  0  0  0
 29 30  1  0  0  0  0
 30 31  1  0  0  0  0
 28 32  1  0  0  0  0
 32 33  1  0  0  0  0
 33 34  1  0  0  0  0
 34 35  1  0  0  0  0
 35 36  1  0  0  0  0
 36 37  1  0  0  0  0
 37 38  2  0  0  0  0
 38 39  1  0  0  0  0
 39 40  1  0  0  0  0
 38 41  1  0  0  0  0
 41 42  2  0  0  0  0
 42 43  1  0  0  0  0
 43 44  2  0  0  0  0
 36 45  2  0  0  0  0
 45 46  1  0  0  0  0
 46 47  1  0  0  0  0
 47 48  1  0  0  0  0
 48 49  1  0  0  0  0
 49 50  1  0  0  0  0
 50 51  1  0  0  0  0
 51 52  1  0  0  0  0
 52 53  1  0  0  0  0
 53 54  1  0  0  0  0
 54 55  1  0  0  0  0
 52 56  1  0  0  0  0
 56 57  1  0  0  0  0
 49 58  1  0  0  0  0
 58 59  1  0  0  0  0
 45 60  1  0  0  0  0
 60 61  2  0  0  0  0
 61 62  1  0  0  0  0
 62 63  2  0  0  0  0
 62 64  1  0  0  0  0
 64 65  2  0  0  0  0
 65 66  1  0  0  0  0
 66 67  1  0  0  0  0
 66 68  2  0  0  0  0
 68 69  1  0  0  0  0
 69 70  2  0  0  0  0
 70 71  1  0  0  0  0
 71 72  2  0  0  0  0
 72 73  1  0  0  0  0
 73 74  3  0  0  0  0
 72 75  1  0  0  0  0
 75 76  3  0  0  0  0
 11  2  1  0  0  0  0
 55 13  1  0  0  0  0
 71 61  1  0  0  0  0
 10  5  1  0  0  0  0
 20 15  1  0  0  0  0
 54 23  2  0  0  0  0
 70 64  1  0  0  0  0
 53 25  2  0  0  0  0
 51 26  2  0  0  0  0
 31 27  2  0  0  0  0
 50 32  2  0  0  0  0
 48 33  2  0  0  0  0
 47 35  2  0  0  0  0
 44 37  1  0  0  0  0
  1 77  1  0  0  0  0
  6 78  1  0  0  0  0
  7 79  1  0  0  0  0
  8 80  1  0  0  0  0
  9 81  1  0  0  0  0
 16 82  1  0  0  0  0
 17 83  1  0  0  0  0
 18 84  1  0  0  0  0
 19 85  1  0  0  0  0
 21 86  1  0  0  0  0
 21 87  1  0  0  0  0
 22 88  1  0  0  0  0
 22 89  1  0  0  0  0
 22 90  1  0  0  0  0
 39 91  1  0  0  0  0
 39 92  1  0  0  0  0
 40 93  1  0  0  0  0
 40 94  1  0  0  0  0
 40 95  1  0  0  0  0
 41 96  1  0  0  0  0
 42 97  1  0  0  0  0
 43 98  1  0  0  0  0
 44 99  1  0  0  0  0
 56100  1  0  0  0  0
 56101  1  0  0  0  0
 57102  1  0  0  0  0
 57103  1  0  0  0  0
 57104  1  0  0  0  0
 58105  1  0  0  0  0
 58106  1  0  0  0  0
 59107  1  0  0  0  0
 59108  1  0  0  0  0
 59109  1  0  0  0  0
 60110  1  0  0  0  0
 65111  1  0  0  0  0
 68112  1  0  0  0  0
 69113  1  0  0  0  0
M  END
