87

C         -7.06680       -7.02890       -1.24410
C         -7.98110       -6.68540       -2.20170
C         -9.05000       -7.60420       -2.64260
O         -9.27170       -8.72070       -2.22920
C         -9.78910       -6.87000       -3.70320
C        -10.87230       -7.26710       -4.46160
C        -11.37580       -6.37600       -5.40290
C        -10.80760       -5.12250       -5.57670
C         -9.71720       -4.71890       -4.81550
C         -9.21480       -5.60320       -3.87990
C         -8.07660       -5.44670       -2.94870
O         -7.36100       -4.45690       -2.83840
C         -5.97740       -6.30500       -0.73600
C         -5.11370       -6.83730        0.21960
C         -4.06360       -6.01310        0.58520
S         -2.72890       -6.28480        1.69260
C         -2.11290       -4.72120        1.28570
C         -0.99390       -3.91880        1.53730
C          0.17030       -4.18880        2.28940
C          1.24640       -3.24590        2.25550
N          2.29480       -3.64650        2.95730
S          1.95190       -5.08710        3.61090
N          0.45490       -5.25610        3.01900
C          1.06980       -2.03800        1.54550
C          1.92150       -0.93540        1.41200
C          1.22070        0.03750        0.68920
N         -0.02320       -0.43430        0.36440
C         -0.98630        0.47920       -0.20280
C         -0.76910        0.68970       -1.70160
C         -0.14060       -1.72310        0.85600
C         -1.15550       -2.71690        0.77900
N         -2.33630       -2.82530        0.06850
C         -2.91190       -4.02830        0.37110
C         -4.03040       -4.75550       -0.04970
Se        -5.45150       -4.55330       -1.24430
C         -2.94380       -2.01830       -0.96130
C         -4.14490       -1.23300       -0.43560
C          1.96270        1.20830        0.51040
C          3.23870        1.09370        1.10110
S          3.51150       -0.44970        1.87710
C          4.07240        2.19640        0.97910
C          3.51970        3.26400        0.28940
Se         1.75530        2.87380       -0.29140
C          4.10120        4.48470       -0.09060
C          5.25780        5.07930        0.33480
C          5.91100        6.07100       -0.55680
O          5.43050        6.59530       -1.53650
C          7.28160        6.22580       -0.02580
C          8.33400        6.91480       -0.55390
C          9.57980        6.88150        0.11280
C         10.70010        7.56660       -0.39580
C         11.89750        7.51020        0.26080
F         12.96390        8.16000       -0.22690
C         12.02590        6.77010        1.45260
F         13.21220        6.73190        2.07490
C         10.95620        6.09570        1.97150
C          9.70810        6.13310        1.31860
C          8.59530        5.43870        1.84830
C          7.39900        5.48720        1.18570
C          6.09880        4.89090        1.49000
C          5.69430        4.46880        2.73280
C          6.54600        4.39710        3.85190
N          7.20830        4.30810        4.78550
C          4.35630        4.14740        3.02980
N          3.26570        3.90580        3.29590
H         -7.19600       -8.02300       -0.82220
H        -11.30880       -8.24400       -4.32110
H        -12.22230       -6.66370       -6.00870
H        -11.21890       -4.45050       -6.31540
H         -9.26860       -3.74580       -4.94490
H         -5.25640       -7.82430        0.62570
H         -1.99160        0.12840        0.01510
H         -0.85530        1.44460        0.30410
H          0.16170        1.22850       -1.87460
H         -0.70660       -0.25540       -2.23680
H         -1.58570        1.27640       -2.11270
H         -3.29910       -2.70430       -1.74300
H         -2.19740       -1.36890       -1.40770
H         -3.89220       -0.66190        0.45570
H         -4.95270       -1.91720       -0.17860
H         -4.50560       -0.55410       -1.20280
H          5.08570        2.19770        1.34130
H          3.61790        5.00170       -0.91750
H          8.22040        7.47420       -1.47000
H         10.61780        8.13710       -1.30760
H         11.07140        5.53620        2.88660
H          8.72130        4.87440        2.75870
