
  xtb     02112204123D
 energy: -171.424109864595 gnorm: 0.000252805035 xtb: 6.4.1 (unknown)
 87 99  0     0  0            999 V2000
   -7.0668   -7.0289   -1.2441 C   0  0  0  0  0  0  0  0  0  0  0  0
   -7.9811   -6.6854   -2.2017 C   0  0  0  0  0  0  0  0  0  0  0  0
   -9.0500   -7.6042   -2.6426 C   0  0  0  0  0  0  0  0  0  0  0  0
   -9.2717   -8.7207   -2.2292 O   0  0  0  0  0  0  0  0  0  0  0  0
   -9.7891   -6.8700   -3.7032 C   0  0  0  0  0  0  0  0  0  0  0  0
  -10.8723   -7.2671   -4.4616 C   0  0  0  0  0  0  0  0  0  0  0  0
  -11.3758   -6.3760   -5.4029 C   0  0  0  0  0  0  0  0  0  0  0  0
  -10.8076   -5.1225   -5.5767 C   0  0  0  0  0  0  0  0  0  0  0  0
   -9.7172   -4.7189   -4.8155 C   0  0  0  0  0  0  0  0  0  0  0  0
   -9.2148   -5.6032   -3.8799 C   0  0  0  0  0  0  0  0  0  0  0  0
   -8.0766   -5.4467   -2.9487 C   0  0  0  0  0  0  0  0  0  0  0  0
   -7.3610   -4.4569   -2.8384 O   0  0  0  0  0  0  0  0  0  0  0  0
   -5.9774   -6.3050   -0.7360 C   0  0  0  0  0  0  0  0  0  0  0  0
   -5.1137   -6.8373    0.2196 C   0  0  0  0  0  0  0  0  0  0  0  0
   -4.0636   -6.0131    0.5852 C   0  0  0  0  0  0  0  0  0  0  0  0
   -2.7289   -6.2848    1.6926 S   0  0  0  0  0  0  0  0  0  0  0  0
   -2.1129   -4.7212    1.2857 C   0  0  0  0  0  0  0  0  0  0  0  0
   -0.9939   -3.9188    1.5373 C   0  0  0  0  0  0  0  0  0  0  0  0
    0.1703   -4.1888    2.2894 C   0  0  0  0  0  0  0  0  0  0  0  0
    1.2464   -3.2459    2.2555 C   0  0  0  0  0  0  0  0  0  0  0  0
    2.2948   -3.6465    2.9573 N   0  0  0  0  0  0  0  0  0  0  0  0
    1.9519   -5.0871    3.6109 S   0  0  0  0  0  0  0  0  0  0  0  0
    0.4549   -5.2561    3.0190 N   0  0  0  0  0  0  0  0  0  0  0  0
    1.0698   -2.0380    1.5455 C   0  0  0  0  0  0  0  0  0  0  0  0
    1.9215   -0.9354    1.4120 C   0  0  0  0  0  0  0  0  0  0  0  0
    1.2207    0.0375    0.6892 C   0  0  0  0  0  0  0  0  0  0  0  0
   -0.0232   -0.4343    0.3644 N   0  0  0  0  0  0  0  0  0  0  0  0
   -0.9863    0.4792   -0.2028 C   0  0  0  0  0  0  0  0  0  0  0  0
   -0.7691    0.6897   -1.7016 C   0  0  0  0  0  0  0  0  0  0  0  0
   -0.1406   -1.7231    0.8560 C   0  0  0  0  0  0  0  0  0  0  0  0
   -1.1555   -2.7169    0.7790 C   0  0  0  0  0  0  0  0  0  0  0  0
   -2.3363   -2.8253    0.0685 N   0  0  0  0  0  0  0  0  0  0  0  0
   -2.9119   -4.0283    0.3711 C   0  0  0  0  0  0  0  0  0  0  0  0
   -4.0304   -4.7555   -0.0497 C   0  0  0  0  0  0  0  0  0  0  0  0
   -5.4515   -4.5533   -1.2443 Se  0  0  0  0  0  2  0  0  0  0  0  0
   -2.9438   -2.0183   -0.9613 C   0  0  0  0  0  0  0  0  0  0  0  0
   -4.1449   -1.2330   -0.4356 C   0  0  0  0  0  0  0  0  0  0  0  0
    1.9627    1.2083    0.5104 C   0  0  0  0  0  0  0  0  0  0  0  0
    3.2387    1.0937    1.1011 C   0  0  0  0  0  0  0  0  0  0  0  0
    3.5115   -0.4497    1.8771 S   0  0  0  0  0  0  0  0  0  0  0  0
    4.0724    2.1964    0.9791 C   0  0  0  0  0  0  0  0  0  0  0  0
    3.5197    3.2640    0.2894 C   0  0  0  0  0  0  0  0  0  0  0  0
    1.7553    2.8738   -0.2914 Se  0  0  0  0  0  2  0  0  0  0  0  0
    4.1012    4.4847   -0.0906 C   0  0  0  0  0  0  0  0  0  0  0  0
    5.2578    5.0793    0.3348 C   0  0  0  0  0  0  0  0  0  0  0  0
    5.9110    6.0710   -0.5568 C   0  0  0  0  0  0  0  0  0  0  0  0
    5.4305    6.5953   -1.5365 O   0  0  0  0  0  0  0  0  0  0  0  0
    7.2816    6.2258   -0.0258 C   0  0  0  0  0  0  0  0  0  0  0  0
    8.3340    6.9148   -0.5539 C   0  0  0  0  0  0  0  0  0  0  0  0
    9.5798    6.8815    0.1128 C   0  0  0  0  0  0  0  0  0  0  0  0
   10.7001    7.5666   -0.3958 C   0  0  0  0  0  0  0  0  0  0  0  0
   11.8975    7.5102    0.2608 C   0  0  0  0  0  0  0  0  0  0  0  0
   12.9639    8.1600   -0.2269 F   0  0  0  0  0  0  0  0  0  0  0  0
   12.0259    6.7701    1.4526 C   0  0  0  0  0  0  0  0  0  0  0  0
   13.2122    6.7319    2.0749 F   0  0  0  0  0  0  0  0  0  0  0  0
   10.9562    6.0957    1.9715 C   0  0  0  0  0  0  0  0  0  0  0  0
    9.7081    6.1331    1.3186 C   0  0  0  0  0  0  0  0  0  0  0  0
    8.5953    5.4387    1.8483 C   0  0  0  0  0  0  0  0  0  0  0  0
    7.3990    5.4872    1.1857 C   0  0  0  0  0  0  0  0  0  0  0  0
    6.0988    4.8909    1.4900 C   0  0  0  0  0  0  0  0  0  0  0  0
    5.6943    4.4688    2.7328 C   0  0  0  0  0  0  0  0  0  0  0  0
    6.5460    4.3971    3.8519 C   0  0  0  0  0  0  0  0  0  0  0  0
    7.2083    4.3081    4.7855 N   0  0  0  0  0  0  0  0  0  0  0  0
    4.3563    4.1474    3.0298 C   0  0  0  0  0  0  0  0  0  0  0  0
    3.2657    3.9058    3.2959 N   0  0  0  0  0  0  0  0  0  0  0  0
   -7.1960   -8.0230   -0.8222 H   0  0  0  0  0  0  0  0  0  0  0  0
  -11.3088   -8.2440   -4.3211 H   0  0  0  0  0  0  0  0  0  0  0  0
  -12.2223   -6.6637   -6.0087 H   0  0  0  0  0  0  0  0  0  0  0  0
  -11.2189   -4.4505   -6.3154 H   0  0  0  0  0  0  0  0  0  0  0  0
   -9.2686   -3.7458   -4.9449 H   0  0  0  0  0  0  0  0  0  0  0  0
   -5.2564   -7.8243    0.6257 H   0  0  0  0  0  0  0  0  0  0  0  0
   -1.9916    0.1284    0.0151 H   0  0  0  0  0  0  0  0  0  0  0  0
   -0.8553    1.4446    0.3041 H   0  0  0  0  0  0  0  0  0  0  0  0
    0.1617    1.2285   -1.8746 H   0  0  0  0  0  0  0  0  0  0  0  0
   -0.7066   -0.2554   -2.2368 H   0  0  0  0  0  0  0  0  0  0  0  0
   -1.5857    1.2764   -2.1127 H   0  0  0  0  0  0  0  0  0  0  0  0
   -3.2991   -2.7043   -1.7430 H   0  0  0  0  0  0  0  0  0  0  0  0
   -2.1974   -1.3689   -1.4077 H   0  0  0  0  0  0  0  0  0  0  0  0
   -3.8922   -0.6619    0.4557 H   0  0  0  0  0  0  0  0  0  0  0  0
   -4.9527   -1.9172   -0.1786 H   0  0  0  0  0  0  0  0  0  0  0  0
   -4.5056   -0.5541   -1.2028 H   0  0  0  0  0  0  0  0  0  0  0  0
    5.0857    2.1977    1.3413 H   0  0  0  0  0  0  0  0  0  0  0  0
    3.6179    5.0017   -0.9175 H   0  0  0  0  0  0  0  0  0  0  0  0
    8.2204    7.4742   -1.4700 H   0  0  0  0  0  0  0  0  0  0  0  0
   10.6178    8.1371   -1.3076 H   0  0  0  0  0  0  0  0  0  0  0  0
   11.0714    5.5362    2.8866 H   0  0  0  0  0  0  0  0  0  0  0  0
    8.7213    4.8744    2.7587 H   0  0  0  0  0  0  0  0  0  0  0  0
  1  2  2  0  0  0  0
  2  3  1  0  0  0  0
  3  4  2  0  0  0  0
  3  5  1  0  0  0  0
  5  6  2  0  0  0  0
  6  7  1  0  0  0  0
  7  8  2  0  0  0  0
  8  9  1  0  0  0  0
  9 10  2  0  0  0  0
 10 11  1  0  0  0  0
 11 12  2  0  0  0  0
  1 13  1  0  0  0  0
 13 14  2  0  0  0  0
 14 15  1  0  0  0  0
 15 16  1  0  0  0  0
 16 17  1  0  0  0  0
 17 18  1  0  0  0  0
 18 19  1  0  0  0  0
 19 20  1  0  0  0  0
 20 21  2  0  0  0  0
 21 22  1  0  0  0  0
 22 23  1  0  0  0  0
 20 24  1  0  0  0  0
 24 25  1  0  0  0  0
 25 26  2  0  0  0  0
 26 27  1  0  0  0  0
 27 28  1  0  0  0  0
 28 29  1  0  0  0  0
 27 30  1  0  0  0  0
 30 31  1  0  0  0  0
 31 32  1  0  0  0  0
 32 33  1  0  0  0  0
 33 34  1  0  0  0  0
 34 35  1  0  0  0  0
 32 36  1  0  0  0  0
 36 37  1  0  0  0  0
 26 38  1  0  0  0  0
 38 39  2  0  0  0  0
 39 40  1  0  0  0  0
 39 41  1  0  0  0  0
 41 42  2  0  0  0  0
 42 43  1  0  0  0  0
 42 44  1  0  0  0  0
 44 45  2  0  0  0  0
 45 46  1  0  0  0  0
 46 47  2  0  0  0  0
 46 48  1  0  0  0  0
 48 49  2  0  0  0  0
 49 50  1  0  0  0  0
 50 51  2  0  0  0  0
 51 52  1  0  0  0  0
 52 53  1  0  0  0  0
 52 54  2  0  0  0  0
 54 55  1  0  0  0  0
 54 56  1  0  0  0  0
 56 57  2  0  0  0  0
 57 58  1  0  0  0  0
 58 59  2  0  0  0  0
 59 60  1  0  0  0  0
 60 61  2  0  0  0  0
 61 62  1  0  0  0  0
 62 63  3  0  0  0  0
 61 64  1  0  0  0  0
 64 65  3  0  0  0  0
 11  2  1  0  0  0  0
 35 13  1  0  0  0  0
 43 38  1  0  0  0  0
 60 45  1  0  0  0  0
 10  5  1  0  0  0  0
 34 15  2  0  0  0  0
 59 48  1  0  0  0  0
 33 17  2  0  0  0  0
 57 50  1  0  0  0  0
 31 18  2  0  0  0  0
 23 19  2  0  0  0  0
 30 24  2  0  0  0  0
 40 25  1  0  0  0  0
  1 66  1  0  0  0  0
  6 67  1  0  0  0  0
  7 68  1  0  0  0  0
  8 69  1  0  0  0  0
  9 70  1  0  0  0  0
 14 71  1  0  0  0  0
 28 72  1  0  0  0  0
 28 73  1  0  0  0  0
 29 74  1  0  0  0  0
 29 75  1  0  0  0  0
 29 76  1  0  0  0  0
 36 77  1  0  0  0  0
 36 78  1  0  0  0  0
 37 79  1  0  0  0  0
 37 80  1  0  0  0  0
 37 81  1  0  0  0  0
 41 82  1  0  0  0  0
 44 83  1  0  0  0  0
 49 84  1  0  0  0  0
 51 85  1  0  0  0  0
 56 86  1  0  0  0  0
 58 87  1  0  0  0  0
M  END
