
  xtb     02022201283D
 energy: -184.242785791310 gnorm: 0.000252674900 xtb: 6.4.1 (unknown)
 99111  0     0  0            999 V2000
   -2.7869   -6.8540    5.3535 C   0  0  0  0  0  0  0  0  0  0  0  0
   -4.1065   -6.9642    5.0188 C   0  0  0  0  0  0  0  0  0  0  0  0
   -4.8901   -6.2044    4.0501 C   0  0  0  0  0  0  0  0  0  0  0  0
   -4.5171   -5.2850    3.3413 O   0  0  0  0  0  0  0  0  0  0  0  0
   -6.2594   -6.7708    4.0977 C   0  0  0  0  0  0  0  0  0  0  0  0
   -7.3807   -6.4127    3.3739 C   0  0  0  0  0  0  0  0  0  0  0  0
   -8.5604   -7.1081    3.6084 C   0  0  0  0  0  0  0  0  0  0  0  0
   -8.6121   -8.1326    4.5428 C   0  0  0  0  0  0  0  0  0  0  0  0
   -7.4856   -8.4944    5.2720 C   0  0  0  0  0  0  0  0  0  0  0  0
   -6.3109   -7.8053    5.0410 C   0  0  0  0  0  0  0  0  0  0  0  0
   -4.9728   -7.9731    5.6606 C   0  0  0  0  0  0  0  0  0  0  0  0
   -4.6495   -8.7717    6.5136 O   0  0  0  0  0  0  0  0  0  0  0  0
   -1.7959   -5.9904    4.8630 C   0  0  0  0  0  0  0  0  0  0  0  0
   -0.4568   -6.0075    5.2742 C   0  0  0  0  0  0  0  0  0  0  0  0
    0.1385   -6.9624    6.2570 C   0  0  0  0  0  0  0  0  0  0  0  0
    0.4961   -8.2864    5.5764 C   0  0  0  0  0  0  0  0  0  0  0  0
    0.2919   -5.0483    4.5995 C   0  0  0  0  0  0  0  0  0  0  0  0
    1.9874   -4.6013    4.6618 S   0  0  0  0  0  0  0  0  0  0  0  0
    1.6900   -3.4008    3.4507 C   0  0  0  0  0  0  0  0  0  0  0  0
    2.3869   -2.4149    2.7308 C   0  0  0  0  0  0  0  0  0  0  0  0
    3.6989   -1.8916    2.8117 C   0  0  0  0  0  0  0  0  0  0  0  0
    4.0575   -0.7565    1.9991 C   0  0  0  0  0  0  0  0  0  0  0  0
    5.2879   -0.3346    2.2410 N   0  0  0  0  0  0  0  0  0  0  0  0
    5.9451   -1.2793    3.3789 S   0  0  0  0  0  0  0  0  0  0  0  0
    4.6838   -2.2655    3.6121 N   0  0  0  0  0  0  0  0  0  0  0  0
    3.1445   -0.2863    1.0258 C   0  0  0  0  0  0  0  0  0  0  0  0
    3.2388    0.6586   -0.0107 C   0  0  0  0  0  0  0  0  0  0  0  0
    4.3462    1.8413   -0.6131 S   0  0  0  0  0  0  0  0  0  0  0  0
    3.2327    2.2025   -1.9156 C   0  0  0  0  0  0  0  0  0  0  0  0
    3.2900    3.0942   -2.9939 C   0  0  0  0  0  0  0  0  0  0  0  0
    4.5142    3.8881   -3.3161 C   0  0  0  0  0  0  0  0  0  0  0  0
    4.8786    4.8724   -2.2048 C   0  0  0  0  0  0  0  0  0  0  0  0
    2.1516    2.9868   -3.7887 C   0  0  0  0  0  0  0  0  0  0  0  0
    1.0393    1.7440   -3.2046 S   0  0  0  0  0  0  0  0  0  0  0  0
    2.0713    1.4164   -1.8689 C   0  0  0  0  0  0  0  0  0  0  0  0
    2.0690    0.5490   -0.7768 C   0  0  0  0  0  0  0  0  0  0  0  0
    1.2394   -0.4054   -0.2415 N   0  0  0  0  0  0  0  0  0  0  0  0
    1.8731   -0.9016    0.8809 C   0  0  0  0  0  0  0  0  0  0  0  0
    1.4409   -1.8384    1.8414 C   0  0  0  0  0  0  0  0  0  0  0  0
    0.1967   -2.3940    2.0611 N   0  0  0  0  0  0  0  0  0  0  0  0
    0.3540   -3.3536    3.0292 C   0  0  0  0  0  0  0  0  0  0  0  0
   -0.4524   -4.2879    3.6845 C   0  0  0  0  0  0  0  0  0  0  0  0
   -2.1072   -4.7602    3.6373 S   0  0  0  0  0  0  0  0  0  0  0  0
   -1.0835   -1.7359    1.8845 C   0  0  0  0  0  0  0  0  0  0  0  0
   -1.5612   -1.1041    3.1915 C   0  0  0  0  0  0  0  0  0  0  0  0
    0.3069   -1.1224   -1.0892 C   0  0  0  0  0  0  0  0  0  0  0  0
    1.0329   -1.8356   -2.2294 C   0  0  0  0  0  0  0  0  0  0  0  0
    1.8097    3.5865   -5.0182 C   0  0  0  0  0  0  0  0  0  0  0  0
    2.0481    4.8779   -5.4082 C   0  0  0  0  0  0  0  0  0  0  0  0
    2.2250    6.0060   -4.4676 C   0  0  0  0  0  0  0  0  0  0  0  0
    2.2957    5.9600   -3.2581 O   0  0  0  0  0  0  0  0  0  0  0  0
    2.1349    7.2259   -5.2981 C   0  0  0  0  0  0  0  0  0  0  0  0
    2.2129    8.5300   -4.9046 C   0  0  0  0  0  0  0  0  0  0  0  0
    2.0737    9.5490   -5.8739 C   0  0  0  0  0  0  0  0  0  0  0  0
    2.1476   10.9106   -5.5225 C   0  0  0  0  0  0  0  0  0  0  0  0
    1.9996   11.8768   -6.4778 C   0  0  0  0  0  0  0  0  0  0  0  0
    2.0674   13.1726   -6.1406 F   0  0  0  0  0  0  0  0  0  0  0  0
    1.7738   11.5249   -7.8233 C   0  0  0  0  0  0  0  0  0  0  0  0
    1.6322   12.4937   -8.7384 F   0  0  0  0  0  0  0  0  0  0  0  0
    1.6989   10.2121   -8.1954 C   0  0  0  0  0  0  0  0  0  0  0  0
    1.8468    9.1919   -7.2345 C   0  0  0  0  0  0  0  0  0  0  0  0
    1.7683    7.8313   -7.6108 C   0  0  0  0  0  0  0  0  0  0  0  0
    1.9135    6.8610   -6.6554 C   0  0  0  0  0  0  0  0  0  0  0  0
    1.8800    5.4047   -6.7424 C   0  0  0  0  0  0  0  0  0  0  0  0
    1.7959    4.6675   -7.8969 C   0  0  0  0  0  0  0  0  0  0  0  0
    1.8765    3.2607   -7.9492 C   0  0  0  0  0  0  0  0  0  0  0  0
    1.9589    2.1207   -8.0633 N   0  0  0  0  0  0  0  0  0  0  0  0
    1.6522    5.2284   -9.1815 C   0  0  0  0  0  0  0  0  0  0  0  0
    1.5265    5.6326  -10.2489 N   0  0  0  0  0  0  0  0  0  0  0  0
   -2.4610   -7.5559    6.1154 H   0  0  0  0  0  0  0  0  0  0  0  0
   -7.3313   -5.6146    2.6489 H   0  0  0  0  0  0  0  0  0  0  0  0
   -9.4511   -6.8479    3.0555 H   0  0  0  0  0  0  0  0  0  0  0  0
   -9.5427   -8.6562    4.7053 H   0  0  0  0  0  0  0  0  0  0  0  0
   -7.5178   -9.2901    6.0004 H   0  0  0  0  0  0  0  0  0  0  0  0
    1.0462   -6.5131    6.6648 H   0  0  0  0  0  0  0  0  0  0  0  0
   -0.5527   -7.1473    7.0805 H   0  0  0  0  0  0  0  0  0  0  0  0
   -0.3928   -8.7605    5.1667 H   0  0  0  0  0  0  0  0  0  0  0  0
    1.2011   -8.1146    4.7664 H   0  0  0  0  0  0  0  0  0  0  0  0
    0.9516   -8.9629    6.2946 H   0  0  0  0  0  0  0  0  0  0  0  0
    5.3402    3.1811   -3.4467 H   0  0  0  0  0  0  0  0  0  0  0  0
    4.3732    4.4226   -4.2557 H   0  0  0  0  0  0  0  0  0  0  0  0
    5.0886    4.3441   -1.2787 H   0  0  0  0  0  0  0  0  0  0  0  0
    4.0578    5.5633   -2.0375 H   0  0  0  0  0  0  0  0  0  0  0  0
    5.7621    5.4371   -2.4913 H   0  0  0  0  0  0  0  0  0  0  0  0
   -0.9804   -0.9481    1.1403 H   0  0  0  0  0  0  0  0  0  0  0  0
   -1.8139   -2.4762    1.5444 H   0  0  0  0  0  0  0  0  0  0  0  0
   -0.8171   -0.4035    3.5653 H   0  0  0  0  0  0  0  0  0  0  0  0
   -1.7412   -1.8626    3.9477 H   0  0  0  0  0  0  0  0  0  0  0  0
   -2.4894   -0.5682    3.0155 H   0  0  0  0  0  0  0  0  0  0  0  0
   -0.2163   -1.8695   -0.4962 H   0  0  0  0  0  0  0  0  0  0  0  0
   -0.4133   -0.4059   -1.4959 H   0  0  0  0  0  0  0  0  0  0  0  0
    1.7756   -2.5226   -1.8293 H   0  0  0  0  0  0  0  0  0  0  0  0
    1.5301   -1.1253   -2.8837 H   0  0  0  0  0  0  0  0  0  0  0  0
    0.3155   -2.4005   -2.8175 H   0  0  0  0  0  0  0  0  0  0  0  0
    1.2464    2.9506   -5.6928 H   0  0  0  0  0  0  0  0  0  0  0  0
    2.3788    8.7821   -3.8683 H   0  0  0  0  0  0  0  0  0  0  0  0
    2.3190   11.1968   -4.4966 H   0  0  0  0  0  0  0  0  0  0  0  0
    1.5264    9.9593   -9.2299 H   0  0  0  0  0  0  0  0  0  0  0  0
    1.5871    7.5910   -8.6460 H   0  0  0  0  0  0  0  0  0  0  0  0
  1  2  2  0  0  0  0
  2  3  1  0  0  0  0
  3  4  2  0  0  0  0
  3  5  1  0  0  0  0
  5  6  2  0  0  0  0
  6  7  1  0  0  0  0
  7  8  2  0  0  0  0
  8  9  1  0  0  0  0
  9 10  2  0  0  0  0
 10 11  1  0  0  0  0
 11 12  2  0  0  0  0
  1 13  1  0  0  0  0
 13 14  2  0  0  0  0
 14 15  1  0  0  0  0
 15 16  1  0  0  0  0
 14 17  1  0  0  0  0
 17 18  1  0  0  0  0
 18 19  1  0  0  0  0
 19 20  1  0  0  0  0
 20 21  1  0  0  0  0
 21 22  1  0  0  0  0
 22 23  2  0  0  0  0
 23 24  1  0  0  0  0
 24 25  1  0  0  0  0
 22 26  1  0  0  0  0
 26 27  1  0  0  0  0
 27 28  1  0  0  0  0
 28 29  1  0  0  0  0
 29 30  1  0  0  0  0
 30 31  1  0  0  0  0
 31 32  1  0  0  0  0
 30 33  2  0  0  0  0
 33 34  1  0  0  0  0
 34 35  1  0  0  0  0
 35 36  1  0  0  0  0
 36 37  1  0  0  0  0
 37 38  1  0  0  0  0
 38 39  1  0  0  0  0
 39 40  1  0  0  0  0
 40 41  1  0  0  0  0
 41 42  1  0  0  0  0
 42 43  1  0  0  0  0
 40 44  1  0  0  0  0
 44 45  1  0  0  0  0
 37 46  1  0  0  0  0
 46 47  1  0  0  0  0
 33 48  1  0  0  0  0
 48 49  2  0  0  0  0
 49 50  1  0  0  0  0
 50 51  2  0  0  0  0
 50 52  1  0  0  0  0
 52 53  2  0  0  0  0
 53 54  1  0  0  0  0
 54 55  2  0  0  0  0
 55 56  1  0  0  0  0
 56 57  1  0  0  0  0
 56 58  2  0  0  0  0
 58 59  1  0  0  0  0
 58 60  1  0  0  0  0
 60 61  2  0  0  0  0
 61 62  1  0  0  0  0
 62 63  2  0  0  0  0
 63 64  1  0  0  0  0
 64 65  2  0  0  0  0
 65 66  1  0  0  0  0
 66 67  3  0  0  0  0
 65 68  1  0  0  0  0
 68 69  3  0  0  0  0
 11  2  1  0  0  0  0
 43 13  1  0  0  0  0
 64 49  1  0  0  0  0
 10  5  1  0  0  0  0
 42 17  2  0  0  0  0
 63 52  1  0  0  0  0
 41 19  2  0  0  0  0
 61 54  1  0  0  0  0
 39 20  2  0  0  0  0
 25 21  2  0  0  0  0
 38 26  2  0  0  0  0
 36 27  2  0  0  0  0
 35 29  2  0  0  0  0
  1 70  1  0  0  0  0
  6 71  1  0  0  0  0
  7 72  1  0  0  0  0
  8 73  1  0  0  0  0
  9 74  1  0  0  0  0
 15 75  1  0  0  0  0
 15 76  1  0  0  0  0
 16 77  1  0  0  0  0
 16 78  1  0  0  0  0
 16 79  1  0  0  0  0
 31 80  1  0  0  0  0
 31 81  1  0  0  0  0
 32 82  1  0  0  0  0
 32 83  1  0  0  0  0
 32 84  1  0  0  0  0
 44 85  1  0  0  0  0
 44 86  1  0  0  0  0
 45 87  1  0  0  0  0
 45 88  1  0  0  0  0
 45 89  1  0  0  0  0
 46 90  1  0  0  0  0
 46 91  1  0  0  0  0
 47 92  1  0  0  0  0
 47 93  1  0  0  0  0
 47 94  1  0  0  0  0
 48 95  1  0  0  0  0
 53 96  1  0  0  0  0
 55 97  1  0  0  0  0
 60 98  1  0  0  0  0
 62 99  1  0  0  0  0
M  END
