99

C         -2.78690       -6.85400        5.35350
C         -4.10650       -6.96420        5.01880
C         -4.89010       -6.20440        4.05010
O         -4.51710       -5.28500        3.34130
C         -6.25940       -6.77080        4.09770
C         -7.38070       -6.41270        3.37390
C         -8.56040       -7.10810        3.60840
C         -8.61210       -8.13260        4.54280
C         -7.48560       -8.49440        5.27200
C         -6.31090       -7.80530        5.04100
C         -4.97280       -7.97310        5.66060
O         -4.64950       -8.77170        6.51360
C         -1.79590       -5.99040        4.86300
C         -0.45680       -6.00750        5.27420
C          0.13850       -6.96240        6.25700
C          0.49610       -8.28640        5.57640
C          0.29190       -5.04830        4.59950
S          1.98740       -4.60130        4.66180
C          1.69000       -3.40080        3.45070
C          2.38690       -2.41490        2.73080
C          3.69890       -1.89160        2.81170
C          4.05750       -0.75650        1.99910
N          5.28790       -0.33460        2.24100
S          5.94510       -1.27930        3.37890
N          4.68380       -2.26550        3.61210
C          3.14450       -0.28630        1.02580
C          3.23880        0.65860       -0.01070
S          4.34620        1.84130       -0.61310
C          3.23270        2.20250       -1.91560
C          3.29000        3.09420       -2.99390
C          4.51420        3.88810       -3.31610
C          4.87860        4.87240       -2.20480
C          2.15160        2.98680       -3.78870
S          1.03930        1.74400       -3.20460
C          2.07130        1.41640       -1.86890
C          2.06900        0.54900       -0.77680
N          1.23940       -0.40540       -0.24150
C          1.87310       -0.90160        0.88090
C          1.44090       -1.83840        1.84140
N          0.19670       -2.39400        2.06110
C          0.35400       -3.35360        3.02920
C         -0.45240       -4.28790        3.68450
S         -2.10720       -4.76020        3.63730
C         -1.08350       -1.73590        1.88450
C         -1.56120       -1.10410        3.19150
C          0.30690       -1.12240       -1.08920
C          1.03290       -1.83560       -2.22940
C          1.80970        3.58650       -5.01820
C          2.04810        4.87790       -5.40820
C          2.22500        6.00600       -4.46760
O          2.29570        5.96000       -3.25810
C          2.13490        7.22590       -5.29810
C          2.21290        8.53000       -4.90460
C          2.07370        9.54900       -5.87390
C          2.14760       10.91060       -5.52250
C          1.99960       11.87680       -6.47780
F          2.06740       13.17260       -6.14060
C          1.77380       11.52490       -7.82330
F          1.63220       12.49370       -8.73840
C          1.69890       10.21210       -8.19540
C          1.84680        9.19190       -7.23450
C          1.76830        7.83130       -7.61080
C          1.91350        6.86100       -6.65540
C          1.88000        5.40470       -6.74240
C          1.79590        4.66750       -7.89690
C          1.87650        3.26070       -7.94920
N          1.95890        2.12070       -8.06330
C          1.65220        5.22840       -9.18150
N          1.52650        5.63260      -10.24890
H         -2.46100       -7.55590        6.11540
H         -7.33130       -5.61460        2.64890
H         -9.45110       -6.84790        3.05550
H         -9.54270       -8.65620        4.70530
H         -7.51780       -9.29010        6.00040
H          1.04620       -6.51310        6.66480
H         -0.55270       -7.14730        7.08050
H         -0.39280       -8.76050        5.16670
H          1.20110       -8.11460        4.76640
H          0.95160       -8.96290        6.29460
H          5.34020        3.18110       -3.44670
H          4.37320        4.42260       -4.25570
H          5.08860        4.34410       -1.27870
H          4.05780        5.56330       -2.03750
H          5.76210        5.43710       -2.49130
H         -0.98040       -0.94810        1.14030
H         -1.81390       -2.47620        1.54440
H         -0.81710       -0.40350        3.56530
H         -1.74120       -1.86260        3.94770
H         -2.48940       -0.56820        3.01550
H         -0.21630       -1.86950       -0.49620
H         -0.41330       -0.40590       -1.49590
H          1.77560       -2.52260       -1.82930
H          1.53010       -1.12530       -2.88370
H          0.31550       -2.40050       -2.81750
H          1.24640        2.95060       -5.69280
H          2.37880        8.78210       -3.86830
H          2.31900       11.19680       -4.49660
H          1.52640        9.95930       -9.22990
H          1.58710        7.59100       -8.64600
