
  xtb     02012216173D
 energy: -252.790029899286 gnorm: 0.000214573490 xtb: 6.4.1 (unknown)
151165  0     0  0            999 V2000
    4.8376   -3.3871   -5.5914 C   0  0  0  0  0  0  0  0  0  0  0  0
    5.3394   -4.6601   -5.6968 C   0  0  0  0  0  0  0  0  0  0  0  0
    5.4047   -5.6512   -4.6167 C   0  0  0  0  0  0  0  0  0  0  0  0
    5.0553   -5.5131   -3.4572 O   0  0  0  0  0  0  0  0  0  0  0  0
    5.9906   -6.8658   -5.2121 C   0  0  0  0  0  0  0  0  0  0  0  0
    6.2453   -8.0815   -4.6146 C   0  0  0  0  0  0  0  0  0  0  0  0
    6.8014   -9.1057   -5.3795 C   0  0  0  0  0  0  0  0  0  0  0  0
    7.1058  -10.4318   -4.7590 C   0  0  0  0  0  0  0  0  0  0  0  0
    7.0856   -8.8661   -6.7214 C   0  0  0  0  0  0  0  0  0  0  0  0
    6.8318   -7.6442   -7.3280 C   0  0  0  0  0  0  0  0  0  0  0  0
    6.2751   -6.6274   -6.5682 C   0  0  0  0  0  0  0  0  0  0  0  0
    5.8807   -5.2604   -6.9009 C   0  0  0  0  0  0  0  0  0  0  0  0
    5.9985   -4.6856   -8.1410 C   0  0  0  0  0  0  0  0  0  0  0  0
    6.5362   -5.3415   -9.2680 C   0  0  0  0  0  0  0  0  0  0  0  0
    6.9623   -5.8103  -10.2258 N   0  0  0  0  0  0  0  0  0  0  0  0
    5.6052   -3.3776   -8.4899 C   0  0  0  0  0  0  0  0  0  0  0  0
    5.3099   -2.3315   -8.8638 N   0  0  0  0  0  0  0  0  0  0  0  0
    4.2414   -2.7263   -4.5101 C   0  0  0  0  0  0  0  0  0  0  0  0
    3.9805   -3.3759   -2.8970 S   0  0  0  0  0  0  0  0  0  0  0  0
    3.1816   -1.9342   -2.4516 C   0  0  0  0  0  0  0  0  0  0  0  0
    2.4944   -1.4448   -1.2985 C   0  0  0  0  0  0  0  0  0  0  0  0
    1.9676   -0.1936   -1.6064 C   0  0  0  0  0  0  0  0  0  0  0  0
    2.3541    0.2320   -3.0170 C   0  0  0  0  0  0  0  0  0  0  0  0
    3.1196   -0.9885   -3.4765 C   0  0  0  0  0  0  0  0  0  0  0  0
    3.7217   -1.4285   -4.6335 C   0  0  0  0  0  0  0  0  0  0  0  0
    1.1837    0.4197   -3.9623 C   0  0  0  0  0  0  0  0  0  0  0  0
    1.4118    0.9142   -5.2398 C   0  0  0  0  0  0  0  0  0  0  0  0
    0.3837    1.0631   -6.1526 C   0  0  0  0  0  0  0  0  0  0  0  0
   -0.9149    0.7057   -5.8029 C   0  0  0  0  0  0  0  0  0  0  0  0
   -2.0166    0.8308   -6.5891 O   0  0  0  0  0  0  0  0  0  0  0  0
   -1.8827    1.2548   -7.9313 C   0  0  0  0  0  0  0  0  0  0  0  0
   -1.3669    0.1502   -8.8488 C   0  0  0  0  0  0  0  0  0  0  0  0
   -1.1420    0.1839   -4.5288 C   0  0  0  0  0  0  0  0  0  0  0  0
   -0.1094    0.0360   -3.6273 C   0  0  0  0  0  0  0  0  0  0  0  0
    3.2687    1.4462   -2.9226 C   0  0  0  0  0  0  0  0  0  0  0  0
    4.5496    1.2864   -2.4136 C   0  0  0  0  0  0  0  0  0  0  0  0
    5.4202    2.3544   -2.2906 C   0  0  0  0  0  0  0  0  0  0  0  0
    5.0176    3.6290   -2.6748 C   0  0  0  0  0  0  0  0  0  0  0  0
    5.7784    4.7543   -2.6355 O   0  0  0  0  0  0  0  0  0  0  0  0
    7.0909    4.7036   -2.1134 C   0  0  0  0  0  0  0  0  0  0  0  0
    7.1177    4.6893   -0.5877 C   0  0  0  0  0  0  0  0  0  0  0  0
    3.7235    3.7968   -3.1700 C   0  0  0  0  0  0  0  0  0  0  0  0
    2.8655    2.7250   -3.2901 C   0  0  0  0  0  0  0  0  0  0  0  0
    1.1562    0.4856   -0.6739 C   0  0  0  0  0  0  0  0  0  0  0  0
    0.5443    1.7139   -0.9313 C   0  0  0  0  0  0  0  0  0  0  0  0
   -0.3882    2.2638   -0.0617 C   0  0  0  0  0  0  0  0  0  0  0  0
   -1.0655    3.4731   -0.3852 C   0  0  0  0  0  0  0  0  0  0  0  0
   -2.0739    3.9513    0.3897 C   0  0  0  0  0  0  0  0  0  0  0  0
   -2.4443    3.2225    1.5405 C   0  0  0  0  0  0  0  0  0  0  0  0
   -3.5510    3.3955    2.4257 C   0  0  0  0  0  0  0  0  0  0  0  0
   -3.5893    2.3631    3.3632 C   0  0  0  0  0  0  0  0  0  0  0  0
   -2.3835    1.4681    3.1875 C   0  0  0  0  0  0  0  0  0  0  0  0
   -2.7952    0.0339    2.8968 C   0  0  0  0  0  0  0  0  0  0  0  0
   -2.2313   -1.0620    3.5392 C   0  0  0  0  0  0  0  0  0  0  0  0
   -2.6048   -2.3441    3.1990 C   0  0  0  0  0  0  0  0  0  0  0  0
   -3.5551   -2.5748    2.2033 C   0  0  0  0  0  0  0  0  0  0  0  0
   -3.8175   -3.8817    1.9391 O   0  0  0  0  0  0  0  0  0  0  0  0
   -4.8396   -4.2270    1.0257 C   0  0  0  0  0  0  0  0  0  0  0  0
   -6.2356   -4.0667    1.6202 C   0  0  0  0  0  0  0  0  0  0  0  0
   -4.1227   -1.4802    1.5592 C   0  0  0  0  0  0  0  0  0  0  0  0
   -3.7379   -0.1978    1.9060 C   0  0  0  0  0  0  0  0  0  0  0  0
   -1.5240    1.6178    4.4303 C   0  0  0  0  0  0  0  0  0  0  0  0
   -2.0140    1.1684    5.6553 C   0  0  0  0  0  0  0  0  0  0  0  0
   -1.2820    1.3298    6.8090 C   0  0  0  0  0  0  0  0  0  0  0  0
   -0.0340    1.9582    6.7817 C   0  0  0  0  0  0  0  0  0  0  0  0
    0.6013    2.0455    7.9805 O   0  0  0  0  0  0  0  0  0  0  0  0
    1.8038    2.7793    8.0915 C   0  0  0  0  0  0  0  0  0  0  0  0
    1.5733    4.2878    8.0874 C   0  0  0  0  0  0  0  0  0  0  0  0
    0.4544    2.4126    5.5629 C   0  0  0  0  0  0  0  0  0  0  0  0
   -0.2887    2.2426    4.4052 C   0  0  0  0  0  0  0  0  0  0  0  0
   -1.7580    2.0797    1.9418 C   0  0  0  0  0  0  0  0  0  0  0  0
   -0.7062    1.5680    1.1541 C   0  0  0  0  0  0  0  0  0  0  0  0
   -0.0074    0.4010    1.4661 C   0  0  0  0  0  0  0  0  0  0  0  0
    0.8945   -0.1697    0.5776 C   0  0  0  0  0  0  0  0  0  0  0  0
    1.5093   -1.4190    0.8704 C   0  0  0  0  0  0  0  0  0  0  0  0
    2.2890   -2.0549   -0.0426 C   0  0  0  0  0  0  0  0  0  0  0  0
   -4.7046    2.4009    4.1770 C   0  0  0  0  0  0  0  0  0  0  0  0
   -5.5456    3.4697    3.8718 C   0  0  0  0  0  0  0  0  0  0  0  0
   -4.8822    4.4519    2.5564 S   0  0  0  0  0  0  0  0  0  0  0  0
   -6.7862    3.8834    4.3779 C   0  0  0  0  0  0  0  0  0  0  0  0
   -7.6551    3.2948    5.2645 C   0  0  0  0  0  0  0  0  0  0  0  0
   -7.5618    1.9667    5.9030 C   0  0  0  0  0  0  0  0  0  0  0  0
   -6.6389    1.1776    5.9110 O   0  0  0  0  0  0  0  0  0  0  0  0
   -8.8686    1.7507    6.5641 C   0  0  0  0  0  0  0  0  0  0  0  0
   -9.2975    0.6326    7.2484 C   0  0  0  0  0  0  0  0  0  0  0  0
  -10.5832    0.6578    7.7751 C   0  0  0  0  0  0  0  0  0  0  0  0
  -11.1754   -0.7127    8.6362 Cl  0  0  0  0  0  0  0  0  0  0  0  0
  -11.4031    1.7694    7.6172 C   0  0  0  0  0  0  0  0  0  0  0  0
  -10.9596    2.8897    6.9310 C   0  0  0  0  0  0  0  0  0  0  0  0
   -9.6786    2.8848    6.3974 C   0  0  0  0  0  0  0  0  0  0  0  0
   -8.9312    3.8831    5.6364 C   0  0  0  0  0  0  0  0  0  0  0  0
   -9.3717    5.1559    5.3775 C   0  0  0  0  0  0  0  0  0  0  0  0
   -8.6540    6.1739    4.7143 C   0  0  0  0  0  0  0  0  0  0  0  0
   -8.1478    7.0705    4.2042 N   0  0  0  0  0  0  0  0  0  0  0  0
  -10.6313    5.6509    5.7769 C   0  0  0  0  0  0  0  0  0  0  0  0
  -11.6395    6.1199    6.0632 N   0  0  0  0  0  0  0  0  0  0  0  0
    4.8741   -2.7768   -6.4859 H   0  0  0  0  0  0  0  0  0  0  0  0
    6.0103   -8.2281   -3.5709 H   0  0  0  0  0  0  0  0  0  0  0  0
    7.1083  -11.2218   -5.5058 H   0  0  0  0  0  0  0  0  0  0  0  0
    8.0918  -10.4034   -4.2937 H   0  0  0  0  0  0  0  0  0  0  0  0
    6.3793  -10.6727   -3.9864 H   0  0  0  0  0  0  0  0  0  0  0  0
    7.5169   -9.6600   -7.3138 H   0  0  0  0  0  0  0  0  0  0  0  0
    7.0669   -7.5079   -8.3708 H   0  0  0  0  0  0  0  0  0  0  0  0
    3.7920   -0.8777   -5.5542 H   0  0  0  0  0  0  0  0  0  0  0  0
    2.4117    1.2006   -5.5309 H   0  0  0  0  0  0  0  0  0  0  0  0
    0.6141    1.4601   -7.1285 H   0  0  0  0  0  0  0  0  0  0  0  0
   -1.2458    2.1457   -7.9947 H   0  0  0  0  0  0  0  0  0  0  0  0
   -2.8972    1.5375   -8.2263 H   0  0  0  0  0  0  0  0  0  0  0  0
   -2.0282   -0.7110   -8.7948 H   0  0  0  0  0  0  0  0  0  0  0  0
   -1.3376    0.5095   -9.8737 H   0  0  0  0  0  0  0  0  0  0  0  0
   -0.3686   -0.1660   -8.5566 H   0  0  0  0  0  0  0  0  0  0  0  0
   -2.1480   -0.1026   -4.2661 H   0  0  0  0  0  0  0  0  0  0  0  0
   -0.3199   -0.3830   -2.6554 H   0  0  0  0  0  0  0  0  0  0  0  0
    4.8853    0.3066   -2.1062 H   0  0  0  0  0  0  0  0  0  0  0  0
    6.4084    2.1711   -1.8993 H   0  0  0  0  0  0  0  0  0  0  0  0
    7.6373    3.8450   -2.5227 H   0  0  0  0  0  0  0  0  0  0  0  0
    7.5639    5.6182   -2.4824 H   0  0  0  0  0  0  0  0  0  0  0  0
    6.6024    5.5658   -0.2030 H   0  0  0  0  0  0  0  0  0  0  0  0
    6.6239    3.8028   -0.1972 H   0  0  0  0  0  0  0  0  0  0  0  0
    8.1470    4.7034   -0.2399 H   0  0  0  0  0  0  0  0  0  0  0  0
    3.4142    4.7875   -3.4636 H   0  0  0  0  0  0  0  0  0  0  0  0
    1.8774    2.8922   -3.6929 H   0  0  0  0  0  0  0  0  0  0  0  0
    0.7672    2.2303   -1.8504 H   0  0  0  0  0  0  0  0  0  0  0  0
   -0.7743    3.9882   -1.2888 H   0  0  0  0  0  0  0  0  0  0  0  0
   -2.6119    4.8517    0.1351 H   0  0  0  0  0  0  0  0  0  0  0  0
   -1.4934   -0.9195    4.3150 H   0  0  0  0  0  0  0  0  0  0  0  0
   -2.1672   -3.1967    3.6939 H   0  0  0  0  0  0  0  0  0  0  0  0
   -4.6523   -5.2801    0.7976 H   0  0  0  0  0  0  0  0  0  0  0  0
   -4.7402   -3.6519    0.0968 H   0  0  0  0  0  0  0  0  0  0  0  0
   -6.3235   -4.6717    2.5191 H   0  0  0  0  0  0  0  0  0  0  0  0
   -6.4289   -3.0300    1.8852 H   0  0  0  0  0  0  0  0  0  0  0  0
   -6.9807   -4.3931    0.9000 H   0  0  0  0  0  0  0  0  0  0  0  0
   -4.8589   -1.6056    0.7811 H   0  0  0  0  0  0  0  0  0  0  0  0
   -4.1845    0.6386    1.3871 H   0  0  0  0  0  0  0  0  0  0  0  0
   -2.9756    0.6814    5.7025 H   0  0  0  0  0  0  0  0  0  0  0  0
   -1.6569    0.9788    7.7572 H   0  0  0  0  0  0  0  0  0  0  0  0
    2.5103    2.4894    7.3038 H   0  0  0  0  0  0  0  0  0  0  0  0
    2.2194    2.4707    9.0549 H   0  0  0  0  0  0  0  0  0  0  0  0
    1.1311    4.6109    7.1480 H   0  0  0  0  0  0  0  0  0  0  0  0
    2.5188    4.8039    8.2295 H   0  0  0  0  0  0  0  0  0  0  0  0
    0.8978    4.5585    8.8949 H   0  0  0  0  0  0  0  0  0  0  0  0
    1.4128    2.9021    5.4892 H   0  0  0  0  0  0  0  0  0  0  0  0
    0.1162    2.6114    3.4748 H   0  0  0  0  0  0  0  0  0  0  0  0
   -0.2032   -0.0973    2.4018 H   0  0  0  0  0  0  0  0  0  0  0  0
    1.3087   -1.8661    1.8328 H   0  0  0  0  0  0  0  0  0  0  0  0
    2.7369   -3.0159    0.1581 H   0  0  0  0  0  0  0  0  0  0  0  0
   -4.9469    1.6933    4.9467 H   0  0  0  0  0  0  0  0  0  0  0  0
   -7.1227    4.8200    3.9483 H   0  0  0  0  0  0  0  0  0  0  0  0
   -8.6523   -0.2240    7.3629 H   0  0  0  0  0  0  0  0  0  0  0  0
  -12.3976    1.7569    8.0347 H   0  0  0  0  0  0  0  0  0  0  0  0
  -11.6168    3.7362    6.8209 H   0  0  0  0  0  0  0  0  0  0  0  0
  1  2  2  0  0  0  0
  2  3  1  0  0  0  0
  3  4  2  0  0  0  0
  3  5  1  0  0  0  0
  5  6  2  0  0  0  0
  6  7  1  0  0  0  0
  7  8  1  0  0  0  0
  7  9  2  0  0  0  0
  9 10  1  0  0  0  0
 10 11  2  0  0  0  0
 11 12  1  0  0  0  0
 12 13  2  0  0  0  0
 13 14  1  0  0  0  0
 14 15  3  0  0  0  0
 13 16  1  0  0  0  0
 16 17  3  0  0  0  0
  1 18  1  0  0  0  0
 18 19  1  0  0  0  0
 19 20  1  0  0  0  0
 20 21  1  0  0  0  0
 21 22  2  0  0  0  0
 22 23  1  0  0  0  0
 23 24  1  0  0  0  0
 24 25  1  0  0  0  0
 23 26  1  0  0  0  0
 26 27  2  0  0  0  0
 27 28  1  0  0  0  0
 28 29  2  0  0  0  0
 29 30  1  0  0  0  0
 30 31  1  0  0  0  0
 31 32  1  0  0  0  0
 29 33  1  0  0  0  0
 33 34  2  0  0  0  0
 23 35  1  0  0  0  0
 35 36  2  0  0  0  0
 36 37  1  0  0  0  0
 37 38  2  0  0  0  0
 38 39  1  0  0  0  0
 39 40  1  0  0  0  0
 40 41  1  0  0  0  0
 38 42  1  0  0  0  0
 42 43  2  0  0  0  0
 22 44  1  0  0  0  0
 44 45  2  0  0  0  0
 45 46  1  0  0  0  0
 46 47  2  0  0  0  0
 47 48  1  0  0  0  0
 48 49  2  0  0  0  0
 49 50  1  0  0  0  0
 50 51  2  0  0  0  0
 51 52  1  0  0  0  0
 52 53  1  0  0  0  0
 53 54  2  0  0  0  0
 54 55  1  0  0  0  0
 55 56  2  0  0  0  0
 56 57  1  0  0  0  0
 57 58  1  0  0  0  0
 58 59  1  0  0  0  0
 56 60  1  0  0  0  0
 60 61  2  0  0  0  0
 52 62  1  0  0  0  0
 62 63  2  0  0  0  0
 63 64  1  0  0  0  0
 64 65  2  0  0  0  0
 65 66  1  0  0  0  0
 66 67  1  0  0  0  0
 67 68  1  0  0  0  0
 65 69  1  0  0  0  0
 69 70  2  0  0  0  0
 52 71  1  0  0  0  0
 71 72  2  0  0  0  0
 72 73  1  0  0  0  0
 73 74  2  0  0  0  0
 74 75  1  0  0  0  0
 75 76  2  0  0  0  0
 51 77  1  0  0  0  0
 77 78  2  0  0  0  0
 78 79  1  0  0  0  0
 78 80  1  0  0  0  0
 80 81  2  0  0  0  0
 81 82  1  0  0  0  0
 82 83  2  0  0  0  0
 82 84  1  0  0  0  0
 84 85  2  0  0  0  0
 85 86  1  0  0  0  0
 86 87  1  0  0  0  0
 86 88  2  0  0  0  0
 88 89  1  0  0  0  0
 89 90  2  0  0  0  0
 90 91  1  0  0  0  0
 91 92  2  0  0  0  0
 92 93  1  0  0  0  0
 93 94  3  0  0  0  0
 92 95  1  0  0  0  0
 95 96  3  0  0  0  0
 12  2  1  0  0  0  0
 25 18  2  0  0  0  0
 34 26  1  0  0  0  0
 43 35  1  0  0  0  0
 74 44  1  0  0  0  0
 91 81  1  0  0  0  0
 11  5  1  0  0  0  0
 24 20  2  0  0  0  0
 72 46  1  0  0  0  0
 90 84  1  0  0  0  0
 76 21  1  0  0  0  0
 71 49  1  0  0  0  0
 79 50  1  0  0  0  0
 61 53  1  0  0  0  0
 70 62  1  0  0  0  0
  1 97  1  0  0  0  0
  6 98  1  0  0  0  0
  8 99  1  0  0  0  0
  8100  1  0  0  0  0
  8101  1  0  0  0  0
  9102  1  0  0  0  0
 10103  1  0  0  0  0
 25104  1  0  0  0  0
 27105  1  0  0  0  0
 28106  1  0  0  0  0
 31107  1  0  0  0  0
 31108  1  0  0  0  0
 32109  1  0  0  0  0
 32110  1  0  0  0  0
 32111  1  0  0  0  0
 33112  1  0  0  0  0
 34113  1  0  0  0  0
 36114  1  0  0  0  0
 37115  1  0  0  0  0
 40116  1  0  0  0  0
 40117  1  0  0  0  0
 41118  1  0  0  0  0
 41119  1  0  0  0  0
 41120  1  0  0  0  0
 42121  1  0  0  0  0
 43122  1  0  0  0  0
 45123  1  0  0  0  0
 47124  1  0  0  0  0
 48125  1  0  0  0  0
 54126  1  0  0  0  0
 55127  1  0  0  0  0
 58128  1  0  0  0  0
 58129  1  0  0  0  0
 59130  1  0  0  0  0
 59131  1  0  0  0  0
 59132  1  0  0  0  0
 60133  1  0  0  0  0
 61134  1  0  0  0  0
 63135  1  0  0  0  0
 64136  1  0  0  0  0
 67137  1  0  0  0  0
 67138  1  0  0  0  0
 68139  1  0  0  0  0
 68140  1  0  0  0  0
 68141  1  0  0  0  0
 69142  1  0  0  0  0
 70143  1  0  0  0  0
 73144  1  0  0  0  0
 75145  1  0  0  0  0
 76146  1  0  0  0  0
 77147  1  0  0  0  0
 80148  1  0  0  0  0
 85149  1  0  0  0  0
 88150  1  0  0  0  0
 89151  1  0  0  0  0
M  END
