151

C          4.83760       -3.38710       -5.59140
C          5.33940       -4.66010       -5.69680
C          5.40470       -5.65120       -4.61670
O          5.05530       -5.51310       -3.45720
C          5.99060       -6.86580       -5.21210
C          6.24530       -8.08150       -4.61460
C          6.80140       -9.10570       -5.37950
C          7.10580      -10.43180       -4.75900
C          7.08560       -8.86610       -6.72140
C          6.83180       -7.64420       -7.32800
C          6.27510       -6.62740       -6.56820
C          5.88070       -5.26040       -6.90090
C          5.99850       -4.68560       -8.14100
C          6.53620       -5.34150       -9.26800
N          6.96230       -5.81030      -10.22580
C          5.60520       -3.37760       -8.48990
N          5.30990       -2.33150       -8.86380
C          4.24140       -2.72630       -4.51010
S          3.98050       -3.37590       -2.89700
C          3.18160       -1.93420       -2.45160
C          2.49440       -1.44480       -1.29850
C          1.96760       -0.19360       -1.60640
C          2.35410        0.23200       -3.01700
C          3.11960       -0.98850       -3.47650
C          3.72170       -1.42850       -4.63350
C          1.18370        0.41970       -3.96230
C          1.41180        0.91420       -5.23980
C          0.38370        1.06310       -6.15260
C         -0.91490        0.70570       -5.80290
O         -2.01660        0.83080       -6.58910
C         -1.88270        1.25480       -7.93130
C         -1.36690        0.15020       -8.84880
C         -1.14200        0.18390       -4.52880
C         -0.10940        0.03600       -3.62730
C          3.26870        1.44620       -2.92260
C          4.54960        1.28640       -2.41360
C          5.42020        2.35440       -2.29060
C          5.01760        3.62900       -2.67480
O          5.77840        4.75430       -2.63550
C          7.09090        4.70360       -2.11340
C          7.11770        4.68930       -0.58770
C          3.72350        3.79680       -3.17000
C          2.86550        2.72500       -3.29010
C          1.15620        0.48560       -0.67390
C          0.54430        1.71390       -0.93130
C         -0.38820        2.26380       -0.06170
C         -1.06550        3.47310       -0.38520
C         -2.07390        3.95130        0.38970
C         -2.44430        3.22250        1.54050
C         -3.55100        3.39550        2.42570
C         -3.58930        2.36310        3.36320
C         -2.38350        1.46810        3.18750
C         -2.79520        0.03390        2.89680
C         -2.23130       -1.06200        3.53920
C         -2.60480       -2.34410        3.19900
C         -3.55510       -2.57480        2.20330
O         -3.81750       -3.88170        1.93910
C         -4.83960       -4.22700        1.02570
C         -6.23560       -4.06670        1.62020
C         -4.12270       -1.48020        1.55920
C         -3.73790       -0.19780        1.90600
C         -1.52400        1.61780        4.43030
C         -2.01400        1.16840        5.65530
C         -1.28200        1.32980        6.80900
C         -0.03400        1.95820        6.78170
O          0.60130        2.04550        7.98050
C          1.80380        2.77930        8.09150
C          1.57330        4.28780        8.08740
C          0.45440        2.41260        5.56290
C         -0.28870        2.24260        4.40520
C         -1.75800        2.07970        1.94180
C         -0.70620        1.56800        1.15410
C         -0.00740        0.40100        1.46610
C          0.89450       -0.16970        0.57760
C          1.50930       -1.41900        0.87040
C          2.28900       -2.05490       -0.04260
C         -4.70460        2.40090        4.17700
C         -5.54560        3.46970        3.87180
S         -4.88220        4.45190        2.55640
C         -6.78620        3.88340        4.37790
C         -7.65510        3.29480        5.26450
C         -7.56180        1.96670        5.90300
O         -6.63890        1.17760        5.91100
C         -8.86860        1.75070        6.56410
C         -9.29750        0.63260        7.24840
C        -10.58320        0.65780        7.77510
Cl       -11.17540       -0.71270        8.63620
C        -11.40310        1.76940        7.61720
C        -10.95960        2.88970        6.93100
C         -9.67860        2.88480        6.39740
C         -8.93120        3.88310        5.63640
C         -9.37170        5.15590        5.37750
C         -8.65400        6.17390        4.71430
N         -8.14780        7.07050        4.20420
C        -10.63130        5.65090        5.77690
N        -11.63950        6.11990        6.06320
H          4.87410       -2.77680       -6.48590
H          6.01030       -8.22810       -3.57090
H          7.10830      -11.22180       -5.50580
H          8.09180      -10.40340       -4.29370
H          6.37930      -10.67270       -3.98640
H          7.51690       -9.66000       -7.31380
H          7.06690       -7.50790       -8.37080
H          3.79200       -0.87770       -5.55420
H          2.41170        1.20060       -5.53090
H          0.61410        1.46010       -7.12850
H         -1.24580        2.14570       -7.99470
H         -2.89720        1.53750       -8.22630
H         -2.02820       -0.71100       -8.79480
H         -1.33760        0.50950       -9.87370
H         -0.36860       -0.16600       -8.55660
H         -2.14800       -0.10260       -4.26610
H         -0.31990       -0.38300       -2.65540
H          4.88530        0.30660       -2.10620
H          6.40840        2.17110       -1.89930
H          7.63730        3.84500       -2.52270
H          7.56390        5.61820       -2.48240
H          6.60240        5.56580       -0.20300
H          6.62390        3.80280       -0.19720
H          8.14700        4.70340       -0.23990
H          3.41420        4.78750       -3.46360
H          1.87740        2.89220       -3.69290
H          0.76720        2.23030       -1.85040
H         -0.77430        3.98820       -1.28880
H         -2.61190        4.85170        0.13510
H         -1.49340       -0.91950        4.31500
H         -2.16720       -3.19670        3.69390
H         -4.65230       -5.28010        0.79760
H         -4.74020       -3.65190        0.09680
H         -6.32350       -4.67170        2.51910
H         -6.42890       -3.03000        1.88520
H         -6.98070       -4.39310        0.90000
H         -4.85890       -1.60560        0.78110
H         -4.18450        0.63860        1.38710
H         -2.97560        0.68140        5.70250
H         -1.65690        0.97880        7.75720
H          2.51030        2.48940        7.30380
H          2.21940        2.47070        9.05490
H          1.13110        4.61090        7.14800
H          2.51880        4.80390        8.22950
H          0.89780        4.55850        8.89490
H          1.41280        2.90210        5.48920
H          0.11620        2.61140        3.47480
H         -0.20320       -0.09730        2.40180
H          1.30870       -1.86610        1.83280
H          2.73690       -3.01590        0.15810
H         -4.94690        1.69330        4.94670
H         -7.12270        4.82000        3.94830
H         -8.65230       -0.22400        7.36290
H        -12.39760        1.75690        8.03470
H        -11.61680        3.73620        6.82090
