
  xtb     02022200373D
 energy: -214.898535780936 gnorm: 0.000634689217 xtb: 6.4.1 (unknown)
120133  0     0  0            999 V2000
   -4.3645    3.4337    5.4226 C   0  0  0  0  0  0  0  0  0  0  0  0
   -4.4566    4.7679    5.1207 C   0  0  0  0  0  0  0  0  0  0  0  0
   -3.8940    5.4233    3.9359 C   0  0  0  0  0  0  0  0  0  0  0  0
   -3.1891    4.9237    3.0744 O   0  0  0  0  0  0  0  0  0  0  0  0
   -4.3593    6.8202    3.9832 C   0  0  0  0  0  0  0  0  0  0  0  0
   -4.1268    7.8388    3.0824 C   0  0  0  0  0  0  0  0  0  0  0  0
   -4.6755    9.0949    3.3294 C   0  0  0  0  0  0  0  0  0  0  0  0
   -4.4652   10.2245    2.3723 C   0  0  0  0  0  0  0  0  0  0  0  0
   -5.4433    9.2821    4.4775 C   0  0  0  0  0  0  0  0  0  0  0  0
   -5.6791    8.2630    5.3877 C   0  0  0  0  0  0  0  0  0  0  0  0
   -5.1311    7.0132    5.1425 C   0  0  0  0  0  0  0  0  0  0  0  0
   -5.1803    5.7605    5.8920 C   0  0  0  0  0  0  0  0  0  0  0  0
   -5.7657    5.5930    7.1202 C   0  0  0  0  0  0  0  0  0  0  0  0
   -5.7456    4.4141    7.8944 C   0  0  0  0  0  0  0  0  0  0  0  0
   -5.7615    3.5102    8.6037 N   0  0  0  0  0  0  0  0  0  0  0  0
   -6.4536    6.6135    7.8101 C   0  0  0  0  0  0  0  0  0  0  0  0
   -7.0293    7.3957    8.4225 N   0  0  0  0  0  0  0  0  0  0  0  0
   -3.6901    2.3969    4.7648 C   0  0  0  0  0  0  0  0  0  0  0  0
   -3.7311    1.0750    5.2376 C   0  0  0  0  0  0  0  0  0  0  0  0
   -4.4794    0.6421    6.4278 C   0  0  0  0  0  0  0  0  0  0  0  0
   -5.6376   -0.1042    6.2335 C   0  0  0  0  0  0  0  0  0  0  0  0
   -6.3869   -0.5289    7.3132 C   0  0  0  0  0  0  0  0  0  0  0  0
   -5.9762   -0.2151    8.5974 C   0  0  0  0  0  0  0  0  0  0  0  0
   -4.8150    0.5085    8.7928 C   0  0  0  0  0  0  0  0  0  0  0  0
   -4.0505    0.9487    7.7210 C   0  0  0  0  0  0  0  0  0  0  0  0
   -2.7495    1.6567    7.9724 C   0  0  0  0  0  0  0  0  0  0  0  0
   -1.6015    0.6455    8.0124 C   0  0  0  0  0  0  0  0  0  0  0  0
   -3.0115    0.2139    4.4189 C   0  0  0  0  0  0  0  0  0  0  0  0
   -2.6974   -1.5080    4.5011 S   0  0  0  0  0  0  0  0  0  0  0  0
   -1.7429   -1.3642    3.0647 C   0  0  0  0  0  0  0  0  0  0  0  0
   -0.9436   -2.1668    2.2391 C   0  0  0  0  0  0  0  0  0  0  0  0
   -0.5059   -3.5054    2.3666 C   0  0  0  0  0  0  0  0  0  0  0  0
    0.4985   -4.0019    1.4674 C   0  0  0  0  0  0  0  0  0  0  0  0
    0.8701   -5.2381    1.7585 N   0  0  0  0  0  0  0  0  0  0  0  0
    0.0264   -5.7394    3.0455 S   0  0  0  0  0  0  0  0  0  0  0  0
   -0.8441   -4.3968    3.2844 N   0  0  0  0  0  0  0  0  0  0  0  0
    0.9163   -3.1851    0.3924 C   0  0  0  0  0  0  0  0  0  0  0  0
    1.7993   -3.4055   -0.6760 C   0  0  0  0  0  0  0  0  0  0  0  0
    2.9213   -4.6038   -1.2164 S   0  0  0  0  0  0  0  0  0  0  0  0
    3.2987   -3.5918   -2.5907 C   0  0  0  0  0  0  0  0  0  0  0  0
    4.1801   -3.7400   -3.6610 C   0  0  0  0  0  0  0  0  0  0  0  0
    5.0907   -4.8819   -3.8500 C   0  0  0  0  0  0  0  0  0  0  0  0
    4.7350   -5.9675   -4.6496 C   0  0  0  0  0  0  0  0  0  0  0  0
    3.3925   -6.0391   -5.3213 C   0  0  0  0  0  0  0  0  0  0  0  0
    2.3913   -6.7919   -4.4428 C   0  0  0  0  0  0  0  0  0  0  0  0
    5.6376   -7.0150   -4.7804 C   0  0  0  0  0  0  0  0  0  0  0  0
    6.8625   -6.9879   -4.1397 C   0  0  0  0  0  0  0  0  0  0  0  0
    7.2078   -5.9027   -3.3519 C   0  0  0  0  0  0  0  0  0  0  0  0
    6.3239   -4.8503   -3.2087 C   0  0  0  0  0  0  0  0  0  0  0  0
    4.1758   -2.6227   -4.4926 C   0  0  0  0  0  0  0  0  0  0  0  0
    3.0068   -1.4104   -3.9636 S   0  0  0  0  0  0  0  0  0  0  0  0
    2.5734   -2.3888   -2.6117 C   0  0  0  0  0  0  0  0  0  0  0  0
    1.7166   -2.2851   -1.5175 C   0  0  0  0  0  0  0  0  0  0  0  0
    0.8247   -1.3780   -1.0030 N   0  0  0  0  0  0  0  0  0  0  0  0
    0.3563   -1.8930    0.1916 C   0  0  0  0  0  0  0  0  0  0  0  0
   -0.4554   -1.3229    1.2006 C   0  0  0  0  0  0  0  0  0  0  0  0
   -0.9014   -0.0319    1.4250 N   0  0  0  0  0  0  0  0  0  0  0  0
   -1.6790   -0.0605    2.5531 C   0  0  0  0  0  0  0  0  0  0  0  0
   -2.3967    0.8548    3.3293 C   0  0  0  0  0  0  0  0  0  0  0  0
   -2.7285    2.5486    3.2968 S   0  0  0  0  0  0  0  0  0  0  0  0
   -0.3350    1.2283    0.9805 C   0  0  0  0  0  0  0  0  0  0  0  0
    1.1809    1.2623    1.1389 C   0  0  0  0  0  0  0  0  0  0  0  0
    0.1388   -0.4461   -1.8715 C   0  0  0  0  0  0  0  0  0  0  0  0
   -0.5527   -1.1669   -3.0282 C   0  0  0  0  0  0  0  0  0  0  0  0
    4.9370   -2.4817   -5.6664 C   0  0  0  0  0  0  0  0  0  0  0  0
    5.2250   -1.3437   -6.3665 C   0  0  0  0  0  0  0  0  0  0  0  0
    5.5825   -1.4237   -7.8016 C   0  0  0  0  0  0  0  0  0  0  0  0
    5.8617   -2.4183   -8.4289 O   0  0  0  0  0  0  0  0  0  0  0  0
    5.4595   -0.0311   -8.3012 C   0  0  0  0  0  0  0  0  0  0  0  0
    5.1758    0.8315   -7.2245 C   0  0  0  0  0  0  0  0  0  0  0  0
    4.9899    2.1859   -7.4420 C   0  0  0  0  0  0  0  0  0  0  0  0
    5.0917    2.6670   -8.7391 C   0  0  0  0  0  0  0  0  0  0  0  0
    5.3823    1.8191   -9.7968 C   0  0  0  0  0  0  0  0  0  0  0  0
    5.5175    2.5392  -11.5388 Br  0  0  0  0  0  0  0  0  0  0  0  0
    5.5726    0.4466   -9.5968 C   0  0  0  0  0  0  0  0  0  0  0  0
    5.9339   -0.6003  -10.9019 Cl  0  0  0  0  0  0  0  0  0  0  0  0
    5.1717    0.0467   -5.9916 C   0  0  0  0  0  0  0  0  0  0  0  0
    5.3787    0.5490   -4.7307 C   0  0  0  0  0  0  0  0  0  0  0  0
    5.7160   -0.2689   -3.6326 C   0  0  0  0  0  0  0  0  0  0  0  0
    6.0502   -0.9025   -2.7352 N   0  0  0  0  0  0  0  0  0  0  0  0
    5.3704    1.9202   -4.4143 C   0  0  0  0  0  0  0  0  0  0  0  0
    5.3342    3.0241   -4.0999 N   0  0  0  0  0  0  0  0  0  0  0  0
   -4.8965    3.0925    6.3036 H   0  0  0  0  0  0  0  0  0  0  0  0
   -3.5261    7.6534    2.2045 H   0  0  0  0  0  0  0  0  0  0  0  0
   -4.2856   11.1550    2.9065 H   0  0  0  0  0  0  0  0  0  0  0  0
   -3.6250   10.0250    1.7124 H   0  0  0  0  0  0  0  0  0  0  0  0
   -5.3563   10.3604    1.7588 H   0  0  0  0  0  0  0  0  0  0  0  0
   -5.8692   10.2570    4.6656 H   0  0  0  0  0  0  0  0  0  0  0  0
   -6.2800    8.4550    6.2613 H   0  0  0  0  0  0  0  0  0  0  0  0
   -5.9506   -0.3370    5.2256 H   0  0  0  0  0  0  0  0  0  0  0  0
   -7.2887   -1.0998    7.1509 H   0  0  0  0  0  0  0  0  0  0  0  0
   -6.5599   -0.5369    9.4465 H   0  0  0  0  0  0  0  0  0  0  0  0
   -4.4945    0.7480    9.7954 H   0  0  0  0  0  0  0  0  0  0  0  0
   -2.5498    2.3935    7.1927 H   0  0  0  0  0  0  0  0  0  0  0  0
   -2.8052    2.1826    8.9267 H   0  0  0  0  0  0  0  0  0  0  0  0
   -1.5248    0.1189    7.0634 H   0  0  0  0  0  0  0  0  0  0  0  0
   -0.6577    1.1497    8.2070 H   0  0  0  0  0  0  0  0  0  0  0  0
   -1.7719   -0.0891    8.7959 H   0  0  0  0  0  0  0  0  0  0  0  0
    3.4920   -6.5588   -6.2765 H   0  0  0  0  0  0  0  0  0  0  0  0
    3.0142   -5.0342   -5.5202 H   0  0  0  0  0  0  0  0  0  0  0  0
    2.2678   -6.2890   -3.4866 H   0  0  0  0  0  0  0  0  0  0  0  0
    1.4229   -6.8476   -4.9347 H   0  0  0  0  0  0  0  0  0  0  0  0
    2.7425   -7.8029   -4.2512 H   0  0  0  0  0  0  0  0  0  0  0  0
    5.3725   -7.8604   -5.3989 H   0  0  0  0  0  0  0  0  0  0  0  0
    7.5498   -7.8123   -4.2575 H   0  0  0  0  0  0  0  0  0  0  0  0
    8.1642   -5.8735   -2.8524 H   0  0  0  0  0  0  0  0  0  0  0  0
    6.5807   -3.9924   -2.6050 H   0  0  0  0  0  0  0  0  0  0  0  0
   -0.7835    2.0018    1.6084 H   0  0  0  0  0  0  0  0  0  0  0  0
   -0.6166    1.4539   -0.0506 H   0  0  0  0  0  0  0  0  0  0  0  0
    1.4543    1.0575    2.1713 H   0  0  0  0  0  0  0  0  0  0  0  0
    1.6642    0.5271    0.5016 H   0  0  0  0  0  0  0  0  0  0  0  0
    1.5501    2.2482    0.8715 H   0  0  0  0  0  0  0  0  0  0  0  0
    0.8604    0.2804   -2.2584 H   0  0  0  0  0  0  0  0  0  0  0  0
   -0.6220    0.0659   -1.2896 H   0  0  0  0  0  0  0  0  0  0  0  0
    0.1690   -1.6450   -3.6839 H   0  0  0  0  0  0  0  0  0  0  0  0
   -1.2331   -1.9249   -2.6452 H   0  0  0  0  0  0  0  0  0  0  0  0
   -1.1230   -0.4494   -3.6116 H   0  0  0  0  0  0  0  0  0  0  0  0
    5.2762   -3.4102   -6.1167 H   0  0  0  0  0  0  0  0  0  0  0  0
    4.7611    2.8621   -6.6347 H   0  0  0  0  0  0  0  0  0  0  0  0
    4.9453    3.7179   -8.9359 H   0  0  0  0  0  0  0  0  0  0  0  0
  1  2  2  0  0  0  0
  2  3  1  0  0  0  0
  3  4  2  0  0  0  0
  3  5  1  0  0  0  0
  5  6  2  0  0  0  0
  6  7  1  0  0  0  0
  7  8  1  0  0  0  0
  7  9  2  0  0  0  0
  9 10  1  0  0  0  0
 10 11  2  0  0  0  0
 11 12  1  0  0  0  0
 12 13  2  0  0  0  0
 13 14  1  0  0  0  0
 14 15  3  0  0  0  0
 13 16  1  0  0  0  0
 16 17  3  0  0  0  0
  1 18  1  0  0  0  0
 18 19  2  0  0  0  0
 19 20  1  0  0  0  0
 20 21  2  0  0  0  0
 21 22  1  0  0  0  0
 22 23  2  0  0  0  0
 23 24  1  0  0  0  0
 24 25  2  0  0  0  0
 25 26  1  0  0  0  0
 26 27  1  0  0  0  0
 19 28  1  0  0  0  0
 28 29  1  0  0  0  0
 29 30  1  0  0  0  0
 30 31  1  0  0  0  0
 31 32  1  0  0  0  0
 32 33  1  0  0  0  0
 33 34  2  0  0  0  0
 34 35  1  0  0  0  0
 35 36  1  0  0  0  0
 33 37  1  0  0  0  0
 37 38  1  0  0  0  0
 38 39  1  0  0  0  0
 39 40  1  0  0  0  0
 40 41  1  0  0  0  0
 41 42  1  0  0  0  0
 42 43  2  0  0  0  0
 43 44  1  0  0  0  0
 44 45  1  0  0  0  0
 43 46  1  0  0  0  0
 46 47  2  0  0  0  0
 47 48  1  0  0  0  0
 48 49  2  0  0  0  0
 41 50  2  0  0  0  0
 50 51  1  0  0  0  0
 51 52  1  0  0  0  0
 52 53  1  0  0  0  0
 53 54  1  0  0  0  0
 54 55  1  0  0  0  0
 55 56  1  0  0  0  0
 56 57  1  0  0  0  0
 57 58  1  0  0  0  0
 58 59  1  0  0  0  0
 59 60  1  0  0  0  0
 57 61  1  0  0  0  0
 61 62  1  0  0  0  0
 54 63  1  0  0  0  0
 63 64  1  0  0  0  0
 50 65  1  0  0  0  0
 65 66  2  0  0  0  0
 66 67  1  0  0  0  0
 67 68  2  0  0  0  0
 67 69  1  0  0  0  0
 69 70  2  0  0  0  0
 70 71  1  0  0  0  0
 71 72  2  0  0  0  0
 72 73  1  0  0  0  0
 73 74  1  0  0  0  0
 73 75  2  0  0  0  0
 75 76  1  0  0  0  0
 70 77  1  0  0  0  0
 77 78  2  0  0  0  0
 78 79  1  0  0  0  0
 79 80  3  0  0  0  0
 78 81  1  0  0  0  0
 81 82  3  0  0  0  0
 12  2  1  0  0  0  0
 60 18  1  0  0  0  0
 77 66  1  0  0  0  0
 11  5  1  0  0  0  0
 25 20  1  0  0  0  0
 59 28  2  0  0  0  0
 75 69  1  0  0  0  0
 58 30  2  0  0  0  0
 56 31  2  0  0  0  0
 36 32  2  0  0  0  0
 55 37  2  0  0  0  0
 53 38  2  0  0  0  0
 52 40  2  0  0  0  0
 49 42  1  0  0  0  0
  1 83  1  0  0  0  0
  6 84  1  0  0  0  0
  8 85  1  0  0  0  0
  8 86  1  0  0  0  0
  8 87  1  0  0  0  0
  9 88  1  0  0  0  0
 10 89  1  0  0  0  0
 21 90  1  0  0  0  0
 22 91  1  0  0  0  0
 23 92  1  0  0  0  0
 24 93  1  0  0  0  0
 26 94  1  0  0  0  0
 26 95  1  0  0  0  0
 27 96  1  0  0  0  0
 27 97  1  0  0  0  0
 27 98  1  0  0  0  0
 44 99  1  0  0  0  0
 44100  1  0  0  0  0
 45101  1  0  0  0  0
 45102  1  0  0  0  0
 45103  1  0  0  0  0
 46104  1  0  0  0  0
 47105  1  0  0  0  0
 48106  1  0  0  0  0
 49107  1  0  0  0  0
 61108  1  0  0  0  0
 61109  1  0  0  0  0
 62110  1  0  0  0  0
 62111  1  0  0  0  0
 62112  1  0  0  0  0
 63113  1  0  0  0  0
 63114  1  0  0  0  0
 64115  1  0  0  0  0
 64116  1  0  0  0  0
 64117  1  0  0  0  0
 65118  1  0  0  0  0
 71119  1  0  0  0  0
 72120  1  0  0  0  0
M  END
