
  xtb     02102218583D
 energy: -210.456315697183 gnorm: 0.000627362726 xtb: 6.4.1 (unknown)
123136  0     0  0            999 V2000
   -6.0618   -0.9845   -5.8138 C   0  0  0  0  0  0  0  0  0  0  0  0
   -5.8248   -2.1973   -6.4102 C   0  0  0  0  0  0  0  0  0  0  0  0
   -4.7929   -3.1608   -6.0196 C   0  0  0  0  0  0  0  0  0  0  0  0
   -3.9492   -3.0353   -5.1466 O   0  0  0  0  0  0  0  0  0  0  0  0
   -4.9773   -4.3326   -6.8943 C   0  0  0  0  0  0  0  0  0  0  0  0
   -4.2674   -5.5140   -6.9168 C   0  0  0  0  0  0  0  0  0  0  0  0
   -4.6195   -6.4957   -7.8420 C   0  0  0  0  0  0  0  0  0  0  0  0
   -3.8840   -7.7975   -7.8778 C   0  0  0  0  0  0  0  0  0  0  0  0
   -5.6772   -6.2517   -8.7137 C   0  0  0  0  0  0  0  0  0  0  0  0
   -6.3953   -5.0643   -8.6964 C   0  0  0  0  0  0  0  0  0  0  0  0
   -6.0451   -4.0887   -7.7767 C   0  0  0  0  0  0  0  0  0  0  0  0
   -6.5846   -2.7571   -7.5101 C   0  0  0  0  0  0  0  0  0  0  0  0
   -7.6078   -2.1619   -8.2029 C   0  0  0  0  0  0  0  0  0  0  0  0
   -8.3045   -2.7804   -9.2621 C   0  0  0  0  0  0  0  0  0  0  0  0
   -8.9112   -3.2250  -10.1297 N   0  0  0  0  0  0  0  0  0  0  0  0
   -8.1109   -0.8615   -7.9885 C   0  0  0  0  0  0  0  0  0  0  0  0
   -8.5742    0.1862   -7.8972 N   0  0  0  0  0  0  0  0  0  0  0  0
   -5.3984   -0.3423   -4.7632 C   0  0  0  0  0  0  0  0  0  0  0  0
   -5.8168    0.9129   -4.2889 C   0  0  0  0  0  0  0  0  0  0  0  0
   -7.0165    1.5976   -4.8017 C   0  0  0  0  0  0  0  0  0  0  0  0
   -8.2625    1.1657   -4.3560 C   0  0  0  0  0  0  0  0  0  0  0  0
   -9.4181    1.7623   -4.8193 C   0  0  0  0  0  0  0  0  0  0  0  0
   -9.3352    2.7891   -5.7441 C   0  0  0  0  0  0  0  0  0  0  0  0
   -8.0998    3.2127   -6.1933 C   0  0  0  0  0  0  0  0  0  0  0  0
   -6.9254    2.6313   -5.7326 C   0  0  0  0  0  0  0  0  0  0  0  0
   -5.6008    3.1238   -6.2450 C   0  0  0  0  0  0  0  0  0  0  0  0
   -5.2568    4.4927   -5.6561 C   0  0  0  0  0  0  0  0  0  0  0  0
   -4.9927    1.3803   -3.2745 C   0  0  0  0  0  0  0  0  0  0  0  0
   -5.0100    2.8407   -2.3049 S   0  0  0  0  0  0  0  0  0  0  0  0
   -3.5937    2.2741   -1.4894 C   0  0  0  0  0  0  0  0  0  0  0  0
   -2.6886    2.7067   -0.5139 C   0  0  0  0  0  0  0  0  0  0  0  0
   -2.6109    3.9378    0.1732 C   0  0  0  0  0  0  0  0  0  0  0  0
   -1.5017    4.1698    1.0472 C   0  0  0  0  0  0  0  0  0  0  0  0
   -1.5268    5.3767    1.5900 N   0  0  0  0  0  0  0  0  0  0  0  0
   -2.8400    6.1538    1.0474 S   0  0  0  0  0  0  0  0  0  0  0  0
   -3.4246    4.9790    0.0982 N   0  0  0  0  0  0  0  0  0  0  0  0
   -0.5735    3.1268    1.2589 C   0  0  0  0  0  0  0  0  0  0  0  0
    0.5220    3.0568    2.1267 C   0  0  0  0  0  0  0  0  0  0  0  0
    1.3520    4.0558    3.2707 S   0  0  0  0  0  0  0  0  0  0  0  0
    2.4002    2.6983    3.6349 C   0  0  0  0  0  0  0  0  0  0  0  0
    3.4463    2.5383    4.5328 C   0  0  0  0  0  0  0  0  0  0  0  0
    3.9497    3.6076    5.4088 C   0  0  0  0  0  0  0  0  0  0  0  0
    3.7232    3.5971    6.7870 C   0  0  0  0  0  0  0  0  0  0  0  0
    2.8716    2.5426    7.4351 C   0  0  0  0  0  0  0  0  0  0  0  0
    1.3927    2.9209    7.3255 C   0  0  0  0  0  0  0  0  0  0  0  0
    4.2356    4.6377    7.5492 C   0  0  0  0  0  0  0  0  0  0  0  0
    4.9554    5.6654    6.9695 C   0  0  0  0  0  0  0  0  0  0  0  0
    5.1612    5.6784    5.6008 C   0  0  0  0  0  0  0  0  0  0  0  0
    4.6562    4.6538    4.8242 C   0  0  0  0  0  0  0  0  0  0  0  0
    3.9866    1.2418    4.4772 C   0  0  0  0  0  0  0  0  0  0  0  0
    3.1563    0.2270    3.3012 S   0  0  0  0  0  0  0  0  0  0  0  0
    2.1071    1.5368    2.8974 C   0  0  0  0  0  0  0  0  0  0  0  0
    1.0349    1.7581    2.0285 C   0  0  0  0  0  0  0  0  0  0  0  0
    0.3022    1.0359    1.1270 N   0  0  0  0  0  0  0  0  0  0  0  0
   -0.6860    1.8552    0.6155 C   0  0  0  0  0  0  0  0  0  0  0  0
   -1.7141    1.6733   -0.3527 C   0  0  0  0  0  0  0  0  0  0  0  0
   -2.0167    0.6661   -1.2492 N   0  0  0  0  0  0  0  0  0  0  0  0
   -3.1499    1.0215   -1.9281 C   0  0  0  0  0  0  0  0  0  0  0  0
   -3.9397    0.5019   -2.9575 C   0  0  0  0  0  0  0  0  0  0  0  0
   -3.9682   -0.9293   -3.9219 S   0  0  0  0  0  0  0  0  0  0  0  0
   -1.3083   -0.5231   -1.6619 C   0  0  0  0  0  0  0  0  0  0  0  0
   -1.9522   -1.7937   -1.1065 C   0  0  0  0  0  0  0  0  0  0  0  0
    0.5635   -0.3794    1.0015 C   0  0  0  0  0  0  0  0  0  0  0  0
    1.7858   -0.6603    0.1272 C   0  0  0  0  0  0  0  0  0  0  0  0
    5.0630    0.8585    5.2847 C   0  0  0  0  0  0  0  0  0  0  0  0
    5.7268   -0.3394    5.3764 C   0  0  0  0  0  0  0  0  0  0  0  0
    5.4871   -1.5231    4.5444 C   0  0  0  0  0  0  0  0  0  0  0  0
    4.6266   -1.6696    3.6909 O   0  0  0  0  0  0  0  0  0  0  0  0
    6.5064   -2.5088    4.9355 C   0  0  0  0  0  0  0  0  0  0  0  0
    6.7313   -3.7788    4.4402 C   0  0  0  0  0  0  0  0  0  0  0  0
    7.7723   -4.5186    4.9770 C   0  0  0  0  0  0  0  0  0  0  0  0
    8.5788   -4.0042    5.9906 C   0  0  0  0  0  0  0  0  0  0  0  0
    9.6854   -4.8353    6.5583 C   0  0  0  0  0  0  0  0  0  0  0  0
    8.3429   -2.7225    6.4855 C   0  0  0  0  0  0  0  0  0  0  0  0
    7.3056   -1.9720    5.9598 C   0  0  0  0  0  0  0  0  0  0  0  0
    6.8220   -0.6280    6.2785 C   0  0  0  0  0  0  0  0  0  0  0  0
    7.3040    0.1686    7.2852 C   0  0  0  0  0  0  0  0  0  0  0  0
    8.3804   -0.1851    8.1254 C   0  0  0  0  0  0  0  0  0  0  0  0
    9.2524   -0.4057    8.8393 N   0  0  0  0  0  0  0  0  0  0  0  0
    6.7937    1.4281    7.6632 C   0  0  0  0  0  0  0  0  0  0  0  0
    6.4386    2.4471    8.0585 N   0  0  0  0  0  0  0  0  0  0  0  0
   -6.8965   -0.4068   -6.1931 H   0  0  0  0  0  0  0  0  0  0  0  0
   -3.4519   -5.6662   -6.2254 H   0  0  0  0  0  0  0  0  0  0  0  0
   -3.9774   -8.2730   -8.8508 H   0  0  0  0  0  0  0  0  0  0  0  0
   -2.8303   -7.6525   -7.6508 H   0  0  0  0  0  0  0  0  0  0  0  0
   -4.2969   -8.4745   -7.1290 H   0  0  0  0  0  0  0  0  0  0  0  0
   -5.9496   -7.0125   -9.4307 H   0  0  0  0  0  0  0  0  0  0  0  0
   -7.2062   -4.9212   -9.3914 H   0  0  0  0  0  0  0  0  0  0  0  0
   -8.3139    0.3561   -3.6414 H   0  0  0  0  0  0  0  0  0  0  0  0
  -10.3794    1.4193   -4.4680 H   0  0  0  0  0  0  0  0  0  0  0  0
  -10.2344    3.2507   -6.1224 H   0  0  0  0  0  0  0  0  0  0  0  0
   -8.0384    4.0013   -6.9290 H   0  0  0  0  0  0  0  0  0  0  0  0
   -5.6487    3.2046   -7.3338 H   0  0  0  0  0  0  0  0  0  0  0  0
   -4.8114    2.4122   -5.9950 H   0  0  0  0  0  0  0  0  0  0  0  0
   -5.2092    4.4390   -4.5712 H   0  0  0  0  0  0  0  0  0  0  0  0
   -6.0129    5.2251   -5.9274 H   0  0  0  0  0  0  0  0  0  0  0  0
   -4.2941    4.8338   -6.0298 H   0  0  0  0  0  0  0  0  0  0  0  0
    3.0283    1.5713    6.9627 H   0  0  0  0  0  0  0  0  0  0  0  0
    3.1477    2.4536    8.4869 H   0  0  0  0  0  0  0  0  0  0  0  0
    1.0988    3.0107    6.2820 H   0  0  0  0  0  0  0  0  0  0  0  0
    0.7707    2.1636    7.7973 H   0  0  0  0  0  0  0  0  0  0  0  0
    1.2099    3.8755    7.8132 H   0  0  0  0  0  0  0  0  0  0  0  0
    4.0722    4.6328    8.6163 H   0  0  0  0  0  0  0  0  0  0  0  0
    5.3537    6.4580    7.5848 H   0  0  0  0  0  0  0  0  0  0  0  0
    5.7154    6.4812    5.1382 H   0  0  0  0  0  0  0  0  0  0  0  0
    4.8153    4.6488    3.7553 H   0  0  0  0  0  0  0  0  0  0  0  0
   -1.3554   -0.5647   -2.7553 H   0  0  0  0  0  0  0  0  0  0  0  0
   -0.2631   -0.4397   -1.3792 H   0  0  0  0  0  0  0  0  0  0  0  0
   -2.1037   -1.7294   -0.0307 H   0  0  0  0  0  0  0  0  0  0  0  0
   -2.9194   -1.9562   -1.5737 H   0  0  0  0  0  0  0  0  0  0  0  0
   -1.3210   -2.6503   -1.3247 H   0  0  0  0  0  0  0  0  0  0  0  0
   -0.3252   -0.8813    0.6309 H   0  0  0  0  0  0  0  0  0  0  0  0
    0.7666   -0.7615    2.0076 H   0  0  0  0  0  0  0  0  0  0  0  0
    1.7216   -0.1459   -0.8297 H   0  0  0  0  0  0  0  0  0  0  0  0
    2.6888   -0.3253    0.6298 H   0  0  0  0  0  0  0  0  0  0  0  0
    1.8720   -1.7284   -0.0500 H   0  0  0  0  0  0  0  0  0  0  0  0
    5.4097    1.6601    5.9271 H   0  0  0  0  0  0  0  0  0  0  0  0
    6.1055   -4.1728    3.6541 H   0  0  0  0  0  0  0  0  0  0  0  0
    7.9684   -5.5141    4.6059 H   0  0  0  0  0  0  0  0  0  0  0  0
   10.3636   -4.2289    7.1524 H   0  0  0  0  0  0  0  0  0  0  0  0
   10.2469   -5.3235    5.7642 H   0  0  0  0  0  0  0  0  0  0  0  0
    9.2720   -5.6140    7.1996 H   0  0  0  0  0  0  0  0  0  0  0  0
    8.9742   -2.3346    7.2683 H   0  0  0  0  0  0  0  0  0  0  0  0
  1  2  2  0  0  0  0
  2  3  1  0  0  0  0
  3  4  2  0  0  0  0
  3  5  1  0  0  0  0
  5  6  2  0  0  0  0
  6  7  1  0  0  0  0
  7  8  1  0  0  0  0
  7  9  2  0  0  0  0
  9 10  1  0  0  0  0
 10 11  2  0  0  0  0
 11 12  1  0  0  0  0
 12 13  2  0  0  0  0
 13 14  1  0  0  0  0
 14 15  3  0  0  0  0
 13 16  1  0  0  0  0
 16 17  3  0  0  0  0
  1 18  1  0  0  0  0
 18 19  2  0  0  0  0
 19 20  1  0  0  0  0
 20 21  2  0  0  0  0
 21 22  1  0  0  0  0
 22 23  2  0  0  0  0
 23 24  1  0  0  0  0
 24 25  2  0  0  0  0
 25 26  1  0  0  0  0
 26 27  1  0  0  0  0
 19 28  1  0  0  0  0
 28 29  1  0  0  0  0
 29 30  1  0  0  0  0
 30 31  1  0  0  0  0
 31 32  1  0  0  0  0
 32 33  1  0  0  0  0
 33 34  2  0  0  0  0
 34 35  1  0  0  0  0
 35 36  1  0  0  0  0
 33 37  1  0  0  0  0
 37 38  1  0  0  0  0
 38 39  1  0  0  0  0
 39 40  1  0  0  0  0
 40 41  1  0  0  0  0
 41 42  1  0  0  0  0
 42 43  2  0  0  0  0
 43 44  1  0  0  0  0
 44 45  1  0  0  0  0
 43 46  1  0  0  0  0
 46 47  2  0  0  0  0
 47 48  1  0  0  0  0
 48 49  2  0  0  0  0
 41 50  2  0  0  0  0
 50 51  1  0  0  0  0
 51 52  1  0  0  0  0
 52 53  1  0  0  0  0
 53 54  1  0  0  0  0
 54 55  1  0  0  0  0
 55 56  1  0  0  0  0
 56 57  1  0  0  0  0
 57 58  1  0  0  0  0
 58 59  1  0  0  0  0
 59 60  1  0  0  0  0
 57 61  1  0  0  0  0
 61 62  1  0  0  0  0
 54 63  1  0  0  0  0
 63 64  1  0  0  0  0
 50 65  1  0  0  0  0
 65 66  2  0  0  0  0
 66 67  1  0  0  0  0
 67 68  2  0  0  0  0
 67 69  1  0  0  0  0
 69 70  2  0  0  0  0
 70 71  1  0  0  0  0
 71 72  2  0  0  0  0
 72 73  1  0  0  0  0
 72 74  1  0  0  0  0
 74 75  2  0  0  0  0
 75 76  1  0  0  0  0
 76 77  2  0  0  0  0
 77 78  1  0  0  0  0
 78 79  3  0  0  0  0
 77 80  1  0  0  0  0
 80 81  3  0  0  0  0
 12  2  1  0  0  0  0
 60 18  1  0  0  0  0
 76 66  1  0  0  0  0
 11  5  1  0  0  0  0
 25 20  1  0  0  0  0
 59 28  2  0  0  0  0
 75 69  1  0  0  0  0
 58 30  2  0  0  0  0
 56 31  2  0  0  0  0
 36 32  2  0  0  0  0
 55 37  2  0  0  0  0
 53 38  2  0  0  0  0
 52 40  2  0  0  0  0
 49 42  1  0  0  0  0
  1 82  1  0  0  0  0
  6 83  1  0  0  0  0
  8 84  1  0  0  0  0
  8 85  1  0  0  0  0
  8 86  1  0  0  0  0
  9 87  1  0  0  0  0
 10 88  1  0  0  0  0
 21 89  1  0  0  0  0
 22 90  1  0  0  0  0
 23 91  1  0  0  0  0
 24 92  1  0  0  0  0
 26 93  1  0  0  0  0
 26 94  1  0  0  0  0
 27 95  1  0  0  0  0
 27 96  1  0  0  0  0
 27 97  1  0  0  0  0
 44 98  1  0  0  0  0
 44 99  1  0  0  0  0
 45100  1  0  0  0  0
 45101  1  0  0  0  0
 45102  1  0  0  0  0
 46103  1  0  0  0  0
 47104  1  0  0  0  0
 48105  1  0  0  0  0
 49106  1  0  0  0  0
 61107  1  0  0  0  0
 61108  1  0  0  0  0
 62109  1  0  0  0  0
 62110  1  0  0  0  0
 62111  1  0  0  0  0
 63112  1  0  0  0  0
 63113  1  0  0  0  0
 64114  1  0  0  0  0
 64115  1  0  0  0  0
 64116  1  0  0  0  0
 65117  1  0  0  0  0
 70118  1  0  0  0  0
 71119  1  0  0  0  0
 73120  1  0  0  0  0
 73121  1  0  0  0  0
 73122  1  0  0  0  0
 74123  1  0  0  0  0
M  END
