50

C         -2.04490        1.50210       -1.60170
C         -1.92400        2.44140       -0.63280
C         -3.07950        3.32860       -0.30430
O         -4.06600        3.50920       -0.97800
C         -2.77260        3.86540        1.03610
C         -3.56630        4.63240        1.86430
C         -3.07120        5.01730        3.10890
C         -3.91120        5.83240        4.03900
C         -1.79120        4.61210        3.48490
C         -0.98330        3.84800        2.65720
C         -1.47510        3.47190        1.41740
C         -0.86960        2.72200        0.32450
C          0.47240        2.56610        0.10820
C          1.00980        2.08930       -1.10640
N          1.48190        1.75370       -2.09720
C          1.46520        2.95590        1.03030
N          2.30860        3.24330        1.75350
C         -1.27450        0.32280       -1.79850
C         -1.16580       -0.39640       -2.96400
C         -0.37770       -1.55090       -2.83340
C         -0.02120       -2.51750       -3.81240
C          0.79270       -3.64900       -3.45410
N          1.02590       -4.44450       -4.48750
S          0.29490       -3.83140       -5.79010
N         -0.35440       -2.52840       -5.09400
C          1.24350       -3.81490       -2.11670
C          2.02840       -4.84130       -1.56230
C          2.26120       -4.67280       -0.22010
S          1.51020       -3.21670        0.39230
C          0.87550       -2.84390       -1.17280
C          0.09090       -1.73850       -1.52280
S         -0.43040       -0.46730       -0.47790
C          3.00070       -5.52730        0.65150
C          3.66240       -6.69380        0.32710
C          4.28170       -7.29810        1.42230
C          4.09780       -6.59760        2.59290
C          4.57830       -6.93220        3.85950
N          4.97290       -7.21720        4.89930
S          3.14700       -5.16720        2.34290
H         -2.89190        1.62250       -2.27070
H         -4.55340        4.92770        1.54150
H         -3.29190        6.45780        4.67730
H         -4.49580        5.17190        4.68050
H         -4.60410        6.46130        3.48590
H         -1.41530        4.90550        4.45420
H         -0.00060        3.54890        2.98520
H         -1.60880       -0.09090       -3.89410
H          2.39640       -5.66620       -2.14260
H          3.69610       -7.09340       -0.66940
H          4.84520       -8.21270        1.37350
