
  xtb     02012219103D
 energy: -214.511497554872 gnorm: 0.000181097607 xtb: 6.4.1 (unknown)
124137  0     0  0            999 V2000
    5.0990    6.0046    1.2509 C   0  0  0  0  0  0  0  0  0  0  0  0
    5.8151    5.5438    2.3149 C   0  0  0  0  0  0  0  0  0  0  0  0
    6.3906    6.4902    3.3046 C   0  0  0  0  0  0  0  0  0  0  0  0
    6.5020    7.6897    3.1865 O   0  0  0  0  0  0  0  0  0  0  0  0
    6.7377    5.6542    4.4748 C   0  0  0  0  0  0  0  0  0  0  0  0
    7.2182    6.0440    5.7078 C   0  0  0  0  0  0  0  0  0  0  0  0
    7.4653    5.0723    6.6753 C   0  0  0  0  0  0  0  0  0  0  0  0
    8.0146    5.4502    8.0140 C   0  0  0  0  0  0  0  0  0  0  0  0
    7.2142    3.7346    6.3736 C   0  0  0  0  0  0  0  0  0  0  0  0
    6.7411    3.3323    5.1344 C   0  0  0  0  0  0  0  0  0  0  0  0
    6.5030    4.3000    4.1720 C   0  0  0  0  0  0  0  0  0  0  0  0
    6.0753    4.2000    2.7817 C   0  0  0  0  0  0  0  0  0  0  0  0
    6.1848    3.0823    1.9931 C   0  0  0  0  0  0  0  0  0  0  0  0
    6.4611    1.7927    2.4831 C   0  0  0  0  0  0  0  0  0  0  0  0
    6.6413    0.7131    2.8314 N   0  0  0  0  0  0  0  0  0  0  0  0
    6.1099    3.1328    0.5864 C   0  0  0  0  0  0  0  0  0  0  0  0
    6.1166    3.1565   -0.5619 N   0  0  0  0  0  0  0  0  0  0  0  0
    4.1571    5.3081    0.4631 C   0  0  0  0  0  0  0  0  0  0  0  0
    3.7327    5.6744   -0.8099 C   0  0  0  0  0  0  0  0  0  0  0  0
    4.3581    6.7759   -1.5499 C   0  0  0  0  0  0  0  0  0  0  0  0
    5.7273    6.6928   -1.7923 C   0  0  0  0  0  0  0  0  0  0  0  0
    6.3766    7.6875   -2.4972 C   0  0  0  0  0  0  0  0  0  0  0  0
    5.6605    8.7796   -2.9561 C   0  0  0  0  0  0  0  0  0  0  0  0
    4.3035    8.8705   -2.7028 C   0  0  0  0  0  0  0  0  0  0  0  0
    3.6292    7.8791   -2.0031 C   0  0  0  0  0  0  0  0  0  0  0  0
    2.1746    8.0518   -1.6692 C   0  0  0  0  0  0  0  0  0  0  0  0
    2.0002    8.4770   -0.2096 C   0  0  0  0  0  0  0  0  0  0  0  0
    2.7801    4.7788   -1.3132 C   0  0  0  0  0  0  0  0  0  0  0  0
    1.9995    4.6241   -2.8712 S   0  0  0  0  0  0  0  0  0  0  0  0
    1.2489    3.1665   -2.3219 C   0  0  0  0  0  0  0  0  0  0  0  0
    0.4547    2.1277   -2.8255 C   0  0  0  0  0  0  0  0  0  0  0  0
   -0.0321    1.8975   -4.1311 C   0  0  0  0  0  0  0  0  0  0  0  0
   -0.6685    0.6469   -4.4192 C   0  0  0  0  0  0  0  0  0  0  0  0
   -1.0194    0.5388   -5.6910 N   0  0  0  0  0  0  0  0  0  0  0  0
   -0.5896    1.8978   -6.4583 S   0  0  0  0  0  0  0  0  0  0  0  0
    0.0626    2.6761   -5.1973 N   0  0  0  0  0  0  0  0  0  0  0  0
   -0.8792   -0.2692   -3.3653 C   0  0  0  0  0  0  0  0  0  0  0  0
   -1.5154   -1.5167   -3.3524 C   0  0  0  0  0  0  0  0  0  0  0  0
   -2.2361   -2.6322   -4.4624 S   0  0  0  0  0  0  0  0  0  0  0  0
   -2.5775   -3.6981   -3.1118 C   0  0  0  0  0  0  0  0  0  0  0  0
   -3.1480   -4.9624   -3.0305 C   0  0  0  0  0  0  0  0  0  0  0  0
   -3.5875   -5.7704   -4.1780 C   0  0  0  0  0  0  0  0  0  0  0  0
   -4.7318   -5.4486   -4.9096 C   0  0  0  0  0  0  0  0  0  0  0  0
   -5.6241   -4.3103   -4.5041 C   0  0  0  0  0  0  0  0  0  0  0  0
   -6.5461   -4.7381   -3.3598 C   0  0  0  0  0  0  0  0  0  0  0  0
   -5.0833   -6.2619   -5.9782 C   0  0  0  0  0  0  0  0  0  0  0  0
   -4.3247   -7.3646   -6.3238 C   0  0  0  0  0  0  0  0  0  0  0  0
   -3.1920   -7.6787   -5.5936 C   0  0  0  0  0  0  0  0  0  0  0  0
   -2.8288   -6.8856   -4.5234 C   0  0  0  0  0  0  0  0  0  0  0  0
   -3.1926   -5.4279   -1.7050 C   0  0  0  0  0  0  0  0  0  0  0  0
   -2.5002   -4.2752   -0.5692 S   0  0  0  0  0  0  0  0  0  0  0  0
   -2.1594   -3.1910   -1.8688 C   0  0  0  0  0  0  0  0  0  0  0  0
   -1.5405   -1.9464   -2.0204 C   0  0  0  0  0  0  0  0  0  0  0  0
   -0.9209   -1.0261   -1.2190 N   0  0  0  0  0  0  0  0  0  0  0  0
   -0.4832    0.0122   -2.0228 C   0  0  0  0  0  0  0  0  0  0  0  0
    0.2829    1.1823   -1.7719 C   0  0  0  0  0  0  0  0  0  0  0  0
    0.9708    1.6451   -0.6613 N   0  0  0  0  0  0  0  0  0  0  0  0
    1.5669    2.8289   -1.0017 C   0  0  0  0  0  0  0  0  0  0  0  0
    2.4461    3.7480   -0.4249 C   0  0  0  0  0  0  0  0  0  0  0  0
    3.2987    3.8940    1.0675 S   0  0  0  0  0  0  0  0  0  0  0  0
    1.4211    0.9488    0.5235 C   0  0  0  0  0  0  0  0  0  0  0  0
    2.3517   -0.2092    0.1737 C   0  0  0  0  0  0  0  0  0  0  0  0
   -1.1128   -1.0921    0.2128 C   0  0  0  0  0  0  0  0  0  0  0  0
   -2.0077    0.0408    0.7090 C   0  0  0  0  0  0  0  0  0  0  0  0
   -3.7743   -6.6585   -1.3806 C   0  0  0  0  0  0  0  0  0  0  0  0
   -3.9320   -7.2793   -0.1675 C   0  0  0  0  0  0  0  0  0  0  0  0
   -3.4649   -6.7710    1.1277 C   0  0  0  0  0  0  0  0  0  0  0  0
   -2.8983   -5.7113    1.3470 O   0  0  0  0  0  0  0  0  0  0  0  0
   -3.8147   -7.7966    2.1160 C   0  0  0  0  0  0  0  0  0  0  0  0
   -3.5918   -7.8125    3.4779 C   0  0  0  0  0  0  0  0  0  0  0  0
   -4.0164   -8.9048    4.2174 C   0  0  0  0  0  0  0  0  0  0  0  0
   -4.6596   -9.9735    3.5904 C   0  0  0  0  0  0  0  0  0  0  0  0
   -5.1071  -11.0779    4.2241 O   0  0  0  0  0  0  0  0  0  0  0  0
   -4.9325  -11.1941    5.6173 C   0  0  0  0  0  0  0  0  0  0  0  0
   -4.8864   -9.9557    2.2044 C   0  0  0  0  0  0  0  0  0  0  0  0
   -4.4648   -8.8682    1.4719 C   0  0  0  0  0  0  0  0  0  0  0  0
   -4.5669   -8.5631    0.0430 C   0  0  0  0  0  0  0  0  0  0  0  0
   -5.1762   -9.3561   -0.8949 C   0  0  0  0  0  0  0  0  0  0  0  0
   -5.3297   -9.0542   -2.2648 C   0  0  0  0  0  0  0  0  0  0  0  0
   -5.5152   -8.8901   -3.3870 N   0  0  0  0  0  0  0  0  0  0  0  0
   -5.7631  -10.6074   -0.6112 C   0  0  0  0  0  0  0  0  0  0  0  0
   -6.2552  -11.6336   -0.4593 N   0  0  0  0  0  0  0  0  0  0  0  0
    5.2197    7.0588    1.0188 H   0  0  0  0  0  0  0  0  0  0  0  0
    7.4010    7.0892    5.9074 H   0  0  0  0  0  0  0  0  0  0  0  0
    7.8527    6.5052    8.2183 H   0  0  0  0  0  0  0  0  0  0  0  0
    7.5541    4.8591    8.8027 H   0  0  0  0  0  0  0  0  0  0  0  0
    9.0880    5.2595    8.0392 H   0  0  0  0  0  0  0  0  0  0  0  0
    7.3982    2.9864    7.1310 H   0  0  0  0  0  0  0  0  0  0  0  0
    6.5554    2.2882    4.9381 H   0  0  0  0  0  0  0  0  0  0  0  0
    6.2685    5.8258   -1.4421 H   0  0  0  0  0  0  0  0  0  0  0  0
    7.4365    7.6099   -2.6857 H   0  0  0  0  0  0  0  0  0  0  0  0
    6.1590    9.5631   -3.5070 H   0  0  0  0  0  0  0  0  0  0  0  0
    3.7518    9.7314   -3.0526 H   0  0  0  0  0  0  0  0  0  0  0  0
    1.6293    7.1233   -1.8415 H   0  0  0  0  0  0  0  0  0  0  0  0
    1.7455    8.8169   -2.3183 H   0  0  0  0  0  0  0  0  0  0  0  0
    0.9485    8.6420    0.0126 H   0  0  0  0  0  0  0  0  0  0  0  0
    2.3781    7.7098    0.4628 H   0  0  0  0  0  0  0  0  0  0  0  0
    2.5444    9.3987   -0.0160 H   0  0  0  0  0  0  0  0  0  0  0  0
   -6.2315   -4.0065   -5.3584 H   0  0  0  0  0  0  0  0  0  0  0  0
   -5.0309   -3.4505   -4.1894 H   0  0  0  0  0  0  0  0  0  0  0  0
   -7.1106   -5.6236   -3.6430 H   0  0  0  0  0  0  0  0  0  0  0  0
   -5.9686   -4.9743   -2.4686 H   0  0  0  0  0  0  0  0  0  0  0  0
   -7.2447   -3.9407   -3.1169 H   0  0  0  0  0  0  0  0  0  0  0  0
   -5.9738   -6.0267   -6.5430 H   0  0  0  0  0  0  0  0  0  0  0  0
   -4.6213   -7.9839   -7.1565 H   0  0  0  0  0  0  0  0  0  0  0  0
   -2.5966   -8.5413   -5.8512 H   0  0  0  0  0  0  0  0  0  0  0  0
   -1.9459   -7.1201   -3.9451 H   0  0  0  0  0  0  0  0  0  0  0  0
    1.9695    1.6797    1.1229 H   0  0  0  0  0  0  0  0  0  0  0  0
    0.5718    0.6203    1.1213 H   0  0  0  0  0  0  0  0  0  0  0  0
    3.2331    0.1665   -0.3410 H   0  0  0  0  0  0  0  0  0  0  0  0
    1.8585   -0.9286   -0.4761 H   0  0  0  0  0  0  0  0  0  0  0  0
    2.6731   -0.7138    1.0807 H   0  0  0  0  0  0  0  0  0  0  0  0
   -1.5998   -2.0487    0.4163 H   0  0  0  0  0  0  0  0  0  0  0  0
   -0.1534   -1.1075    0.7304 H   0  0  0  0  0  0  0  0  0  0  0  0
   -2.1250   -0.0262    1.7871 H   0  0  0  0  0  0  0  0  0  0  0  0
   -1.5921    1.0144    0.4585 H   0  0  0  0  0  0  0  0  0  0  0  0
   -2.9904   -0.0356    0.2495 H   0  0  0  0  0  0  0  0  0  0  0  0
   -4.1537   -7.1823   -2.2501 H   0  0  0  0  0  0  0  0  0  0  0  0
   -3.0935   -6.9819    3.9538 H   0  0  0  0  0  0  0  0  0  0  0  0
   -3.8429   -8.9169    5.2815 H   0  0  0  0  0  0  0  0  0  0  0  0
   -5.4545  -10.3965    6.1548 H   0  0  0  0  0  0  0  0  0  0  0  0
   -5.3682  -12.1545    5.8867 H   0  0  0  0  0  0  0  0  0  0  0  0
   -3.8729  -11.1881    5.8908 H   0  0  0  0  0  0  0  0  0  0  0  0
   -5.3861  -10.8026    1.7653 H   0  0  0  0  0  0  0  0  0  0  0  0
  1  2  2  0  0  0  0
  2  3  1  0  0  0  0
  3  4  2  0  0  0  0
  3  5  1  0  0  0  0
  5  6  2  0  0  0  0
  6  7  1  0  0  0  0
  7  8  1  0  0  0  0
  7  9  2  0  0  0  0
  9 10  1  0  0  0  0
 10 11  2  0  0  0  0
 11 12  1  0  0  0  0
 12 13  2  0  0  0  0
 13 14  1  0  0  0  0
 14 15  3  0  0  0  0
 13 16  1  0  0  0  0
 16 17  3  0  0  0  0
  1 18  1  0  0  0  0
 18 19  2  0  0  0  0
 19 20  1  0  0  0  0
 20 21  2  0  0  0  0
 21 22  1  0  0  0  0
 22 23  2  0  0  0  0
 23 24  1  0  0  0  0
 24 25  2  0  0  0  0
 25 26  1  0  0  0  0
 26 27  1  0  0  0  0
 19 28  1  0  0  0  0
 28 29  1  0  0  0  0
 29 30  1  0  0  0  0
 30 31  1  0  0  0  0
 31 32  1  0  0  0  0
 32 33  1  0  0  0  0
 33 34  2  0  0  0  0
 34 35  1  0  0  0  0
 35 36  1  0  0  0  0
 33 37  1  0  0  0  0
 37 38  1  0  0  0  0
 38 39  1  0  0  0  0
 39 40  1  0  0  0  0
 40 41  1  0  0  0  0
 41 42  1  0  0  0  0
 42 43  2  0  0  0  0
 43 44  1  0  0  0  0
 44 45  1  0  0  0  0
 43 46  1  0  0  0  0
 46 47  2  0  0  0  0
 47 48  1  0  0  0  0
 48 49  2  0  0  0  0
 41 50  2  0  0  0  0
 50 51  1  0  0  0  0
 51 52  1  0  0  0  0
 52 53  1  0  0  0  0
 53 54  1  0  0  0  0
 54 55  1  0  0  0  0
 55 56  1  0  0  0  0
 56 57  1  0  0  0  0
 57 58  1  0  0  0  0
 58 59  1  0  0  0  0
 59 60  1  0  0  0  0
 57 61  1  0  0  0  0
 61 62  1  0  0  0  0
 54 63  1  0  0  0  0
 63 64  1  0  0  0  0
 50 65  1  0  0  0  0
 65 66  2  0  0  0  0
 66 67  1  0  0  0  0
 67 68  2  0  0  0  0
 67 69  1  0  0  0  0
 69 70  2  0  0  0  0
 70 71  1  0  0  0  0
 71 72  2  0  0  0  0
 72 73  1  0  0  0  0
 73 74  1  0  0  0  0
 72 75  1  0  0  0  0
 75 76  2  0  0  0  0
 76 77  1  0  0  0  0
 77 78  2  0  0  0  0
 78 79  1  0  0  0  0
 79 80  3  0  0  0  0
 78 81  1  0  0  0  0
 81 82  3  0  0  0  0
 12  2  1  0  0  0  0
 60 18  1  0  0  0  0
 77 66  1  0  0  0  0
 11  5  1  0  0  0  0
 25 20  1  0  0  0  0
 59 28  2  0  0  0  0
 76 69  1  0  0  0  0
 58 30  2  0  0  0  0
 56 31  2  0  0  0  0
 36 32  2  0  0  0  0
 55 37  2  0  0  0  0
 53 38  2  0  0  0  0
 52 40  2  0  0  0  0
 49 42  1  0  0  0  0
  1 83  1  0  0  0  0
  6 84  1  0  0  0  0
  8 85  1  0  0  0  0
  8 86  1  0  0  0  0
  8 87  1  0  0  0  0
  9 88  1  0  0  0  0
 10 89  1  0  0  0  0
 21 90  1  0  0  0  0
 22 91  1  0  0  0  0
 23 92  1  0  0  0  0
 24 93  1  0  0  0  0
 26 94  1  0  0  0  0
 26 95  1  0  0  0  0
 27 96  1  0  0  0  0
 27 97  1  0  0  0  0
 27 98  1  0  0  0  0
 44 99  1  0  0  0  0
 44100  1  0  0  0  0
 45101  1  0  0  0  0
 45102  1  0  0  0  0
 45103  1  0  0  0  0
 46104  1  0  0  0  0
 47105  1  0  0  0  0
 48106  1  0  0  0  0
 49107  1  0  0  0  0
 61108  1  0  0  0  0
 61109  1  0  0  0  0
 62110  1  0  0  0  0
 62111  1  0  0  0  0
 62112  1  0  0  0  0
 63113  1  0  0  0  0
 63114  1  0  0  0  0
 64115  1  0  0  0  0
 64116  1  0  0  0  0
 64117  1  0  0  0  0
 65118  1  0  0  0  0
 70119  1  0  0  0  0
 71120  1  0  0  0  0
 74121  1  0  0  0  0
 74122  1  0  0  0  0
 74123  1  0  0  0  0
 75124  1  0  0  0  0
M  END
