100

C          7.89340       -0.26410       -0.83600
C          8.94120        0.35400       -1.45180
C          8.81890        1.60280       -2.24560
O          7.82680        2.28030       -2.40700
C         10.11740        1.75910       -2.92870
C         10.51410        2.75440       -3.79740
C         11.79140        2.69810       -4.35090
C         12.26730        3.77290       -5.27480
C         12.62650        1.63360       -4.01580
C         12.23300        0.62680       -3.14770
C         10.96300        0.68650       -2.59380
C         10.26460       -0.19620       -1.66760
C         10.79270       -1.29900       -1.04830
C         12.09690       -1.78420       -1.27610
N         13.14410       -2.23090       -1.42400
C         10.11670       -2.07700       -0.08550
N          9.63320       -2.74310        0.71550
C          6.66670        0.33700       -0.45580
C          6.40050        1.55880        0.14450
C          7.41800        2.55410        0.60100
C          7.18860        3.94090        0.00080
C          5.03380        1.68530        0.43950
S          4.10030        2.96280        1.18650
C          2.67260        2.01170        0.98250
C          1.29080        2.10610        1.20360
C          0.50430        3.18290        1.66810
C         -0.92190        3.04460        1.67660
N         -1.53550        4.14590        2.08020
S         -0.41260        5.26040        2.42450
N          0.89860        4.38080        2.07100
C         -1.48480        1.79550        1.33470
C         -2.80820        1.34050        1.39900
S         -4.37970        1.93980        1.78680
C         -5.03460        0.33050        1.56160
C         -6.33210       -0.19000        1.63620
C         -7.52400        0.56310        2.11900
C         -7.23320        1.43860        3.33510
C         -6.34250       -1.54940        1.31730
S         -4.72110       -2.17980        1.01260
C         -4.05000       -0.60780        1.20580
C         -2.78460       -0.02740        1.10360
N         -1.50040       -0.42440        0.84060
C         -0.68010        0.68150        0.95040
C          0.71450        0.87810        0.76640
N          1.72820        0.07450        0.26260
C          2.90400        0.76900        0.38660
C          4.25430        0.58010        0.07550
S          5.22480       -0.66800       -0.60600
C          1.67530       -0.97420       -0.73380
C          1.39070       -0.39660       -2.11880
C         -1.19070       -1.83410        0.77960
C         -1.51140       -2.43090       -0.59060
C         -7.38660       -2.48830        1.27320
C         -8.69120       -2.26560        0.90550
C         -9.14230       -1.14910        0.05330
O         -8.49150       -0.21580       -0.36780
C        -10.54500       -1.46950       -0.30090
C        -11.41250       -0.74290       -1.09140
C        -12.68440       -1.25610       -1.29000
F        -13.56100       -0.58120       -2.04410
C        -13.06010       -2.46890       -0.71250
F        -14.29280       -2.94330       -0.92620
C        -12.18660       -3.20150        0.07780
C        -10.91470       -2.69160        0.28470
C         -9.78260       -3.20210        1.05630
C         -9.79150       -4.32150        1.84760
C         -8.71890       -4.73070        2.66780
N         -7.89630       -5.11020        3.37360
C        -10.89160       -5.19600        1.96590
N        -11.75180       -5.94480        2.09530
H          7.95950       -1.32940       -0.64540
H          9.83730        3.56150       -4.03520
H         12.94410        3.36980       -6.02440
H         11.43010        4.25630       -5.77200
H         12.80840        4.53250       -4.70930
H         13.61440        1.58920       -4.45080
H         12.90800       -0.18320       -2.92390
H          8.41880        2.20110        0.34970
H          7.34550        2.62410        1.69150
H          7.96850        4.61930        0.33740
H          6.22530        4.33800        0.30940
H          7.21340        3.88520       -1.08350
H         -8.31350       -0.15010        2.36640
H         -7.89410        1.18380        1.29690
H         -6.56880        2.25960        3.08310
H         -8.16400        1.85750        3.70890
H         -6.77680        0.85100        4.12850
H          2.65510       -1.45930       -0.73130
H          0.93210       -1.72160       -0.48160
H          0.43530        0.12470       -2.12620
H          2.16850        0.30860       -2.40190
H          1.36340       -1.19550       -2.85460
H         -0.14880       -1.98110        1.06690
H         -1.80920       -2.33780        1.53080
H         -1.03430       -1.87250       -1.39160
H         -2.58470       -2.41170       -0.75950
H         -1.17820       -3.46420       -0.63080
H         -7.09440       -3.50760        1.49950
H        -11.11710        0.19260       -1.53870
H        -12.52220       -4.13600        0.49660
