144

C         -4.73060       -1.06720        7.42430
C         -4.50170       -0.86370        8.75860
C         -3.37460       -0.15370        9.40690
O         -2.53010        0.55970        8.90430
C         -3.46340       -0.49490       10.84020
C         -2.60140       -0.14120       11.85640
C         -2.86640       -0.58410       13.15100
C         -1.93740       -0.23920       14.27090
C         -3.99380       -1.37040       13.37670
C         -4.86760       -1.72510       12.35950
C         -4.60340       -1.28230       11.07240
C         -5.30610       -1.47130        9.80840
C         -6.53630       -2.06040        9.67270
C         -7.27980       -2.16870        8.47830
N         -7.96420       -2.28390        7.56270
C         -7.26560       -2.61520       10.74560
N         -7.91040       -3.08860       11.56920
C         -4.06830       -0.58620        6.27950
C         -3.07310        0.36150        6.09800
C         -2.71990        0.49410        4.76370
S         -1.53330        1.46330        3.93500
C         -1.99230        0.71360        2.44520
C         -1.53060        0.77970        1.09430
C         -0.50500        1.52240        0.51450
C         -0.24210        1.29580       -0.81520
C          0.82000        1.94150       -1.68410
C          2.18380        1.92520       -1.02890
C          3.06450        0.87330       -1.23660
C          4.32810        0.89660       -0.67680
C          4.73840        1.96040        0.11490
C          6.14290        2.02710        0.64120
C          7.05800        2.69310       -0.38940
C          3.83750        2.98930        0.35620
C          2.57540        2.97360       -0.20600
C          0.44340        3.35220       -2.12280
C          1.36990        4.09260       -2.84970
C          1.05070        5.35270       -3.31230
C         -0.20080        5.90930       -3.06810
C         -0.53400        7.27600       -3.58300
C         -1.12120        5.16320       -2.34780
C         -0.80800        3.89670       -1.88290
C          0.71800        1.09320       -2.92190
C         -0.37150        0.24370       -2.84330
C         -0.97670        0.33190       -1.55020
C         -2.02710       -0.38170       -0.97910
C         -2.30290       -0.14120        0.34690
C         -3.35190       -0.80560        1.22210
C         -3.19190       -2.31060        1.14380
C         -3.84380       -3.02690        0.14780
C         -3.67560       -4.39420        0.04400
C         -2.85150       -5.08130        0.92620
C         -2.71570       -6.57410        0.84430
C         -3.80280       -7.25410        1.67920
C         -2.19550       -4.35910        1.91340
C         -2.35620       -2.98980        2.01860
C         -4.77500       -0.37580        0.90360
C         -5.05370        0.69630        0.06950
C         -6.36290        1.08580       -0.15230
C         -7.41970        0.42400        0.45660
C         -8.83560        0.87940        0.25240
C         -9.23080        1.89120        1.33010
C         -7.13260       -0.64140        1.30140
C         -5.82870       -1.03740        1.52340
C         -3.00870       -0.22000        2.56580
C         -3.43700       -0.34530        3.88440
S         -4.58060       -1.29780        4.73960
S         -0.60390       -0.73410       -4.25610
C          0.82940       -0.02320       -4.95670
C          1.54820       -0.24360       -6.11630
C          2.72120        0.51340       -6.16640
S          2.89510        1.54740       -4.75330
C          1.41540        0.94720       -4.11760
C          3.63720        0.39980       -7.22540
C          4.90170        0.90980       -7.35770
C          5.63370        1.67660       -6.33950
O          5.17740        2.16160       -5.31730
C          7.02780        1.74650       -6.80430
C          7.12120        1.16270       -8.06650
C          8.35510        1.10590       -8.72830
C          9.46190        1.62460       -8.10720
C          9.39980        2.20980       -6.82400
C         10.54650        2.72530       -6.18580
C         10.46100        3.27540       -4.93650
C          9.22750        3.33920       -4.26820
C          8.09200        2.85520       -4.85630
C          8.15000        2.28070       -6.14290
C          5.80380        0.67280       -8.46800
C          5.49210        0.12910       -9.68650
C          6.41230       -0.05210      -10.74050
N          7.10050       -0.23190      -11.64170
C          4.20910       -0.30370      -10.08370
N          3.19910       -0.67200      -10.48850
H         -5.53970       -1.74710        7.18230
H         -1.73720        0.46940       11.64060
H         -1.53460        0.76290       14.14330
H         -1.09890       -0.93660       14.28160
H         -2.44150       -0.30180       15.23190
H         -4.19650       -1.71700       14.37970
H         -5.72540       -2.33800       12.58200
H         -2.63150        0.90780        6.91040
H          0.06690        2.22860        1.09650
H          2.76810        0.03320       -1.84760
H          5.00840        0.07820       -0.86490
H          6.51020        1.02050        0.85130
H          6.16660        2.60120        1.56960
H          8.07930        2.74020       -0.01790
H          6.71560        3.70420       -0.59900
H          7.05060        2.13050       -1.32040
H          4.13060        3.81940        0.98340
H          1.89630        3.79400       -0.02300
H          2.34730        3.67830       -3.04930
H          1.78230        5.91430       -3.87510
H          0.19620        8.00360       -3.23170
H         -1.52260        7.58690       -3.25500
H         -0.51160        7.28390       -4.67240
H         -2.10110        5.57210       -2.14600
H         -1.54750        3.33780       -1.32850
H         -2.58300       -1.10550       -1.55480
H         -4.49690       -2.51260       -0.54240
H         -4.19220       -4.93650       -0.73510
H         -1.73440       -6.87820        1.21420
H         -2.80510       -6.89760       -0.19470
H         -3.70860       -8.33580        1.61890
H         -4.78910       -6.97020        1.31910
H         -3.72130       -6.95530        2.72190
H         -1.54650       -4.87290        2.60830
H         -1.82590       -2.44920        2.78930
H         -4.24880        1.23000       -0.41460
H         -6.56350        1.91890       -0.81100
H         -9.51020        0.02230        0.30050
H         -8.93870        1.34180       -0.73130
H         -9.14600        1.44390        2.31780
H         -8.57760        2.76020        1.29110
H        -10.25690        2.22070        1.18470
H         -7.93900       -1.16790        1.79090
H         -5.62420       -1.87230        2.17800
H          1.27020       -0.93390       -6.89240
H          3.28260       -0.24040       -8.02470
H          8.44150        0.65790       -9.70420
H         10.42040        1.58410       -8.60440
H         11.49450        2.67440       -6.70150
H         11.34520        3.66470       -4.45360
H          9.18230        3.77450       -3.28090
H          7.13920        2.90140       -4.35290
