100

C          4.45170       -0.79310        5.44420
C          4.41230        0.48920        5.93010
C          3.72200        1.62860        5.31750
O          3.03980        1.62800        4.30620
C          4.01190        2.79140        6.17380
C          3.60470        4.09900        6.02020
C          4.00480        5.04600        6.96280
C          3.59180        6.47480        6.81040
C          4.80240        4.63990        8.02900
C          5.21440        3.32430        8.18990
C          4.81650        2.38360        7.25340
C          5.07220        0.95030        7.13790
C          5.79450        0.20180        8.03190
C          6.40070        0.72580        9.19320
N          6.91920        1.08200       10.15360
C          6.03640       -1.18450        7.94420
N          6.27760       -2.30840        7.94620
C          3.87100       -1.36270        4.30450
C          4.05160       -2.71000        3.94950
C          4.90020       -3.70180        4.67580
C          6.36410       -3.58420        4.24210
C          3.37660       -3.01790        2.77480
S          3.23370       -4.50230        1.85120
C          2.21960       -3.66620        0.72790
C          1.48220       -3.92880       -0.43420
C          1.23310       -5.13900       -1.11910
C          0.31830       -5.13530       -2.22240
N          0.13310       -6.34310       -2.73110
S          1.03630       -7.39490       -1.89500
N          1.69780       -6.34950       -0.85290
C         -0.20560       -3.90110       -2.66760
C         -0.98220       -3.58540       -3.78910
S         -1.78380       -4.38710       -5.09160
C         -2.23740       -2.82620       -5.73930
C         -2.95390       -2.45210       -6.87480
C         -3.59810       -3.41740       -7.80950
C         -5.08910       -3.55630       -7.49030
C         -3.08300       -1.06550       -6.96270
S         -2.24580       -0.24000       -5.64510
C         -1.77760       -1.75030       -4.96130
C         -1.07240       -2.18650       -3.84150
N         -0.40030       -1.63650       -2.78360
C          0.12200       -2.66780       -2.02800
C          0.87080       -2.69990       -0.82320
N          1.20320       -1.72940        0.10940
C          2.01240       -2.31890        1.04590
C          2.66690       -1.93910        2.22200
S          2.84160       -0.50290        3.15840
C          0.47440       -0.53990        0.50030
C         -0.86520       -0.90900        1.13380
C         -0.11460       -0.21990       -2.78150
C         -1.30770        0.60650       -2.30400
C         -3.70840       -0.34790       -7.99400
C         -4.11700        0.95940       -7.99980
C         -4.26540        1.67970       -9.28480
O         -4.27440        1.20170      -10.39280
C         -4.34520        3.11610       -8.90220
C         -4.37070        3.22970       -7.49960
C         -4.41720        4.46840       -6.88610
C         -4.43460        5.59460       -7.69680
F         -4.46400        6.80350       -7.12970
C         -4.41860        5.50340       -9.08650
F         -4.44180        6.61160       -9.83220
C         -4.37480        4.24720       -9.69780
F         -4.35900        4.16990      -11.02450
C         -4.37390        1.88330       -6.92620
C         -4.82020        1.56040       -5.66860
C         -5.13390        0.23830       -5.28980
N         -5.45240       -0.81710       -4.96930
C         -5.09040        2.49980       -4.65610
N         -5.28530        3.21970       -3.78320
H          5.03410       -1.49860        6.02080
H          2.98600        4.37640        5.17980
H          2.53830        6.54300        6.54670
H          3.76580        7.03400        7.72570
H          4.16440        6.94210        6.00880
H          5.11270        5.37310        8.75910
H          5.83130        3.05820        9.03230
H          4.53710       -4.70260        4.43360
H          4.83020       -3.56520        5.75580
H          6.45710       -3.75920        3.17280
H          6.75430       -2.59440        4.46780
H          6.96410       -4.31950        4.77040
H         -3.11020       -4.38770       -7.69970
H         -3.47680       -3.08000       -8.84100
H         -5.59400       -2.59990       -7.60150
H         -5.54700       -4.27690       -8.16240
H         -5.22540       -3.89590       -6.46700
H          0.32220        0.12740       -0.34180
H          1.09620       -0.01870        1.23220
H         -1.39120       -0.00820        1.43740
H         -1.48530       -1.46170        0.43030
H         -0.70760       -1.52980        2.01270
H          0.78100       -0.04040       -2.18590
H          0.11750        0.06750       -3.81350
H         -1.03610        1.65760       -2.26430
H         -2.13850        0.49520       -2.99590
H         -1.64590        0.29130       -1.32140
H         -3.80480       -0.86360       -8.94470
H         -4.43060        4.59140       -5.81560
