
  xtb     02012219463D
 energy: -180.672187189143 gnorm: 0.000332040936 xtb: 6.4.1 (unknown)
103114  0     0  0            999 V2000
   -3.1925   -6.7198   -3.4185 C   0  0  0  0  0  0  0  0  0  0  0  0
   -3.2448   -6.2848   -4.7080 C   0  0  0  0  0  0  0  0  0  0  0  0
   -3.0511   -7.2438   -5.8266 C   0  0  0  0  0  0  0  0  0  0  0  0
   -3.0803   -8.4522   -5.7615 O   0  0  0  0  0  0  0  0  0  0  0  0
   -2.7598   -6.4002   -7.0053 C   0  0  0  0  0  0  0  0  0  0  0  0
   -2.3933   -6.7850   -8.2782 C   0  0  0  0  0  0  0  0  0  0  0  0
   -2.1474   -5.8039   -9.2367 C   0  0  0  0  0  0  0  0  0  0  0  0
   -1.7752   -6.1835  -10.6346 C   0  0  0  0  0  0  0  0  0  0  0  0
   -2.2741   -4.4620   -8.8820 C   0  0  0  0  0  0  0  0  0  0  0  0
   -2.6511   -4.0658   -7.6079 C   0  0  0  0  0  0  0  0  0  0  0  0
   -2.8998   -5.0433   -6.6584 C   0  0  0  0  0  0  0  0  0  0  0  0
   -3.3529   -4.9584   -5.2747 C   0  0  0  0  0  0  0  0  0  0  0  0
   -4.0209   -3.8989   -4.7163 C   0  0  0  0  0  0  0  0  0  0  0  0
   -4.7313   -4.0007   -3.5024 C   0  0  0  0  0  0  0  0  0  0  0  0
   -5.3657   -4.0762   -2.5483 N   0  0  0  0  0  0  0  0  0  0  0  0
   -4.1451   -2.6366   -5.3263 C   0  0  0  0  0  0  0  0  0  0  0  0
   -4.2464   -1.5799   -5.7646 N   0  0  0  0  0  0  0  0  0  0  0  0
   -2.9270   -5.9832   -2.2444 C   0  0  0  0  0  0  0  0  0  0  0  0
   -3.2125   -6.3724   -0.9418 C   0  0  0  0  0  0  0  0  0  0  0  0
   -3.9862   -7.5921   -0.5721 C   0  0  0  0  0  0  0  0  0  0  0  0
   -5.4857   -7.3519   -0.7624 C   0  0  0  0  0  0  0  0  0  0  0  0
   -2.7755   -5.4199   -0.0161 C   0  0  0  0  0  0  0  0  0  0  0  0
   -2.8810   -5.3374    1.7274 S   0  0  0  0  0  0  0  0  0  0  0  0
   -2.0419   -3.8276    1.6801 C   0  0  0  0  0  0  0  0  0  0  0  0
   -1.5561   -2.8553    2.5642 C   0  0  0  0  0  0  0  0  0  0  0  0
   -1.5370   -2.8263    3.9759 C   0  0  0  0  0  0  0  0  0  0  0  0
   -0.8684   -1.7448    4.6350 C   0  0  0  0  0  0  0  0  0  0  0  0
   -0.8834   -1.8678    5.9529 N   0  0  0  0  0  0  0  0  0  0  0  0
   -1.6769   -3.2271    6.3312 S   0  0  0  0  0  0  0  0  0  0  0  0
   -2.0289   -3.7125    4.8274 N   0  0  0  0  0  0  0  0  0  0  0  0
   -0.3329   -0.6977    3.8531 C   0  0  0  0  0  0  0  0  0  0  0  0
    0.2763    0.5041    4.2339 C   0  0  0  0  0  0  0  0  0  0  0  0
    0.7599    1.3277    5.6756 S   0  0  0  0  0  0  0  0  0  0  0  0
    1.3012    2.6715    4.6856 C   0  0  0  0  0  0  0  0  0  0  0  0
    1.8885    3.8886    5.0042 C   0  0  0  0  0  0  0  0  0  0  0  0
    2.1339    4.3221    6.4124 C   0  0  0  0  0  0  0  0  0  0  0  0
    0.9758    5.1828    6.9250 C   0  0  0  0  0  0  0  0  0  0  0  0
    2.1524    4.6481    3.8511 C   0  0  0  0  0  0  0  0  0  0  0  0
    1.6611    3.8108    2.3768 S   0  0  0  0  0  0  0  0  0  0  0  0
    1.1055    2.4716    3.3085 C   0  0  0  0  0  0  0  0  0  0  0  0
    0.5201    1.2264    3.0603 C   0  0  0  0  0  0  0  0  0  0  0  0
    0.1071    0.5062    1.9718 N   0  0  0  0  0  0  0  0  0  0  0  0
   -0.4167   -0.6912    2.4277 C   0  0  0  0  0  0  0  0  0  0  0  0
   -0.9530   -1.8332    1.7732 C   0  0  0  0  0  0  0  0  0  0  0  0
   -1.0523   -2.2053    0.4420 N   0  0  0  0  0  0  0  0  0  0  0  0
   -1.7024   -3.4079    0.3890 C   0  0  0  0  0  0  0  0  0  0  0  0
   -2.1186   -4.3204   -0.5835 C   0  0  0  0  0  0  0  0  0  0  0  0
   -2.0524   -4.4515   -2.3011 S   0  0  0  0  0  0  0  0  0  0  0  0
   -0.3341   -1.7376   -0.7219 C   0  0  0  0  0  0  0  0  0  0  0  0
    1.1745   -1.8962   -0.5471 C   0  0  0  0  0  0  0  0  0  0  0  0
   -0.0512    1.1823    0.7028 C   0  0  0  0  0  0  0  0  0  0  0  0
   -1.5239    1.4177    0.3765 C   0  0  0  0  0  0  0  0  0  0  0  0
    2.7356    5.9186    3.8935 C   0  0  0  0  0  0  0  0  0  0  0  0
    3.0768    6.7878    2.8864 C   0  0  0  0  0  0  0  0  0  0  0  0
    2.9234    6.5518    1.4485 C   0  0  0  0  0  0  0  0  0  0  0  0
    2.4324    5.5782    0.9009 O   0  0  0  0  0  0  0  0  0  0  0  0
    3.4923    7.7334    0.7766 C   0  0  0  0  0  0  0  0  0  0  0  0
    3.6107    7.9846   -0.5728 C   0  0  0  0  0  0  0  0  0  0  0  0
    4.1997    9.1790   -0.9881 C   0  0  0  0  0  0  0  0  0  0  0  0
    4.3366    9.4752   -2.4475 C   0  0  0  0  0  0  0  0  0  0  0  0
    4.6452   10.0803   -0.0261 C   0  0  0  0  0  0  0  0  0  0  0  0
    4.5274    9.8329    1.3350 C   0  0  0  0  0  0  0  0  0  0  0  0
    3.9460    8.6449    1.7470 C   0  0  0  0  0  0  0  0  0  0  0  0
    3.6881    8.0896    3.0735 C   0  0  0  0  0  0  0  0  0  0  0  0
    3.9735    8.7161    4.2603 C   0  0  0  0  0  0  0  0  0  0  0  0
    3.7193    8.2039    5.5489 C   0  0  0  0  0  0  0  0  0  0  0  0
    3.5415    7.8627    6.6322 N   0  0  0  0  0  0  0  0  0  0  0  0
    4.5680    9.9916    4.3569 C   0  0  0  0  0  0  0  0  0  0  0  0
    5.0488   11.0229    4.5114 N   0  0  0  0  0  0  0  0  0  0  0  0
   -3.2884   -7.7941   -3.2904 H   0  0  0  0  0  0  0  0  0  0  0  0
   -2.3037   -7.8339   -8.5183 H   0  0  0  0  0  0  0  0  0  0  0  0
   -1.3254   -7.1726  -10.6625 H   0  0  0  0  0  0  0  0  0  0  0  0
   -2.6677   -6.2002  -11.2611 H   0  0  0  0  0  0  0  0  0  0  0  0
   -1.0815   -5.4631  -11.0620 H   0  0  0  0  0  0  0  0  0  0  0  0
   -2.0735   -3.7050   -9.6263 H   0  0  0  0  0  0  0  0  0  0  0  0
   -2.7343   -3.0174   -7.3691 H   0  0  0  0  0  0  0  0  0  0  0  0
   -3.7848   -7.8281    0.4747 H   0  0  0  0  0  0  0  0  0  0  0  0
   -3.6718   -8.4378   -1.1874 H   0  0  0  0  0  0  0  0  0  0  0  0
   -6.0447   -8.2385   -0.4755 H   0  0  0  0  0  0  0  0  0  0  0  0
   -5.7046   -7.1171   -1.8013 H   0  0  0  0  0  0  0  0  0  0  0  0
   -5.8138   -6.5168   -0.1490 H   0  0  0  0  0  0  0  0  0  0  0  0
    3.0657    4.8832    6.4951 H   0  0  0  0  0  0  0  0  0  0  0  0
    2.2160    3.4284    7.0343 H   0  0  0  0  0  0  0  0  0  0  0  0
    0.8699    6.0829    6.3242 H   0  0  0  0  0  0  0  0  0  0  0  0
    0.0434    4.6246    6.8849 H   0  0  0  0  0  0  0  0  0  0  0  0
    1.1642    5.4775    7.9532 H   0  0  0  0  0  0  0  0  0  0  0  0
   -0.6091   -0.7098   -0.9565 H   0  0  0  0  0  0  0  0  0  0  0  0
   -0.6659   -2.3554   -1.5601 H   0  0  0  0  0  0  0  0  0  0  0  0
    1.6922   -1.5080   -1.4200 H   0  0  0  0  0  0  0  0  0  0  0  0
    1.4266   -2.9483   -0.4348 H   0  0  0  0  0  0  0  0  0  0  0  0
    1.5260   -1.3679    0.3361 H   0  0  0  0  0  0  0  0  0  0  0  0
    0.4531    2.1466    0.8007 H   0  0  0  0  0  0  0  0  0  0  0  0
    0.4576    0.6362   -0.0910 H   0  0  0  0  0  0  0  0  0  0  0  0
   -2.0810    0.4836    0.3570 H   0  0  0  0  0  0  0  0  0  0  0  0
   -1.9713    2.0623    1.1295 H   0  0  0  0  0  0  0  0  0  0  0  0
   -1.6159    1.9033   -0.5910 H   0  0  0  0  0  0  0  0  0  0  0  0
    2.9528    6.2533    4.8986 H   0  0  0  0  0  0  0  0  0  0  0  0
    3.2528    7.2612   -1.2902 H   0  0  0  0  0  0  0  0  0  0  0  0
    4.8076    8.6392   -2.9619 H   0  0  0  0  0  0  0  0  0  0  0  0
    3.3527    9.6239   -2.8921 H   0  0  0  0  0  0  0  0  0  0  0  0
    4.9295   10.3706   -2.6133 H   0  0  0  0  0  0  0  0  0  0  0  0
    5.1012   11.0056   -0.3467 H   0  0  0  0  0  0  0  0  0  0  0  0
    4.8900   10.5609    2.0419 H   0  0  0  0  0  0  0  0  0  0  0  0
  1  2  2  0  0  0  0
  2  3  1  0  0  0  0
  3  4  2  0  0  0  0
  3  5  1  0  0  0  0
  5  6  2  0  0  0  0
  6  7  1  0  0  0  0
  7  8  1  0  0  0  0
  7  9  2  0  0  0  0
  9 10  1  0  0  0  0
 10 11  2  0  0  0  0
 11 12  1  0  0  0  0
 12 13  2  0  0  0  0
 13 14  1  0  0  0  0
 14 15  3  0  0  0  0
 13 16  1  0  0  0  0
 16 17  3  0  0  0  0
  1 18  1  0  0  0  0
 18 19  2  0  0  0  0
 19 20  1  0  0  0  0
 20 21  1  0  0  0  0
 19 22  1  0  0  0  0
 22 23  1  0  0  0  0
 23 24  1  0  0  0  0
 24 25  1  0  0  0  0
 25 26  1  0  0  0  0
 26 27  1  0  0  0  0
 27 28  2  0  0  0  0
 28 29  1  0  0  0  0
 29 30  1  0  0  0  0
 27 31  1  0  0  0  0
 31 32  1  0  0  0  0
 32 33  1  0  0  0  0
 33 34  1  0  0  0  0
 34 35  1  0  0  0  0
 35 36  1  0  0  0  0
 36 37  1  0  0  0  0
 35 38  2  0  0  0  0
 38 39  1  0  0  0  0
 39 40  1  0  0  0  0
 40 41  1  0  0  0  0
 41 42  1  0  0  0  0
 42 43  1  0  0  0  0
 43 44  1  0  0  0  0
 44 45  1  0  0  0  0
 45 46  1  0  0  0  0
 46 47  1  0  0  0  0
 47 48  1  0  0  0  0
 45 49  1  0  0  0  0
 49 50  1  0  0  0  0
 42 51  1  0  0  0  0
 51 52  1  0  0  0  0
 38 53  1  0  0  0  0
 53 54  2  0  0  0  0
 54 55  1  0  0  0  0
 55 56  2  0  0  0  0
 55 57  1  0  0  0  0
 57 58  2  0  0  0  0
 58 59  1  0  0  0  0
 59 60  1  0  0  0  0
 59 61  2  0  0  0  0
 61 62  1  0  0  0  0
 62 63  2  0  0  0  0
 63 64  1  0  0  0  0
 64 65  2  0  0  0  0
 65 66  1  0  0  0  0
 66 67  3  0  0  0  0
 65 68  1  0  0  0  0
 68 69  3  0  0  0  0
 12  2  1  0  0  0  0
 48 18  1  0  0  0  0
 64 54  1  0  0  0  0
 11  5  1  0  0  0  0
 47 22  2  0  0  0  0
 63 57  1  0  0  0  0
 46 24  2  0  0  0  0
 44 25  2  0  0  0  0
 30 26  2  0  0  0  0
 43 31  2  0  0  0  0
 41 32  2  0  0  0  0
 40 34  2  0  0  0  0
  1 70  1  0  0  0  0
  6 71  1  0  0  0  0
  8 72  1  0  0  0  0
  8 73  1  0  0  0  0
  8 74  1  0  0  0  0
  9 75  1  0  0  0  0
 10 76  1  0  0  0  0
 20 77  1  0  0  0  0
 20 78  1  0  0  0  0
 21 79  1  0  0  0  0
 21 80  1  0  0  0  0
 21 81  1  0  0  0  0
 36 82  1  0  0  0  0
 36 83  1  0  0  0  0
 37 84  1  0  0  0  0
 37 85  1  0  0  0  0
 37 86  1  0  0  0  0
 49 87  1  0  0  0  0
 49 88  1  0  0  0  0
 50 89  1  0  0  0  0
 50 90  1  0  0  0  0
 50 91  1  0  0  0  0
 51 92  1  0  0  0  0
 51 93  1  0  0  0  0
 52 94  1  0  0  0  0
 52 95  1  0  0  0  0
 52 96  1  0  0  0  0
 53 97  1  0  0  0  0
 58 98  1  0  0  0  0
 60 99  1  0  0  0  0
 60100  1  0  0  0  0
 60101  1  0  0  0  0
 61102  1  0  0  0  0
 62103  1  0  0  0  0
M  END
