
  xtb     02102217243D
 energy: -234.807138558275 gnorm: 0.000257948509 xtb: 6.4.1 (unknown)
144159  0     0  0            999 V2000
   -4.7306   -1.0672    7.4243 C   0  0  0  0  0  0  0  0  0  0  0  0
   -4.5017   -0.8637    8.7586 C   0  0  0  0  0  0  0  0  0  0  0  0
   -3.3746   -0.1537    9.4069 C   0  0  0  0  0  0  0  0  0  0  0  0
   -2.5301    0.5597    8.9043 O   0  0  0  0  0  0  0  0  0  0  0  0
   -3.4634   -0.4949   10.8402 C   0  0  0  0  0  0  0  0  0  0  0  0
   -2.6014   -0.1412   11.8564 C   0  0  0  0  0  0  0  0  0  0  0  0
   -2.8664   -0.5841   13.1510 C   0  0  0  0  0  0  0  0  0  0  0  0
   -1.9374   -0.2392   14.2709 C   0  0  0  0  0  0  0  0  0  0  0  0
   -3.9938   -1.3704   13.3767 C   0  0  0  0  0  0  0  0  0  0  0  0
   -4.8676   -1.7251   12.3595 C   0  0  0  0  0  0  0  0  0  0  0  0
   -4.6034   -1.2823   11.0724 C   0  0  0  0  0  0  0  0  0  0  0  0
   -5.3061   -1.4713    9.8084 C   0  0  0  0  0  0  0  0  0  0  0  0
   -6.5363   -2.0604    9.6727 C   0  0  0  0  0  0  0  0  0  0  0  0
   -7.2798   -2.1687    8.4783 C   0  0  0  0  0  0  0  0  0  0  0  0
   -7.9642   -2.2839    7.5627 N   0  0  0  0  0  0  0  0  0  0  0  0
   -7.2656   -2.6152   10.7456 C   0  0  0  0  0  0  0  0  0  0  0  0
   -7.9104   -3.0886   11.5692 N   0  0  0  0  0  0  0  0  0  0  0  0
   -4.0683   -0.5862    6.2795 C   0  0  0  0  0  0  0  0  0  0  0  0
   -3.0731    0.3615    6.0980 C   0  0  0  0  0  0  0  0  0  0  0  0
   -2.7199    0.4941    4.7637 C   0  0  0  0  0  0  0  0  0  0  0  0
   -1.5333    1.4633    3.9350 S   0  0  0  0  0  0  0  0  0  0  0  0
   -1.9923    0.7136    2.4452 C   0  0  0  0  0  0  0  0  0  0  0  0
   -1.5306    0.7797    1.0943 C   0  0  0  0  0  0  0  0  0  0  0  0
   -0.5050    1.5224    0.5145 C   0  0  0  0  0  0  0  0  0  0  0  0
   -0.2421    1.2958   -0.8152 C   0  0  0  0  0  0  0  0  0  0  0  0
    0.8200    1.9415   -1.6841 C   0  0  0  0  0  0  0  0  0  0  0  0
    2.1838    1.9252   -1.0289 C   0  0  0  0  0  0  0  0  0  0  0  0
    3.0645    0.8733   -1.2366 C   0  0  0  0  0  0  0  0  0  0  0  0
    4.3281    0.8966   -0.6768 C   0  0  0  0  0  0  0  0  0  0  0  0
    4.7384    1.9604    0.1149 C   0  0  0  0  0  0  0  0  0  0  0  0
    6.1429    2.0271    0.6412 C   0  0  0  0  0  0  0  0  0  0  0  0
    7.0580    2.6931   -0.3894 C   0  0  0  0  0  0  0  0  0  0  0  0
    3.8375    2.9893    0.3562 C   0  0  0  0  0  0  0  0  0  0  0  0
    2.5754    2.9736   -0.2060 C   0  0  0  0  0  0  0  0  0  0  0  0
    0.4434    3.3522   -2.1228 C   0  0  0  0  0  0  0  0  0  0  0  0
    1.3699    4.0926   -2.8497 C   0  0  0  0  0  0  0  0  0  0  0  0
    1.0507    5.3527   -3.3123 C   0  0  0  0  0  0  0  0  0  0  0  0
   -0.2008    5.9093   -3.0681 C   0  0  0  0  0  0  0  0  0  0  0  0
   -0.5340    7.2760   -3.5830 C   0  0  0  0  0  0  0  0  0  0  0  0
   -1.1212    5.1632   -2.3478 C   0  0  0  0  0  0  0  0  0  0  0  0
   -0.8080    3.8967   -1.8829 C   0  0  0  0  0  0  0  0  0  0  0  0
    0.7180    1.0932   -2.9219 C   0  0  0  0  0  0  0  0  0  0  0  0
   -0.3715    0.2437   -2.8433 C   0  0  0  0  0  0  0  0  0  0  0  0
   -0.9767    0.3319   -1.5502 C   0  0  0  0  0  0  0  0  0  0  0  0
   -2.0271   -0.3817   -0.9791 C   0  0  0  0  0  0  0  0  0  0  0  0
   -2.3029   -0.1412    0.3469 C   0  0  0  0  0  0  0  0  0  0  0  0
   -3.3519   -0.8056    1.2221 C   0  0  0  0  0  0  0  0  0  0  0  0
   -3.1919   -2.3106    1.1438 C   0  0  0  0  0  0  0  0  0  0  0  0
   -3.8438   -3.0269    0.1478 C   0  0  0  0  0  0  0  0  0  0  0  0
   -3.6756   -4.3942    0.0440 C   0  0  0  0  0  0  0  0  0  0  0  0
   -2.8515   -5.0813    0.9262 C   0  0  0  0  0  0  0  0  0  0  0  0
   -2.7157   -6.5741    0.8443 C   0  0  0  0  0  0  0  0  0  0  0  0
   -3.8028   -7.2541    1.6792 C   0  0  0  0  0  0  0  0  0  0  0  0
   -2.1955   -4.3591    1.9134 C   0  0  0  0  0  0  0  0  0  0  0  0
   -2.3562   -2.9898    2.0186 C   0  0  0  0  0  0  0  0  0  0  0  0
   -4.7750   -0.3758    0.9036 C   0  0  0  0  0  0  0  0  0  0  0  0
   -5.0537    0.6963    0.0695 C   0  0  0  0  0  0  0  0  0  0  0  0
   -6.3629    1.0858   -0.1523 C   0  0  0  0  0  0  0  0  0  0  0  0
   -7.4197    0.4240    0.4566 C   0  0  0  0  0  0  0  0  0  0  0  0
   -8.8356    0.8794    0.2524 C   0  0  0  0  0  0  0  0  0  0  0  0
   -9.2308    1.8912    1.3301 C   0  0  0  0  0  0  0  0  0  0  0  0
   -7.1326   -0.6414    1.3014 C   0  0  0  0  0  0  0  0  0  0  0  0
   -5.8287   -1.0374    1.5234 C   0  0  0  0  0  0  0  0  0  0  0  0
   -3.0087   -0.2200    2.5658 C   0  0  0  0  0  0  0  0  0  0  0  0
   -3.4370   -0.3453    3.8844 C   0  0  0  0  0  0  0  0  0  0  0  0
   -4.5806   -1.2978    4.7396 S   0  0  0  0  0  0  0  0  0  0  0  0
   -0.6039   -0.7341   -4.2561 S   0  0  0  0  0  0  0  0  0  0  0  0
    0.8294   -0.0232   -4.9567 C   0  0  0  0  0  0  0  0  0  0  0  0
    1.5482   -0.2436   -6.1163 C   0  0  0  0  0  0  0  0  0  0  0  0
    2.7212    0.5134   -6.1664 C   0  0  0  0  0  0  0  0  0  0  0  0
    2.8951    1.5474   -4.7533 S   0  0  0  0  0  0  0  0  0  0  0  0
    1.4154    0.9472   -4.1176 C   0  0  0  0  0  0  0  0  0  0  0  0
    3.6372    0.3998   -7.2254 C   0  0  0  0  0  0  0  0  0  0  0  0
    4.9017    0.9098   -7.3577 C   0  0  0  0  0  0  0  0  0  0  0  0
    5.6337    1.6766   -6.3395 C   0  0  0  0  0  0  0  0  0  0  0  0
    5.1774    2.1616   -5.3173 O   0  0  0  0  0  0  0  0  0  0  0  0
    7.0278    1.7465   -6.8043 C   0  0  0  0  0  0  0  0  0  0  0  0
    7.1212    1.1627   -8.0665 C   0  0  0  0  0  0  0  0  0  0  0  0
    8.3551    1.1059   -8.7283 C   0  0  0  0  0  0  0  0  0  0  0  0
    9.4619    1.6246   -8.1072 C   0  0  0  0  0  0  0  0  0  0  0  0
    9.3998    2.2098   -6.8240 C   0  0  0  0  0  0  0  0  0  0  0  0
   10.5465    2.7253   -6.1858 C   0  0  0  0  0  0  0  0  0  0  0  0
   10.4610    3.2754   -4.9365 C   0  0  0  0  0  0  0  0  0  0  0  0
    9.2275    3.3392   -4.2682 C   0  0  0  0  0  0  0  0  0  0  0  0
    8.0920    2.8552   -4.8563 C   0  0  0  0  0  0  0  0  0  0  0  0
    8.1500    2.2807   -6.1429 C   0  0  0  0  0  0  0  0  0  0  0  0
    5.8038    0.6728   -8.4680 C   0  0  0  0  0  0  0  0  0  0  0  0
    5.4921    0.1291   -9.6865 C   0  0  0  0  0  0  0  0  0  0  0  0
    6.4123   -0.0521  -10.7405 C   0  0  0  0  0  0  0  0  0  0  0  0
    7.1005   -0.2319  -11.6417 N   0  0  0  0  0  0  0  0  0  0  0  0
    4.2091   -0.3037  -10.0837 C   0  0  0  0  0  0  0  0  0  0  0  0
    3.1991   -0.6720  -10.4885 N   0  0  0  0  0  0  0  0  0  0  0  0
   -5.5397   -1.7471    7.1823 H   0  0  0  0  0  0  0  0  0  0  0  0
   -1.7372    0.4694   11.6406 H   0  0  0  0  0  0  0  0  0  0  0  0
   -1.5346    0.7629   14.1433 H   0  0  0  0  0  0  0  0  0  0  0  0
   -1.0989   -0.9366   14.2816 H   0  0  0  0  0  0  0  0  0  0  0  0
   -2.4415   -0.3018   15.2319 H   0  0  0  0  0  0  0  0  0  0  0  0
   -4.1965   -1.7170   14.3797 H   0  0  0  0  0  0  0  0  0  0  0  0
   -5.7254   -2.3380   12.5820 H   0  0  0  0  0  0  0  0  0  0  0  0
   -2.6315    0.9078    6.9104 H   0  0  0  0  0  0  0  0  0  0  0  0
    0.0669    2.2286    1.0965 H   0  0  0  0  0  0  0  0  0  0  0  0
    2.7681    0.0332   -1.8476 H   0  0  0  0  0  0  0  0  0  0  0  0
    5.0084    0.0782   -0.8649 H   0  0  0  0  0  0  0  0  0  0  0  0
    6.5102    1.0205    0.8513 H   0  0  0  0  0  0  0  0  0  0  0  0
    6.1666    2.6012    1.5696 H   0  0  0  0  0  0  0  0  0  0  0  0
    8.0793    2.7402   -0.0179 H   0  0  0  0  0  0  0  0  0  0  0  0
    6.7156    3.7042   -0.5990 H   0  0  0  0  0  0  0  0  0  0  0  0
    7.0506    2.1305   -1.3204 H   0  0  0  0  0  0  0  0  0  0  0  0
    4.1306    3.8194    0.9834 H   0  0  0  0  0  0  0  0  0  0  0  0
    1.8963    3.7940   -0.0230 H   0  0  0  0  0  0  0  0  0  0  0  0
    2.3473    3.6783   -3.0493 H   0  0  0  0  0  0  0  0  0  0  0  0
    1.7823    5.9143   -3.8751 H   0  0  0  0  0  0  0  0  0  0  0  0
    0.1962    8.0036   -3.2317 H   0  0  0  0  0  0  0  0  0  0  0  0
   -1.5226    7.5869   -3.2550 H   0  0  0  0  0  0  0  0  0  0  0  0
   -0.5116    7.2839   -4.6724 H   0  0  0  0  0  0  0  0  0  0  0  0
   -2.1011    5.5721   -2.1460 H   0  0  0  0  0  0  0  0  0  0  0  0
   -1.5475    3.3378   -1.3285 H   0  0  0  0  0  0  0  0  0  0  0  0
   -2.5830   -1.1055   -1.5548 H   0  0  0  0  0  0  0  0  0  0  0  0
   -4.4969   -2.5126   -0.5424 H   0  0  0  0  0  0  0  0  0  0  0  0
   -4.1922   -4.9365   -0.7351 H   0  0  0  0  0  0  0  0  0  0  0  0
   -1.7344   -6.8782    1.2142 H   0  0  0  0  0  0  0  0  0  0  0  0
   -2.8051   -6.8976   -0.1947 H   0  0  0  0  0  0  0  0  0  0  0  0
   -3.7086   -8.3358    1.6189 H   0  0  0  0  0  0  0  0  0  0  0  0
   -4.7891   -6.9702    1.3191 H   0  0  0  0  0  0  0  0  0  0  0  0
   -3.7213   -6.9553    2.7219 H   0  0  0  0  0  0  0  0  0  0  0  0
   -1.5465   -4.8729    2.6083 H   0  0  0  0  0  0  0  0  0  0  0  0
   -1.8259   -2.4492    2.7893 H   0  0  0  0  0  0  0  0  0  0  0  0
   -4.2488    1.2300   -0.4146 H   0  0  0  0  0  0  0  0  0  0  0  0
   -6.5635    1.9189   -0.8110 H   0  0  0  0  0  0  0  0  0  0  0  0
   -9.5102    0.0223    0.3005 H   0  0  0  0  0  0  0  0  0  0  0  0
   -8.9387    1.3418   -0.7313 H   0  0  0  0  0  0  0  0  0  0  0  0
   -9.1460    1.4439    2.3178 H   0  0  0  0  0  0  0  0  0  0  0  0
   -8.5776    2.7602    1.2911 H   0  0  0  0  0  0  0  0  0  0  0  0
  -10.2569    2.2207    1.1847 H   0  0  0  0  0  0  0  0  0  0  0  0
   -7.9390   -1.1679    1.7909 H   0  0  0  0  0  0  0  0  0  0  0  0
   -5.6242   -1.8723    2.1780 H   0  0  0  0  0  0  0  0  0  0  0  0
    1.2702   -0.9339   -6.8924 H   0  0  0  0  0  0  0  0  0  0  0  0
    3.2826   -0.2404   -8.0247 H   0  0  0  0  0  0  0  0  0  0  0  0
    8.4415    0.6579   -9.7042 H   0  0  0  0  0  0  0  0  0  0  0  0
   10.4204    1.5841   -8.6044 H   0  0  0  0  0  0  0  0  0  0  0  0
   11.4945    2.6744   -6.7015 H   0  0  0  0  0  0  0  0  0  0  0  0
   11.3452    3.6647   -4.4536 H   0  0  0  0  0  0  0  0  0  0  0  0
    9.1823    3.7745   -3.2809 H   0  0  0  0  0  0  0  0  0  0  0  0
    7.1392    2.9014   -4.3529 H   0  0  0  0  0  0  0  0  0  0  0  0
  1  2  2  0  0  0  0
  2  3  1  0  0  0  0
  3  4  2  0  0  0  0
  3  5  1  0  0  0  0
  5  6  2  0  0  0  0
  6  7  1  0  0  0  0
  7  8  1  0  0  0  0
  7  9  2  0  0  0  0
  9 10  1  0  0  0  0
 10 11  2  0  0  0  0
 11 12  1  0  0  0  0
 12 13  2  0  0  0  0
 13 14  1  0  0  0  0
 14 15  3  0  0  0  0
 13 16  1  0  0  0  0
 16 17  3  0  0  0  0
  1 18  1  0  0  0  0
 18 19  2  0  0  0  0
 19 20  1  0  0  0  0
 20 21  1  0  0  0  0
 21 22  1  0  0  0  0
 22 23  1  0  0  0  0
 23 24  2  0  0  0  0
 24 25  1  0  0  0  0
 25 26  1  0  0  0  0
 26 27  1  0  0  0  0
 27 28  2  0  0  0  0
 28 29  1  0  0  0  0
 29 30  2  0  0  0  0
 30 31  1  0  0  0  0
 31 32  1  0  0  0  0
 30 33  1  0  0  0  0
 33 34  2  0  0  0  0
 26 35  1  0  0  0  0
 35 36  2  0  0  0  0
 36 37  1  0  0  0  0
 37 38  2  0  0  0  0
 38 39  1  0  0  0  0
 38 40  1  0  0  0  0
 40 41  2  0  0  0  0
 26 42  1  0  0  0  0
 42 43  2  0  0  0  0
 43 44  1  0  0  0  0
 44 45  1  0  0  0  0
 45 46  2  0  0  0  0
 46 47  1  0  0  0  0
 47 48  1  0  0  0  0
 48 49  2  0  0  0  0
 49 50  1  0  0  0  0
 50 51  2  0  0  0  0
 51 52  1  0  0  0  0
 52 53  1  0  0  0  0
 51 54  1  0  0  0  0
 54 55  2  0  0  0  0
 47 56  1  0  0  0  0
 56 57  2  0  0  0  0
 57 58  1  0  0  0  0
 58 59  2  0  0  0  0
 59 60  1  0  0  0  0
 60 61  1  0  0  0  0
 59 62  1  0  0  0  0
 62 63  2  0  0  0  0
 47 64  1  0  0  0  0
 64 65  1  0  0  0  0
 65 66  1  0  0  0  0
 43 67  1  0  0  0  0
 67 68  1  0  0  0  0
 68 69  1  0  0  0  0
 69 70  2  0  0  0  0
 70 71  1  0  0  0  0
 71 72  1  0  0  0  0
 70 73  1  0  0  0  0
 73 74  2  0  0  0  0
 74 75  1  0  0  0  0
 75 76  2  0  0  0  0
 75 77  1  0  0  0  0
 77 78  2  0  0  0  0
 78 79  1  0  0  0  0
 79 80  2  0  0  0  0
 80 81  1  0  0  0  0
 81 82  2  0  0  0  0
 82 83  1  0  0  0  0
 83 84  2  0  0  0  0
 84 85  1  0  0  0  0
 85 86  2  0  0  0  0
 78 87  1  0  0  0  0
 87 88  2  0  0  0  0
 88 89  1  0  0  0  0
 89 90  3  0  0  0  0
 88 91  1  0  0  0  0
 91 92  3  0  0  0  0
 12  2  1  0  0  0  0
 66 18  1  0  0  0  0
 72 68  2  0  0  0  0
 87 74  1  0  0  0  0
 11  5  1  0  0  0  0
 65 20  2  0  0  0  0
 86 77  1  0  0  0  0
 64 22  2  0  0  0  0
 86 81  1  0  0  0  0
 46 23  1  0  0  0  0
 55 48  1  0  0  0  0
 63 56  1  0  0  0  0
 44 25  2  0  0  0  0
 34 27  1  0  0  0  0
 41 35  1  0  0  0  0
 72 42  1  0  0  0  0
  1 93  1  0  0  0  0
  6 94  1  0  0  0  0
  8 95  1  0  0  0  0
  8 96  1  0  0  0  0
  8 97  1  0  0  0  0
  9 98  1  0  0  0  0
 10 99  1  0  0  0  0
 19100  1  0  0  0  0
 24101  1  0  0  0  0
 28102  1  0  0  0  0
 29103  1  0  0  0  0
 31104  1  0  0  0  0
 31105  1  0  0  0  0
 32106  1  0  0  0  0
 32107  1  0  0  0  0
 32108  1  0  0  0  0
 33109  1  0  0  0  0
 34110  1  0  0  0  0
 36111  1  0  0  0  0
 37112  1  0  0  0  0
 39113  1  0  0  0  0
 39114  1  0  0  0  0
 39115  1  0  0  0  0
 40116  1  0  0  0  0
 41117  1  0  0  0  0
 45118  1  0  0  0  0
 49119  1  0  0  0  0
 50120  1  0  0  0  0
 52121  1  0  0  0  0
 52122  1  0  0  0  0
 53123  1  0  0  0  0
 53124  1  0  0  0  0
 53125  1  0  0  0  0
 54126  1  0  0  0  0
 55127  1  0  0  0  0
 57128  1  0  0  0  0
 58129  1  0  0  0  0
 60130  1  0  0  0  0
 60131  1  0  0  0  0
 61132  1  0  0  0  0
 61133  1  0  0  0  0
 61134  1  0  0  0  0
 62135  1  0  0  0  0
 63136  1  0  0  0  0
 69137  1  0  0  0  0
 73138  1  0  0  0  0
 79139  1  0  0  0  0
 80140  1  0  0  0  0
 82141  1  0  0  0  0
 83142  1  0  0  0  0
 84143  1  0  0  0  0
 85144  1  0  0  0  0
M  END
