
  xtb     02012219513D
 energy: -263.285451510783 gnorm: 0.000321744107 xtb: 6.4.1 (unknown)
159174  0     0  0            999 V2000
    3.0275    2.7038    8.7412 C   0  0  0  0  0  0  0  0  0  0  0  0
    4.1810    2.2008    9.2617 C   0  0  0  0  0  0  0  0  0  0  0  0
    4.2445    1.8392   10.7030 C   0  0  0  0  0  0  0  0  0  0  0  0
    3.4660    2.1669   11.5697 O   0  0  0  0  0  0  0  0  0  0  0  0
    5.4176    0.9478   10.8191 C   0  0  0  0  0  0  0  0  0  0  0  0
    5.8486    0.2190   11.9066 C   0  0  0  0  0  0  0  0  0  0  0  0
    6.9802   -0.5866   11.7764 C   0  0  0  0  0  0  0  0  0  0  0  0
    7.4565   -1.3936   12.9421 C   0  0  0  0  0  0  0  0  0  0  0  0
    7.6418   -0.6327   10.5525 C   0  0  0  0  0  0  0  0  0  0  0  0
    7.2203    0.1045    9.4547 C   0  0  0  0  0  0  0  0  0  0  0  0
    6.0979    0.9040    9.5867 C   0  0  0  0  0  0  0  0  0  0  0  0
    5.4300    1.8016    8.6503 C   0  0  0  0  0  0  0  0  0  0  0  0
    6.0079    2.3770    7.5484 C   0  0  0  0  0  0  0  0  0  0  0  0
    5.4273    3.4512    6.8432 C   0  0  0  0  0  0  0  0  0  0  0  0
    5.0073    4.3559    6.2744 N   0  0  0  0  0  0  0  0  0  0  0  0
    7.2820    2.0270    7.0603 C   0  0  0  0  0  0  0  0  0  0  0  0
    8.3089    1.7678    6.6172 N   0  0  0  0  0  0  0  0  0  0  0  0
    2.5721    2.6953    7.4056 C   0  0  0  0  0  0  0  0  0  0  0  0
    3.2024    1.5789    6.2011 S   0  0  0  0  0  0  0  0  0  0  0  0
    2.0779    2.1714    5.0602 C   0  0  0  0  0  0  0  0  0  0  0  0
    1.7194    1.9263    3.7166 C   0  0  0  0  0  0  0  0  0  0  0  0
    0.6747    2.7577    3.3375 C   0  0  0  0  0  0  0  0  0  0  0  0
    0.2809    3.6496    4.5085 C   0  0  0  0  0  0  0  0  0  0  0  0
    1.2542    3.1710    5.5721 C   0  0  0  0  0  0  0  0  0  0  0  0
    1.5200    3.4512    6.9017 C   0  0  0  0  0  0  0  0  0  0  0  0
    0.5866    5.1108    4.1982 C   0  0  0  0  0  0  0  0  0  0  0  0
   -0.3867    6.0984    4.1355 C   0  0  0  0  0  0  0  0  0  0  0  0
   -0.0386    7.4104    3.8658 C   0  0  0  0  0  0  0  0  0  0  0  0
    1.2832    7.7737    3.6521 C   0  0  0  0  0  0  0  0  0  0  0  0
    1.6493    9.1923    3.3254 C   0  0  0  0  0  0  0  0  0  0  0  0
    1.5989    9.4223    1.8136 C   0  0  0  0  0  0  0  0  0  0  0  0
    2.2528    6.7804    3.7035 C   0  0  0  0  0  0  0  0  0  0  0  0
    1.9115    5.4696    3.9721 C   0  0  0  0  0  0  0  0  0  0  0  0
   -1.1140    3.3789    5.0401 C   0  0  0  0  0  0  0  0  0  0  0  0
   -1.6073    4.1375    6.0967 C   0  0  0  0  0  0  0  0  0  0  0  0
   -2.8570    3.8817    6.6270 C   0  0  0  0  0  0  0  0  0  0  0  0
   -3.6488    2.8550    6.1282 C   0  0  0  0  0  0  0  0  0  0  0  0
   -4.9906    2.5531    6.7292 C   0  0  0  0  0  0  0  0  0  0  0  0
   -4.8524    1.5269    7.8556 C   0  0  0  0  0  0  0  0  0  0  0  0
   -3.1420    2.0806    5.0944 C   0  0  0  0  0  0  0  0  0  0  0  0
   -1.8911    2.3324    4.5601 C   0  0  0  0  0  0  0  0  0  0  0  0
    0.2444    2.4951    2.0097 C   0  0  0  0  0  0  0  0  0  0  0  0
   -0.7976    3.0757    1.2231 C   0  0  0  0  0  0  0  0  0  0  0  0
   -1.5202    4.2840    1.7403 C   0  0  0  0  0  0  0  0  0  0  0  0
   -2.6263    4.8265    0.8451 C   0  0  0  0  0  0  0  0  0  0  0  0
   -1.0945    2.5098    0.0161 C   0  0  0  0  0  0  0  0  0  0  0  0
   -0.3885    1.4030   -0.5057 C   0  0  0  0  0  0  0  0  0  0  0  0
   -0.7478    0.7471   -1.6939 C   0  0  0  0  0  0  0  0  0  0  0  0
   -2.1658    1.1712   -2.6161 S   0  0  0  0  0  0  0  0  0  0  0  0
   -1.8587   -0.1647   -3.6556 C   0  0  0  0  0  0  0  0  0  0  0  0
   -2.5272   -0.7525   -4.7481 C   0  0  0  0  0  0  0  0  0  0  0  0
   -1.8044   -1.8810   -5.1621 C   0  0  0  0  0  0  0  0  0  0  0  0
   -0.5708   -2.0659   -4.2964 C   0  0  0  0  0  0  0  0  0  0  0  0
   -0.7104   -3.4218   -3.6264 C   0  0  0  0  0  0  0  0  0  0  0  0
   -0.6248   -4.5784   -4.3955 C   0  0  0  0  0  0  0  0  0  0  0  0
   -0.7845   -5.8223   -3.8173 C   0  0  0  0  0  0  0  0  0  0  0  0
   -1.0443   -5.9520   -2.4585 C   0  0  0  0  0  0  0  0  0  0  0  0
   -1.2506   -7.3050   -1.8425 C   0  0  0  0  0  0  0  0  0  0  0  0
   -2.7144   -7.7316   -1.9689 C   0  0  0  0  0  0  0  0  0  0  0  0
   -1.1609   -4.7959   -1.7007 C   0  0  0  0  0  0  0  0  0  0  0  0
   -1.0033   -3.5465   -2.2748 C   0  0  0  0  0  0  0  0  0  0  0  0
    0.6704   -1.8963   -5.1649 C   0  0  0  0  0  0  0  0  0  0  0  0
    0.7648   -0.7527   -5.9512 C   0  0  0  0  0  0  0  0  0  0  0  0
    1.8571   -0.5444   -6.7699 C   0  0  0  0  0  0  0  0  0  0  0  0
    2.8891   -1.4723   -6.8304 C   0  0  0  0  0  0  0  0  0  0  0  0
    4.0931   -1.2287   -7.6926 C   0  0  0  0  0  0  0  0  0  0  0  0
    5.1423   -0.4178   -6.9290 C   0  0  0  0  0  0  0  0  0  0  0  0
    2.7979   -2.6055   -6.0350 C   0  0  0  0  0  0  0  0  0  0  0  0
    1.7064   -2.8183   -5.2116 C   0  0  0  0  0  0  0  0  0  0  0  0
   -0.7127   -0.8886   -3.3431 C   0  0  0  0  0  0  0  0  0  0  0  0
   -0.0424   -0.3607   -2.2108 C   0  0  0  0  0  0  0  0  0  0  0  0
    1.1453   -0.7861   -1.5386 C   0  0  0  0  0  0  0  0  0  0  0  0
    1.9883   -1.8687   -2.1447 C   0  0  0  0  0  0  0  0  0  0  0  0
    3.2181   -2.2731   -1.3426 C   0  0  0  0  0  0  0  0  0  0  0  0
    1.4772   -0.1765   -0.3633 C   0  0  0  0  0  0  0  0  0  0  0  0
    0.7219    0.8799    0.1929 C   0  0  0  0  0  0  0  0  0  0  0  0
    0.9947    1.4400    1.4505 C   0  0  0  0  0  0  0  0  0  0  0  0
    2.2389    0.8238    2.5063 S   0  0  0  0  0  0  0  0  0  0  0  0
   -2.3973   -2.5510   -6.2080 C   0  0  0  0  0  0  0  0  0  0  0  0
   -3.5956   -1.9570   -6.6131 C   0  0  0  0  0  0  0  0  0  0  0  0
   -3.9432   -0.5012   -5.6607 S   0  0  0  0  0  0  0  0  0  0  0  0
   -4.5437   -2.2975   -7.5809 C   0  0  0  0  0  0  0  0  0  0  0  0
   -4.6783   -3.4098   -8.3852 C   0  0  0  0  0  0  0  0  0  0  0  0
   -3.8726   -4.6436   -8.3801 C   0  0  0  0  0  0  0  0  0  0  0  0
   -2.8361   -4.8848   -7.8007 O   0  0  0  0  0  0  0  0  0  0  0  0
   -4.6032   -5.5921   -9.2602 C   0  0  0  0  0  0  0  0  0  0  0  0
   -5.7300   -4.9607   -9.8105 C   0  0  0  0  0  0  0  0  0  0  0  0
   -6.5805   -5.6527  -10.6560 C   0  0  0  0  0  0  0  0  0  0  0  0
   -6.2836   -6.9783  -10.9390 C   0  0  0  0  0  0  0  0  0  0  0  0
   -7.0945   -7.6669  -11.7468 F   0  0  0  0  0  0  0  0  0  0  0  0
   -5.1675   -7.6172  -10.4047 C   0  0  0  0  0  0  0  0  0  0  0  0
   -4.9164   -8.8960  -10.7016 F   0  0  0  0  0  0  0  0  0  0  0  0
   -4.3144   -6.9126   -9.5529 C   0  0  0  0  0  0  0  0  0  0  0  0
   -3.2517   -7.5274   -9.0398 F   0  0  0  0  0  0  0  0  0  0  0  0
   -5.7684   -3.5803   -9.3225 C   0  0  0  0  0  0  0  0  0  0  0  0
   -6.6656   -2.6329   -9.7477 C   0  0  0  0  0  0  0  0  0  0  0  0
   -7.7039   -2.8824  -10.6697 C   0  0  0  0  0  0  0  0  0  0  0  0
   -8.5726   -3.0147  -11.4085 N   0  0  0  0  0  0  0  0  0  0  0  0
   -6.6812   -1.2720   -9.3736 C   0  0  0  0  0  0  0  0  0  0  0  0
   -6.7663   -0.1486   -9.1491 N   0  0  0  0  0  0  0  0  0  0  0  0
    2.3176    3.0818    9.4714 H   0  0  0  0  0  0  0  0  0  0  0  0
    5.3128    0.2767   12.8423 H   0  0  0  0  0  0  0  0  0  0  0  0
    7.5865   -0.7574   13.8160 H   0  0  0  0  0  0  0  0  0  0  0  0
    8.4000   -1.8853   12.7214 H   0  0  0  0  0  0  0  0  0  0  0  0
    6.7189   -2.1547   13.1956 H   0  0  0  0  0  0  0  0  0  0  0  0
    8.5131   -1.2633   10.4517 H   0  0  0  0  0  0  0  0  0  0  0  0
    7.7550    0.0369    8.5207 H   0  0  0  0  0  0  0  0  0  0  0  0
    1.0133    4.1844    7.5015 H   0  0  0  0  0  0  0  0  0  0  0  0
   -1.4262    5.8559    4.2965 H   0  0  0  0  0  0  0  0  0  0  0  0
   -0.8128    8.1636    3.8263 H   0  0  0  0  0  0  0  0  0  0  0  0
    2.6563    9.4062    3.6884 H   0  0  0  0  0  0  0  0  0  0  0  0
    0.9551    9.8770    3.8169 H   0  0  0  0  0  0  0  0  0  0  0  0
    1.8680   10.4488    1.5758 H   0  0  0  0  0  0  0  0  0  0  0  0
    0.5980    9.2287    1.4339 H   0  0  0  0  0  0  0  0  0  0  0  0
    2.2921    8.7549    1.3064 H   0  0  0  0  0  0  0  0  0  0  0  0
    3.2901    7.0347    3.5430 H   0  0  0  0  0  0  0  0  0  0  0  0
    2.6894    4.7220    4.0178 H   0  0  0  0  0  0  0  0  0  0  0  0
   -1.0121    4.9416    6.5026 H   0  0  0  0  0  0  0  0  0  0  0  0
   -3.2237    4.4902    7.4413 H   0  0  0  0  0  0  0  0  0  0  0  0
   -5.6585    2.1567    5.9617 H   0  0  0  0  0  0  0  0  0  0  0  0
   -5.4325    3.4682    7.1282 H   0  0  0  0  0  0  0  0  0  0  0  0
   -5.8245    1.3060    8.2898 H   0  0  0  0  0  0  0  0  0  0  0  0
   -4.2007    1.9091    8.6381 H   0  0  0  0  0  0  0  0  0  0  0  0
   -4.4233    0.6027    7.4750 H   0  0  0  0  0  0  0  0  0  0  0  0
   -3.7327    1.2677    4.6970 H   0  0  0  0  0  0  0  0  0  0  0  0
   -1.5263    1.7054    3.7603 H   0  0  0  0  0  0  0  0  0  0  0  0
   -0.7764    5.0698    1.8985 H   0  0  0  0  0  0  0  0  0  0  0  0
   -1.9456    4.0416    2.7167 H   0  0  0  0  0  0  0  0  0  0  0  0
   -3.0700    5.7007    1.3161 H   0  0  0  0  0  0  0  0  0  0  0  0
   -2.2358    5.1276   -0.1242 H   0  0  0  0  0  0  0  0  0  0  0  0
   -3.4105    4.0875    0.6977 H   0  0  0  0  0  0  0  0  0  0  0  0
   -1.9005    2.9005   -0.5844 H   0  0  0  0  0  0  0  0  0  0  0  0
   -0.4293   -4.5106   -5.4542 H   0  0  0  0  0  0  0  0  0  0  0  0
   -0.7081   -6.7057   -4.4341 H   0  0  0  0  0  0  0  0  0  0  0  0
   -0.9724   -7.2784   -0.7869 H   0  0  0  0  0  0  0  0  0  0  0  0
   -0.6185   -8.0396   -2.3453 H   0  0  0  0  0  0  0  0  0  0  0  0
   -2.8633   -8.7146   -1.5283 H   0  0  0  0  0  0  0  0  0  0  0  0
   -3.0071   -7.7715   -3.0156 H   0  0  0  0  0  0  0  0  0  0  0  0
   -3.3613   -7.0205   -1.4598 H   0  0  0  0  0  0  0  0  0  0  0  0
   -1.3775   -4.8680   -0.6444 H   0  0  0  0  0  0  0  0  0  0  0  0
   -1.1091   -2.6684   -1.6550 H   0  0  0  0  0  0  0  0  0  0  0  0
   -0.0262   -0.0166   -5.9253 H   0  0  0  0  0  0  0  0  0  0  0  0
    1.9058    0.3492   -7.3753 H   0  0  0  0  0  0  0  0  0  0  0  0
    4.5278   -2.1822   -7.9987 H   0  0  0  0  0  0  0  0  0  0  0  0
    3.7999   -0.6820   -8.5909 H   0  0  0  0  0  0  0  0  0  0  0  0
    6.0155   -0.2436   -7.5530 H   0  0  0  0  0  0  0  0  0  0  0  0
    5.4555   -0.9510   -6.0340 H   0  0  0  0  0  0  0  0  0  0  0  0
    4.7328    0.5441   -6.6282 H   0  0  0  0  0  0  0  0  0  0  0  0
    3.5913   -3.3388   -6.0585 H   0  0  0  0  0  0  0  0  0  0  0  0
    1.6751   -3.7088   -4.6031 H   0  0  0  0  0  0  0  0  0  0  0  0
    2.3088   -1.5242   -3.1318 H   0  0  0  0  0  0  0  0  0  0  0  0
    1.3641   -2.7514   -2.2987 H   0  0  0  0  0  0  0  0  0  0  0  0
    3.8974   -1.4338   -1.2133 H   0  0  0  0  0  0  0  0  0  0  0  0
    2.9396   -2.6580   -0.3644 H   0  0  0  0  0  0  0  0  0  0  0  0
    3.7493   -3.0579   -1.8761 H   0  0  0  0  0  0  0  0  0  0  0  0
    2.3458   -0.4962    0.1897 H   0  0  0  0  0  0  0  0  0  0  0  0
   -2.0224   -3.4377   -6.6817 H   0  0  0  0  0  0  0  0  0  0  0  0
   -5.3347   -1.5625   -7.6742 H   0  0  0  0  0  0  0  0  0  0  0  0
   -7.4598   -5.2141  -11.0971 H   0  0  0  0  0  0  0  0  0  0  0  0
  1  2  2  0  0  0  0
  2  3  1  0  0  0  0
  3  4  2  0  0  0  0
  3  5  1  0  0  0  0
  5  6  2  0  0  0  0
  6  7  1  0  0  0  0
  7  8  1  0  0  0  0
  7  9  2  0  0  0  0
  9 10  1  0  0  0  0
 10 11  2  0  0  0  0
 11 12  1  0  0  0  0
 12 13  2  0  0  0  0
 13 14  1  0  0  0  0
 14 15  3  0  0  0  0
 13 16  1  0  0  0  0
 16 17  3  0  0  0  0
  1 18  1  0  0  0  0
 18 19  1  0  0  0  0
 19 20  1  0  0  0  0
 20 21  1  0  0  0  0
 21 22  2  0  0  0  0
 22 23  1  0  0  0  0
 23 24  1  0  0  0  0
 24 25  1  0  0  0  0
 23 26  1  0  0  0  0
 26 27  2  0  0  0  0
 27 28  1  0  0  0  0
 28 29  2  0  0  0  0
 29 30  1  0  0  0  0
 30 31  1  0  0  0  0
 29 32  1  0  0  0  0
 32 33  2  0  0  0  0
 23 34  1  0  0  0  0
 34 35  2  0  0  0  0
 35 36  1  0  0  0  0
 36 37  2  0  0  0  0
 37 38  1  0  0  0  0
 38 39  1  0  0  0  0
 37 40  1  0  0  0  0
 40 41  2  0  0  0  0
 22 42  1  0  0  0  0
 42 43  2  0  0  0  0
 43 44  1  0  0  0  0
 44 45  1  0  0  0  0
 43 46  1  0  0  0  0
 46 47  2  0  0  0  0
 47 48  1  0  0  0  0
 48 49  1  0  0  0  0
 49 50  1  0  0  0  0
 50 51  1  0  0  0  0
 51 52  2  0  0  0  0
 52 53  1  0  0  0  0
 53 54  1  0  0  0  0
 54 55  2  0  0  0  0
 55 56  1  0  0  0  0
 56 57  2  0  0  0  0
 57 58  1  0  0  0  0
 58 59  1  0  0  0  0
 57 60  1  0  0  0  0
 60 61  2  0  0  0  0
 53 62  1  0  0  0  0
 62 63  2  0  0  0  0
 63 64  1  0  0  0  0
 64 65  2  0  0  0  0
 65 66  1  0  0  0  0
 66 67  1  0  0  0  0
 65 68  1  0  0  0  0
 68 69  2  0  0  0  0
 53 70  1  0  0  0  0
 70 71  1  0  0  0  0
 71 72  1  0  0  0  0
 72 73  1  0  0  0  0
 73 74  1  0  0  0  0
 72 75  2  0  0  0  0
 75 76  1  0  0  0  0
 76 77  2  0  0  0  0
 77 78  1  0  0  0  0
 52 79  1  0  0  0  0
 79 80  2  0  0  0  0
 80 81  1  0  0  0  0
 80 82  1  0  0  0  0
 82 83  2  0  0  0  0
 83 84  1  0  0  0  0
 84 85  2  0  0  0  0
 84 86  1  0  0  0  0
 86 87  2  0  0  0  0
 87 88  1  0  0  0  0
 88 89  2  0  0  0  0
 89 90  1  0  0  0  0
 89 91  1  0  0  0  0
 91 92  1  0  0  0  0
 91 93  2  0  0  0  0
 93 94  1  0  0  0  0
 87 95  1  0  0  0  0
 95 96  2  0  0  0  0
 96 97  1  0  0  0  0
 97 98  3  0  0  0  0
 96 99  1  0  0  0  0
 99100  3  0  0  0  0
 12  2  1  0  0  0  0
 25 18  2  0  0  0  0
 33 26  1  0  0  0  0
 41 34  1  0  0  0  0
 77 42  1  0  0  0  0
 95 83  1  0  0  0  0
 11  5  1  0  0  0  0
 24 20  2  0  0  0  0
 76 47  1  0  0  0  0
 93 86  1  0  0  0  0
 78 21  1  0  0  0  0
 71 48  2  0  0  0  0
 70 50  2  0  0  0  0
 81 51  1  0  0  0  0
 61 54  1  0  0  0  0
 69 62  1  0  0  0  0
  1101  1  0  0  0  0
  6102  1  0  0  0  0
  8103  1  0  0  0  0
  8104  1  0  0  0  0
  8105  1  0  0  0  0
  9106  1  0  0  0  0
 10107  1  0  0  0  0
 25108  1  0  0  0  0
 27109  1  0  0  0  0
 28110  1  0  0  0  0
 30111  1  0  0  0  0
 30112  1  0  0  0  0
 31113  1  0  0  0  0
 31114  1  0  0  0  0
 31115  1  0  0  0  0
 32116  1  0  0  0  0
 33117  1  0  0  0  0
 35118  1  0  0  0  0
 36119  1  0  0  0  0
 38120  1  0  0  0  0
 38121  1  0  0  0  0
 39122  1  0  0  0  0
 39123  1  0  0  0  0
 39124  1  0  0  0  0
 40125  1  0  0  0  0
 41126  1  0  0  0  0
 44127  1  0  0  0  0
 44128  1  0  0  0  0
 45129  1  0  0  0  0
 45130  1  0  0  0  0
 45131  1  0  0  0  0
 46132  1  0  0  0  0
 55133  1  0  0  0  0
 56134  1  0  0  0  0
 58135  1  0  0  0  0
 58136  1  0  0  0  0
 59137  1  0  0  0  0
 59138  1  0  0  0  0
 59139  1  0  0  0  0
 60140  1  0  0  0  0
 61141  1  0  0  0  0
 63142  1  0  0  0  0
 64143  1  0  0  0  0
 66144  1  0  0  0  0
 66145  1  0  0  0  0
 67146  1  0  0  0  0
 67147  1  0  0  0  0
 67148  1  0  0  0  0
 68149  1  0  0  0  0
 69150  1  0  0  0  0
 73151  1  0  0  0  0
 73152  1  0  0  0  0
 74153  1  0  0  0  0
 74154  1  0  0  0  0
 74155  1  0  0  0  0
 75156  1  0  0  0  0
 79157  1  0  0  0  0
 82158  1  0  0  0  0
 88159  1  0  0  0  0
M  END
