159

C          3.02750        2.70380        8.74120
C          4.18100        2.20080        9.26170
C          4.24450        1.83920       10.70300
O          3.46600        2.16690       11.56970
C          5.41760        0.94780       10.81910
C          5.84860        0.21900       11.90660
C          6.98020       -0.58660       11.77640
C          7.45650       -1.39360       12.94210
C          7.64180       -0.63270       10.55250
C          7.22030        0.10450        9.45470
C          6.09790        0.90400        9.58670
C          5.43000        1.80160        8.65030
C          6.00790        2.37700        7.54840
C          5.42730        3.45120        6.84320
N          5.00730        4.35590        6.27440
C          7.28200        2.02700        7.06030
N          8.30890        1.76780        6.61720
C          2.57210        2.69530        7.40560
S          3.20240        1.57890        6.20110
C          2.07790        2.17140        5.06020
C          1.71940        1.92630        3.71660
C          0.67470        2.75770        3.33750
C          0.28090        3.64960        4.50850
C          1.25420        3.17100        5.57210
C          1.52000        3.45120        6.90170
C          0.58660        5.11080        4.19820
C         -0.38670        6.09840        4.13550
C         -0.03860        7.41040        3.86580
C          1.28320        7.77370        3.65210
C          1.64930        9.19230        3.32540
C          1.59890        9.42230        1.81360
C          2.25280        6.78040        3.70350
C          1.91150        5.46960        3.97210
C         -1.11400        3.37890        5.04010
C         -1.60730        4.13750        6.09670
C         -2.85700        3.88170        6.62700
C         -3.64880        2.85500        6.12820
C         -4.99060        2.55310        6.72920
C         -4.85240        1.52690        7.85560
C         -3.14200        2.08060        5.09440
C         -1.89110        2.33240        4.56010
C          0.24440        2.49510        2.00970
C         -0.79760        3.07570        1.22310
C         -1.52020        4.28400        1.74030
C         -2.62630        4.82650        0.84510
C         -1.09450        2.50980        0.01610
C         -0.38850        1.40300       -0.50570
C         -0.74780        0.74710       -1.69390
S         -2.16580        1.17120       -2.61610
C         -1.85870       -0.16470       -3.65560
C         -2.52720       -0.75250       -4.74810
C         -1.80440       -1.88100       -5.16210
C         -0.57080       -2.06590       -4.29640
C         -0.71040       -3.42180       -3.62640
C         -0.62480       -4.57840       -4.39550
C         -0.78450       -5.82230       -3.81730
C         -1.04430       -5.95200       -2.45850
C         -1.25060       -7.30500       -1.84250
C         -2.71440       -7.73160       -1.96890
C         -1.16090       -4.79590       -1.70070
C         -1.00330       -3.54650       -2.27480
C          0.67040       -1.89630       -5.16490
C          0.76480       -0.75270       -5.95120
C          1.85710       -0.54440       -6.76990
C          2.88910       -1.47230       -6.83040
C          4.09310       -1.22870       -7.69260
C          5.14230       -0.41780       -6.92900
C          2.79790       -2.60550       -6.03500
C          1.70640       -2.81830       -5.21160
C         -0.71270       -0.88860       -3.34310
C         -0.04240       -0.36070       -2.21080
C          1.14530       -0.78610       -1.53860
C          1.98830       -1.86870       -2.14470
C          3.21810       -2.27310       -1.34260
C          1.47720       -0.17650       -0.36330
C          0.72190        0.87990        0.19290
C          0.99470        1.44000        1.45050
S          2.23890        0.82380        2.50630
C         -2.39730       -2.55100       -6.20800
C         -3.59560       -1.95700       -6.61310
S         -3.94320       -0.50120       -5.66070
C         -4.54370       -2.29750       -7.58090
C         -4.67830       -3.40980       -8.38520
C         -3.87260       -4.64360       -8.38010
O         -2.83610       -4.88480       -7.80070
C         -4.60320       -5.59210       -9.26020
C         -5.73000       -4.96070       -9.81050
C         -6.58050       -5.65270      -10.65600
C         -6.28360       -6.97830      -10.93900
F         -7.09450       -7.66690      -11.74680
C         -5.16750       -7.61720      -10.40470
F         -4.91640       -8.89600      -10.70160
C         -4.31440       -6.91260       -9.55290
F         -3.25170       -7.52740       -9.03980
C         -5.76840       -3.58030       -9.32250
C         -6.66560       -2.63290       -9.74770
C         -7.70390       -2.88240      -10.66970
N         -8.57260       -3.01470      -11.40850
C         -6.68120       -1.27200       -9.37360
N         -6.76630       -0.14860       -9.14910
H          2.31760        3.08180        9.47140
H          5.31280        0.27670       12.84230
H          7.58650       -0.75740       13.81600
H          8.40000       -1.88530       12.72140
H          6.71890       -2.15470       13.19560
H          8.51310       -1.26330       10.45170
H          7.75500        0.03690        8.52070
H          1.01330        4.18440        7.50150
H         -1.42620        5.85590        4.29650
H         -0.81280        8.16360        3.82630
H          2.65630        9.40620        3.68840
H          0.95510        9.87700        3.81690
H          1.86800       10.44880        1.57580
H          0.59800        9.22870        1.43390
H          2.29210        8.75490        1.30640
H          3.29010        7.03470        3.54300
H          2.68940        4.72200        4.01780
H         -1.01210        4.94160        6.50260
H         -3.22370        4.49020        7.44130
H         -5.65850        2.15670        5.96170
H         -5.43250        3.46820        7.12820
H         -5.82450        1.30600        8.28980
H         -4.20070        1.90910        8.63810
H         -4.42330        0.60270        7.47500
H         -3.73270        1.26770        4.69700
H         -1.52630        1.70540        3.76030
H         -0.77640        5.06980        1.89850
H         -1.94560        4.04160        2.71670
H         -3.07000        5.70070        1.31610
H         -2.23580        5.12760       -0.12420
H         -3.41050        4.08750        0.69770
H         -1.90050        2.90050       -0.58440
H         -0.42930       -4.51060       -5.45420
H         -0.70810       -6.70570       -4.43410
H         -0.97240       -7.27840       -0.78690
H         -0.61850       -8.03960       -2.34530
H         -2.86330       -8.71460       -1.52830
H         -3.00710       -7.77150       -3.01560
H         -3.36130       -7.02050       -1.45980
H         -1.37750       -4.86800       -0.64440
H         -1.10910       -2.66840       -1.65500
H         -0.02620       -0.01660       -5.92530
H          1.90580        0.34920       -7.37530
H          4.52780       -2.18220       -7.99870
H          3.79990       -0.68200       -8.59090
H          6.01550       -0.24360       -7.55300
H          5.45550       -0.95100       -6.03400
H          4.73280        0.54410       -6.62820
H          3.59130       -3.33880       -6.05850
H          1.67510       -3.70880       -4.60310
H          2.30880       -1.52420       -3.13180
H          1.36410       -2.75140       -2.29870
H          3.89740       -1.43380       -1.21330
H          2.93960       -2.65800       -0.36440
H          3.74930       -3.05790       -1.87610
H          2.34580       -0.49620        0.18970
H         -2.02240       -3.43770       -6.68170
H         -5.33470       -1.56250       -7.67420
H         -7.45980       -5.21410      -11.09710
