
  xtb     02022210343D
 energy: -197.561872485860 gnorm: 0.000443297822 xtb: 6.4.1 (unknown)
116130  0     0  0            999 V2000
   -0.2830   -6.8571   -4.5642 C   0  0  0  0  0  0  0  0  0  0  0  0
   -0.5864   -7.7875   -3.5999 C   0  0  0  0  0  0  0  0  0  0  0  0
   -0.1685   -7.7504   -2.1963 C   0  0  0  0  0  0  0  0  0  0  0  0
    0.6117   -6.9740   -1.6700 O   0  0  0  0  0  0  0  0  0  0  0  0
   -0.8795   -8.8556   -1.5287 C   0  0  0  0  0  0  0  0  0  0  0  0
   -0.8684   -9.2087   -0.1965 C   0  0  0  0  0  0  0  0  0  0  0  0
   -1.6408  -10.2917    0.2208 C   0  0  0  0  0  0  0  0  0  0  0  0
   -1.6748  -10.6804    1.6647 C   0  0  0  0  0  0  0  0  0  0  0  0
   -2.3949  -10.9845   -0.7223 C   0  0  0  0  0  0  0  0  0  0  0  0
   -2.4068  -10.6360   -2.0657 C   0  0  0  0  0  0  0  0  0  0  0  0
   -1.6417   -9.5573   -2.4793 C   0  0  0  0  0  0  0  0  0  0  0  0
   -1.4525   -8.9351   -3.7879 C   0  0  0  0  0  0  0  0  0  0  0  0
   -2.0019   -9.3833   -4.9627 C   0  0  0  0  0  0  0  0  0  0  0  0
   -1.8172   -8.8031   -6.2340 C   0  0  0  0  0  0  0  0  0  0  0  0
   -1.7178   -8.3916   -7.3028 N   0  0  0  0  0  0  0  0  0  0  0  0
   -2.8349  -10.5170   -5.0620 C   0  0  0  0  0  0  0  0  0  0  0  0
   -3.5190  -11.4262   -5.2162 N   0  0  0  0  0  0  0  0  0  0  0  0
    0.4458   -5.6660   -4.4892 C   0  0  0  0  0  0  0  0  0  0  0  0
    0.5018   -4.7374   -5.5442 C   0  0  0  0  0  0  0  0  0  0  0  0
   -0.1651   -4.8852   -6.8728 C   0  0  0  0  0  0  0  0  0  0  0  0
   -1.6250   -4.4285   -6.8021 C   0  0  0  0  0  0  0  0  0  0  0  0
    1.1856   -3.5883   -5.1706 C   0  0  0  0  0  0  0  0  0  0  0  0
    1.4386   -2.0468   -5.9705 S   0  0  0  0  0  0  0  0  0  0  0  0
    2.1864   -1.4540   -4.5287 C   0  0  0  0  0  0  0  0  0  0  0  0
    2.6573   -0.2383   -4.0024 C   0  0  0  0  0  0  0  0  0  0  0  0
    2.7755    1.0488   -4.5890 C   0  0  0  0  0  0  0  0  0  0  0  0
    3.1833    2.1281   -3.7605 C   0  0  0  0  0  0  0  0  0  0  0  0
    3.3406    3.3583   -4.2607 N   0  0  0  0  0  0  0  0  0  0  0  0
    3.0917    3.5167   -5.5426 C   0  0  0  0  0  0  0  0  0  0  0  0
    2.6659    2.4586   -6.3533 C   0  0  0  0  0  0  0  0  0  0  0  0
    2.5090    1.2391   -5.8859 N   0  0  0  0  0  0  0  0  0  0  0  0
    3.3427    1.8846   -2.3700 C   0  0  0  0  0  0  0  0  0  0  0  0
    3.4371    2.7925   -1.3008 C   0  0  0  0  0  0  0  0  0  0  0  0
    3.4087    4.5007   -1.0343 S   0  0  0  0  0  0  0  0  0  0  0  0
    3.2568    4.2122    0.6835 C   0  0  0  0  0  0  0  0  0  0  0  0
    2.9790    5.0593    1.7718 C   0  0  0  0  0  0  0  0  0  0  0  0
    2.9270    6.5469    1.6744 C   0  0  0  0  0  0  0  0  0  0  0  0
    4.2747    7.1164    1.2314 C   0  0  0  0  0  0  0  0  0  0  0  0
    2.8562    4.3393    2.9419 C   0  0  0  0  0  0  0  0  0  0  0  0
    3.1483    2.6137    2.7145 S   0  0  0  0  0  0  0  0  0  0  0  0
    3.3016    2.8541    1.0139 C   0  0  0  0  0  0  0  0  0  0  0  0
    3.3790    2.0421   -0.1222 C   0  0  0  0  0  0  0  0  0  0  0  0
    3.2869    0.7051   -0.4120 N   0  0  0  0  0  0  0  0  0  0  0  0
    3.2420    0.5906   -1.7911 C   0  0  0  0  0  0  0  0  0  0  0  0
    3.0066   -0.5037   -2.6500 C   0  0  0  0  0  0  0  0  0  0  0  0
    2.8440   -1.8498   -2.3902 N   0  0  0  0  0  0  0  0  0  0  0  0
    2.2915   -2.4150   -3.5145 C   0  0  0  0  0  0  0  0  0  0  0  0
    1.7054   -3.6324   -3.8654 C   0  0  0  0  0  0  0  0  0  0  0  0
    1.3131   -5.1028   -3.0582 S   0  0  0  0  0  0  0  0  0  0  0  0
    3.5877   -2.6440   -1.4347 C   0  0  0  0  0  0  0  0  0  0  0  0
    4.5192   -3.6364   -2.1279 C   0  0  0  0  0  0  0  0  0  0  0  0
    2.7902   -0.2039    0.6004 C   0  0  0  0  0  0  0  0  0  0  0  0
    1.3142   -0.5290    0.3905 C   0  0  0  0  0  0  0  0  0  0  0  0
    2.4239    4.7341    4.2402 C   0  0  0  0  0  0  0  0  0  0  0  0
    1.2841    5.4362    4.4765 C   0  0  0  0  0  0  0  0  0  0  0  0
    0.2015    5.5984    3.4711 C   0  0  0  0  0  0  0  0  0  0  0  0
    0.2849    5.5260    2.2648 O   0  0  0  0  0  0  0  0  0  0  0  0
   -1.0330    5.7482    4.2659 C   0  0  0  0  0  0  0  0  0  0  0  0
   -2.3393    5.7326    3.7808 C   0  0  0  0  0  0  0  0  0  0  0  0
   -3.3001    5.7919    4.7613 C   0  0  0  0  0  0  0  0  0  0  0  0
   -2.9899    5.8726    6.1261 C   0  0  0  0  0  0  0  0  0  0  0  0
   -1.7068    5.9082    6.6184 C   0  0  0  0  0  0  0  0  0  0  0  0
   -0.7136    5.8344    5.6369 C   0  0  0  0  0  0  0  0  0  0  0  0
    0.7348    5.7595    5.7799 C   0  0  0  0  0  0  0  0  0  0  0  0
    1.4686    5.9975    6.9094 C   0  0  0  0  0  0  0  0  0  0  0  0
    0.9135    6.3385    8.1593 C   0  0  0  0  0  0  0  0  0  0  0  0
    0.5088    6.6129    9.1979 N   0  0  0  0  0  0  0  0  0  0  0  0
    2.8800    5.9765    6.9253 C   0  0  0  0  0  0  0  0  0  0  0  0
    4.0263    5.9903    6.9806 N   0  0  0  0  0  0  0  0  0  0  0  0
   -4.4406    5.8398    6.5387 C   0  0  0  0  0  0  0  0  0  0  0  0
   -4.9638    4.4935    7.0843 C   0  0  0  0  0  0  0  0  0  0  0  0
   -6.4652    4.6047    6.9467 C   0  0  0  0  0  0  0  0  0  0  0  0
   -6.7586    4.5312    5.6547 C   0  0  0  0  0  0  0  0  0  0  0  0
   -5.4604    4.3693    4.8975 C   0  0  0  0  0  0  0  0  0  0  0  0
   -4.6632    3.5447    5.9166 C   0  0  0  0  0  0  0  0  0  0  0  0
   -4.7858    5.7532    5.0175 C   0  0  0  0  0  0  0  0  0  0  0  0
   -0.7162   -7.0313   -5.5397 H   0  0  0  0  0  0  0  0  0  0  0  0
   -0.2701   -8.6467    0.5052 H   0  0  0  0  0  0  0  0  0  0  0  0
   -0.6983  -10.5444    2.1241 H   0  0  0  0  0  0  0  0  0  0  0  0
   -2.3856  -10.0488    2.1992 H   0  0  0  0  0  0  0  0  0  0  0  0
   -1.9850  -11.7153    1.7849 H   0  0  0  0  0  0  0  0  0  0  0  0
   -2.9942  -11.8230   -0.3985 H   0  0  0  0  0  0  0  0  0  0  0  0
   -3.0083  -11.2018   -2.7579 H   0  0  0  0  0  0  0  0  0  0  0  0
   -0.1233   -5.9183   -7.2207 H   0  0  0  0  0  0  0  0  0  0  0  0
    0.3670   -4.2596   -7.5921 H   0  0  0  0  0  0  0  0  0  0  0  0
   -2.1827   -5.0296   -6.0874 H   0  0  0  0  0  0  0  0  0  0  0  0
   -1.6800   -3.3861   -6.4967 H   0  0  0  0  0  0  0  0  0  0  0  0
   -2.0913   -4.5321   -7.7776 H   0  0  0  0  0  0  0  0  0  0  0  0
    3.2317    4.5133   -5.9380 H   0  0  0  0  0  0  0  0  0  0  0  0
    2.4514    2.5997   -7.4037 H   0  0  0  0  0  0  0  0  0  0  0  0
    2.6495    6.9675    2.6413 H   0  0  0  0  0  0  0  0  0  0  0  0
    2.1562    6.8167    0.9494 H   0  0  0  0  0  0  0  0  0  0  0  0
    4.5532    6.7313    0.2538 H   0  0  0  0  0  0  0  0  0  0  0  0
    5.0513    6.8515    1.9458 H   0  0  0  0  0  0  0  0  0  0  0  0
    4.2157    8.2000    1.1719 H   0  0  0  0  0  0  0  0  0  0  0  0
    4.2014   -1.9629   -0.8469 H   0  0  0  0  0  0  0  0  0  0  0  0
    2.8931   -3.1844   -0.7831 H   0  0  0  0  0  0  0  0  0  0  0  0
    5.1462   -4.1182   -1.3826 H   0  0  0  0  0  0  0  0  0  0  0  0
    5.1585   -3.1201   -2.8410 H   0  0  0  0  0  0  0  0  0  0  0  0
    3.9580   -4.4054   -2.6492 H   0  0  0  0  0  0  0  0  0  0  0  0
    3.3810   -1.1186    0.6365 H   0  0  0  0  0  0  0  0  0  0  0  0
    2.9184    0.3030    1.5597 H   0  0  0  0  0  0  0  0  0  0  0  0
    0.7258    0.3857    0.3962 H   0  0  0  0  0  0  0  0  0  0  0  0
    1.1571   -1.0350   -0.5584 H   0  0  0  0  0  0  0  0  0  0  0  0
    0.9637   -1.1732    1.1919 H   0  0  0  0  0  0  0  0  0  0  0  0
    2.9648    4.3092    5.0789 H   0  0  0  0  0  0  0  0  0  0  0  0
   -2.5365    5.6636    2.7225 H   0  0  0  0  0  0  0  0  0  0  0  0
   -1.4766    5.9624    7.6699 H   0  0  0  0  0  0  0  0  0  0  0  0
   -4.7958    6.6967    7.1073 H   0  0  0  0  0  0  0  0  0  0  0  0
   -4.5811    4.2199    8.0638 H   0  0  0  0  0  0  0  0  0  0  0  0
   -7.1322    4.7740    7.7714 H   0  0  0  0  0  0  0  0  0  0  0  0
   -7.7195    4.6269    5.1842 H   0  0  0  0  0  0  0  0  0  0  0  0
   -5.5294    3.9826    3.8843 H   0  0  0  0  0  0  0  0  0  0  0  0
   -5.0917    2.5555    6.0700 H   0  0  0  0  0  0  0  0  0  0  0  0
   -3.6047    3.4493    5.6812 H   0  0  0  0  0  0  0  0  0  0  0  0
   -5.3712    6.5531    4.5687 H   0  0  0  0  0  0  0  0  0  0  0  0
  1  2  2  0  0  0  0
  2  3  1  0  0  0  0
  3  4  2  0  0  0  0
  3  5  1  0  0  0  0
  5  6  2  0  0  0  0
  6  7  1  0  0  0  0
  7  8  1  0  0  0  0
  7  9  2  0  0  0  0
  9 10  1  0  0  0  0
 10 11  2  0  0  0  0
 11 12  1  0  0  0  0
 12 13  2  0  0  0  0
 13 14  1  0  0  0  0
 14 15  3  0  0  0  0
 13 16  1  0  0  0  0
 16 17  3  0  0  0  0
  1 18  1  0  0  0  0
 18 19  2  0  0  0  0
 19 20  1  0  0  0  0
 20 21  1  0  0  0  0
 19 22  1  0  0  0  0
 22 23  1  0  0  0  0
 23 24  1  0  0  0  0
 24 25  1  0  0  0  0
 25 26  2  0  0  0  0
 26 27  1  0  0  0  0
 27 28  1  0  0  0  0
 28 29  2  0  0  0  0
 29 30  1  0  0  0  0
 30 31  2  0  0  0  0
 27 32  2  0  0  0  0
 32 33  1  0  0  0  0
 33 34  1  0  0  0  0
 34 35  1  0  0  0  0
 35 36  1  0  0  0  0
 36 37  1  0  0  0  0
 37 38  1  0  0  0  0
 36 39  2  0  0  0  0
 39 40  1  0  0  0  0
 40 41  1  0  0  0  0
 41 42  1  0  0  0  0
 42 43  1  0  0  0  0
 43 44  1  0  0  0  0
 44 45  2  0  0  0  0
 45 46  1  0  0  0  0
 46 47  1  0  0  0  0
 47 48  1  0  0  0  0
 48 49  1  0  0  0  0
 46 50  1  0  0  0  0
 50 51  1  0  0  0  0
 43 52  1  0  0  0  0
 52 53  1  0  0  0  0
 39 54  1  0  0  0  0
 54 55  2  0  0  0  0
 55 56  1  0  0  0  0
 56 57  2  0  0  0  0
 56 58  1  0  0  0  0
 58 59  2  0  0  0  0
 59 60  1  0  0  0  0
 60 61  2  0  0  0  0
 61 62  1  0  0  0  0
 62 63  2  0  0  0  0
 63 64  1  0  0  0  0
 64 65  2  0  0  0  0
 65 66  1  0  0  0  0
 66 67  3  0  0  0  0
 65 68  1  0  0  0  0
 68 69  3  0  0  0  0
 61 70  1  0  0  0  0
 70 71  1  0  0  0  0
 71 72  1  0  0  0  0
 72 73  2  0  0  0  0
 73 74  1  0  0  0  0
 74 75  1  0  0  0  0
 74 76  1  0  0  0  0
 12  2  1  0  0  0  0
 49 18  1  0  0  0  0
 64 55  1  0  0  0  0
 76 70  1  0  0  0  0
 11  5  1  0  0  0  0
 48 22  2  0  0  0  0
 63 58  1  0  0  0  0
 75 71  1  0  0  0  0
 47 24  2  0  0  0  0
 76 60  1  0  0  0  0
 45 25  1  0  0  0  0
 31 26  1  0  0  0  0
 44 32  1  0  0  0  0
 42 33  2  0  0  0  0
 41 35  2  0  0  0  0
  1 77  1  0  0  0  0
  6 78  1  0  0  0  0
  8 79  1  0  0  0  0
  8 80  1  0  0  0  0
  8 81  1  0  0  0  0
  9 82  1  0  0  0  0
 10 83  1  0  0  0  0
 20 84  1  0  0  0  0
 20 85  1  0  0  0  0
 21 86  1  0  0  0  0
 21 87  1  0  0  0  0
 21 88  1  0  0  0  0
 29 89  1  0  0  0  0
 30 90  1  0  0  0  0
 37 91  1  0  0  0  0
 37 92  1  0  0  0  0
 38 93  1  0  0  0  0
 38 94  1  0  0  0  0
 38 95  1  0  0  0  0
 50 96  1  0  0  0  0
 50 97  1  0  0  0  0
 51 98  1  0  0  0  0
 51 99  1  0  0  0  0
 51100  1  0  0  0  0
 52101  1  0  0  0  0
 52102  1  0  0  0  0
 53103  1  0  0  0  0
 53104  1  0  0  0  0
 53105  1  0  0  0  0
 54106  1  0  0  0  0
 59107  1  0  0  0  0
 62108  1  0  0  0  0
 70109  1  0  0  0  0
 71110  1  0  0  0  0
 72111  1  0  0  0  0
 73112  1  0  0  0  0
 74113  1  0  0  0  0
 75114  1  0  0  0  0
 75115  1  0  0  0  0
 76116  1  0  0  0  0
M  END
