153

C         -4.09940        7.43540       -4.64200
C         -3.78320        8.21740       -5.72190
C         -4.44040        9.46600       -5.79830
N         -4.99750       10.46850       -5.83970
C         -2.82390        7.97350       -6.81290
O         -2.24260        6.94150       -7.06790
O         -2.65820        9.09040       -7.53220
C         -1.75300        9.01800       -8.63030
C         -1.64340       10.39980       -9.24500
C         -3.64120        6.17200       -4.22290
S         -4.19620        5.64050       -2.61970
C         -3.27740        4.19790       -2.76250
C         -2.92930        3.04610       -2.06410
S         -3.19620        2.29630       -0.52300
C         -2.13200        1.01510       -1.00400
C         -1.55000       -0.09500       -0.31610
C         -0.62120       -0.68460       -1.20230
C         -0.72040       -0.05060       -2.58630
C         -1.42580       -1.03100       -3.51480
C         -2.59830       -0.70510       -4.17750
C         -3.23460       -1.60800       -5.01430
C         -2.70540       -2.87800       -5.20510
O         -3.24100       -3.86060       -5.97570
C         -4.40530       -3.60720       -6.73630
C         -4.11820       -2.81240       -8.00700
C         -1.52250       -3.21110       -4.54030
C         -0.89900       -2.30580       -3.71240
C          0.64580        0.36660       -3.09170
C          1.13190        0.01210       -4.34440
C          2.38410        0.41910       -4.75270
C          3.19390        1.19420       -3.92110
O          4.41270        1.51250       -4.42840
C          5.28220        2.36060       -3.70460
C          4.88130        3.82970       -3.80070
C          2.70900        1.55470       -2.66710
C          1.45060        1.14190       -2.26790
C         -1.61000        1.13300       -2.28080
C         -2.05650        2.30350       -2.90400
N         -1.88950        2.96420       -4.08950
C         -2.60430        4.13230       -4.00950
C         -2.80980        5.23960       -4.82190
C         -1.00670        2.61490       -5.17370
C          0.31320        3.37620       -5.08480
C          0.28740       -1.60890       -0.74460
C          0.20270       -1.97510        0.59590
C          1.10170       -2.73000        1.41060
C          0.67280       -2.75660        2.72670
C         -0.66820       -2.06910        2.85060
C         -0.81220       -1.48470        1.44730
C         -1.67880       -0.51230        1.00590
C         -0.61810       -0.95780        3.88270
C         -1.42860       -0.92130        5.00450
C         -1.34580        0.11790        5.91800
C         -0.43460        1.14930        5.72530
O         -0.24110        2.20880        6.55270
C         -1.08440        2.39700        7.67100
C         -2.45310        2.95300        7.28880
C          0.39190        1.10940        4.59840
C          0.29970        0.07430        3.69670
C         -1.78840       -3.06830        3.09550
C         -1.53230       -4.40200        3.39530
C         -2.56310       -5.29020        3.61730
C         -3.89370       -4.87840        3.54210
O         -4.82020       -5.83770        3.80400
C         -6.19560       -5.55570        3.63980
C         -6.62080       -5.53590        2.17460
C         -4.15730       -3.54680        3.23760
C         -3.11470       -2.66430        3.02040
C          1.62090       -3.36680        3.55430
C          2.76860       -3.77710        2.82310
S          2.65690       -3.44030        1.12660
C          3.66190       -4.30790        3.74540
S          5.25350       -4.94570        3.86250
C          5.06880       -5.11280        5.61320
C          3.81040       -4.73360        6.04920
C          3.03000       -4.23690        5.01120
N          1.78420       -3.68100        4.87540
C          0.93170       -3.30770        5.97550
C          1.44790       -2.05020        6.67010
C          6.11540       -5.62410        6.41210
C          7.45490       -5.55100        6.17240
C          8.39360       -6.50170        6.83540
O          8.14150       -7.26250        7.74150
C          9.64530       -6.31420        6.10100
S         11.20300       -7.02640        6.10870
C         11.70030       -5.92830        4.84910
Cl        13.28480       -6.00150        4.22980
C         10.72190       -5.05690        4.45410
C          9.53650       -5.28730        5.17280
C          8.21370       -4.69810        5.27970
C          7.88940       -3.43650        4.85160
C          6.72710       -2.74470        5.24690
N          5.83010       -2.12180        5.60210
C          8.76200       -2.67290        4.05150
N          9.45220       -2.04070        3.38720
H         -4.81760        7.88190       -3.95980
H         -0.78170        8.66170       -8.26650
H         -2.13230        8.28660       -9.35400
H         -2.62120       10.73670       -9.57770
H         -0.96540       10.37090      -10.09320
H         -1.26790       11.10630       -8.50980
H         -3.04580        0.26920       -4.05270
H         -4.14610       -1.29930       -5.50120
H         -5.16580       -3.10630       -6.12460
H         -4.77760       -4.60140       -6.99910
H         -3.72090       -1.82830       -7.77040
H         -3.38680       -3.34060       -8.61340
H         -5.03390       -2.69530       -8.58000
H         -1.11320       -4.19760       -4.68980
H          0.01490       -2.59250       -3.21810
H          0.53410       -0.59340       -5.00950
H          2.76660        0.14070       -5.72190
H          6.25760        2.21170       -4.17590
H          5.35410        2.04060       -2.65810
H          4.84280        4.13290       -4.84390
H          3.90170        3.99720       -3.35930
H          5.61220        4.44290       -3.28110
H          3.29840        2.14850       -1.98660
H          1.08870        1.42800       -1.29020
H         -2.39010        5.39170       -5.79810
H         -1.51160        2.85430       -6.11420
H         -0.82450        1.53970       -5.13100
H          0.13880        4.44630       -5.16550
H          0.80270        3.16710       -4.13670
H          0.97310        3.06530       -5.88930
H          1.08480       -1.99230       -1.36240
H         -2.38800       -0.02760        1.65890
H         -2.14780       -1.70750        5.18220
H         -1.99990        0.09990        6.77540
H         -0.55070        3.12190        8.29180
H         -1.18550        1.46520        8.24160
H         -2.99030        2.25930        6.64670
H         -2.33180        3.89120        6.75330
H         -3.03960        3.13140        8.18580
H          1.10230        1.90830        4.45780
H          0.94610        0.06100        2.83110
H         -0.51780       -4.76480        3.45410
H         -2.36000       -6.32280        3.85310
H         -6.46090       -4.61430        4.13700
H         -6.70160       -6.37270        4.16160
H         -6.10450       -4.74920        1.62970
H         -7.69230       -5.36940        2.10640
H         -6.38060       -6.48870        1.70950
H         -5.16800       -3.17620        3.16900
H         -3.35070       -1.63680        2.79410
H          3.52560       -4.77230        7.08480
H         -0.07380       -3.14070        5.58540
H          0.90120       -4.14360        6.68170
H          1.45340       -1.21320        5.97690
H          2.46140       -2.20500        7.03190
H          0.80620       -1.80140        7.51050
H          5.82260       -6.19260        7.28930
H         10.85680       -4.31210        3.69220
