
  xtb     02112200133D
 energy: -190.097359472302 gnorm: 0.000260396988 xtb: 6.4.1 (unknown)
119131  0     0  0            999 V2000
   -0.1683   -4.7508   -9.8911 C   0  0  0  0  0  0  0  0  0  0  0  0
   -0.8124   -5.9133  -10.1269 C   0  0  0  0  0  0  0  0  0  0  0  0
   -0.5507   -6.6717  -11.2831 C   0  0  0  0  0  0  0  0  0  0  0  0
   -0.3233   -7.2939  -12.2201 N   0  0  0  0  0  0  0  0  0  0  0  0
   -1.7870   -6.5292   -9.1691 C   0  0  0  0  0  0  0  0  0  0  0  0
   -2.9167   -6.8468   -9.4311 O   0  0  0  0  0  0  0  0  0  0  0  0
   -1.1917   -6.7083   -7.9874 O   0  0  0  0  0  0  0  0  0  0  0  0
   -1.9717   -7.2296   -6.9109 C   0  0  0  0  0  0  0  0  0  0  0  0
   -1.6848   -6.4197   -5.6575 C   0  0  0  0  0  0  0  0  0  0  0  0
   -0.4155   -3.8764   -8.7679 C   0  0  0  0  0  0  0  0  0  0  0  0
   -1.7048   -3.7424   -8.2183 C   0  0  0  0  0  0  0  0  0  0  0  0
   -1.9423   -2.9561   -7.1175 C   0  0  0  0  0  0  0  0  0  0  0  0
   -0.8755   -2.2886   -6.5119 C   0  0  0  0  0  0  0  0  0  0  0  0
   -0.6943   -1.4669   -5.3767 C   0  0  0  0  0  0  0  0  0  0  0  0
    0.6525   -1.1100   -5.3199 C   0  0  0  0  0  0  0  0  0  0  0  0
    1.3399   -1.6716   -6.3579 N   0  0  0  0  0  0  0  0  0  0  0  0
    0.4322   -2.3898   -7.0972 C   0  0  0  0  0  0  0  0  0  0  0  0
    0.6489   -3.1568   -8.2263 C   0  0  0  0  0  0  0  0  0  0  0  0
    2.7231   -1.4390   -6.6809 C   0  0  0  0  0  0  0  0  0  0  0  0
    2.8722   -0.3762   -7.7685 C   0  0  0  0  0  0  0  0  0  0  0  0
    0.8227   -0.3075   -4.1835 C   0  0  0  0  0  0  0  0  0  0  0  0
    1.9563    0.3509   -3.6715 C   0  0  0  0  0  0  0  0  0  0  0  0
    1.8403    1.1267   -2.4922 C   0  0  0  0  0  0  0  0  0  0  0  0
    3.0403    1.6538   -2.2326 N   0  0  0  0  0  0  0  0  0  0  0  0
    3.8023    1.2125   -3.2065 N   0  0  0  0  0  0  0  0  0  0  0  0
    5.1986    1.5287   -3.2753 C   0  0  0  0  0  0  0  0  0  0  0  0
    6.0189    0.5511   -2.4380 C   0  0  0  0  0  0  0  0  0  0  0  0
    3.2234    0.4306   -4.0888 N   0  0  0  0  0  0  0  0  0  0  0  0
    0.6065    1.1849   -1.8172 C   0  0  0  0  0  0  0  0  0  0  0  0
   -0.5525    0.5034   -2.3116 C   0  0  0  0  0  0  0  0  0  0  0  0
   -0.4556   -0.2085   -3.5456 C   0  0  0  0  0  0  0  0  0  0  0  0
   -1.3702   -0.9089   -4.3200 N   0  0  0  0  0  0  0  0  0  0  0  0
   -2.8051   -1.0390   -4.2824 C   0  0  0  0  0  0  0  0  0  0  0  0
   -3.2346   -2.4040   -3.7390 C   0  0  0  0  0  0  0  0  0  0  0  0
   -1.5712    0.6743   -1.3853 N   0  0  0  0  0  0  0  0  0  0  0  0
   -2.9035    0.1398   -1.2614 C   0  0  0  0  0  0  0  0  0  0  0  0
   -3.9623    1.1664   -1.6684 C   0  0  0  0  0  0  0  0  0  0  0  0
   -1.0875    1.4415   -0.3551 C   0  0  0  0  0  0  0  0  0  0  0  0
    0.2502    1.7703   -0.5943 C   0  0  0  0  0  0  0  0  0  0  0  0
    0.7647    2.4623    0.4594 N   0  0  0  0  0  0  0  0  0  0  0  0
    2.0984    2.9925    0.5723 C   0  0  0  0  0  0  0  0  0  0  0  0
    2.1289    4.4913    0.2768 C   0  0  0  0  0  0  0  0  0  0  0  0
   -0.2346    2.5675    1.3970 C   0  0  0  0  0  0  0  0  0  0  0  0
   -1.4353    1.9428    0.9156 C   0  0  0  0  0  0  0  0  0  0  0  0
   -2.5823    1.9715    1.7175 C   0  0  0  0  0  0  0  0  0  0  0  0
   -2.5110    2.5393    2.9619 C   0  0  0  0  0  0  0  0  0  0  0  0
   -1.2997    3.0576    3.4776 C   0  0  0  0  0  0  0  0  0  0  0  0
   -0.1673    3.1127    2.6621 C   0  0  0  0  0  0  0  0  0  0  0  0
   -1.2838    3.4925    4.8415 C   0  0  0  0  0  0  0  0  0  0  0  0
   -0.2642    3.3720    5.7378 C   0  0  0  0  0  0  0  0  0  0  0  0
    0.9395    2.5147    5.5933 C   0  0  0  0  0  0  0  0  0  0  0  0
    1.4299    2.0470    4.5867 O   0  0  0  0  0  0  0  0  0  0  0  0
    1.4172    2.2767    6.9707 C   0  0  0  0  0  0  0  0  0  0  0  0
    2.4444    1.4181    7.3547 C   0  0  0  0  0  0  0  0  0  0  0  0
    2.6481    1.3620    8.7121 C   0  0  0  0  0  0  0  0  0  0  0  0
    1.8895    2.1084    9.6239 C   0  0  0  0  0  0  0  0  0  0  0  0
    0.8813    2.9681    9.2581 C   0  0  0  0  0  0  0  0  0  0  0  0
    0.6545    3.0346    7.8804 C   0  0  0  0  0  0  0  0  0  0  0  0
   -0.3361    3.7935    7.1260 C   0  0  0  0  0  0  0  0  0  0  0  0
   -1.1407    4.7865    7.6194 C   0  0  0  0  0  0  0  0  0  0  0  0
   -2.0105    5.5696    6.8310 C   0  0  0  0  0  0  0  0  0  0  0  0
   -2.7210    6.2611    6.2514 N   0  0  0  0  0  0  0  0  0  0  0  0
   -1.1658    5.1930    8.9687 C   0  0  0  0  0  0  0  0  0  0  0  0
   -1.2358    5.5639   10.0533 N   0  0  0  0  0  0  0  0  0  0  0  0
    2.6119    1.5334   10.8167 C   0  0  0  0  0  0  0  0  0  0  0  0
    1.8872    0.4360   11.6352 C   0  0  0  0  0  0  0  0  0  0  0  0
    0.9312   -0.2459   10.6883 C   0  0  0  0  0  0  0  0  0  0  0  0
    1.6501   -0.9507    9.8248 C   0  0  0  0  0  0  0  0  0  0  0  0
    3.1055   -0.7579   10.1726 C   0  0  0  0  0  0  0  0  0  0  0  0
    3.0024   -0.6198   11.6999 C   0  0  0  0  0  0  0  0  0  0  0  0
    3.4584    0.7039    9.8005 C   0  0  0  0  0  0  0  0  0  0  0  0
    0.6039   -4.4446  -10.5878 H   0  0  0  0  0  0  0  0  0  0  0  0
   -3.0304   -7.1807   -7.1870 H   0  0  0  0  0  0  0  0  0  0  0  0
   -1.6898   -8.2784   -6.7714 H   0  0  0  0  0  0  0  0  0  0  0  0
   -0.6291   -6.4806   -5.4072 H   0  0  0  0  0  0  0  0  0  0  0  0
   -1.9386   -5.3753   -5.8219 H   0  0  0  0  0  0  0  0  0  0  0  0
   -2.2714   -6.8077   -4.8296 H   0  0  0  0  0  0  0  0  0  0  0  0
   -2.5311   -4.2446   -8.6984 H   0  0  0  0  0  0  0  0  0  0  0  0
   -2.9470   -2.8621   -6.7325 H   0  0  0  0  0  0  0  0  0  0  0  0
    1.6333   -3.2463   -8.6606 H   0  0  0  0  0  0  0  0  0  0  0  0
    3.2184   -1.0960   -5.7696 H   0  0  0  0  0  0  0  0  0  0  0  0
    3.1748   -2.3811   -7.0067 H   0  0  0  0  0  0  0  0  0  0  0  0
    3.9222   -0.2352   -8.0086 H   0  0  0  0  0  0  0  0  0  0  0  0
    2.4650    0.5691   -7.4188 H   0  0  0  0  0  0  0  0  0  0  0  0
    2.3415   -0.6706   -8.6712 H   0  0  0  0  0  0  0  0  0  0  0  0
    5.3266    2.5472   -2.9023 H   0  0  0  0  0  0  0  0  0  0  0  0
    5.4937    1.4758   -4.3252 H   0  0  0  0  0  0  0  0  0  0  0  0
    5.7035    0.5941   -1.3984 H   0  0  0  0  0  0  0  0  0  0  0  0
    5.8828   -0.4636   -2.8043 H   0  0  0  0  0  0  0  0  0  0  0  0
    7.0729    0.8071   -2.4964 H   0  0  0  0  0  0  0  0  0  0  0  0
   -3.2426   -0.2209   -3.7176 H   0  0  0  0  0  0  0  0  0  0  0  0
   -3.1610   -0.9442   -5.3143 H   0  0  0  0  0  0  0  0  0  0  0  0
   -2.8162   -2.5908   -2.7521 H   0  0  0  0  0  0  0  0  0  0  0  0
   -2.8799   -3.1933   -4.3965 H   0  0  0  0  0  0  0  0  0  0  0  0
   -4.3185   -2.4586   -3.6792 H   0  0  0  0  0  0  0  0  0  0  0  0
   -3.0452   -0.1134   -0.2052 H   0  0  0  0  0  0  0  0  0  0  0  0
   -2.9961   -0.7817   -1.8263 H   0  0  0  0  0  0  0  0  0  0  0  0
   -3.9082    2.0328   -1.0139 H   0  0  0  0  0  0  0  0  0  0  0  0
   -4.9552    0.7308   -1.5918 H   0  0  0  0  0  0  0  0  0  0  0  0
   -3.8077    1.5138   -2.6882 H   0  0  0  0  0  0  0  0  0  0  0  0
    2.7238    2.4651   -0.1518 H   0  0  0  0  0  0  0  0  0  0  0  0
    2.4667    2.7962    1.5835 H   0  0  0  0  0  0  0  0  0  0  0  0
    1.7964    4.6763   -0.7419 H   0  0  0  0  0  0  0  0  0  0  0  0
    3.1413    4.8700    0.3861 H   0  0  0  0  0  0  0  0  0  0  0  0
    1.4770    5.0325    0.9586 H   0  0  0  0  0  0  0  0  0  0  0  0
   -3.5141    1.5512    1.3692 H   0  0  0  0  0  0  0  0  0  0  0  0
   -3.3862    2.5530    3.5948 H   0  0  0  0  0  0  0  0  0  0  0  0
    0.7308    3.5885    3.0153 H   0  0  0  0  0  0  0  0  0  0  0  0
   -2.2322    3.8606    5.2182 H   0  0  0  0  0  0  0  0  0  0  0  0
    3.0021    0.8582    6.6201 H   0  0  0  0  0  0  0  0  0  0  0  0
    0.3005    3.5323    9.9689 H   0  0  0  0  0  0  0  0  0  0  0  0
    3.1323    2.2480   11.4511 H   0  0  0  0  0  0  0  0  0  0  0  0
    1.4668    0.7791   12.5767 H   0  0  0  0  0  0  0  0  0  0  0  0
   -0.1336   -0.1042   10.7070 H   0  0  0  0  0  0  0  0  0  0  0  0
    1.3059   -1.5148    8.9777 H   0  0  0  0  0  0  0  0  0  0  0  0
    3.7947   -1.5025    9.7825 H   0  0  0  0  0  0  0  0  0  0  0  0
    2.6829   -1.5408   12.1854 H   0  0  0  0  0  0  0  0  0  0  0  0
    3.9176   -0.2566   12.1656 H   0  0  0  0  0  0  0  0  0  0  0  0
    4.5325    0.8768    9.7710 H   0  0  0  0  0  0  0  0  0  0  0  0
  1  2  2  0  0  0  0
  2  3  1  0  0  0  0
  3  4  3  0  0  0  0
  2  5  1  0  0  0  0
  5  6  2  0  0  0  0
  5  7  1  0  0  0  0
  7  8  1  0  0  0  0
  8  9  1  0  0  0  0
  1 10  1  0  0  0  0
 10 11  2  0  0  0  0
 11 12  1  0  0  0  0
 12 13  2  0  0  0  0
 13 14  1  0  0  0  0
 14 15  2  0  0  0  0
 15 16  1  0  0  0  0
 16 17  1  0  0  0  0
 17 18  2  0  0  0  0
 16 19  1  0  0  0  0
 19 20  1  0  0  0  0
 15 21  1  0  0  0  0
 21 22  1  0  0  0  0
 22 23  1  0  0  0  0
 23 24  2  0  0  0  0
 24 25  1  0  0  0  0
 25 26  1  0  0  0  0
 26 27  1  0  0  0  0
 25 28  1  0  0  0  0
 23 29  1  0  0  0  0
 29 30  2  0  0  0  0
 30 31  1  0  0  0  0
 31 32  1  0  0  0  0
 32 33  1  0  0  0  0
 33 34  1  0  0  0  0
 30 35  1  0  0  0  0
 35 36  1  0  0  0  0
 36 37  1  0  0  0  0
 35 38  1  0  0  0  0
 38 39  2  0  0  0  0
 39 40  1  0  0  0  0
 40 41  1  0  0  0  0
 41 42  1  0  0  0  0
 40 43  1  0  0  0  0
 43 44  2  0  0  0  0
 44 45  1  0  0  0  0
 45 46  2  0  0  0  0
 46 47  1  0  0  0  0
 47 48  2  0  0  0  0
 47 49  1  0  0  0  0
 49 50  2  0  0  0  0
 50 51  1  0  0  0  0
 51 52  2  0  0  0  0
 51 53  1  0  0  0  0
 53 54  2  0  0  0  0
 54 55  1  0  0  0  0
 55 56  2  0  0  0  0
 56 57  1  0  0  0  0
 57 58  2  0  0  0  0
 58 59  1  0  0  0  0
 59 60  2  0  0  0  0
 60 61  1  0  0  0  0
 61 62  3  0  0  0  0
 60 63  1  0  0  0  0
 63 64  3  0  0  0  0
 56 65  1  0  0  0  0
 65 66  1  0  0  0  0
 66 67  1  0  0  0  0
 67 68  2  0  0  0  0
 68 69  1  0  0  0  0
 69 70  1  0  0  0  0
 69 71  1  0  0  0  0
 18 10  1  0  0  0  0
 31 21  2  0  0  0  0
 44 38  1  0  0  0  0
 59 50  1  0  0  0  0
 71 65  1  0  0  0  0
 17 13  1  0  0  0  0
 28 22  2  0  0  0  0
 39 29  1  0  0  0  0
 48 43  1  0  0  0  0
 58 53  1  0  0  0  0
 70 66  1  0  0  0  0
 32 14  1  0  0  0  0
 71 55  1  0  0  0  0
  1 72  1  0  0  0  0
  8 73  1  0  0  0  0
  8 74  1  0  0  0  0
  9 75  1  0  0  0  0
  9 76  1  0  0  0  0
  9 77  1  0  0  0  0
 11 78  1  0  0  0  0
 12 79  1  0  0  0  0
 18 80  1  0  0  0  0
 19 81  1  0  0  0  0
 19 82  1  0  0  0  0
 20 83  1  0  0  0  0
 20 84  1  0  0  0  0
 20 85  1  0  0  0  0
 26 86  1  0  0  0  0
 26 87  1  0  0  0  0
 27 88  1  0  0  0  0
 27 89  1  0  0  0  0
 27 90  1  0  0  0  0
 33 91  1  0  0  0  0
 33 92  1  0  0  0  0
 34 93  1  0  0  0  0
 34 94  1  0  0  0  0
 34 95  1  0  0  0  0
 36 96  1  0  0  0  0
 36 97  1  0  0  0  0
 37 98  1  0  0  0  0
 37 99  1  0  0  0  0
 37100  1  0  0  0  0
 41101  1  0  0  0  0
 41102  1  0  0  0  0
 42103  1  0  0  0  0
 42104  1  0  0  0  0
 42105  1  0  0  0  0
 45106  1  0  0  0  0
 46107  1  0  0  0  0
 48108  1  0  0  0  0
 49109  1  0  0  0  0
 54110  1  0  0  0  0
 57111  1  0  0  0  0
 65112  1  0  0  0  0
 66113  1  0  0  0  0
 67114  1  0  0  0  0
 68115  1  0  0  0  0
 69116  1  0  0  0  0
 70117  1  0  0  0  0
 70118  1  0  0  0  0
 71119  1  0  0  0  0
M  END
