66

C          1.15040        6.25930        3.77170
C          2.11310        7.22520        3.80380
C          3.36210        7.10270        3.16720
N          4.37880        7.00220        2.64290
C          1.90630        8.49930        4.53190
O          2.74740        9.35390        4.66500
O          0.66260        8.60440        5.02350
C          0.36820        9.81210        5.72590
C         -1.12050        9.84470        6.01520
C          1.19070        5.01490        3.10530
S         -0.21630        3.95630        3.28690
C          0.51160        2.78740        2.26210
C          0.28420        1.53710        1.69160
S         -0.92480        0.29070        1.63710
C          0.09280       -0.62220        0.55310
C          1.30730        0.00760        0.25680
C          1.42190        1.24230        0.90600
N          2.31860        2.26740        0.97240
C          1.78620        3.21370        1.80850
C          2.16390        4.46360        2.28820
C          3.63010        2.29220        0.37380
C          4.68070        1.69550        1.30630
S          2.32160       -0.90470       -0.83160
C          1.10480       -2.14360       -0.89870
C          0.85380       -3.37190       -1.50640
C         -0.42490       -3.79170       -1.05800
N         -0.95260       -2.84670       -0.21770
C         -2.19140       -2.94330        0.51350
C         -1.99470       -3.64800        1.85290
C         -0.02730       -1.85190       -0.10410
C         -0.83090       -5.01460       -1.58180
C          0.11960       -5.54710       -2.43730
S          1.54580       -4.50960       -2.59000
C          0.11040       -6.74520       -3.18450
C         -0.85760       -7.70590       -3.21700
C         -2.04140       -7.64610       -2.45840
N         -3.00670       -7.59690       -1.83820
C         -0.72920       -8.90820       -4.07410
O         -1.54170       -9.79830       -4.11950
O          0.40580       -8.89460       -4.79280
C          0.61290       -9.99600       -5.67660
C         -0.13290       -9.80460       -6.98940
H          0.23990        6.46790        4.31800
H          0.95580        9.83390        6.65090
H          0.67660       10.66350        5.10890
H         -1.36740       10.75860        6.54720
H         -1.40370        8.99080        6.62500
H         -1.68380        9.81120        5.08630
H          3.08790        4.96050        2.06190
H          3.58760        1.72120       -0.55770
H          3.87800        3.33090        0.14210
H          4.72760        2.26040        2.23430
H          4.43740        0.66080        1.53670
H          5.65590        1.72600        0.82980
H         -2.90670       -3.49450       -0.10160
H         -2.56890       -1.92990        0.67490
H         -1.61800       -4.65630        1.69810
H         -2.94160       -3.70660        2.38100
H         -1.28570       -3.09890        2.46810
H         -1.76220       -5.50210       -1.36560
H          0.97900       -6.91500       -3.80710
H          0.27980      -10.91500       -5.18300
H          1.69280      -10.02760       -5.83610
H          0.15680       -8.86480       -7.45440
H         -1.20500       -9.79530       -6.80870
H          0.10280      -10.62280       -7.66370
