104

C        -10.65220       -1.66760       -1.76190
C        -10.96110       -2.05960       -0.50420
C        -12.25480       -2.48830       -0.17110
N        -13.30790       -2.84940        0.11180
C         -9.99990       -2.06810        0.65170
O         -9.81750       -1.13770        1.38930
O         -9.40320       -3.25460        0.74410
C         -8.48420       -3.43730        1.82370
C         -9.20850       -3.78790        3.11420
C         -9.38850       -1.23220       -2.23480
C         -9.09220       -0.80850       -3.52150
C        -10.06480       -0.68320       -4.64890
C        -10.76730        0.67520       -4.60400
C         -7.74690       -0.43780       -3.64840
Se        -6.72450        0.20300       -5.10870
C         -5.31440        0.21400       -3.89560
C         -3.94320        0.50060       -3.87340
C         -3.08010        0.85540       -4.93080
C         -1.68200        0.98300       -4.66100
N         -0.97670        1.26990       -5.74370
S         -1.99650        1.37120       -7.00100
N         -3.37400        1.05270       -6.20630
C         -1.23850        0.86170       -3.32800
C          0.03060        1.09060       -2.78480
Se         1.73450        1.55160       -3.35430
C          2.18150        1.57590       -1.50900
C          3.37030        1.80980       -0.79970
C          4.66310        2.24400       -1.40270
C          4.51220        3.14180       -2.62440
C          3.17330        1.68260        0.57380
S          1.49440        1.33160        0.97480
C          1.07890        1.26970       -0.69500
C         -0.10110        0.99260       -1.39660
N         -1.39970        0.69250       -1.07520
C         -2.12270        0.58250       -2.24730
C         -3.48200        0.28320       -2.54500
N         -4.55740       -0.15890       -1.78880
C         -5.65680       -0.20670       -2.60830
C         -7.00220       -0.57740       -2.47190
S         -7.97920       -1.18000       -1.18410
C         -4.58770       -0.94940       -0.57830
C         -4.30830       -2.42080       -0.88090
C         -1.83490        0.77350        0.29910
C         -1.52780       -0.50880        1.07330
C          4.03390        1.89620        1.66950
C          5.37810        1.64810        1.74420
C          6.11500        0.68530        0.90000
O          5.68450        0.03490       -0.03240
C          7.45760        0.57000        1.50140
C          8.50840       -0.22420        1.04980
C          9.64690       -0.13450        1.81440
C          9.73350        0.68100        2.95060
C          8.70280        1.46540        3.41040
C          7.53580        1.39030        2.64460
C          6.25930        2.07850        2.81060
C          5.97530        3.03110        3.75540
C          4.77520        3.76990        3.81800
N          3.84150        4.43150        3.91820
C          6.85590        3.42710        4.78270
N          7.51380        3.78990        5.65120
C         11.15810        0.27450        3.23230
C         11.40650       -0.74680        4.36960
C         10.14840       -1.57080        4.48860
C         10.06650       -2.34250        3.41310
C         11.26810       -2.05450        2.54720
C         12.31370       -1.74290        3.62990
C         11.06210       -0.63370        1.96600
H        -11.44590       -1.68240       -2.49870
H         -7.90320       -2.51700        1.94840
H         -7.83160       -4.25060        1.50010
H         -8.48230       -3.98600        3.89740
H         -9.82760       -4.67000        2.96990
H         -9.84200       -2.95960        3.42250
H        -10.80340       -1.48550       -4.61420
H         -9.50840       -0.76800       -5.58770
H        -10.03410        1.47670       -4.66690
H        -11.32480        0.78860       -3.67680
H        -11.45630        0.76880       -5.43930
H          5.22720        1.34540       -1.67510
H          5.24470        2.76160       -0.63470
H          5.48060        3.55780       -2.89150
H          4.14120        2.58150       -3.48340
H          3.82710        3.96240       -2.42020
H         -3.87360       -0.58040        0.14750
H         -5.58940       -0.84390       -0.15250
H         -4.33520       -2.99940        0.03840
H         -3.32890       -2.53500       -1.34190
H         -5.05710       -2.81730       -1.56250
H         -2.89490        1.03200        0.32140
H         -1.29060        1.60070        0.76740
H         -0.45260       -0.62980        1.17370
H         -1.95950       -0.45260        2.06880
H         -1.91860       -1.38640        0.56460
H          3.54030        2.26290        2.56290
H          8.40030       -0.83790        0.16910
H          8.78190        2.08410        4.28880
H         11.89200        1.07800        3.22900
H         11.78490       -0.31260        5.29110
H          9.43990       -1.46920        5.28970
H          9.27550       -3.01460        3.13580
H         11.52130       -2.81190        1.80990
H         13.22390       -1.29160        3.23710
H         12.56570       -2.61260        4.23480
H         11.73410       -0.42350        1.13610
