
  xtb     02012214583D
 energy: -117.421737744289 gnorm: 0.000356194447 xtb: 6.4.1 (unknown)
 66 71  0     0  0            999 V2000
    1.1504    6.2593    3.7717 C   0  0  0  0  0  0  0  0  0  0  0  0
    2.1131    7.2252    3.8038 C   0  0  0  0  0  0  0  0  0  0  0  0
    3.3621    7.1027    3.1672 C   0  0  0  0  0  0  0  0  0  0  0  0
    4.3788    7.0022    2.6429 N   0  0  0  0  0  0  0  0  0  0  0  0
    1.9063    8.4993    4.5319 C   0  0  0  0  0  0  0  0  0  0  0  0
    2.7474    9.3539    4.6650 O   0  0  0  0  0  0  0  0  0  0  0  0
    0.6626    8.6044    5.0235 O   0  0  0  0  0  0  0  0  0  0  0  0
    0.3682    9.8121    5.7259 C   0  0  0  0  0  0  0  0  0  0  0  0
   -1.1205    9.8447    6.0152 C   0  0  0  0  0  0  0  0  0  0  0  0
    1.1907    5.0149    3.1053 C   0  0  0  0  0  0  0  0  0  0  0  0
   -0.2163    3.9563    3.2869 S   0  0  0  0  0  0  0  0  0  0  0  0
    0.5116    2.7874    2.2621 C   0  0  0  0  0  0  0  0  0  0  0  0
    0.2842    1.5371    1.6916 C   0  0  0  0  0  0  0  0  0  0  0  0
   -0.9248    0.2907    1.6371 S   0  0  0  0  0  0  0  0  0  0  0  0
    0.0928   -0.6222    0.5531 C   0  0  0  0  0  0  0  0  0  0  0  0
    1.3073    0.0076    0.2568 C   0  0  0  0  0  0  0  0  0  0  0  0
    1.4219    1.2423    0.9060 C   0  0  0  0  0  0  0  0  0  0  0  0
    2.3186    2.2674    0.9724 N   0  0  0  0  0  0  0  0  0  0  0  0
    1.7862    3.2137    1.8085 C   0  0  0  0  0  0  0  0  0  0  0  0
    2.1639    4.4636    2.2882 C   0  0  0  0  0  0  0  0  0  0  0  0
    3.6301    2.2922    0.3738 C   0  0  0  0  0  0  0  0  0  0  0  0
    4.6807    1.6955    1.3063 C   0  0  0  0  0  0  0  0  0  0  0  0
    2.3216   -0.9047   -0.8316 S   0  0  0  0  0  0  0  0  0  0  0  0
    1.1048   -2.1436   -0.8987 C   0  0  0  0  0  0  0  0  0  0  0  0
    0.8538   -3.3719   -1.5064 C   0  0  0  0  0  0  0  0  0  0  0  0
   -0.4249   -3.7917   -1.0580 C   0  0  0  0  0  0  0  0  0  0  0  0
   -0.9526   -2.8467   -0.2177 N   0  0  0  0  0  0  0  0  0  0  0  0
   -2.1914   -2.9433    0.5135 C   0  0  0  0  0  0  0  0  0  0  0  0
   -1.9947   -3.6480    1.8529 C   0  0  0  0  0  0  0  0  0  0  0  0
   -0.0273   -1.8519   -0.1041 C   0  0  0  0  0  0  0  0  0  0  0  0
   -0.8309   -5.0146   -1.5818 C   0  0  0  0  0  0  0  0  0  0  0  0
    0.1196   -5.5471   -2.4373 C   0  0  0  0  0  0  0  0  0  0  0  0
    1.5458   -4.5096   -2.5900 S   0  0  0  0  0  0  0  0  0  0  0  0
    0.1104   -6.7452   -3.1845 C   0  0  0  0  0  0  0  0  0  0  0  0
   -0.8576   -7.7059   -3.2170 C   0  0  0  0  0  0  0  0  0  0  0  0
   -2.0414   -7.6461   -2.4584 C   0  0  0  0  0  0  0  0  0  0  0  0
   -3.0067   -7.5969   -1.8382 N   0  0  0  0  0  0  0  0  0  0  0  0
   -0.7292   -8.9082   -4.0741 C   0  0  0  0  0  0  0  0  0  0  0  0
   -1.5417   -9.7983   -4.1195 O   0  0  0  0  0  0  0  0  0  0  0  0
    0.4058   -8.8946   -4.7928 O   0  0  0  0  0  0  0  0  0  0  0  0
    0.6129   -9.9960   -5.6766 C   0  0  0  0  0  0  0  0  0  0  0  0
   -0.1329   -9.8046   -6.9894 C   0  0  0  0  0  0  0  0  0  0  0  0
    0.2399    6.4679    4.3180 H   0  0  0  0  0  0  0  0  0  0  0  0
    0.9558    9.8339    6.6509 H   0  0  0  0  0  0  0  0  0  0  0  0
    0.6766   10.6635    5.1089 H   0  0  0  0  0  0  0  0  0  0  0  0
   -1.3674   10.7586    6.5472 H   0  0  0  0  0  0  0  0  0  0  0  0
   -1.4037    8.9908    6.6250 H   0  0  0  0  0  0  0  0  0  0  0  0
   -1.6838    9.8112    5.0863 H   0  0  0  0  0  0  0  0  0  0  0  0
    3.0879    4.9605    2.0619 H   0  0  0  0  0  0  0  0  0  0  0  0
    3.5876    1.7212   -0.5577 H   0  0  0  0  0  0  0  0  0  0  0  0
    3.8780    3.3309    0.1421 H   0  0  0  0  0  0  0  0  0  0  0  0
    4.7276    2.2604    2.2343 H   0  0  0  0  0  0  0  0  0  0  0  0
    4.4374    0.6608    1.5367 H   0  0  0  0  0  0  0  0  0  0  0  0
    5.6559    1.7260    0.8298 H   0  0  0  0  0  0  0  0  0  0  0  0
   -2.9067   -3.4945   -0.1016 H   0  0  0  0  0  0  0  0  0  0  0  0
   -2.5689   -1.9299    0.6749 H   0  0  0  0  0  0  0  0  0  0  0  0
   -1.6180   -4.6563    1.6981 H   0  0  0  0  0  0  0  0  0  0  0  0
   -2.9416   -3.7066    2.3810 H   0  0  0  0  0  0  0  0  0  0  0  0
   -1.2857   -3.0989    2.4681 H   0  0  0  0  0  0  0  0  0  0  0  0
   -1.7622   -5.5021   -1.3656 H   0  0  0  0  0  0  0  0  0  0  0  0
    0.9790   -6.9150   -3.8071 H   0  0  0  0  0  0  0  0  0  0  0  0
    0.2798  -10.9150   -5.1830 H   0  0  0  0  0  0  0  0  0  0  0  0
    1.6928  -10.0276   -5.8361 H   0  0  0  0  0  0  0  0  0  0  0  0
    0.1568   -8.8648   -7.4544 H   0  0  0  0  0  0  0  0  0  0  0  0
   -1.2050   -9.7953   -6.8087 H   0  0  0  0  0  0  0  0  0  0  0  0
    0.1028  -10.6228   -7.6637 H   0  0  0  0  0  0  0  0  0  0  0  0
  1  2  2  0  0  0  0
  2  3  1  0  0  0  0
  3  4  3  0  0  0  0
  2  5  1  0  0  0  0
  5  6  2  0  0  0  0
  5  7  1  0  0  0  0
  7  8  1  0  0  0  0
  8  9  1  0  0  0  0
  1 10  1  0  0  0  0
 10 11  1  0  0  0  0
 11 12  1  0  0  0  0
 12 13  1  0  0  0  0
 13 14  1  0  0  0  0
 14 15  1  0  0  0  0
 15 16  2  0  0  0  0
 16 17  1  0  0  0  0
 17 18  1  0  0  0  0
 18 19  1  0  0  0  0
 19 20  1  0  0  0  0
 18 21  1  0  0  0  0
 21 22  1  0  0  0  0
 16 23  1  0  0  0  0
 23 24  1  0  0  0  0
 24 25  1  0  0  0  0
 25 26  2  0  0  0  0
 26 27  1  0  0  0  0
 27 28  1  0  0  0  0
 28 29  1  0  0  0  0
 27 30  1  0  0  0  0
 26 31  1  0  0  0  0
 31 32  2  0  0  0  0
 32 33  1  0  0  0  0
 32 34  1  0  0  0  0
 34 35  2  0  0  0  0
 35 36  1  0  0  0  0
 36 37  3  0  0  0  0
 35 38  1  0  0  0  0
 38 39  2  0  0  0  0
 38 40  1  0  0  0  0
 40 41  1  0  0  0  0
 41 42  1  0  0  0  0
 20 10  2  0  0  0  0
 30 24  2  0  0  0  0
 19 12  2  0  0  0  0
 33 25  1  0  0  0  0
 17 13  2  0  0  0  0
 30 15  1  0  0  0  0
  1 43  1  0  0  0  0
  8 44  1  0  0  0  0
  8 45  1  0  0  0  0
  9 46  1  0  0  0  0
  9 47  1  0  0  0  0
  9 48  1  0  0  0  0
 20 49  1  0  0  0  0
 21 50  1  0  0  0  0
 21 51  1  0  0  0  0
 22 52  1  0  0  0  0
 22 53  1  0  0  0  0
 22 54  1  0  0  0  0
 28 55  1  0  0  0  0
 28 56  1  0  0  0  0
 29 57  1  0  0  0  0
 29 58  1  0  0  0  0
 29 59  1  0  0  0  0
 31 60  1  0  0  0  0
 34 61  1  0  0  0  0
 41 62  1  0  0  0  0
 41 63  1  0  0  0  0
 42 64  1  0  0  0  0
 42 65  1  0  0  0  0
 42 66  1  0  0  0  0
M  END
