
  xtb     02022205343D
 energy: -178.920329430408 gnorm: 0.000531802303 xtb: 6.4.1 (unknown)
104116  0     0  0            999 V2000
  -10.6522   -1.6676   -1.7619 C   0  0  0  0  0  0  0  0  0  0  0  0
  -10.9611   -2.0596   -0.5042 C   0  0  0  0  0  0  0  0  0  0  0  0
  -12.2548   -2.4883   -0.1711 C   0  0  0  0  0  0  0  0  0  0  0  0
  -13.3079   -2.8494    0.1118 N   0  0  0  0  0  0  0  0  0  0  0  0
   -9.9999   -2.0681    0.6517 C   0  0  0  0  0  0  0  0  0  0  0  0
   -9.8175   -1.1377    1.3893 O   0  0  0  0  0  0  0  0  0  0  0  0
   -9.4032   -3.2546    0.7441 O   0  0  0  0  0  0  0  0  0  0  0  0
   -8.4842   -3.4373    1.8237 C   0  0  0  0  0  0  0  0  0  0  0  0
   -9.2085   -3.7879    3.1142 C   0  0  0  0  0  0  0  0  0  0  0  0
   -9.3885   -1.2322   -2.2348 C   0  0  0  0  0  0  0  0  0  0  0  0
   -9.0922   -0.8085   -3.5215 C   0  0  0  0  0  0  0  0  0  0  0  0
  -10.0648   -0.6832   -4.6489 C   0  0  0  0  0  0  0  0  0  0  0  0
  -10.7673    0.6752   -4.6040 C   0  0  0  0  0  0  0  0  0  0  0  0
   -7.7469   -0.4378   -3.6484 C   0  0  0  0  0  0  0  0  0  0  0  0
   -6.7245    0.2030   -5.1087 Se  0  0  0  0  0  2  0  0  0  0  0  0
   -5.3144    0.2140   -3.8956 C   0  0  0  0  0  0  0  0  0  0  0  0
   -3.9432    0.5006   -3.8734 C   0  0  0  0  0  0  0  0  0  0  0  0
   -3.0801    0.8554   -4.9308 C   0  0  0  0  0  0  0  0  0  0  0  0
   -1.6820    0.9830   -4.6610 C   0  0  0  0  0  0  0  0  0  0  0  0
   -0.9767    1.2699   -5.7437 N   0  0  0  0  0  0  0  0  0  0  0  0
   -1.9965    1.3712   -7.0010 S   0  0  0  0  0  0  0  0  0  0  0  0
   -3.3740    1.0527   -6.2063 N   0  0  0  0  0  0  0  0  0  0  0  0
   -1.2385    0.8617   -3.3280 C   0  0  0  0  0  0  0  0  0  0  0  0
    0.0306    1.0906   -2.7848 C   0  0  0  0  0  0  0  0  0  0  0  0
    1.7345    1.5516   -3.3543 Se  0  0  0  0  0  2  0  0  0  0  0  0
    2.1815    1.5759   -1.5090 C   0  0  0  0  0  0  0  0  0  0  0  0
    3.3703    1.8098   -0.7997 C   0  0  0  0  0  0  0  0  0  0  0  0
    4.6631    2.2440   -1.4027 C   0  0  0  0  0  0  0  0  0  0  0  0
    4.5122    3.1418   -2.6244 C   0  0  0  0  0  0  0  0  0  0  0  0
    3.1733    1.6826    0.5738 C   0  0  0  0  0  0  0  0  0  0  0  0
    1.4944    1.3316    0.9748 S   0  0  0  0  0  0  0  0  0  0  0  0
    1.0789    1.2697   -0.6950 C   0  0  0  0  0  0  0  0  0  0  0  0
   -0.1011    0.9926   -1.3966 C   0  0  0  0  0  0  0  0  0  0  0  0
   -1.3997    0.6925   -1.0752 N   0  0  0  0  0  0  0  0  0  0  0  0
   -2.1227    0.5825   -2.2473 C   0  0  0  0  0  0  0  0  0  0  0  0
   -3.4820    0.2832   -2.5450 C   0  0  0  0  0  0  0  0  0  0  0  0
   -4.5574   -0.1589   -1.7888 N   0  0  0  0  0  0  0  0  0  0  0  0
   -5.6568   -0.2067   -2.6083 C   0  0  0  0  0  0  0  0  0  0  0  0
   -7.0022   -0.5774   -2.4719 C   0  0  0  0  0  0  0  0  0  0  0  0
   -7.9792   -1.1800   -1.1841 S   0  0  0  0  0  0  0  0  0  0  0  0
   -4.5877   -0.9494   -0.5783 C   0  0  0  0  0  0  0  0  0  0  0  0
   -4.3083   -2.4208   -0.8809 C   0  0  0  0  0  0  0  0  0  0  0  0
   -1.8349    0.7735    0.2991 C   0  0  0  0  0  0  0  0  0  0  0  0
   -1.5278   -0.5088    1.0733 C   0  0  0  0  0  0  0  0  0  0  0  0
    4.0339    1.8962    1.6695 C   0  0  0  0  0  0  0  0  0  0  0  0
    5.3781    1.6481    1.7442 C   0  0  0  0  0  0  0  0  0  0  0  0
    6.1150    0.6853    0.9000 C   0  0  0  0  0  0  0  0  0  0  0  0
    5.6845    0.0349   -0.0324 O   0  0  0  0  0  0  0  0  0  0  0  0
    7.4576    0.5700    1.5014 C   0  0  0  0  0  0  0  0  0  0  0  0
    8.5084   -0.2242    1.0498 C   0  0  0  0  0  0  0  0  0  0  0  0
    9.6469   -0.1345    1.8144 C   0  0  0  0  0  0  0  0  0  0  0  0
    9.7335    0.6810    2.9506 C   0  0  0  0  0  0  0  0  0  0  0  0
    8.7028    1.4654    3.4104 C   0  0  0  0  0  0  0  0  0  0  0  0
    7.5358    1.3903    2.6446 C   0  0  0  0  0  0  0  0  0  0  0  0
    6.2593    2.0785    2.8106 C   0  0  0  0  0  0  0  0  0  0  0  0
    5.9753    3.0311    3.7554 C   0  0  0  0  0  0  0  0  0  0  0  0
    4.7752    3.7699    3.8180 C   0  0  0  0  0  0  0  0  0  0  0  0
    3.8415    4.4315    3.9182 N   0  0  0  0  0  0  0  0  0  0  0  0
    6.8559    3.4271    4.7827 C   0  0  0  0  0  0  0  0  0  0  0  0
    7.5138    3.7899    5.6512 N   0  0  0  0  0  0  0  0  0  0  0  0
   11.1581    0.2745    3.2323 C   0  0  0  0  0  0  0  0  0  0  0  0
   11.4065   -0.7468    4.3696 C   0  0  0  0  0  0  0  0  0  0  0  0
   10.1484   -1.5708    4.4886 C   0  0  0  0  0  0  0  0  0  0  0  0
   10.0665   -2.3425    3.4131 C   0  0  0  0  0  0  0  0  0  0  0  0
   11.2681   -2.0545    2.5472 C   0  0  0  0  0  0  0  0  0  0  0  0
   12.3137   -1.7429    3.6299 C   0  0  0  0  0  0  0  0  0  0  0  0
   11.0621   -0.6337    1.9660 C   0  0  0  0  0  0  0  0  0  0  0  0
  -11.4459   -1.6824   -2.4987 H   0  0  0  0  0  0  0  0  0  0  0  0
   -7.9032   -2.5170    1.9484 H   0  0  0  0  0  0  0  0  0  0  0  0
   -7.8316   -4.2506    1.5001 H   0  0  0  0  0  0  0  0  0  0  0  0
   -8.4823   -3.9860    3.8974 H   0  0  0  0  0  0  0  0  0  0  0  0
   -9.8276   -4.6700    2.9699 H   0  0  0  0  0  0  0  0  0  0  0  0
   -9.8420   -2.9596    3.4225 H   0  0  0  0  0  0  0  0  0  0  0  0
  -10.8034   -1.4855   -4.6142 H   0  0  0  0  0  0  0  0  0  0  0  0
   -9.5084   -0.7680   -5.5877 H   0  0  0  0  0  0  0  0  0  0  0  0
  -10.0341    1.4767   -4.6669 H   0  0  0  0  0  0  0  0  0  0  0  0
  -11.3248    0.7886   -3.6768 H   0  0  0  0  0  0  0  0  0  0  0  0
  -11.4563    0.7688   -5.4393 H   0  0  0  0  0  0  0  0  0  0  0  0
    5.2272    1.3454   -1.6751 H   0  0  0  0  0  0  0  0  0  0  0  0
    5.2447    2.7616   -0.6347 H   0  0  0  0  0  0  0  0  0  0  0  0
    5.4806    3.5578   -2.8915 H   0  0  0  0  0  0  0  0  0  0  0  0
    4.1412    2.5815   -3.4834 H   0  0  0  0  0  0  0  0  0  0  0  0
    3.8271    3.9624   -2.4202 H   0  0  0  0  0  0  0  0  0  0  0  0
   -3.8736   -0.5804    0.1475 H   0  0  0  0  0  0  0  0  0  0  0  0
   -5.5894   -0.8439   -0.1525 H   0  0  0  0  0  0  0  0  0  0  0  0
   -4.3352   -2.9994    0.0384 H   0  0  0  0  0  0  0  0  0  0  0  0
   -3.3289   -2.5350   -1.3419 H   0  0  0  0  0  0  0  0  0  0  0  0
   -5.0571   -2.8173   -1.5625 H   0  0  0  0  0  0  0  0  0  0  0  0
   -2.8949    1.0320    0.3214 H   0  0  0  0  0  0  0  0  0  0  0  0
   -1.2906    1.6007    0.7674 H   0  0  0  0  0  0  0  0  0  0  0  0
   -0.4526   -0.6298    1.1737 H   0  0  0  0  0  0  0  0  0  0  0  0
   -1.9595   -0.4526    2.0688 H   0  0  0  0  0  0  0  0  0  0  0  0
   -1.9186   -1.3864    0.5646 H   0  0  0  0  0  0  0  0  0  0  0  0
    3.5403    2.2629    2.5629 H   0  0  0  0  0  0  0  0  0  0  0  0
    8.4003   -0.8379    0.1691 H   0  0  0  0  0  0  0  0  0  0  0  0
    8.7819    2.0841    4.2888 H   0  0  0  0  0  0  0  0  0  0  0  0
   11.8920    1.0780    3.2290 H   0  0  0  0  0  0  0  0  0  0  0  0
   11.7849   -0.3126    5.2911 H   0  0  0  0  0  0  0  0  0  0  0  0
    9.4399   -1.4692    5.2897 H   0  0  0  0  0  0  0  0  0  0  0  0
    9.2755   -3.0146    3.1358 H   0  0  0  0  0  0  0  0  0  0  0  0
   11.5213   -2.8119    1.8099 H   0  0  0  0  0  0  0  0  0  0  0  0
   13.2239   -1.2916    3.2371 H   0  0  0  0  0  0  0  0  0  0  0  0
   12.5657   -2.6126    4.2348 H   0  0  0  0  0  0  0  0  0  0  0  0
   11.7341   -0.4235    1.1361 H   0  0  0  0  0  0  0  0  0  0  0  0
  1  2  2  0  0  0  0
  2  3  1  0  0  0  0
  3  4  3  0  0  0  0
  2  5  1  0  0  0  0
  5  6  2  0  0  0  0
  5  7  1  0  0  0  0
  7  8  1  0  0  0  0
  8  9  1  0  0  0  0
  1 10  1  0  0  0  0
 10 11  2  0  0  0  0
 11 12  1  0  0  0  0
 12 13  1  0  0  0  0
 11 14  1  0  0  0  0
 14 15  1  0  0  0  0
 15 16  1  0  0  0  0
 16 17  1  0  0  0  0
 17 18  1  0  0  0  0
 18 19  1  0  0  0  0
 19 20  2  0  0  0  0
 20 21  1  0  0  0  0
 21 22  1  0  0  0  0
 19 23  1  0  0  0  0
 23 24  1  0  0  0  0
 24 25  1  0  0  0  0
 25 26  1  0  0  0  0
 26 27  1  0  0  0  0
 27 28  1  0  0  0  0
 28 29  1  0  0  0  0
 27 30  2  0  0  0  0
 30 31  1  0  0  0  0
 31 32  1  0  0  0  0
 32 33  1  0  0  0  0
 33 34  1  0  0  0  0
 34 35  1  0  0  0  0
 35 36  1  0  0  0  0
 36 37  1  0  0  0  0
 37 38  1  0  0  0  0
 38 39  1  0  0  0  0
 39 40  1  0  0  0  0
 37 41  1  0  0  0  0
 41 42  1  0  0  0  0
 34 43  1  0  0  0  0
 43 44  1  0  0  0  0
 30 45  1  0  0  0  0
 45 46  2  0  0  0  0
 46 47  1  0  0  0  0
 47 48  2  0  0  0  0
 47 49  1  0  0  0  0
 49 50  2  0  0  0  0
 50 51  1  0  0  0  0
 51 52  2  0  0  0  0
 52 53  1  0  0  0  0
 53 54  2  0  0  0  0
 54 55  1  0  0  0  0
 55 56  2  0  0  0  0
 56 57  1  0  0  0  0
 57 58  3  0  0  0  0
 56 59  1  0  0  0  0
 59 60  3  0  0  0  0
 52 61  1  0  0  0  0
 61 62  1  0  0  0  0
 62 63  1  0  0  0  0
 63 64  2  0  0  0  0
 64 65  1  0  0  0  0
 65 66  1  0  0  0  0
 65 67  1  0  0  0  0
 40 10  1  0  0  0  0
 55 46  1  0  0  0  0
 67 61  1  0  0  0  0
 39 14  2  0  0  0  0
 54 49  1  0  0  0  0
 66 62  1  0  0  0  0
 38 16  2  0  0  0  0
 67 51  1  0  0  0  0
 36 17  2  0  0  0  0
 22 18  2  0  0  0  0
 35 23  2  0  0  0  0
 33 24  2  0  0  0  0
 32 26  2  0  0  0  0
  1 68  1  0  0  0  0
  8 69  1  0  0  0  0
  8 70  1  0  0  0  0
  9 71  1  0  0  0  0
  9 72  1  0  0  0  0
  9 73  1  0  0  0  0
 12 74  1  0  0  0  0
 12 75  1  0  0  0  0
 13 76  1  0  0  0  0
 13 77  1  0  0  0  0
 13 78  1  0  0  0  0
 28 79  1  0  0  0  0
 28 80  1  0  0  0  0
 29 81  1  0  0  0  0
 29 82  1  0  0  0  0
 29 83  1  0  0  0  0
 41 84  1  0  0  0  0
 41 85  1  0  0  0  0
 42 86  1  0  0  0  0
 42 87  1  0  0  0  0
 42 88  1  0  0  0  0
 43 89  1  0  0  0  0
 43 90  1  0  0  0  0
 44 91  1  0  0  0  0
 44 92  1  0  0  0  0
 44 93  1  0  0  0  0
 45 94  1  0  0  0  0
 50 95  1  0  0  0  0
 53 96  1  0  0  0  0
 61 97  1  0  0  0  0
 62 98  1  0  0  0  0
 63 99  1  0  0  0  0
 64100  1  0  0  0  0
 65101  1  0  0  0  0
 66102  1  0  0  0  0
 66103  1  0  0  0  0
 67104  1  0  0  0  0
M  END
