97

C         -8.23240       -1.14590        3.39160
C         -8.86890       -1.39550        2.20380
C        -10.24960       -1.68330        2.25560
N        -11.37170       -1.91120        2.32840
C         -8.26600       -1.39880        0.87060
O         -7.10740       -1.12900        0.61660
O         -9.14980       -1.74210       -0.06630
C         -8.67570       -1.78980       -1.41120
C         -9.76220       -2.40040       -2.27490
C         -6.89380       -0.84460        3.69360
C         -6.42490       -0.63570        4.99790
C         -7.25300       -0.64260        6.24220
C         -7.92530        0.71620        6.45550
C         -5.06080       -0.36340        5.00950
S         -3.93280       -0.04840        6.31430
C         -2.66420        0.07630        5.14540
C         -1.27260        0.24050        5.10780
C         -0.30200        0.26900        6.13510
C          1.08880        0.21580        5.78060
N          1.87860        0.16320        6.84110
S          0.95590        0.18600        8.17100
N         -0.48870        0.26060        7.44520
C          1.45050        0.27900        4.41590
C          2.69960        0.33520        3.77820
S          4.37980        0.24140        4.17240
C          4.76670        0.47310        2.48180
C          5.97780        0.53600        1.78960
C          7.30920        0.42700        2.45590
C          7.77880        1.80080        2.94270
C          5.77540        0.71690        0.42440
S          4.06030        0.84050        0.02040
C          3.63070        0.62110        1.67280
C          2.45270        0.53230        2.41320
N          1.10210        0.57610        2.17810
C          0.46640        0.39150        3.39340
C         -0.89850        0.22170        3.73330
N         -2.02690       -0.00280        2.97120
C         -3.09530       -0.09160        3.82330
C         -4.46650       -0.35840        3.73820
S         -5.61120       -0.69740        2.49610
C         -2.14100       -0.46740        1.60540
C         -2.86230        0.53790        0.70680
C          0.62310        1.28100        1.00860
C          0.98570        2.76470        1.07530
C          6.77120        0.90070       -0.55510
C          6.66020        0.83790       -1.91460
C          7.64060        1.55460       -2.76830
O          8.69810        2.03080       -2.41920
C          7.01450        1.61610       -4.10550
C          7.44260        2.26320       -5.22800
C          6.65350        2.20800       -6.39950
C          7.05030        2.85840       -7.58570
C          6.27630        2.80600       -8.71160
C          5.07200        2.09060       -8.67310
F          4.32170        2.05180       -9.79020
C          4.64110        1.44050       -7.55050
C          5.42690        1.48240       -6.38250
C          5.01320        0.81140       -5.20800
C          5.79830        0.87360       -4.08980
C          5.65410        0.25950       -2.77320
C          4.90420       -0.85630       -2.49670
C          5.05540       -1.60280       -1.31040
N          5.19990       -2.25630       -0.37740
C          3.97640       -1.42130       -3.39100
N          3.18210       -1.89550       -4.07200
H         -8.87640       -1.19520        4.26350
H         -7.75480       -2.38390       -1.44150
H         -8.43330       -0.77070       -1.73480
H         -9.98640       -3.40820       -1.93650
H         -9.43070       -2.43550       -3.30850
H        -10.66850       -1.80500       -2.20850
H         -8.00990       -1.42750        6.20060
H         -6.59420       -0.85040        7.08780
H         -8.58800        0.95430        5.62650
H         -8.50690        0.70410        7.37350
H         -7.17360        1.49820        6.53180
H          8.04230        0.00340        1.76960
H          7.21220       -0.24210        3.31300
H          8.74140        1.70940        3.43830
H          7.88230        2.49050        2.10800
H          7.06340        2.21620        3.64850
H         -1.14470       -0.70870        1.23240
H         -2.72260       -1.39570        1.61860
H         -2.46690        1.54430        0.82830
H         -2.75650        0.24010       -0.33250
H         -3.92140        0.56300        0.94630
H         -0.45400        1.19020        0.94030
H          1.08200        0.82440        0.12620
H          0.55870        3.21660        1.96840
H          0.59120        3.27570        0.20150
H          2.06340        2.90260        1.09740
H          7.73750        1.23520       -0.19140
H          8.37260        2.81180       -5.22460
H          7.98220        3.40350       -7.59110
H          6.56560        3.29840       -9.62640
H          3.71030        0.89510       -7.55810
H          4.07920        0.27170       -5.21840
