
  xtb     02012216073D
 energy: -169.331683212025 gnorm: 0.000682188732 xtb: 6.4.1 (unknown)
 91100  0     0  0            999 V2000
   -6.6618   -4.9364   -0.4059 C   0  0  0  0  0  0  0  0  0  0  0  0
   -6.6354   -5.5154    0.8282 C   0  0  0  0  0  0  0  0  0  0  0  0
   -5.6398   -5.2570    1.7898 C   0  0  0  0  0  0  0  0  0  0  0  0
   -4.8309   -5.0604    2.5809 N   0  0  0  0  0  0  0  0  0  0  0  0
   -7.6768   -6.4777    1.2558 C   0  0  0  0  0  0  0  0  0  0  0  0
   -7.7671   -6.9326    2.3686 O   0  0  0  0  0  0  0  0  0  0  0  0
   -8.5199   -6.7844    0.2528 O   0  0  0  0  0  0  0  0  0  0  0  0
   -9.5472   -7.7280    0.5562 C   0  0  0  0  0  0  0  0  0  0  0  0
   -9.0278   -9.1576    0.5055 C   0  0  0  0  0  0  0  0  0  0  0  0
   -5.7438   -4.0188   -0.9578 C   0  0  0  0  0  0  0  0  0  0  0  0
   -5.8180   -3.4650   -2.2351 C   0  0  0  0  0  0  0  0  0  0  0  0
   -6.8682   -3.7650   -3.2546 C   0  0  0  0  0  0  0  0  0  0  0  0
   -6.5247   -5.0407   -4.0280 C   0  0  0  0  0  0  0  0  0  0  0  0
   -4.7372   -2.6158   -2.4825 C   0  0  0  0  0  0  0  0  0  0  0  0
   -4.2760   -1.6582   -3.8738 S   0  0  0  0  0  0  0  0  0  0  0  0
   -2.8818   -1.1118   -3.0076 C   0  0  0  0  0  0  0  0  0  0  0  0
   -1.7570   -0.2941   -3.2083 C   0  0  0  0  0  0  0  0  0  0  0  0
   -1.2318    0.3677   -4.3431 C   0  0  0  0  0  0  0  0  0  0  0  0
    0.0641    0.9899   -4.2567 C   0  0  0  0  0  0  0  0  0  0  0  0
    0.4575    1.4932   -5.4151 N   0  0  0  0  0  0  0  0  0  0  0  0
   -0.6967    1.2221   -6.5166 S   0  0  0  0  0  0  0  0  0  0  0  0
   -1.7460    0.4457   -5.5596 N   0  0  0  0  0  0  0  0  0  0  0  0
    0.7148    1.0599   -3.0024 C   0  0  0  0  0  0  0  0  0  0  0  0
    1.8884    1.6910   -2.5611 C   0  0  0  0  0  0  0  0  0  0  0  0
    3.2347    2.5565   -3.2160 S   0  0  0  0  0  0  0  0  0  0  0  0
    3.8750    2.7330   -1.5920 C   0  0  0  0  0  0  0  0  0  0  0  0
    5.0256    3.3289   -1.0993 C   0  0  0  0  0  0  0  0  0  0  0  0
    6.0486    3.9659   -1.9813 C   0  0  0  0  0  0  0  0  0  0  0  0
    7.1620    2.9729   -2.3272 C   0  0  0  0  0  0  0  0  0  0  0  0
    5.1155    3.1901    0.3002 C   0  0  0  0  0  0  0  0  0  0  0  0
    3.7310    2.3236    0.9744 S   0  0  0  0  0  0  0  0  0  0  0  0
    3.0633    2.1477   -0.6024 C   0  0  0  0  0  0  0  0  0  0  0  0
    1.9336    1.5531   -1.1649 C   0  0  0  0  0  0  0  0  0  0  0  0
    0.8410    0.8457   -0.7264 N   0  0  0  0  0  0  0  0  0  0  0  0
    0.1080    0.5030   -1.8434 C   0  0  0  0  0  0  0  0  0  0  0  0
   -1.0342   -0.3131   -1.9858 C   0  0  0  0  0  0  0  0  0  0  0  0
   -1.6552   -1.1647   -1.0934 N   0  0  0  0  0  0  0  0  0  0  0  0
   -2.7828   -1.6403   -1.7130 C   0  0  0  0  0  0  0  0  0  0  0  0
   -3.8399   -2.5032   -1.4112 C   0  0  0  0  0  0  0  0  0  0  0  0
   -4.3316   -3.4580   -0.0648 S   0  0  0  0  0  0  0  0  0  0  0  0
   -1.0178   -1.9324   -0.0407 C   0  0  0  0  0  0  0  0  0  0  0  0
   -0.6606   -3.3385   -0.5209 C   0  0  0  0  0  0  0  0  0  0  0  0
    0.3320    1.0440    0.6172 C   0  0  0  0  0  0  0  0  0  0  0  0
    0.0199    2.5175    0.8756 C   0  0  0  0  0  0  0  0  0  0  0  0
    6.1950    3.6743    1.0400 C   0  0  0  0  0  0  0  0  0  0  0  0
    6.4750    3.6037    2.3863 C   0  0  0  0  0  0  0  0  0  0  0  0
    5.6374    2.9837    3.4121 C   0  0  0  0  0  0  0  0  0  0  0  0
    4.5538    2.4445    3.2716 O   0  0  0  0  0  0  0  0  0  0  0  0
    6.3674    3.1451    4.6874 C   0  0  0  0  0  0  0  0  0  0  0  0
    5.9958    2.7224    5.9467 C   0  0  0  0  0  0  0  0  0  0  0  0
    6.8525    2.9871    7.0089 C   0  0  0  0  0  0  0  0  0  0  0  0
    6.4525    2.4875    8.6053 Cl  0  0  0  0  0  0  0  0  0  0  0  0
    8.0488    3.6658    6.7689 C   0  0  0  0  0  0  0  0  0  0  0  0
    8.8702    3.9172    7.7954 F   0  0  0  0  0  0  0  0  0  0  0  0
    8.4268    4.0939    5.5051 C   0  0  0  0  0  0  0  0  0  0  0  0
    7.5713    3.8290    4.4477 C   0  0  0  0  0  0  0  0  0  0  0  0
    7.6649    4.1334    3.0197 C   0  0  0  0  0  0  0  0  0  0  0  0
    8.7070    4.8000    2.4257 C   0  0  0  0  0  0  0  0  0  0  0  0
    8.8210    5.1013    1.0529 C   0  0  0  0  0  0  0  0  0  0  0  0
    8.9891    5.3910   -0.0465 N   0  0  0  0  0  0  0  0  0  0  0  0
    9.8335    5.2846    3.1234 C   0  0  0  0  0  0  0  0  0  0  0  0
   10.7760    5.7020    3.6283 N   0  0  0  0  0  0  0  0  0  0  0  0
   -7.4861   -5.2170   -1.0476 H   0  0  0  0  0  0  0  0  0  0  0  0
   -9.9486   -7.5078    1.5508 H   0  0  0  0  0  0  0  0  0  0  0  0
  -10.3149   -7.5586   -0.2021 H   0  0  0  0  0  0  0  0  0  0  0  0
   -8.2776   -9.3065    1.2783 H   0  0  0  0  0  0  0  0  0  0  0  0
   -9.8487   -9.8481    0.6752 H   0  0  0  0  0  0  0  0  0  0  0  0
   -8.5830   -9.3643   -0.4654 H   0  0  0  0  0  0  0  0  0  0  0  0
   -7.8431   -3.8744   -2.7772 H   0  0  0  0  0  0  0  0  0  0  0  0
   -6.9194   -2.9266   -3.9520 H   0  0  0  0  0  0  0  0  0  0  0  0
   -7.2856   -5.2376   -4.7787 H   0  0  0  0  0  0  0  0  0  0  0  0
   -6.4680   -5.8941   -3.3561 H   0  0  0  0  0  0  0  0  0  0  0  0
   -5.5655   -4.9304   -4.5280 H   0  0  0  0  0  0  0  0  0  0  0  0
    5.5551    4.2811   -2.9028 H   0  0  0  0  0  0  0  0  0  0  0  0
    6.4837    4.8469   -1.5077 H   0  0  0  0  0  0  0  0  0  0  0  0
    7.8894    3.4492   -2.9779 H   0  0  0  0  0  0  0  0  0  0  0  0
    7.6727    2.6375   -1.4277 H   0  0  0  0  0  0  0  0  0  0  0  0
    6.7499    2.1055   -2.8375 H   0  0  0  0  0  0  0  0  0  0  0  0
   -0.1003   -1.4320    0.2614 H   0  0  0  0  0  0  0  0  0  0  0  0
   -1.7023   -1.9945    0.8107 H   0  0  0  0  0  0  0  0  0  0  0  0
   -0.1423   -3.8684    0.2729 H   0  0  0  0  0  0  0  0  0  0  0  0
   -0.0095   -3.2853   -1.3911 H   0  0  0  0  0  0  0  0  0  0  0  0
   -1.5513   -3.9019   -0.7829 H   0  0  0  0  0  0  0  0  0  0  0  0
    1.0837    0.6953    1.3319 H   0  0  0  0  0  0  0  0  0  0  0  0
   -0.5866    0.4733    0.7390 H   0  0  0  0  0  0  0  0  0  0  0  0
   -0.4151    2.6250    1.8650 H   0  0  0  0  0  0  0  0  0  0  0  0
   -0.6902    2.8874    0.1386 H   0  0  0  0  0  0  0  0  0  0  0  0
    0.9211    3.1219    0.8299 H   0  0  0  0  0  0  0  0  0  0  0  0
    6.9349    4.1786    0.4340 H   0  0  0  0  0  0  0  0  0  0  0  0
    5.0651    2.2000    6.0999 H   0  0  0  0  0  0  0  0  0  0  0  0
    9.3646    4.6124    5.3918 H   0  0  0  0  0  0  0  0  0  0  0  0
  1  2  2  0  0  0  0
  2  3  1  0  0  0  0
  3  4  3  0  0  0  0
  2  5  1  0  0  0  0
  5  6  2  0  0  0  0
  5  7  1  0  0  0  0
  7  8  1  0  0  0  0
  8  9  1  0  0  0  0
  1 10  1  0  0  0  0
 10 11  2  0  0  0  0
 11 12  1  0  0  0  0
 12 13  1  0  0  0  0
 11 14  1  0  0  0  0
 14 15  1  0  0  0  0
 15 16  1  0  0  0  0
 16 17  1  0  0  0  0
 17 18  1  0  0  0  0
 18 19  1  0  0  0  0
 19 20  2  0  0  0  0
 20 21  1  0  0  0  0
 21 22  1  0  0  0  0
 19 23  1  0  0  0  0
 23 24  1  0  0  0  0
 24 25  1  0  0  0  0
 25 26  1  0  0  0  0
 26 27  1  0  0  0  0
 27 28  1  0  0  0  0
 28 29  1  0  0  0  0
 27 30  2  0  0  0  0
 30 31  1  0  0  0  0
 31 32  1  0  0  0  0
 32 33  1  0  0  0  0
 33 34  1  0  0  0  0
 34 35  1  0  0  0  0
 35 36  1  0  0  0  0
 36 37  1  0  0  0  0
 37 38  1  0  0  0  0
 38 39  1  0  0  0  0
 39 40  1  0  0  0  0
 37 41  1  0  0  0  0
 41 42  1  0  0  0  0
 34 43  1  0  0  0  0
 43 44  1  0  0  0  0
 30 45  1  0  0  0  0
 45 46  2  0  0  0  0
 46 47  1  0  0  0  0
 47 48  2  0  0  0  0
 47 49  1  0  0  0  0
 49 50  2  0  0  0  0
 50 51  1  0  0  0  0
 51 52  1  0  0  0  0
 51 53  2  0  0  0  0
 53 54  1  0  0  0  0
 53 55  1  0  0  0  0
 55 56  2  0  0  0  0
 56 57  1  0  0  0  0
 57 58  2  0  0  0  0
 58 59  1  0  0  0  0
 59 60  3  0  0  0  0
 58 61  1  0  0  0  0
 61 62  3  0  0  0  0
 40 10  1  0  0  0  0
 57 46  1  0  0  0  0
 39 14  2  0  0  0  0
 56 49  1  0  0  0  0
 38 16  2  0  0  0  0
 36 17  2  0  0  0  0
 22 18  2  0  0  0  0
 35 23  2  0  0  0  0
 33 24  2  0  0  0  0
 32 26  2  0  0  0  0
  1 63  1  0  0  0  0
  8 64  1  0  0  0  0
  8 65  1  0  0  0  0
  9 66  1  0  0  0  0
  9 67  1  0  0  0  0
  9 68  1  0  0  0  0
 12 69  1  0  0  0  0
 12 70  1  0  0  0  0
 13 71  1  0  0  0  0
 13 72  1  0  0  0  0
 13 73  1  0  0  0  0
 28 74  1  0  0  0  0
 28 75  1  0  0  0  0
 29 76  1  0  0  0  0
 29 77  1  0  0  0  0
 29 78  1  0  0  0  0
 41 79  1  0  0  0  0
 41 80  1  0  0  0  0
 42 81  1  0  0  0  0
 42 82  1  0  0  0  0
 42 83  1  0  0  0  0
 43 84  1  0  0  0  0
 43 85  1  0  0  0  0
 44 86  1  0  0  0  0
 44 87  1  0  0  0  0
 44 88  1  0  0  0  0
 45 89  1  0  0  0  0
 50 90  1  0  0  0  0
 55 91  1  0  0  0  0
M  END
