
  xtb     02012215533D
 energy: -147.782225315212 gnorm: 0.000820878208 xtb: 6.4.1 (unknown)
 85 92  0     0  0            999 V2000
    7.0182    2.6171    1.9098 C   0  0  0  0  0  0  0  0  0  0  0  0
    7.9616    1.6437    1.7599 C   0  0  0  0  0  0  0  0  0  0  0  0
    7.6869    0.3036    1.4441 C   0  0  0  0  0  0  0  0  0  0  0  0
    7.4777   -0.7958    1.1829 N   0  0  0  0  0  0  0  0  0  0  0  0
    9.3824    2.0227    1.9343 C   0  0  0  0  0  0  0  0  0  0  0  0
    9.7496    3.1444    2.1950 O   0  0  0  0  0  0  0  0  0  0  0  0
   10.1935    0.9730    1.7784 O   0  0  0  0  0  0  0  0  0  0  0  0
   11.5942    1.2109    1.9037 C   0  0  0  0  0  0  0  0  0  0  0  0
   12.1847    1.7521    0.6094 C   0  0  0  0  0  0  0  0  0  0  0  0
    5.6202    2.5121    1.7886 C   0  0  0  0  0  0  0  0  0  0  0  0
    4.7073    3.5569    1.9148 C   0  0  0  0  0  0  0  0  0  0  0  0
    5.0553    4.9872    2.1680 C   0  0  0  0  0  0  0  0  0  0  0  0
    5.4208    5.6951    0.8608 C   0  0  0  0  0  0  0  0  0  0  0  0
    3.3984    3.1137    1.7146 C   0  0  0  0  0  0  0  0  0  0  0  0
    1.8573    3.9440    1.7321 S   0  0  0  0  0  0  0  0  0  0  0  0
    1.0769    2.4424    1.3790 C   0  0  0  0  0  0  0  0  0  0  0  0
   -0.2170    1.9402    1.1850 C   0  0  0  0  0  0  0  0  0  0  0  0
   -1.4728    2.5756    1.2940 C   0  0  0  0  0  0  0  0  0  0  0  0
   -2.6592    1.7898    1.1324 C   0  0  0  0  0  0  0  0  0  0  0  0
   -3.7641    2.4983    1.3053 N   0  0  0  0  0  0  0  0  0  0  0  0
   -3.3450    4.0261    1.6385 S   0  0  0  0  0  0  0  0  0  0  0  0
   -1.7376    3.8417    1.5765 N   0  0  0  0  0  0  0  0  0  0  0  0
   -2.5298    0.4300    0.7767 C   0  0  0  0  0  0  0  0  0  0  0  0
   -3.5062   -0.5207    0.4479 C   0  0  0  0  0  0  0  0  0  0  0  0
   -5.2258   -0.6515    0.3532 S   0  0  0  0  0  0  0  0  0  0  0  0
   -5.0529   -2.2910   -0.2347 C   0  0  0  0  0  0  0  0  0  0  0  0
   -5.9832   -3.2551   -0.6637 C   0  0  0  0  0  0  0  0  0  0  0  0
   -7.4637   -3.0937   -0.5553 C   0  0  0  0  0  0  0  0  0  0  0  0
   -7.9038   -2.5666    0.8088 C   0  0  0  0  0  0  0  0  0  0  0  0
   -5.3425   -4.3992   -1.1083 C   0  0  0  0  0  0  0  0  0  0  0  0
   -3.5909   -4.3058   -0.9231 S   0  0  0  0  0  0  0  0  0  0  0  0
   -3.7157   -2.6923   -0.3335 C   0  0  0  0  0  0  0  0  0  0  0  0
   -2.8314   -1.6796    0.0588 C   0  0  0  0  0  0  0  0  0  0  0  0
   -1.4792   -1.4920    0.1611 N   0  0  0  0  0  0  0  0  0  0  0  0
   -1.2616   -0.1969    0.6055 C   0  0  0  0  0  0  0  0  0  0  0  0
   -0.0877    0.5475    0.9071 C   0  0  0  0  0  0  0  0  0  0  0  0
    1.2573    0.2199    0.9667 N   0  0  0  0  0  0  0  0  0  0  0  0
    1.9555    1.3623    1.2533 C   0  0  0  0  0  0  0  0  0  0  0  0
    3.2881    1.7413    1.4478 C   0  0  0  0  0  0  0  0  0  0  0  0
    4.8319    0.9747    1.4361 S   0  0  0  0  0  0  0  0  0  0  0  0
    1.9064   -1.0622    1.1315 C   0  0  0  0  0  0  0  0  0  0  0  0
    1.4137   -1.7800    2.3856 C   0  0  0  0  0  0  0  0  0  0  0  0
   -0.5839   -2.4243   -0.4865 C   0  0  0  0  0  0  0  0  0  0  0  0
    0.0119   -1.8341   -1.7623 C   0  0  0  0  0  0  0  0  0  0  0  0
   -5.8389   -5.6223   -1.6332 C   0  0  0  0  0  0  0  0  0  0  0  0
   -6.9319   -5.8110   -2.4202 C   0  0  0  0  0  0  0  0  0  0  0  0
   -7.3292   -7.1246   -2.7429 C   0  0  0  0  0  0  0  0  0  0  0  0
   -7.6443   -8.1966   -3.0042 N   0  0  0  0  0  0  0  0  0  0  0  0
   -7.6837   -4.7335   -3.1113 C   0  0  0  0  0  0  0  0  0  0  0  0
   -7.2294   -3.6519   -3.3946 O   0  0  0  0  0  0  0  0  0  0  0  0
   -8.9158   -5.1443   -3.4252 O   0  0  0  0  0  0  0  0  0  0  0  0
   -9.7233   -4.2578   -4.1987 C   0  0  0  0  0  0  0  0  0  0  0  0
   -9.4313   -4.4036   -5.6847 C   0  0  0  0  0  0  0  0  0  0  0  0
    7.4089    3.5999    2.1477 H   0  0  0  0  0  0  0  0  0  0  0  0
   12.0217    0.2386    2.1562 H   0  0  0  0  0  0  0  0  0  0  0  0
   11.7624    1.9189    2.7223 H   0  0  0  0  0  0  0  0  0  0  0  0
   11.7580    2.7269    0.3850 H   0  0  0  0  0  0  0  0  0  0  0  0
   13.2607    1.8551    0.7156 H   0  0  0  0  0  0  0  0  0  0  0  0
   11.9701    1.0734   -0.2127 H   0  0  0  0  0  0  0  0  0  0  0  0
    5.8882    5.0582    2.8690 H   0  0  0  0  0  0  0  0  0  0  0  0
    4.1873    5.4789    2.6117 H   0  0  0  0  0  0  0  0  0  0  0  0
    5.6487    6.7398    1.0549 H   0  0  0  0  0  0  0  0  0  0  0  0
    6.2894    5.2286    0.4019 H   0  0  0  0  0  0  0  0  0  0  0  0
    4.5902    5.6454    0.1606 H   0  0  0  0  0  0  0  0  0  0  0  0
   -7.7919   -2.4061   -1.3404 H   0  0  0  0  0  0  0  0  0  0  0  0
   -7.9432   -4.0581   -0.7361 H   0  0  0  0  0  0  0  0  0  0  0  0
   -7.5159   -3.1994    1.6041 H   0  0  0  0  0  0  0  0  0  0  0  0
   -7.5557   -1.5508    0.9711 H   0  0  0  0  0  0  0  0  0  0  0  0
   -8.9895   -2.5683    0.8657 H   0  0  0  0  0  0  0  0  0  0  0  0
    2.9753   -0.8592    1.2314 H   0  0  0  0  0  0  0  0  0  0  0  0
    1.7818   -1.6754    0.2395 H   0  0  0  0  0  0  0  0  0  0  0  0
    1.6474   -1.1880    3.2675 H   0  0  0  0  0  0  0  0  0  0  0  0
    1.9064   -2.7440    2.4772 H   0  0  0  0  0  0  0  0  0  0  0  0
    0.3371   -1.9336    2.3567 H   0  0  0  0  0  0  0  0  0  0  0  0
    0.1898   -2.7573    0.2049 H   0  0  0  0  0  0  0  0  0  0  0  0
   -1.1827   -3.3018   -0.7428 H   0  0  0  0  0  0  0  0  0  0  0  0
    0.5476   -0.9101   -1.5569 H   0  0  0  0  0  0  0  0  0  0  0  0
   -0.7805   -1.6148   -2.4743 H   0  0  0  0  0  0  0  0  0  0  0  0
    0.6967   -2.5457   -2.2154 H   0  0  0  0  0  0  0  0  0  0  0  0
   -5.2515   -6.5018   -1.3879 H   0  0  0  0  0  0  0  0  0  0  0  0
   -9.5350   -3.2291   -3.8722 H   0  0  0  0  0  0  0  0  0  0  0  0
  -10.7524   -4.5413   -3.9686 H   0  0  0  0  0  0  0  0  0  0  0  0
   -9.5596   -5.4390   -5.9896 H   0  0  0  0  0  0  0  0  0  0  0  0
   -8.4096   -4.0968   -5.8952 H   0  0  0  0  0  0  0  0  0  0  0  0
  -10.1119   -3.7765   -6.2530 H   0  0  0  0  0  0  0  0  0  0  0  0
  1  2  2  0  0  0  0
  2  3  1  0  0  0  0
  3  4  3  0  0  0  0
  2  5  1  0  0  0  0
  5  6  2  0  0  0  0
  5  7  1  0  0  0  0
  7  8  1  0  0  0  0
  8  9  1  0  0  0  0
  1 10  1  0  0  0  0
 10 11  2  0  0  0  0
 11 12  1  0  0  0  0
 12 13  1  0  0  0  0
 11 14  1  0  0  0  0
 14 15  1  0  0  0  0
 15 16  1  0  0  0  0
 16 17  1  0  0  0  0
 17 18  1  0  0  0  0
 18 19  1  0  0  0  0
 19 20  2  0  0  0  0
 20 21  1  0  0  0  0
 21 22  1  0  0  0  0
 19 23  1  0  0  0  0
 23 24  1  0  0  0  0
 24 25  1  0  0  0  0
 25 26  1  0  0  0  0
 26 27  1  0  0  0  0
 27 28  1  0  0  0  0
 28 29  1  0  0  0  0
 27 30  2  0  0  0  0
 30 31  1  0  0  0  0
 31 32  1  0  0  0  0
 32 33  1  0  0  0  0
 33 34  1  0  0  0  0
 34 35  1  0  0  0  0
 35 36  1  0  0  0  0
 36 37  1  0  0  0  0
 37 38  1  0  0  0  0
 38 39  1  0  0  0  0
 39 40  1  0  0  0  0
 37 41  1  0  0  0  0
 41 42  1  0  0  0  0
 34 43  1  0  0  0  0
 43 44  1  0  0  0  0
 30 45  1  0  0  0  0
 45 46  2  0  0  0  0
 46 47  1  0  0  0  0
 47 48  3  0  0  0  0
 46 49  1  0  0  0  0
 49 50  2  0  0  0  0
 49 51  1  0  0  0  0
 51 52  1  0  0  0  0
 52 53  1  0  0  0  0
 40 10  1  0  0  0  0
 39 14  2  0  0  0  0
 38 16  2  0  0  0  0
 36 17  2  0  0  0  0
 22 18  2  0  0  0  0
 35 23  2  0  0  0  0
 33 24  2  0  0  0  0
 32 26  2  0  0  0  0
  1 54  1  0  0  0  0
  8 55  1  0  0  0  0
  8 56  1  0  0  0  0
  9 57  1  0  0  0  0
  9 58  1  0  0  0  0
  9 59  1  0  0  0  0
 12 60  1  0  0  0  0
 12 61  1  0  0  0  0
 13 62  1  0  0  0  0
 13 63  1  0  0  0  0
 13 64  1  0  0  0  0
 28 65  1  0  0  0  0
 28 66  1  0  0  0  0
 29 67  1  0  0  0  0
 29 68  1  0  0  0  0
 29 69  1  0  0  0  0
 41 70  1  0  0  0  0
 41 71  1  0  0  0  0
 42 72  1  0  0  0  0
 42 73  1  0  0  0  0
 42 74  1  0  0  0  0
 43 75  1  0  0  0  0
 43 76  1  0  0  0  0
 44 77  1  0  0  0  0
 44 78  1  0  0  0  0
 44 79  1  0  0  0  0
 45 80  1  0  0  0  0
 52 81  1  0  0  0  0
 52 82  1  0  0  0  0
 53 83  1  0  0  0  0
 53 84  1  0  0  0  0
 53 85  1  0  0  0  0
M  END
