
  xtb     02012219363D
 energy: -174.878454154675 gnorm: 0.000758942655 xtb: 6.4.1 (unknown)
 97107  0     0  0            999 V2000
   -8.2324   -1.1459    3.3916 C   0  0  0  0  0  0  0  0  0  0  0  0
   -8.8689   -1.3955    2.2038 C   0  0  0  0  0  0  0  0  0  0  0  0
  -10.2496   -1.6833    2.2556 C   0  0  0  0  0  0  0  0  0  0  0  0
  -11.3717   -1.9112    2.3284 N   0  0  0  0  0  0  0  0  0  0  0  0
   -8.2660   -1.3988    0.8706 C   0  0  0  0  0  0  0  0  0  0  0  0
   -7.1074   -1.1290    0.6166 O   0  0  0  0  0  0  0  0  0  0  0  0
   -9.1498   -1.7421   -0.0663 O   0  0  0  0  0  0  0  0  0  0  0  0
   -8.6757   -1.7898   -1.4112 C   0  0  0  0  0  0  0  0  0  0  0  0
   -9.7622   -2.4004   -2.2749 C   0  0  0  0  0  0  0  0  0  0  0  0
   -6.8938   -0.8446    3.6936 C   0  0  0  0  0  0  0  0  0  0  0  0
   -6.4249   -0.6357    4.9979 C   0  0  0  0  0  0  0  0  0  0  0  0
   -7.2530   -0.6426    6.2422 C   0  0  0  0  0  0  0  0  0  0  0  0
   -7.9253    0.7162    6.4555 C   0  0  0  0  0  0  0  0  0  0  0  0
   -5.0608   -0.3634    5.0095 C   0  0  0  0  0  0  0  0  0  0  0  0
   -3.9328   -0.0484    6.3143 S   0  0  0  0  0  0  0  0  0  0  0  0
   -2.6642    0.0763    5.1454 C   0  0  0  0  0  0  0  0  0  0  0  0
   -1.2726    0.2405    5.1078 C   0  0  0  0  0  0  0  0  0  0  0  0
   -0.3020    0.2690    6.1351 C   0  0  0  0  0  0  0  0  0  0  0  0
    1.0888    0.2158    5.7806 C   0  0  0  0  0  0  0  0  0  0  0  0
    1.8786    0.1632    6.8411 N   0  0  0  0  0  0  0  0  0  0  0  0
    0.9559    0.1860    8.1710 S   0  0  0  0  0  0  0  0  0  0  0  0
   -0.4887    0.2606    7.4452 N   0  0  0  0  0  0  0  0  0  0  0  0
    1.4505    0.2790    4.4159 C   0  0  0  0  0  0  0  0  0  0  0  0
    2.6996    0.3352    3.7782 C   0  0  0  0  0  0  0  0  0  0  0  0
    4.3798    0.2414    4.1724 S   0  0  0  0  0  0  0  0  0  0  0  0
    4.7667    0.4731    2.4818 C   0  0  0  0  0  0  0  0  0  0  0  0
    5.9778    0.5360    1.7896 C   0  0  0  0  0  0  0  0  0  0  0  0
    7.3092    0.4270    2.4559 C   0  0  0  0  0  0  0  0  0  0  0  0
    7.7788    1.8008    2.9427 C   0  0  0  0  0  0  0  0  0  0  0  0
    5.7754    0.7169    0.4244 C   0  0  0  0  0  0  0  0  0  0  0  0
    4.0603    0.8405    0.0204 S   0  0  0  0  0  0  0  0  0  0  0  0
    3.6307    0.6211    1.6728 C   0  0  0  0  0  0  0  0  0  0  0  0
    2.4527    0.5323    2.4132 C   0  0  0  0  0  0  0  0  0  0  0  0
    1.1021    0.5761    2.1781 N   0  0  0  0  0  0  0  0  0  0  0  0
    0.4664    0.3915    3.3934 C   0  0  0  0  0  0  0  0  0  0  0  0
   -0.8985    0.2217    3.7333 C   0  0  0  0  0  0  0  0  0  0  0  0
   -2.0269   -0.0028    2.9712 N   0  0  0  0  0  0  0  0  0  0  0  0
   -3.0953   -0.0916    3.8233 C   0  0  0  0  0  0  0  0  0  0  0  0
   -4.4665   -0.3584    3.7382 C   0  0  0  0  0  0  0  0  0  0  0  0
   -5.6112   -0.6974    2.4961 S   0  0  0  0  0  0  0  0  0  0  0  0
   -2.1410   -0.4674    1.6054 C   0  0  0  0  0  0  0  0  0  0  0  0
   -2.8623    0.5379    0.7068 C   0  0  0  0  0  0  0  0  0  0  0  0
    0.6231    1.2810    1.0086 C   0  0  0  0  0  0  0  0  0  0  0  0
    0.9857    2.7647    1.0753 C   0  0  0  0  0  0  0  0  0  0  0  0
    6.7712    0.9007   -0.5551 C   0  0  0  0  0  0  0  0  0  0  0  0
    6.6602    0.8379   -1.9146 C   0  0  0  0  0  0  0  0  0  0  0  0
    7.6406    1.5546   -2.7683 C   0  0  0  0  0  0  0  0  0  0  0  0
    8.6981    2.0308   -2.4192 O   0  0  0  0  0  0  0  0  0  0  0  0
    7.0145    1.6161   -4.1055 C   0  0  0  0  0  0  0  0  0  0  0  0
    7.4426    2.2632   -5.2280 C   0  0  0  0  0  0  0  0  0  0  0  0
    6.6535    2.2080   -6.3995 C   0  0  0  0  0  0  0  0  0  0  0  0
    7.0503    2.8584   -7.5857 C   0  0  0  0  0  0  0  0  0  0  0  0
    6.2763    2.8060   -8.7116 C   0  0  0  0  0  0  0  0  0  0  0  0
    5.0720    2.0906   -8.6731 C   0  0  0  0  0  0  0  0  0  0  0  0
    4.3217    2.0518   -9.7902 F   0  0  0  0  0  0  0  0  0  0  0  0
    4.6411    1.4405   -7.5505 C   0  0  0  0  0  0  0  0  0  0  0  0
    5.4269    1.4824   -6.3825 C   0  0  0  0  0  0  0  0  0  0  0  0
    5.0132    0.8114   -5.2080 C   0  0  0  0  0  0  0  0  0  0  0  0
    5.7983    0.8736   -4.0898 C   0  0  0  0  0  0  0  0  0  0  0  0
    5.6541    0.2595   -2.7732 C   0  0  0  0  0  0  0  0  0  0  0  0
    4.9042   -0.8563   -2.4967 C   0  0  0  0  0  0  0  0  0  0  0  0
    5.0554   -1.6028   -1.3104 C   0  0  0  0  0  0  0  0  0  0  0  0
    5.1999   -2.2563   -0.3774 N   0  0  0  0  0  0  0  0  0  0  0  0
    3.9764   -1.4213   -3.3910 C   0  0  0  0  0  0  0  0  0  0  0  0
    3.1821   -1.8955   -4.0720 N   0  0  0  0  0  0  0  0  0  0  0  0
   -8.8764   -1.1952    4.2635 H   0  0  0  0  0  0  0  0  0  0  0  0
   -7.7548   -2.3839   -1.4415 H   0  0  0  0  0  0  0  0  0  0  0  0
   -8.4333   -0.7707   -1.7348 H   0  0  0  0  0  0  0  0  0  0  0  0
   -9.9864   -3.4082   -1.9365 H   0  0  0  0  0  0  0  0  0  0  0  0
   -9.4307   -2.4355   -3.3085 H   0  0  0  0  0  0  0  0  0  0  0  0
  -10.6685   -1.8050   -2.2085 H   0  0  0  0  0  0  0  0  0  0  0  0
   -8.0099   -1.4275    6.2006 H   0  0  0  0  0  0  0  0  0  0  0  0
   -6.5942   -0.8504    7.0878 H   0  0  0  0  0  0  0  0  0  0  0  0
   -8.5880    0.9543    5.6265 H   0  0  0  0  0  0  0  0  0  0  0  0
   -8.5069    0.7041    7.3735 H   0  0  0  0  0  0  0  0  0  0  0  0
   -7.1736    1.4982    6.5318 H   0  0  0  0  0  0  0  0  0  0  0  0
    8.0423    0.0034    1.7696 H   0  0  0  0  0  0  0  0  0  0  0  0
    7.2122   -0.2421    3.3130 H   0  0  0  0  0  0  0  0  0  0  0  0
    8.7414    1.7094    3.4383 H   0  0  0  0  0  0  0  0  0  0  0  0
    7.8823    2.4905    2.1080 H   0  0  0  0  0  0  0  0  0  0  0  0
    7.0634    2.2162    3.6485 H   0  0  0  0  0  0  0  0  0  0  0  0
   -1.1447   -0.7087    1.2324 H   0  0  0  0  0  0  0  0  0  0  0  0
   -2.7226   -1.3957    1.6186 H   0  0  0  0  0  0  0  0  0  0  0  0
   -2.4669    1.5443    0.8283 H   0  0  0  0  0  0  0  0  0  0  0  0
   -2.7565    0.2401   -0.3325 H   0  0  0  0  0  0  0  0  0  0  0  0
   -3.9214    0.5630    0.9463 H   0  0  0  0  0  0  0  0  0  0  0  0
   -0.4540    1.1902    0.9403 H   0  0  0  0  0  0  0  0  0  0  0  0
    1.0820    0.8244    0.1262 H   0  0  0  0  0  0  0  0  0  0  0  0
    0.5587    3.2166    1.9684 H   0  0  0  0  0  0  0  0  0  0  0  0
    0.5912    3.2757    0.2015 H   0  0  0  0  0  0  0  0  0  0  0  0
    2.0634    2.9026    1.0974 H   0  0  0  0  0  0  0  0  0  0  0  0
    7.7375    1.2352   -0.1914 H   0  0  0  0  0  0  0  0  0  0  0  0
    8.3726    2.8118   -5.2246 H   0  0  0  0  0  0  0  0  0  0  0  0
    7.9822    3.4035   -7.5911 H   0  0  0  0  0  0  0  0  0  0  0  0
    6.5656    3.2984   -9.6264 H   0  0  0  0  0  0  0  0  0  0  0  0
    3.7103    0.8951   -7.5581 H   0  0  0  0  0  0  0  0  0  0  0  0
    4.0792    0.2717   -5.2184 H   0  0  0  0  0  0  0  0  0  0  0  0
  1  2  2  0  0  0  0
  2  3  1  0  0  0  0
  3  4  3  0  0  0  0
  2  5  1  0  0  0  0
  5  6  2  0  0  0  0
  5  7  1  0  0  0  0
  7  8  1  0  0  0  0
  8  9  1  0  0  0  0
  1 10  1  0  0  0  0
 10 11  2  0  0  0  0
 11 12  1  0  0  0  0
 12 13  1  0  0  0  0
 11 14  1  0  0  0  0
 14 15  1  0  0  0  0
 15 16  1  0  0  0  0
 16 17  1  0  0  0  0
 17 18  1  0  0  0  0
 18 19  1  0  0  0  0
 19 20  2  0  0  0  0
 20 21  1  0  0  0  0
 21 22  1  0  0  0  0
 19 23  1  0  0  0  0
 23 24  1  0  0  0  0
 24 25  1  0  0  0  0
 25 26  1  0  0  0  0
 26 27  1  0  0  0  0
 27 28  1  0  0  0  0
 28 29  1  0  0  0  0
 27 30  2  0  0  0  0
 30 31  1  0  0  0  0
 31 32  1  0  0  0  0
 32 33  1  0  0  0  0
 33 34  1  0  0  0  0
 34 35  1  0  0  0  0
 35 36  1  0  0  0  0
 36 37  1  0  0  0  0
 37 38  1  0  0  0  0
 38 39  1  0  0  0  0
 39 40  1  0  0  0  0
 37 41  1  0  0  0  0
 41 42  1  0  0  0  0
 34 43  1  0  0  0  0
 43 44  1  0  0  0  0
 30 45  1  0  0  0  0
 45 46  2  0  0  0  0
 46 47  1  0  0  0  0
 47 48  2  0  0  0  0
 47 49  1  0  0  0  0
 49 50  2  0  0  0  0
 50 51  1  0  0  0  0
 51 52  2  0  0  0  0
 52 53  1  0  0  0  0
 53 54  2  0  0  0  0
 54 55  1  0  0  0  0
 54 56  1  0  0  0  0
 56 57  2  0  0  0  0
 57 58  1  0  0  0  0
 58 59  2  0  0  0  0
 59 60  1  0  0  0  0
 60 61  2  0  0  0  0
 61 62  1  0  0  0  0
 62 63  3  0  0  0  0
 61 64  1  0  0  0  0
 64 65  3  0  0  0  0
 40 10  1  0  0  0  0
 60 46  1  0  0  0  0
 39 14  2  0  0  0  0
 59 49  1  0  0  0  0
 38 16  2  0  0  0  0
 57 51  1  0  0  0  0
 36 17  2  0  0  0  0
 22 18  2  0  0  0  0
 35 23  2  0  0  0  0
 33 24  2  0  0  0  0
 32 26  2  0  0  0  0
  1 66  1  0  0  0  0
  8 67  1  0  0  0  0
  8 68  1  0  0  0  0
  9 69  1  0  0  0  0
  9 70  1  0  0  0  0
  9 71  1  0  0  0  0
 12 72  1  0  0  0  0
 12 73  1  0  0  0  0
 13 74  1  0  0  0  0
 13 75  1  0  0  0  0
 13 76  1  0  0  0  0
 28 77  1  0  0  0  0
 28 78  1  0  0  0  0
 29 79  1  0  0  0  0
 29 80  1  0  0  0  0
 29 81  1  0  0  0  0
 41 82  1  0  0  0  0
 41 83  1  0  0  0  0
 42 84  1  0  0  0  0
 42 85  1  0  0  0  0
 42 86  1  0  0  0  0
 43 87  1  0  0  0  0
 43 88  1  0  0  0  0
 44 89  1  0  0  0  0
 44 90  1  0  0  0  0
 44 91  1  0  0  0  0
 45 92  1  0  0  0  0
 50 93  1  0  0  0  0
 52 94  1  0  0  0  0
 53 95  1  0  0  0  0
 56 96  1  0  0  0  0
 58 97  1  0  0  0  0
M  END
