91

C         -6.66180       -4.93640       -0.40590
C         -6.63540       -5.51540        0.82820
C         -5.63980       -5.25700        1.78980
N         -4.83090       -5.06040        2.58090
C         -7.67680       -6.47770        1.25580
O         -7.76710       -6.93260        2.36860
O         -8.51990       -6.78440        0.25280
C         -9.54720       -7.72800        0.55620
C         -9.02780       -9.15760        0.50550
C         -5.74380       -4.01880       -0.95780
C         -5.81800       -3.46500       -2.23510
C         -6.86820       -3.76500       -3.25460
C         -6.52470       -5.04070       -4.02800
C         -4.73720       -2.61580       -2.48250
S         -4.27600       -1.65820       -3.87380
C         -2.88180       -1.11180       -3.00760
C         -1.75700       -0.29410       -3.20830
C         -1.23180        0.36770       -4.34310
C          0.06410        0.98990       -4.25670
N          0.45750        1.49320       -5.41510
S         -0.69670        1.22210       -6.51660
N         -1.74600        0.44570       -5.55960
C          0.71480        1.05990       -3.00240
C          1.88840        1.69100       -2.56110
S          3.23470        2.55650       -3.21600
C          3.87500        2.73300       -1.59200
C          5.02560        3.32890       -1.09930
C          6.04860        3.96590       -1.98130
C          7.16200        2.97290       -2.32720
C          5.11550        3.19010        0.30020
S          3.73100        2.32360        0.97440
C          3.06330        2.14770       -0.60240
C          1.93360        1.55310       -1.16490
N          0.84100        0.84570       -0.72640
C          0.10800        0.50300       -1.84340
C         -1.03420       -0.31310       -1.98580
N         -1.65520       -1.16470       -1.09340
C         -2.78280       -1.64030       -1.71300
C         -3.83990       -2.50320       -1.41120
S         -4.33160       -3.45800       -0.06480
C         -1.01780       -1.93240       -0.04070
C         -0.66060       -3.33850       -0.52090
C          0.33200        1.04400        0.61720
C          0.01990        2.51750        0.87560
C          6.19500        3.67430        1.04000
C          6.47500        3.60370        2.38630
C          5.63740        2.98370        3.41210
O          4.55380        2.44450        3.27160
C          6.36740        3.14510        4.68740
C          5.99580        2.72240        5.94670
C          6.85250        2.98710        7.00890
Cl         6.45250        2.48750        8.60530
C          8.04880        3.66580        6.76890
F          8.87020        3.91720        7.79540
C          8.42680        4.09390        5.50510
C          7.57130        3.82900        4.44770
C          7.66490        4.13340        3.01970
C          8.70700        4.80000        2.42570
C          8.82100        5.10130        1.05290
N          8.98910        5.39100       -0.04650
C          9.83350        5.28460        3.12340
N         10.77600        5.70200        3.62830
H         -7.48610       -5.21700       -1.04760
H         -9.94860       -7.50780        1.55080
H        -10.31490       -7.55860       -0.20210
H         -8.27760       -9.30650        1.27830
H         -9.84870       -9.84810        0.67520
H         -8.58300       -9.36430       -0.46540
H         -7.84310       -3.87440       -2.77720
H         -6.91940       -2.92660       -3.95200
H         -7.28560       -5.23760       -4.77870
H         -6.46800       -5.89410       -3.35610
H         -5.56550       -4.93040       -4.52800
H          5.55510        4.28110       -2.90280
H          6.48370        4.84690       -1.50770
H          7.88940        3.44920       -2.97790
H          7.67270        2.63750       -1.42770
H          6.74990        2.10550       -2.83750
H         -0.10030       -1.43200        0.26140
H         -1.70230       -1.99450        0.81070
H         -0.14230       -3.86840        0.27290
H         -0.00950       -3.28530       -1.39110
H         -1.55130       -3.90190       -0.78290
H          1.08370        0.69530        1.33190
H         -0.58660        0.47330        0.73900
H         -0.41510        2.62500        1.86500
H         -0.69020        2.88740        0.13860
H          0.92110        3.12190        0.82990
H          6.93490        4.17860        0.43400
H          5.06510        2.20000        6.09990
H          9.36460        4.61240        5.39180
