107

C          1.74600       -1.56750       -8.88260
C          0.69360       -0.87890       -9.42880
C          0.57710       -0.88520      -10.83510
N          0.51390       -0.90370      -11.98070
C         -0.33700       -0.13510       -8.70430
O         -0.37840        0.02130       -7.49950
O         -1.26040        0.35430       -9.53700
C         -2.32340        1.10900       -8.95950
C         -1.90850        2.55050       -8.70110
C          2.14810       -1.76950       -7.55210
C          3.26440       -2.53880       -7.19290
C          4.21570       -3.20150       -8.13640
C          5.27120       -2.20710       -8.62770
C          3.43360       -2.57650       -5.81250
S          4.61390       -3.36190       -4.77930
C          3.79820       -2.71440       -3.39830
C          3.92070       -2.70200       -1.99670
C          4.93280       -3.19590       -1.12950
C          4.85300       -2.87870        0.25600
N          5.82730       -3.23730        1.09880
C          6.83870       -3.90970        0.59350
C          6.90040       -4.25090       -0.76180
N          5.96440       -3.89490       -1.61480
C          3.69010       -2.21520        0.73290
C          3.27110       -1.86670        2.03020
S          3.87400       -1.87690        3.65150
C          2.36430       -1.16170        4.19130
C          1.91470       -0.72980        5.43240
C          2.71040       -0.89630        6.68560
C          2.27030       -2.15040        7.44590
C          0.62570       -0.17300        5.34550
S         -0.01340       -0.22180        3.70050
C          1.44430       -0.95270        3.15000
C          1.96940       -1.35770        1.92260
N          1.56660       -1.36190        0.60950
C          2.62490       -1.84500       -0.12990
C          2.82030       -1.94320       -1.51910
N          2.08980       -1.45460       -2.58190
C          2.68140       -1.93420       -3.72450
C          2.46610       -1.84960       -5.10250
S          1.31880       -1.10310       -6.14670
C          1.31800       -0.22830       -2.61770
C          2.14840        0.93090       -3.16740
C          0.15990       -1.45050        0.27010
C         -0.49740       -2.65200        0.94830
C         -0.03260        0.40050        6.43870
C         -1.25030        1.03000        6.52520
C         -2.21560        1.20520        5.43790
O         -2.12840        0.80050        4.28960
C         -3.33670        1.97800        5.99550
C         -4.47940        2.39950        5.31960
C         -5.34650        3.13190        6.09370
C         -5.09610        3.42070        7.44150
C         -3.97690        3.00180        8.12190
C         -3.07820        2.25670        7.35220
C         -1.79070        1.66150        7.71250
C         -1.21740        1.71670        8.95840
C          0.02120        1.15100        9.32440
N          1.01740        0.72380        9.70750
C         -1.79280        2.35700       10.07560
N         -2.19330        2.85730       11.02860
C         -6.37150        4.21260        7.59110
C         -6.23070        5.74970        7.58660
C         -7.62400        6.23950        7.26420
C         -7.86400        5.96310        5.98880
C         -6.63670        5.28200        5.42770
C         -5.54590        5.99650        6.23600
C         -6.65200        3.88740        6.08890
H          2.38710       -2.05330       -9.61090
H         -3.13150        1.05660       -9.69150
H         -2.63290        0.62980       -8.02430
H         -2.75860        3.11090       -8.32280
H         -1.10940        2.58220       -7.96400
H         -1.55960        3.01010       -9.62260
H          4.71300       -4.01390       -7.60290
H          3.68470       -3.62920       -8.98830
H          5.82590       -1.80300       -7.78430
H          4.80590       -1.38170       -9.16180
H          5.96980       -2.70410       -9.29560
H          7.62070       -4.19000        1.28560
H          7.72610       -4.81950       -1.16700
H          2.60810       -0.02610        7.33570
H          3.76230       -0.99610        6.41050
H          1.22360       -2.07930        7.73210
H          2.40240       -3.03430        6.82610
H          2.86620       -2.26250        8.34700
H          0.44040       -0.38710       -3.25180
H          1.00200        0.02600       -1.60820
H          1.56260        1.84470       -3.12790
H          3.04840        1.06530       -2.57070
H          2.43440        0.75060       -4.19940
H         -0.33900       -0.53000        0.58900
H          0.06280       -1.57080       -0.80750
H         -0.49220       -2.54130        2.02860
H          0.02830       -3.56750        0.68480
H         -1.52880       -2.73290        0.61720
H          0.54030        0.35180        7.35440
H         -4.63040        2.15350        4.28010
H         -3.80490        3.23000        9.16020
H         -7.07080        3.85160        8.34270
H         -5.75780        6.16580        8.47190
H         -8.29020        6.67200        7.98740
H         -8.77050        6.11840        5.43370
H         -6.53390        5.27240        4.34580
H         -5.48240        7.05630        5.99460
H         -4.55990        5.54390        6.14850
H         -7.53770        3.30640        5.83830
