107

C        -10.28970        2.93110        3.67040
C        -11.16510        3.29340        2.70770
C        -12.49390        3.62920        3.01410
N        -13.58690        3.89110        3.24820
C        -10.82470        3.40490        1.24510
O        -10.56360        4.43920        0.69510
O        -10.87150        2.20730        0.66890
C        -10.58400        2.14810       -0.73220
C        -11.81090        2.49120       -1.56260
C         -8.92370        2.57240        3.49780
S         -8.13510        2.50270        1.93480
C         -6.64310        2.02680        2.66870
C         -5.44310        1.74940        2.00210
S         -5.24230        1.81980        0.26550
C         -3.60200        1.33420        0.45330
C         -2.48070        1.07910       -0.35020
C         -2.28690        1.23600       -1.73940
C         -0.98960        0.97090       -2.28790
N         -0.93150        1.20820       -3.58870
S         -2.38660        1.71930       -4.08150
N         -3.14780        1.65480       -2.65370
C          0.00540        0.43720       -1.44050
C          1.25820       -0.11230       -1.74050
S          2.27360       -0.32830       -3.11060
C          3.39010       -1.23950       -2.11630
C          4.56950       -1.81380       -2.60210
C          5.42410       -2.56910       -1.76830
C          5.03040       -2.72050       -0.41490
N          5.60240       -3.37490        0.59530
N          4.79590       -3.18460        1.60570
C          5.03550       -3.77500        2.89060
C          4.32040       -5.11790        3.00630
N          3.72820       -2.46400        1.36670
C          3.82810       -2.13080        0.07570
C          2.98200       -1.36440       -0.77010
C          1.75760       -0.69070       -0.56830
N          0.86510       -0.47770        0.45000
C         -0.21270        0.22580       -0.04900
C         -1.43510        0.67610        0.52510
N         -1.90490        0.74400        1.83240
C         -3.22280        1.13460        1.78020
C         -4.27600        1.36760        2.69470
C         -4.38280        1.26460        4.10450
C         -5.60950        1.54130        4.77890
C         -6.76710        1.93160        4.06480
C         -8.05890        2.24160        4.51530
N         -5.40340        1.35760        6.08420
N         -4.15030        1.00070        6.17010
C         -3.54150        0.66580        7.42480
C         -3.63870       -0.83440        7.68680
N         -3.48990        0.92220        5.04060
C         -1.14640        1.07390        3.02240
C         -0.62980        2.51050        2.94730
C          1.04990       -1.07600        1.74890
C          1.99140       -0.24480        2.62220
C          6.52760       -3.06210       -2.45240
C          6.55170       -2.70590       -3.79850
S          5.15950       -1.72200       -4.22320
C          7.58200       -3.12890       -4.65180
C          7.79210       -2.89110       -5.98710
C          6.94430       -2.06550       -6.85530
O          5.91980       -1.48030       -6.56380
C          7.59140       -2.07910       -8.18490
C          7.18530       -1.44230       -9.33930
C          7.95970       -1.59740      -10.48300
Cl         7.51430       -0.83070      -11.95640
C          9.11100       -2.38610      -10.42680
F          9.85260       -2.53210      -11.53150
C          9.52340       -3.02850       -9.26940
C          8.75070       -2.87120       -8.12930
C          8.89980       -3.39830       -6.77320
C          9.91040       -4.22810       -6.36000
C         10.06750       -4.76220       -5.06380
N         10.27350       -5.24450       -4.04160
C         10.95430       -4.67810       -7.19620
N         11.83110       -5.08030       -7.81830
H        -10.63870        2.91300        4.69660
H         -9.76530        2.84100       -0.95180
H        -10.25900        1.12080       -0.90660
H        -12.10810        3.52140       -1.38170
H        -12.63780        1.83470       -1.30210
H        -11.57990        2.37190       -2.61710
H          6.11420       -3.90620        2.99050
H          4.66900       -3.08030        3.64940
H          4.67810       -5.79990        2.23890
H          4.51300       -5.55610        3.98120
H          3.24790       -4.98470        2.88650
H         -8.33950        2.22320        5.55270
H         -2.49610        0.97870        7.38130
H         -4.06860        1.22460        8.19990
H         -4.68080       -1.14260        7.71870
H         -3.17360       -1.07340        8.63870
H         -3.13240       -1.38700        6.89900
H         -1.82500        0.96690        3.87140
H         -0.31740        0.39110        3.16140
H          0.01080        2.64460        2.07710
H         -1.46070        3.20810        2.86960
H         -0.06140        2.74750        3.84270
H          0.07110       -1.22650        2.20650
H          1.50810       -2.05680        1.59990
H          1.97270       -0.61030        3.64540
H          3.00460       -0.34180        2.24400
H          1.72330        0.80830        2.61300
H          7.29040       -3.66450       -1.99240
H          8.31780       -3.74280       -4.14630
H          6.29040       -0.84070       -9.34920
H         10.42290       -3.62130       -9.29720
