
  xtb     02102218403D
 energy: -208.316975053791 gnorm: 0.000345291801 xtb: 6.4.1 (unknown)
117130  0     0  0            999 V2000
    1.5177   -7.3162    2.3496 C   0  0  0  0  0  0  0  0  0  0  0  0
    1.3905   -8.6704    2.1789 C   0  0  0  0  0  0  0  0  0  0  0  0
    1.3241   -9.3614    0.8729 C   0  0  0  0  0  0  0  0  0  0  0  0
    1.4032   -8.8621   -0.2301 O   0  0  0  0  0  0  0  0  0  0  0  0
    1.3084  -10.8028    1.1899 C   0  0  0  0  0  0  0  0  0  0  0  0
    1.2182  -11.8749    0.3253 C   0  0  0  0  0  0  0  0  0  0  0  0
    1.2348  -13.1543    0.8637 C   0  0  0  0  0  0  0  0  0  0  0  0
    1.3544  -13.3401    2.2333 C   0  0  0  0  0  0  0  0  0  0  0  0
    1.4497  -12.2638    3.1060 C   0  0  0  0  0  0  0  0  0  0  0  0
    1.4211  -10.9823    2.5794 C   0  0  0  0  0  0  0  0  0  0  0  0
    1.4651   -9.6695    3.2200 C   0  0  0  0  0  0  0  0  0  0  0  0
    1.4461   -9.4361    4.5719 C   0  0  0  0  0  0  0  0  0  0  0  0
    1.4893  -10.4474    5.5528 C   0  0  0  0  0  0  0  0  0  0  0  0
    1.5309  -11.2209    6.4004 N   0  0  0  0  0  0  0  0  0  0  0  0
    1.3435   -8.1606    5.1637 C   0  0  0  0  0  0  0  0  0  0  0  0
    1.2284   -7.1565    5.7100 N   0  0  0  0  0  0  0  0  0  0  0  0
    1.1153   -6.3062    1.4543 C   0  0  0  0  0  0  0  0  0  0  0  0
    0.0917   -6.2913    0.5074 C   0  0  0  0  0  0  0  0  0  0  0  0
   -0.8212   -7.3977    0.2058 C   0  0  0  0  0  0  0  0  0  0  0  0
   -0.8600   -7.8557   -1.1091 C   0  0  0  0  0  0  0  0  0  0  0  0
   -1.6446   -8.9391   -1.4547 C   0  0  0  0  0  0  0  0  0  0  0  0
   -2.4046   -9.5692   -0.4861 C   0  0  0  0  0  0  0  0  0  0  0  0
   -2.4075   -9.0826    0.8093 C   0  0  0  0  0  0  0  0  0  0  0  0
   -1.6296   -7.9936    1.1795 C   0  0  0  0  0  0  0  0  0  0  0  0
   -1.7788   -7.4207    2.5626 C   0  0  0  0  0  0  0  0  0  0  0  0
   -2.6591   -6.1695    2.5216 C   0  0  0  0  0  0  0  0  0  0  0  0
   -0.0152   -5.0364   -0.1035 C   0  0  0  0  0  0  0  0  0  0  0  0
   -1.1188   -4.4158   -1.3095 S   0  0  0  0  0  0  0  0  0  0  0  0
   -0.3798   -2.8606   -1.1421 C   0  0  0  0  0  0  0  0  0  0  0  0
   -0.5754   -1.5453   -1.5864 C   0  0  0  0  0  0  0  0  0  0  0  0
   -1.6032   -0.9668   -2.3654 C   0  0  0  0  0  0  0  0  0  0  0  0
   -1.7055    0.4640   -2.4287 C   0  0  0  0  0  0  0  0  0  0  0  0
   -2.7638    0.8639   -3.1156 N   0  0  0  0  0  0  0  0  0  0  0  0
   -3.5573   -0.4426   -3.6456 S   0  0  0  0  0  0  0  0  0  0  0  0
   -2.5858   -1.5721   -3.0133 N   0  0  0  0  0  0  0  0  0  0  0  0
   -0.7014    1.2497   -1.8200 C   0  0  0  0  0  0  0  0  0  0  0  0
   -0.5205    2.6394   -1.7313 C   0  0  0  0  0  0  0  0  0  0  0  0
   -1.3598    4.0969   -2.1334 S   0  0  0  0  0  0  0  0  0  0  0  0
   -0.0579    5.0141   -1.4108 C   0  0  0  0  0  0  0  0  0  0  0  0
    0.1325    6.3898   -1.2246 C   0  0  0  0  0  0  0  0  0  0  0  0
   -0.8239    7.3765   -1.7349 C   0  0  0  0  0  0  0  0  0  0  0  0
   -0.4792    8.4068   -2.6159 C   0  0  0  0  0  0  0  0  0  0  0  0
    0.9010    8.5541   -3.2034 C   0  0  0  0  0  0  0  0  0  0  0  0
    1.4539    9.9748   -3.0817 C   0  0  0  0  0  0  0  0  0  0  0  0
   -1.4798    9.2829   -3.0218 C   0  0  0  0  0  0  0  0  0  0  0  0
   -2.7805    9.1634   -2.5692 C   0  0  0  0  0  0  0  0  0  0  0  0
   -3.1202    8.1247   -1.7202 C   0  0  0  0  0  0  0  0  0  0  0  0
   -2.1492    7.2307   -1.3190 C   0  0  0  0  0  0  0  0  0  0  0  0
    1.3261    6.6422   -0.5468 C   0  0  0  0  0  0  0  0  0  0  0  0
    2.2452    5.1619   -0.2428 S   0  0  0  0  0  0  0  0  0  0  0  0
    0.9824    4.2098   -0.9223 C   0  0  0  0  0  0  0  0  0  0  0  0
    0.7098    2.8518   -1.0966 C   0  0  0  0  0  0  0  0  0  0  0  0
    1.2945    1.6503   -0.7820 N   0  0  0  0  0  0  0  0  0  0  0  0
    0.4203    0.6524   -1.1796 C   0  0  0  0  0  0  0  0  0  0  0  0
    0.4104   -0.7442   -0.9423 C   0  0  0  0  0  0  0  0  0  0  0  0
    1.1558   -1.5511   -0.1056 N   0  0  0  0  0  0  0  0  0  0  0  0
    0.6756   -2.8286   -0.2203 C   0  0  0  0  0  0  0  0  0  0  0  0
    0.8791   -4.0719    0.3849 C   0  0  0  0  0  0  0  0  0  0  0  0
    1.8852   -4.7273    1.6209 S   0  0  0  0  0  0  0  0  0  0  0  0
    2.0348   -1.2021    0.9888 C   0  0  0  0  0  0  0  0  0  0  0  0
    3.4715   -1.6602    0.7391 C   0  0  0  0  0  0  0  0  0  0  0  0
    2.7364    1.5750   -0.6702 C   0  0  0  0  0  0  0  0  0  0  0  0
    3.4161    2.0332   -1.9605 C   0  0  0  0  0  0  0  0  0  0  0  0
    1.9150    7.8403   -0.1001 C   0  0  0  0  0  0  0  0  0  0  0  0
    1.2717    8.9872    0.2848 C   0  0  0  0  0  0  0  0  0  0  0  0
   -0.1400    9.0510    0.7217 C   0  0  0  0  0  0  0  0  0  0  0  0
   -0.9206    8.1306    0.8170 O   0  0  0  0  0  0  0  0  0  0  0  0
   -0.3418   10.4419    1.1829 C   0  0  0  0  0  0  0  0  0  0  0  0
   -1.4754   11.0686    1.6649 C   0  0  0  0  0  0  0  0  0  0  0  0
   -2.6452   10.4238    1.7289 F   0  0  0  0  0  0  0  0  0  0  0  0
   -1.4135   12.3933    2.0800 C   0  0  0  0  0  0  0  0  0  0  0  0
   -0.2098   13.0736    2.0173 C   0  0  0  0  0  0  0  0  0  0  0  0
    0.9427   12.4660    1.5342 C   0  0  0  0  0  0  0  0  0  0  0  0
    0.8728   11.1485    1.1124 C   0  0  0  0  0  0  0  0  0  0  0  0
    1.8918   10.2658    0.5426 C   0  0  0  0  0  0  0  0  0  0  0  0
    3.1754   10.6301    0.2223 C   0  0  0  0  0  0  0  0  0  0  0  0
    4.1002    9.8041   -0.4501 C   0  0  0  0  0  0  0  0  0  0  0  0
    4.8947    9.2025   -1.0211 N   0  0  0  0  0  0  0  0  0  0  0  0
    3.7343   11.8965    0.4887 C   0  0  0  0  0  0  0  0  0  0  0  0
    4.2527   12.9020    0.6852 N   0  0  0  0  0  0  0  0  0  0  0  0
    1.9707   -6.9567    3.2672 H   0  0  0  0  0  0  0  0  0  0  0  0
    1.1298  -11.7057   -0.7367 H   0  0  0  0  0  0  0  0  0  0  0  0
    1.1566  -14.0124    0.2132 H   0  0  0  0  0  0  0  0  0  0  0  0
    1.3743  -14.3425    2.6341 H   0  0  0  0  0  0  0  0  0  0  0  0
    1.5475  -12.4371    4.1654 H   0  0  0  0  0  0  0  0  0  0  0  0
   -0.2431   -7.3734   -1.8510 H   0  0  0  0  0  0  0  0  0  0  0  0
   -1.6562   -9.2914   -2.4747 H   0  0  0  0  0  0  0  0  0  0  0  0
   -3.0085  -10.4282   -0.7390 H   0  0  0  0  0  0  0  0  0  0  0  0
   -3.0330   -9.5545    1.5541 H   0  0  0  0  0  0  0  0  0  0  0  0
   -0.8140   -7.1600    2.9983 H   0  0  0  0  0  0  0  0  0  0  0  0
   -2.2445   -8.1649    3.2119 H   0  0  0  0  0  0  0  0  0  0  0  0
   -2.7883   -5.7681    3.5238 H   0  0  0  0  0  0  0  0  0  0  0  0
   -3.6378   -6.4074    2.1110 H   0  0  0  0  0  0  0  0  0  0  0  0
   -2.2048   -5.4032    1.8972 H   0  0  0  0  0  0  0  0  0  0  0  0
    0.8527    8.2856   -4.2635 H   0  0  0  0  0  0  0  0  0  0  0  0
    1.5920    7.8602   -2.7260 H   0  0  0  0  0  0  0  0  0  0  0  0
    2.5192    9.9813   -3.3007 H   0  0  0  0  0  0  0  0  0  0  0  0
    0.9618   10.6525   -3.7740 H   0  0  0  0  0  0  0  0  0  0  0  0
    1.3058   10.3571   -2.0744 H   0  0  0  0  0  0  0  0  0  0  0  0
   -1.2338   10.0725   -3.7160 H   0  0  0  0  0  0  0  0  0  0  0  0
   -3.5292    9.8720   -2.8910 H   0  0  0  0  0  0  0  0  0  0  0  0
   -4.1347    8.0105   -1.3715 H   0  0  0  0  0  0  0  0  0  0  0  0
   -2.4008    6.4280   -0.6445 H   0  0  0  0  0  0  0  0  0  0  0  0
    1.6622   -1.7075    1.8870 H   0  0  0  0  0  0  0  0  0  0  0  0
    1.9744   -0.1282    1.1658 H   0  0  0  0  0  0  0  0  0  0  0  0
    3.5212   -2.7454    0.7269 H   0  0  0  0  0  0  0  0  0  0  0  0
    4.1151   -1.2966    1.5349 H   0  0  0  0  0  0  0  0  0  0  0  0
    3.8518   -1.2980   -0.2137 H   0  0  0  0  0  0  0  0  0  0  0  0
    3.0274    0.5491   -0.4756 H   0  0  0  0  0  0  0  0  0  0  0  0
    3.0533    2.2110    0.1624 H   0  0  0  0  0  0  0  0  0  0  0  0
    4.4921    1.9183   -1.8637 H   0  0  0  0  0  0  0  0  0  0  0  0
    3.2003    3.0772   -2.1687 H   0  0  0  0  0  0  0  0  0  0  0  0
    3.0737    1.4320   -2.8003 H   0  0  0  0  0  0  0  0  0  0  0  0
    2.9956    7.8106   -0.0143 H   0  0  0  0  0  0  0  0  0  0  0  0
   -2.3074   12.8712    2.4486 H   0  0  0  0  0  0  0  0  0  0  0  0
   -0.1652   14.0993    2.3495 H   0  0  0  0  0  0  0  0  0  0  0  0
    1.8659   13.0199    1.4990 H   0  0  0  0  0  0  0  0  0  0  0  0
  1  2  2  0  0  0  0
  2  3  1  0  0  0  0
  3  4  2  0  0  0  0
  3  5  1  0  0  0  0
  5  6  2  0  0  0  0
  6  7  1  0  0  0  0
  7  8  2  0  0  0  0
  8  9  1  0  0  0  0
  9 10  2  0  0  0  0
 10 11  1  0  0  0  0
 11 12  2  0  0  0  0
 12 13  1  0  0  0  0
 13 14  3  0  0  0  0
 12 15  1  0  0  0  0
 15 16  3  0  0  0  0
  1 17  1  0  0  0  0
 17 18  2  0  0  0  0
 18 19  1  0  0  0  0
 19 20  2  0  0  0  0
 20 21  1  0  0  0  0
 21 22  2  0  0  0  0
 22 23  1  0  0  0  0
 23 24  2  0  0  0  0
 24 25  1  0  0  0  0
 25 26  1  0  0  0  0
 18 27  1  0  0  0  0
 27 28  1  0  0  0  0
 28 29  1  0  0  0  0
 29 30  1  0  0  0  0
 30 31  1  0  0  0  0
 31 32  1  0  0  0  0
 32 33  2  0  0  0  0
 33 34  1  0  0  0  0
 34 35  1  0  0  0  0
 32 36  1  0  0  0  0
 36 37  1  0  0  0  0
 37 38  1  0  0  0  0
 38 39  1  0  0  0  0
 39 40  1  0  0  0  0
 40 41  1  0  0  0  0
 41 42  2  0  0  0  0
 42 43  1  0  0  0  0
 43 44  1  0  0  0  0
 42 45  1  0  0  0  0
 45 46  2  0  0  0  0
 46 47  1  0  0  0  0
 47 48  2  0  0  0  0
 40 49  2  0  0  0  0
 49 50  1  0  0  0  0
 50 51  1  0  0  0  0
 51 52  1  0  0  0  0
 52 53  1  0  0  0  0
 53 54  1  0  0  0  0
 54 55  1  0  0  0  0
 55 56  1  0  0  0  0
 56 57  1  0  0  0  0
 57 58  1  0  0  0  0
 58 59  1  0  0  0  0
 56 60  1  0  0  0  0
 60 61  1  0  0  0  0
 53 62  1  0  0  0  0
 62 63  1  0  0  0  0
 49 64  1  0  0  0  0
 64 65  2  0  0  0  0
 65 66  1  0  0  0  0
 66 67  2  0  0  0  0
 66 68  1  0  0  0  0
 68 69  2  0  0  0  0
 69 70  1  0  0  0  0
 69 71  1  0  0  0  0
 71 72  2  0  0  0  0
 72 73  1  0  0  0  0
 73 74  2  0  0  0  0
 74 75  1  0  0  0  0
 75 76  2  0  0  0  0
 76 77  1  0  0  0  0
 77 78  3  0  0  0  0
 76 79  1  0  0  0  0
 79 80  3  0  0  0  0
 11  2  1  0  0  0  0
 59 17  1  0  0  0  0
 75 65  1  0  0  0  0
 10  5  1  0  0  0  0
 24 19  1  0  0  0  0
 58 27  2  0  0  0  0
 74 68  1  0  0  0  0
 57 29  2  0  0  0  0
 55 30  2  0  0  0  0
 35 31  2  0  0  0  0
 54 36  2  0  0  0  0
 52 37  2  0  0  0  0
 51 39  2  0  0  0  0
 48 41  1  0  0  0  0
  1 81  1  0  0  0  0
  6 82  1  0  0  0  0
  7 83  1  0  0  0  0
  8 84  1  0  0  0  0
  9 85  1  0  0  0  0
 20 86  1  0  0  0  0
 21 87  1  0  0  0  0
 22 88  1  0  0  0  0
 23 89  1  0  0  0  0
 25 90  1  0  0  0  0
 25 91  1  0  0  0  0
 26 92  1  0  0  0  0
 26 93  1  0  0  0  0
 26 94  1  0  0  0  0
 43 95  1  0  0  0  0
 43 96  1  0  0  0  0
 44 97  1  0  0  0  0
 44 98  1  0  0  0  0
 44 99  1  0  0  0  0
 45100  1  0  0  0  0
 46101  1  0  0  0  0
 47102  1  0  0  0  0
 48103  1  0  0  0  0
 60104  1  0  0  0  0
 60105  1  0  0  0  0
 61106  1  0  0  0  0
 61107  1  0  0  0  0
 61108  1  0  0  0  0
 62109  1  0  0  0  0
 62110  1  0  0  0  0
 63111  1  0  0  0  0
 63112  1  0  0  0  0
 63113  1  0  0  0  0
 64114  1  0  0  0  0
 71115  1  0  0  0  0
 72116  1  0  0  0  0
 73117  1  0  0  0  0
M  END
