144

C         -6.21280       -5.51550       -3.62320
C         -6.90230       -6.47220       -2.94270
C         -7.83130       -7.38160       -3.66620
O         -8.23800       -7.25180       -4.79830
C         -8.09450       -8.48880       -2.72330
C         -8.79800       -9.65940       -2.92960
C         -8.88930      -10.56410       -1.88070
C         -8.28200      -10.29620       -0.66210
C         -7.57960       -9.11780       -0.44620
C         -7.49000       -8.20540       -1.48420
C         -6.87530       -6.88120       -1.55490
C         -6.61390       -6.07610       -0.47710
C         -6.71260       -6.49960        0.86340
N         -6.76250       -6.79430        1.97180
C         -6.31280       -4.70280       -0.58190
N         -6.11900       -3.57140       -0.61560
C         -5.03530       -4.83790       -3.23470
S         -3.88240       -5.53970       -2.10660
C         -2.91430       -4.13460       -2.21560
C         -1.74770       -3.62280       -1.59900
C         -1.53050       -2.33510       -2.05950
C         -2.56140       -1.94860       -3.09920
C         -3.44120       -3.17880       -3.08450
C         -4.61620       -3.59440       -3.68930
C         -3.28420       -0.69800       -2.62470
C         -2.97870        0.55180       -3.14750
C         -3.58290        1.68820       -2.64240
C         -4.50360        1.60720       -1.60640
C         -5.10420        2.85130       -1.01940
C         -4.20190        3.40250        0.08690
C         -4.81110        0.35330       -1.09460
C         -4.20910       -0.78700       -1.59240
C         -1.98850       -1.80470       -4.49760
C         -2.83330       -1.42670       -5.53570
C         -2.35760       -1.32720       -6.82790
C         -1.02850       -1.60760       -7.12210
C         -0.50470       -1.45920       -8.52120
C         -0.02550       -0.02650       -8.76390
C         -0.18980       -1.98200       -6.08240
C         -0.66130       -2.08470       -4.78520
C         -0.48840       -1.63530       -1.41050
C         -0.11720       -0.29860       -1.56750
C          0.85050        0.22340       -0.74210
Se         1.36130        2.04890       -0.68490
C          2.46590        1.53690        0.73200
C          3.32660        2.17100        1.65890
C          3.89750        1.21160        2.49630
C          3.37090       -0.16210        2.14910
C          2.69080       -0.70910        3.39010
C          1.31620       -0.64520        3.55960
C          0.73420       -1.10940        4.72530
C          1.50600       -1.63840        5.74970
C          0.87490       -2.09260        7.03330
C          0.82600       -0.93700        8.03500
C          2.88440       -1.68450        5.58070
C          3.47140       -1.22260        4.41930
C          4.44350       -1.08550        1.59250
C          5.48390       -0.55870        0.83750
C          6.44190       -1.38700        0.28480
C          6.38180       -2.76340        0.45920
C          7.45070       -3.65700       -0.09950
C          8.58800       -3.82220        0.91080
C          5.33420       -3.28610        1.20530
C          4.37450       -2.46140        1.76240
C          2.42860        0.18140        1.01540
C          1.52830       -0.57130        0.22880
C          1.18300       -1.91800        0.36030
C          0.17820       -2.42670       -0.42850
Se        -0.53940       -4.17700       -0.28610
C          4.73000        1.76210        3.45610
C          4.75090        3.15040        3.40600
S          3.77970        3.76690        2.07340
C          5.46220        4.00890        4.27200
C          5.18690        5.30700        4.58420
C          6.24580        6.18800        5.14280
O          7.32800        5.84650        5.55940
C          5.70310        7.56150        5.02620
C          6.31110        8.76590        5.30750
C          5.58280        9.93950        5.10230
C          6.23560       11.23450        5.43060
O          7.36470       11.33870        5.83930
O          5.42540       12.28240        5.22850
C          5.97300       13.55610        5.53520
C          4.28010        9.88430        4.60810
C          3.66710        8.67230        4.33060
C          4.37820        7.50320        4.55120
C          3.98890        6.10030        4.42140
C          2.69850        5.63790        4.45940
C          1.56260        6.46950        4.40190
N          0.60560        7.10050        4.34120
C          2.36340        4.28290        4.66550
N          2.04990        3.20110        4.88840
H         -6.58580       -5.28810       -4.61760
H         -9.26160       -9.85160       -3.88490
H         -9.43590      -11.48560       -2.01320
H         -8.35630      -11.01680        0.13860
H         -7.10930       -8.93300        0.50630
H         -5.19990       -3.01760       -4.38290
H         -2.27140        0.64270       -3.96020
H         -3.33170        2.65290       -3.06040
H         -5.22350        3.60880       -1.79690
H         -6.08860        2.62820       -0.60400
H         -4.63090        4.30580        0.51390
H         -4.08220        2.66660        0.87870
H         -3.21690        3.63980       -0.30960
H         -5.53020        0.26320       -0.29380
H         -4.46900       -1.74880       -1.17630
H         -3.86660       -1.19530       -5.32400
H         -3.02850       -1.03140       -7.62190
H          0.32670       -2.14870       -8.68020
H         -1.29180       -1.70130       -9.23810
H         -0.84400        0.67560       -8.62180
H          0.76970        0.22950       -8.06730
H          0.35250        0.08130       -9.77780
H          0.84830       -2.20230       -6.28710
H          0.01450       -2.38360       -3.99760
H         -0.62110        0.31890       -2.29450
H          0.69030       -0.23050        2.78380
H         -0.33890       -1.05580        4.83850
H         -0.13990       -2.44710        6.84230
H          1.45090       -2.91630        7.46040
H          1.83100       -0.58340        8.25420
H          0.35890       -1.25720        8.96350
H          0.25600       -0.10660        7.62510
H          3.50560       -2.08590        6.36880
H          4.54480       -1.27070        4.30380
H          5.54800        0.50860        0.68130
H          7.24670       -0.95700       -0.29430
H          7.03030       -4.63740       -0.33170
H          7.84820       -3.22760       -1.02130
H          9.02610       -2.85550        1.14860
H          8.21450       -4.26410        1.83180
H          9.36550       -4.46610        0.50670
H          5.26490       -4.35460        1.35180
H          3.57740       -2.89570        2.34800
H          1.67200       -2.52990        1.10200
H          5.26400        1.20950        4.20720
H          6.37330        3.60550        4.70390
H          7.32160        8.81340        5.68390
H          5.18540       14.27970        5.34200
H          6.28200       13.59340        6.58180
H          6.84270       13.75670        4.90610
H          3.74320       10.80530        4.44480
H          2.66060        8.65200        3.94450
