
  xtb     02022204313D
 energy: -222.137893722513 gnorm: 0.000574186674 xtb: 6.4.1 (unknown)
130146  0     0  0            999 V2000
    6.8365    1.6853    5.8211 C   0  0  0  0  0  0  0  0  0  0  0  0
    7.1962    0.4266    6.2373 C   0  0  0  0  0  0  0  0  0  0  0  0
    6.6447   -0.8348    5.7371 C   0  0  0  0  0  0  0  0  0  0  0  0
    5.7176   -0.9869    4.9585 O   0  0  0  0  0  0  0  0  0  0  0  0
    7.4449   -1.9054    6.3590 C   0  0  0  0  0  0  0  0  0  0  0  0
    7.3481   -3.2716    6.1858 C   0  0  0  0  0  0  0  0  0  0  0  0
    8.2333   -4.0839    6.8810 C   0  0  0  0  0  0  0  0  0  0  0  0
    9.1849   -3.5272    7.7225 C   0  0  0  0  0  0  0  0  0  0  0  0
    9.2825   -2.1527    7.9013 C   0  0  0  0  0  0  0  0  0  0  0  0
    8.4028   -1.3322    7.2140 C   0  0  0  0  0  0  0  0  0  0  0  0
    8.2405    0.1224    7.1932 C   0  0  0  0  0  0  0  0  0  0  0  0
    8.9246    1.0064    7.9872 C   0  0  0  0  0  0  0  0  0  0  0  0
    8.7019    2.3976    8.0554 C   0  0  0  0  0  0  0  0  0  0  0  0
    8.5707    3.5300    8.1992 N   0  0  0  0  0  0  0  0  0  0  0  0
    9.9360    0.6319    8.8966 C   0  0  0  0  0  0  0  0  0  0  0  0
   10.7735    0.4021    9.6477 N   0  0  0  0  0  0  0  0  0  0  0  0
    5.8575    2.0949    4.9108 C   0  0  0  0  0  0  0  0  0  0  0  0
    5.6667    3.4502    4.5881 C   0  0  0  0  0  0  0  0  0  0  0  0
    6.4568    4.5569    5.1485 C   0  0  0  0  0  0  0  0  0  0  0  0
    7.3646    5.1971    4.3101 C   0  0  0  0  0  0  0  0  0  0  0  0
    8.1406    6.2378    4.7813 C   0  0  0  0  0  0  0  0  0  0  0  0
    8.0070    6.6508    6.0959 C   0  0  0  0  0  0  0  0  0  0  0  0
    7.0909    6.0301    6.9239 C   0  0  0  0  0  0  0  0  0  0  0  0
    6.3047    4.9793    6.4709 C   0  0  0  0  0  0  0  0  0  0  0  0
    5.2557    4.3910    7.3710 C   0  0  0  0  0  0  0  0  0  0  0  0
    3.9219    5.1113    7.1608 C   0  0  0  0  0  0  0  0  0  0  0  0
    4.6730    3.6166    3.6338 C   0  0  0  0  0  0  0  0  0  0  0  0
    4.0116    5.0403    2.8539 S   0  0  0  0  0  0  0  0  0  0  0  0
    2.9350    4.0094    1.9750 C   0  0  0  0  0  0  0  0  0  0  0  0
    1.9053    4.1130    1.0326 C   0  0  0  0  0  0  0  0  0  0  0  0
    1.2952    5.2528    0.4641 C   0  0  0  0  0  0  0  0  0  0  0  0
    0.1802    5.0721   -0.4158 C   0  0  0  0  0  0  0  0  0  0  0  0
   -0.3223    6.2208   -0.8398 N   0  0  0  0  0  0  0  0  0  0  0  0
    0.5392    7.4274   -0.1892 S   0  0  0  0  0  0  0  0  0  0  0  0
    1.5855    6.5292    0.6596 N   0  0  0  0  0  0  0  0  0  0  0  0
   -0.2111    3.7586   -0.7568 C   0  0  0  0  0  0  0  0  0  0  0  0
   -1.1782    3.3053   -1.6620 C   0  0  0  0  0  0  0  0  0  0  0  0
   -2.3793    3.9528   -2.7269 S   0  0  0  0  0  0  0  0  0  0  0  0
   -2.7483    2.3178   -3.2402 C   0  0  0  0  0  0  0  0  0  0  0  0
   -3.6448    1.8078   -4.1704 C   0  0  0  0  0  0  0  0  0  0  0  0
   -4.5765    2.6362   -4.9519 C   0  0  0  0  0  0  0  0  0  0  0  0
   -4.3974    2.8548   -6.3196 C   0  0  0  0  0  0  0  0  0  0  0  0
   -3.1937    2.3316   -7.0499 C   0  0  0  0  0  0  0  0  0  0  0  0
   -2.0213    3.3023   -6.8923 C   0  0  0  0  0  0  0  0  0  0  0  0
   -5.3201    3.6474   -6.9890 C   0  0  0  0  0  0  0  0  0  0  0  0
   -6.3951    4.2117   -6.3285 C   0  0  0  0  0  0  0  0  0  0  0  0
   -6.5575    4.0036   -4.9695 C   0  0  0  0  0  0  0  0  0  0  0  0
   -5.6484    3.2209   -4.2848 C   0  0  0  0  0  0  0  0  0  0  0  0
   -3.5791    0.4069   -4.2425 C   0  0  0  0  0  0  0  0  0  0  0  0
   -2.3707   -0.2580   -3.1467 S   0  0  0  0  0  0  0  0  0  0  0  0
   -1.9687    1.3324   -2.6096 C   0  0  0  0  0  0  0  0  0  0  0  0
   -1.0752    1.9099   -1.7018 C   0  0  0  0  0  0  0  0  0  0  0  0
   -0.1017    1.4873   -0.8373 N   0  0  0  0  0  0  0  0  0  0  0  0
    0.4484    2.6053   -0.2339 C   0  0  0  0  0  0  0  0  0  0  0  0
    1.4618    2.7862    0.7468 C   0  0  0  0  0  0  0  0  0  0  0  0
    2.1959    1.9114    1.5295 N   0  0  0  0  0  0  0  0  0  0  0  0
    3.0798    2.6486    2.2713 C   0  0  0  0  0  0  0  0  0  0  0  0
    4.0710    2.4116    3.2280 C   0  0  0  0  0  0  0  0  0  0  0  0
    4.7590    1.0417    4.0210 S   0  0  0  0  0  0  0  0  0  0  0  0
    1.9427    0.5371    1.9022 C   0  0  0  0  0  0  0  0  0  0  0  0
    0.5918    0.3879    2.5977 C   0  0  0  0  0  0  0  0  0  0  0  0
    0.3953    0.1339   -0.9458 C   0  0  0  0  0  0  0  0  0  0  0  0
    1.7686    0.0976   -1.6121 C   0  0  0  0  0  0  0  0  0  0  0  0
   -4.4067   -0.3289   -5.0998 C   0  0  0  0  0  0  0  0  0  0  0  0
   -4.5164   -1.6835   -5.2821 C   0  0  0  0  0  0  0  0  0  0  0  0
   -3.8211   -2.7178   -4.5115 C   0  0  0  0  0  0  0  0  0  0  0  0
   -2.9408   -2.5608   -3.6806 O   0  0  0  0  0  0  0  0  0  0  0  0
   -4.4054   -4.0044   -4.9248 C   0  0  0  0  0  0  0  0  0  0  0  0
   -4.0965   -5.2664   -4.4235 C   0  0  0  0  0  0  0  0  0  0  0  0
   -4.8288   -6.2849   -4.9843 C   0  0  0  0  0  0  0  0  0  0  0  0
   -5.7970   -6.0649   -5.9727 C   0  0  0  0  0  0  0  0  0  0  0  0
   -6.1037   -4.8257   -6.4835 C   0  0  0  0  0  0  0  0  0  0  0  0
   -5.3708   -3.7747   -5.9263 C   0  0  0  0  0  0  0  0  0  0  0  0
   -5.4136   -2.3409   -6.2103 C   0  0  0  0  0  0  0  0  0  0  0  0
   -6.1238   -1.7514   -7.2246 C   0  0  0  0  0  0  0  0  0  0  0  0
   -6.0756   -0.3861   -7.5761 C   0  0  0  0  0  0  0  0  0  0  0  0
   -6.0758    0.6990   -7.9539 N   0  0  0  0  0  0  0  0  0  0  0  0
   -6.9745   -2.4462   -8.1095 C   0  0  0  0  0  0  0  0  0  0  0  0
   -7.6856   -2.9432   -8.8619 N   0  0  0  0  0  0  0  0  0  0  0  0
   -6.1555   -7.5271   -6.0597 C   0  0  0  0  0  0  0  0  0  0  0  0
   -7.4602   -7.9916   -5.3660 C   0  0  0  0  0  0  0  0  0  0  0  0
   -7.7171   -7.0218   -4.2394 C   0  0  0  0  0  0  0  0  0  0  0  0
   -6.7983   -7.2322   -3.3063 C   0  0  0  0  0  0  0  0  0  0  0  0
   -5.9029   -8.3479   -3.7856 C   0  0  0  0  0  0  0  0  0  0  0  0
   -6.9189   -9.1914   -4.5721 C   0  0  0  0  0  0  0  0  0  0  0  0
   -5.0740   -7.7730   -4.9608 C   0  0  0  0  0  0  0  0  0  0  0  0
    7.3969    2.5158    6.2358 H   0  0  0  0  0  0  0  0  0  0  0  0
    6.6005   -3.6820    5.5245 H   0  0  0  0  0  0  0  0  0  0  0  0
    8.1827   -5.1562    6.7659 H   0  0  0  0  0  0  0  0  0  0  0  0
    9.8679   -4.1733    8.2533 H   0  0  0  0  0  0  0  0  0  0  0  0
   10.0339   -1.7498    8.5602 H   0  0  0  0  0  0  0  0  0  0  0  0
    7.4635    4.8615    3.2876 H   0  0  0  0  0  0  0  0  0  0  0  0
    8.8477    6.7220    4.1245 H   0  0  0  0  0  0  0  0  0  0  0  0
    8.6143    7.4592    6.4741 H   0  0  0  0  0  0  0  0  0  0  0  0
    6.9845    6.3574    7.9471 H   0  0  0  0  0  0  0  0  0  0  0  0
    5.1225    3.3267    7.1711 H   0  0  0  0  0  0  0  0  0  0  0  0
    5.5709    4.5019    8.4096 H   0  0  0  0  0  0  0  0  0  0  0  0
    3.5879    5.0003    6.1313 H   0  0  0  0  0  0  0  0  0  0  0  0
    4.0281    6.1729    7.3711 H   0  0  0  0  0  0  0  0  0  0  0  0
    3.1602    4.7002    7.8194 H   0  0  0  0  0  0  0  0  0  0  0  0
   -2.9018    1.3523   -6.6672 H   0  0  0  0  0  0  0  0  0  0  0  0
   -3.4368    2.2205   -8.1075 H   0  0  0  0  0  0  0  0  0  0  0  0
   -2.2885    4.2835   -7.2776 H   0  0  0  0  0  0  0  0  0  0  0  0
   -1.1520    2.9395   -7.4360 H   0  0  0  0  0  0  0  0  0  0  0  0
   -1.7546    3.4104   -5.8431 H   0  0  0  0  0  0  0  0  0  0  0  0
   -5.1928    3.8143   -8.0478 H   0  0  0  0  0  0  0  0  0  0  0  0
   -7.1045    4.8172   -6.8723 H   0  0  0  0  0  0  0  0  0  0  0  0
   -7.3898    4.4469   -4.4436 H   0  0  0  0  0  0  0  0  0  0  0  0
   -5.7673    3.0465   -3.2249 H   0  0  0  0  0  0  0  0  0  0  0  0
    2.7370    0.2531    2.5967 H   0  0  0  0  0  0  0  0  0  0  0  0
    2.0260   -0.1189    1.0364 H   0  0  0  0  0  0  0  0  0  0  0  0
    0.4214   -0.6539    2.8547 H   0  0  0  0  0  0  0  0  0  0  0  0
    0.5797    0.9755    3.5127 H   0  0  0  0  0  0  0  0  0  0  0  0
   -0.2211    0.7330    1.9626 H   0  0  0  0  0  0  0  0  0  0  0  0
   -0.3196   -0.4105   -1.5674 H   0  0  0  0  0  0  0  0  0  0  0  0
    0.4053   -0.3515    0.0295 H   0  0  0  0  0  0  0  0  0  0  0  0
    2.1280   -0.9264   -1.6643 H   0  0  0  0  0  0  0  0  0  0  0  0
    1.6991    0.4908   -2.6236 H   0  0  0  0  0  0  0  0  0  0  0  0
    2.4908    0.6987   -1.0640 H   0  0  0  0  0  0  0  0  0  0  0  0
   -5.0668    0.3002   -5.6867 H   0  0  0  0  0  0  0  0  0  0  0  0
   -3.3443   -5.3912   -3.6603 H   0  0  0  0  0  0  0  0  0  0  0  0
   -6.8513   -4.6737   -7.2439 H   0  0  0  0  0  0  0  0  0  0  0  0
   -6.0131   -7.9967   -7.0309 H   0  0  0  0  0  0  0  0  0  0  0  0
   -8.2911   -8.1720   -6.0426 H   0  0  0  0  0  0  0  0  0  0  0  0
   -8.4818   -6.2676   -4.2614 H   0  0  0  0  0  0  0  0  0  0  0  0
   -6.6418   -6.6885   -2.3930 H   0  0  0  0  0  0  0  0  0  0  0  0
   -5.3158   -8.8536   -3.0233 H   0  0  0  0  0  0  0  0  0  0  0  0
   -6.4578   -9.9538   -5.1985 H   0  0  0  0  0  0  0  0  0  0  0  0
   -7.6727   -9.6475   -3.9320 H   0  0  0  0  0  0  0  0  0  0  0  0
   -4.2230   -8.4017   -5.2158 H   0  0  0  0  0  0  0  0  0  0  0  0
  1  2  2  0  0  0  0
  2  3  1  0  0  0  0
  3  4  2  0  0  0  0
  3  5  1  0  0  0  0
  5  6  2  0  0  0  0
  6  7  1  0  0  0  0
  7  8  2  0  0  0  0
  8  9  1  0  0  0  0
  9 10  2  0  0  0  0
 10 11  1  0  0  0  0
 11 12  2  0  0  0  0
 12 13  1  0  0  0  0
 13 14  3  0  0  0  0
 12 15  1  0  0  0  0
 15 16  3  0  0  0  0
  1 17  1  0  0  0  0
 17 18  2  0  0  0  0
 18 19  1  0  0  0  0
 19 20  2  0  0  0  0
 20 21  1  0  0  0  0
 21 22  2  0  0  0  0
 22 23  1  0  0  0  0
 23 24  2  0  0  0  0
 24 25  1  0  0  0  0
 25 26  1  0  0  0  0
 18 27  1  0  0  0  0
 27 28  1  0  0  0  0
 28 29  1  0  0  0  0
 29 30  1  0  0  0  0
 30 31  1  0  0  0  0
 31 32  1  0  0  0  0
 32 33  2  0  0  0  0
 33 34  1  0  0  0  0
 34 35  1  0  0  0  0
 32 36  1  0  0  0  0
 36 37  1  0  0  0  0
 37 38  1  0  0  0  0
 38 39  1  0  0  0  0
 39 40  1  0  0  0  0
 40 41  1  0  0  0  0
 41 42  2  0  0  0  0
 42 43  1  0  0  0  0
 43 44  1  0  0  0  0
 42 45  1  0  0  0  0
 45 46  2  0  0  0  0
 46 47  1  0  0  0  0
 47 48  2  0  0  0  0
 40 49  2  0  0  0  0
 49 50  1  0  0  0  0
 50 51  1  0  0  0  0
 51 52  1  0  0  0  0
 52 53  1  0  0  0  0
 53 54  1  0  0  0  0
 54 55  1  0  0  0  0
 55 56  1  0  0  0  0
 56 57  1  0  0  0  0
 57 58  1  0  0  0  0
 58 59  1  0  0  0  0
 56 60  1  0  0  0  0
 60 61  1  0  0  0  0
 53 62  1  0  0  0  0
 62 63  1  0  0  0  0
 49 64  1  0  0  0  0
 64 65  2  0  0  0  0
 65 66  1  0  0  0  0
 66 67  2  0  0  0  0
 66 68  1  0  0  0  0
 68 69  2  0  0  0  0
 69 70  1  0  0  0  0
 70 71  2  0  0  0  0
 71 72  1  0  0  0  0
 72 73  2  0  0  0  0
 73 74  1  0  0  0  0
 74 75  2  0  0  0  0
 75 76  1  0  0  0  0
 76 77  3  0  0  0  0
 75 78  1  0  0  0  0
 78 79  3  0  0  0  0
 71 80  1  0  0  0  0
 80 81  1  0  0  0  0
 81 82  1  0  0  0  0
 82 83  2  0  0  0  0
 83 84  1  0  0  0  0
 84 85  1  0  0  0  0
 84 86  1  0  0  0  0
 11  2  1  0  0  0  0
 59 17  1  0  0  0  0
 74 65  1  0  0  0  0
 86 80  1  0  0  0  0
 10  5  1  0  0  0  0
 24 19  1  0  0  0  0
 58 27  2  0  0  0  0
 73 68  1  0  0  0  0
 85 81  1  0  0  0  0
 57 29  2  0  0  0  0
 86 70  1  0  0  0  0
 55 30  2  0  0  0  0
 35 31  2  0  0  0  0
 54 36  2  0  0  0  0
 52 37  2  0  0  0  0
 51 39  2  0  0  0  0
 48 41  1  0  0  0  0
  1 87  1  0  0  0  0
  6 88  1  0  0  0  0
  7 89  1  0  0  0  0
  8 90  1  0  0  0  0
  9 91  1  0  0  0  0
 20 92  1  0  0  0  0
 21 93  1  0  0  0  0
 22 94  1  0  0  0  0
 23 95  1  0  0  0  0
 25 96  1  0  0  0  0
 25 97  1  0  0  0  0
 26 98  1  0  0  0  0
 26 99  1  0  0  0  0
 26100  1  0  0  0  0
 43101  1  0  0  0  0
 43102  1  0  0  0  0
 44103  1  0  0  0  0
 44104  1  0  0  0  0
 44105  1  0  0  0  0
 45106  1  0  0  0  0
 46107  1  0  0  0  0
 47108  1  0  0  0  0
 48109  1  0  0  0  0
 60110  1  0  0  0  0
 60111  1  0  0  0  0
 61112  1  0  0  0  0
 61113  1  0  0  0  0
 61114  1  0  0  0  0
 62115  1  0  0  0  0
 62116  1  0  0  0  0
 63117  1  0  0  0  0
 63118  1  0  0  0  0
 63119  1  0  0  0  0
 64120  1  0  0  0  0
 69121  1  0  0  0  0
 72122  1  0  0  0  0
 80123  1  0  0  0  0
 81124  1  0  0  0  0
 82125  1  0  0  0  0
 83126  1  0  0  0  0
 84127  1  0  0  0  0
 85128  1  0  0  0  0
 85129  1  0  0  0  0
 86130  1  0  0  0  0
M  END
