110

C          1.38510       -3.28490       -8.72660
C          2.68690       -3.68500       -8.54130
C          3.49660       -3.47060       -7.33950
O          3.15820       -2.93240       -6.29830
C          4.82440       -4.03960       -7.63320
C          5.94600       -4.08130       -6.82920
C          7.09310       -4.67620       -7.33610
C          7.10040       -5.21010       -8.61610
C          5.97270       -5.17030       -9.42690
C          4.82160       -4.57950       -8.93120
C          3.49620       -4.38170       -9.52050
C          3.11950       -4.80200      -10.77080
C          1.84600       -4.63230      -11.35210
N          0.83840       -4.53720      -11.89710
C          3.96930       -5.48220      -11.66820
N          4.60120       -6.03680      -12.45020
C          0.50150       -2.61330       -7.87730
C         -0.80430       -2.25720       -8.26110
C         -1.41230       -2.48510       -9.60620
C         -0.99390       -1.38660      -10.58750
C         -1.47050       -1.59930       -7.23700
S         -3.08150       -0.91070       -7.12680
C         -2.73190       -0.43660       -5.50220
C         -3.34260        0.24860       -4.44280
C         -4.57710        0.94030       -4.38720
C         -4.89510        1.68210       -3.19560
N         -6.02980        2.35160       -3.24320
Se        -6.78230        2.07690       -4.81470
N         -5.47010        1.02980       -5.35310
C         -4.02300        1.57700       -2.08500
C         -4.16700        2.03730       -0.76940
S         -5.27240        2.97060        0.17740
C         -4.30080        2.62230        1.59730
C         -4.44350        2.96470        2.93550
C         -5.54820        3.83800        3.43390
C         -5.09010        5.29600        3.52740
C         -3.40340        2.42880        3.71490
S         -2.25790        1.49870        2.74820
C         -3.17370        1.82800        1.32630
C         -3.10050        1.50730       -0.03170
N         -2.29750        0.75940       -0.84920
C         -2.82500        0.80360       -2.12180
C         -2.41650        0.24120       -3.35980
N         -1.25890       -0.39540       -3.77290
C         -1.44980       -0.79730       -5.07030
C         -0.71460       -1.45390       -6.06030
S          0.86600       -2.12060       -6.22160
C          0.10290       -0.22770       -3.31000
C          0.62020        1.17000       -3.64480
C         -1.30130       -0.11090       -0.26720
C         -0.02170        0.64160        0.09430
C         -3.31840        2.61250        5.09950
C         -2.39430        2.16750        6.01180
C         -1.20520        1.36400        5.72030
O         -0.82800        0.96030        4.63170
C         -0.53730        1.12500        7.00980
C          0.62880        0.39450        7.22720
C          1.00900        0.32960        8.54600
C          0.28040        0.94200        9.57400
C         -0.87260        1.66360        9.37260
C         -1.27540        1.74780        8.03620
C         -2.43410        2.41290        7.44000
C         -3.37480        3.13250        8.13330
C         -4.50160        3.77230        7.57690
N         -5.44330        4.31950        7.20910
C         -3.35220        3.34480        9.52770
N         -3.40180        3.56640       10.65340
C          1.23380        0.46610       10.64200
C          2.22860        1.50850       11.19470
C          3.31250        0.67050       11.83370
C          4.00340        0.09290       10.85930
C          3.39780        0.53040        9.54510
C          2.95560        1.95120        9.91830
C          2.04720       -0.21520        9.49500
H          0.95480       -3.51560       -9.69150
H          5.91680       -3.65940       -5.83630
H          7.98620       -4.72400       -6.73130
H          8.00120       -5.66830       -8.99590
H          6.01060       -5.59330      -10.41720
H         -1.12480       -3.45790      -10.00780
H         -2.49840       -2.46810       -9.49550
H         -1.45380       -1.56400      -11.55530
H         -1.31090       -0.41250      -10.22220
H          0.08590       -1.37530      -10.71630
H         -6.37960        3.77030        2.72950
H         -5.90090        3.50690        4.41170
H         -4.26070        5.39530        4.22370
H         -5.90930        5.91670        3.87840
H         -4.77090        5.65550        2.55190
H          0.70580       -0.97710       -3.82920
H          0.18410       -0.41110       -2.24350
H          0.00840        1.93130       -3.16390
H          0.59180        1.33520       -4.71940
H          1.64710        1.27420       -3.30630
H         -1.72760       -0.52560        0.65280
H         -1.11940       -0.94360       -0.94800
H          0.73560       -0.06130        0.42970
H         -0.22030        1.33660        0.90540
H          0.36450        1.20390       -0.75150
H         -4.13030        3.20370        5.49960
H          1.15460       -0.06840        6.40670
H         -1.42370        2.12160       10.17650
H          0.80060       -0.16200       11.41800
H          1.78070        2.28280       11.81130
H          3.42590        0.54440       12.89440
H          4.80950       -0.61230       10.94270
H          4.01570        0.41410        8.65870
H          3.80160        2.60260       10.13160
H          2.30950        2.42350        9.18060
H          2.15810       -1.29800        9.50700
