117

C         -1.26400       -4.44590        6.50380
C         -0.01420       -4.86190        6.85520
C          0.17760       -6.15990        7.55220
O         -0.67580       -6.83780        8.07820
C          1.61900       -6.46090        7.40630
C          2.31230       -7.59810        7.77110
C          3.67460       -7.64970        7.50810
C          4.31620       -6.58500        6.89180
C          3.62630       -5.43510        6.53000
C          2.26810       -5.37350        6.79180
C          1.29120       -4.30770        6.58200
C          1.57930       -2.97340        6.44650
C          0.59840       -1.97280        6.60210
N         -0.17460       -1.14390        6.78700
C          2.87280       -2.46040        6.23680
N          3.90140       -1.99320        6.03150
C         -1.64040       -3.53450        5.49530
C         -2.89410       -2.94010        5.37730
C         -3.89650       -3.05130        6.44430
C         -3.54300       -2.55220        7.69800
C         -4.42650       -2.62200        8.75590
C         -5.66560       -3.21390        8.57360
C         -6.00990       -3.72510        7.33680
C         -5.14340       -3.64900        6.25240
C         -5.55580       -4.24770        4.93560
C         -6.76790       -3.53180        4.33900
C         -2.98710       -2.15920        4.21930
S         -4.24180       -1.13330        3.56650
C         -3.20290       -0.73350        2.24520
C         -3.22010        0.04530        1.07550
C         -4.23950        0.75590        0.39940
C         -3.95880        1.32830       -0.89230
N         -5.02740        1.88750       -1.43590
S         -6.27390        1.72200       -0.41740
N         -5.50110        0.92400        0.76010
C         -2.63230        1.30730       -1.38390
C         -2.00830        1.90010       -2.49370
S         -2.43430        2.80060       -3.90950
C         -0.73140        2.91100       -4.31080
C         -0.05050        3.49570       -5.37000
C         -0.70600        4.24050       -6.45550
C         -0.76210        3.74820       -7.76160
C         -0.24410        2.38280       -8.11370
C         -1.32040        1.32940       -7.84160
C         -1.39510        4.51500       -8.73050
C         -1.95960        5.73850       -8.42300
C         -1.91620        6.21200       -7.12280
C         -1.29470        5.46240       -6.14350
C          1.34090        3.33100       -5.24660
S          1.77770        2.40980       -3.80870
C          0.11180        2.27050       -3.38540
C         -0.62770        1.69080       -2.35250
N         -0.37490        0.96620       -1.21430
C         -1.59470        0.69580       -0.62910
C         -1.92790       -0.07920        0.50160
N         -1.17170       -0.96350        1.24670
C         -1.94530       -1.35150        2.31230
C         -1.82360       -2.16930        3.43600
S         -0.59080       -3.15330        4.13240
C         -0.11330       -1.81990        0.75020
C         -0.64400       -3.21140        0.40600
C          0.90270        1.08630       -0.53890
C          1.19200        2.53800       -0.15970
C          2.23160        3.88050       -6.17530
C          3.60400        3.86650       -6.21000
C          4.48640        3.30010       -5.18610
O          4.16670        2.65880       -4.19890
C          5.85800        3.67080       -5.57910
C          7.04670        3.40960       -4.92720
C          8.22190        3.88320       -5.49400
C          8.19050        4.59930       -6.68150
C          6.99630        4.85990       -7.34210
C          5.81720        4.38900       -6.78730
C          4.42590        4.48250       -7.23150
C          4.01000        5.00550       -8.42850
C          4.87410        5.59220       -9.37680
N          5.51840        6.08710      -10.18790
C          2.68630        5.00030       -8.91630
N          1.64710        5.01340       -9.40650
H         -2.08580       -4.94470        7.00940
H          1.79670       -8.41670        8.24920
H          4.24120       -8.52620        7.78450
H          5.37510       -6.64770        6.68960
H          4.14260       -4.61990        6.04830
H         -2.57360       -2.09150        7.82190
H         -4.14650       -2.22470        9.71950
H         -6.35940       -3.28490        9.39800
H         -6.96800       -4.20700        7.20780
H         -5.80770       -5.30060        5.09230
H         -4.72600       -4.20770        4.22830
H         -7.63420       -3.63180        4.98750
H         -7.01400       -3.95700        3.36900
H         -6.55910       -2.47300        4.20960
H          0.02700        2.36370       -9.17020
H          0.64720        2.14090       -7.53280
H         -2.21510        1.54430       -8.42110
H         -1.59030        1.32530       -6.78750
H         -0.95980        0.33940       -8.11150
H         -1.43520        4.14520       -9.74380
H         -2.43710        6.32130       -9.19620
H         -2.36190        7.16260       -6.87110
H         -1.24860        5.82410       -5.12620
H          0.66510       -1.89720        1.51610
H          0.30500       -1.38090       -0.15360
H         -1.44880       -3.13640       -0.32230
H         -1.01900       -3.71850        1.29050
H          0.15720       -3.80920       -0.01910
H          1.68600        0.71600       -1.20730
H          0.88460        0.49230        0.37250
H          0.39380        2.92960        0.46770
H          1.28330        3.16190       -1.04390
H          2.12620        2.58640        0.39230
H          1.72850        4.41350       -6.97450
H          7.04660        2.85270       -4.00280
H          9.16720        3.69550       -5.00750
H          9.11350        4.96460       -7.10620
H          7.00350        5.42120       -8.26190
