101

C         -7.43280        3.42130        4.40540
C         -7.55880        4.76220        4.13610
C         -6.92310        5.56710        3.07150
O         -6.01380        5.27030        2.31850
C         -7.62680        6.86440        3.07630
C         -7.45210        7.93740        2.22450
C         -8.24510        9.06010        2.41430
C         -9.18450        9.09190        3.43470
C         -9.35880        8.01620        4.29600
C         -8.57010        6.89090        4.11590
C         -8.49900        5.62180        4.83730
C         -9.14720        5.35330        6.01460
C         -8.99950        4.18820        6.79790
N         -8.92200        3.29170        7.51220
C        -10.03170        6.25020        6.65070
N        -10.76600        6.92450        7.22010
C         -6.57510        2.43550        3.88940
Se        -6.84380        0.62790        4.50140
C         -5.39690        0.20690        3.44400
C         -4.63350       -0.89510        3.04440
C         -4.81290       -2.26750        3.31630
C         -3.94180       -3.21910        2.69660
N         -4.25940       -4.46710        3.00320
S         -5.54330       -4.44330        3.98930
N         -5.74490       -2.83650        4.06350
C         -2.86170       -2.74060        1.92020
C         -1.78360       -3.42070        1.34140
S         -1.19710       -5.03860        1.15590
C          0.25450       -4.39360        0.40820
C          1.40690       -4.99750       -0.07890
C          1.62930       -6.47380       -0.03010
C          2.40180       -6.86480        1.23280
C          2.32990       -4.04270       -0.53970
S          1.72090       -2.39570       -0.37830
C          0.25760       -2.99270        0.30580
C         -0.91820       -2.44720        0.82800
N         -1.43640       -1.20140        1.04270
C         -2.64230       -1.34400        1.70040
C         -3.60530       -0.41560        2.18160
N         -3.78600        0.94460        2.02380
C         -4.85920        1.33060        2.78740
C         -5.50220        2.54100        3.01560
C         -3.24300        1.87150        1.05630
C         -2.35140        2.93230        1.70280
C         -0.61770       -0.04470        0.76190
C         -0.57770        0.28070       -0.73090
C          3.59020       -4.38060       -1.04700
C          4.63070       -3.58920       -1.46490
C          4.66060       -2.12470       -1.46780
O          3.75380       -1.36000       -1.17920
C          6.01380       -1.73600       -1.89400
C          6.51710       -0.44160       -2.00290
C          7.82860       -0.38560       -2.40840
C          8.58440       -1.53300       -2.68300
C          8.09890       -2.81540       -2.57950
C          6.76400       -2.89640       -2.17110
C          5.91560       -4.06550       -1.93980
C          6.28790       -5.36780       -2.15860
C          7.55070       -5.76680       -2.64440
N          8.55200       -6.16970       -3.03600
C          5.47720       -6.50330       -1.95300
N          4.88630       -7.47930       -1.81300
C          9.81620       -0.73490       -3.03220
C         10.13850       -0.58210       -4.53360
C         11.07040        0.60720       -4.58380
C         10.35330        1.69330       -4.32540
C          8.92450        1.25640       -4.09560
C          8.85320        0.06750       -5.06260
C          8.97240        0.54440       -2.72700
H         -8.12710        3.03010        5.14240
H         -6.71640        7.88860        1.43640
H         -8.13330        9.91420        1.76340
H         -9.79680        9.97150        3.56580
H        -10.09920        8.06910        5.07690
H          2.17380       -6.81880       -0.91030
H          0.65430       -6.96490       -0.01650
H          3.38010       -6.38970        1.24870
H          1.85320       -6.55980        2.12090
H          2.54120       -7.94160        1.26090
H         -5.23130        3.48360        2.57570
H         -4.08850        2.37450        0.57390
H         -2.71150        1.31540        0.28900
H         -1.60270        2.48520        2.35350
H         -1.84710        3.50580        0.93000
H         -2.94620        3.61450        2.30300
H          0.40140       -0.27860        1.08860
H         -0.97080        0.79650        1.35100
H         -0.05430        1.21960       -0.88590
H         -0.04490       -0.49820       -1.26880
H         -1.57760        0.35910       -1.15310
H          3.76120       -5.44760       -1.08600
H          5.90080        0.41360       -1.77340
H          8.69790       -3.68590       -2.78750
H         10.69740       -0.93460       -2.42560
H         10.47830       -1.49170       -5.02090
H         12.13030        0.53260       -4.74170
H         10.69420        2.70700       -4.22430
H          8.15820        2.02190       -4.18460
H          8.94640        0.37670       -6.10230
H          7.96360       -0.54840       -4.94430
H          9.29200        1.19870       -1.91790
