
  xtb     02112205213D
 energy: -184.798364377423 gnorm: 0.000525044062 xtb: 6.4.1 (unknown)
107120  0     0  0            999 V2000
   -0.2970   -8.4786   -4.3971 C   0  0  0  0  0  0  0  0  0  0  0  0
   -0.2311   -9.6939   -3.7886 C   0  0  0  0  0  0  0  0  0  0  0  0
   -0.5172  -10.9321   -4.5592 C   0  0  0  0  0  0  0  0  0  0  0  0
   -0.5948  -11.0356   -5.7631 O   0  0  0  0  0  0  0  0  0  0  0  0
   -0.7339  -11.9768   -3.5368 C   0  0  0  0  0  0  0  0  0  0  0  0
   -1.1490  -13.2839   -3.7016 C   0  0  0  0  0  0  0  0  0  0  0  0
   -1.3036  -14.0714   -2.5691 C   0  0  0  0  0  0  0  0  0  0  0  0
   -1.0508  -13.5517   -1.3075 C   0  0  0  0  0  0  0  0  0  0  0  0
   -0.6255  -12.2408   -1.1357 C   0  0  0  0  0  0  0  0  0  0  0  0
   -0.4626  -11.4491   -2.2602 C   0  0  0  0  0  0  0  0  0  0  0  0
    0.0012  -10.0718   -2.4111 C   0  0  0  0  0  0  0  0  0  0  0  0
    0.7686   -9.3870   -1.5061 C   0  0  0  0  0  0  0  0  0  0  0  0
    1.0544   -9.8498   -0.2064 C   0  0  0  0  0  0  0  0  0  0  0  0
    1.3117  -10.1797    0.8626 N   0  0  0  0  0  0  0  0  0  0  0  0
    1.4484   -8.1928   -1.8226 C   0  0  0  0  0  0  0  0  0  0  0  0
    2.0682   -7.2586   -2.0713 N   0  0  0  0  0  0  0  0  0  0  0  0
   -0.4649   -7.2098   -3.7930 C   0  0  0  0  0  0  0  0  0  0  0  0
   -1.3176   -7.0781   -2.2545 S   0  0  0  0  0  0  0  0  0  0  0  0
   -1.1094   -5.3839   -2.3056 C   0  0  0  0  0  0  0  0  0  0  0  0
   -1.3896   -4.2743   -1.5062 C   0  0  0  0  0  0  0  0  0  0  0  0
   -2.0213   -4.2177   -0.2468 C   0  0  0  0  0  0  0  0  0  0  0  0
   -2.1133   -2.9532    0.4101 C   0  0  0  0  0  0  0  0  0  0  0  0
   -2.7068   -3.0349    1.5911 N   0  0  0  0  0  0  0  0  0  0  0  0
   -3.1137   -4.5804    1.8494 S   0  0  0  0  0  0  0  0  0  0  0  0
   -2.5503   -5.2015    0.4640 N   0  0  0  0  0  0  0  0  0  0  0  0
   -1.6024   -1.8132   -0.2456 C   0  0  0  0  0  0  0  0  0  0  0  0
   -1.5963   -0.4804    0.1815 C   0  0  0  0  0  0  0  0  0  0  0  0
   -2.0815    0.4628    1.5447 S   0  0  0  0  0  0  0  0  0  0  0  0
   -1.4893    1.8986    0.7369 C   0  0  0  0  0  0  0  0  0  0  0  0
   -1.3975    3.2423    1.1320 C   0  0  0  0  0  0  0  0  0  0  0  0
   -2.0126    3.7905    2.3754 C   0  0  0  0  0  0  0  0  0  0  0  0
   -3.4832    3.3981    2.5105 C   0  0  0  0  0  0  0  0  0  0  0  0
   -0.7753    4.0062    0.1540 C   0  0  0  0  0  0  0  0  0  0  0  0
   -0.3856    3.0680   -1.2882 S   0  0  0  0  0  0  0  0  0  0  0  0
   -0.9598    1.6300   -0.5326 C   0  0  0  0  0  0  0  0  0  0  0  0
   -1.0178    0.2674   -0.8445 C   0  0  0  0  0  0  0  0  0  0  0  0
   -0.6751   -0.5506   -1.8862 N   0  0  0  0  0  0  0  0  0  0  0  0
   -0.9977   -1.8564   -1.5414 C   0  0  0  0  0  0  0  0  0  0  0  0
   -0.8579   -3.1306   -2.1728 C   0  0  0  0  0  0  0  0  0  0  0  0
   -0.2632   -3.5746   -3.3424 N   0  0  0  0  0  0  0  0  0  0  0  0
   -0.4199   -4.9393   -3.4398 C   0  0  0  0  0  0  0  0  0  0  0  0
   -0.0736   -5.9820   -4.3214 C   0  0  0  0  0  0  0  0  0  0  0  0
    0.7118   -5.9140   -5.5942 C   0  0  0  0  0  0  0  0  0  0  0  0
    2.2005   -6.1520   -5.3260 C   0  0  0  0  0  0  0  0  0  0  0  0
    0.4350   -2.8383   -4.3648 C   0  0  0  0  0  0  0  0  0  0  0  0
   -0.5052   -2.4242   -5.4990 C   0  0  0  0  0  0  0  0  0  0  0  0
   -0.0692    0.0775   -3.0379 C   0  0  0  0  0  0  0  0  0  0  0  0
    1.4371    0.2639   -2.8494 C   0  0  0  0  0  0  0  0  0  0  0  0
   -0.4527    5.3823    0.1215 C   0  0  0  0  0  0  0  0  0  0  0  0
    0.0050    6.1233    1.1736 C   0  0  0  0  0  0  0  0  0  0  0  0
    0.6466    5.5516    2.3823 C   0  0  0  0  0  0  0  0  0  0  0  0
    0.7083    4.3850    2.7102 O   0  0  0  0  0  0  0  0  0  0  0  0
    1.3090    6.6879    3.0508 C   0  0  0  0  0  0  0  0  0  0  0  0
    2.0890    6.6343    4.2033 C   0  0  0  0  0  0  0  0  0  0  0  0
    2.5930    7.8511    4.5952 C   0  0  0  0  0  0  0  0  0  0  0  0
    2.3510    9.0355    3.8860 C   0  0  0  0  0  0  0  0  0  0  0  0
    1.5900    9.1017    2.7433 C   0  0  0  0  0  0  0  0  0  0  0  0
    1.0592    7.8753    2.3333 C   0  0  0  0  0  0  0  0  0  0  0  0
    0.2166    7.5558    1.1859 C   0  0  0  0  0  0  0  0  0  0  0  0
   -0.3532    8.4553    0.3225 C   0  0  0  0  0  0  0  0  0  0  0  0
   -1.2442    8.1046   -0.7134 C   0  0  0  0  0  0  0  0  0  0  0  0
   -1.9896    7.8901   -1.5604 N   0  0  0  0  0  0  0  0  0  0  0  0
   -0.1590    9.8503    0.3788 C   0  0  0  0  0  0  0  0  0  0  0  0
   -0.0402   10.9924    0.3678 N   0  0  0  0  0  0  0  0  0  0  0  0
    3.1598    9.8700    4.8474 C   0  0  0  0  0  0  0  0  0  0  0  0
    2.3880   10.7368    5.8727 C   0  0  0  0  0  0  0  0  0  0  0  0
    1.0588   10.0579    6.0932 C   0  0  0  0  0  0  0  0  0  0  0  0
    1.2835    8.9371    6.7659 C   0  0  0  0  0  0  0  0  0  0  0  0
    2.7686    8.8379    7.0126 C   0  0  0  0  0  0  0  0  0  0  0  0
    3.1184   10.3271    7.1617 C   0  0  0  0  0  0  0  0  0  0  0  0
    3.4256    8.5510    5.6395 C   0  0  0  0  0  0  0  0  0  0  0  0
   -0.2986   -8.5120   -5.4829 H   0  0  0  0  0  0  0  0  0  0  0  0
   -1.3434  -13.6701   -4.6904 H   0  0  0  0  0  0  0  0  0  0  0  0
   -1.6257  -15.0971   -2.6689 H   0  0  0  0  0  0  0  0  0  0  0  0
   -1.1861  -14.1778   -0.4382 H   0  0  0  0  0  0  0  0  0  0  0  0
   -0.4415  -11.8544   -0.1460 H   0  0  0  0  0  0  0  0  0  0  0  0
   -1.9296    4.8783    2.3686 H   0  0  0  0  0  0  0  0  0  0  0  0
   -1.4481    3.4186    3.2344 H   0  0  0  0  0  0  0  0  0  0  0  0
   -4.0448    3.7286    1.6391 H   0  0  0  0  0  0  0  0  0  0  0  0
   -3.5967    2.3225    2.6110 H   0  0  0  0  0  0  0  0  0  0  0  0
   -3.9066    3.8710    3.3928 H   0  0  0  0  0  0  0  0  0  0  0  0
    0.5719   -4.9535   -6.0884 H   0  0  0  0  0  0  0  0  0  0  0  0
    0.3525   -6.6857   -6.2780 H   0  0  0  0  0  0  0  0  0  0  0  0
    2.5919   -5.4205   -4.6228 H   0  0  0  0  0  0  0  0  0  0  0  0
    2.7650   -6.0869   -6.2530 H   0  0  0  0  0  0  0  0  0  0  0  0
    2.3490   -7.1371   -4.8918 H   0  0  0  0  0  0  0  0  0  0  0  0
    0.9295   -1.9812   -3.9182 H   0  0  0  0  0  0  0  0  0  0  0  0
    1.2212   -3.4860   -4.7563 H   0  0  0  0  0  0  0  0  0  0  0  0
    0.0296   -1.8235   -6.2304 H   0  0  0  0  0  0  0  0  0  0  0  0
   -0.9066   -3.3034   -5.9977 H   0  0  0  0  0  0  0  0  0  0  0  0
   -1.3511   -1.8532   -5.1208 H   0  0  0  0  0  0  0  0  0  0  0  0
   -0.3050   -0.4731   -3.9429 H   0  0  0  0  0  0  0  0  0  0  0  0
   -0.5303    1.0660   -3.1341 H   0  0  0  0  0  0  0  0  0  0  0  0
    1.9297   -0.6758   -2.6074 H   0  0  0  0  0  0  0  0  0  0  0  0
    1.8764    0.6719   -3.7554 H   0  0  0  0  0  0  0  0  0  0  0  0
    1.6242    0.9580   -2.0342 H   0  0  0  0  0  0  0  0  0  0  0  0
   -0.5113    5.8507   -0.8546 H   0  0  0  0  0  0  0  0  0  0  0  0
    2.2561    5.6997    4.7157 H   0  0  0  0  0  0  0  0  0  0  0  0
    1.4206   10.0172    2.2011 H   0  0  0  0  0  0  0  0  0  0  0  0
    4.0155   10.3914    4.4232 H   0  0  0  0  0  0  0  0  0  0  0  0
    2.3518   11.7958    5.6318 H   0  0  0  0  0  0  0  0  0  0  0  0
    0.1282   10.4223    5.6993 H   0  0  0  0  0  0  0  0  0  0  0  0
    0.5777    8.1773    7.0465 H   0  0  0  0  0  0  0  0  0  0  0  0
    3.0793    8.1681    7.8101 H   0  0  0  0  0  0  0  0  0  0  0  0
    2.6822   10.7749    8.0533 H   0  0  0  0  0  0  0  0  0  0  0  0
    4.1889   10.5262    7.1360 H   0  0  0  0  0  0  0  0  0  0  0  0
    4.4554    8.2120    5.7352 H   0  0  0  0  0  0  0  0  0  0  0  0
  1  2  2  0  0  0  0
  2  3  1  0  0  0  0
  3  4  2  0  0  0  0
  3  5  1  0  0  0  0
  5  6  2  0  0  0  0
  6  7  1  0  0  0  0
  7  8  2  0  0  0  0
  8  9  1  0  0  0  0
  9 10  2  0  0  0  0
 10 11  1  0  0  0  0
 11 12  2  0  0  0  0
 12 13  1  0  0  0  0
 13 14  3  0  0  0  0
 12 15  1  0  0  0  0
 15 16  3  0  0  0  0
  1 17  1  0  0  0  0
 17 18  1  0  0  0  0
 18 19  1  0  0  0  0
 19 20  1  0  0  0  0
 20 21  1  0  0  0  0
 21 22  1  0  0  0  0
 22 23  2  0  0  0  0
 23 24  1  0  0  0  0
 24 25  1  0  0  0  0
 22 26  1  0  0  0  0
 26 27  1  0  0  0  0
 27 28  1  0  0  0  0
 28 29  1  0  0  0  0
 29 30  1  0  0  0  0
 30 31  1  0  0  0  0
 31 32  1  0  0  0  0
 30 33  2  0  0  0  0
 33 34  1  0  0  0  0
 34 35  1  0  0  0  0
 35 36  1  0  0  0  0
 36 37  1  0  0  0  0
 37 38  1  0  0  0  0
 38 39  1  0  0  0  0
 39 40  1  0  0  0  0
 40 41  1  0  0  0  0
 41 42  1  0  0  0  0
 42 43  1  0  0  0  0
 43 44  1  0  0  0  0
 40 45  1  0  0  0  0
 45 46  1  0  0  0  0
 37 47  1  0  0  0  0
 47 48  1  0  0  0  0
 33 49  1  0  0  0  0
 49 50  2  0  0  0  0
 50 51  1  0  0  0  0
 51 52  2  0  0  0  0
 51 53  1  0  0  0  0
 53 54  2  0  0  0  0
 54 55  1  0  0  0  0
 55 56  2  0  0  0  0
 56 57  1  0  0  0  0
 57 58  2  0  0  0  0
 58 59  1  0  0  0  0
 59 60  2  0  0  0  0
 60 61  1  0  0  0  0
 61 62  3  0  0  0  0
 60 63  1  0  0  0  0
 63 64  3  0  0  0  0
 56 65  1  0  0  0  0
 65 66  1  0  0  0  0
 66 67  1  0  0  0  0
 67 68  2  0  0  0  0
 68 69  1  0  0  0  0
 69 70  1  0  0  0  0
 69 71  1  0  0  0  0
 11  2  1  0  0  0  0
 42 17  2  0  0  0  0
 59 50  1  0  0  0  0
 71 65  1  0  0  0  0
 10  5  1  0  0  0  0
 41 19  2  0  0  0  0
 58 53  1  0  0  0  0
 70 66  1  0  0  0  0
 39 20  2  0  0  0  0
 71 55  1  0  0  0  0
 25 21  2  0  0  0  0
 38 26  2  0  0  0  0
 36 27  2  0  0  0  0
 35 29  2  0  0  0  0
  1 72  1  0  0  0  0
  6 73  1  0  0  0  0
  7 74  1  0  0  0  0
  8 75  1  0  0  0  0
  9 76  1  0  0  0  0
 31 77  1  0  0  0  0
 31 78  1  0  0  0  0
 32 79  1  0  0  0  0
 32 80  1  0  0  0  0
 32 81  1  0  0  0  0
 43 82  1  0  0  0  0
 43 83  1  0  0  0  0
 44 84  1  0  0  0  0
 44 85  1  0  0  0  0
 44 86  1  0  0  0  0
 45 87  1  0  0  0  0
 45 88  1  0  0  0  0
 46 89  1  0  0  0  0
 46 90  1  0  0  0  0
 46 91  1  0  0  0  0
 47 92  1  0  0  0  0
 47 93  1  0  0  0  0
 48 94  1  0  0  0  0
 48 95  1  0  0  0  0
 48 96  1  0  0  0  0
 49 97  1  0  0  0  0
 54 98  1  0  0  0  0
 57 99  1  0  0  0  0
 65100  1  0  0  0  0
 66101  1  0  0  0  0
 67102  1  0  0  0  0
 68103  1  0  0  0  0
 69104  1  0  0  0  0
 70105  1  0  0  0  0
 70106  1  0  0  0  0
 71107  1  0  0  0  0
M  END
