130

C          6.83650        1.68530        5.82110
C          7.19620        0.42660        6.23730
C          6.64470       -0.83480        5.73710
O          5.71760       -0.98690        4.95850
C          7.44490       -1.90540        6.35900
C          7.34810       -3.27160        6.18580
C          8.23330       -4.08390        6.88100
C          9.18490       -3.52720        7.72250
C          9.28250       -2.15270        7.90130
C          8.40280       -1.33220        7.21400
C          8.24050        0.12240        7.19320
C          8.92460        1.00640        7.98720
C          8.70190        2.39760        8.05540
N          8.57070        3.53000        8.19920
C          9.93600        0.63190        8.89660
N         10.77350        0.40210        9.64770
C          5.85750        2.09490        4.91080
C          5.66670        3.45020        4.58810
C          6.45680        4.55690        5.14850
C          7.36460        5.19710        4.31010
C          8.14060        6.23780        4.78130
C          8.00700        6.65080        6.09590
C          7.09090        6.03010        6.92390
C          6.30470        4.97930        6.47090
C          5.25570        4.39100        7.37100
C          3.92190        5.11130        7.16080
C          4.67300        3.61660        3.63380
S          4.01160        5.04030        2.85390
C          2.93500        4.00940        1.97500
C          1.90530        4.11300        1.03260
C          1.29520        5.25280        0.46410
C          0.18020        5.07210       -0.41580
N         -0.32230        6.22080       -0.83980
S          0.53920        7.42740       -0.18920
N          1.58550        6.52920        0.65960
C         -0.21110        3.75860       -0.75680
C         -1.17820        3.30530       -1.66200
S         -2.37930        3.95280       -2.72690
C         -2.74830        2.31780       -3.24020
C         -3.64480        1.80780       -4.17040
C         -4.57650        2.63620       -4.95190
C         -4.39740        2.85480       -6.31960
C         -3.19370        2.33160       -7.04990
C         -2.02130        3.30230       -6.89230
C         -5.32010        3.64740       -6.98900
C         -6.39510        4.21170       -6.32850
C         -6.55750        4.00360       -4.96950
C         -5.64840        3.22090       -4.28480
C         -3.57910        0.40690       -4.24250
S         -2.37070       -0.25800       -3.14670
C         -1.96870        1.33240       -2.60960
C         -1.07520        1.90990       -1.70180
N         -0.10170        1.48730       -0.83730
C          0.44840        2.60530       -0.23390
C          1.46180        2.78620        0.74680
N          2.19590        1.91140        1.52950
C          3.07980        2.64860        2.27130
C          4.07100        2.41160        3.22800
S          4.75900        1.04170        4.02100
C          1.94270        0.53710        1.90220
C          0.59180        0.38790        2.59770
C          0.39530        0.13390       -0.94580
C          1.76860        0.09760       -1.61210
C         -4.40670       -0.32890       -5.09980
C         -4.51640       -1.68350       -5.28210
C         -3.82110       -2.71780       -4.51150
O         -2.94080       -2.56080       -3.68060
C         -4.40540       -4.00440       -4.92480
C         -4.09650       -5.26640       -4.42350
C         -4.82880       -6.28490       -4.98430
C         -5.79700       -6.06490       -5.97270
C         -6.10370       -4.82570       -6.48350
C         -5.37080       -3.77470       -5.92630
C         -5.41360       -2.34090       -6.21030
C         -6.12380       -1.75140       -7.22460
C         -6.07560       -0.38610       -7.57610
N         -6.07580        0.69900       -7.95390
C         -6.97450       -2.44620       -8.10950
N         -7.68560       -2.94320       -8.86190
C         -6.15550       -7.52710       -6.05970
C         -7.46020       -7.99160       -5.36600
C         -7.71710       -7.02180       -4.23940
C         -6.79830       -7.23220       -3.30630
C         -5.90290       -8.34790       -3.78560
C         -6.91890       -9.19140       -4.57210
C         -5.07400       -7.77300       -4.96080
H          7.39690        2.51580        6.23580
H          6.60050       -3.68200        5.52450
H          8.18270       -5.15620        6.76590
H          9.86790       -4.17330        8.25330
H         10.03390       -1.74980        8.56020
H          7.46350        4.86150        3.28760
H          8.84770        6.72200        4.12450
H          8.61430        7.45920        6.47410
H          6.98450        6.35740        7.94710
H          5.12250        3.32670        7.17110
H          5.57090        4.50190        8.40960
H          3.58790        5.00030        6.13130
H          4.02810        6.17290        7.37110
H          3.16020        4.70020        7.81940
H         -2.90180        1.35230       -6.66720
H         -3.43680        2.22050       -8.10750
H         -2.28850        4.28350       -7.27760
H         -1.15200        2.93950       -7.43600
H         -1.75460        3.41040       -5.84310
H         -5.19280        3.81430       -8.04780
H         -7.10450        4.81720       -6.87230
H         -7.38980        4.44690       -4.44360
H         -5.76730        3.04650       -3.22490
H          2.73700        0.25310        2.59670
H          2.02600       -0.11890        1.03640
H          0.42140       -0.65390        2.85470
H          0.57970        0.97550        3.51270
H         -0.22110        0.73300        1.96260
H         -0.31960       -0.41050       -1.56740
H          0.40530       -0.35150        0.02950
H          2.12800       -0.92640       -1.66430
H          1.69910        0.49080       -2.62360
H          2.49080        0.69870       -1.06400
H         -5.06680        0.30020       -5.68670
H         -3.34430       -5.39120       -3.66030
H         -6.85130       -4.67370       -7.24390
H         -6.01310       -7.99670       -7.03090
H         -8.29110       -8.17200       -6.04260
H         -8.48180       -6.26760       -4.26140
H         -6.64180       -6.68850       -2.39300
H         -5.31580       -8.85360       -3.02330
H         -6.45780       -9.95380       -5.19850
H         -7.67270       -9.64750       -3.93200
H         -4.22300       -8.40170       -5.21580
