
  xtb     02032200223D
 energy: -200.464821742152 gnorm: 0.000493127984 xtb: 6.4.1 (unknown)
112126  0     0  0            999 V2000
    3.5621    7.0851    3.1857 C   0  0  0  0  0  0  0  0  0  0  0  0
    2.9116    7.1264    4.3934 C   0  0  0  0  0  0  0  0  0  0  0  0
    2.0458    6.0752    4.9346 C   0  0  0  0  0  0  0  0  0  0  0  0
    1.6629    5.0626    4.3721 O   0  0  0  0  0  0  0  0  0  0  0  0
    1.7392    6.4744    6.3202 C   0  0  0  0  0  0  0  0  0  0  0  0
    0.9932    5.8058    7.2703 C   0  0  0  0  0  0  0  0  0  0  0  0
    0.8575    6.3865    8.5238 C   0  0  0  0  0  0  0  0  0  0  0  0
    1.4599    7.6041    8.8037 C   0  0  0  0  0  0  0  0  0  0  0  0
    2.2080    8.2815    7.8486 C   0  0  0  0  0  0  0  0  0  0  0  0
    2.3482    7.7123    6.5934 C   0  0  0  0  0  0  0  0  0  0  0  0
    3.0416    8.1700    5.3890 C   0  0  0  0  0  0  0  0  0  0  0  0
    3.6298    9.3977    5.2282 C   0  0  0  0  0  0  0  0  0  0  0  0
    4.1676    9.8888    4.0202 C   0  0  0  0  0  0  0  0  0  0  0  0
    4.5842   10.3723    3.0647 N   0  0  0  0  0  0  0  0  0  0  0  0
    3.7263   10.3687    6.2467 C   0  0  0  0  0  0  0  0  0  0  0  0
    3.8466   11.1982    7.0313 N   0  0  0  0  0  0  0  0  0  0  0  0
    3.4931    6.1428    2.1548 C   0  0  0  0  0  0  0  0  0  0  0  0
    4.2703    6.2749    0.9839 C   0  0  0  0  0  0  0  0  0  0  0  0
    5.1661    7.2784    0.8157 O   0  0  0  0  0  0  0  0  0  0  0  0
    4.6807    8.4867    0.2245 C   0  0  0  0  0  0  0  0  0  0  0  0
    4.2875    8.3166   -1.2356 C   0  0  0  0  0  0  0  0  0  0  0  0
    4.0582    5.2256    0.0930 C   0  0  0  0  0  0  0  0  0  0  0  0
    4.7348    4.8247   -1.4736 S   0  0  0  0  0  0  0  0  0  0  0  0
    3.7579    3.3981   -1.4913 C   0  0  0  0  0  0  0  0  0  0  0  0
    3.5305    2.2784   -2.3008 C   0  0  0  0  0  0  0  0  0  0  0  0
    4.1525    1.8721   -3.5019 C   0  0  0  0  0  0  0  0  0  0  0  0
    3.8121    0.5972   -4.0585 C   0  0  0  0  0  0  0  0  0  0  0  0
    4.5063    0.3194   -5.1509 N   0  0  0  0  0  0  0  0  0  0  0  0
    5.4981    1.5615   -5.4565 S   0  0  0  0  0  0  0  0  0  0  0  0
    5.0833    2.4989   -4.2042 N   0  0  0  0  0  0  0  0  0  0  0  0
    2.7963   -0.1656   -3.4416 C   0  0  0  0  0  0  0  0  0  0  0  0
    2.2112   -1.3806   -3.8233 C   0  0  0  0  0  0  0  0  0  0  0  0
    2.3654   -2.5794   -5.0590 S   0  0  0  0  0  0  0  0  0  0  0  0
    1.0177   -3.4403   -4.3534 C   0  0  0  0  0  0  0  0  0  0  0  0
    0.3523   -4.6289   -4.6918 C   0  0  0  0  0  0  0  0  0  0  0  0
    0.6449   -5.3986   -5.7700 O   0  0  0  0  0  0  0  0  0  0  0  0
    1.5205   -6.5024   -5.5439 C   0  0  0  0  0  0  0  0  0  0  0  0
    2.9403   -6.0747   -5.1967 C   0  0  0  0  0  0  0  0  0  0  0  0
   -0.7196   -4.8923   -3.8353 C   0  0  0  0  0  0  0  0  0  0  0  0
   -0.8372   -3.6912   -2.5606 S   0  0  0  0  0  0  0  0  0  0  0  0
    0.4900   -2.8102   -3.2193 C   0  0  0  0  0  0  0  0  0  0  0  0
    1.1769   -1.6331   -2.9149 C   0  0  0  0  0  0  0  0  0  0  0  0
    1.1162   -0.6378   -1.9779 N   0  0  0  0  0  0  0  0  0  0  0  0
    2.1112    0.2814   -2.2732 C   0  0  0  0  0  0  0  0  0  0  0  0
    2.5500    1.4766   -1.6415 C   0  0  0  0  0  0  0  0  0  0  0  0
    2.2188    2.0971   -0.4501 N   0  0  0  0  0  0  0  0  0  0  0  0
    2.9522    3.2485   -0.3559 C   0  0  0  0  0  0  0  0  0  0  0  0
    3.1204    4.2892    0.5620 C   0  0  0  0  0  0  0  0  0  0  0  0
    2.4979    4.6982    2.1196 S   0  0  0  0  0  0  0  0  0  0  0  0
    1.5499    1.5876    0.7260 C   0  0  0  0  0  0  0  0  0  0  0  0
    2.2804    0.3774    1.3027 C   0  0  0  0  0  0  0  0  0  0  0  0
   -0.0821   -0.5019   -1.1779 C   0  0  0  0  0  0  0  0  0  0  0  0
   -0.9463    0.6609   -1.6578 C   0  0  0  0  0  0  0  0  0  0  0  0
   -1.5619   -6.0211   -3.9016 C   0  0  0  0  0  0  0  0  0  0  0  0
   -2.7170   -6.2793   -3.2284 C   0  0  0  0  0  0  0  0  0  0  0  0
   -3.1449   -7.6890   -3.0252 C   0  0  0  0  0  0  0  0  0  0  0  0
   -2.7371   -8.6637   -3.6161 O   0  0  0  0  0  0  0  0  0  0  0  0
   -4.1020   -7.6425   -1.9016 C   0  0  0  0  0  0  0  0  0  0  0  0
   -4.6762   -8.7238   -1.2369 C   0  0  0  0  0  0  0  0  0  0  0  0
   -5.5040   -8.3682   -0.1990 C   0  0  0  0  0  0  0  0  0  0  0  0
   -5.7493   -7.0345    0.1554 C   0  0  0  0  0  0  0  0  0  0  0  0
   -5.1993   -5.9569   -0.4971 C   0  0  0  0  0  0  0  0  0  0  0  0
   -4.3519   -6.2981   -1.5531 C   0  0  0  0  0  0  0  0  0  0  0  0
   -3.6219   -5.4373   -2.4799 C   0  0  0  0  0  0  0  0  0  0  0  0
   -3.9426   -4.1382   -2.7786 C   0  0  0  0  0  0  0  0  0  0  0  0
   -3.4268   -3.4510   -3.8978 C   0  0  0  0  0  0  0  0  0  0  0  0
   -3.0742   -2.8694   -4.8227 N   0  0  0  0  0  0  0  0  0  0  0  0
   -4.8815   -3.3683   -2.0659 C   0  0  0  0  0  0  0  0  0  0  0  0
   -5.6103   -2.6802   -1.5051 N   0  0  0  0  0  0  0  0  0  0  0  0
   -6.6552   -7.4205    1.2972 C   0  0  0  0  0  0  0  0  0  0  0  0
   -6.0815   -7.3360    2.7334 C   0  0  0  0  0  0  0  0  0  0  0  0
   -4.5885   -7.5131    2.6103 C   0  0  0  0  0  0  0  0  0  0  0  0
   -4.3567   -8.7752    2.2748 C   0  0  0  0  0  0  0  0  0  0  0  0
   -5.6890   -9.4745    2.1651 C   0  0  0  0  0  0  0  0  0  0  0  0
   -6.4770   -8.7274    3.2531 C   0  0  0  0  0  0  0  0  0  0  0  0
   -6.3832   -8.9063    0.9023 C   0  0  0  0  0  0  0  0  0  0  0  0
    4.2685    7.8805    2.9768 H   0  0  0  0  0  0  0  0  0  0  0  0
    0.5340    4.8590    7.0308 H   0  0  0  0  0  0  0  0  0  0  0  0
    0.2801    5.8876    9.2875 H   0  0  0  0  0  0  0  0  0  0  0  0
    1.3473    8.0396    9.7852 H   0  0  0  0  0  0  0  0  0  0  0  0
    2.6667    9.2249    8.0956 H   0  0  0  0  0  0  0  0  0  0  0  0
    3.8340    8.8733    0.8059 H   0  0  0  0  0  0  0  0  0  0  0  0
    5.5178    9.1792    0.3240 H   0  0  0  0  0  0  0  0  0  0  0  0
    4.0520    9.2889   -1.6587 H   0  0  0  0  0  0  0  0  0  0  0  0
    3.4139    7.6747   -1.3309 H   0  0  0  0  0  0  0  0  0  0  0  0
    5.1073    7.8743   -1.7963 H   0  0  0  0  0  0  0  0  0  0  0  0
    1.1182   -7.1489   -4.7526 H   0  0  0  0  0  0  0  0  0  0  0  0
    1.5040   -7.0463   -6.4903 H   0  0  0  0  0  0  0  0  0  0  0  0
    2.9705   -5.5804   -4.2277 H   0  0  0  0  0  0  0  0  0  0  0  0
    3.5816   -6.9508   -5.1600 H   0  0  0  0  0  0  0  0  0  0  0  0
    3.3193   -5.3881   -5.9495 H   0  0  0  0  0  0  0  0  0  0  0  0
    1.5580    2.3944    1.4625 H   0  0  0  0  0  0  0  0  0  0  0  0
    0.5059    1.3655    0.5065 H   0  0  0  0  0  0  0  0  0  0  0  0
    1.7452    0.0014    2.1703 H   0  0  0  0  0  0  0  0  0  0  0  0
    3.2821    0.6644    1.6136 H   0  0  0  0  0  0  0  0  0  0  0  0
    2.3689   -0.4199    0.5681 H   0  0  0  0  0  0  0  0  0  0  0  0
    0.1680   -0.4129   -0.1213 H   0  0  0  0  0  0  0  0  0  0  0  0
   -0.6402   -1.4337   -1.2965 H   0  0  0  0  0  0  0  0  0  0  0  0
   -1.8305    0.7469   -1.0323 H   0  0  0  0  0  0  0  0  0  0  0  0
   -0.3980    1.5998   -1.6271 H   0  0  0  0  0  0  0  0  0  0  0  0
   -1.2660    0.4863   -2.6824 H   0  0  0  0  0  0  0  0  0  0  0  0
   -1.1937   -6.8381   -4.5144 H   0  0  0  0  0  0  0  0  0  0  0  0
   -4.4654   -9.7373   -1.5403 H   0  0  0  0  0  0  0  0  0  0  0  0
   -5.3880   -4.9337   -0.2156 H   0  0  0  0  0  0  0  0  0  0  0  0
   -7.6786   -7.0558    1.2374 H   0  0  0  0  0  0  0  0  0  0  0  0
   -6.4175   -6.4740    3.3035 H   0  0  0  0  0  0  0  0  0  0  0  0
   -3.8792   -6.7135    2.7196 H   0  0  0  0  0  0  0  0  0  0  0  0
   -3.4153   -9.2404    2.0481 H   0  0  0  0  0  0  0  0  0  0  0  0
   -5.6671  -10.5597    2.2190 H   0  0  0  0  0  0  0  0  0  0  0  0
   -6.1014   -8.9250    4.2560 H   0  0  0  0  0  0  0  0  0  0  0  0
   -7.5493   -8.9148    3.2182 H   0  0  0  0  0  0  0  0  0  0  0  0
   -7.2297   -9.5124    0.5858 H   0  0  0  0  0  0  0  0  0  0  0  0
  1  2  2  0  0  0  0
  2  3  1  0  0  0  0
  3  4  2  0  0  0  0
  3  5  1  0  0  0  0
  5  6  2  0  0  0  0
  6  7  1  0  0  0  0
  7  8  2  0  0  0  0
  8  9  1  0  0  0  0
  9 10  2  0  0  0  0
 10 11  1  0  0  0  0
 11 12  2  0  0  0  0
 12 13  1  0  0  0  0
 13 14  3  0  0  0  0
 12 15  1  0  0  0  0
 15 16  3  0  0  0  0
  1 17  1  0  0  0  0
 17 18  2  0  0  0  0
 18 19  1  0  0  0  0
 19 20  1  0  0  0  0
 20 21  1  0  0  0  0
 18 22  1  0  0  0  0
 22 23  1  0  0  0  0
 23 24  1  0  0  0  0
 24 25  1  0  0  0  0
 25 26  1  0  0  0  0
 26 27  1  0  0  0  0
 27 28  2  0  0  0  0
 28 29  1  0  0  0  0
 29 30  1  0  0  0  0
 27 31  1  0  0  0  0
 31 32  1  0  0  0  0
 32 33  1  0  0  0  0
 33 34  1  0  0  0  0
 34 35  1  0  0  0  0
 35 36  1  0  0  0  0
 36 37  1  0  0  0  0
 37 38  1  0  0  0  0
 35 39  2  0  0  0  0
 39 40  1  0  0  0  0
 40 41  1  0  0  0  0
 41 42  1  0  0  0  0
 42 43  1  0  0  0  0
 43 44  1  0  0  0  0
 44 45  1  0  0  0  0
 45 46  1  0  0  0  0
 46 47  1  0  0  0  0
 47 48  1  0  0  0  0
 48 49  1  0  0  0  0
 46 50  1  0  0  0  0
 50 51  1  0  0  0  0
 43 52  1  0  0  0  0
 52 53  1  0  0  0  0
 39 54  1  0  0  0  0
 54 55  2  0  0  0  0
 55 56  1  0  0  0  0
 56 57  2  0  0  0  0
 56 58  1  0  0  0  0
 58 59  2  0  0  0  0
 59 60  1  0  0  0  0
 60 61  2  0  0  0  0
 61 62  1  0  0  0  0
 62 63  2  0  0  0  0
 63 64  1  0  0  0  0
 64 65  2  0  0  0  0
 65 66  1  0  0  0  0
 66 67  3  0  0  0  0
 65 68  1  0  0  0  0
 68 69  3  0  0  0  0
 61 70  1  0  0  0  0
 70 71  1  0  0  0  0
 71 72  1  0  0  0  0
 72 73  2  0  0  0  0
 73 74  1  0  0  0  0
 74 75  1  0  0  0  0
 74 76  1  0  0  0  0
 11  2  1  0  0  0  0
 49 17  1  0  0  0  0
 64 55  1  0  0  0  0
 76 70  1  0  0  0  0
 10  5  1  0  0  0  0
 48 22  2  0  0  0  0
 63 58  1  0  0  0  0
 75 71  1  0  0  0  0
 47 24  2  0  0  0  0
 76 60  1  0  0  0  0
 45 25  2  0  0  0  0
 30 26  2  0  0  0  0
 44 31  2  0  0  0  0
 42 32  2  0  0  0  0
 41 34  2  0  0  0  0
  1 77  1  0  0  0  0
  6 78  1  0  0  0  0
  7 79  1  0  0  0  0
  8 80  1  0  0  0  0
  9 81  1  0  0  0  0
 20 82  1  0  0  0  0
 20 83  1  0  0  0  0
 21 84  1  0  0  0  0
 21 85  1  0  0  0  0
 21 86  1  0  0  0  0
 37 87  1  0  0  0  0
 37 88  1  0  0  0  0
 38 89  1  0  0  0  0
 38 90  1  0  0  0  0
 38 91  1  0  0  0  0
 50 92  1  0  0  0  0
 50 93  1  0  0  0  0
 51 94  1  0  0  0  0
 51 95  1  0  0  0  0
 51 96  1  0  0  0  0
 52 97  1  0  0  0  0
 52 98  1  0  0  0  0
 53 99  1  0  0  0  0
 53100  1  0  0  0  0
 53101  1  0  0  0  0
 54102  1  0  0  0  0
 59103  1  0  0  0  0
 62104  1  0  0  0  0
 70105  1  0  0  0  0
 71106  1  0  0  0  0
 72107  1  0  0  0  0
 73108  1  0  0  0  0
 74109  1  0  0  0  0
 75110  1  0  0  0  0
 75111  1  0  0  0  0
 76112  1  0  0  0  0
M  END
