112

C          3.56210        7.08510        3.18570
C          2.91160        7.12640        4.39340
C          2.04580        6.07520        4.93460
O          1.66290        5.06260        4.37210
C          1.73920        6.47440        6.32020
C          0.99320        5.80580        7.27030
C          0.85750        6.38650        8.52380
C          1.45990        7.60410        8.80370
C          2.20800        8.28150        7.84860
C          2.34820        7.71230        6.59340
C          3.04160        8.17000        5.38900
C          3.62980        9.39770        5.22820
C          4.16760        9.88880        4.02020
N          4.58420       10.37230        3.06470
C          3.72630       10.36870        6.24670
N          3.84660       11.19820        7.03130
C          3.49310        6.14280        2.15480
C          4.27030        6.27490        0.98390
O          5.16610        7.27840        0.81570
C          4.68070        8.48670        0.22450
C          4.28750        8.31660       -1.23560
C          4.05820        5.22560        0.09300
S          4.73480        4.82470       -1.47360
C          3.75790        3.39810       -1.49130
C          3.53050        2.27840       -2.30080
C          4.15250        1.87210       -3.50190
C          3.81210        0.59720       -4.05850
N          4.50630        0.31940       -5.15090
S          5.49810        1.56150       -5.45650
N          5.08330        2.49890       -4.20420
C          2.79630       -0.16560       -3.44160
C          2.21120       -1.38060       -3.82330
S          2.36540       -2.57940       -5.05900
C          1.01770       -3.44030       -4.35340
C          0.35230       -4.62890       -4.69180
O          0.64490       -5.39860       -5.77000
C          1.52050       -6.50240       -5.54390
C          2.94030       -6.07470       -5.19670
C         -0.71960       -4.89230       -3.83530
S         -0.83720       -3.69120       -2.56060
C          0.49000       -2.81020       -3.21930
C          1.17690       -1.63310       -2.91490
N          1.11620       -0.63780       -1.97790
C          2.11120        0.28140       -2.27320
C          2.55000        1.47660       -1.64150
N          2.21880        2.09710       -0.45010
C          2.95220        3.24850       -0.35590
C          3.12040        4.28920        0.56200
S          2.49790        4.69820        2.11960
C          1.54990        1.58760        0.72600
C          2.28040        0.37740        1.30270
C         -0.08210       -0.50190       -1.17790
C         -0.94630        0.66090       -1.65780
C         -1.56190       -6.02110       -3.90160
C         -2.71700       -6.27930       -3.22840
C         -3.14490       -7.68900       -3.02520
O         -2.73710       -8.66370       -3.61610
C         -4.10200       -7.64250       -1.90160
C         -4.67620       -8.72380       -1.23690
C         -5.50400       -8.36820       -0.19900
C         -5.74930       -7.03450        0.15540
C         -5.19930       -5.95690       -0.49710
C         -4.35190       -6.29810       -1.55310
C         -3.62190       -5.43730       -2.47990
C         -3.94260       -4.13820       -2.77860
C         -3.42680       -3.45100       -3.89780
N         -3.07420       -2.86940       -4.82270
C         -4.88150       -3.36830       -2.06590
N         -5.61030       -2.68020       -1.50510
C         -6.65520       -7.42050        1.29720
C         -6.08150       -7.33600        2.73340
C         -4.58850       -7.51310        2.61030
C         -4.35670       -8.77520        2.27480
C         -5.68900       -9.47450        2.16510
C         -6.47700       -8.72740        3.25310
C         -6.38320       -8.90630        0.90230
H          4.26850        7.88050        2.97680
H          0.53400        4.85900        7.03080
H          0.28010        5.88760        9.28750
H          1.34730        8.03960        9.78520
H          2.66670        9.22490        8.09560
H          3.83400        8.87330        0.80590
H          5.51780        9.17920        0.32400
H          4.05200        9.28890       -1.65870
H          3.41390        7.67470       -1.33090
H          5.10730        7.87430       -1.79630
H          1.11820       -7.14890       -4.75260
H          1.50400       -7.04630       -6.49030
H          2.97050       -5.58040       -4.22770
H          3.58160       -6.95080       -5.16000
H          3.31930       -5.38810       -5.94950
H          1.55800        2.39440        1.46250
H          0.50590        1.36550        0.50650
H          1.74520        0.00140        2.17030
H          3.28210        0.66440        1.61360
H          2.36890       -0.41990        0.56810
H          0.16800       -0.41290       -0.12130
H         -0.64020       -1.43370       -1.29650
H         -1.83050        0.74690       -1.03230
H         -0.39800        1.59980       -1.62710
H         -1.26600        0.48630       -2.68240
H         -1.19370       -6.83810       -4.51440
H         -4.46540       -9.73730       -1.54030
H         -5.38800       -4.93370       -0.21560
H         -7.67860       -7.05580        1.23740
H         -6.41750       -6.47400        3.30350
H         -3.87920       -6.71350        2.71960
H         -3.41530       -9.24040        2.04810
H         -5.66710      -10.55970        2.21900
H         -6.10140       -8.92500        4.25600
H         -7.54930       -8.91480        3.21820
H         -7.22970       -9.51240        0.58580
