
  xtb     01262217123D
 energy: -255.900273669201 gnorm: 0.000230955340 xtb: 6.4.1 (unknown)
163180  0     0  0            999 V2000
   -5.5361   -0.9369    8.0263 C   0  0  0  0  0  0  0  0  0  0  0  0
   -5.2886   -0.1805    9.1463 C   0  0  0  0  0  0  0  0  0  0  0  0
   -4.0464    0.5349    9.4577 C   0  0  0  0  0  0  0  0  0  0  0  0
   -3.0173    0.5633    8.8059 O   0  0  0  0  0  0  0  0  0  0  0  0
   -4.2806    1.2186   10.7434 C   0  0  0  0  0  0  0  0  0  0  0  0
   -3.4241    2.0305   11.4596 C   0  0  0  0  0  0  0  0  0  0  0  0
   -3.8786    2.5677   12.6560 C   0  0  0  0  0  0  0  0  0  0  0  0
   -5.1593    2.2885   13.1094 C   0  0  0  0  0  0  0  0  0  0  0  0
   -6.0229    1.4709   12.3909 C   0  0  0  0  0  0  0  0  0  0  0  0
   -5.5800    0.9295   11.1946 C   0  0  0  0  0  0  0  0  0  0  0  0
   -6.2325    0.0531   10.2203 C   0  0  0  0  0  0  0  0  0  0  0  0
   -7.5113   -0.4319   10.3318 C   0  0  0  0  0  0  0  0  0  0  0  0
   -8.1644   -1.2696    9.4046 C   0  0  0  0  0  0  0  0  0  0  0  0
   -8.7716   -1.9490    8.7036 N   0  0  0  0  0  0  0  0  0  0  0  0
   -8.3741   -0.1531   11.4124 C   0  0  0  0  0  0  0  0  0  0  0  0
   -9.1326    0.0292   12.2551 N   0  0  0  0  0  0  0  0  0  0  0  0
   -4.7500   -1.1968    6.8991 C   0  0  0  0  0  0  0  0  0  0  0  0
   -5.2213   -1.9456    5.8044 C   0  0  0  0  0  0  0  0  0  0  0  0
   -6.5806   -2.5522    5.6737 C   0  0  0  0  0  0  0  0  0  0  0  0
   -7.5893   -1.5214    5.1588 C   0  0  0  0  0  0  0  0  0  0  0  0
   -4.2760   -1.9908    4.7909 C   0  0  0  0  0  0  0  0  0  0  0  0
   -4.2909   -2.6737    3.1830 S   0  0  0  0  0  0  0  0  0  0  0  0
   -2.7119   -2.0179    2.9186 C   0  0  0  0  0  0  0  0  0  0  0  0
   -1.8297   -1.9219    1.7980 C   0  0  0  0  0  0  0  0  0  0  0  0
   -1.9681   -2.3613    0.4838 C   0  0  0  0  0  0  0  0  0  0  0  0
   -0.9957   -1.9801   -0.4104 C   0  0  0  0  0  0  0  0  0  0  0  0
   -0.9380   -2.2515   -1.9041 C   0  0  0  0  0  0  0  0  0  0  0  0
   -2.2616   -1.8833   -2.5433 C   0  0  0  0  0  0  0  0  0  0  0  0
   -3.2773   -2.8269   -2.6314 C   0  0  0  0  0  0  0  0  0  0  0  0
   -4.4982   -2.4923   -3.1849 C   0  0  0  0  0  0  0  0  0  0  0  0
   -4.7376   -1.2110   -3.6646 C   0  0  0  0  0  0  0  0  0  0  0  0
   -6.0770   -0.8424   -4.2335 C   0  0  0  0  0  0  0  0  0  0  0  0
   -7.0145   -0.3630   -3.1233 C   0  0  0  0  0  0  0  0  0  0  0  0
   -3.7248   -0.2678   -3.5591 C   0  0  0  0  0  0  0  0  0  0  0  0
   -2.5033   -0.5958   -3.0006 C   0  0  0  0  0  0  0  0  0  0  0  0
   -0.5351   -3.6791   -2.2395 C   0  0  0  0  0  0  0  0  0  0  0  0
   -0.5664   -4.0889   -3.5673 C   0  0  0  0  0  0  0  0  0  0  0  0
   -0.1745   -5.3663   -3.9159 C   0  0  0  0  0  0  0  0  0  0  0  0
    0.2586   -6.2676   -2.9511 C   0  0  0  0  0  0  0  0  0  0  0  0
    0.7203   -7.6436   -3.3354 C   0  0  0  0  0  0  0  0  0  0  0  0
    2.2228   -7.6419   -3.6243 C   0  0  0  0  0  0  0  0  0  0  0  0
    0.2986   -5.8484   -1.6288 C   0  0  0  0  0  0  0  0  0  0  0  0
   -0.0892   -4.5686   -1.2736 C   0  0  0  0  0  0  0  0  0  0  0  0
    0.2074   -1.3602   -2.3045 C   0  0  0  0  0  0  0  0  0  0  0  0
    0.8029   -0.8028   -1.1870 C   0  0  0  0  0  0  0  0  0  0  0  0
    0.0841   -1.1605   -0.0037 C   0  0  0  0  0  0  0  0  0  0  0  0
    0.2536   -0.7699    1.3217 C   0  0  0  0  0  0  0  0  0  0  0  0
   -0.7094   -1.1657    2.2198 C   0  0  0  0  0  0  0  0  0  0  0  0
   -0.8103   -0.8267    3.6963 C   0  0  0  0  0  0  0  0  0  0  0  0
    0.1412   -1.6350    4.5667 C   0  0  0  0  0  0  0  0  0  0  0  0
    0.8682   -2.7067    4.0711 C   0  0  0  0  0  0  0  0  0  0  0  0
    1.6755   -3.4511    4.9131 C   0  0  0  0  0  0  0  0  0  0  0  0
    1.7665   -3.1530    6.2653 C   0  0  0  0  0  0  0  0  0  0  0  0
    2.6715   -3.9407    7.1683 C   0  0  0  0  0  0  0  0  0  0  0  0
    4.0668   -3.3142    7.2065 C   0  0  0  0  0  0  0  0  0  0  0  0
    1.0321   -2.0799    6.7555 C   0  0  0  0  0  0  0  0  0  0  0  0
    0.2272   -1.3307    5.9204 C   0  0  0  0  0  0  0  0  0  0  0  0
   -0.6207    0.6602    3.9047 C   0  0  0  0  0  0  0  0  0  0  0  0
   -1.6990    1.5324    3.8861 C   0  0  0  0  0  0  0  0  0  0  0  0
   -1.5033    2.8911    4.0518 C   0  0  0  0  0  0  0  0  0  0  0  0
   -0.2289    3.4132    4.2238 C   0  0  0  0  0  0  0  0  0  0  0  0
   -0.0214    4.8816    4.4575 C   0  0  0  0  0  0  0  0  0  0  0  0
   -0.0249    5.1854    5.9571 C   0  0  0  0  0  0  0  0  0  0  0  0
    0.8489    2.5369    4.2251 C   0  0  0  0  0  0  0  0  0  0  0  0
    0.6582    1.1780    4.0671 C   0  0  0  0  0  0  0  0  0  0  0  0
   -2.1923   -1.3359    4.0060 C   0  0  0  0  0  0  0  0  0  0  0  0
   -3.0751   -1.3156    5.0833 C   0  0  0  0  0  0  0  0  0  0  0  0
   -3.1076   -0.5977    6.6453 S   0  0  0  0  0  0  0  0  0  0  0  0
    2.1086    0.2673   -1.5499 S   0  0  0  0  0  0  0  0  0  0  0  0
    1.8455    0.0053   -3.2561 C   0  0  0  0  0  0  0  0  0  0  0  0
    2.4081    0.5510   -4.4174 C   0  0  0  0  0  0  0  0  0  0  0  0
    3.4292    1.6344   -4.4582 C   0  0  0  0  0  0  0  0  0  0  0  0
    3.4098    2.5716   -3.2569 C   0  0  0  0  0  0  0  0  0  0  0  0
    1.7850    0.0288   -5.5547 C   0  0  0  0  0  0  0  0  0  0  0  0
    0.4937   -1.1102   -5.1578 S   0  0  0  0  0  0  0  0  0  0  0  0
    0.8018   -0.9111   -3.4810 C   0  0  0  0  0  0  0  0  0  0  0  0
    1.8819    0.3846   -6.9124 C   0  0  0  0  0  0  0  0  0  0  0  0
    2.9511    0.8926   -7.6037 C   0  0  0  0  0  0  0  0  0  0  0  0
    4.3748    0.7023   -7.2655 C   0  0  0  0  0  0  0  0  0  0  0  0
    4.8380    0.1006   -6.3155 O   0  0  0  0  0  0  0  0  0  0  0  0
    5.1370    1.2813   -8.3900 C   0  0  0  0  0  0  0  0  0  0  0  0
    6.5227    1.3674   -8.5050 C   0  0  0  0  0  0  0  0  0  0  0  0
    6.9524    1.9731   -9.6616 C   0  0  0  0  0  0  0  0  0  0  0  0
    6.0692    2.4513  -10.6385 C   0  0  0  0  0  0  0  0  0  0  0  0
    4.7011    2.3646  -10.5428 C   0  0  0  0  0  0  0  0  0  0  0  0
    4.2431    1.7555   -9.3703 C   0  0  0  0  0  0  0  0  0  0  0  0
    2.8786    1.5210   -8.9072 C   0  0  0  0  0  0  0  0  0  0  0  0
    1.7349    1.9228   -9.5497 C   0  0  0  0  0  0  0  0  0  0  0  0
    1.7036    2.5348  -10.8195 C   0  0  0  0  0  0  0  0  0  0  0  0
    1.6006    3.0259  -11.8525 N   0  0  0  0  0  0  0  0  0  0  0  0
    0.4289    1.8150   -9.0273 C   0  0  0  0  0  0  0  0  0  0  0  0
   -0.6609    1.7987   -8.6639 N   0  0  0  0  0  0  0  0  0  0  0  0
    7.1864    2.9422  -11.5249 C   0  0  0  0  0  0  0  0  0  0  0  0
    7.5287    2.0729  -12.7529 C   0  0  0  0  0  0  0  0  0  0  0  0
    8.9209    2.5209  -13.1353 C   0  0  0  0  0  0  0  0  0  0  0  0
    9.7584    2.0683  -12.2110 C   0  0  0  0  0  0  0  0  0  0  0  0
    8.9465    1.3062  -11.1884 C   0  0  0  0  0  0  0  0  0  0  0  0
    7.8557    0.7250  -12.0972 C   0  0  0  0  0  0  0  0  0  0  0  0
    8.1721    2.4090  -10.4360 C   0  0  0  0  0  0  0  0  0  0  0  0
   -6.5127   -1.3992    7.9804 H   0  0  0  0  0  0  0  0  0  0  0  0
   -2.4323    2.2337   11.0858 H   0  0  0  0  0  0  0  0  0  0  0  0
   -3.2327    3.2074   13.2384 H   0  0  0  0  0  0  0  0  0  0  0  0
   -5.4977    2.7145   14.0420 H   0  0  0  0  0  0  0  0  0  0  0  0
   -7.0120    1.2735   12.7699 H   0  0  0  0  0  0  0  0  0  0  0  0
   -6.9268   -2.9518    6.6277 H   0  0  0  0  0  0  0  0  0  0  0  0
   -6.5201   -3.3770    4.9604 H   0  0  0  0  0  0  0  0  0  0  0  0
   -8.5677   -1.9822    5.0582 H   0  0  0  0  0  0  0  0  0  0  0  0
   -7.6726   -0.6862    5.8501 H   0  0  0  0  0  0  0  0  0  0  0  0
   -7.2798   -1.1401    4.1882 H   0  0  0  0  0  0  0  0  0  0  0  0
   -2.8222   -2.9474    0.1811 H   0  0  0  0  0  0  0  0  0  0  0  0
   -3.1067   -3.8334   -2.2768 H   0  0  0  0  0  0  0  0  0  0  0  0
   -5.2753   -3.2405   -3.2512 H   0  0  0  0  0  0  0  0  0  0  0  0
   -5.9590   -0.0486   -4.9733 H   0  0  0  0  0  0  0  0  0  0  0  0
   -6.5199   -1.7088   -4.7287 H   0  0  0  0  0  0  0  0  0  0  0  0
   -6.5956    0.5084   -2.6249 H   0  0  0  0  0  0  0  0  0  0  0  0
   -7.9853   -0.0955   -3.5340 H   0  0  0  0  0  0  0  0  0  0  0  0
   -7.1545   -1.1461   -2.3813 H   0  0  0  0  0  0  0  0  0  0  0  0
   -3.8904    0.7363   -3.9223 H   0  0  0  0  0  0  0  0  0  0  0  0
   -1.7341    0.1589   -2.9242 H   0  0  0  0  0  0  0  0  0  0  0  0
   -0.9090   -3.4035   -4.3291 H   0  0  0  0  0  0  0  0  0  0  0  0
   -0.2089   -5.6690   -4.9525 H   0  0  0  0  0  0  0  0  0  0  0  0
    0.5109   -8.3445   -2.5246 H   0  0  0  0  0  0  0  0  0  0  0  0
    0.1834   -7.9791   -4.2248 H   0  0  0  0  0  0  0  0  0  0  0  0
    2.5578   -8.6379   -3.9043 H   0  0  0  0  0  0  0  0  0  0  0  0
    2.7770   -7.3231   -2.7443 H   0  0  0  0  0  0  0  0  0  0  0  0
    2.4505   -6.9567   -4.4377 H   0  0  0  0  0  0  0  0  0  0  0  0
    0.6352   -6.5323   -0.8625 H   0  0  0  0  0  0  0  0  0  0  0  0
   -0.0482   -4.2679   -0.2369 H   0  0  0  0  0  0  0  0  0  0  0  0
    1.0898   -0.1549    1.6165 H   0  0  0  0  0  0  0  0  0  0  0  0
    0.8083   -2.9650    3.0238 H   0  0  0  0  0  0  0  0  0  0  0  0
    2.2379   -4.2820    4.5109 H   0  0  0  0  0  0  0  0  0  0  0  0
    2.7487   -4.9694    6.8101 H   0  0  0  0  0  0  0  0  0  0  0  0
    2.2586   -3.9604    8.1788 H   0  0  0  0  0  0  0  0  0  0  0  0
    4.0115   -2.2913    7.5723 H   0  0  0  0  0  0  0  0  0  0  0  0
    4.5014   -3.2978    6.2094 H   0  0  0  0  0  0  0  0  0  0  0  0
    4.7221   -3.8831    7.8619 H   0  0  0  0  0  0  0  0  0  0  0  0
    1.0841   -1.8314    7.8056 H   0  0  0  0  0  0  0  0  0  0  0  0
   -0.3393   -0.5024    6.3202 H   0  0  0  0  0  0  0  0  0  0  0  0
   -2.6997    1.1511    3.7439 H   0  0  0  0  0  0  0  0  0  0  0  0
   -2.3554    3.5558    4.0448 H   0  0  0  0  0  0  0  0  0  0  0  0
    0.9333    5.1941    4.0291 H   0  0  0  0  0  0  0  0  0  0  0  0
   -0.8167    5.4510    3.9723 H   0  0  0  0  0  0  0  0  0  0  0  0
    0.1194    6.2492    6.1311 H   0  0  0  0  0  0  0  0  0  0  0  0
   -0.9713    4.8844    6.4007 H   0  0  0  0  0  0  0  0  0  0  0  0
    0.7734    4.6395    6.4548 H   0  0  0  0  0  0  0  0  0  0  0  0
    1.8502    2.9235    4.3524 H   0  0  0  0  0  0  0  0  0  0  0  0
    1.5082    0.5108    4.0829 H   0  0  0  0  0  0  0  0  0  0  0  0
    3.2786    2.2108   -5.3763 H   0  0  0  0  0  0  0  0  0  0  0  0
    4.4172    1.1674   -4.5440 H   0  0  0  0  0  0  0  0  0  0  0  0
    3.7545    2.0688   -2.3574 H   0  0  0  0  0  0  0  0  0  0  0  0
    2.4074    2.9557   -3.0800 H   0  0  0  0  0  0  0  0  0  0  0  0
    4.0716    3.4135   -3.4460 H   0  0  0  0  0  0  0  0  0  0  0  0
    0.9669    0.2230   -7.4718 H   0  0  0  0  0  0  0  0  0  0  0  0
    7.1675    0.9907   -7.7264 H   0  0  0  0  0  0  0  0  0  0  0  0
    4.0348    2.7360  -11.3032 H   0  0  0  0  0  0  0  0  0  0  0  0
    7.1814    4.0079  -11.7459 H   0  0  0  0  0  0  0  0  0  0  0  0
    6.7785    2.0799  -13.5388 H   0  0  0  0  0  0  0  0  0  0  0  0
    9.1385    3.1479  -13.9800 H   0  0  0  0  0  0  0  0  0  0  0  0
   10.8155    2.2419  -12.1294 H   0  0  0  0  0  0  0  0  0  0  0  0
    9.4890    0.6137  -10.5504 H   0  0  0  0  0  0  0  0  0  0  0  0
    7.0211    0.2794  -11.5592 H   0  0  0  0  0  0  0  0  0  0  0  0
    8.2545    0.0062  -12.8111 H   0  0  0  0  0  0  0  0  0  0  0  0
    8.8251    3.1196   -9.9325 H   0  0  0  0  0  0  0  0  0  0  0  0
  1  2  2  0  0  0  0
  2  3  1  0  0  0  0
  3  4  2  0  0  0  0
  3  5  1  0  0  0  0
  5  6  2  0  0  0  0
  6  7  1  0  0  0  0
  7  8  2  0  0  0  0
  8  9  1  0  0  0  0
  9 10  2  0  0  0  0
 10 11  1  0  0  0  0
 11 12  2  0  0  0  0
 12 13  1  0  0  0  0
 13 14  3  0  0  0  0
 12 15  1  0  0  0  0
 15 16  3  0  0  0  0
  1 17  1  0  0  0  0
 17 18  2  0  0  0  0
 18 19  1  0  0  0  0
 19 20  1  0  0  0  0
 18 21  1  0  0  0  0
 21 22  1  0  0  0  0
 22 23  1  0  0  0  0
 23 24  1  0  0  0  0
 24 25  2  0  0  0  0
 25 26  1  0  0  0  0
 26 27  1  0  0  0  0
 27 28  1  0  0  0  0
 28 29  2  0  0  0  0
 29 30  1  0  0  0  0
 30 31  2  0  0  0  0
 31 32  1  0  0  0  0
 32 33  1  0  0  0  0
 31 34  1  0  0  0  0
 34 35  2  0  0  0  0
 27 36  1  0  0  0  0
 36 37  2  0  0  0  0
 37 38  1  0  0  0  0
 38 39  2  0  0  0  0
 39 40  1  0  0  0  0
 40 41  1  0  0  0  0
 39 42  1  0  0  0  0
 42 43  2  0  0  0  0
 27 44  1  0  0  0  0
 44 45  2  0  0  0  0
 45 46  1  0  0  0  0
 46 47  1  0  0  0  0
 47 48  2  0  0  0  0
 48 49  1  0  0  0  0
 49 50  1  0  0  0  0
 50 51  2  0  0  0  0
 51 52  1  0  0  0  0
 52 53  2  0  0  0  0
 53 54  1  0  0  0  0
 54 55  1  0  0  0  0
 53 56  1  0  0  0  0
 56 57  2  0  0  0  0
 49 58  1  0  0  0  0
 58 59  2  0  0  0  0
 59 60  1  0  0  0  0
 60 61  2  0  0  0  0
 61 62  1  0  0  0  0
 62 63  1  0  0  0  0
 61 64  1  0  0  0  0
 64 65  2  0  0  0  0
 49 66  1  0  0  0  0
 66 67  1  0  0  0  0
 67 68  1  0  0  0  0
 45 69  1  0  0  0  0
 69 70  1  0  0  0  0
 70 71  1  0  0  0  0
 71 72  1  0  0  0  0
 72 73  1  0  0  0  0
 71 74  2  0  0  0  0
 74 75  1  0  0  0  0
 75 76  1  0  0  0  0
 74 77  1  0  0  0  0
 77 78  2  0  0  0  0
 78 79  1  0  0  0  0
 79 80  2  0  0  0  0
 79 81  1  0  0  0  0
 81 82  2  0  0  0  0
 82 83  1  0  0  0  0
 83 84  2  0  0  0  0
 84 85  1  0  0  0  0
 85 86  2  0  0  0  0
 86 87  1  0  0  0  0
 87 88  2  0  0  0  0
 88 89  1  0  0  0  0
 89 90  3  0  0  0  0
 88 91  1  0  0  0  0
 91 92  3  0  0  0  0
 84 93  1  0  0  0  0
 93 94  1  0  0  0  0
 94 95  1  0  0  0  0
 95 96  2  0  0  0  0
 96 97  1  0  0  0  0
 97 98  1  0  0  0  0
 97 99  1  0  0  0  0
 11  2  1  0  0  0  0
 68 17  1  0  0  0  0
 76 70  2  0  0  0  0
 87 78  1  0  0  0  0
 99 93  1  0  0  0  0
 10  5  1  0  0  0  0
 67 21  2  0  0  0  0
 86 81  1  0  0  0  0
 98 94  1  0  0  0  0
 66 23  2  0  0  0  0
 99 83  1  0  0  0  0
 48 24  1  0  0  0  0
 57 50  1  0  0  0  0
 65 58  1  0  0  0  0
 46 26  2  0  0  0  0
 35 28  1  0  0  0  0
 43 36  1  0  0  0  0
 76 44  1  0  0  0  0
  1100  1  0  0  0  0
  6101  1  0  0  0  0
  7102  1  0  0  0  0
  8103  1  0  0  0  0
  9104  1  0  0  0  0
 19105  1  0  0  0  0
 19106  1  0  0  0  0
 20107  1  0  0  0  0
 20108  1  0  0  0  0
 20109  1  0  0  0  0
 25110  1  0  0  0  0
 29111  1  0  0  0  0
 30112  1  0  0  0  0
 32113  1  0  0  0  0
 32114  1  0  0  0  0
 33115  1  0  0  0  0
 33116  1  0  0  0  0
 33117  1  0  0  0  0
 34118  1  0  0  0  0
 35119  1  0  0  0  0
 37120  1  0  0  0  0
 38121  1  0  0  0  0
 40122  1  0  0  0  0
 40123  1  0  0  0  0
 41124  1  0  0  0  0
 41125  1  0  0  0  0
 41126  1  0  0  0  0
 42127  1  0  0  0  0
 43128  1  0  0  0  0
 47129  1  0  0  0  0
 51130  1  0  0  0  0
 52131  1  0  0  0  0
 54132  1  0  0  0  0
 54133  1  0  0  0  0
 55134  1  0  0  0  0
 55135  1  0  0  0  0
 55136  1  0  0  0  0
 56137  1  0  0  0  0
 57138  1  0  0  0  0
 59139  1  0  0  0  0
 60140  1  0  0  0  0
 62141  1  0  0  0  0
 62142  1  0  0  0  0
 63143  1  0  0  0  0
 63144  1  0  0  0  0
 63145  1  0  0  0  0
 64146  1  0  0  0  0
 65147  1  0  0  0  0
 72148  1  0  0  0  0
 72149  1  0  0  0  0
 73150  1  0  0  0  0
 73151  1  0  0  0  0
 73152  1  0  0  0  0
 77153  1  0  0  0  0
 82154  1  0  0  0  0
 85155  1  0  0  0  0
 93156  1  0  0  0  0
 94157  1  0  0  0  0
 95158  1  0  0  0  0
 96159  1  0  0  0  0
 97160  1  0  0  0  0
 98161  1  0  0  0  0
 98162  1  0  0  0  0
 99163  1  0  0  0  0
M  END
