
  xtb     02012218393D
 energy: -217.298412774569 gnorm: 0.000538931715 xtb: 6.4.1 (unknown)
117132  0     0  0            999 V2000
   -5.0309   -7.3277   -6.6165 C   0  0  0  0  0  0  0  0  0  0  0  0
   -4.5977   -8.6139   -6.7986 C   0  0  0  0  0  0  0  0  0  0  0  0
   -3.6224   -9.3214   -5.9546 C   0  0  0  0  0  0  0  0  0  0  0  0
   -3.0640   -8.9042   -4.9574 O   0  0  0  0  0  0  0  0  0  0  0  0
   -3.4546  -10.6558   -6.5586 C   0  0  0  0  0  0  0  0  0  0  0  0
   -2.6432  -11.6947   -6.1475 C   0  0  0  0  0  0  0  0  0  0  0  0
   -2.6517  -12.8659   -6.8923 C   0  0  0  0  0  0  0  0  0  0  0  0
   -3.4573  -12.9780   -8.0161 C   0  0  0  0  0  0  0  0  0  0  0  0
   -4.2762  -11.9354   -8.4306 C   0  0  0  0  0  0  0  0  0  0  0  0
   -4.2760  -10.7606   -7.6948 C   0  0  0  0  0  0  0  0  0  0  0  0
   -5.0079   -9.5053   -7.8671 C   0  0  0  0  0  0  0  0  0  0  0  0
   -5.9043   -9.2470   -8.8716 C   0  0  0  0  0  0  0  0  0  0  0  0
   -6.6246   -8.0478   -9.0534 C   0  0  0  0  0  0  0  0  0  0  0  0
   -7.2533   -7.1130   -9.2798 N   0  0  0  0  0  0  0  0  0  0  0  0
   -6.2405  -10.1632   -9.8909 C   0  0  0  0  0  0  0  0  0  0  0  0
   -6.5615  -10.8509  -10.7525 N   0  0  0  0  0  0  0  0  0  0  0  0
   -4.6629   -6.3644   -5.6610 C   0  0  0  0  0  0  0  0  0  0  0  0
   -3.5018   -6.5538   -4.3576 S   0  0  0  0  0  0  0  0  0  0  0  0
   -3.7257   -4.9054   -3.8876 C   0  0  0  0  0  0  0  0  0  0  0  0
   -3.0550   -4.2392   -2.8550 C   0  0  0  0  0  0  0  0  0  0  0  0
   -1.8633   -5.0011   -1.8244 S   0  0  0  0  0  0  0  0  0  0  0  0
   -1.6180   -3.4971   -1.0281 C   0  0  0  0  0  0  0  0  0  0  0  0
   -0.7831   -2.9594   -0.0408 C   0  0  0  0  0  0  0  0  0  0  0  0
    0.2951   -3.5420    0.6599 C   0  0  0  0  0  0  0  0  0  0  0  0
    1.1244   -2.6968    1.4654 C   0  0  0  0  0  0  0  0  0  0  0  0
    2.1388   -3.3505    2.0095 N   0  0  0  0  0  0  0  0  0  0  0  0
    2.0509   -4.9017    1.5519 S   0  0  0  0  0  0  0  0  0  0  0  0
    0.7185   -4.7957    0.6375 N   0  0  0  0  0  0  0  0  0  0  0  0
    0.7667   -1.3396    1.6131 C   0  0  0  0  0  0  0  0  0  0  0  0
    1.3681   -0.3143    2.3538 C   0  0  0  0  0  0  0  0  0  0  0  0
    2.7921   -0.0641    3.2853 S   0  0  0  0  0  0  0  0  0  0  0  0
    2.3299    1.6098    3.5047 C   0  0  0  0  0  0  0  0  0  0  0  0
    3.1295    2.5647    4.1428 C   0  0  0  0  0  0  0  0  0  0  0  0
    2.7602    3.9216    4.2278 C   0  0  0  0  0  0  0  0  0  0  0  0
    1.4919    4.2630    3.6983 C   0  0  0  0  0  0  0  0  0  0  0  0
    0.8401    5.4254    3.6657 N   0  0  0  0  0  0  0  0  0  0  0  0
   -0.2759    5.1586    3.0445 N   0  0  0  0  0  0  0  0  0  0  0  0
   -1.2926    6.1520    2.8540 C   0  0  0  0  0  0  0  0  0  0  0  0
   -2.3292    6.0792    3.9715 C   0  0  0  0  0  0  0  0  0  0  0  0
   -0.4400    3.9181    2.6526 N   0  0  0  0  0  0  0  0  0  0  0  0
    0.6736    3.2910    3.0487 C   0  0  0  0  0  0  0  0  0  0  0  0
    1.0950    1.9435    2.9094 C   0  0  0  0  0  0  0  0  0  0  0  0
    0.5592    0.8184    2.2411 C   0  0  0  0  0  0  0  0  0  0  0  0
   -0.5174    0.5307    1.4403 N   0  0  0  0  0  0  0  0  0  0  0  0
   -0.3950   -0.7822    1.0084 C   0  0  0  0  0  0  0  0  0  0  0  0
   -1.1193   -1.5812    0.0776 C   0  0  0  0  0  0  0  0  0  0  0  0
   -2.1223   -1.3049   -0.8369 N   0  0  0  0  0  0  0  0  0  0  0  0
   -2.4170   -2.4590   -1.5167 C   0  0  0  0  0  0  0  0  0  0  0  0
   -3.2614   -2.8715   -2.5729 C   0  0  0  0  0  0  0  0  0  0  0  0
   -4.2242   -2.2029   -3.3754 C   0  0  0  0  0  0  0  0  0  0  0  0
   -4.9205   -2.8801   -4.4192 C   0  0  0  0  0  0  0  0  0  0  0  0
   -4.6710   -4.2461   -4.7020 C   0  0  0  0  0  0  0  0  0  0  0  0
   -5.1909   -5.0782   -5.6869 C   0  0  0  0  0  0  0  0  0  0  0  0
   -5.7401   -2.0019   -4.9964 N   0  0  0  0  0  0  0  0  0  0  0  0
   -5.5420   -0.8894   -4.3420 N   0  0  0  0  0  0  0  0  0  0  0  0
   -6.2790    0.3054   -4.6345 C   0  0  0  0  0  0  0  0  0  0  0  0
   -7.5184    0.4025   -3.7497 C   0  0  0  0  0  0  0  0  0  0  0  0
   -4.6615   -0.9387   -3.3711 N   0  0  0  0  0  0  0  0  0  0  0  0
   -2.5668   -0.0220   -1.3297 C   0  0  0  0  0  0  0  0  0  0  0  0
   -1.4171    0.7608   -1.9611 C   0  0  0  0  0  0  0  0  0  0  0  0
   -1.7007    1.3622    1.4822 C   0  0  0  0  0  0  0  0  0  0  0  0
   -2.8636    0.6408    2.1594 C   0  0  0  0  0  0  0  0  0  0  0  0
    3.7493    4.7289    4.8013 C   0  0  0  0  0  0  0  0  0  0  0  0
    4.8733    4.0221    5.1700 C   0  0  0  0  0  0  0  0  0  0  0  0
    4.6838    2.2992    4.8417 S   0  0  0  0  0  0  0  0  0  0  0  0
    6.1012    4.4192    5.7465 C   0  0  0  0  0  0  0  0  0  0  0  0
    6.7050    5.6432    5.7571 C   0  0  0  0  0  0  0  0  0  0  0  0
    6.3286    6.8487    4.9715 C   0  0  0  0  0  0  0  0  0  0  0  0
    5.2764    7.0950    4.4205 O   0  0  0  0  0  0  0  0  0  0  0  0
    7.5327    7.6936    4.9637 C   0  0  0  0  0  0  0  0  0  0  0  0
    7.7610    8.8723    4.2818 C   0  0  0  0  0  0  0  0  0  0  0  0
    8.9975    9.4873    4.3940 C   0  0  0  0  0  0  0  0  0  0  0  0
    9.9997    8.9215    5.1857 C   0  0  0  0  0  0  0  0  0  0  0  0
   11.2374    9.4371    5.3398 O   0  0  0  0  0  0  0  0  0  0  0  0
   11.5816   10.6235    4.6623 C   0  0  0  0  0  0  0  0  0  0  0  0
    9.7629    7.7304    5.8897 C   0  0  0  0  0  0  0  0  0  0  0  0
    8.5313    7.1232    5.7759 C   0  0  0  0  0  0  0  0  0  0  0  0
    8.0016    5.8957    6.3627 C   0  0  0  0  0  0  0  0  0  0  0  0
    8.5863    5.1713    7.3656 C   0  0  0  0  0  0  0  0  0  0  0  0
    7.9960    4.0599    8.0056 C   0  0  0  0  0  0  0  0  0  0  0  0
    7.5681    3.1698    8.5914 N   0  0  0  0  0  0  0  0  0  0  0  0
    9.8386    5.4820    7.9367 C   0  0  0  0  0  0  0  0  0  0  0  0
   10.8507    5.6764    8.4418 N   0  0  0  0  0  0  0  0  0  0  0  0
   -5.7635   -6.9548   -7.3223 H   0  0  0  0  0  0  0  0  0  0  0  0
   -2.0245  -11.5831   -5.2705 H   0  0  0  0  0  0  0  0  0  0  0  0
   -2.0270  -13.6955   -6.5973 H   0  0  0  0  0  0  0  0  0  0  0  0
   -3.4516  -13.8959   -8.5848 H   0  0  0  0  0  0  0  0  0  0  0  0
   -4.8907  -12.0535   -9.3078 H   0  0  0  0  0  0  0  0  0  0  0  0
   -0.7961    7.1236    2.8540 H   0  0  0  0  0  0  0  0  0  0  0  0
   -1.7625    5.9694    1.8851 H   0  0  0  0  0  0  0  0  0  0  0  0
   -3.0908    6.8384    3.8191 H   0  0  0  0  0  0  0  0  0  0  0  0
   -2.8044    5.1012    3.9805 H   0  0  0  0  0  0  0  0  0  0  0  0
   -1.8541    6.2482    4.9346 H   0  0  0  0  0  0  0  0  0  0  0  0
   -5.9206   -4.7584   -6.4091 H   0  0  0  0  0  0  0  0  0  0  0  0
   -5.6173    1.1565   -4.4600 H   0  0  0  0  0  0  0  0  0  0  0  0
   -6.5629    0.2604   -5.6873 H   0  0  0  0  0  0  0  0  0  0  0  0
   -8.0691    1.3089   -3.9838 H   0  0  0  0  0  0  0  0  0  0  0  0
   -8.1660   -0.4543   -3.9178 H   0  0  0  0  0  0  0  0  0  0  0  0
   -7.2308    0.4259   -2.7014 H   0  0  0  0  0  0  0  0  0  0  0  0
   -3.3283   -0.2185   -2.0866 H   0  0  0  0  0  0  0  0  0  0  0  0
   -3.0472    0.5416   -0.5306 H   0  0  0  0  0  0  0  0  0  0  0  0
   -1.0250    0.2151   -2.8164 H   0  0  0  0  0  0  0  0  0  0  0  0
   -1.7733    1.7286   -2.3040 H   0  0  0  0  0  0  0  0  0  0  0  0
   -0.6033    0.9154   -1.2564 H   0  0  0  0  0  0  0  0  0  0  0  0
   -1.9680    1.7007    0.4814 H   0  0  0  0  0  0  0  0  0  0  0  0
   -1.4384    2.2529    2.0556 H   0  0  0  0  0  0  0  0  0  0  0  0
   -3.1131   -0.2849    1.6454 H   0  0  0  0  0  0  0  0  0  0  0  0
   -2.6024    0.3967    3.1867 H   0  0  0  0  0  0  0  0  0  0  0  0
   -3.7402    1.2832    2.1694 H   0  0  0  0  0  0  0  0  0  0  0  0
    3.6420    5.7891    4.9284 H   0  0  0  0  0  0  0  0  0  0  0  0
    6.6652    3.5962    6.1723 H   0  0  0  0  0  0  0  0  0  0  0  0
    6.9835    9.3000    3.6677 H   0  0  0  0  0  0  0  0  0  0  0  0
    9.1759   10.4064    3.8587 H   0  0  0  0  0  0  0  0  0  0  0  0
   12.6157   10.8255    4.9352 H   0  0  0  0  0  0  0  0  0  0  0  0
   11.5114   10.5001    3.5772 H   0  0  0  0  0  0  0  0  0  0  0  0
   10.9540   11.4625    4.9774 H   0  0  0  0  0  0  0  0  0  0  0  0
   10.5630    7.3263    6.4870 H   0  0  0  0  0  0  0  0  0  0  0  0
  1  2  2  0  0  0  0
  2  3  1  0  0  0  0
  3  4  2  0  0  0  0
  3  5  1  0  0  0  0
  5  6  2  0  0  0  0
  6  7  1  0  0  0  0
  7  8  2  0  0  0  0
  8  9  1  0  0  0  0
  9 10  2  0  0  0  0
 10 11  1  0  0  0  0
 11 12  2  0  0  0  0
 12 13  1  0  0  0  0
 13 14  3  0  0  0  0
 12 15  1  0  0  0  0
 15 16  3  0  0  0  0
  1 17  1  0  0  0  0
 17 18  1  0  0  0  0
 18 19  1  0  0  0  0
 19 20  1  0  0  0  0
 20 21  1  0  0  0  0
 21 22  1  0  0  0  0
 22 23  1  0  0  0  0
 23 24  1  0  0  0  0
 24 25  1  0  0  0  0
 25 26  2  0  0  0  0
 26 27  1  0  0  0  0
 27 28  1  0  0  0  0
 25 29  1  0  0  0  0
 29 30  1  0  0  0  0
 30 31  1  0  0  0  0
 31 32  1  0  0  0  0
 32 33  1  0  0  0  0
 33 34  2  0  0  0  0
 34 35  1  0  0  0  0
 35 36  2  0  0  0  0
 36 37  1  0  0  0  0
 37 38  1  0  0  0  0
 38 39  1  0  0  0  0
 37 40  1  0  0  0  0
 40 41  2  0  0  0  0
 41 42  1  0  0  0  0
 42 43  1  0  0  0  0
 43 44  1  0  0  0  0
 44 45  1  0  0  0  0
 45 46  1  0  0  0  0
 46 47  1  0  0  0  0
 47 48  1  0  0  0  0
 48 49  1  0  0  0  0
 49 50  1  0  0  0  0
 50 51  1  0  0  0  0
 51 52  1  0  0  0  0
 52 53  1  0  0  0  0
 51 54  2  0  0  0  0
 54 55  1  0  0  0  0
 55 56  1  0  0  0  0
 56 57  1  0  0  0  0
 55 58  1  0  0  0  0
 47 59  1  0  0  0  0
 59 60  1  0  0  0  0
 44 61  1  0  0  0  0
 61 62  1  0  0  0  0
 34 63  1  0  0  0  0
 63 64  2  0  0  0  0
 64 65  1  0  0  0  0
 64 66  1  0  0  0  0
 66 67  2  0  0  0  0
 67 68  1  0  0  0  0
 68 69  2  0  0  0  0
 68 70  1  0  0  0  0
 70 71  2  0  0  0  0
 71 72  1  0  0  0  0
 72 73  2  0  0  0  0
 73 74  1  0  0  0  0
 74 75  1  0  0  0  0
 73 76  1  0  0  0  0
 76 77  2  0  0  0  0
 77 78  1  0  0  0  0
 78 79  2  0  0  0  0
 79 80  1  0  0  0  0
 80 81  3  0  0  0  0
 79 82  1  0  0  0  0
 82 83  3  0  0  0  0
 11  2  1  0  0  0  0
 53 17  2  0  0  0  0
 78 67  1  0  0  0  0
 10  5  1  0  0  0  0
 52 19  2  0  0  0  0
 77 70  1  0  0  0  0
 49 20  2  0  0  0  0
 58 50  2  0  0  0  0
 48 22  2  0  0  0  0
 46 23  2  0  0  0  0
 28 24  2  0  0  0  0
 45 29  2  0  0  0  0
 43 30  2  0  0  0  0
 42 32  2  0  0  0  0
 65 33  1  0  0  0  0
 41 35  1  0  0  0  0
  1 84  1  0  0  0  0
  6 85  1  0  0  0  0
  7 86  1  0  0  0  0
  8 87  1  0  0  0  0
  9 88  1  0  0  0  0
 38 89  1  0  0  0  0
 38 90  1  0  0  0  0
 39 91  1  0  0  0  0
 39 92  1  0  0  0  0
 39 93  1  0  0  0  0
 53 94  1  0  0  0  0
 56 95  1  0  0  0  0
 56 96  1  0  0  0  0
 57 97  1  0  0  0  0
 57 98  1  0  0  0  0
 57 99  1  0  0  0  0
 59100  1  0  0  0  0
 59101  1  0  0  0  0
 60102  1  0  0  0  0
 60103  1  0  0  0  0
 60104  1  0  0  0  0
 61105  1  0  0  0  0
 61106  1  0  0  0  0
 62107  1  0  0  0  0
 62108  1  0  0  0  0
 62109  1  0  0  0  0
 63110  1  0  0  0  0
 66111  1  0  0  0  0
 71112  1  0  0  0  0
 72113  1  0  0  0  0
 75114  1  0  0  0  0
 75115  1  0  0  0  0
 75116  1  0  0  0  0
 76117  1  0  0  0  0
M  END
