117

C         -5.03090       -7.32770       -6.61650
C         -4.59770       -8.61390       -6.79860
C         -3.62240       -9.32140       -5.95460
O         -3.06400       -8.90420       -4.95740
C         -3.45460      -10.65580       -6.55860
C         -2.64320      -11.69470       -6.14750
C         -2.65170      -12.86590       -6.89230
C         -3.45730      -12.97800       -8.01610
C         -4.27620      -11.93540       -8.43060
C         -4.27600      -10.76060       -7.69480
C         -5.00790       -9.50530       -7.86710
C         -5.90430       -9.24700       -8.87160
C         -6.62460       -8.04780       -9.05340
N         -7.25330       -7.11300       -9.27980
C         -6.24050      -10.16320       -9.89090
N         -6.56150      -10.85090      -10.75250
C         -4.66290       -6.36440       -5.66100
S         -3.50180       -6.55380       -4.35760
C         -3.72570       -4.90540       -3.88760
C         -3.05500       -4.23920       -2.85500
S         -1.86330       -5.00110       -1.82440
C         -1.61800       -3.49710       -1.02810
C         -0.78310       -2.95940       -0.04080
C          0.29510       -3.54200        0.65990
C          1.12440       -2.69680        1.46540
N          2.13880       -3.35050        2.00950
S          2.05090       -4.90170        1.55190
N          0.71850       -4.79570        0.63750
C          0.76670       -1.33960        1.61310
C          1.36810       -0.31430        2.35380
S          2.79210       -0.06410        3.28530
C          2.32990        1.60980        3.50470
C          3.12950        2.56470        4.14280
C          2.76020        3.92160        4.22780
C          1.49190        4.26300        3.69830
N          0.84010        5.42540        3.66570
N         -0.27590        5.15860        3.04450
C         -1.29260        6.15200        2.85400
C         -2.32920        6.07920        3.97150
N         -0.44000        3.91810        2.65260
C          0.67360        3.29100        3.04870
C          1.09500        1.94350        2.90940
C          0.55920        0.81840        2.24110
N         -0.51740        0.53070        1.44030
C         -0.39500       -0.78220        1.00840
C         -1.11930       -1.58120        0.07760
N         -2.12230       -1.30490       -0.83690
C         -2.41700       -2.45900       -1.51670
C         -3.26140       -2.87150       -2.57290
C         -4.22420       -2.20290       -3.37540
C         -4.92050       -2.88010       -4.41920
C         -4.67100       -4.24610       -4.70200
C         -5.19090       -5.07820       -5.68690
N         -5.74010       -2.00190       -4.99640
N         -5.54200       -0.88940       -4.34200
C         -6.27900        0.30540       -4.63450
C         -7.51840        0.40250       -3.74970
N         -4.66150       -0.93870       -3.37110
C         -2.56680       -0.02200       -1.32970
C         -1.41710        0.76080       -1.96110
C         -1.70070        1.36220        1.48220
C         -2.86360        0.64080        2.15940
C          3.74930        4.72890        4.80130
C          4.87330        4.02210        5.17000
S          4.68380        2.29920        4.84170
C          6.10120        4.41920        5.74650
C          6.70500        5.64320        5.75710
C          6.32860        6.84870        4.97150
O          5.27640        7.09500        4.42050
C          7.53270        7.69360        4.96370
C          7.76100        8.87230        4.28180
C          8.99750        9.48730        4.39400
C          9.99970        8.92150        5.18570
O         11.23740        9.43710        5.33980
C         11.58160       10.62350        4.66230
C          9.76290        7.73040        5.88970
C          8.53130        7.12320        5.77590
C          8.00160        5.89570        6.36270
C          8.58630        5.17130        7.36560
C          7.99600        4.05990        8.00560
N          7.56810        3.16980        8.59140
C          9.83860        5.48200        7.93670
N         10.85070        5.67640        8.44180
H         -5.76350       -6.95480       -7.32230
H         -2.02450      -11.58310       -5.27050
H         -2.02700      -13.69550       -6.59730
H         -3.45160      -13.89590       -8.58480
H         -4.89070      -12.05350       -9.30780
H         -0.79610        7.12360        2.85400
H         -1.76250        5.96940        1.88510
H         -3.09080        6.83840        3.81910
H         -2.80440        5.10120        3.98050
H         -1.85410        6.24820        4.93460
H         -5.92060       -4.75840       -6.40910
H         -5.61730        1.15650       -4.46000
H         -6.56290        0.26040       -5.68730
H         -8.06910        1.30890       -3.98380
H         -8.16600       -0.45430       -3.91780
H         -7.23080        0.42590       -2.70140
H         -3.32830       -0.21850       -2.08660
H         -3.04720        0.54160       -0.53060
H         -1.02500        0.21510       -2.81640
H         -1.77330        1.72860       -2.30400
H         -0.60330        0.91540       -1.25640
H         -1.96800        1.70070        0.48140
H         -1.43840        2.25290        2.05560
H         -3.11310       -0.28490        1.64540
H         -2.60240        0.39670        3.18670
H         -3.74020        1.28320        2.16940
H          3.64200        5.78910        4.92840
H          6.66520        3.59620        6.17230
H          6.98350        9.30000        3.66770
H          9.17590       10.40640        3.85870
H         12.61570       10.82550        4.93520
H         11.51140       10.50010        3.57720
H         10.95400       11.46250        4.97740
H         10.56300        7.32630        6.48700
