81

N          9.15210        1.56320       -0.62490
C          8.46190        2.16500        0.06440
C          7.67640        2.89620        0.99470
C          8.39860        3.74510        1.80660
C          7.86070        4.61060        2.77880
N          7.49440        5.36870        3.55880
C          9.80120        3.84770        1.67070
N         10.93930        3.94650        1.57580
C          6.27210        2.65620        1.07530
S          5.44490        3.00440        2.59850
C          3.99610        2.38570        1.94280
C          2.66980        2.14670        2.33930
C          1.93120        2.45420        3.50480
C          0.52110        2.16720        3.53750
N         -0.04710        2.57570        4.66130
S          1.08480        3.25010        5.59860
N          2.34660        3.05260        4.60970
C         -0.06320        1.45460        2.46440
C         -1.33640        0.89680        2.26010
S         -2.87190        0.81370        3.04750
C         -3.44380       -0.24270        1.77630
C         -4.65980       -0.89520        1.56210
C         -5.80430       -0.85190        2.51560
C         -5.78090       -2.08050        3.42920
C         -4.61550       -1.68650        0.41630
S         -3.07450       -1.54190       -0.43300
C         -2.47540       -0.49330        0.79310
C         -1.27340        0.15330        1.07070
N         -0.02050        0.24210        0.51820
C          0.72340        1.06030        1.34860
C          2.04050        1.54360        1.22360
N          2.91930        1.48480        0.15400
C          4.13250        1.97870        0.60550
C          5.43460        2.11400        0.09950
C          5.85800        1.69310       -1.27300
C          6.03410        0.17360       -1.34010
C          2.47860        1.67300       -1.21660
C          2.49810        3.15160       -1.60570
C          0.48410       -0.84220       -0.30430
C          0.49240       -2.16390        0.46320
C         -5.66070       -2.47540       -0.09850
C         -5.58910       -3.49770       -1.00230
C         -6.78600       -3.87540       -1.79060
O         -7.93040       -3.53890       -1.59460
C         -6.26100       -4.70240       -2.90400
C         -6.93280       -5.21780       -3.99210
C         -6.20790       -5.94250       -4.93060
Br        -7.10060       -6.65770       -6.43600
C         -4.83530       -6.13810       -4.76700
Br        -3.85360       -7.10560       -6.06150
C         -4.16130       -5.62950       -3.66230
C         -4.88020       -4.90820       -2.72590
C         -4.47470       -4.29220       -1.46440
C         -3.36570       -4.63890       -0.73590
C         -2.32010       -5.44480       -1.22550
N         -1.42340       -6.06150       -1.59110
C         -3.19030       -4.27500        0.61560
N         -3.04110       -4.04160        1.72980
H         -6.74950       -0.82150        1.96990
H         -5.72060        0.05280        3.12070
H         -4.84920       -2.11730        3.98780
H         -5.86280       -2.99290        2.84330
H         -6.60860       -2.03730        4.13170
H          5.10390        2.00070       -1.99890
H          6.79300        2.17790       -1.55060
H          5.12470       -0.33510       -1.02640
H          6.84730       -0.14190       -0.69180
H          6.27310       -0.12750       -2.35630
H          3.11590        1.08870       -1.88530
H          1.45350        1.31680       -1.30480
H          2.15590        3.26450       -2.63090
H          3.49700        3.57180       -1.52320
H          1.83540        3.71680       -0.95360
H         -0.15510       -0.92720       -1.18880
H          1.50280       -0.61630       -0.61320
H          1.13040       -2.08560        1.34060
H         -0.50710       -2.44130        0.78730
H          0.87500       -2.95340       -0.17750
H         -6.66610       -2.18990        0.19580
H         -7.99370       -5.06180       -4.11090
H         -3.10030       -5.79590       -3.56460
