
  xtb     02022205523D
 energy: -201.275531157120 gnorm: 0.000786875866 xtb: 6.4.1 (unknown)
117131  0     0  0            999 V2000
   -4.8233    4.9410   -9.9217 N   0  0  0  0  0  0  0  0  0  0  0  0
   -4.4455    5.0094   -8.8422 C   0  0  0  0  0  0  0  0  0  0  0  0
   -3.8579    5.1656   -7.5566 C   0  0  0  0  0  0  0  0  0  0  0  0
   -3.3471    6.4202   -7.2850 C   0  0  0  0  0  0  0  0  0  0  0  0
   -2.7132    6.7802   -6.0827 C   0  0  0  0  0  0  0  0  0  0  0  0
   -2.2070    7.1250   -5.1108 N   0  0  0  0  0  0  0  0  0  0  0  0
   -3.4618    7.4686   -8.2216 C   0  0  0  0  0  0  0  0  0  0  0  0
   -3.5481    8.3392   -8.9630 N   0  0  0  0  0  0  0  0  0  0  0  0
   -3.7540    4.0228   -6.7209 C   0  0  0  0  0  0  0  0  0  0  0  0
   -4.4546    2.8221   -6.8582 C   0  0  0  0  0  0  0  0  0  0  0  0
   -5.6084    2.6376   -7.7311 C   0  0  0  0  0  0  0  0  0  0  0  0
   -5.7315    1.4926   -8.5140 C   0  0  0  0  0  0  0  0  0  0  0  0
   -6.8296    1.3278   -9.3334 C   0  0  0  0  0  0  0  0  0  0  0  0
   -7.8348    2.2864   -9.3846 C   0  0  0  0  0  0  0  0  0  0  0  0
   -9.0449    2.0895  -10.2483 C   0  0  0  0  0  0  0  0  0  0  0  0
  -10.1764    1.4467   -9.4425 C   0  0  0  0  0  0  0  0  0  0  0  0
   -7.7231    3.4121   -8.5763 C   0  0  0  0  0  0  0  0  0  0  0  0
   -6.6265    3.5907   -7.7598 C   0  0  0  0  0  0  0  0  0  0  0  0
   -3.9682    1.8505   -5.9747 C   0  0  0  0  0  0  0  0  0  0  0  0
   -4.4083    0.1823   -5.6872 S   0  0  0  0  0  0  0  0  0  0  0  0
   -3.2077    0.1069   -4.4443 C   0  0  0  0  0  0  0  0  0  0  0  0
   -2.6474   -0.8300   -3.5650 C   0  0  0  0  0  0  0  0  0  0  0  0
   -2.8360   -2.2252   -3.4450 C   0  0  0  0  0  0  0  0  0  0  0  0
   -1.9842   -2.9653   -2.5589 C   0  0  0  0  0  0  0  0  0  0  0  0
   -2.2236   -4.2664   -2.5994 N   0  0  0  0  0  0  0  0  0  0  0  0
   -3.4197   -4.5373   -3.6546 S   0  0  0  0  0  0  0  0  0  0  0  0
   -3.6789   -3.0035   -4.1047 N   0  0  0  0  0  0  0  0  0  0  0  0
   -1.0814   -2.2614   -1.7306 C   0  0  0  0  0  0  0  0  0  0  0  0
   -0.2555   -2.6963   -0.6837 C   0  0  0  0  0  0  0  0  0  0  0  0
    0.2250   -4.1699    0.0860 S   0  0  0  0  0  0  0  0  0  0  0  0
    1.1425   -3.2282    1.2469 C   0  0  0  0  0  0  0  0  0  0  0  0
    1.9396   -3.5799    2.3353 C   0  0  0  0  0  0  0  0  0  0  0  0
    2.2281   -4.9532    2.7341 C   0  0  0  0  0  0  0  0  0  0  0  0
    1.2000   -5.8890    2.8256 C   0  0  0  0  0  0  0  0  0  0  0  0
    1.4679   -7.1795    3.2356 C   0  0  0  0  0  0  0  0  0  0  0  0
    2.7611   -7.5750    3.5550 C   0  0  0  0  0  0  0  0  0  0  0  0
    3.0570   -8.9794    3.9898 C   0  0  0  0  0  0  0  0  0  0  0  0
    3.5486   -9.8182    2.8081 C   0  0  0  0  0  0  0  0  0  0  0  0
    3.7905   -6.6502    3.4224 C   0  0  0  0  0  0  0  0  0  0  0  0
    3.5329   -5.3573    3.0182 C   0  0  0  0  0  0  0  0  0  0  0  0
    2.4439   -2.4412    2.9947 C   0  0  0  0  0  0  0  0  0  0  0  0
    1.9820   -0.9464    2.1862 S   0  0  0  0  0  0  0  0  0  0  0  0
    1.0726   -1.8440    1.0273 C   0  0  0  0  0  0  0  0  0  0  0  0
    0.2834   -1.5497   -0.0891 C   0  0  0  0  0  0  0  0  0  0  0  0
   -0.1354   -0.4276   -0.7549 N   0  0  0  0  0  0  0  0  0  0  0  0
   -0.9719   -0.8408   -1.7786 C   0  0  0  0  0  0  0  0  0  0  0  0
   -1.6596   -0.1403   -2.8029 C   0  0  0  0  0  0  0  0  0  0  0  0
   -1.5858    1.1612   -3.2587 N   0  0  0  0  0  0  0  0  0  0  0  0
   -2.5216    1.3126   -4.2463 C   0  0  0  0  0  0  0  0  0  0  0  0
   -2.9412    2.3052   -5.1338 C   0  0  0  0  0  0  0  0  0  0  0  0
   -2.5445    3.9540   -5.4429 S   0  0  0  0  0  0  0  0  0  0  0  0
   -0.5425    2.1495   -3.0962 C   0  0  0  0  0  0  0  0  0  0  0  0
   -1.0128    3.3665   -2.3011 C   0  0  0  0  0  0  0  0  0  0  0  0
   -0.1051    0.8374   -0.0505 C   0  0  0  0  0  0  0  0  0  0  0  0
   -1.4184    1.0763    0.6909 C   0  0  0  0  0  0  0  0  0  0  0  0
    3.1157   -2.5202    4.2206 C   0  0  0  0  0  0  0  0  0  0  0  0
    3.6511   -1.5324    5.0092 C   0  0  0  0  0  0  0  0  0  0  0  0
    3.6767   -0.1010    4.7013 C   0  0  0  0  0  0  0  0  0  0  0  0
    3.2335    0.4546    3.7083 O   0  0  0  0  0  0  0  0  0  0  0  0
    4.3404    0.5584    5.8365 C   0  0  0  0  0  0  0  0  0  0  0  0
    4.5839    1.9218    5.9876 C   0  0  0  0  0  0  0  0  0  0  0  0
    5.2080    2.2497    7.1670 C   0  0  0  0  0  0  0  0  0  0  0  0
    5.5662    1.2910    8.1238 C   0  0  0  0  0  0  0  0  0  0  0  0
    5.3375   -0.0575    7.9833 C   0  0  0  0  0  0  0  0  0  0  0  0
    4.6997   -0.4142    6.7911 C   0  0  0  0  0  0  0  0  0  0  0  0
    4.2886   -1.7286    6.2961 C   0  0  0  0  0  0  0  0  0  0  0  0
    4.4860   -2.9160    6.9542 C   0  0  0  0  0  0  0  0  0  0  0  0
    4.1079   -4.1975    6.5015 C   0  0  0  0  0  0  0  0  0  0  0  0
    3.8486   -5.2824    6.2238 N   0  0  0  0  0  0  0  0  0  0  0  0
    5.1149   -3.0365    8.2114 C   0  0  0  0  0  0  0  0  0  0  0  0
    5.6154   -3.2193    9.2287 N   0  0  0  0  0  0  0  0  0  0  0  0
    6.1357    2.3246    9.0632 C   0  0  0  0  0  0  0  0  0  0  0  0
    5.2598    2.7095   10.2746 C   0  0  0  0  0  0  0  0  0  0  0  0
    5.8260    4.0376   10.7226 C   0  0  0  0  0  0  0  0  0  0  0  0
    5.4892    4.9462    9.8161 C   0  0  0  0  0  0  0  0  0  0  0  0
    4.6897    4.2473    8.7402 C   0  0  0  0  0  0  0  0  0  0  0  0
    3.9736    3.1891    9.5894 C   0  0  0  0  0  0  0  0  0  0  0  0
    5.7380    3.3936    7.9953 C   0  0  0  0  0  0  0  0  0  0  0  0
   -4.9496    0.7480   -8.4961 H   0  0  0  0  0  0  0  0  0  0  0  0
   -6.9046    0.4437   -9.9496 H   0  0  0  0  0  0  0  0  0  0  0  0
   -8.7954    1.4480  -11.0951 H   0  0  0  0  0  0  0  0  0  0  0  0
   -9.3809    3.0533  -10.6351 H   0  0  0  0  0  0  0  0  0  0  0  0
  -10.4483    2.0782   -8.5998 H   0  0  0  0  0  0  0  0  0  0  0  0
   -9.8643    0.4785   -9.0574 H   0  0  0  0  0  0  0  0  0  0  0  0
  -11.0542    1.3056  -10.0683 H   0  0  0  0  0  0  0  0  0  0  0  0
   -8.5024    4.1598   -8.5922 H   0  0  0  0  0  0  0  0  0  0  0  0
   -6.5663    4.4619   -7.1219 H   0  0  0  0  0  0  0  0  0  0  0  0
    0.1863   -5.5900    2.6034 H   0  0  0  0  0  0  0  0  0  0  0  0
    0.6570   -7.8886    3.3209 H   0  0  0  0  0  0  0  0  0  0  0  0
    2.1573   -9.4355    4.4063 H   0  0  0  0  0  0  0  0  0  0  0  0
    3.8244   -8.9647    4.7658 H   0  0  0  0  0  0  0  0  0  0  0  0
    3.7603  -10.8358    3.1277 H   0  0  0  0  0  0  0  0  0  0  0  0
    2.7934   -9.8496    2.0257 H   0  0  0  0  0  0  0  0  0  0  0  0
    4.4565   -9.3900    2.3894 H   0  0  0  0  0  0  0  0  0  0  0  0
    4.8038   -6.9441    3.6515 H   0  0  0  0  0  0  0  0  0  0  0  0
    4.3472   -4.6567    2.8990 H   0  0  0  0  0  0  0  0  0  0  0  0
    0.3253    1.6689   -2.6429 H   0  0  0  0  0  0  0  0  0  0  0  0
   -0.2443    2.4815   -4.0974 H   0  0  0  0  0  0  0  0  0  0  0  0
   -1.7577    3.9204   -2.8660 H   0  0  0  0  0  0  0  0  0  0  0  0
   -0.1726    4.0293   -2.1139 H   0  0  0  0  0  0  0  0  0  0  0  0
   -1.4551    3.0774   -1.3519 H   0  0  0  0  0  0  0  0  0  0  0  0
    0.1034    1.6616   -0.7253 H   0  0  0  0  0  0  0  0  0  0  0  0
    0.7164    0.7768    0.6672 H   0  0  0  0  0  0  0  0  0  0  0  0
   -2.2538    1.1099   -0.0061 H   0  0  0  0  0  0  0  0  0  0  0  0
   -1.3713    2.0165    1.2333 H   0  0  0  0  0  0  0  0  0  0  0  0
   -1.5987    0.2748    1.4035 H   0  0  0  0  0  0  0  0  0  0  0  0
    3.1898   -3.5326    4.5983 H   0  0  0  0  0  0  0  0  0  0  0  0
    4.2921    2.6247    5.2230 H   0  0  0  0  0  0  0  0  0  0  0  0
    5.6245   -0.7794    8.7289 H   0  0  0  0  0  0  0  0  0  0  0  0
    7.1871    2.2078    9.3184 H   0  0  0  0  0  0  0  0  0  0  0  0
    5.1662    1.9362   11.0320 H   0  0  0  0  0  0  0  0  0  0  0  0
    6.4397    4.1645   11.5950 H   0  0  0  0  0  0  0  0  0  0  0  0
    5.7655    5.9837    9.7798 H   0  0  0  0  0  0  0  0  0  0  0  0
    4.0761    4.8760    8.1003 H   0  0  0  0  0  0  0  0  0  0  0  0
    3.4672    2.4210    9.0077 H   0  0  0  0  0  0  0  0  0  0  0  0
    3.2727    3.6327   10.2947 H   0  0  0  0  0  0  0  0  0  0  0  0
    6.5249    3.9893    7.5363 H   0  0  0  0  0  0  0  0  0  0  0  0
  1  2  3  0  0  0  0
  2  3  1  0  0  0  0
  3  4  2  0  0  0  0
  4  5  1  0  0  0  0
  5  6  3  0  0  0  0
  4  7  1  0  0  0  0
  7  8  3  0  0  0  0
  3  9  1  0  0  0  0
  9 10  2  0  0  0  0
 10 11  1  0  0  0  0
 11 12  2  0  0  0  0
 12 13  1  0  0  0  0
 13 14  2  0  0  0  0
 14 15  1  0  0  0  0
 15 16  1  0  0  0  0
 14 17  1  0  0  0  0
 17 18  2  0  0  0  0
 10 19  1  0  0  0  0
 19 20  1  0  0  0  0
 20 21  1  0  0  0  0
 21 22  1  0  0  0  0
 22 23  1  0  0  0  0
 23 24  1  0  0  0  0
 24 25  2  0  0  0  0
 25 26  1  0  0  0  0
 26 27  1  0  0  0  0
 24 28  1  0  0  0  0
 28 29  1  0  0  0  0
 29 30  1  0  0  0  0
 30 31  1  0  0  0  0
 31 32  1  0  0  0  0
 32 33  1  0  0  0  0
 33 34  2  0  0  0  0
 34 35  1  0  0  0  0
 35 36  2  0  0  0  0
 36 37  1  0  0  0  0
 37 38  1  0  0  0  0
 36 39  1  0  0  0  0
 39 40  2  0  0  0  0
 32 41  2  0  0  0  0
 41 42  1  0  0  0  0
 42 43  1  0  0  0  0
 43 44  1  0  0  0  0
 44 45  1  0  0  0  0
 45 46  1  0  0  0  0
 46 47  1  0  0  0  0
 47 48  1  0  0  0  0
 48 49  1  0  0  0  0
 49 50  1  0  0  0  0
 50 51  1  0  0  0  0
 48 52  1  0  0  0  0
 52 53  1  0  0  0  0
 45 54  1  0  0  0  0
 54 55  1  0  0  0  0
 41 56  1  0  0  0  0
 56 57  2  0  0  0  0
 57 58  1  0  0  0  0
 58 59  2  0  0  0  0
 58 60  1  0  0  0  0
 60 61  2  0  0  0  0
 61 62  1  0  0  0  0
 62 63  2  0  0  0  0
 63 64  1  0  0  0  0
 64 65  2  0  0  0  0
 65 66  1  0  0  0  0
 66 67  2  0  0  0  0
 67 68  1  0  0  0  0
 68 69  3  0  0  0  0
 67 70  1  0  0  0  0
 70 71  3  0  0  0  0
 63 72  1  0  0  0  0
 72 73  1  0  0  0  0
 73 74  1  0  0  0  0
 74 75  2  0  0  0  0
 75 76  1  0  0  0  0
 76 77  1  0  0  0  0
 76 78  1  0  0  0  0
 51  9  1  0  0  0  0
 66 57  1  0  0  0  0
 78 72  1  0  0  0  0
 18 11  1  0  0  0  0
 50 19  2  0  0  0  0
 65 60  1  0  0  0  0
 77 73  1  0  0  0  0
 49 21  2  0  0  0  0
 78 62  1  0  0  0  0
 47 22  2  0  0  0  0
 27 23  2  0  0  0  0
 46 28  2  0  0  0  0
 44 29  2  0  0  0  0
 43 31  2  0  0  0  0
 40 33  1  0  0  0  0
 12 79  1  0  0  0  0
 13 80  1  0  0  0  0
 15 81  1  0  0  0  0
 15 82  1  0  0  0  0
 16 83  1  0  0  0  0
 16 84  1  0  0  0  0
 16 85  1  0  0  0  0
 17 86  1  0  0  0  0
 18 87  1  0  0  0  0
 34 88  1  0  0  0  0
 35 89  1  0  0  0  0
 37 90  1  0  0  0  0
 37 91  1  0  0  0  0
 38 92  1  0  0  0  0
 38 93  1  0  0  0  0
 38 94  1  0  0  0  0
 39 95  1  0  0  0  0
 40 96  1  0  0  0  0
 52 97  1  0  0  0  0
 52 98  1  0  0  0  0
 53 99  1  0  0  0  0
 53100  1  0  0  0  0
 53101  1  0  0  0  0
 54102  1  0  0  0  0
 54103  1  0  0  0  0
 55104  1  0  0  0  0
 55105  1  0  0  0  0
 55106  1  0  0  0  0
 56107  1  0  0  0  0
 61108  1  0  0  0  0
 64109  1  0  0  0  0
 72110  1  0  0  0  0
 73111  1  0  0  0  0
 74112  1  0  0  0  0
 75113  1  0  0  0  0
 76114  1  0  0  0  0
 77115  1  0  0  0  0
 77116  1  0  0  0  0
 78117  1  0  0  0  0
M  END
