117

N         -4.82330        4.94100       -9.92170
C         -4.44550        5.00940       -8.84220
C         -3.85790        5.16560       -7.55660
C         -3.34710        6.42020       -7.28500
C         -2.71320        6.78020       -6.08270
N         -2.20700        7.12500       -5.11080
C         -3.46180        7.46860       -8.22160
N         -3.54810        8.33920       -8.96300
C         -3.75400        4.02280       -6.72090
C         -4.45460        2.82210       -6.85820
C         -5.60840        2.63760       -7.73110
C         -5.73150        1.49260       -8.51400
C         -6.82960        1.32780       -9.33340
C         -7.83480        2.28640       -9.38460
C         -9.04490        2.08950      -10.24830
C        -10.17640        1.44670       -9.44250
C         -7.72310        3.41210       -8.57630
C         -6.62650        3.59070       -7.75980
C         -3.96820        1.85050       -5.97470
S         -4.40830        0.18230       -5.68720
C         -3.20770        0.10690       -4.44430
C         -2.64740       -0.83000       -3.56500
C         -2.83600       -2.22520       -3.44500
C         -1.98420       -2.96530       -2.55890
N         -2.22360       -4.26640       -2.59940
S         -3.41970       -4.53730       -3.65460
N         -3.67890       -3.00350       -4.10470
C         -1.08140       -2.26140       -1.73060
C         -0.25550       -2.69630       -0.68370
S          0.22500       -4.16990        0.08600
C          1.14250       -3.22820        1.24690
C          1.93960       -3.57990        2.33530
C          2.22810       -4.95320        2.73410
C          1.20000       -5.88900        2.82560
C          1.46790       -7.17950        3.23560
C          2.76110       -7.57500        3.55500
C          3.05700       -8.97940        3.98980
C          3.54860       -9.81820        2.80810
C          3.79050       -6.65020        3.42240
C          3.53290       -5.35730        3.01820
C          2.44390       -2.44120        2.99470
S          1.98200       -0.94640        2.18620
C          1.07260       -1.84400        1.02730
C          0.28340       -1.54970       -0.08910
N         -0.13540       -0.42760       -0.75490
C         -0.97190       -0.84080       -1.77860
C         -1.65960       -0.14030       -2.80290
N         -1.58580        1.16120       -3.25870
C         -2.52160        1.31260       -4.24630
C         -2.94120        2.30520       -5.13380
S         -2.54450        3.95400       -5.44290
C         -0.54250        2.14950       -3.09620
C         -1.01280        3.36650       -2.30110
C         -0.10510        0.83740       -0.05050
C         -1.41840        1.07630        0.69090
C          3.11570       -2.52020        4.22060
C          3.65110       -1.53240        5.00920
C          3.67670       -0.10100        4.70130
O          3.23350        0.45460        3.70830
C          4.34040        0.55840        5.83650
C          4.58390        1.92180        5.98760
C          5.20800        2.24970        7.16700
C          5.56620        1.29100        8.12380
C          5.33750       -0.05750        7.98330
C          4.69970       -0.41420        6.79110
C          4.28860       -1.72860        6.29610
C          4.48600       -2.91600        6.95420
C          4.10790       -4.19750        6.50150
N          3.84860       -5.28240        6.22380
C          5.11490       -3.03650        8.21140
N          5.61540       -3.21930        9.22870
C          6.13570        2.32460        9.06320
C          5.25980        2.70950       10.27460
C          5.82600        4.03760       10.72260
C          5.48920        4.94620        9.81610
C          4.68970        4.24730        8.74020
C          3.97360        3.18910        9.58940
C          5.73800        3.39360        7.99530
H         -4.94960        0.74800       -8.49610
H         -6.90460        0.44370       -9.94960
H         -8.79540        1.44800      -11.09510
H         -9.38090        3.05330      -10.63510
H        -10.44830        2.07820       -8.59980
H         -9.86430        0.47850       -9.05740
H        -11.05420        1.30560      -10.06830
H         -8.50240        4.15980       -8.59220
H         -6.56630        4.46190       -7.12190
H          0.18630       -5.59000        2.60340
H          0.65700       -7.88860        3.32090
H          2.15730       -9.43550        4.40630
H          3.82440       -8.96470        4.76580
H          3.76030      -10.83580        3.12770
H          2.79340       -9.84960        2.02570
H          4.45650       -9.39000        2.38940
H          4.80380       -6.94410        3.65150
H          4.34720       -4.65670        2.89900
H          0.32530        1.66890       -2.64290
H         -0.24430        2.48150       -4.09740
H         -1.75770        3.92040       -2.86600
H         -0.17260        4.02930       -2.11390
H         -1.45510        3.07740       -1.35190
H          0.10340        1.66160       -0.72530
H          0.71640        0.77680        0.66720
H         -2.25380        1.10990       -0.00610
H         -1.37130        2.01650        1.23330
H         -1.59870        0.27480        1.40350
H          3.18980       -3.53260        4.59830
H          4.29210        2.62470        5.22300
H          5.62450       -0.77940        8.72890
H          7.18710        2.20780        9.31840
H          5.16620        1.93620       11.03200
H          6.43970        4.16450       11.59500
H          5.76550        5.98370        9.77980
H          4.07610        4.87600        8.10030
H          3.46720        2.42100        9.00770
H          3.27270        3.63270       10.29470
H          6.52490        3.98930        7.53630
