104

N         -6.07060        8.07540        4.71260
C         -6.00830        7.08110        4.14690
C         -6.02810        5.89970        3.35490
C         -7.22230        5.65870        2.70300
C         -8.32430        6.52530        2.86510
N         -9.23800        7.20920        2.97610
C         -7.47340        4.56470        1.85660
N         -7.73230        3.68610        1.16310
C         -4.84680        5.12020        3.25760
C         -3.68660        5.27800        4.01530
C         -3.56450        6.20240        5.15110
C         -4.29580        5.92090        6.30210
C         -4.21260        6.74780        7.40420
C         -3.40000        7.86710        7.35820
C         -2.66880        8.14360        6.21800
C         -2.72830        7.31930        5.10280
C         -1.96980        7.68300        3.85800
C         -2.87230        8.41880        2.86540
C         -2.69740        4.37270        3.62320
S         -1.07930        4.06320        4.21380
C         -0.93020        2.79890        3.04280
C         -0.00880        1.81930        2.65590
C          1.24530        1.48440        3.21170
C          1.94330        0.34770        2.69610
N          3.08040        0.11890        3.33430
S          3.25660        1.24320        4.48480
N          1.88790        2.06430        4.21330
C          1.39640       -0.34160        1.59170
C          1.92100       -1.40010        0.84280
S          3.31460       -2.42510        0.82710
C          2.70620       -3.16240       -0.64270
C          3.21150       -4.15250       -1.47420
C          4.49080       -4.85340       -1.28920
C          4.66370       -5.80420       -0.28170
C          3.52850       -6.21430        0.61200
C          2.63650       -7.23700       -0.09600
C          5.89410       -6.43820       -0.17640
C          6.93360       -6.14070       -1.03750
C          6.75550       -5.19660       -2.03360
C          5.53650       -4.56020       -2.16040
C          2.36690       -4.38640       -2.57440
S          0.94520       -3.34930       -2.55760
C          1.48000       -2.62930       -1.08310
C          1.03490       -1.62570       -0.21710
N         -0.01810       -0.75650       -0.13580
C          0.16050        0.03810        0.98090
C         -0.59690        1.08420        1.58100
N         -1.86370        1.59550        1.36410
C         -2.06180        2.63040        2.23620
C         -3.08100        3.52430        2.57200
S         -4.69670        3.83560        2.05950
C         -2.97330        1.15060        0.55180
C         -3.18870        2.05100       -0.66420
C         -0.96630       -0.71680       -1.22560
C         -1.98430       -1.85380       -1.13860
C          2.64920       -5.38610       -3.50940
C          1.97860       -5.76040       -4.64720
C          0.80090       -5.09630       -5.20950
O          0.15780       -4.18190       -4.72190
C          0.54710       -5.75070       -6.50680
C         -0.42600       -5.46400       -7.44490
C         -0.45780       -6.20920       -8.61300
C          0.48290       -7.21110       -8.79920
F          0.44330       -7.91810       -9.93960
C          1.46600       -7.52140       -7.86860
C          1.49160       -6.77480       -6.70310
C          2.37090       -6.83520       -5.53360
C          3.34140       -7.77820       -5.31630
C          3.66040       -8.80470       -6.23070
N          3.96970       -9.65820       -6.93320
C          4.13230       -7.89290       -4.15260
N          4.80010       -8.07300       -3.23530
H         -4.92770        5.04380        6.32620
H         -4.78420        6.52170        8.29110
H         -3.33780        8.52600        8.21080
H         -2.03810        9.02000        6.18600
H         -1.13420        8.33130        4.12660
H         -1.56170        6.78970        3.38240
H         -3.67100        7.76950        2.51370
H         -3.32760        9.28510        3.33890
H         -2.29600        8.75140        2.00520
H          2.93080       -5.34750        0.89810
H          3.93120       -6.66160        1.52220
H          1.86860       -7.60330        0.58140
H          2.14950       -6.79030       -0.96020
H          3.23140       -8.07950       -0.44070
H          6.03280       -7.18490        0.59170
H          7.87960       -6.65030       -0.93730
H          7.55960       -4.96050       -2.71400
H          5.38430       -3.82150       -2.93510
H         -3.87210        1.19250        1.17700
H         -2.82240        0.11400        0.26630
H         -2.28060        2.15250       -1.25520
H         -3.97420        1.63840       -1.29050
H         -3.49320        3.04480       -0.34750
H         -0.39770       -0.83570       -2.15400
H         -1.44580        0.25710       -1.25530
H         -1.49270       -2.80780       -1.30700
H         -2.74500       -1.72360       -1.90280
H         -2.46470       -1.89010       -0.16280
H          3.55640       -5.93130       -3.27680
H         -1.13850       -4.67470       -7.26290
H         -1.19400       -6.02630       -9.37950
H          2.16600       -8.31260       -8.07950
