84

N          4.78630       -4.01220        8.01350
C          4.73600       -2.86800        8.03680
C          4.63900       -1.45290        8.04610
C          5.55460       -0.74760        8.79490
C          6.46950       -1.40730        9.64280
N          7.21100       -1.92630       10.34620
C          5.72310        0.64580        8.68790
N          5.90680        1.77170        8.56290
C          3.62430       -0.88520        7.21480
C          2.84820        0.25140        7.39230
C          2.79050        1.06880        8.64190
C          1.35780        1.27670        9.13220
C          2.02370        0.46450        6.27490
S          0.90700        1.74320        5.85110
C          0.65030        0.98710        4.32030
C         -0.07830        1.19690        3.14220
C         -1.02220        2.19350        2.81190
C         -1.65420        2.14580        1.52850
N         -2.54090        3.11520        1.36460
S         -2.57380        4.01230        2.71050
N         -1.45790        3.19920        3.55480
C         -1.24150        1.16070        0.60480
C         -1.56330        0.99490       -0.74860
S         -2.54910        1.73520       -1.95780
C         -1.86780        0.65030       -3.14990
C         -2.00850        0.56250       -4.54240
C         -3.01190        1.33280       -5.33180
C         -4.41890        1.21520       -4.74750
C         -1.17330       -0.41760       -5.06500
S         -0.28820       -1.28870       -3.81090
C         -0.94530       -0.25290       -2.60200
C         -0.77180       -0.05340       -1.22880
N         -0.00290       -0.56200       -0.21740
C         -0.26310        0.17420        0.92700
C          0.25690        0.13680        2.24930
N          1.13390       -0.71670        2.90210
C          1.37260       -0.19730        4.14680
C          2.15550       -0.49920        5.26470
S          3.27740       -1.73000        5.70500
C          1.45700       -2.10290        2.64060
C          0.19960       -2.96450        2.55800
C          1.09380       -1.44690       -0.53880
C          2.43570       -0.72200       -0.47090
C         -0.94010       -0.81860       -6.39790
C         -0.86530        0.01300       -7.48210
C         -0.58410        1.46380       -7.39530
O         -0.56380        2.16530       -6.40710
C         -0.20520        1.86670       -8.76860
C          0.20040        3.10980       -9.20930
C          0.52030        3.22220      -10.55430
F          0.91700        4.41360      -11.03030
C          0.44890        2.14770      -11.42870
C          0.04200        0.90320      -10.97190
C         -0.28930        0.76040       -9.63220
C         -0.73940       -0.39740       -8.86520
C         -1.07210       -1.62570       -9.37210
C         -0.95870       -1.97670      -10.73310
N         -0.87950       -2.31620      -11.82660
C         -1.60850       -2.67930       -8.60150
N         -2.06860       -3.56430       -8.03300
H          3.36100        0.57530        9.43090
H          3.25750        2.04060        8.45690
H          0.78530        1.88020        8.43410
H          0.85560        0.32020        9.26090
H          1.37630        1.78860       10.09060
H         -3.01660        0.97000       -6.36080
H         -2.70480        2.38200       -5.34960
H         -4.47120        1.65210       -3.75440
H         -5.12340        1.73820       -5.38880
H         -4.71800        0.17090       -4.68620
H          2.06890       -2.44290        3.47980
H          2.07040       -2.19510        1.74430
H         -0.33520       -2.93390        3.50460
H         -0.47210       -2.61080        1.77920
H          0.47100       -3.99550        2.34850
H          0.92430       -1.79280       -1.56140
H          1.07510       -2.32730        0.10260
H          3.24280       -1.41310       -0.69800
H          2.45740        0.08520       -1.19930
H          2.60370       -0.29330        0.51440
H         -0.71810       -1.87060       -6.53830
H          0.26480        3.95340       -8.54080
H          0.71650        2.29400      -12.46320
H         -0.00280        0.07190      -11.65620
