97

C          6.72520        5.46110        1.23430
C          5.76240        6.64890        1.31110
C          4.88730        6.74170        0.05820
C          4.95640        6.67230        2.59760
C          5.31400        7.81650        3.28050
C          4.83720        8.27250        4.51660
N          4.42900        8.62200        5.53090
C          6.30170        8.51580        2.49630
C          6.93960        9.69420        2.77660
C          7.88320       10.22400        1.87280
N          8.65100       10.65500        1.13790
C          6.71280       10.44300        3.94530
N          6.57230       11.09860        4.87590
O          6.55600        7.84040        1.36660
C          4.02400        5.68900        2.98840
C          3.27480        5.68500        4.15600
C          2.42130        4.59770        4.30230
S          1.30970        4.18050        5.58790
C          0.86330        2.75720        4.71540
C          0.01380        1.64420        4.84770
C         -0.79060        1.15530        5.90360
C         -1.42960       -0.12860        5.76650
N         -2.07960       -0.48340        6.86340
S         -1.91500        0.68710        7.96620
N         -1.00410        1.69730        7.09180
C         -1.36800       -0.80360        4.52480
C         -1.98170       -1.96620        4.02410
C         -1.68240       -2.03210        2.65580
N         -0.88390       -0.97670        2.29220
C         -0.91690       -0.48720        0.92950
C         -2.32380       -0.03610        0.53850
C         -0.65710       -0.23350        3.43560
C          0.16440        0.88950        3.65470
N          1.12380        1.47560        2.84960
C          1.53840        2.61660        3.49350
C          2.43330        3.65780        3.25600
Se         3.62630        4.15210        1.92620
C          2.02340        0.78890        1.94450
C          3.32850        0.40600        2.64130
C         -2.26640       -3.13420        2.02980
C         -2.99560       -3.91540        2.94090
S         -2.97230       -3.27330        4.56840
C         -3.62100       -5.04010        2.40480
C         -3.38860       -5.24410        1.05780
Se        -2.31840       -3.85720        0.31770
C         -3.98400       -6.26060        0.27290
C         -3.65170       -6.67440       -0.97950
C         -4.66450       -7.34040       -1.84380
O         -5.70920       -7.83470       -1.48690
C         -4.14770       -7.19760       -3.22020
C         -4.80260       -7.52100       -4.40640
C         -4.07830       -7.24210       -5.54090
C         -2.79220       -6.68490       -5.50540
C         -2.12900       -6.36860       -4.34390
C         -2.85090       -6.64180       -3.18020
C         -2.46670       -6.46640       -1.78350
C         -1.17900       -6.41400       -1.31050
C         -0.03670       -6.31200       -2.12770
N          0.92730       -6.20290       -2.74180
C         -0.86490       -6.54640        0.05860
N         -0.57730       -6.68590        1.16160
C         -2.67420       -6.65950       -7.00810
C         -2.86570       -5.29940       -7.72380
C         -3.74940       -4.46540       -6.82980
C         -4.96730       -4.98970       -6.86160
C         -4.92960       -6.18700       -7.77870
C         -3.88260       -5.71320       -8.79950
C         -4.10710       -7.27810       -7.04840
H          6.17930        4.53020        1.08910
H          7.39980        5.61110        0.39550
H          7.31310        5.39330        2.14750
H          4.34130        5.81360       -0.10130
H          4.17970        7.56300        0.15270
H          5.52630        6.92910       -0.80070
H          3.34910        6.46410        4.89290
H         -0.58730       -1.29710        0.26650
H         -0.24370        0.36180        0.82980
H         -2.67240        0.73810        1.21870
H         -2.31050        0.36450       -0.47120
H         -3.02350       -0.86840        0.57010
H          2.23410        1.45240        1.09620
H          1.54890       -0.12220        1.58550
H          3.87640        1.28890        2.96430
H          3.12120       -0.21230        3.51190
H          3.95500       -0.15620        1.95480
H         -4.21240       -5.72120        2.99200
H         -4.88710       -6.70210        0.68460
H         -5.79140       -7.95210       -4.39490
H         -1.14320       -5.93280       -4.32270
H         -1.85610       -7.23950       -7.43020
H         -1.94360       -4.83220       -8.05910
H         -3.39620       -3.64000       -6.23960
H         -5.83480       -4.68970       -6.30320
H         -5.88740       -6.52600       -8.16440
H         -4.22850       -4.87160       -9.39780
H         -3.52370       -6.50670       -9.45330
H         -4.22640       -8.26000       -7.50170
