
  xtb     02022206533D
 energy: -234.352420010582 gnorm: 0.000294373929 xtb: 6.4.1 (unknown)
126139  0     0  0            999 V2000
    6.1750    4.8843   -2.8666 C   0  0  0  0  0  0  0  0  0  0  0  0
    5.9978    6.2239   -3.0581 C   0  0  0  0  0  0  0  0  0  0  0  0
    7.1351    7.1572   -2.8762 C   0  0  0  0  0  0  0  0  0  0  0  0
    8.3071    6.8747   -2.7816 O   0  0  0  0  0  0  0  0  0  0  0  0
    6.5127    8.4995   -2.7765 C   0  0  0  0  0  0  0  0  0  0  0  0
    7.1131    9.7087   -2.4945 C   0  0  0  0  0  0  0  0  0  0  0  0
    6.2936   10.8285   -2.4361 C   0  0  0  0  0  0  0  0  0  0  0  0
    7.0639   12.5221   -2.0497 Br  0  0  0  0  0  0  0  0  0  0  0  0
    4.9241   10.7443   -2.6507 C   0  0  0  0  0  0  0  0  0  0  0  0
    4.3299    9.5262   -2.9440 C   0  0  0  0  0  0  0  0  0  0  0  0
    5.1286    8.3951   -3.0087 C   0  0  0  0  0  0  0  0  0  0  0  0
    4.8148    7.0063   -3.3342 C   0  0  0  0  0  0  0  0  0  0  0  0
    3.7159    6.5830   -4.0375 C   0  0  0  0  0  0  0  0  0  0  0  0
    3.6350    5.3026   -4.6235 C   0  0  0  0  0  0  0  0  0  0  0  0
    3.5730    4.2893   -5.1597 N   0  0  0  0  0  0  0  0  0  0  0  0
    2.6024    7.3953   -4.3232 C   0  0  0  0  0  0  0  0  0  0  0  0
    1.6581    8.0079   -4.5496 N   0  0  0  0  0  0  0  0  0  0  0  0
    5.2145    3.8999   -2.5637 C   0  0  0  0  0  0  0  0  0  0  0  0
    5.3670    2.5251   -2.7129 C   0  0  0  0  0  0  0  0  0  0  0  0
    6.5378    1.8694   -3.3615 C   0  0  0  0  0  0  0  0  0  0  0  0
    6.4318    1.9772   -4.8849 C   0  0  0  0  0  0  0  0  0  0  0  0
    4.2307    1.8363   -2.2827 C   0  0  0  0  0  0  0  0  0  0  0  0
    3.8242    0.1363   -2.2567 S   0  0  0  0  0  0  0  0  0  0  0  0
    2.3013    0.5405   -1.5554 C   0  0  0  0  0  0  0  0  0  0  0  0
    1.1481   -0.1063   -1.0895 C   0  0  0  0  0  0  0  0  0  0  0  0
    0.8804   -1.4946   -0.9984 C   0  0  0  0  0  0  0  0  0  0  0  0
    1.7270   -2.3972   -1.4895 N   0  0  0  0  0  0  0  0  0  0  0  0
    1.4430   -3.6821   -1.3376 C   0  0  0  0  0  0  0  0  0  0  0  0
    2.3505   -4.5775   -2.0210 C   0  0  0  0  0  0  0  0  0  0  0  0
    1.8789   -6.1169   -2.6776 S   0  0  0  0  0  0  0  0  0  0  0  0
    3.4430   -6.3752   -3.3691 C   0  0  0  0  0  0  0  0  0  0  0  0
    3.7670   -7.5975   -4.1551 C   0  0  0  0  0  0  0  0  0  0  0  0
    3.0296   -7.6107   -5.4953 C   0  0  0  0  0  0  0  0  0  0  0  0
    4.2470   -5.3056   -3.0955 C   0  0  0  0  0  0  0  0  0  0  0  0
    3.6456   -4.2783   -2.3493 C   0  0  0  0  0  0  0  0  0  0  0  0
    5.5267   -5.2435   -3.5050 F   0  0  0  0  0  0  0  0  0  0  0  0
    0.2953   -4.0821   -0.5894 C   0  0  0  0  0  0  0  0  0  0  0  0
   -0.0137   -5.4414   -0.2116 C   0  0  0  0  0  0  0  0  0  0  0  0
    0.7993   -6.4769    0.1588 C   0  0  0  0  0  0  0  0  0  0  0  0
    0.0523   -7.6045    0.5413 C   0  0  0  0  0  0  0  0  0  0  0  0
    0.6392   -8.7498    0.9366 F   0  0  0  0  0  0  0  0  0  0  0  0
   -1.3047   -7.4583    0.4775 C   0  0  0  0  0  0  0  0  0  0  0  0
   -2.3539   -8.4669    0.7966 C   0  0  0  0  0  0  0  0  0  0  0  0
   -3.3667   -7.9318    1.8072 C   0  0  0  0  0  0  0  0  0  0  0  0
   -1.6916   -5.8594   -0.0496 S   0  0  0  0  0  0  0  0  0  0  0  0
   -0.5842   -3.1853   -0.1732 N   0  0  0  0  0  0  0  0  0  0  0  0
   -0.3298   -1.8962   -0.3865 C   0  0  0  0  0  0  0  0  0  0  0  0
   -1.2533   -0.8903   -0.0139 C   0  0  0  0  0  0  0  0  0  0  0  0
   -2.5447   -1.0280    0.5126 C   0  0  0  0  0  0  0  0  0  0  0  0
   -3.6120   -2.2795    1.0280 S   0  0  0  0  0  0  0  0  0  0  0  0
   -4.8287   -1.0701    1.3795 C   0  0  0  0  0  0  0  0  0  0  0  0
   -6.1092   -1.1451    1.9424 C   0  0  0  0  0  0  0  0  0  0  0  0
   -6.8332   -2.4173    2.2238 C   0  0  0  0  0  0  0  0  0  0  0  0
   -6.7386   -3.4196    1.0754 C   0  0  0  0  0  0  0  0  0  0  0  0
   -6.6625    0.1257    2.0916 C   0  0  0  0  0  0  0  0  0  0  0  0
   -5.6214    1.3940    1.4385 S   0  0  0  0  0  0  0  0  0  0  0  0
   -4.4001    0.2354    1.0832 C   0  0  0  0  0  0  0  0  0  0  0  0
   -3.0905    0.2570    0.5987 C   0  0  0  0  0  0  0  0  0  0  0  0
   -2.1786    1.1815    0.1598 N   0  0  0  0  0  0  0  0  0  0  0  0
   -2.6100    2.5330   -0.1151 C   0  0  0  0  0  0  0  0  0  0  0  0
   -2.6319    3.3989    1.1434 C   0  0  0  0  0  0  0  0  0  0  0  0
   -1.0262    0.5059   -0.1938 C   0  0  0  0  0  0  0  0  0  0  0  0
    0.2540    0.9107   -0.6456 C   0  0  0  0  0  0  0  0  0  0  0  0
    0.8707    2.1414   -0.8124 N   0  0  0  0  0  0  0  0  0  0  0  0
    2.1099    1.9117   -1.3547 C   0  0  0  0  0  0  0  0  0  0  0  0
    3.2169    2.6565   -1.7651 C   0  0  0  0  0  0  0  0  0  0  0  0
    3.6669    4.3189   -1.8238 S   0  0  0  0  0  0  0  0  0  0  0  0
    0.6525    3.3955   -0.1258 C   0  0  0  0  0  0  0  0  0  0  0  0
    1.1501    3.3200    1.3167 C   0  0  0  0  0  0  0  0  0  0  0  0
   -7.8945    0.5474    2.6243 C   0  0  0  0  0  0  0  0  0  0  0  0
   -8.5630   -0.0093    3.6850 C   0  0  0  0  0  0  0  0  0  0  0  0
   -7.9233   -0.8422    4.7237 C   0  0  0  0  0  0  0  0  0  0  0  0
   -6.7861   -1.2605    4.7446 O   0  0  0  0  0  0  0  0  0  0  0  0
   -8.9285   -0.9519    5.8074 C   0  0  0  0  0  0  0  0  0  0  0  0
  -10.0886   -0.2385    5.4534 C   0  0  0  0  0  0  0  0  0  0  0  0
  -11.1621   -0.1789    6.3273 C   0  0  0  0  0  0  0  0  0  0  0  0
  -11.0644   -0.8385    7.5436 C   0  0  0  0  0  0  0  0  0  0  0  0
   -9.9222   -1.5456    7.8869 C   0  0  0  0  0  0  0  0  0  0  0  0
   -9.8540   -2.4296    9.5559 Br  0  0  0  0  0  0  0  0  0  0  0  0
   -8.8247   -1.6120    7.0207 C   0  0  0  0  0  0  0  0  0  0  0  0
   -7.4128   -2.4825    7.4438 Cl  0  0  0  0  0  0  0  0  0  0  0  0
   -9.8956    0.3353    4.1241 C   0  0  0  0  0  0  0  0  0  0  0  0
  -10.8431    1.0036    3.3923 C   0  0  0  0  0  0  0  0  0  0  0  0
  -10.6567    1.4472    2.0659 C   0  0  0  0  0  0  0  0  0  0  0  0
  -10.5806    1.8105    0.9793 N   0  0  0  0  0  0  0  0  0  0  0  0
  -12.1389    1.3047    3.8592 C   0  0  0  0  0  0  0  0  0  0  0  0
  -13.2022    1.5849    4.1890 N   0  0  0  0  0  0  0  0  0  0  0  0
    7.2091    4.5521   -2.8695 H   0  0  0  0  0  0  0  0  0  0  0  0
    8.1774    9.7727   -2.3292 H   0  0  0  0  0  0  0  0  0  0  0  0
    4.3194   11.6361   -2.5901 H   0  0  0  0  0  0  0  0  0  0  0  0
    3.2651    9.4748   -3.1050 H   0  0  0  0  0  0  0  0  0  0  0  0
    7.4657    2.3380   -3.0268 H   0  0  0  0  0  0  0  0  0  0  0  0
    6.5533    0.8172   -3.0714 H   0  0  0  0  0  0  0  0  0  0  0  0
    7.2808    1.4862   -5.3526 H   0  0  0  0  0  0  0  0  0  0  0  0
    5.5176    1.5039   -5.2332 H   0  0  0  0  0  0  0  0  0  0  0  0
    6.4133    3.0199   -5.1928 H   0  0  0  0  0  0  0  0  0  0  0  0
    4.8454   -7.6208   -4.3253 H   0  0  0  0  0  0  0  0  0  0  0  0
    3.4874   -8.4848   -3.5818 H   0  0  0  0  0  0  0  0  0  0  0  0
    3.3057   -6.7419   -6.0883 H   0  0  0  0  0  0  0  0  0  0  0  0
    1.9541   -7.5936   -5.3336 H   0  0  0  0  0  0  0  0  0  0  0  0
    3.2851   -8.5076   -6.0529 H   0  0  0  0  0  0  0  0  0  0  0  0
    4.1363   -3.3681   -2.0611 H   0  0  0  0  0  0  0  0  0  0  0  0
    1.8722   -6.4405    0.1893 H   0  0  0  0  0  0  0  0  0  0  0  0
   -2.8782   -8.7449   -0.1225 H   0  0  0  0  0  0  0  0  0  0  0  0
   -1.8640   -9.3602    1.1899 H   0  0  0  0  0  0  0  0  0  0  0  0
   -4.1185   -8.6872    2.0200 H   0  0  0  0  0  0  0  0  0  0  0  0
   -2.8707   -7.6635    2.7369 H   0  0  0  0  0  0  0  0  0  0  0  0
   -3.8606   -7.0474    1.4111 H   0  0  0  0  0  0  0  0  0  0  0  0
   -7.8829   -2.1923    2.4227 H   0  0  0  0  0  0  0  0  0  0  0  0
   -6.4135   -2.8577    3.1333 H   0  0  0  0  0  0  0  0  0  0  0  0
   -7.0830   -2.9685    0.1473 H   0  0  0  0  0  0  0  0  0  0  0  0
   -5.7192   -3.7676    0.9365 H   0  0  0  0  0  0  0  0  0  0  0  0
   -7.3665   -4.2796    1.2937 H   0  0  0  0  0  0  0  0  0  0  0  0
   -3.6288    2.4750   -0.5139 H   0  0  0  0  0  0  0  0  0  0  0  0
   -1.9795    2.9541   -0.8995 H   0  0  0  0  0  0  0  0  0  0  0  0
   -2.8881    4.4217    0.8819 H   0  0  0  0  0  0  0  0  0  0  0  0
   -3.3817    3.0254    1.8356 H   0  0  0  0  0  0  0  0  0  0  0  0
   -1.6708    3.3930    1.6497 H   0  0  0  0  0  0  0  0  0  0  0  0
    1.2172    4.1566   -0.6712 H   0  0  0  0  0  0  0  0  0  0  0  0
   -0.3944    3.6781   -0.1481 H   0  0  0  0  0  0  0  0  0  0  0  0
    2.2162    3.1063    1.3385 H   0  0  0  0  0  0  0  0  0  0  0  0
    0.6322    2.5309    1.8586 H   0  0  0  0  0  0  0  0  0  0  0  0
    0.9770    4.2676    1.8193 H   0  0  0  0  0  0  0  0  0  0  0  0
   -8.3019    1.4514    2.1858 H   0  0  0  0  0  0  0  0  0  0  0  0
  -12.0593    0.3671    6.0883 H   0  0  0  0  0  0  0  0  0  0  0  0
  -11.8879   -0.8044    8.2401 H   0  0  0  0  0  0  0  0  0  0  0  0
  1  2  2  0  0  0  0
  2  3  1  0  0  0  0
  3  4  2  0  0  0  0
  3  5  1  0  0  0  0
  5  6  2  0  0  0  0
  6  7  1  0  0  0  0
  7  8  1  0  0  0  0
  7  9  2  0  0  0  0
  9 10  1  0  0  0  0
 10 11  2  0  0  0  0
 11 12  1  0  0  0  0
 12 13  2  0  0  0  0
 13 14  1  0  0  0  0
 14 15  3  0  0  0  0
 13 16  1  0  0  0  0
 16 17  3  0  0  0  0
  1 18  1  0  0  0  0
 18 19  2  0  0  0  0
 19 20  1  0  0  0  0
 20 21  1  0  0  0  0
 19 22  1  0  0  0  0
 22 23  1  0  0  0  0
 23 24  1  0  0  0  0
 24 25  1  0  0  0  0
 25 26  2  0  0  0  0
 26 27  1  0  0  0  0
 27 28  2  0  0  0  0
 28 29  1  0  0  0  0
 29 30  1  0  0  0  0
 30 31  1  0  0  0  0
 31 32  1  0  0  0  0
 32 33  1  0  0  0  0
 31 34  2  0  0  0  0
 34 35  1  0  0  0  0
 34 36  1  0  0  0  0
 28 37  1  0  0  0  0
 37 38  1  0  0  0  0
 38 39  2  0  0  0  0
 39 40  1  0  0  0  0
 40 41  1  0  0  0  0
 40 42  2  0  0  0  0
 42 43  1  0  0  0  0
 43 44  1  0  0  0  0
 42 45  1  0  0  0  0
 37 46  2  0  0  0  0
 46 47  1  0  0  0  0
 47 48  2  0  0  0  0
 48 49  1  0  0  0  0
 49 50  1  0  0  0  0
 50 51  1  0  0  0  0
 51 52  1  0  0  0  0
 52 53  1  0  0  0  0
 53 54  1  0  0  0  0
 52 55  2  0  0  0  0
 55 56  1  0  0  0  0
 56 57  1  0  0  0  0
 57 58  1  0  0  0  0
 58 59  1  0  0  0  0
 59 60  1  0  0  0  0
 60 61  1  0  0  0  0
 59 62  1  0  0  0  0
 62 63  2  0  0  0  0
 63 64  1  0  0  0  0
 64 65  1  0  0  0  0
 65 66  1  0  0  0  0
 66 67  1  0  0  0  0
 64 68  1  0  0  0  0
 68 69  1  0  0  0  0
 55 70  1  0  0  0  0
 70 71  2  0  0  0  0
 71 72  1  0  0  0  0
 72 73  2  0  0  0  0
 72 74  1  0  0  0  0
 74 75  2  0  0  0  0
 75 76  1  0  0  0  0
 76 77  2  0  0  0  0
 77 78  1  0  0  0  0
 78 79  1  0  0  0  0
 78 80  2  0  0  0  0
 80 81  1  0  0  0  0
 75 82  1  0  0  0  0
 82 83  2  0  0  0  0
 83 84  1  0  0  0  0
 84 85  3  0  0  0  0
 83 86  1  0  0  0  0
 86 87  3  0  0  0  0
 12  2  1  0  0  0  0
 67 18  1  0  0  0  0
 82 71  1  0  0  0  0
 11  5  1  0  0  0  0
 66 22  2  0  0  0  0
 80 74  1  0  0  0  0
 65 24  2  0  0  0  0
 63 25  1  0  0  0  0
 47 26  1  0  0  0  0
 62 48  1  0  0  0  0
 35 29  2  0  0  0  0
 45 38  1  0  0  0  0
 58 49  2  0  0  0  0
 57 51  2  0  0  0  0
  1 88  1  0  0  0  0
  6 89  1  0  0  0  0
  9 90  1  0  0  0  0
 10 91  1  0  0  0  0
 20 92  1  0  0  0  0
 20 93  1  0  0  0  0
 21 94  1  0  0  0  0
 21 95  1  0  0  0  0
 21 96  1  0  0  0  0
 32 97  1  0  0  0  0
 32 98  1  0  0  0  0
 33 99  1  0  0  0  0
 33100  1  0  0  0  0
 33101  1  0  0  0  0
 35102  1  0  0  0  0
 39103  1  0  0  0  0
 43104  1  0  0  0  0
 43105  1  0  0  0  0
 44106  1  0  0  0  0
 44107  1  0  0  0  0
 44108  1  0  0  0  0
 53109  1  0  0  0  0
 53110  1  0  0  0  0
 54111  1  0  0  0  0
 54112  1  0  0  0  0
 54113  1  0  0  0  0
 60114  1  0  0  0  0
 60115  1  0  0  0  0
 61116  1  0  0  0  0
 61117  1  0  0  0  0
 61118  1  0  0  0  0
 68119  1  0  0  0  0
 68120  1  0  0  0  0
 69121  1  0  0  0  0
 69122  1  0  0  0  0
 69123  1  0  0  0  0
 70124  1  0  0  0  0
 76125  1  0  0  0  0
 77126  1  0  0  0  0
M  END
