
  xtb     02022210353D
 energy: -173.163422786657 gnorm: 0.000645717771 xtb: 6.4.1 (unknown)
 85 96  0     0  0            999 V2000
   -6.5835   -4.3628    1.7073 C   0  0  0  0  0  0  0  0  0  0  0  0
   -7.7514   -4.6753    2.3565 C   0  0  0  0  0  0  0  0  0  0  0  0
   -8.3210   -4.0671    3.5764 C   0  0  0  0  0  0  0  0  0  0  0  0
   -7.8377   -3.2413    4.3230 O   0  0  0  0  0  0  0  0  0  0  0  0
   -9.6608   -4.6738    3.7345 C   0  0  0  0  0  0  0  0  0  0  0  0
  -10.6020   -4.4020    4.7053 C   0  0  0  0  0  0  0  0  0  0  0  0
  -11.8013   -5.0976    4.6386 C   0  0  0  0  0  0  0  0  0  0  0  0
  -13.1412   -4.7683    5.9442 Br  0  0  0  0  0  0  0  0  0  0  0  0
  -12.0465   -6.0281    3.6372 C   0  0  0  0  0  0  0  0  0  0  0  0
  -11.0907   -6.2952    2.6688 C   0  0  0  0  0  0  0  0  0  0  0  0
   -9.8823   -5.6137    2.7155 C   0  0  0  0  0  0  0  0  0  0  0  0
   -8.6953   -5.6670    1.8647 C   0  0  0  0  0  0  0  0  0  0  0  0
   -8.5239   -6.5419    0.8227 C   0  0  0  0  0  0  0  0  0  0  0  0
   -7.3754   -6.6702    0.0124 C   0  0  0  0  0  0  0  0  0  0  0  0
   -6.4844   -6.8545   -0.6896 N   0  0  0  0  0  0  0  0  0  0  0  0
   -9.4932   -7.4843    0.4163 C   0  0  0  0  0  0  0  0  0  0  0  0
  -10.2337   -8.2718    0.0299 N   0  0  0  0  0  0  0  0  0  0  0  0
   -5.5554   -3.4522    2.0006 C   0  0  0  0  0  0  0  0  0  0  0  0
   -5.3341   -2.6045    3.0738 C   0  0  0  0  0  0  0  0  0  0  0  0
   -4.1813   -1.8393    2.9736 C   0  0  0  0  0  0  0  0  0  0  0  0
   -3.5309   -0.6414    4.0704 S   0  0  0  0  0  0  0  0  0  0  0  0
   -2.2273   -0.3835    2.9709 C   0  0  0  0  0  0  0  0  0  0  0  0
   -1.0763    0.4059    2.8656 C   0  0  0  0  0  0  0  0  0  0  0  0
   -0.5127    1.3198    3.7824 C   0  0  0  0  0  0  0  0  0  0  0  0
    0.7211    1.9597    3.4447 C   0  0  0  0  0  0  0  0  0  0  0  0
    1.1557    2.7613    4.4046 N   0  0  0  0  0  0  0  0  0  0  0  0
    0.0979    2.7147    5.6277 S   0  0  0  0  0  0  0  0  0  0  0  0
   -0.9549    1.6712    4.9799 N   0  0  0  0  0  0  0  0  0  0  0  0
    1.2810    1.7212    2.1705 C   0  0  0  0  0  0  0  0  0  0  0  0
    2.3833    2.3161    1.5459 C   0  0  0  0  0  0  0  0  0  0  0  0
    2.4320    1.8146    0.2388 C   0  0  0  0  0  0  0  0  0  0  0  0
    1.4237    0.9059    0.0524 N   0  0  0  0  0  0  0  0  0  0  0  0
    1.1153    0.4582   -1.2853 C   0  0  0  0  0  0  0  0  0  0  0  0
   -0.1223    1.1589   -1.8398 C   0  0  0  0  0  0  0  0  0  0  0  0
    0.6883    0.8312    1.2248 C   0  0  0  0  0  0  0  0  0  0  0  0
   -0.4640    0.0952    1.6145 C   0  0  0  0  0  0  0  0  0  0  0  0
   -1.2230   -0.8908    1.0008 N   0  0  0  0  0  0  0  0  0  0  0  0
   -2.2841   -1.1794    1.8197 C   0  0  0  0  0  0  0  0  0  0  0  0
   -3.3981   -2.0243    1.8123 C   0  0  0  0  0  0  0  0  0  0  0  0
   -4.1584   -3.3089    0.7007 Se  0  0  0  0  0  2  0  0  0  0  0  0
   -0.8848   -1.8130   -0.0596 C   0  0  0  0  0  0  0  0  0  0  0  0
    0.3405   -2.6508    0.2967 C   0  0  0  0  0  0  0  0  0  0  0  0
    3.4575    2.3936   -0.5151 C   0  0  0  0  0  0  0  0  0  0  0  0
    4.1836    3.3311    0.2531 C   0  0  0  0  0  0  0  0  0  0  0  0
    3.6018    3.4861    1.8961 S   0  0  0  0  0  0  0  0  0  0  0  0
    5.2121    4.0010   -0.3942 C   0  0  0  0  0  0  0  0  0  0  0  0
    5.3769    3.6508   -1.7244 C   0  0  0  0  0  0  0  0  0  0  0  0
    4.1231    2.3051   -2.2508 Se  0  0  0  0  0  2  0  0  0  0  0  0
    6.2593    4.0958   -2.7223 C   0  0  0  0  0  0  0  0  0  0  0  0
    7.2190    5.0765   -2.7367 C   0  0  0  0  0  0  0  0  0  0  0  0
    7.5845    6.0280   -1.6662 C   0  0  0  0  0  0  0  0  0  0  0  0
    7.1905    6.0812   -0.5196 O   0  0  0  0  0  0  0  0  0  0  0  0
    8.5639    6.9531   -2.2747 C   0  0  0  0  0  0  0  0  0  0  0  0
    9.1790    8.0436   -1.6950 C   0  0  0  0  0  0  0  0  0  0  0  0
   10.0651    8.7852   -2.4658 C   0  0  0  0  0  0  0  0  0  0  0  0
   10.8522   10.1506   -1.7850 Cl  0  0  0  0  0  0  0  0  0  0  0  0
   10.3151    8.4231   -3.7943 C   0  0  0  0  0  0  0  0  0  0  0  0
   11.4069    9.3520   -4.7398 Cl  0  0  0  0  0  0  0  0  0  0  0  0
    9.6948    7.3203   -4.3715 C   0  0  0  0  0  0  0  0  0  0  0  0
    8.8126    6.5769   -3.6040 C   0  0  0  0  0  0  0  0  0  0  0  0
    8.0207    5.3875   -3.9101 C   0  0  0  0  0  0  0  0  0  0  0  0
    8.0802    4.6957   -5.0926 C   0  0  0  0  0  0  0  0  0  0  0  0
    7.3765    3.5150   -5.4136 C   0  0  0  0  0  0  0  0  0  0  0  0
    6.8553    2.5519   -5.7625 N   0  0  0  0  0  0  0  0  0  0  0  0
    8.8964    5.0654   -6.1838 C   0  0  0  0  0  0  0  0  0  0  0  0
    9.5295    5.3034   -7.1112 N   0  0  0  0  0  0  0  0  0  0  0  0
   -6.4165   -4.8972    0.7777 H   0  0  0  0  0  0  0  0  0  0  0  0
  -10.4034   -3.6758    5.4782 H   0  0  0  0  0  0  0  0  0  0  0  0
  -12.9919   -6.5479    3.6133 H   0  0  0  0  0  0  0  0  0  0  0  0
  -11.3064   -7.0195    1.9012 H   0  0  0  0  0  0  0  0  0  0  0  0
   -6.0129   -2.5481    3.9067 H   0  0  0  0  0  0  0  0  0  0  0  0
    1.0172   -0.6263   -1.3126 H   0  0  0  0  0  0  0  0  0  0  0  0
    1.9803    0.7145   -1.9080 H   0  0  0  0  0  0  0  0  0  0  0  0
    0.0570    2.2296   -1.9040 H   0  0  0  0  0  0  0  0  0  0  0  0
   -0.9862    0.9981   -1.1987 H   0  0  0  0  0  0  0  0  0  0  0  0
   -0.3457    0.7865   -2.8356 H   0  0  0  0  0  0  0  0  0  0  0  0
   -1.7481   -2.4772   -0.1814 H   0  0  0  0  0  0  0  0  0  0  0  0
   -0.7571   -1.2866   -1.0049 H   0  0  0  0  0  0  0  0  0  0  0  0
    0.5865   -3.3175   -0.5252 H   0  0  0  0  0  0  0  0  0  0  0  0
    1.2006   -2.0201    0.5106 H   0  0  0  0  0  0  0  0  0  0  0  0
    0.1347   -3.2523    1.1791 H   0  0  0  0  0  0  0  0  0  0  0  0
    5.8309    4.7419    0.0812 H   0  0  0  0  0  0  0  0  0  0  0  0
    6.1272    3.5684   -3.6614 H   0  0  0  0  0  0  0  0  0  0  0  0
    8.9732    8.3104   -0.6704 H   0  0  0  0  0  0  0  0  0  0  0  0
    9.9131    7.0759   -5.3978 H   0  0  0  0  0  0  0  0  0  0  0  0
  1  2  2  0  0  0  0
  2  3  1  0  0  0  0
  3  4  2  0  0  0  0
  3  5  1  0  0  0  0
  5  6  2  0  0  0  0
  6  7  1  0  0  0  0
  7  8  1  0  0  0  0
  7  9  2  0  0  0  0
  9 10  1  0  0  0  0
 10 11  2  0  0  0  0
 11 12  1  0  0  0  0
 12 13  2  0  0  0  0
 13 14  1  0  0  0  0
 14 15  3  0  0  0  0
 13 16  1  0  0  0  0
 16 17  3  0  0  0  0
  1 18  1  0  0  0  0
 18 19  2  0  0  0  0
 19 20  1  0  0  0  0
 20 21  1  0  0  0  0
 21 22  1  0  0  0  0
 22 23  1  0  0  0  0
 23 24  1  0  0  0  0
 24 25  1  0  0  0  0
 25 26  2  0  0  0  0
 26 27  1  0  0  0  0
 27 28  1  0  0  0  0
 25 29  1  0  0  0  0
 29 30  1  0  0  0  0
 30 31  2  0  0  0  0
 31 32  1  0  0  0  0
 32 33  1  0  0  0  0
 33 34  1  0  0  0  0
 32 35  1  0  0  0  0
 35 36  1  0  0  0  0
 36 37  1  0  0  0  0
 37 38  1  0  0  0  0
 38 39  1  0  0  0  0
 39 40  1  0  0  0  0
 37 41  1  0  0  0  0
 41 42  1  0  0  0  0
 31 43  1  0  0  0  0
 43 44  2  0  0  0  0
 44 45  1  0  0  0  0
 44 46  1  0  0  0  0
 46 47  2  0  0  0  0
 47 48  1  0  0  0  0
 47 49  1  0  0  0  0
 49 50  2  0  0  0  0
 50 51  1  0  0  0  0
 51 52  2  0  0  0  0
 51 53  1  0  0  0  0
 53 54  2  0  0  0  0
 54 55  1  0  0  0  0
 55 56  1  0  0  0  0
 55 57  2  0  0  0  0
 57 58  1  0  0  0  0
 57 59  1  0  0  0  0
 59 60  2  0  0  0  0
 60 61  1  0  0  0  0
 61 62  2  0  0  0  0
 62 63  1  0  0  0  0
 63 64  3  0  0  0  0
 62 65  1  0  0  0  0
 65 66  3  0  0  0  0
 12  2  1  0  0  0  0
 40 18  1  0  0  0  0
 48 43  1  0  0  0  0
 61 50  1  0  0  0  0
 11  5  1  0  0  0  0
 39 20  2  0  0  0  0
 60 53  1  0  0  0  0
 38 22  2  0  0  0  0
 36 23  2  0  0  0  0
 28 24  2  0  0  0  0
 35 29  2  0  0  0  0
 45 30  1  0  0  0  0
  1 67  1  0  0  0  0
  6 68  1  0  0  0  0
  9 69  1  0  0  0  0
 10 70  1  0  0  0  0
 19 71  1  0  0  0  0
 33 72  1  0  0  0  0
 33 73  1  0  0  0  0
 34 74  1  0  0  0  0
 34 75  1  0  0  0  0
 34 76  1  0  0  0  0
 41 77  1  0  0  0  0
 41 78  1  0  0  0  0
 42 79  1  0  0  0  0
 42 80  1  0  0  0  0
 42 81  1  0  0  0  0
 46 82  1  0  0  0  0
 49 83  1  0  0  0  0
 54 84  1  0  0  0  0
 59 85  1  0  0  0  0
M  END
