
  xtb     02112200543D
 energy: -154.474686852180 gnorm: 0.000352477020 xtb: 6.4.1 (unknown)
 84 92  0     0  0            999 V2000
   -1.7468    5.5450   -3.0263 C   0  0  0  0  0  0  0  0  0  0  0  0
   -0.9485    5.6211   -4.1268 C   0  0  0  0  0  0  0  0  0  0  0  0
   -0.5357    6.9611   -4.6184 C   0  0  0  0  0  0  0  0  0  0  0  0
   -0.9974    8.0316   -4.2986 O   0  0  0  0  0  0  0  0  0  0  0  0
    0.5975    6.7037   -5.5375 C   0  0  0  0  0  0  0  0  0  0  0  0
    1.4115    7.6159   -6.1761 C   0  0  0  0  0  0  0  0  0  0  0  0
    2.4297    7.1115   -6.9741 C   0  0  0  0  0  0  0  0  0  0  0  0
    3.5859    8.3186   -7.8785 Br  0  0  0  0  0  0  0  0  0  0  0  0
    2.6282    5.7454   -7.1267 C   0  0  0  0  0  0  0  0  0  0  0  0
    1.7993    4.8359   -6.4878 C   0  0  0  0  0  0  0  0  0  0  0  0
    0.7734    5.3160   -5.6871 C   0  0  0  0  0  0  0  0  0  0  0  0
   -0.2723    4.6264   -4.9330 C   0  0  0  0  0  0  0  0  0  0  0  0
   -0.6741    3.3335   -5.1503 C   0  0  0  0  0  0  0  0  0  0  0  0
    0.0359    2.4084   -5.9395 C   0  0  0  0  0  0  0  0  0  0  0  0
    0.6068    1.5990   -6.5209 N   0  0  0  0  0  0  0  0  0  0  0  0
   -1.8719    2.7894   -4.6406 C   0  0  0  0  0  0  0  0  0  0  0  0
   -2.8607    2.3118   -4.3076 N   0  0  0  0  0  0  0  0  0  0  0  0
   -1.9997    4.4507   -2.1421 C   0  0  0  0  0  0  0  0  0  0  0  0
   -3.1533    4.4938   -1.3287 C   0  0  0  0  0  0  0  0  0  0  0  0
   -3.4748    3.4828   -0.4573 C   0  0  0  0  0  0  0  0  0  0  0  0
   -2.6135    2.3905   -0.3682 C   0  0  0  0  0  0  0  0  0  0  0  0
   -2.6966    1.2670    0.3940 N   0  0  0  0  0  0  0  0  0  0  0  0
   -3.7356    0.9621    1.3426 C   0  0  0  0  0  0  0  0  0  0  0  0
   -3.3798    1.4572    2.7433 C   0  0  0  0  0  0  0  0  0  0  0  0
   -1.5881    0.4783    0.1547 C   0  0  0  0  0  0  0  0  0  0  0  0
   -0.7681    1.1129   -0.8177 C   0  0  0  0  0  0  0  0  0  0  0  0
   -1.4242    2.3472   -1.1464 C   0  0  0  0  0  0  0  0  0  0  0  0
   -1.1189    3.3692   -2.0171 C   0  0  0  0  0  0  0  0  0  0  0  0
    0.3931    0.5198   -1.2902 C   0  0  0  0  0  0  0  0  0  0  0  0
    0.7175   -0.7120   -0.7505 C   0  0  0  0  0  0  0  0  0  0  0  0
   -0.0859   -1.3302    0.2453 C   0  0  0  0  0  0  0  0  0  0  0  0
   -1.2519   -0.7433    0.7108 C   0  0  0  0  0  0  0  0  0  0  0  0
    0.5679   -2.5665    0.5754 C   0  0  0  0  0  0  0  0  0  0  0  0
    0.2757   -3.5619    1.4818 C   0  0  0  0  0  0  0  0  0  0  0  0
    1.1323   -4.6665    1.5806 C   0  0  0  0  0  0  0  0  0  0  0  0
    2.2447   -4.7493    0.7051 C   0  0  0  0  0  0  0  0  0  0  0  0
    2.5550   -3.7595   -0.1920 C   0  0  0  0  0  0  0  0  0  0  0  0
    1.7202   -2.6430   -0.2537 C   0  0  0  0  0  0  0  0  0  0  0  0
    1.8023   -1.5249   -1.0235 N   0  0  0  0  0  0  0  0  0  0  0  0
    2.7887   -1.2654   -2.0398 C   0  0  0  0  0  0  0  0  0  0  0  0
    2.3168   -1.7379   -3.4138 C   0  0  0  0  0  0  0  0  0  0  0  0
    0.9401   -5.7536    2.4840 C   0  0  0  0  0  0  0  0  0  0  0  0
    0.2280   -5.8661    3.6468 C   0  0  0  0  0  0  0  0  0  0  0  0
   -0.3826   -4.7986    4.4717 C   0  0  0  0  0  0  0  0  0  0  0  0
   -0.6060   -3.6392    4.1967 O   0  0  0  0  0  0  0  0  0  0  0  0
   -0.6577   -5.4262    5.7861 C   0  0  0  0  0  0  0  0  0  0  0  0
   -1.1499   -4.8228    6.9256 C   0  0  0  0  0  0  0  0  0  0  0  0
   -1.3149   -5.6018    8.0639 C   0  0  0  0  0  0  0  0  0  0  0  0
   -1.9198   -4.9135    9.5199 Cl  0  0  0  0  0  0  0  0  0  0  0  0
   -0.9806   -6.9575    8.0201 C   0  0  0  0  0  0  0  0  0  0  0  0
   -1.1318   -7.6990    9.1241 F   0  0  0  0  0  0  0  0  0  0  0  0
   -0.4927   -7.5708    6.8770 C   0  0  0  0  0  0  0  0  0  0  0  0
   -0.3307   -6.7903    5.7425 C   0  0  0  0  0  0  0  0  0  0  0  0
    0.1510   -7.1087    4.4030 C   0  0  0  0  0  0  0  0  0  0  0  0
    0.3945   -8.3716    3.9326 C   0  0  0  0  0  0  0  0  0  0  0  0
    0.2757   -9.5387    4.7174 C   0  0  0  0  0  0  0  0  0  0  0  0
    0.2032  -10.5218    5.3050 N   0  0  0  0  0  0  0  0  0  0  0  0
    0.7473   -8.7009    2.6056 C   0  0  0  0  0  0  0  0  0  0  0  0
    1.0140   -9.0647    1.5495 N   0  0  0  0  0  0  0  0  0  0  0  0
   -2.2103    6.4888   -2.7526 H   0  0  0  0  0  0  0  0  0  0  0  0
    1.2541    8.6763   -6.0550 H   0  0  0  0  0  0  0  0  0  0  0  0
    3.4345    5.3908   -7.7502 H   0  0  0  0  0  0  0  0  0  0  0  0
    1.9700    3.7792   -6.6157 H   0  0  0  0  0  0  0  0  0  0  0  0
   -3.8125    5.3439   -1.4215 H   0  0  0  0  0  0  0  0  0  0  0  0
   -4.3715    3.5418    0.1400 H   0  0  0  0  0  0  0  0  0  0  0  0
   -3.8852   -0.1206    1.3540 H   0  0  0  0  0  0  0  0  0  0  0  0
   -4.6624    1.4293    1.0010 H   0  0  0  0  0  0  0  0  0  0  0  0
   -3.2340    2.5349    2.7376 H   0  0  0  0  0  0  0  0  0  0  0  0
   -2.4629    0.9860    3.0891 H   0  0  0  0  0  0  0  0  0  0  0  0
   -4.1797    1.2160    3.4377 H   0  0  0  0  0  0  0  0  0  0  0  0
   -0.1874    3.3548   -2.5620 H   0  0  0  0  0  0  0  0  0  0  0  0
    0.9958    1.0025   -2.0431 H   0  0  0  0  0  0  0  0  0  0  0  0
   -1.8494   -1.2293    1.4645 H   0  0  0  0  0  0  0  0  0  0  0  0
   -0.6024   -3.4913    2.0980 H   0  0  0  0  0  0  0  0  0  0  0  0
    2.8794   -5.6214    0.7638 H   0  0  0  0  0  0  0  0  0  0  0  0
    3.4180   -3.8539   -0.8330 H   0  0  0  0  0  0  0  0  0  0  0  0
    2.9898   -0.1908   -2.0601 H   0  0  0  0  0  0  0  0  0  0  0  0
    3.7130   -1.7777   -1.7621 H   0  0  0  0  0  0  0  0  0  0  0  0
    3.0781   -1.5326   -4.1610 H   0  0  0  0  0  0  0  0  0  0  0  0
    2.1209   -2.8075   -3.3980 H   0  0  0  0  0  0  0  0  0  0  0  0
    1.4021   -1.2240   -3.6997 H   0  0  0  0  0  0  0  0  0  0  0  0
    1.5122   -6.6345    2.2123 H   0  0  0  0  0  0  0  0  0  0  0  0
   -1.3960   -3.7729    6.9290 H   0  0  0  0  0  0  0  0  0  0  0  0
   -0.2505   -8.6204    6.9111 H   0  0  0  0  0  0  0  0  0  0  0  0
  1  2  2  0  0  0  0
  2  3  1  0  0  0  0
  3  4  2  0  0  0  0
  3  5  1  0  0  0  0
  5  6  2  0  0  0  0
  6  7  1  0  0  0  0
  7  8  1  0  0  0  0
  7  9  2  0  0  0  0
  9 10  1  0  0  0  0
 10 11  2  0  0  0  0
 11 12  1  0  0  0  0
 12 13  2  0  0  0  0
 13 14  1  0  0  0  0
 14 15  3  0  0  0  0
 13 16  1  0  0  0  0
 16 17  3  0  0  0  0
  1 18  1  0  0  0  0
 18 19  2  0  0  0  0
 19 20  1  0  0  0  0
 20 21  2  0  0  0  0
 21 22  1  0  0  0  0
 22 23  1  0  0  0  0
 23 24  1  0  0  0  0
 22 25  1  0  0  0  0
 25 26  2  0  0  0  0
 26 27  1  0  0  0  0
 27 28  2  0  0  0  0
 26 29  1  0  0  0  0
 29 30  2  0  0  0  0
 30 31  1  0  0  0  0
 31 32  2  0  0  0  0
 31 33  1  0  0  0  0
 33 34  2  0  0  0  0
 34 35  1  0  0  0  0
 35 36  2  0  0  0  0
 36 37  1  0  0  0  0
 37 38  2  0  0  0  0
 38 39  1  0  0  0  0
 39 40  1  0  0  0  0
 40 41  1  0  0  0  0
 35 42  1  0  0  0  0
 42 43  2  0  0  0  0
 43 44  1  0  0  0  0
 44 45  2  0  0  0  0
 44 46  1  0  0  0  0
 46 47  2  0  0  0  0
 47 48  1  0  0  0  0
 48 49  1  0  0  0  0
 48 50  2  0  0  0  0
 50 51  1  0  0  0  0
 50 52  1  0  0  0  0
 52 53  2  0  0  0  0
 53 54  1  0  0  0  0
 54 55  2  0  0  0  0
 55 56  1  0  0  0  0
 56 57  3  0  0  0  0
 55 58  1  0  0  0  0
 58 59  3  0  0  0  0
 12  2  1  0  0  0  0
 28 18  1  0  0  0  0
 39 30  1  0  0  0  0
 54 43  1  0  0  0  0
 11  5  1  0  0  0  0
 27 21  1  0  0  0  0
 38 33  1  0  0  0  0
 53 46  1  0  0  0  0
 32 25  1  0  0  0  0
  1 60  1  0  0  0  0
  6 61  1  0  0  0  0
  9 62  1  0  0  0  0
 10 63  1  0  0  0  0
 19 64  1  0  0  0  0
 20 65  1  0  0  0  0
 23 66  1  0  0  0  0
 23 67  1  0  0  0  0
 24 68  1  0  0  0  0
 24 69  1  0  0  0  0
 24 70  1  0  0  0  0
 28 71  1  0  0  0  0
 29 72  1  0  0  0  0
 32 73  1  0  0  0  0
 34 74  1  0  0  0  0
 36 75  1  0  0  0  0
 37 76  1  0  0  0  0
 40 77  1  0  0  0  0
 40 78  1  0  0  0  0
 41 79  1  0  0  0  0
 41 80  1  0  0  0  0
 41 81  1  0  0  0  0
 42 82  1  0  0  0  0
 47 83  1  0  0  0  0
 52 84  1  0  0  0  0
M  END
