97

C          7.00360        2.30930       -1.33670
C          6.88980        3.64870       -1.63050
C          5.66140        4.44090       -1.58560
O          4.53220        4.06180       -1.32820
C          6.05900        5.82670       -1.91040
C          5.26530        6.95210       -1.97650
C          5.88930        8.15120       -2.29460
Br         4.85030        9.73880       -2.39700
C          7.25430        8.21880       -2.53740
C          8.04250        7.07910       -2.46980
C          7.44290        5.86890       -2.15330
C          7.98710        4.51930       -2.00150
C          9.30100        4.17520       -2.19550
C          9.84190        2.87820       -2.07700
N         10.36260        1.85640       -2.00230
C         10.31220        5.09000       -2.55760
N         11.18060        5.78010       -2.85340
C          6.04500        1.36740       -0.95790
C          6.36650        0.02730       -0.66800
C          7.72240       -0.58990       -0.77200
C          8.01770       -1.01090       -2.21440
C          5.23750       -0.69680       -0.31530
S          5.00940       -2.36970        0.15930
C          3.31890       -2.05630        0.33930
C          2.15170       -2.73300        0.72380
C          1.91660       -4.01110        1.28360
C          0.59340       -4.34350        1.74170
N          0.54520       -5.53390        2.31680
S          2.02530       -6.18710        2.27980
N          2.78990       -4.97360        1.53040
C         -0.47310       -3.45290        1.47360
C         -1.86300       -3.54610        1.63920
S         -3.02430       -4.61050        2.35110
C         -4.30020       -3.54880        1.78390
C         -5.68090       -3.61010        1.88870
C         -6.38810       -4.68740        2.64320
C         -6.69470       -4.23590        4.07420
C         -6.29230       -2.51260        1.24990
S         -5.10830       -1.41890        0.52570
C         -3.82620       -2.42690        1.07780
C         -2.43260       -2.42900        1.00710
N         -1.44480       -1.63320        0.48100
C         -0.23880       -2.22820        0.78980
C          1.08930       -1.79890        0.58030
N          1.59860       -0.57560        0.19550
C          2.95330       -0.73420        0.03960
C          4.04670        0.05250       -0.32760
S          4.31750        1.69200       -0.77960
C          1.03920        0.72870        0.49270
C          1.66530        1.32390        1.75330
C         -1.72240       -0.77460       -0.65430
C         -2.27050       -1.57890       -1.83230
C         -7.67590       -2.33910        1.20660
C         -8.44890       -1.35890        0.62510
C         -7.95940       -0.21420       -0.14120
O         -6.80430        0.09520       -0.37520
C         -9.16160        0.51410       -0.59860
C         -9.23100        1.65580       -1.37140
C        -10.48970        2.14680       -1.67940
F        -10.60550        3.25020       -2.42860
C        -11.63640        1.50100       -1.21770
F        -12.83900        1.99520       -1.53230
C        -11.56500        0.35420       -0.43950
C        -10.31000       -0.14400       -0.12780
C         -9.89580       -1.31320        0.65110
C        -10.75240       -2.17910        1.28180
C        -10.37650       -3.30180        2.04840
N        -10.15750       -4.22990        2.68960
C        -12.15840       -2.05960        1.25740
N        -13.30520       -2.02420        1.27960
H          8.00290        1.90020       -1.39500
H          4.20500        6.89350       -1.78590
H          7.70650        9.16810       -2.78020
H          9.09980        7.15700       -2.66090
H          7.74420       -1.47390       -0.13160
H          8.49660        0.09840       -0.43070
H          9.00100       -1.46850       -2.26870
H          7.27700       -1.72900       -2.55840
H          8.00310       -0.14990       -2.87810
H         -5.73660       -5.56280        2.67820
H         -7.31690       -4.97210        2.14710
H         -7.19740       -5.03500        4.61090
H         -5.77460       -3.98650        4.59760
H         -7.34260       -3.36280        4.07280
H          1.22360        1.39080       -0.35880
H         -0.03190        0.62880        0.65710
H          1.18250        2.26940        1.98240
H          1.53100        0.64860        2.59580
H          2.72660        1.50640        1.61420
H         -2.45360       -0.01940       -0.35070
H         -0.80070       -0.28980       -0.97000
H         -1.56830       -2.36050       -2.11490
H         -2.41870       -0.91800       -2.68120
H         -3.22380       -2.03580       -1.58390
H         -8.21980       -3.12240        1.71630
H         -8.34160        2.15120       -1.72660
H        -12.48180       -0.10540       -0.10920
