100

C          0.60750        7.57340       -1.80870
C         -0.68310        8.03600       -1.69120
C         -1.85380        7.24300       -1.31890
O         -1.90370        6.05310       -1.05940
C         -2.99660        8.17960       -1.31850
C         -4.31920        7.91690       -1.03110
C         -5.20820        8.98120       -1.10330
Br        -7.04520        8.68320       -0.71970
C         -4.78740       10.25800       -1.44910
C         -3.45370       10.51020       -1.73640
C         -2.54600        9.46330       -1.67240
C         -1.10430        9.40430       -1.91470
C         -0.32580       10.47100       -2.28690
C          1.06320       10.43650       -2.52800
N          2.19070       10.49230       -2.74400
C         -0.81860       11.77810       -2.48450
N         -1.15210       12.86260       -2.65930
C          1.14730        6.30050       -1.61630
C          2.52060        6.02410       -1.75910
C          3.58350        7.02120       -2.08480
C          4.03650        7.76520       -0.82520
C          2.79700        4.69090       -1.49530
S          4.29480        3.77720       -1.48080
C          3.39370        2.37200       -1.03130
C          3.62000        1.03240       -0.69190
C          4.82380        0.31610       -0.50530
C          4.76100       -1.02300        0.00090
N          5.96050       -1.54890        0.19110
S          7.07400       -0.45440       -0.23570
N          6.06800        0.73350       -0.67780
C          3.49540       -1.62820        0.17040
C          3.14250       -2.94220        0.49680
S          3.90750       -4.42700        0.94160
C          2.33360       -5.20190        0.92880
C          1.93510       -6.50330        1.18820
C          2.89760       -7.59530        1.52080
C          3.26690       -8.39500        0.26800
C          0.54140       -6.65260        1.03720
S         -0.24210       -5.13970        0.57260
C          1.27820       -4.33150        0.59300
C          1.75030       -3.03870        0.35970
N          1.23590       -1.82670       -0.01600
C          2.28120       -0.93190       -0.11390
C          2.34460        0.45240       -0.42140
N          1.37810        1.43490       -0.55760
C          2.01570        2.59450       -0.91510
C          1.66470        3.92290       -1.16710
S          0.22310        4.86460       -1.16620
C          0.07410        1.54390        0.06270
C          0.20700        1.76240        1.56830
C         -0.12040       -1.75130       -0.51200
C         -1.14700       -1.69900        0.61830
C         -0.11670       -7.86270        1.25170
C         -1.44780       -8.20160        1.14110
C         -2.53060       -7.31610        0.71810
O         -2.46490       -6.13490        0.42580
C         -3.75580       -8.14400        0.71230
C         -5.03960       -7.77780        0.36820
C         -6.02940       -8.75340        0.44460
C         -7.43550       -8.40200        0.04280
F         -7.62300       -8.53800       -1.28490
F         -7.75310       -7.13280        0.33690
F         -8.35720       -9.17540        0.63270
C         -5.73020      -10.05000        0.84640
C         -4.43440      -10.40880        1.19270
C         -3.43730       -9.44850        1.12580
C         -2.00100       -9.51020        1.41460
C         -1.34180      -10.62100        1.87760
C          0.03570      -10.70030        2.17040
N          1.14480      -10.84660        2.43350
C         -1.96390      -11.86000        2.14000
N         -2.40370      -12.89390        2.37460
H          1.34590        8.31050       -2.09260
H         -4.64040        6.92230       -0.76300
H         -5.50550       11.06220       -1.49470
H         -3.15140       11.50960       -2.00190
H          4.43580        6.48450       -2.50610
H          3.23380        7.74220       -2.82490
H          4.42310        7.06350       -0.08980
H          3.20840        8.31320       -0.38190
H          4.82000        8.47300       -1.07920
H          3.80100       -7.13970        1.93080
H          2.48360       -8.26950        2.27200
H          3.97550       -9.17620        0.52710
H          3.72010       -7.74420       -0.47610
H          2.38540       -8.85980       -0.16750
H         -0.41930        2.40690       -0.39150
H         -0.53250        0.66740       -0.13640
H          0.77410        2.66820        1.76950
H         -0.77820        1.86620        2.01410
H          0.72090        0.92380        2.03460
H         -0.30370       -2.65640       -1.10150
H         -0.20030       -0.89970       -1.18900
H         -2.13770       -1.52990        0.20610
H         -0.91930       -0.91090        1.33110
H         -1.16010       -2.64620        1.15020
H          0.54650       -8.66120        1.55390
H         -5.26150       -6.76880        0.05650
H         -6.51760      -10.78650        0.89410
H         -4.23000      -11.42010        1.50200
