
  xtb     02022202443D
 energy: -193.760929327217 gnorm: 0.000528221965 xtb: 6.4.1 (unknown)
100111  0     0  0            999 V2000
    0.6075    7.5734   -1.8087 C   0  0  0  0  0  0  0  0  0  0  0  0
   -0.6831    8.0360   -1.6912 C   0  0  0  0  0  0  0  0  0  0  0  0
   -1.8538    7.2430   -1.3189 C   0  0  0  0  0  0  0  0  0  0  0  0
   -1.9037    6.0531   -1.0594 O   0  0  0  0  0  0  0  0  0  0  0  0
   -2.9966    8.1796   -1.3185 C   0  0  0  0  0  0  0  0  0  0  0  0
   -4.3192    7.9169   -1.0311 C   0  0  0  0  0  0  0  0  0  0  0  0
   -5.2082    8.9812   -1.1033 C   0  0  0  0  0  0  0  0  0  0  0  0
   -7.0452    8.6832   -0.7197 Br  0  0  0  0  0  0  0  0  0  0  0  0
   -4.7874   10.2580   -1.4491 C   0  0  0  0  0  0  0  0  0  0  0  0
   -3.4537   10.5102   -1.7364 C   0  0  0  0  0  0  0  0  0  0  0  0
   -2.5460    9.4633   -1.6724 C   0  0  0  0  0  0  0  0  0  0  0  0
   -1.1043    9.4043   -1.9147 C   0  0  0  0  0  0  0  0  0  0  0  0
   -0.3258   10.4710   -2.2869 C   0  0  0  0  0  0  0  0  0  0  0  0
    1.0632   10.4365   -2.5280 C   0  0  0  0  0  0  0  0  0  0  0  0
    2.1907   10.4923   -2.7440 N   0  0  0  0  0  0  0  0  0  0  0  0
   -0.8186   11.7781   -2.4845 C   0  0  0  0  0  0  0  0  0  0  0  0
   -1.1521   12.8626   -2.6593 N   0  0  0  0  0  0  0  0  0  0  0  0
    1.1473    6.3005   -1.6163 C   0  0  0  0  0  0  0  0  0  0  0  0
    2.5206    6.0241   -1.7591 C   0  0  0  0  0  0  0  0  0  0  0  0
    3.5835    7.0212   -2.0848 C   0  0  0  0  0  0  0  0  0  0  0  0
    4.0365    7.7652   -0.8252 C   0  0  0  0  0  0  0  0  0  0  0  0
    2.7970    4.6909   -1.4953 C   0  0  0  0  0  0  0  0  0  0  0  0
    4.2948    3.7772   -1.4808 S   0  0  0  0  0  0  0  0  0  0  0  0
    3.3937    2.3720   -1.0313 C   0  0  0  0  0  0  0  0  0  0  0  0
    3.6200    1.0324   -0.6919 C   0  0  0  0  0  0  0  0  0  0  0  0
    4.8238    0.3161   -0.5053 C   0  0  0  0  0  0  0  0  0  0  0  0
    4.7610   -1.0230    0.0009 C   0  0  0  0  0  0  0  0  0  0  0  0
    5.9605   -1.5489    0.1911 N   0  0  0  0  0  0  0  0  0  0  0  0
    7.0740   -0.4544   -0.2357 S   0  0  0  0  0  0  0  0  0  0  0  0
    6.0680    0.7335   -0.6778 N   0  0  0  0  0  0  0  0  0  0  0  0
    3.4954   -1.6282    0.1704 C   0  0  0  0  0  0  0  0  0  0  0  0
    3.1425   -2.9422    0.4968 C   0  0  0  0  0  0  0  0  0  0  0  0
    3.9075   -4.4270    0.9416 S   0  0  0  0  0  0  0  0  0  0  0  0
    2.3336   -5.2019    0.9288 C   0  0  0  0  0  0  0  0  0  0  0  0
    1.9351   -6.5033    1.1882 C   0  0  0  0  0  0  0  0  0  0  0  0
    2.8976   -7.5953    1.5208 C   0  0  0  0  0  0  0  0  0  0  0  0
    3.2669   -8.3950    0.2680 C   0  0  0  0  0  0  0  0  0  0  0  0
    0.5414   -6.6526    1.0372 C   0  0  0  0  0  0  0  0  0  0  0  0
   -0.2421   -5.1397    0.5726 S   0  0  0  0  0  0  0  0  0  0  0  0
    1.2782   -4.3315    0.5930 C   0  0  0  0  0  0  0  0  0  0  0  0
    1.7503   -3.0387    0.3597 C   0  0  0  0  0  0  0  0  0  0  0  0
    1.2359   -1.8267   -0.0160 N   0  0  0  0  0  0  0  0  0  0  0  0
    2.2812   -0.9319   -0.1139 C   0  0  0  0  0  0  0  0  0  0  0  0
    2.3446    0.4524   -0.4214 C   0  0  0  0  0  0  0  0  0  0  0  0
    1.3781    1.4349   -0.5576 N   0  0  0  0  0  0  0  0  0  0  0  0
    2.0157    2.5945   -0.9151 C   0  0  0  0  0  0  0  0  0  0  0  0
    1.6647    3.9229   -1.1671 C   0  0  0  0  0  0  0  0  0  0  0  0
    0.2231    4.8646   -1.1662 S   0  0  0  0  0  0  0  0  0  0  0  0
    0.0741    1.5439    0.0627 C   0  0  0  0  0  0  0  0  0  0  0  0
    0.2070    1.7624    1.5683 C   0  0  0  0  0  0  0  0  0  0  0  0
   -0.1204   -1.7513   -0.5120 C   0  0  0  0  0  0  0  0  0  0  0  0
   -1.1470   -1.6990    0.6183 C   0  0  0  0  0  0  0  0  0  0  0  0
   -0.1167   -7.8627    1.2517 C   0  0  0  0  0  0  0  0  0  0  0  0
   -1.4478   -8.2016    1.1411 C   0  0  0  0  0  0  0  0  0  0  0  0
   -2.5306   -7.3161    0.7181 C   0  0  0  0  0  0  0  0  0  0  0  0
   -2.4649   -6.1349    0.4258 O   0  0  0  0  0  0  0  0  0  0  0  0
   -3.7558   -8.1440    0.7123 C   0  0  0  0  0  0  0  0  0  0  0  0
   -5.0396   -7.7778    0.3682 C   0  0  0  0  0  0  0  0  0  0  0  0
   -6.0294   -8.7534    0.4446 C   0  0  0  0  0  0  0  0  0  0  0  0
   -7.4355   -8.4020    0.0428 C   0  0  0  0  0  0  0  0  0  0  0  0
   -7.6230   -8.5380   -1.2849 F   0  0  0  0  0  0  0  0  0  0  0  0
   -7.7531   -7.1328    0.3369 F   0  0  0  0  0  0  0  0  0  0  0  0
   -8.3572   -9.1754    0.6327 F   0  0  0  0  0  0  0  0  0  0  0  0
   -5.7302  -10.0500    0.8464 C   0  0  0  0  0  0  0  0  0  0  0  0
   -4.4344  -10.4088    1.1927 C   0  0  0  0  0  0  0  0  0  0  0  0
   -3.4373   -9.4485    1.1258 C   0  0  0  0  0  0  0  0  0  0  0  0
   -2.0010   -9.5102    1.4146 C   0  0  0  0  0  0  0  0  0  0  0  0
   -1.3418  -10.6210    1.8776 C   0  0  0  0  0  0  0  0  0  0  0  0
    0.0357  -10.7003    2.1704 C   0  0  0  0  0  0  0  0  0  0  0  0
    1.1448  -10.8466    2.4335 N   0  0  0  0  0  0  0  0  0  0  0  0
   -1.9639  -11.8600    2.1400 C   0  0  0  0  0  0  0  0  0  0  0  0
   -2.4037  -12.8939    2.3746 N   0  0  0  0  0  0  0  0  0  0  0  0
    1.3459    8.3105   -2.0926 H   0  0  0  0  0  0  0  0  0  0  0  0
   -4.6404    6.9223   -0.7630 H   0  0  0  0  0  0  0  0  0  0  0  0
   -5.5055   11.0622   -1.4947 H   0  0  0  0  0  0  0  0  0  0  0  0
   -3.1514   11.5096   -2.0019 H   0  0  0  0  0  0  0  0  0  0  0  0
    4.4358    6.4845   -2.5061 H   0  0  0  0  0  0  0  0  0  0  0  0
    3.2338    7.7422   -2.8249 H   0  0  0  0  0  0  0  0  0  0  0  0
    4.4231    7.0635   -0.0898 H   0  0  0  0  0  0  0  0  0  0  0  0
    3.2084    8.3132   -0.3819 H   0  0  0  0  0  0  0  0  0  0  0  0
    4.8200    8.4730   -1.0792 H   0  0  0  0  0  0  0  0  0  0  0  0
    3.8010   -7.1397    1.9308 H   0  0  0  0  0  0  0  0  0  0  0  0
    2.4836   -8.2695    2.2720 H   0  0  0  0  0  0  0  0  0  0  0  0
    3.9755   -9.1762    0.5271 H   0  0  0  0  0  0  0  0  0  0  0  0
    3.7201   -7.7442   -0.4761 H   0  0  0  0  0  0  0  0  0  0  0  0
    2.3854   -8.8598   -0.1675 H   0  0  0  0  0  0  0  0  0  0  0  0
   -0.4193    2.4069   -0.3915 H   0  0  0  0  0  0  0  0  0  0  0  0
   -0.5325    0.6674   -0.1364 H   0  0  0  0  0  0  0  0  0  0  0  0
    0.7741    2.6682    1.7695 H   0  0  0  0  0  0  0  0  0  0  0  0
   -0.7782    1.8662    2.0141 H   0  0  0  0  0  0  0  0  0  0  0  0
    0.7209    0.9238    2.0346 H   0  0  0  0  0  0  0  0  0  0  0  0
   -0.3037   -2.6564   -1.1015 H   0  0  0  0  0  0  0  0  0  0  0  0
   -0.2003   -0.8997   -1.1890 H   0  0  0  0  0  0  0  0  0  0  0  0
   -2.1377   -1.5299    0.2061 H   0  0  0  0  0  0  0  0  0  0  0  0
   -0.9193   -0.9109    1.3311 H   0  0  0  0  0  0  0  0  0  0  0  0
   -1.1601   -2.6462    1.1502 H   0  0  0  0  0  0  0  0  0  0  0  0
    0.5465   -8.6612    1.5539 H   0  0  0  0  0  0  0  0  0  0  0  0
   -5.2615   -6.7688    0.0565 H   0  0  0  0  0  0  0  0  0  0  0  0
   -6.5176  -10.7865    0.8941 H   0  0  0  0  0  0  0  0  0  0  0  0
   -4.2300  -11.4201    1.5020 H   0  0  0  0  0  0  0  0  0  0  0  0
  1  2  2  0  0  0  0
  2  3  1  0  0  0  0
  3  4  2  0  0  0  0
  3  5  1  0  0  0  0
  5  6  2  0  0  0  0
  6  7  1  0  0  0  0
  7  8  1  0  0  0  0
  7  9  2  0  0  0  0
  9 10  1  0  0  0  0
 10 11  2  0  0  0  0
 11 12  1  0  0  0  0
 12 13  2  0  0  0  0
 13 14  1  0  0  0  0
 14 15  3  0  0  0  0
 13 16  1  0  0  0  0
 16 17  3  0  0  0  0
  1 18  1  0  0  0  0
 18 19  2  0  0  0  0
 19 20  1  0  0  0  0
 20 21  1  0  0  0  0
 19 22  1  0  0  0  0
 22 23  1  0  0  0  0
 23 24  1  0  0  0  0
 24 25  1  0  0  0  0
 25 26  1  0  0  0  0
 26 27  1  0  0  0  0
 27 28  2  0  0  0  0
 28 29  1  0  0  0  0
 29 30  1  0  0  0  0
 27 31  1  0  0  0  0
 31 32  1  0  0  0  0
 32 33  1  0  0  0  0
 33 34  1  0  0  0  0
 34 35  1  0  0  0  0
 35 36  1  0  0  0  0
 36 37  1  0  0  0  0
 35 38  2  0  0  0  0
 38 39  1  0  0  0  0
 39 40  1  0  0  0  0
 40 41  1  0  0  0  0
 41 42  1  0  0  0  0
 42 43  1  0  0  0  0
 43 44  1  0  0  0  0
 44 45  1  0  0  0  0
 45 46  1  0  0  0  0
 46 47  1  0  0  0  0
 47 48  1  0  0  0  0
 45 49  1  0  0  0  0
 49 50  1  0  0  0  0
 42 51  1  0  0  0  0
 51 52  1  0  0  0  0
 38 53  1  0  0  0  0
 53 54  2  0  0  0  0
 54 55  1  0  0  0  0
 55 56  2  0  0  0  0
 55 57  1  0  0  0  0
 57 58  2  0  0  0  0
 58 59  1  0  0  0  0
 59 60  1  0  0  0  0
 60 61  1  0  0  0  0
 60 62  1  0  0  0  0
 60 63  1  0  0  0  0
 59 64  2  0  0  0  0
 64 65  1  0  0  0  0
 65 66  2  0  0  0  0
 66 67  1  0  0  0  0
 67 68  2  0  0  0  0
 68 69  1  0  0  0  0
 69 70  3  0  0  0  0
 68 71  1  0  0  0  0
 71 72  3  0  0  0  0
 12  2  1  0  0  0  0
 48 18  1  0  0  0  0
 67 54  1  0  0  0  0
 11  5  1  0  0  0  0
 47 22  2  0  0  0  0
 66 57  1  0  0  0  0
 46 24  2  0  0  0  0
 44 25  2  0  0  0  0
 30 26  2  0  0  0  0
 43 31  2  0  0  0  0
 41 32  2  0  0  0  0
 40 34  2  0  0  0  0
  1 73  1  0  0  0  0
  6 74  1  0  0  0  0
  9 75  1  0  0  0  0
 10 76  1  0  0  0  0
 20 77  1  0  0  0  0
 20 78  1  0  0  0  0
 21 79  1  0  0  0  0
 21 80  1  0  0  0  0
 21 81  1  0  0  0  0
 36 82  1  0  0  0  0
 36 83  1  0  0  0  0
 37 84  1  0  0  0  0
 37 85  1  0  0  0  0
 37 86  1  0  0  0  0
 49 87  1  0  0  0  0
 49 88  1  0  0  0  0
 50 89  1  0  0  0  0
 50 90  1  0  0  0  0
 50 91  1  0  0  0  0
 51 92  1  0  0  0  0
 51 93  1  0  0  0  0
 52 94  1  0  0  0  0
 52 95  1  0  0  0  0
 52 96  1  0  0  0  0
 53 97  1  0  0  0  0
 58 98  1  0  0  0  0
 64 99  1  0  0  0  0
 65100  1  0  0  0  0
M  END
