94

C          3.66650       -1.71840        6.24840
C          4.11370       -0.53020        6.73660
C          5.41010       -0.47600        7.46760
O          5.99040       -1.39140        7.99790
C          5.85920        0.92970        7.32310
C          7.06870        1.48930        7.68000
C          7.25830        2.83470        7.39030
Br         8.90260        3.65890        7.85990
C          6.27930        3.59400        6.76080
C          5.06170        3.02840        6.41600
C          4.84810        1.68920        6.70390
C          3.68330        0.83520        6.50560
C          2.38810        1.26660        6.40850
C          1.28250        0.39920        6.55480
N          0.36740       -0.27080        6.72650
C          2.01440        2.60970        6.22170
N          1.65280        3.68290        6.03120
C          2.79450       -1.95430        5.15880
C          2.35170       -3.19100        4.71910
C          1.61820       -3.09430        3.53810
S          0.80610       -4.24510        2.51990
C          0.29080       -2.95570        1.45210
C         -0.49090       -3.13080        0.31960
C         -0.92190       -4.46130       -0.09480
S         -0.37070       -5.18600       -1.57210
C         -1.24420       -6.64890       -1.27440
C         -1.19470       -7.79920       -2.21900
C          0.22260       -8.35870       -2.34410
C         -1.90770       -6.56470       -0.08760
F         -2.67200       -7.55200        0.39980
C         -1.72180       -5.33260        0.58640
F         -2.30420       -5.03920        1.75430
C         -0.84200       -1.98170       -0.40360
C         -0.39190       -0.70200        0.01630
C          0.41330       -0.52710        1.13100
C          0.87010        0.78570        1.56680
S         -0.24200        2.04420        2.00660
C          1.02510        3.12610        2.46220
C          0.76040        4.48940        3.00060
C         -0.65790        4.96340        2.71730
C          2.23630        2.52850        2.27040
C          2.15410        1.21110        1.76300
F          3.23150        0.47030        1.46800
F          3.40470        3.12860        2.55390
C          0.75210       -1.67800        1.86050
C          1.50650       -1.79280        3.05010
S          2.31160       -0.67310        4.06500
S         -0.94040        0.59570       -1.02310
C         -1.79750       -0.54740       -2.00830
C         -2.58440       -0.42190       -3.15170
C         -3.07220       -1.64250       -3.57420
S         -2.56280       -2.94870       -2.52500
C         -1.65730       -1.85750       -1.55510
C         -3.93000       -1.93650       -4.66710
C         -4.12030       -1.22800       -5.80740
C         -5.34600       -1.47850       -6.62990
O         -6.09680       -2.42040       -6.52420
C         -5.44590       -0.31880       -7.52410
C         -6.45060        0.02550       -8.40800
C         -6.33540        1.19680       -9.13780
C         -5.22090        2.02600       -8.97980
O         -5.03060        3.18740       -9.63410
C         -5.99150        3.62380      -10.56920
C         -4.19540        1.67350       -8.08760
C         -4.30970        0.50390       -7.37010
C         -3.39790       -0.13090       -6.41960
C         -2.05250        0.10380       -6.33760
C         -1.38680        1.12740       -7.04500
N         -0.79690        1.95190       -7.58210
C         -1.15860       -0.70630       -5.60660
N         -0.38800       -1.35910       -5.06170
H          4.13600       -2.60240        6.66820
H          7.83150        0.89840        8.16290
H          6.47150        4.63240        6.53880
H          4.31460        3.62340        5.91590
H          2.54960       -4.10830        5.24220
H         -1.87200       -8.57310       -1.85250
H         -1.54150       -7.47470       -3.20320
H          0.58310       -8.70030       -1.37690
H          0.23220       -9.19770       -3.03420
H          0.89830       -7.59210       -2.71630
H          0.93360        4.47470        4.08280
H          1.48890        5.17960        2.56630
H         -1.37910        4.29870        3.18760
H         -0.85160        4.98080        1.64700
H         -0.80200        5.96430        3.11390
H         -2.81880        0.51430       -3.62430
H         -4.56130       -2.81290       -4.55590
H         -7.31060       -0.61580       -8.52380
H         -7.11930        1.46190       -9.82890
H         -5.60950        4.56460      -10.96120
H         -6.96240        3.79660      -10.09520
H         -6.10480        2.90940      -11.38990
H         -3.35450        2.34020       -7.99030
