
  xtb     01212213023D
 energy: -167.827774784243 gnorm: 0.000251250467 xtb: 6.4.1 (unknown)
 98107  0     0  0            999 V2000
    7.6092    7.9947   -0.6559 C   0  0  0  0  0  0  0  0  0  0  0  0
    6.4540    7.2616    0.0152 C   0  0  0  0  0  0  0  0  0  0  0  0
    6.5134    5.8319   -0.2280 N   0  0  0  0  0  0  0  0  0  0  0  0
    7.2978    4.9628    0.4579 C   0  0  0  0  0  0  0  0  0  0  0  0
    8.1315    5.2126    1.5188 C   0  0  0  0  0  0  0  0  0  0  0  0
    8.8591    4.1462    2.0876 C   0  0  0  0  0  0  0  0  0  0  0  0
    9.4571    3.2855    2.5540 N   0  0  0  0  0  0  0  0  0  0  0  0
    8.3626    6.4534    2.1360 C   0  0  0  0  0  0  0  0  0  0  0  0
    8.6032    7.4333    2.6852 N   0  0  0  0  0  0  0  0  0  0  0  0
    7.1366    3.3351   -0.1580 S   0  0  0  0  0  0  0  0  0  0  0  0
    5.9801    3.8604   -1.3780 C   0  0  0  0  0  0  0  0  0  0  0  0
    5.7563    5.2981   -1.2680 C   0  0  0  0  0  0  0  0  0  0  0  0
    5.0307    5.9871   -1.9505 O   0  0  0  0  0  0  0  0  0  0  0  0
    5.4108    2.9867   -2.2508 C   0  0  0  0  0  0  0  0  0  0  0  0
    4.4324    3.3962   -3.2205 C   0  0  0  0  0  0  0  0  0  0  0  0
    3.8283    2.5244   -4.0385 C   0  0  0  0  0  0  0  0  0  0  0  0
    4.1355    1.0607   -4.0415 C   0  0  0  0  0  0  0  0  0  0  0  0
    5.5617    0.8344   -3.5152 C   0  0  0  0  0  0  0  0  0  0  0  0
    5.7536    1.5299   -2.1735 C   0  0  0  0  0  0  0  0  0  0  0  0
    3.1225    0.3189   -3.2170 C   0  0  0  0  0  0  0  0  0  0  0  0
    2.2653    1.1458   -1.9305 S   0  0  0  0  0  0  0  0  0  0  0  0
    1.4469   -0.3177   -1.5271 C   0  0  0  0  0  0  0  0  0  0  0  0
    0.5094   -0.8380   -0.6328 C   0  0  0  0  0  0  0  0  0  0  0  0
   -0.4958   -0.3374    0.6899 S   0  0  0  0  0  0  0  0  0  0  0  0
   -1.1147   -1.9652    0.8123 C   0  0  0  0  0  0  0  0  0  0  0  0
   -0.5623   -2.8441   -0.1225 C   0  0  0  0  0  0  0  0  0  0  0  0
    0.3669   -2.2020   -0.9535 C   0  0  0  0  0  0  0  0  0  0  0  0
    1.1867   -2.5244   -1.9968 N   0  0  0  0  0  0  0  0  0  0  0  0
    1.8379   -1.3773   -2.3631 C   0  0  0  0  0  0  0  0  0  0  0  0
    2.7933   -0.9996   -3.3264 C   0  0  0  0  0  0  0  0  0  0  0  0
    1.2741   -3.8018   -2.6579 C   0  0  0  0  0  0  0  0  0  0  0  0
    0.4449   -3.8368   -3.9387 C   0  0  0  0  0  0  0  0  0  0  0  0
   -1.1914   -4.4704   -0.0064 S   0  0  0  0  0  0  0  0  0  0  0  0
   -2.2334   -3.9557    1.2880 C   0  0  0  0  0  0  0  0  0  0  0  0
   -3.2664   -4.4361    2.0986 C   0  0  0  0  0  0  0  0  0  0  0  0
   -3.6944   -3.3591    2.8942 C   0  0  0  0  0  0  0  0  0  0  0  0
   -2.9602   -2.2407    2.5961 N   0  0  0  0  0  0  0  0  0  0  0  0
   -3.0488   -0.9652    3.2597 C   0  0  0  0  0  0  0  0  0  0  0  0
   -2.2903   -0.9710    4.5844 C   0  0  0  0  0  0  0  0  0  0  0  0
   -2.0697   -2.5957    1.6219 C   0  0  0  0  0  0  0  0  0  0  0  0
   -4.8373   -3.6493    3.6580 C   0  0  0  0  0  0  0  0  0  0  0  0
   -5.2976   -4.9129    3.4234 C   0  0  0  0  0  0  0  0  0  0  0  0
   -4.2478   -5.8317    2.3534 S   0  0  0  0  0  0  0  0  0  0  0  0
   -6.6400   -5.4496    3.8393 C   0  0  0  0  0  0  0  0  0  0  0  0
   -7.5991   -4.2877    3.8716 C   0  0  0  0  0  0  0  0  0  0  0  0
   -7.7970   -3.6632    2.7127 C   0  0  0  0  0  0  0  0  0  0  0  0
   -7.1222   -4.2322    1.5517 C   0  0  0  0  0  0  0  0  0  0  0  0
   -6.3267   -3.5138    0.7298 C   0  0  0  0  0  0  0  0  0  0  0  0
   -5.4393   -4.1917   -0.6324 S   0  0  0  0  0  0  0  0  0  0  0  0
   -4.5466   -2.7047   -0.8384 C   0  0  0  0  0  0  0  0  0  0  0  0
   -3.5561   -2.6215   -1.7840 C   0  0  0  0  0  0  0  0  0  0  0  0
   -3.2549   -3.7421   -2.5843 C   0  0  0  0  0  0  0  0  0  0  0  0
   -2.9753   -4.6271   -3.2592 N   0  0  0  0  0  0  0  0  0  0  0  0
   -2.7396   -1.5163   -2.0736 C   0  0  0  0  0  0  0  0  0  0  0  0
   -2.0262   -0.6709   -2.3863 N   0  0  0  0  0  0  0  0  0  0  0  0
   -4.9641   -1.7442    0.0278 N   0  0  0  0  0  0  0  0  0  0  0  0
   -4.5033   -0.3688    0.0096 C   0  0  0  0  0  0  0  0  0  0  0  0
   -5.1589    0.4263   -1.1136 C   0  0  0  0  0  0  0  0  0  0  0  0
   -5.9396   -2.1233    0.9407 C   0  0  0  0  0  0  0  0  0  0  0  0
   -6.3532   -1.3819    1.8063 O   0  0  0  0  0  0  0  0  0  0  0  0
   -7.3080   -5.7149    1.4054 C   0  0  0  0  0  0  0  0  0  0  0  0
   -7.1756   -6.4213    2.7708 C   0  0  0  0  0  0  0  0  0  0  0  0
    8.5667    7.6668   -0.2579 H   0  0  0  0  0  0  0  0  0  0  0  0
    7.5115    9.0603   -0.4723 H   0  0  0  0  0  0  0  0  0  0  0  0
    7.5907    7.8207   -1.7295 H   0  0  0  0  0  0  0  0  0  0  0  0
    6.4486    7.4433    1.0912 H   0  0  0  0  0  0  0  0  0  0  0  0
    5.5056    7.5963   -0.4142 H   0  0  0  0  0  0  0  0  0  0  0  0
    4.1755    4.4430   -3.2502 H   0  0  0  0  0  0  0  0  0  0  0  0
    3.0564    2.8618   -4.7138 H   0  0  0  0  0  0  0  0  0  0  0  0
    4.0733    0.6751   -5.0661 H   0  0  0  0  0  0  0  0  0  0  0  0
    6.2688    1.2438   -4.2399 H   0  0  0  0  0  0  0  0  0  0  0  0
    5.7556   -0.2339   -3.4111 H   0  0  0  0  0  0  0  0  0  0  0  0
    5.1001    1.0695   -1.4255 H   0  0  0  0  0  0  0  0  0  0  0  0
    6.7826    1.4041   -1.8267 H   0  0  0  0  0  0  0  0  0  0  0  0
    3.2174   -1.6565   -4.0644 H   0  0  0  0  0  0  0  0  0  0  0  0
    0.9193   -4.5667   -1.9627 H   0  0  0  0  0  0  0  0  0  0  0  0
    2.3272   -3.9961   -2.8864 H   0  0  0  0  0  0  0  0  0  0  0  0
    0.7493   -3.0364   -4.6088 H   0  0  0  0  0  0  0  0  0  0  0  0
   -0.6114   -3.7184   -3.7125 H   0  0  0  0  0  0  0  0  0  0  0  0
    0.5822   -4.7901   -4.4405 H   0  0  0  0  0  0  0  0  0  0  0  0
   -4.1071   -0.7431    3.4292 H   0  0  0  0  0  0  0  0  0  0  0  0
   -2.6257   -0.2087    2.5938 H   0  0  0  0  0  0  0  0  0  0  0  0
   -1.2358   -1.1732    4.4118 H   0  0  0  0  0  0  0  0  0  0  0  0
   -2.6887   -1.7369    5.2458 H   0  0  0  0  0  0  0  0  0  0  0  0
   -2.3854   -0.0038    5.0691 H   0  0  0  0  0  0  0  0  0  0  0  0
   -5.3446   -2.9400    4.2854 H   0  0  0  0  0  0  0  0  0  0  0  0
   -6.5848   -5.9561    4.8078 H   0  0  0  0  0  0  0  0  0  0  0  0
   -8.0562   -3.9796    4.7968 H   0  0  0  0  0  0  0  0  0  0  0  0
   -8.3912   -2.7716    2.6017 H   0  0  0  0  0  0  0  0  0  0  0  0
   -4.7917    0.0518    0.9763 H   0  0  0  0  0  0  0  0  0  0  0  0
   -3.4159   -0.3494   -0.0843 H   0  0  0  0  0  0  0  0  0  0  0  0
   -4.8170    1.4559   -1.0684 H   0  0  0  0  0  0  0  0  0  0  0  0
   -6.2412    0.4107   -1.0044 H   0  0  0  0  0  0  0  0  0  0  0  0
   -4.8948    0.0231   -2.0883 H   0  0  0  0  0  0  0  0  0  0  0  0
   -8.3029   -5.8968    0.9920 H   0  0  0  0  0  0  0  0  0  0  0  0
   -6.5795   -6.1060    0.6935 H   0  0  0  0  0  0  0  0  0  0  0  0
   -6.4985   -7.2701    2.6783 H   0  0  0  0  0  0  0  0  0  0  0  0
   -8.1446   -6.7947    3.1037 H   0  0  0  0  0  0  0  0  0  0  0  0
  1  2  1  0  0  0  0
  2  3  1  0  0  0  0
  3  4  1  0  0  0  0
  4  5  2  0  0  0  0
  5  6  1  0  0  0  0
  6  7  3  0  0  0  0
  5  8  1  0  0  0  0
  8  9  3  0  0  0  0
  4 10  1  0  0  0  0
 10 11  1  0  0  0  0
 11 12  1  0  0  0  0
 12 13  2  0  0  0  0
 11 14  2  0  0  0  0
 14 15  1  0  0  0  0
 15 16  2  0  0  0  0
 16 17  1  0  0  0  0
 17 18  1  0  0  0  0
 18 19  1  0  0  0  0
 17 20  1  0  0  0  0
 20 21  1  0  0  0  0
 21 22  1  0  0  0  0
 22 23  1  0  0  0  0
 23 24  1  0  0  0  0
 24 25  1  0  0  0  0
 25 26  2  0  0  0  0
 26 27  1  0  0  0  0
 27 28  1  0  0  0  0
 28 29  1  0  0  0  0
 29 30  1  0  0  0  0
 28 31  1  0  0  0  0
 31 32  1  0  0  0  0
 26 33  1  0  0  0  0
 33 34  1  0  0  0  0
 34 35  1  0  0  0  0
 35 36  2  0  0  0  0
 36 37  1  0  0  0  0
 37 38  1  0  0  0  0
 38 39  1  0  0  0  0
 37 40  1  0  0  0  0
 36 41  1  0  0  0  0
 41 42  2  0  0  0  0
 42 43  1  0  0  0  0
 42 44  1  0  0  0  0
 44 45  1  0  0  0  0
 45 46  2  0  0  0  0
 46 47  1  0  0  0  0
 47 48  2  0  0  0  0
 48 49  1  0  0  0  0
 49 50  1  0  0  0  0
 50 51  2  0  0  0  0
 51 52  1  0  0  0  0
 52 53  3  0  0  0  0
 51 54  1  0  0  0  0
 54 55  3  0  0  0  0
 50 56  1  0  0  0  0
 56 57  1  0  0  0  0
 57 58  1  0  0  0  0
 56 59  1  0  0  0  0
 59 60  2  0  0  0  0
 47 61  1  0  0  0  0
 61 62  1  0  0  0  0
 12  3  1  0  0  0  0
 19 14  1  0  0  0  0
 30 20  2  0  0  0  0
 40 34  2  0  0  0  0
 62 44  1  0  0  0  0
 29 22  2  0  0  0  0
 43 35  1  0  0  0  0
 59 48  1  0  0  0  0
 27 23  2  0  0  0  0
 40 25  1  0  0  0  0
  1 63  1  0  0  0  0
  1 64  1  0  0  0  0
  1 65  1  0  0  0  0
  2 66  1  0  0  0  0
  2 67  1  0  0  0  0
 15 68  1  0  0  0  0
 16 69  1  0  0  0  0
 17 70  1  0  0  0  0
 18 71  1  0  0  0  0
 18 72  1  0  0  0  0
 19 73  1  0  0  0  0
 19 74  1  0  0  0  0
 30 75  1  0  0  0  0
 31 76  1  0  0  0  0
 31 77  1  0  0  0  0
 32 78  1  0  0  0  0
 32 79  1  0  0  0  0
 32 80  1  0  0  0  0
 38 81  1  0  0  0  0
 38 82  1  0  0  0  0
 39 83  1  0  0  0  0
 39 84  1  0  0  0  0
 39 85  1  0  0  0  0
 41 86  1  0  0  0  0
 44 87  1  0  0  0  0
 45 88  1  0  0  0  0
 46 89  1  0  0  0  0
 57 90  1  0  0  0  0
 57 91  1  0  0  0  0
 58 92  1  0  0  0  0
 58 93  1  0  0  0  0
 58 94  1  0  0  0  0
 61 95  1  0  0  0  0
 61 96  1  0  0  0  0
 62 97  1  0  0  0  0
 62 98  1  0  0  0  0
M  END
