
  xtb     02022201153D
 energy: -220.255818081457 gnorm: 0.000688665416 xtb: 6.4.1 (unknown)
127140  0     0  0            999 V2000
    5.6725   -6.6383   -0.9417 C   0  0  0  0  0  0  0  0  0  0  0  0
    6.5605   -7.0154    0.2381 C   0  0  0  0  0  0  0  0  0  0  0  0
    6.9264   -5.8514    1.0246 N   0  0  0  0  0  0  0  0  0  0  0  0
    7.9219   -4.9835    0.7079 C   0  0  0  0  0  0  0  0  0  0  0  0
    8.8051   -5.0377   -0.3401 C   0  0  0  0  0  0  0  0  0  0  0  0
    8.8653   -6.0218   -1.3414 C   0  0  0  0  0  0  0  0  0  0  0  0
    8.9682   -6.7878   -2.1913 N   0  0  0  0  0  0  0  0  0  0  0  0
    9.7728   -4.0196   -0.4753 C   0  0  0  0  0  0  0  0  0  0  0  0
   10.5594   -3.1927   -0.5905 N   0  0  0  0  0  0  0  0  0  0  0  0
    8.0122   -3.6660    1.8542 S   0  0  0  0  0  0  0  0  0  0  0  0
    6.6713   -4.3260    2.7855 C   0  0  0  0  0  0  0  0  0  0  0  0
    6.1776   -5.5447    2.1550 C   0  0  0  0  0  0  0  0  0  0  0  0
    5.2518   -6.2336    2.5262 O   0  0  0  0  0  0  0  0  0  0  0  0
    6.1940   -3.7527    3.9223 C   0  0  0  0  0  0  0  0  0  0  0  0
    6.7621   -2.5229    4.4068 C   0  0  0  0  0  0  0  0  0  0  0  0
    6.2376   -1.8302    5.4242 C   0  0  0  0  0  0  0  0  0  0  0  0
    5.0227   -2.2974    6.1589 C   0  0  0  0  0  0  0  0  0  0  0  0
    4.9557   -3.8313    6.0986 C   0  0  0  0  0  0  0  0  0  0  0  0
    5.0336   -4.3404    4.6645 C   0  0  0  0  0  0  0  0  0  0  0  0
    3.7996   -1.6507    5.5791 C   0  0  0  0  0  0  0  0  0  0  0  0
    2.6661   -1.2978    6.2539 C   0  0  0  0  0  0  0  0  0  0  0  0
    2.4946   -1.4563    7.7112 C   0  0  0  0  0  0  0  0  0  0  0  0
    3.0566   -0.5013    8.5519 C   0  0  0  0  0  0  0  0  0  0  0  0
    2.9290   -0.6093    9.9232 C   0  0  0  0  0  0  0  0  0  0  0  0
    2.2425   -1.6838   10.4633 C   0  0  0  0  0  0  0  0  0  0  0  0
    1.6866   -2.6354    9.6296 C   0  0  0  0  0  0  0  0  0  0  0  0
    1.7982   -2.5385    8.2477 C   0  0  0  0  0  0  0  0  0  0  0  0
    1.1541   -3.5809    7.3766 C   0  0  0  0  0  0  0  0  0  0  0  0
   -0.3659   -3.4115    7.3522 C   0  0  0  0  0  0  0  0  0  0  0  0
    1.6998   -0.7351    5.3871 C   0  0  0  0  0  0  0  0  0  0  0  0
    0.1019   -0.0863    5.6541 S   0  0  0  0  0  0  0  0  0  0  0  0
   -0.0108    0.2584    3.9610 C   0  0  0  0  0  0  0  0  0  0  0  0
   -0.9345    0.7767    3.0401 C   0  0  0  0  0  0  0  0  0  0  0  0
   -2.2732    1.1890    3.2131 C   0  0  0  0  0  0  0  0  0  0  0  0
   -3.0338    1.5700    2.0601 C   0  0  0  0  0  0  0  0  0  0  0  0
   -4.2847    1.8839    2.3591 N   0  0  0  0  0  0  0  0  0  0  0  0
   -4.4857    1.7184    3.9569 S   0  0  0  0  0  0  0  0  0  0  0  0
   -2.9854    1.2378    4.3283 N   0  0  0  0  0  0  0  0  0  0  0  0
   -2.3910    1.6108    0.8038 C   0  0  0  0  0  0  0  0  0  0  0  0
   -2.8601    2.0288   -0.4494 C   0  0  0  0  0  0  0  0  0  0  0  0
   -4.3228    2.5961   -1.1781 S   0  0  0  0  0  0  0  0  0  0  0  0
   -3.4712    2.7478   -2.6991 C   0  0  0  0  0  0  0  0  0  0  0  0
   -3.8793    3.1875   -3.9630 C   0  0  0  0  0  0  0  0  0  0  0  0
   -5.2320    3.6848   -4.2277 C   0  0  0  0  0  0  0  0  0  0  0  0
   -5.4829    4.9687   -4.7233 C   0  0  0  0  0  0  0  0  0  0  0  0
   -4.4046    6.0106   -4.8449 C   0  0  0  0  0  0  0  0  0  0  0  0
   -4.0367    6.5508   -3.4611 C   0  0  0  0  0  0  0  0  0  0  0  0
   -6.7979    5.3208   -4.9969 C   0  0  0  0  0  0  0  0  0  0  0  0
   -7.8449    4.4419   -4.7816 C   0  0  0  0  0  0  0  0  0  0  0  0
   -7.5927    3.1926   -4.2443 C   0  0  0  0  0  0  0  0  0  0  0  0
   -6.2923    2.8196   -3.9651 C   0  0  0  0  0  0  0  0  0  0  0  0
   -2.8299    3.1275   -4.8817 C   0  0  0  0  0  0  0  0  0  0  0  0
   -1.3207    2.6017   -4.1289 S   0  0  0  0  0  0  0  0  0  0  0  0
   -2.1169    2.3873   -2.6165 C   0  0  0  0  0  0  0  0  0  0  0  0
   -1.7736    1.9687   -1.3294 C   0  0  0  0  0  0  0  0  0  0  0  0
   -0.6618    1.5082   -0.6742 N   0  0  0  0  0  0  0  0  0  0  0  0
   -1.0161    1.2685    0.6436 C   0  0  0  0  0  0  0  0  0  0  0  0
   -0.3076    0.7525    1.7618 C   0  0  0  0  0  0  0  0  0  0  0  0
    0.9583    0.2037    1.9141 N   0  0  0  0  0  0  0  0  0  0  0  0
    1.1268   -0.0986    3.2370 C   0  0  0  0  0  0  0  0  0  0  0  0
    2.1112   -0.6706    4.0582 C   0  0  0  0  0  0  0  0  0  0  0  0
    3.7099   -1.3047    3.8653 S   0  0  0  0  0  0  0  0  0  0  0  0
    1.8504   -0.3766    0.9362 C   0  0  0  0  0  0  0  0  0  0  0  0
    1.1715   -1.4979    0.1532 C   0  0  0  0  0  0  0  0  0  0  0  0
    0.6404    1.7024   -1.2730 C   0  0  0  0  0  0  0  0  0  0  0  0
    1.4190    2.8124   -0.5715 C   0  0  0  0  0  0  0  0  0  0  0  0
   -2.7712    3.4944   -6.2368 C   0  0  0  0  0  0  0  0  0  0  0  0
   -3.8047    3.4999   -7.1412 C   0  0  0  0  0  0  0  0  0  0  0  0
   -5.0138    2.6570   -7.0520 C   0  0  0  0  0  0  0  0  0  0  0  0
   -5.2896    1.8452   -6.1936 O   0  0  0  0  0  0  0  0  0  0  0  0
   -5.7459    2.8829   -8.3155 C   0  0  0  0  0  0  0  0  0  0  0  0
   -6.9510    2.3431   -8.7205 C   0  0  0  0  0  0  0  0  0  0  0  0
   -7.4409    2.6837   -9.9719 C   0  0  0  0  0  0  0  0  0  0  0  0
   -6.7031    3.5398  -10.7754 C   0  0  0  0  0  0  0  0  0  0  0  0
   -7.1877    3.8507  -11.9895 F   0  0  0  0  0  0  0  0  0  0  0  0
   -5.4886    4.0925  -10.3917 C   0  0  0  0  0  0  0  0  0  0  0  0
   -5.0110    3.7554   -9.1365 C   0  0  0  0  0  0  0  0  0  0  0  0
   -3.8046    4.1680   -8.4199 C   0  0  0  0  0  0  0  0  0  0  0  0
   -2.9052    5.1137   -8.8435 C   0  0  0  0  0  0  0  0  0  0  0  0
   -2.9580    5.7515  -10.0994 C   0  0  0  0  0  0  0  0  0  0  0  0
   -2.9411    6.2968  -11.1095 N   0  0  0  0  0  0  0  0  0  0  0  0
   -1.8342    5.6008   -8.0665 C   0  0  0  0  0  0  0  0  0  0  0  0
   -0.9641    6.0651   -7.4772 N   0  0  0  0  0  0  0  0  0  0  0  0
    5.4040   -7.5368   -1.4889 H   0  0  0  0  0  0  0  0  0  0  0  0
    6.1892   -5.9659   -1.6230 H   0  0  0  0  0  0  0  0  0  0  0  0
    4.7628   -6.1582   -0.5874 H   0  0  0  0  0  0  0  0  0  0  0  0
    7.4662   -7.5202   -0.1007 H   0  0  0  0  0  0  0  0  0  0  0  0
    6.0111   -7.6725    0.9179 H   0  0  0  0  0  0  0  0  0  0  0  0
    7.6304   -2.1458    3.8832 H   0  0  0  0  0  0  0  0  0  0  0  0
    6.6603   -0.8805    5.7161 H   0  0  0  0  0  0  0  0  0  0  0  0
    5.0781   -1.9904    7.2099 H   0  0  0  0  0  0  0  0  0  0  0  0
    4.0351   -4.1801    6.5670 H   0  0  0  0  0  0  0  0  0  0  0  0
    5.7987   -4.2275    6.6684 H   0  0  0  0  0  0  0  0  0  0  0  0
    5.0968   -5.4293    4.6528 H   0  0  0  0  0  0  0  0  0  0  0  0
    4.1195   -4.0831    4.1206 H   0  0  0  0  0  0  0  0  0  0  0  0
    3.5907    0.3324    8.1181 H   0  0  0  0  0  0  0  0  0  0  0  0
    3.3647    0.1397   10.5672 H   0  0  0  0  0  0  0  0  0  0  0  0
    2.1421   -1.7795   11.5342 H   0  0  0  0  0  0  0  0  0  0  0  0
    1.1572   -3.4762   10.0544 H   0  0  0  0  0  0  0  0  0  0  0  0
    1.3952   -4.5742    7.7648 H   0  0  0  0  0  0  0  0  0  0  0  0
    1.5392   -3.5107    6.3575 H   0  0  0  0  0  0  0  0  0  0  0  0
   -0.7771   -3.5073    8.3540 H   0  0  0  0  0  0  0  0  0  0  0  0
   -0.8191   -4.1694    6.7173 H   0  0  0  0  0  0  0  0  0  0  0  0
   -0.6322   -2.4303    6.9672 H   0  0  0  0  0  0  0  0  0  0  0  0
   -4.7674    6.8325   -5.4655 H   0  0  0  0  0  0  0  0  0  0  0  0
   -3.5080    5.6103   -5.3188 H   0  0  0  0  0  0  0  0  0  0  0  0
   -4.9119    6.9756   -2.9746 H   0  0  0  0  0  0  0  0  0  0  0  0
   -3.6495    5.7535   -2.8301 H   0  0  0  0  0  0  0  0  0  0  0  0
   -3.2765    7.3230   -3.5496 H   0  0  0  0  0  0  0  0  0  0  0  0
   -7.0039    6.3096   -5.3821 H   0  0  0  0  0  0  0  0  0  0  0  0
   -8.8553    4.7405   -5.0188 H   0  0  0  0  0  0  0  0  0  0  0  0
   -8.4031    2.5079   -4.0466 H   0  0  0  0  0  0  0  0  0  0  0  0
   -6.0828    1.8385   -3.5692 H   0  0  0  0  0  0  0  0  0  0  0  0
    2.6951   -0.7885    1.4942 H   0  0  0  0  0  0  0  0  0  0  0  0
    2.2511    0.3922    0.2753 H   0  0  0  0  0  0  0  0  0  0  0  0
    0.2762   -1.1409   -0.3503 H   0  0  0  0  0  0  0  0  0  0  0  0
    1.8562   -1.9006   -0.5883 H   0  0  0  0  0  0  0  0  0  0  0  0
    0.8818   -2.2994    0.8288 H   0  0  0  0  0  0  0  0  0  0  0  0
    1.1993    0.7669   -1.2925 H   0  0  0  0  0  0  0  0  0  0  0  0
    0.4638    1.9901   -2.3122 H   0  0  0  0  0  0  0  0  0  0  0  0
    1.5490    2.5957    0.4863 H   0  0  0  0  0  0  0  0  0  0  0  0
    2.3967    2.9268   -1.0315 H   0  0  0  0  0  0  0  0  0  0  0  0
    0.8831    3.7544   -0.6606 H   0  0  0  0  0  0  0  0  0  0  0  0
   -1.7868    3.7835   -6.5891 H   0  0  0  0  0  0  0  0  0  0  0  0
   -7.4917    1.6773   -8.0665 H   0  0  0  0  0  0  0  0  0  0  0  0
   -8.3794    2.2962  -10.3353 H   0  0  0  0  0  0  0  0  0  0  0  0
   -4.9634    4.7470  -11.0675 H   0  0  0  0  0  0  0  0  0  0  0  0
  1  2  1  0  0  0  0
  2  3  1  0  0  0  0
  3  4  1  0  0  0  0
  4  5  2  0  0  0  0
  5  6  1  0  0  0  0
  6  7  3  0  0  0  0
  5  8  1  0  0  0  0
  8  9  3  0  0  0  0
  4 10  1  0  0  0  0
 10 11  1  0  0  0  0
 11 12  1  0  0  0  0
 12 13  2  0  0  0  0
 11 14  2  0  0  0  0
 14 15  1  0  0  0  0
 15 16  2  0  0  0  0
 16 17  1  0  0  0  0
 17 18  1  0  0  0  0
 18 19  1  0  0  0  0
 17 20  1  0  0  0  0
 20 21  2  0  0  0  0
 21 22  1  0  0  0  0
 22 23  2  0  0  0  0
 23 24  1  0  0  0  0
 24 25  2  0  0  0  0
 25 26  1  0  0  0  0
 26 27  2  0  0  0  0
 27 28  1  0  0  0  0
 28 29  1  0  0  0  0
 21 30  1  0  0  0  0
 30 31  1  0  0  0  0
 31 32  1  0  0  0  0
 32 33  1  0  0  0  0
 33 34  1  0  0  0  0
 34 35  1  0  0  0  0
 35 36  2  0  0  0  0
 36 37  1  0  0  0  0
 37 38  1  0  0  0  0
 35 39  1  0  0  0  0
 39 40  1  0  0  0  0
 40 41  1  0  0  0  0
 41 42  1  0  0  0  0
 42 43  1  0  0  0  0
 43 44  1  0  0  0  0
 44 45  2  0  0  0  0
 45 46  1  0  0  0  0
 46 47  1  0  0  0  0
 45 48  1  0  0  0  0
 48 49  2  0  0  0  0
 49 50  1  0  0  0  0
 50 51  2  0  0  0  0
 43 52  2  0  0  0  0
 52 53  1  0  0  0  0
 53 54  1  0  0  0  0
 54 55  1  0  0  0  0
 55 56  1  0  0  0  0
 56 57  1  0  0  0  0
 57 58  1  0  0  0  0
 58 59  1  0  0  0  0
 59 60  1  0  0  0  0
 60 61  1  0  0  0  0
 61 62  1  0  0  0  0
 59 63  1  0  0  0  0
 63 64  1  0  0  0  0
 56 65  1  0  0  0  0
 65 66  1  0  0  0  0
 52 67  1  0  0  0  0
 67 68  2  0  0  0  0
 68 69  1  0  0  0  0
 69 70  2  0  0  0  0
 69 71  1  0  0  0  0
 71 72  2  0  0  0  0
 72 73  1  0  0  0  0
 73 74  2  0  0  0  0
 74 75  1  0  0  0  0
 74 76  1  0  0  0  0
 76 77  2  0  0  0  0
 77 78  1  0  0  0  0
 78 79  2  0  0  0  0
 79 80  1  0  0  0  0
 80 81  3  0  0  0  0
 79 82  1  0  0  0  0
 82 83  3  0  0  0  0
 12  3  1  0  0  0  0
 19 14  1  0  0  0  0
 62 20  1  0  0  0  0
 78 68  1  0  0  0  0
 27 22  1  0  0  0  0
 61 30  2  0  0  0  0
 77 71  1  0  0  0  0
 60 32  2  0  0  0  0
 58 33  2  0  0  0  0
 38 34  2  0  0  0  0
 57 39  2  0  0  0  0
 55 40  2  0  0  0  0
 54 42  2  0  0  0  0
 51 44  1  0  0  0  0
  1 84  1  0  0  0  0
  1 85  1  0  0  0  0
  1 86  1  0  0  0  0
  2 87  1  0  0  0  0
  2 88  1  0  0  0  0
 15 89  1  0  0  0  0
 16 90  1  0  0  0  0
 17 91  1  0  0  0  0
 18 92  1  0  0  0  0
 18 93  1  0  0  0  0
 19 94  1  0  0  0  0
 19 95  1  0  0  0  0
 23 96  1  0  0  0  0
 24 97  1  0  0  0  0
 25 98  1  0  0  0  0
 26 99  1  0  0  0  0
 28100  1  0  0  0  0
 28101  1  0  0  0  0
 29102  1  0  0  0  0
 29103  1  0  0  0  0
 29104  1  0  0  0  0
 46105  1  0  0  0  0
 46106  1  0  0  0  0
 47107  1  0  0  0  0
 47108  1  0  0  0  0
 47109  1  0  0  0  0
 48110  1  0  0  0  0
 49111  1  0  0  0  0
 50112  1  0  0  0  0
 51113  1  0  0  0  0
 63114  1  0  0  0  0
 63115  1  0  0  0  0
 64116  1  0  0  0  0
 64117  1  0  0  0  0
 64118  1  0  0  0  0
 65119  1  0  0  0  0
 65120  1  0  0  0  0
 66121  1  0  0  0  0
 66122  1  0  0  0  0
 66123  1  0  0  0  0
 67124  1  0  0  0  0
 72125  1  0  0  0  0
 73126  1  0  0  0  0
 76127  1  0  0  0  0
M  END
