
  xtb     02102222233D
 energy: -188.483443396983 gnorm: 0.000476356070 xtb: 6.4.1 (unknown)
 98108  0     0  0            999 V2000
   11.5544   -6.3282    0.8957 C   0  0  0  0  0  0  0  0  0  0  0  0
   10.8936   -4.9555    0.9331 C   0  0  0  0  0  0  0  0  0  0  0  0
    9.6871   -4.9665    1.7406 N   0  0  0  0  0  0  0  0  0  0  0  0
    9.6628   -4.8891    3.0961 C   0  0  0  0  0  0  0  0  0  0  0  0
   10.7111   -4.7199    3.9639 C   0  0  0  0  0  0  0  0  0  0  0  0
   12.0702   -4.5922    3.6294 C   0  0  0  0  0  0  0  0  0  0  0  0
   13.1959   -4.4846    3.4286 N   0  0  0  0  0  0  0  0  0  0  0  0
   10.4540   -4.6605    5.3502 C   0  0  0  0  0  0  0  0  0  0  0  0
   10.2525   -4.6179    6.4785 N   0  0  0  0  0  0  0  0  0  0  0  0
    8.0313   -5.0112    3.7137 S   0  0  0  0  0  0  0  0  0  0  0  0
    7.3791   -5.1823    2.0877 C   0  0  0  0  0  0  0  0  0  0  0  0
    8.4607   -5.1318    1.1070 C   0  0  0  0  0  0  0  0  0  0  0  0
    8.3657   -5.2147   -0.0980 O   0  0  0  0  0  0  0  0  0  0  0  0
    6.0497   -5.3383    1.8507 C   0  0  0  0  0  0  0  0  0  0  0  0
    5.5097   -5.4432    0.5226 C   0  0  0  0  0  0  0  0  0  0  0  0
    4.2145   -5.6860    0.2934 C   0  0  0  0  0  0  0  0  0  0  0  0
    3.1998   -5.9222    1.3732 C   0  0  0  0  0  0  0  0  0  0  0  0
    3.8934   -6.2777    2.6890 C   0  0  0  0  0  0  0  0  0  0  0  0
    5.0700   -5.3507    2.9803 C   0  0  0  0  0  0  0  0  0  0  0  0
    2.2975   -4.7146    1.4587 C   0  0  0  0  0  0  0  0  0  0  0  0
    2.0455   -3.7147    3.0585 Se  0  0  0  0  0  2  0  0  0  0  0  0
    0.8643   -2.6972    2.0732 C   0  0  0  0  0  0  0  0  0  0  0  0
   -0.0195   -1.6236    2.2364 C   0  0  0  0  0  0  0  0  0  0  0  0
   -0.3556   -0.9052    3.4004 C   0  0  0  0  0  0  0  0  0  0  0  0
   -1.3846    0.0849    3.3285 C   0  0  0  0  0  0  0  0  0  0  0  0
   -1.6313    0.6422    4.5039 N   0  0  0  0  0  0  0  0  0  0  0  0
   -0.6467   -0.0229    5.6041 S   0  0  0  0  0  0  0  0  0  0  0  0
    0.1326   -1.0518    4.6222 N   0  0  0  0  0  0  0  0  0  0  0  0
   -1.9592    0.3667    2.0691 C   0  0  0  0  0  0  0  0  0  0  0  0
   -2.8987    1.3351    1.6993 C   0  0  0  0  0  0  0  0  0  0  0  0
   -3.8650    2.5646    2.4359 S   0  0  0  0  0  0  0  0  0  0  0  0
   -4.4717    2.9918    0.8461 C   0  0  0  0  0  0  0  0  0  0  0  0
   -5.3663    3.9596    0.4208 C   0  0  0  0  0  0  0  0  0  0  0  0
   -6.0708    4.8844    1.3584 C   0  0  0  0  0  0  0  0  0  0  0  0
   -7.4601    4.3467    1.7134 C   0  0  0  0  0  0  0  0  0  0  0  0
   -5.5430    3.9181   -0.9770 C   0  0  0  0  0  0  0  0  0  0  0  0
   -4.5598    2.6593   -1.7323 S   0  0  0  0  0  0  0  0  0  0  0  0
   -3.9362    2.2038   -0.1922 C   0  0  0  0  0  0  0  0  0  0  0  0
   -3.0416    1.2569    0.3085 C   0  0  0  0  0  0  0  0  0  0  0  0
   -2.2431    0.2587   -0.1869 N   0  0  0  0  0  0  0  0  0  0  0  0
   -1.5661   -0.3149    0.8749 C   0  0  0  0  0  0  0  0  0  0  0  0
   -0.6424   -1.3922    0.9807 C   0  0  0  0  0  0  0  0  0  0  0  0
   -0.1497   -2.3361    0.0887 N   0  0  0  0  0  0  0  0  0  0  0  0
    0.7519   -3.1274    0.7537 C   0  0  0  0  0  0  0  0  0  0  0  0
    1.5454   -4.2470    0.4197 C   0  0  0  0  0  0  0  0  0  0  0  0
   -0.6790   -2.7583   -1.1871 C   0  0  0  0  0  0  0  0  0  0  0  0
   -2.1054   -3.2886   -1.0537 C   0  0  0  0  0  0  0  0  0  0  0  0
   -1.9856    0.2119   -1.6092 C   0  0  0  0  0  0  0  0  0  0  0  0
   -0.5870    0.7280   -1.9391 C   0  0  0  0  0  0  0  0  0  0  0  0
   -6.3868    4.7914   -1.6597 C   0  0  0  0  0  0  0  0  0  0  0  0
   -6.6995    4.8901   -2.9977 C   0  0  0  0  0  0  0  0  0  0  0  0
   -6.2257    4.0152   -4.0632 C   0  0  0  0  0  0  0  0  0  0  0  0
   -5.4046    3.1194   -3.9857 O   0  0  0  0  0  0  0  0  0  0  0  0
   -6.9705    4.4161   -5.2793 C   0  0  0  0  0  0  0  0  0  0  0  0
   -6.9613    3.8291   -6.5311 C   0  0  0  0  0  0  0  0  0  0  0  0
   -5.8892    2.5576   -6.9116 Cl  0  0  0  0  0  0  0  0  0  0  0  0
   -7.8693    4.2993   -7.4905 C   0  0  0  0  0  0  0  0  0  0  0  0
   -7.8709    3.6303   -9.0644 Cl  0  0  0  0  0  0  0  0  0  0  0  0
   -8.8003    5.2776   -7.1487 C   0  0  0  0  0  0  0  0  0  0  0  0
   -9.9661    5.7623   -8.3034 Cl  0  0  0  0  0  0  0  0  0  0  0  0
   -8.8114    5.8621   -5.8709 C   0  0  0  0  0  0  0  0  0  0  0  0
  -10.1035    6.9182   -5.4747 Cl  0  0  0  0  0  0  0  0  0  0  0  0
   -7.8376    5.4803   -4.9572 C   0  0  0  0  0  0  0  0  0  0  0  0
   -7.5506    5.9041   -3.5870 C   0  0  0  0  0  0  0  0  0  0  0  0
   -7.8442    7.1269   -3.0361 C   0  0  0  0  0  0  0  0  0  0  0  0
   -8.3014    8.2602   -3.7423 C   0  0  0  0  0  0  0  0  0  0  0  0
   -8.5607    9.2621   -4.2385 N   0  0  0  0  0  0  0  0  0  0  0  0
   -7.5652    7.4941   -1.7022 C   0  0  0  0  0  0  0  0  0  0  0  0
   -7.3955    7.8614   -0.6266 N   0  0  0  0  0  0  0  0  0  0  0  0
   12.4336   -6.2853    0.2602 H   0  0  0  0  0  0  0  0  0  0  0  0
   10.8649   -7.0657    0.4908 H   0  0  0  0  0  0  0  0  0  0  0  0
   11.8673   -6.6407    1.8893 H   0  0  0  0  0  0  0  0  0  0  0  0
   10.5743   -4.6718   -0.0736 H   0  0  0  0  0  0  0  0  0  0  0  0
   11.5801   -4.2015    1.3210 H   0  0  0  0  0  0  0  0  0  0  0  0
    6.1941   -5.3139   -0.3010 H   0  0  0  0  0  0  0  0  0  0  0  0
    3.8496   -5.7156   -0.7226 H   0  0  0  0  0  0  0  0  0  0  0  0
    2.5707   -6.7709    1.0714 H   0  0  0  0  0  0  0  0  0  0  0  0
    3.1733   -6.2268    3.5111 H   0  0  0  0  0  0  0  0  0  0  0  0
    4.2604   -7.3042    2.6233 H   0  0  0  0  0  0  0  0  0  0  0  0
    4.7029   -4.3260    3.1195 H   0  0  0  0  0  0  0  0  0  0  0  0
    5.5595   -5.6494    3.9098 H   0  0  0  0  0  0  0  0  0  0  0  0
   -6.1635    5.8823    0.9266 H   0  0  0  0  0  0  0  0  0  0  0  0
   -5.4766    4.9612    2.2710 H   0  0  0  0  0  0  0  0  0  0  0  0
   -7.3773    3.3715    2.1877 H   0  0  0  0  0  0  0  0  0  0  0  0
   -8.0759    4.2467    0.8225 H   0  0  0  0  0  0  0  0  0  0  0  0
   -7.9536    5.0275    2.4010 H   0  0  0  0  0  0  0  0  0  0  0  0
    1.5630   -4.7073   -0.5540 H   0  0  0  0  0  0  0  0  0  0  0  0
   -0.0313   -3.5603   -1.5455 H   0  0  0  0  0  0  0  0  0  0  0  0
   -0.6167   -1.9497   -1.9154 H   0  0  0  0  0  0  0  0  0  0  0  0
   -2.1170   -4.1602   -0.4030 H   0  0  0  0  0  0  0  0  0  0  0  0
   -2.7650   -2.5384   -0.6241 H   0  0  0  0  0  0  0  0  0  0  0  0
   -2.4890   -3.5781   -2.0286 H   0  0  0  0  0  0  0  0  0  0  0  0
   -2.1487   -0.7929   -1.9975 H   0  0  0  0  0  0  0  0  0  0  0  0
   -2.7275    0.8607   -2.0808 H   0  0  0  0  0  0  0  0  0  0  0  0
   -0.4959    1.7682   -1.6356 H   0  0  0  0  0  0  0  0  0  0  0  0
    0.1790    0.1557   -1.4200 H   0  0  0  0  0  0  0  0  0  0  0  0
   -0.4120    0.6652   -3.0096 H   0  0  0  0  0  0  0  0  0  0  0  0
   -6.8920    5.4926   -1.0101 H   0  0  0  0  0  0  0  0  0  0  0  0
  1  2  1  0  0  0  0
  2  3  1  0  0  0  0
  3  4  1  0  0  0  0
  4  5  2  0  0  0  0
  5  6  1  0  0  0  0
  6  7  3  0  0  0  0
  5  8  1  0  0  0  0
  8  9  3  0  0  0  0
  4 10  1  0  0  0  0
 10 11  1  0  0  0  0
 11 12  1  0  0  0  0
 12 13  2  0  0  0  0
 11 14  2  0  0  0  0
 14 15  1  0  0  0  0
 15 16  2  0  0  0  0
 16 17  1  0  0  0  0
 17 18  1  0  0  0  0
 18 19  1  0  0  0  0
 17 20  1  0  0  0  0
 20 21  1  0  0  0  0
 21 22  1  0  0  0  0
 22 23  1  0  0  0  0
 23 24  1  0  0  0  0
 24 25  1  0  0  0  0
 25 26  2  0  0  0  0
 26 27  1  0  0  0  0
 27 28  1  0  0  0  0
 25 29  1  0  0  0  0
 29 30  1  0  0  0  0
 30 31  1  0  0  0  0
 31 32  1  0  0  0  0
 32 33  1  0  0  0  0
 33 34  1  0  0  0  0
 34 35  1  0  0  0  0
 33 36  2  0  0  0  0
 36 37  1  0  0  0  0
 37 38  1  0  0  0  0
 38 39  1  0  0  0  0
 39 40  1  0  0  0  0
 40 41  1  0  0  0  0
 41 42  1  0  0  0  0
 42 43  1  0  0  0  0
 43 44  1  0  0  0  0
 44 45  1  0  0  0  0
 43 46  1  0  0  0  0
 46 47  1  0  0  0  0
 40 48  1  0  0  0  0
 48 49  1  0  0  0  0
 36 50  1  0  0  0  0
 50 51  2  0  0  0  0
 51 52  1  0  0  0  0
 52 53  2  0  0  0  0
 52 54  1  0  0  0  0
 54 55  2  0  0  0  0
 55 56  1  0  0  0  0
 55 57  1  0  0  0  0
 57 58  1  0  0  0  0
 57 59  2  0  0  0  0
 59 60  1  0  0  0  0
 59 61  1  0  0  0  0
 61 62  1  0  0  0  0
 61 63  2  0  0  0  0
 63 64  1  0  0  0  0
 64 65  2  0  0  0  0
 65 66  1  0  0  0  0
 66 67  3  0  0  0  0
 65 68  1  0  0  0  0
 68 69  3  0  0  0  0
 12  3  1  0  0  0  0
 19 14  1  0  0  0  0
 45 20  2  0  0  0  0
 64 51  1  0  0  0  0
 44 22  2  0  0  0  0
 63 54  1  0  0  0  0
 42 23  2  0  0  0  0
 28 24  2  0  0  0  0
 41 29  2  0  0  0  0
 39 30  2  0  0  0  0
 38 32  2  0  0  0  0
  1 70  1  0  0  0  0
  1 71  1  0  0  0  0
  1 72  1  0  0  0  0
  2 73  1  0  0  0  0
  2 74  1  0  0  0  0
 15 75  1  0  0  0  0
 16 76  1  0  0  0  0
 17 77  1  0  0  0  0
 18 78  1  0  0  0  0
 18 79  1  0  0  0  0
 19 80  1  0  0  0  0
 19 81  1  0  0  0  0
 34 82  1  0  0  0  0
 34 83  1  0  0  0  0
 35 84  1  0  0  0  0
 35 85  1  0  0  0  0
 35 86  1  0  0  0  0
 45 87  1  0  0  0  0
 46 88  1  0  0  0  0
 46 89  1  0  0  0  0
 47 90  1  0  0  0  0
 47 91  1  0  0  0  0
 47 92  1  0  0  0  0
 48 93  1  0  0  0  0
 48 94  1  0  0  0  0
 49 95  1  0  0  0  0
 49 96  1  0  0  0  0
 49 97  1  0  0  0  0
 50 98  1  0  0  0  0
M  END
