127

C         -0.33270        4.14030        1.02120
C          0.67790        5.26610        1.20400
N          1.95500        4.76750        1.68020
C          2.96270        4.31790        0.89040
C          2.98540        4.18510       -0.47510
C          1.91510        4.40990       -1.35500
N          1.06600        4.51980       -2.12160
C          4.15570        3.71040       -1.10500
N          5.09980        3.31890       -1.62560
S          4.35950        3.85390        1.83520
C          3.47510        4.11380        3.33510
C          2.16650        4.69280        3.05560
O          1.33640        5.06010        3.85530
C          3.92820        3.64710        4.52630
C          3.11160        3.68680        5.71650
C          3.19330        2.69490        6.60990
C          4.17240        1.58120        6.40350
C          5.48310        2.22580        5.91240
C          5.25190        2.94040        4.58430
C          3.67700        0.58690        5.39150
C          4.16670       -0.67020        5.17850
C          5.22740       -1.30360        5.98460
C          6.52130       -1.32940        5.47770
C          7.54640       -1.91160        6.19880
C          7.27950       -2.47460        7.43480
C          5.99020       -2.46120        7.93470
C          4.94820       -1.88040        7.22370
C          3.54400       -1.95200        7.75410
C          2.85500       -3.21940        7.24350
C          3.56700       -1.28010        4.05100
S          3.79700       -2.82650        3.27330
C          2.63410       -2.36440        2.07420
C          2.03280       -2.88150        0.91600
C          2.12930       -4.15770        0.32040
C          1.31250       -4.45150       -0.81940
N          1.46390       -5.69630       -1.24360
S          2.54700       -6.43310       -0.29240
N          2.86200       -5.19320        0.69940
C          0.51290       -3.42490       -1.36800
C         -0.28330       -3.40570       -2.51920
S         -0.79330       -4.48040       -3.77600
C         -1.66610       -3.14750       -4.51110
C         -2.42770       -3.04440       -5.66460
C         -2.66430       -4.12430       -6.63360
C         -3.49760       -5.20520       -6.34000
C         -4.26410       -5.27590       -5.05020
C         -5.52580       -4.41350       -5.13440
C         -3.68020       -6.18090       -7.31040
C         -3.05480       -6.09960       -8.54030
C         -2.23180       -5.02430       -8.82580
C         -2.04230       -4.03960       -7.87660
C         -2.92320       -1.73710       -5.84650
S         -2.40400       -0.64550       -4.56470
C         -1.55400       -1.93620       -3.79950
C         -0.76180       -2.09730       -2.66120
N         -0.31080       -1.31780       -1.62800
C          0.47140       -2.11180       -0.80840
C          1.16460       -1.87270        0.40880
N          1.21960       -0.78700        1.27150
C          2.09780       -1.09190        2.27310
C          2.62510       -0.47480        3.41730
S          2.44370        1.03920        4.23320
C          0.31970        0.33180        1.42980
C         -1.10850       -0.12820        1.71160
C         -0.39810        0.12200       -1.74990
C          0.96190        0.74760       -2.04850
C         -3.77750       -1.42260       -6.90190
C         -4.37350       -0.23120       -7.25060
C         -4.15740        1.05420       -6.59120
O         -3.48700        1.27880       -5.59930
C         -4.92130        2.04600       -7.37920
C         -5.57960        1.39020       -8.43640
C         -6.35690        2.11720       -9.32270
C         -6.46990        3.48800       -9.13830
C         -5.82400        4.12760       -8.09220
Br        -6.02450        5.99600       -7.89100
C         -5.03040        3.41310       -7.18780
Cl        -4.22550        4.19960       -5.89700
C         -5.27760       -0.04040       -8.35950
C         -5.80940       -1.00540       -9.17880
C         -5.58690       -2.39440       -9.06950
N         -5.48080       -3.53850       -9.04450
C         -6.69450       -0.73680      -10.24290
N         -7.41500       -0.58520      -11.12420
H         -0.46750        3.60570        1.95890
H         -0.00520        3.44540        0.25190
H         -1.28590        4.56130        0.71630
H          0.82930        5.81140        0.27140
H          0.32020        5.95520        1.97410
H          2.37690        4.47060        5.80330
H          2.54360        2.66360        7.47020
H          4.36480        1.05190        7.34260
H          6.25370        1.46360        5.79740
H          5.81450        2.93820        6.67000
H          5.29550        2.22240        3.75810
H          6.04780        3.66840        4.40450
H          6.71740       -0.89300        4.50830
H          8.54820       -1.92710        5.79670
H          8.07440       -2.93030        8.00600
H          5.78250       -2.91210        8.89460
H          3.56450       -1.96780        8.84570
H          2.96850       -1.08110        7.43490
H          3.40520       -4.10240        7.56000
H          2.81270       -3.21670        6.15690
H          1.84090       -3.28280        7.63140
H         -4.55110       -6.31110       -4.85860
H         -3.64780       -4.93670       -4.21640
H         -6.12180       -4.70280       -5.99690
H         -6.12750       -4.53280       -4.23630
H         -5.26660       -3.36200       -5.23860
H         -4.33280       -7.01470       -7.09610
H         -3.21610       -6.86930       -9.27950
H         -1.74410       -4.94790       -9.78570
H         -1.40200       -3.19430       -8.08720
H          0.36550        0.98570        0.55880
H          0.68720        0.90580        2.28480
H         -1.14210       -0.68190        2.64700
H         -1.47460       -0.77810        0.92040
H         -1.76700        0.73250        1.79380
H         -0.85980        0.55680       -0.86350
H         -1.06990        0.32160       -2.58760
H          1.35930        0.34320       -2.97630
H          0.85530        1.82310       -2.16550
H          1.68100        0.54220       -1.25780
H         -3.99100       -2.27410       -7.53720
H         -6.86980        1.64930      -10.14600
H         -7.07110        4.07220       -9.81790
