
  xtb     02022201333D
 energy: -223.661528079824 gnorm: 0.000852385541 xtb: 6.4.1 (unknown)
127140  0     0  0            999 V2000
   -0.3327    4.1403    1.0212 C   0  0  0  0  0  0  0  0  0  0  0  0
    0.6779    5.2661    1.2040 C   0  0  0  0  0  0  0  0  0  0  0  0
    1.9550    4.7675    1.6802 N   0  0  0  0  0  0  0  0  0  0  0  0
    2.9627    4.3179    0.8904 C   0  0  0  0  0  0  0  0  0  0  0  0
    2.9854    4.1851   -0.4751 C   0  0  0  0  0  0  0  0  0  0  0  0
    1.9151    4.4099   -1.3550 C   0  0  0  0  0  0  0  0  0  0  0  0
    1.0660    4.5198   -2.1216 N   0  0  0  0  0  0  0  0  0  0  0  0
    4.1557    3.7104   -1.1050 C   0  0  0  0  0  0  0  0  0  0  0  0
    5.0998    3.3189   -1.6256 N   0  0  0  0  0  0  0  0  0  0  0  0
    4.3595    3.8539    1.8352 S   0  0  0  0  0  0  0  0  0  0  0  0
    3.4751    4.1138    3.3351 C   0  0  0  0  0  0  0  0  0  0  0  0
    2.1665    4.6928    3.0556 C   0  0  0  0  0  0  0  0  0  0  0  0
    1.3364    5.0601    3.8553 O   0  0  0  0  0  0  0  0  0  0  0  0
    3.9282    3.6471    4.5263 C   0  0  0  0  0  0  0  0  0  0  0  0
    3.1116    3.6868    5.7165 C   0  0  0  0  0  0  0  0  0  0  0  0
    3.1933    2.6949    6.6099 C   0  0  0  0  0  0  0  0  0  0  0  0
    4.1724    1.5812    6.4035 C   0  0  0  0  0  0  0  0  0  0  0  0
    5.4831    2.2258    5.9124 C   0  0  0  0  0  0  0  0  0  0  0  0
    5.2519    2.9404    4.5843 C   0  0  0  0  0  0  0  0  0  0  0  0
    3.6770    0.5869    5.3915 C   0  0  0  0  0  0  0  0  0  0  0  0
    4.1667   -0.6702    5.1785 C   0  0  0  0  0  0  0  0  0  0  0  0
    5.2274   -1.3036    5.9846 C   0  0  0  0  0  0  0  0  0  0  0  0
    6.5213   -1.3294    5.4777 C   0  0  0  0  0  0  0  0  0  0  0  0
    7.5464   -1.9116    6.1988 C   0  0  0  0  0  0  0  0  0  0  0  0
    7.2795   -2.4746    7.4348 C   0  0  0  0  0  0  0  0  0  0  0  0
    5.9902   -2.4612    7.9347 C   0  0  0  0  0  0  0  0  0  0  0  0
    4.9482   -1.8804    7.2237 C   0  0  0  0  0  0  0  0  0  0  0  0
    3.5440   -1.9520    7.7541 C   0  0  0  0  0  0  0  0  0  0  0  0
    2.8550   -3.2194    7.2435 C   0  0  0  0  0  0  0  0  0  0  0  0
    3.5670   -1.2801    4.0510 C   0  0  0  0  0  0  0  0  0  0  0  0
    3.7970   -2.8265    3.2733 S   0  0  0  0  0  0  0  0  0  0  0  0
    2.6341   -2.3644    2.0742 C   0  0  0  0  0  0  0  0  0  0  0  0
    2.0328   -2.8815    0.9160 C   0  0  0  0  0  0  0  0  0  0  0  0
    2.1293   -4.1577    0.3204 C   0  0  0  0  0  0  0  0  0  0  0  0
    1.3125   -4.4515   -0.8194 C   0  0  0  0  0  0  0  0  0  0  0  0
    1.4639   -5.6963   -1.2436 N   0  0  0  0  0  0  0  0  0  0  0  0
    2.5470   -6.4331   -0.2924 S   0  0  0  0  0  0  0  0  0  0  0  0
    2.8620   -5.1932    0.6994 N   0  0  0  0  0  0  0  0  0  0  0  0
    0.5129   -3.4249   -1.3680 C   0  0  0  0  0  0  0  0  0  0  0  0
   -0.2833   -3.4057   -2.5192 C   0  0  0  0  0  0  0  0  0  0  0  0
   -0.7933   -4.4804   -3.7760 S   0  0  0  0  0  0  0  0  0  0  0  0
   -1.6661   -3.1475   -4.5111 C   0  0  0  0  0  0  0  0  0  0  0  0
   -2.4277   -3.0444   -5.6646 C   0  0  0  0  0  0  0  0  0  0  0  0
   -2.6643   -4.1243   -6.6336 C   0  0  0  0  0  0  0  0  0  0  0  0
   -3.4976   -5.2052   -6.3400 C   0  0  0  0  0  0  0  0  0  0  0  0
   -4.2641   -5.2759   -5.0502 C   0  0  0  0  0  0  0  0  0  0  0  0
   -5.5258   -4.4135   -5.1344 C   0  0  0  0  0  0  0  0  0  0  0  0
   -3.6802   -6.1809   -7.3104 C   0  0  0  0  0  0  0  0  0  0  0  0
   -3.0548   -6.0996   -8.5403 C   0  0  0  0  0  0  0  0  0  0  0  0
   -2.2318   -5.0243   -8.8258 C   0  0  0  0  0  0  0  0  0  0  0  0
   -2.0423   -4.0396   -7.8766 C   0  0  0  0  0  0  0  0  0  0  0  0
   -2.9232   -1.7371   -5.8465 C   0  0  0  0  0  0  0  0  0  0  0  0
   -2.4040   -0.6455   -4.5647 S   0  0  0  0  0  0  0  0  0  0  0  0
   -1.5540   -1.9362   -3.7995 C   0  0  0  0  0  0  0  0  0  0  0  0
   -0.7618   -2.0973   -2.6612 C   0  0  0  0  0  0  0  0  0  0  0  0
   -0.3108   -1.3178   -1.6280 N   0  0  0  0  0  0  0  0  0  0  0  0
    0.4714   -2.1118   -0.8084 C   0  0  0  0  0  0  0  0  0  0  0  0
    1.1646   -1.8727    0.4088 C   0  0  0  0  0  0  0  0  0  0  0  0
    1.2196   -0.7870    1.2715 N   0  0  0  0  0  0  0  0  0  0  0  0
    2.0978   -1.0919    2.2731 C   0  0  0  0  0  0  0  0  0  0  0  0
    2.6251   -0.4748    3.4173 C   0  0  0  0  0  0  0  0  0  0  0  0
    2.4437    1.0392    4.2332 S   0  0  0  0  0  0  0  0  0  0  0  0
    0.3197    0.3318    1.4298 C   0  0  0  0  0  0  0  0  0  0  0  0
   -1.1085   -0.1282    1.7116 C   0  0  0  0  0  0  0  0  0  0  0  0
   -0.3981    0.1220   -1.7499 C   0  0  0  0  0  0  0  0  0  0  0  0
    0.9619    0.7476   -2.0485 C   0  0  0  0  0  0  0  0  0  0  0  0
   -3.7775   -1.4226   -6.9019 C   0  0  0  0  0  0  0  0  0  0  0  0
   -4.3735   -0.2312   -7.2506 C   0  0  0  0  0  0  0  0  0  0  0  0
   -4.1574    1.0542   -6.5912 C   0  0  0  0  0  0  0  0  0  0  0  0
   -3.4870    1.2788   -5.5993 O   0  0  0  0  0  0  0  0  0  0  0  0
   -4.9213    2.0460   -7.3792 C   0  0  0  0  0  0  0  0  0  0  0  0
   -5.5796    1.3902   -8.4364 C   0  0  0  0  0  0  0  0  0  0  0  0
   -6.3569    2.1172   -9.3227 C   0  0  0  0  0  0  0  0  0  0  0  0
   -6.4699    3.4880   -9.1383 C   0  0  0  0  0  0  0  0  0  0  0  0
   -5.8240    4.1276   -8.0922 C   0  0  0  0  0  0  0  0  0  0  0  0
   -6.0245    5.9960   -7.8910 Br  0  0  0  0  0  0  0  0  0  0  0  0
   -5.0304    3.4131   -7.1878 C   0  0  0  0  0  0  0  0  0  0  0  0
   -4.2255    4.1996   -5.8970 Cl  0  0  0  0  0  0  0  0  0  0  0  0
   -5.2776   -0.0404   -8.3595 C   0  0  0  0  0  0  0  0  0  0  0  0
   -5.8094   -1.0054   -9.1788 C   0  0  0  0  0  0  0  0  0  0  0  0
   -5.5869   -2.3944   -9.0695 C   0  0  0  0  0  0  0  0  0  0  0  0
   -5.4808   -3.5385   -9.0445 N   0  0  0  0  0  0  0  0  0  0  0  0
   -6.6945   -0.7368  -10.2429 C   0  0  0  0  0  0  0  0  0  0  0  0
   -7.4150   -0.5852  -11.1242 N   0  0  0  0  0  0  0  0  0  0  0  0
   -0.4675    3.6057    1.9589 H   0  0  0  0  0  0  0  0  0  0  0  0
   -0.0052    3.4454    0.2519 H   0  0  0  0  0  0  0  0  0  0  0  0
   -1.2859    4.5613    0.7163 H   0  0  0  0  0  0  0  0  0  0  0  0
    0.8293    5.8114    0.2714 H   0  0  0  0  0  0  0  0  0  0  0  0
    0.3202    5.9552    1.9741 H   0  0  0  0  0  0  0  0  0  0  0  0
    2.3769    4.4706    5.8033 H   0  0  0  0  0  0  0  0  0  0  0  0
    2.5436    2.6636    7.4702 H   0  0  0  0  0  0  0  0  0  0  0  0
    4.3648    1.0519    7.3426 H   0  0  0  0  0  0  0  0  0  0  0  0
    6.2537    1.4636    5.7974 H   0  0  0  0  0  0  0  0  0  0  0  0
    5.8145    2.9382    6.6700 H   0  0  0  0  0  0  0  0  0  0  0  0
    5.2955    2.2224    3.7581 H   0  0  0  0  0  0  0  0  0  0  0  0
    6.0478    3.6684    4.4045 H   0  0  0  0  0  0  0  0  0  0  0  0
    6.7174   -0.8930    4.5083 H   0  0  0  0  0  0  0  0  0  0  0  0
    8.5482   -1.9271    5.7967 H   0  0  0  0  0  0  0  0  0  0  0  0
    8.0744   -2.9303    8.0060 H   0  0  0  0  0  0  0  0  0  0  0  0
    5.7825   -2.9121    8.8946 H   0  0  0  0  0  0  0  0  0  0  0  0
    3.5645   -1.9678    8.8457 H   0  0  0  0  0  0  0  0  0  0  0  0
    2.9685   -1.0811    7.4349 H   0  0  0  0  0  0  0  0  0  0  0  0
    3.4052   -4.1024    7.5600 H   0  0  0  0  0  0  0  0  0  0  0  0
    2.8127   -3.2167    6.1569 H   0  0  0  0  0  0  0  0  0  0  0  0
    1.8409   -3.2828    7.6314 H   0  0  0  0  0  0  0  0  0  0  0  0
   -4.5511   -6.3111   -4.8586 H   0  0  0  0  0  0  0  0  0  0  0  0
   -3.6478   -4.9367   -4.2164 H   0  0  0  0  0  0  0  0  0  0  0  0
   -6.1218   -4.7028   -5.9969 H   0  0  0  0  0  0  0  0  0  0  0  0
   -6.1275   -4.5328   -4.2363 H   0  0  0  0  0  0  0  0  0  0  0  0
   -5.2666   -3.3620   -5.2386 H   0  0  0  0  0  0  0  0  0  0  0  0
   -4.3328   -7.0147   -7.0961 H   0  0  0  0  0  0  0  0  0  0  0  0
   -3.2161   -6.8693   -9.2795 H   0  0  0  0  0  0  0  0  0  0  0  0
   -1.7441   -4.9479   -9.7857 H   0  0  0  0  0  0  0  0  0  0  0  0
   -1.4020   -3.1943   -8.0872 H   0  0  0  0  0  0  0  0  0  0  0  0
    0.3655    0.9857    0.5588 H   0  0  0  0  0  0  0  0  0  0  0  0
    0.6872    0.9058    2.2848 H   0  0  0  0  0  0  0  0  0  0  0  0
   -1.1421   -0.6819    2.6470 H   0  0  0  0  0  0  0  0  0  0  0  0
   -1.4746   -0.7781    0.9204 H   0  0  0  0  0  0  0  0  0  0  0  0
   -1.7670    0.7325    1.7938 H   0  0  0  0  0  0  0  0  0  0  0  0
   -0.8598    0.5568   -0.8635 H   0  0  0  0  0  0  0  0  0  0  0  0
   -1.0699    0.3216   -2.5876 H   0  0  0  0  0  0  0  0  0  0  0  0
    1.3593    0.3432   -2.9763 H   0  0  0  0  0  0  0  0  0  0  0  0
    0.8553    1.8231   -2.1655 H   0  0  0  0  0  0  0  0  0  0  0  0
    1.6810    0.5422   -1.2578 H   0  0  0  0  0  0  0  0  0  0  0  0
   -3.9910   -2.2741   -7.5372 H   0  0  0  0  0  0  0  0  0  0  0  0
   -6.8698    1.6493  -10.1460 H   0  0  0  0  0  0  0  0  0  0  0  0
   -7.0711    4.0722   -9.8179 H   0  0  0  0  0  0  0  0  0  0  0  0
  1  2  1  0  0  0  0
  2  3  1  0  0  0  0
  3  4  1  0  0  0  0
  4  5  2  0  0  0  0
  5  6  1  0  0  0  0
  6  7  3  0  0  0  0
  5  8  1  0  0  0  0
  8  9  3  0  0  0  0
  4 10  1  0  0  0  0
 10 11  1  0  0  0  0
 11 12  1  0  0  0  0
 12 13  2  0  0  0  0
 11 14  2  0  0  0  0
 14 15  1  0  0  0  0
 15 16  2  0  0  0  0
 16 17  1  0  0  0  0
 17 18  1  0  0  0  0
 18 19  1  0  0  0  0
 17 20  1  0  0  0  0
 20 21  2  0  0  0  0
 21 22  1  0  0  0  0
 22 23  2  0  0  0  0
 23 24  1  0  0  0  0
 24 25  2  0  0  0  0
 25 26  1  0  0  0  0
 26 27  2  0  0  0  0
 27 28  1  0  0  0  0
 28 29  1  0  0  0  0
 21 30  1  0  0  0  0
 30 31  1  0  0  0  0
 31 32  1  0  0  0  0
 32 33  1  0  0  0  0
 33 34  1  0  0  0  0
 34 35  1  0  0  0  0
 35 36  2  0  0  0  0
 36 37  1  0  0  0  0
 37 38  1  0  0  0  0
 35 39  1  0  0  0  0
 39 40  1  0  0  0  0
 40 41  1  0  0  0  0
 41 42  1  0  0  0  0
 42 43  1  0  0  0  0
 43 44  1  0  0  0  0
 44 45  2  0  0  0  0
 45 46  1  0  0  0  0
 46 47  1  0  0  0  0
 45 48  1  0  0  0  0
 48 49  2  0  0  0  0
 49 50  1  0  0  0  0
 50 51  2  0  0  0  0
 43 52  2  0  0  0  0
 52 53  1  0  0  0  0
 53 54  1  0  0  0  0
 54 55  1  0  0  0  0
 55 56  1  0  0  0  0
 56 57  1  0  0  0  0
 57 58  1  0  0  0  0
 58 59  1  0  0  0  0
 59 60  1  0  0  0  0
 60 61  1  0  0  0  0
 61 62  1  0  0  0  0
 59 63  1  0  0  0  0
 63 64  1  0  0  0  0
 56 65  1  0  0  0  0
 65 66  1  0  0  0  0
 52 67  1  0  0  0  0
 67 68  2  0  0  0  0
 68 69  1  0  0  0  0
 69 70  2  0  0  0  0
 69 71  1  0  0  0  0
 71 72  2  0  0  0  0
 72 73  1  0  0  0  0
 73 74  2  0  0  0  0
 74 75  1  0  0  0  0
 75 76  1  0  0  0  0
 75 77  2  0  0  0  0
 77 78  1  0  0  0  0
 72 79  1  0  0  0  0
 79 80  2  0  0  0  0
 80 81  1  0  0  0  0
 81 82  3  0  0  0  0
 80 83  1  0  0  0  0
 83 84  3  0  0  0  0
 12  3  1  0  0  0  0
 19 14  1  0  0  0  0
 62 20  1  0  0  0  0
 79 68  1  0  0  0  0
 27 22  1  0  0  0  0
 61 30  2  0  0  0  0
 77 71  1  0  0  0  0
 60 32  2  0  0  0  0
 58 33  2  0  0  0  0
 38 34  2  0  0  0  0
 57 39  2  0  0  0  0
 55 40  2  0  0  0  0
 54 42  2  0  0  0  0
 51 44  1  0  0  0  0
  1 85  1  0  0  0  0
  1 86  1  0  0  0  0
  1 87  1  0  0  0  0
  2 88  1  0  0  0  0
  2 89  1  0  0  0  0
 15 90  1  0  0  0  0
 16 91  1  0  0  0  0
 17 92  1  0  0  0  0
 18 93  1  0  0  0  0
 18 94  1  0  0  0  0
 19 95  1  0  0  0  0
 19 96  1  0  0  0  0
 23 97  1  0  0  0  0
 24 98  1  0  0  0  0
 25 99  1  0  0  0  0
 26100  1  0  0  0  0
 28101  1  0  0  0  0
 28102  1  0  0  0  0
 29103  1  0  0  0  0
 29104  1  0  0  0  0
 29105  1  0  0  0  0
 46106  1  0  0  0  0
 46107  1  0  0  0  0
 47108  1  0  0  0  0
 47109  1  0  0  0  0
 47110  1  0  0  0  0
 48111  1  0  0  0  0
 49112  1  0  0  0  0
 50113  1  0  0  0  0
 51114  1  0  0  0  0
 63115  1  0  0  0  0
 63116  1  0  0  0  0
 64117  1  0  0  0  0
 64118  1  0  0  0  0
 64119  1  0  0  0  0
 65120  1  0  0  0  0
 65121  1  0  0  0  0
 66122  1  0  0  0  0
 66123  1  0  0  0  0
 66124  1  0  0  0  0
 67125  1  0  0  0  0
 73126  1  0  0  0  0
 74127  1  0  0  0  0
M  END
