
  xtb     01262216473D
 energy: -250.241932793536 gnorm: 0.000416478760 xtb: 6.4.1 (unknown)
156168  0     0  0            999 V2000
   -2.1212   11.9317    1.3181 C   0  0  0  0  0  0  0  0  0  0  0  0
   -1.3839   10.8332    0.5617 C   0  0  0  0  0  0  0  0  0  0  0  0
   -0.8043    9.8583    1.4675 N   0  0  0  0  0  0  0  0  0  0  0  0
    0.3718   10.0185    2.1260 C   0  0  0  0  0  0  0  0  0  0  0  0
    1.2634   11.0583    2.0495 C   0  0  0  0  0  0  0  0  0  0  0  0
    2.4431   11.0112    2.8223 C   0  0  0  0  0  0  0  0  0  0  0  0
    3.4033   10.9826    3.4491 N   0  0  0  0  0  0  0  0  0  0  0  0
    1.1432   12.2160    1.2624 C   0  0  0  0  0  0  0  0  0  0  0  0
    1.1089   13.1864    0.6488 N   0  0  0  0  0  0  0  0  0  0  0  0
    0.7076    8.6594    3.1725 S   0  0  0  0  0  0  0  0  0  0  0  0
   -0.7778    7.8513    2.6781 C   0  0  0  0  0  0  0  0  0  0  0  0
   -1.5073    8.6862    1.7281 C   0  0  0  0  0  0  0  0  0  0  0  0
   -2.5686    8.4428    1.1971 O   0  0  0  0  0  0  0  0  0  0  0  0
   -1.1261    6.6224    3.1422 C   0  0  0  0  0  0  0  0  0  0  0  0
   -2.3432    5.9611    2.7561 C   0  0  0  0  0  0  0  0  0  0  0  0
   -2.6146    4.7007    3.1182 C   0  0  0  0  0  0  0  0  0  0  0  0
   -1.6665    3.8307    3.8795 C   0  0  0  0  0  0  0  0  0  0  0  0
   -0.2425    4.4030    3.7983 C   0  0  0  0  0  0  0  0  0  0  0  0
   -0.2512    5.8943    4.1159 C   0  0  0  0  0  0  0  0  0  0  0  0
   -1.6642    2.4257    3.3653 C   0  0  0  0  0  0  0  0  0  0  0  0
   -1.3070    1.2944    4.0444 C   0  0  0  0  0  0  0  0  0  0  0  0
   -1.2661    0.1703    3.2054 C   0  0  0  0  0  0  0  0  0  0  0  0
   -0.9290   -1.2929    3.3481 C   0  0  0  0  0  0  0  0  0  0  0  0
    0.4924   -1.5484    3.8070 C   0  0  0  0  0  0  0  0  0  0  0  0
    0.8413   -2.7727    4.3571 C   0  0  0  0  0  0  0  0  0  0  0  0
    2.1422   -3.0450    4.7423 C   0  0  0  0  0  0  0  0  0  0  0  0
    3.1346   -2.0847    4.5753 C   0  0  0  0  0  0  0  0  0  0  0  0
    4.4473   -2.2281    4.8987 O   0  0  0  0  0  0  0  0  0  0  0  0
    4.8906   -3.3989    5.5540 C   0  0  0  0  0  0  0  0  0  0  0  0
    4.5362   -3.4112    7.0385 C   0  0  0  0  0  0  0  0  0  0  0  0
    2.7881   -0.8571    4.0079 C   0  0  0  0  0  0  0  0  0  0  0  0
    1.4899   -0.5974    3.6261 C   0  0  0  0  0  0  0  0  0  0  0  0
   -1.9483   -1.9150    4.2836 C   0  0  0  0  0  0  0  0  0  0  0  0
   -3.0693   -2.5782    3.8135 C   0  0  0  0  0  0  0  0  0  0  0  0
   -4.0143   -3.0973    4.6836 C   0  0  0  0  0  0  0  0  0  0  0  0
   -3.8539   -2.9538    6.0564 C   0  0  0  0  0  0  0  0  0  0  0  0
   -4.6917   -3.4369    7.0146 O   0  0  0  0  0  0  0  0  0  0  0  0
   -5.9062   -4.0555    6.6427 C   0  0  0  0  0  0  0  0  0  0  0  0
   -6.9759   -3.0495    6.2268 C   0  0  0  0  0  0  0  0  0  0  0  0
   -2.7300   -2.2739    6.5320 C   0  0  0  0  0  0  0  0  0  0  0  0
   -1.7976   -1.7610    5.6590 C   0  0  0  0  0  0  0  0  0  0  0  0
   -1.0688   -1.7604    1.9069 C   0  0  0  0  0  0  0  0  0  0  0  0
   -1.5080   -0.7086    1.0739 C   0  0  0  0  0  0  0  0  0  0  0  0
   -1.6106    0.4562    1.9035 C   0  0  0  0  0  0  0  0  0  0  0  0
   -1.9744    2.1212    1.6757 S   0  0  0  0  0  0  0  0  0  0  0  0
   -1.7224   -0.8899   -0.2879 C   0  0  0  0  0  0  0  0  0  0  0  0
   -1.4441   -2.1329   -0.8085 C   0  0  0  0  0  0  0  0  0  0  0  0
   -1.5658   -2.5988   -2.2539 C   0  0  0  0  0  0  0  0  0  0  0  0
   -0.6214   -1.8880   -3.2044 C   0  0  0  0  0  0  0  0  0  0  0  0
    0.6107   -1.4257   -2.7537 C   0  0  0  0  0  0  0  0  0  0  0  0
    1.5359   -0.9154   -3.6372 C   0  0  0  0  0  0  0  0  0  0  0  0
    1.2599   -0.8522   -5.0047 C   0  0  0  0  0  0  0  0  0  0  0  0
    2.2487   -0.3303   -5.7780 O   0  0  0  0  0  0  0  0  0  0  0  0
    2.1101   -0.2939   -7.1862 C   0  0  0  0  0  0  0  0  0  0  0  0
    2.2491   -1.6642   -7.8426 C   0  0  0  0  0  0  0  0  0  0  0  0
    0.0247   -1.3016   -5.4562 C   0  0  0  0  0  0  0  0  0  0  0  0
   -0.8932   -1.8253   -4.5622 C   0  0  0  0  0  0  0  0  0  0  0  0
   -3.0201   -2.5170   -2.6606 C   0  0  0  0  0  0  0  0  0  0  0  0
   -3.5706   -1.3106   -3.0675 C   0  0  0  0  0  0  0  0  0  0  0  0
   -4.9118   -1.2035   -3.3917 C   0  0  0  0  0  0  0  0  0  0  0  0
   -5.7408   -2.3170   -3.3054 C   0  0  0  0  0  0  0  0  0  0  0  0
   -7.0755   -2.3434   -3.5714 O   0  0  0  0  0  0  0  0  0  0  0  0
   -7.7235   -1.1857   -4.0574 C   0  0  0  0  0  0  0  0  0  0  0  0
   -7.4681   -0.9471   -5.5430 C   0  0  0  0  0  0  0  0  0  0  0  0
   -5.1900   -3.5309   -2.8916 C   0  0  0  0  0  0  0  0  0  0  0  0
   -3.8531   -3.6261   -2.5715 C   0  0  0  0  0  0  0  0  0  0  0  0
   -1.0209   -4.0006   -2.1444 C   0  0  0  0  0  0  0  0  0  0  0  0
   -0.6623   -4.2784   -0.8468 C   0  0  0  0  0  0  0  0  0  0  0  0
   -0.9509   -3.1690    0.0158 C   0  0  0  0  0  0  0  0  0  0  0  0
   -0.7726   -2.9986    1.3836 C   0  0  0  0  0  0  0  0  0  0  0  0
    0.1616   -5.7824   -0.7144 S   0  0  0  0  0  0  0  0  0  0  0  0
    0.0503   -6.0090   -2.4465 C   0  0  0  0  0  0  0  0  0  0  0  0
   -0.6220   -4.9901   -3.0578 C   0  0  0  0  0  0  0  0  0  0  0  0
    0.7719   -7.1731   -3.0680 C   0  0  0  0  0  0  0  0  0  0  0  0
    2.0334   -7.3904   -2.2856 C   0  0  0  0  0  0  0  0  0  0  0  0
    3.1407   -6.6914   -2.5585 C   0  0  0  0  0  0  0  0  0  0  0  0
    3.2075   -5.7335   -3.6298 C   0  0  0  0  0  0  0  0  0  0  0  0
    4.2360   -4.8456   -3.6974 C   0  0  0  0  0  0  0  0  0  0  0  0
    5.5083   -4.7390   -2.4859 S   0  0  0  0  0  0  0  0  0  0  0  0
    6.2871   -3.4379   -3.3569 C   0  0  0  0  0  0  0  0  0  0  0  0
    7.4389   -2.8786   -2.8638 C   0  0  0  0  0  0  0  0  0  0  0  0
    7.9799   -3.3692   -1.6566 C   0  0  0  0  0  0  0  0  0  0  0  0
    8.4282   -3.7627   -0.6768 N   0  0  0  0  0  0  0  0  0  0  0  0
    8.1803   -1.8300   -3.4345 C   0  0  0  0  0  0  0  0  0  0  0  0
    8.8357   -0.9785   -3.8409 N   0  0  0  0  0  0  0  0  0  0  0  0
    5.6177   -3.1320   -4.4984 N   0  0  0  0  0  0  0  0  0  0  0  0
    6.0210   -2.1018   -5.4391 C   0  0  0  0  0  0  0  0  0  0  0  0
    5.5325   -0.7216   -5.0174 C   0  0  0  0  0  0  0  0  0  0  0  0
    4.4625   -3.8611   -4.7472 C   0  0  0  0  0  0  0  0  0  0  0  0
    3.7870   -3.6893   -5.7401 O   0  0  0  0  0  0  0  0  0  0  0  0
    2.1001   -5.7027   -4.6373 C   0  0  0  0  0  0  0  0  0  0  0  0
    1.1652   -6.9039   -4.5251 C   0  0  0  0  0  0  0  0  0  0  0  0
   -2.9176   11.5019    1.9216 H   0  0  0  0  0  0  0  0  0  0  0  0
   -1.4441   12.4859    1.9638 H   0  0  0  0  0  0  0  0  0  0  0  0
   -2.5570   12.6261    0.6063 H   0  0  0  0  0  0  0  0  0  0  0  0
   -0.5970   11.2524   -0.0673 H   0  0  0  0  0  0  0  0  0  0  0  0
   -2.0892   10.2767   -0.0619 H   0  0  0  0  0  0  0  0  0  0  0  0
   -3.0458    6.5228    2.1614 H   0  0  0  0  0  0  0  0  0  0  0  0
   -3.5570    4.2512    2.8405 H   0  0  0  0  0  0  0  0  0  0  0  0
   -1.9830    3.8095    4.9328 H   0  0  0  0  0  0  0  0  0  0  0  0
    0.4124    3.8719    4.4900 H   0  0  0  0  0  0  0  0  0  0  0  0
    0.1386    4.2526    2.7854 H   0  0  0  0  0  0  0  0  0  0  0  0
    0.7652    6.2933    4.0917 H   0  0  0  0  0  0  0  0  0  0  0  0
   -0.6472    6.0493    5.1249 H   0  0  0  0  0  0  0  0  0  0  0  0
   -1.0743    1.2846    5.0941 H   0  0  0  0  0  0  0  0  0  0  0  0
    0.0835   -3.5289    4.5038 H   0  0  0  0  0  0  0  0  0  0  0  0
    2.3629   -4.0121    5.1661 H   0  0  0  0  0  0  0  0  0  0  0  0
    5.9773   -3.3805    5.4329 H   0  0  0  0  0  0  0  0  0  0  0  0
    4.5047   -4.2946    5.0518 H   0  0  0  0  0  0  0  0  0  0  0  0
    4.9476   -4.3014    7.5063 H   0  0  0  0  0  0  0  0  0  0  0  0
    3.4583   -3.4020    7.1819 H   0  0  0  0  0  0  0  0  0  0  0  0
    4.9539   -2.5322    7.5229 H   0  0  0  0  0  0  0  0  0  0  0  0
    3.5644   -0.1206    3.8728 H   0  0  0  0  0  0  0  0  0  0  0  0
    1.2490    0.3581    3.1839 H   0  0  0  0  0  0  0  0  0  0  0  0
   -3.2179   -2.6997    2.7506 H   0  0  0  0  0  0  0  0  0  0  0  0
   -4.8658   -3.6132    4.2683 H   0  0  0  0  0  0  0  0  0  0  0  0
   -5.7381   -4.7964    5.8512 H   0  0  0  0  0  0  0  0  0  0  0  0
   -6.2269   -4.5846    7.5447 H   0  0  0  0  0  0  0  0  0  0  0  0
   -7.1527   -2.3455    7.0360 H   0  0  0  0  0  0  0  0  0  0  0  0
   -6.6631   -2.4906    5.3482 H   0  0  0  0  0  0  0  0  0  0  0  0
   -7.9025   -3.5710    6.0030 H   0  0  0  0  0  0  0  0  0  0  0  0
   -2.6132   -2.1646    7.5987 H   0  0  0  0  0  0  0  0  0  0  0  0
   -0.9324   -1.2428    6.0457 H   0  0  0  0  0  0  0  0  0  0  0  0
   -2.0700   -0.0757   -0.9046 H   0  0  0  0  0  0  0  0  0  0  0  0
    0.8494   -1.4733   -1.7012 H   0  0  0  0  0  0  0  0  0  0  0  0
    2.4910   -0.5551   -3.2871 H   0  0  0  0  0  0  0  0  0  0  0  0
    1.1623    0.1841   -7.4654 H   0  0  0  0  0  0  0  0  0  0  0  0
    2.9295    0.3549   -7.5092 H   0  0  0  0  0  0  0  0  0  0  0  0
    1.3632   -2.2739   -7.6882 H   0  0  0  0  0  0  0  0  0  0  0  0
    3.0926   -2.1949   -7.4106 H   0  0  0  0  0  0  0  0  0  0  0  0
    2.4087   -1.5419   -8.9103 H   0  0  0  0  0  0  0  0  0  0  0  0
   -0.2387   -1.2564   -6.5007 H   0  0  0  0  0  0  0  0  0  0  0  0
   -1.8379   -2.1923   -4.9369 H   0  0  0  0  0  0  0  0  0  0  0  0
   -2.9416   -0.4362   -3.1491 H   0  0  0  0  0  0  0  0  0  0  0  0
   -5.2922   -0.2434   -3.7034 H   0  0  0  0  0  0  0  0  0  0  0  0
   -7.4417   -0.3060   -3.4657 H   0  0  0  0  0  0  0  0  0  0  0  0
   -8.7869   -1.3826   -3.8929 H   0  0  0  0  0  0  0  0  0  0  0  0
   -7.7776   -1.8192   -6.1135 H   0  0  0  0  0  0  0  0  0  0  0  0
   -8.0379   -0.0849   -5.8786 H   0  0  0  0  0  0  0  0  0  0  0  0
   -6.4125   -0.7696   -5.7332 H   0  0  0  0  0  0  0  0  0  0  0  0
   -5.8393   -4.3896   -2.8249 H   0  0  0  0  0  0  0  0  0  0  0  0
   -3.4509   -4.5751   -2.2490 H   0  0  0  0  0  0  0  0  0  0  0  0
   -0.4023   -3.8037    1.9995 H   0  0  0  0  0  0  0  0  0  0  0  0
   -0.8160   -4.9394   -4.1135 H   0  0  0  0  0  0  0  0  0  0  0  0
    0.1411   -8.0693   -3.0175 H   0  0  0  0  0  0  0  0  0  0  0  0
    2.0069   -8.0817   -1.4574 H   0  0  0  0  0  0  0  0  0  0  0  0
    4.0281   -6.8116   -1.9516 H   0  0  0  0  0  0  0  0  0  0  0  0
    5.5702   -2.3771   -6.3965 H   0  0  0  0  0  0  0  0  0  0  0  0
    7.1079   -2.1193   -5.5370 H   0  0  0  0  0  0  0  0  0  0  0  0
    4.4457   -0.6847   -5.0216 H   0  0  0  0  0  0  0  0  0  0  0  0
    5.9085    0.0174   -5.7188 H   0  0  0  0  0  0  0  0  0  0  0  0
    5.8992   -0.4642   -4.0264 H   0  0  0  0  0  0  0  0  0  0  0  0
    2.5220   -5.6448   -5.6426 H   0  0  0  0  0  0  0  0  0  0  0  0
    1.5444   -4.7716   -4.4880 H   0  0  0  0  0  0  0  0  0  0  0  0
    0.2790   -6.7388   -5.1374 H   0  0  0  0  0  0  0  0  0  0  0  0
    1.6728   -7.7942   -4.9034 H   0  0  0  0  0  0  0  0  0  0  0  0
  1  2  1  0  0  0  0
  2  3  1  0  0  0  0
  3  4  1  0  0  0  0
  4  5  2  0  0  0  0
  5  6  1  0  0  0  0
  6  7  3  0  0  0  0
  5  8  1  0  0  0  0
  8  9  3  0  0  0  0
  4 10  1  0  0  0  0
 10 11  1  0  0  0  0
 11 12  1  0  0  0  0
 12 13  2  0  0  0  0
 11 14  2  0  0  0  0
 14 15  1  0  0  0  0
 15 16  2  0  0  0  0
 16 17  1  0  0  0  0
 17 18  1  0  0  0  0
 18 19  1  0  0  0  0
 17 20  1  0  0  0  0
 20 21  2  0  0  0  0
 21 22  1  0  0  0  0
 22 23  1  0  0  0  0
 23 24  1  0  0  0  0
 24 25  2  0  0  0  0
 25 26  1  0  0  0  0
 26 27  2  0  0  0  0
 27 28  1  0  0  0  0
 28 29  1  0  0  0  0
 29 30  1  0  0  0  0
 27 31  1  0  0  0  0
 31 32  2  0  0  0  0
 23 33  1  0  0  0  0
 33 34  2  0  0  0  0
 34 35  1  0  0  0  0
 35 36  2  0  0  0  0
 36 37  1  0  0  0  0
 37 38  1  0  0  0  0
 38 39  1  0  0  0  0
 36 40  1  0  0  0  0
 40 41  2  0  0  0  0
 23 42  1  0  0  0  0
 42 43  2  0  0  0  0
 43 44  1  0  0  0  0
 44 45  1  0  0  0  0
 43 46  1  0  0  0  0
 46 47  2  0  0  0  0
 47 48  1  0  0  0  0
 48 49  1  0  0  0  0
 49 50  2  0  0  0  0
 50 51  1  0  0  0  0
 51 52  2  0  0  0  0
 52 53  1  0  0  0  0
 53 54  1  0  0  0  0
 54 55  1  0  0  0  0
 52 56  1  0  0  0  0
 56 57  2  0  0  0  0
 48 58  1  0  0  0  0
 58 59  2  0  0  0  0
 59 60  1  0  0  0  0
 60 61  2  0  0  0  0
 61 62  1  0  0  0  0
 62 63  1  0  0  0  0
 63 64  1  0  0  0  0
 61 65  1  0  0  0  0
 65 66  2  0  0  0  0
 48 67  1  0  0  0  0
 67 68  2  0  0  0  0
 68 69  1  0  0  0  0
 69 70  2  0  0  0  0
 68 71  1  0  0  0  0
 71 72  1  0  0  0  0
 72 73  2  0  0  0  0
 72 74  1  0  0  0  0
 74 75  1  0  0  0  0
 75 76  2  0  0  0  0
 76 77  1  0  0  0  0
 77 78  2  0  0  0  0
 78 79  1  0  0  0  0
 79 80  1  0  0  0  0
 80 81  2  0  0  0  0
 81 82  1  0  0  0  0
 82 83  3  0  0  0  0
 81 84  1  0  0  0  0
 84 85  3  0  0  0  0
 80 86  1  0  0  0  0
 86 87  1  0  0  0  0
 87 88  1  0  0  0  0
 86 89  1  0  0  0  0
 89 90  2  0  0  0  0
 77 91  1  0  0  0  0
 91 92  1  0  0  0  0
 12  3  1  0  0  0  0
 19 14  1  0  0  0  0
 45 20  1  0  0  0  0
 69 47  1  0  0  0  0
 92 74  1  0  0  0  0
 44 22  2  0  0  0  0
 57 49  1  0  0  0  0
 66 58  1  0  0  0  0
 73 67  1  0  0  0  0
 89 78  1  0  0  0  0
 32 24  1  0  0  0  0
 41 33  1  0  0  0  0
 70 42  1  0  0  0  0
  1 93  1  0  0  0  0
  1 94  1  0  0  0  0
  1 95  1  0  0  0  0
  2 96  1  0  0  0  0
  2 97  1  0  0  0  0
 15 98  1  0  0  0  0
 16 99  1  0  0  0  0
 17100  1  0  0  0  0
 18101  1  0  0  0  0
 18102  1  0  0  0  0
 19103  1  0  0  0  0
 19104  1  0  0  0  0
 21105  1  0  0  0  0
 25106  1  0  0  0  0
 26107  1  0  0  0  0
 29108  1  0  0  0  0
 29109  1  0  0  0  0
 30110  1  0  0  0  0
 30111  1  0  0  0  0
 30112  1  0  0  0  0
 31113  1  0  0  0  0
 32114  1  0  0  0  0
 34115  1  0  0  0  0
 35116  1  0  0  0  0
 38117  1  0  0  0  0
 38118  1  0  0  0  0
 39119  1  0  0  0  0
 39120  1  0  0  0  0
 39121  1  0  0  0  0
 40122  1  0  0  0  0
 41123  1  0  0  0  0
 46124  1  0  0  0  0
 50125  1  0  0  0  0
 51126  1  0  0  0  0
 54127  1  0  0  0  0
 54128  1  0  0  0  0
 55129  1  0  0  0  0
 55130  1  0  0  0  0
 55131  1  0  0  0  0
 56132  1  0  0  0  0
 57133  1  0  0  0  0
 59134  1  0  0  0  0
 60135  1  0  0  0  0
 63136  1  0  0  0  0
 63137  1  0  0  0  0
 64138  1  0  0  0  0
 64139  1  0  0  0  0
 64140  1  0  0  0  0
 65141  1  0  0  0  0
 66142  1  0  0  0  0
 70143  1  0  0  0  0
 73144  1  0  0  0  0
 74145  1  0  0  0  0
 75146  1  0  0  0  0
 76147  1  0  0  0  0
 87148  1  0  0  0  0
 87149  1  0  0  0  0
 88150  1  0  0  0  0
 88151  1  0  0  0  0
 88152  1  0  0  0  0
 91153  1  0  0  0  0
 91154  1  0  0  0  0
 92155  1  0  0  0  0
 92156  1  0  0  0  0
M  END
