
  xtb     02022219383D
 energy: -212.682159197995 gnorm: 0.000560089176 xtb: 6.4.1 (unknown)
129143  0     0  0            999 V2000
   -5.5392   -7.4869   -2.8078 C   0  0  0  0  0  0  0  0  0  0  0  0
   -5.7429   -8.5309   -1.7164 C   0  0  0  0  0  0  0  0  0  0  0  0
   -4.4763   -9.0254   -1.2083 N   0  0  0  0  0  0  0  0  0  0  0  0
   -3.7151   -9.9731   -1.8133 C   0  0  0  0  0  0  0  0  0  0  0  0
   -3.9870  -10.6958   -2.9473 C   0  0  0  0  0  0  0  0  0  0  0  0
   -5.1362  -10.6020   -3.7502 C   0  0  0  0  0  0  0  0  0  0  0  0
   -6.0449  -10.5727   -4.4522 N   0  0  0  0  0  0  0  0  0  0  0  0
   -3.0470  -11.6462   -3.3986 C   0  0  0  0  0  0  0  0  0  0  0  0
   -2.2868  -12.4202   -3.7711 N   0  0  0  0  0  0  0  0  0  0  0  0
   -2.2219  -10.2447   -0.9458 S   0  0  0  0  0  0  0  0  0  0  0  0
   -2.6562   -9.0435    0.2675 C   0  0  0  0  0  0  0  0  0  0  0  0
   -3.9491   -8.4538   -0.0554 C   0  0  0  0  0  0  0  0  0  0  0  0
   -4.5318   -7.5877    0.5617 O   0  0  0  0  0  0  0  0  0  0  0  0
   -1.8717   -8.7447    1.3386 C   0  0  0  0  0  0  0  0  0  0  0  0
   -0.5954   -9.3837    1.5030 C   0  0  0  0  0  0  0  0  0  0  0  0
    0.2410   -9.1027    2.5077 C   0  0  0  0  0  0  0  0  0  0  0  0
   -0.0712   -8.1120    3.5868 C   0  0  0  0  0  0  0  0  0  0  0  0
   -1.5823   -7.8804    3.6839 C   0  0  0  0  0  0  0  0  0  0  0  0
   -2.2709   -7.7027    2.3328 C   0  0  0  0  0  0  0  0  0  0  0  0
    0.7561   -6.8815    3.3339 C   0  0  0  0  0  0  0  0  0  0  0  0
    2.0437   -6.6592    3.7381 C   0  0  0  0  0  0  0  0  0  0  0  0
    2.9131   -7.5832    4.5315 C   0  0  0  0  0  0  0  0  0  0  0  0
    3.9729   -8.2361    3.6429 C   0  0  0  0  0  0  0  0  0  0  0  0
    2.5165   -5.4027    3.2902 C   0  0  0  0  0  0  0  0  0  0  0  0
    1.5898   -4.6748    2.5515 C   0  0  0  0  0  0  0  0  0  0  0  0
    0.1146   -5.5572    2.3829 S   0  0  0  0  0  0  0  0  0  0  0  0
    2.1018   -3.4334    2.1457 C   0  0  0  0  0  0  0  0  0  0  0  0
    3.4205   -3.2544    2.5641 C   0  0  0  0  0  0  0  0  0  0  0  0
    4.0433   -4.5784    3.4867 S   0  0  0  0  0  0  0  0  0  0  0  0
    3.8608   -2.0297    2.0348 C   0  0  0  0  0  0  0  0  0  0  0  0
    5.1578   -1.4566    2.0359 C   0  0  0  0  0  0  0  0  0  0  0  0
    6.1702   -2.0393    2.6901 N   0  0  0  0  0  0  0  0  0  0  0  0
    7.3633   -1.4919    2.5921 C   0  0  0  0  0  0  0  0  0  0  0  0
    8.4763   -2.1556    3.3340 C   0  0  0  0  0  0  0  0  0  0  0  0
    7.5769   -0.3280    1.8121 C   0  0  0  0  0  0  0  0  0  0  0  0
    8.9292    0.2901    1.6763 C   0  0  0  0  0  0  0  0  0  0  0  0
    6.5854    0.2593    1.1761 N   0  0  0  0  0  0  0  0  0  0  0  0
    5.3658   -0.2822    1.2799 C   0  0  0  0  0  0  0  0  0  0  0  0
    4.2397    0.3321    0.6746 C   0  0  0  0  0  0  0  0  0  0  0  0
    4.1457    1.5551   -0.0062 C   0  0  0  0  0  0  0  0  0  0  0  0
    5.1822    2.8249   -0.5522 S   0  0  0  0  0  0  0  0  0  0  0  0
    3.7674    3.6858   -1.1314 C   0  0  0  0  0  0  0  0  0  0  0  0
    3.6128    4.9145   -1.7568 C   0  0  0  0  0  0  0  0  0  0  0  0
    4.7726    5.7729   -2.1436 C   0  0  0  0  0  0  0  0  0  0  0  0
    5.1831    5.5100   -3.5950 C   0  0  0  0  0  0  0  0  0  0  0  0
    2.2586    5.1938   -2.0137 C   0  0  0  0  0  0  0  0  0  0  0  0
    1.1960    3.8999   -1.4515 S   0  0  0  0  0  0  0  0  0  0  0  0
    2.5604    3.0006   -0.9035 C   0  0  0  0  0  0  0  0  0  0  0  0
    2.7904    1.7768   -0.2710 C   0  0  0  0  0  0  0  0  0  0  0  0
    2.0425    0.7158    0.1784 N   0  0  0  0  0  0  0  0  0  0  0  0
    0.6371    0.9334    0.4459 C   0  0  0  0  0  0  0  0  0  0  0  0
    0.4252    1.4343    1.8732 C   0  0  0  0  0  0  0  0  0  0  0  0
    2.9173   -0.1883    0.7589 C   0  0  0  0  0  0  0  0  0  0  0  0
    2.7534   -1.4657    1.3436 C   0  0  0  0  0  0  0  0  0  0  0  0
    1.6948   -2.3544    1.4086 N   0  0  0  0  0  0  0  0  0  0  0  0
    0.4893   -2.4352    0.6180 C   0  0  0  0  0  0  0  0  0  0  0  0
   -0.7638   -2.1677    1.4502 C   0  0  0  0  0  0  0  0  0  0  0  0
    1.8303    6.3599   -2.6534 C   0  0  0  0  0  0  0  0  0  0  0  0
    0.5686    6.8090   -2.9615 C   0  0  0  0  0  0  0  0  0  0  0  0
   -0.6949    6.1576   -2.6114 C   0  0  0  0  0  0  0  0  0  0  0  0
   -0.8514    5.0833   -2.0533 O   0  0  0  0  0  0  0  0  0  0  0  0
   -1.7672    7.0653   -3.0554 C   0  0  0  0  0  0  0  0  0  0  0  0
   -3.1397    6.8801   -2.9053 C   0  0  0  0  0  0  0  0  0  0  0  0
   -3.9005    7.9069   -3.4110 C   0  0  0  0  0  0  0  0  0  0  0  0
   -3.3373    9.0320   -4.0262 C   0  0  0  0  0  0  0  0  0  0  0  0
   -1.9852    9.2248   -4.1841 C   0  0  0  0  0  0  0  0  0  0  0  0
   -1.1918    8.1945   -3.6709 C   0  0  0  0  0  0  0  0  0  0  0  0
    0.2637    8.0484   -3.6449 C   0  0  0  0  0  0  0  0  0  0  0  0
    1.1554    8.9323   -4.2006 C   0  0  0  0  0  0  0  0  0  0  0  0
    2.5579    8.7909   -4.2176 C   0  0  0  0  0  0  0  0  0  0  0  0
    3.7050    8.7555   -4.2858 N   0  0  0  0  0  0  0  0  0  0  0  0
    0.7942   10.1238   -4.8624 C   0  0  0  0  0  0  0  0  0  0  0  0
    0.5821   11.1121   -5.4081 N   0  0  0  0  0  0  0  0  0  0  0  0
   -4.6825    9.6623   -4.2888 C   0  0  0  0  0  0  0  0  0  0  0  0
   -5.0989   10.8136   -3.3494 C   0  0  0  0  0  0  0  0  0  0  0  0
   -6.5982   10.8977   -3.5227 C   0  0  0  0  0  0  0  0  0  0  0  0
   -7.1322    9.8330   -2.9380 C   0  0  0  0  0  0  0  0  0  0  0  0
   -6.0027    9.0113   -2.3596 C   0  0  0  0  0  0  0  0  0  0  0  0
   -5.0300   10.1339   -1.9757 C   0  0  0  0  0  0  0  0  0  0  0  0
   -5.3111    8.4082   -3.6009 C   0  0  0  0  0  0  0  0  0  0  0  0
   -4.9625   -6.6491   -2.4222 H   0  0  0  0  0  0  0  0  0  0  0  0
   -6.5065   -7.1226   -3.1400 H   0  0  0  0  0  0  0  0  0  0  0  0
   -5.0222   -7.9111   -3.6653 H   0  0  0  0  0  0  0  0  0  0  0  0
   -6.2484   -8.0757   -0.8602 H   0  0  0  0  0  0  0  0  0  0  0  0
   -6.3361   -9.3695   -2.0838 H   0  0  0  0  0  0  0  0  0  0  0  0
   -0.3109  -10.1075    0.7505 H   0  0  0  0  0  0  0  0  0  0  0  0
    1.2110   -9.5747    2.5547 H   0  0  0  0  0  0  0  0  0  0  0  0
    0.2694   -8.5258    4.5441 H   0  0  0  0  0  0  0  0  0  0  0  0
   -2.0164   -8.7521    4.1793 H   0  0  0  0  0  0  0  0  0  0  0  0
   -1.7822   -7.0068    4.3059 H   0  0  0  0  0  0  0  0  0  0  0  0
   -3.3530   -7.7114    2.4700 H   0  0  0  0  0  0  0  0  0  0  0  0
   -2.0294   -6.7261    1.9038 H   0  0  0  0  0  0  0  0  0  0  0  0
    3.4153   -7.0001    5.3072 H   0  0  0  0  0  0  0  0  0  0  0  0
    2.3133   -8.3546    5.0166 H   0  0  0  0  0  0  0  0  0  0  0  0
    3.5078   -8.8092    2.8437 H   0  0  0  0  0  0  0  0  0  0  0  0
    4.5960   -8.9040    4.2322 H   0  0  0  0  0  0  0  0  0  0  0  0
    4.6077   -7.4757    3.1952 H   0  0  0  0  0  0  0  0  0  0  0  0
    8.9209   -1.4660    4.0501 H   0  0  0  0  0  0  0  0  0  0  0  0
    8.0862   -3.0215    3.8612 H   0  0  0  0  0  0  0  0  0  0  0  0
    9.2568   -2.4740    2.6444 H   0  0  0  0  0  0  0  0  0  0  0  0
    9.3119    0.5880    2.6515 H   0  0  0  0  0  0  0  0  0  0  0  0
    9.6308   -0.4209    1.2423 H   0  0  0  0  0  0  0  0  0  0  0  0
    8.8579    1.1638    1.0349 H   0  0  0  0  0  0  0  0  0  0  0  0
    4.5383    6.8311   -2.0199 H   0  0  0  0  0  0  0  0  0  0  0  0
    5.6097    5.5281   -1.4866 H   0  0  0  0  0  0  0  0  0  0  0  0
    4.3723    5.7583   -4.2754 H   0  0  0  0  0  0  0  0  0  0  0  0
    6.0430    6.1221   -3.8508 H   0  0  0  0  0  0  0  0  0  0  0  0
    5.4443    4.4629   -3.7297 H   0  0  0  0  0  0  0  0  0  0  0  0
    0.2953    1.6912   -0.2635 H   0  0  0  0  0  0  0  0  0  0  0  0
    0.0596    0.0298    0.2743 H   0  0  0  0  0  0  0  0  0  0  0  0
   -0.6327    1.6036    2.0539 H   0  0  0  0  0  0  0  0  0  0  0  0
    0.7981    0.7083    2.5936 H   0  0  0  0  0  0  0  0  0  0  0  0
    0.9561    2.3712    2.0244 H   0  0  0  0  0  0  0  0  0  0  0  0
    0.5756   -1.7532   -0.2289 H   0  0  0  0  0  0  0  0  0  0  0  0
    0.4277   -3.4524    0.2135 H   0  0  0  0  0  0  0  0  0  0  0  0
   -0.7072   -1.2085    1.9571 H   0  0  0  0  0  0  0  0  0  0  0  0
   -0.8794   -2.9432    2.2029 H   0  0  0  0  0  0  0  0  0  0  0  0
   -1.6416   -2.1787    0.8100 H   0  0  0  0  0  0  0  0  0  0  0  0
    2.6444    7.0107   -2.9417 H   0  0  0  0  0  0  0  0  0  0  0  0
   -3.5304    5.9944   -2.4290 H   0  0  0  0  0  0  0  0  0  0  0  0
   -1.5706   10.0965   -4.6614 H   0  0  0  0  0  0  0  0  0  0  0  0
   -4.9197    9.8576   -5.3329 H   0  0  0  0  0  0  0  0  0  0  0  0
   -4.5380   11.7346   -3.4820 H   0  0  0  0  0  0  0  0  0  0  0  0
   -7.0951   11.6682   -4.0825 H   0  0  0  0  0  0  0  0  0  0  0  0
   -8.1644    9.5364   -2.9120 H   0  0  0  0  0  0  0  0  0  0  0  0
   -6.2662    8.2913   -1.5894 H   0  0  0  0  0  0  0  0  0  0  0  0
   -5.4246   10.7672   -1.1828 H   0  0  0  0  0  0  0  0  0  0  0  0
   -4.0357    9.7855   -1.7023 H   0  0  0  0  0  0  0  0  0  0  0  0
   -5.9692    7.7683   -4.1859 H   0  0  0  0  0  0  0  0  0  0  0  0
  1  2  1  0  0  0  0
  2  3  1  0  0  0  0
  3  4  1  0  0  0  0
  4  5  2  0  0  0  0
  5  6  1  0  0  0  0
  6  7  3  0  0  0  0
  5  8  1  0  0  0  0
  8  9  3  0  0  0  0
  4 10  1  0  0  0  0
 10 11  1  0  0  0  0
 11 12  1  0  0  0  0
 12 13  2  0  0  0  0
 11 14  2  0  0  0  0
 14 15  1  0  0  0  0
 15 16  2  0  0  0  0
 16 17  1  0  0  0  0
 17 18  1  0  0  0  0
 18 19  1  0  0  0  0
 17 20  1  0  0  0  0
 20 21  2  0  0  0  0
 21 22  1  0  0  0  0
 22 23  1  0  0  0  0
 21 24  1  0  0  0  0
 24 25  2  0  0  0  0
 25 26  1  0  0  0  0
 25 27  1  0  0  0  0
 27 28  2  0  0  0  0
 28 29  1  0  0  0  0
 28 30  1  0  0  0  0
 30 31  2  0  0  0  0
 31 32  1  0  0  0  0
 32 33  2  0  0  0  0
 33 34  1  0  0  0  0
 33 35  1  0  0  0  0
 35 36  1  0  0  0  0
 35 37  2  0  0  0  0
 37 38  1  0  0  0  0
 38 39  2  0  0  0  0
 39 40  1  0  0  0  0
 40 41  1  0  0  0  0
 41 42  1  0  0  0  0
 42 43  1  0  0  0  0
 43 44  1  0  0  0  0
 44 45  1  0  0  0  0
 43 46  2  0  0  0  0
 46 47  1  0  0  0  0
 47 48  1  0  0  0  0
 48 49  1  0  0  0  0
 49 50  1  0  0  0  0
 50 51  1  0  0  0  0
 51 52  1  0  0  0  0
 50 53  1  0  0  0  0
 53 54  2  0  0  0  0
 54 55  1  0  0  0  0
 55 56  1  0  0  0  0
 56 57  1  0  0  0  0
 46 58  1  0  0  0  0
 58 59  2  0  0  0  0
 59 60  1  0  0  0  0
 60 61  2  0  0  0  0
 60 62  1  0  0  0  0
 62 63  2  0  0  0  0
 63 64  1  0  0  0  0
 64 65  2  0  0  0  0
 65 66  1  0  0  0  0
 66 67  2  0  0  0  0
 67 68  1  0  0  0  0
 68 69  2  0  0  0  0
 69 70  1  0  0  0  0
 70 71  3  0  0  0  0
 69 72  1  0  0  0  0
 72 73  3  0  0  0  0
 65 74  1  0  0  0  0
 74 75  1  0  0  0  0
 75 76  1  0  0  0  0
 76 77  2  0  0  0  0
 77 78  1  0  0  0  0
 78 79  1  0  0  0  0
 78 80  1  0  0  0  0
 12  3  1  0  0  0  0
 19 14  1  0  0  0  0
 26 20  1  0  0  0  0
 55 27  1  0  0  0  0
 68 59  1  0  0  0  0
 80 74  1  0  0  0  0
 29 24  1  0  0  0  0
 54 30  1  0  0  0  0
 67 62  1  0  0  0  0
 79 75  1  0  0  0  0
 38 31  1  0  0  0  0
 53 39  1  0  0  0  0
 80 64  1  0  0  0  0
 49 40  2  0  0  0  0
 48 42  2  0  0  0  0
  1 81  1  0  0  0  0
  1 82  1  0  0  0  0
  1 83  1  0  0  0  0
  2 84  1  0  0  0  0
  2 85  1  0  0  0  0
 15 86  1  0  0  0  0
 16 87  1  0  0  0  0
 17 88  1  0  0  0  0
 18 89  1  0  0  0  0
 18 90  1  0  0  0  0
 19 91  1  0  0  0  0
 19 92  1  0  0  0  0
 22 93  1  0  0  0  0
 22 94  1  0  0  0  0
 23 95  1  0  0  0  0
 23 96  1  0  0  0  0
 23 97  1  0  0  0  0
 34 98  1  0  0  0  0
 34 99  1  0  0  0  0
 34100  1  0  0  0  0
 36101  1  0  0  0  0
 36102  1  0  0  0  0
 36103  1  0  0  0  0
 44104  1  0  0  0  0
 44105  1  0  0  0  0
 45106  1  0  0  0  0
 45107  1  0  0  0  0
 45108  1  0  0  0  0
 51109  1  0  0  0  0
 51110  1  0  0  0  0
 52111  1  0  0  0  0
 52112  1  0  0  0  0
 52113  1  0  0  0  0
 56114  1  0  0  0  0
 56115  1  0  0  0  0
 57116  1  0  0  0  0
 57117  1  0  0  0  0
 57118  1  0  0  0  0
 58119  1  0  0  0  0
 63120  1  0  0  0  0
 66121  1  0  0  0  0
 74122  1  0  0  0  0
 75123  1  0  0  0  0
 76124  1  0  0  0  0
 77125  1  0  0  0  0
 78126  1  0  0  0  0
 79127  1  0  0  0  0
 79128  1  0  0  0  0
 80129  1  0  0  0  0
M  END
