136

C        -13.03620       -7.43540       -6.58810
C        -12.00460       -6.42010       -6.11190
N        -10.96890       -7.04500       -5.30920
C        -11.09370       -7.36480       -3.99620
C        -12.14680       -7.12120       -3.15100
C        -13.35290       -6.47590       -3.47260
N        -14.35960       -5.95730       -3.66450
C        -12.05790       -7.53310       -1.80460
N        -11.99090       -7.86080       -0.70740
S         -9.65960       -8.16470       -3.39400
C         -8.87520       -8.03740       -4.96440
C         -9.76550       -7.38720       -5.91960
O         -9.54450       -7.14270       -7.08530
C         -7.60160       -8.47080       -5.16540
C         -6.93490       -8.31800       -6.43010
C         -5.61140       -8.47760       -6.55360
C         -4.74430       -8.85290       -5.39340
C         -5.55560       -9.74850       -4.44270
C         -6.84110       -9.05410       -4.01090
C         -4.26270       -7.61620       -4.69190
S         -2.68410       -7.61180       -3.94770
C         -2.93030       -6.00320       -3.34780
C         -2.02930       -5.24250       -2.58800
S         -0.42930       -5.77490       -2.12200
C         -0.17820       -4.26980       -1.32250
C          0.81460       -3.63110       -0.56310
C          2.05730       -4.10160       -0.08760
C          2.83250       -3.25380        0.77000
N          3.94500       -3.83600        1.18800
S          4.01280       -5.32480        0.55270
N          2.62500       -5.28190       -0.28060
C          2.38500       -1.93500        1.00050
C          3.02040       -0.85100        1.62020
S          4.47120       -0.53300        2.48730
C          4.03500        1.16130        2.55970
C          4.81390        2.14440        3.18000
C          4.43060        3.50150        3.20810
C          3.21780        3.82800        2.55370
N          2.61070        5.00090        2.37300
N          1.54470        4.71260        1.67600
C          0.58700        5.71370        1.30500
C         -0.58670        5.72110        2.28000
N          1.37410        3.45020        1.37090
C          2.42500        2.82740        1.91600
C          2.81080        1.46160        1.92420
C          2.23020        0.28160        1.40640
N          1.10940       -0.08180        0.70470
C          1.16530       -1.43950        0.45900
C          0.30780       -2.34590       -0.22800
N         -0.98160       -2.23750       -0.73610
C         -1.26660       -3.40530       -1.40320
C         -2.35000       -3.94720       -2.13750
C         -3.62330       -3.44620       -2.50230
C         -4.52900       -4.22290       -3.28530
C         -4.18810       -5.52080       -3.72260
C         -4.92750       -6.44970       -4.49150
N         -5.63470       -3.49610       -3.46680
N         -5.39230       -2.37500       -2.84260
C         -6.36890       -1.32820       -2.75540
C         -7.16030       -1.44070       -1.45540
N         -4.22630       -2.27750       -2.25230
C         -2.08640       -1.48060       -0.18510
C         -2.49200       -2.03900        1.17880
C          0.18840        0.90640        0.19970
C         -0.82510        1.33260        1.26350
C          5.34000        4.32160        3.88010
C          6.43050        3.63240        4.37070
S          6.31670        1.90970        3.99140
C          7.58340        4.02880        5.08030
C          8.00860        5.25130        5.52290
C          7.35640        6.57340        5.37530
O          6.26770        6.84030        4.90750
C          8.30330        7.55810        5.92930
C          8.12740        8.93940        5.97370
C          9.18380        9.61990        6.52770
C         10.33190        8.97210        7.00370
C         10.51250        7.61020        6.97480
C          9.44720        6.89740        6.41470
C          9.27220        5.46060        6.21630
C         10.15120        4.50170        6.64980
C         10.00560        3.10230        6.53340
N          9.98970        1.95370        6.51010
C         11.36290        4.77360        7.32080
N         12.36390        4.90550        7.86810
C         10.99380       10.26700        7.40260
C         12.10430       10.82290        6.47690
C         11.81300       10.29900        5.09260
C         10.72560       10.91410        4.64720
C         10.26140       11.86450        5.72300
C         11.61500       12.27230        6.32620
C          9.71310       10.98850        6.87670
H        -13.77290       -6.93290       -7.20740
H        -13.55290       -7.89400       -5.74830
H        -12.55420       -8.21220       -7.17740
H        -11.48920       -5.98570       -6.97310
H        -12.47750       -5.62450       -5.53400
H         -7.53660       -8.01800       -7.27330
H         -5.12700       -8.30150       -7.50190
H         -3.86940       -9.40890       -5.74470
H         -5.79890      -10.67270       -4.97060
H         -4.95820      -10.00130       -3.56590
H         -7.48300       -9.75590       -3.47070
H         -6.60700       -8.24140       -3.31510
H          0.23940        5.48910        0.29400
H          1.10590        6.67320        1.31940
H         -1.08210        4.75310        2.27810
H         -1.30370        6.48330        1.98890
H         -0.23690        5.93610        3.28660
H         -5.90590       -6.22970       -4.87750
H         -5.84040       -0.37330       -2.79780
H         -7.02920       -1.42960       -3.61830
H         -7.68080       -2.39440       -1.41330
H         -6.49070       -1.36850       -0.60170
H         -7.89190       -0.64010       -1.39710
H         -2.91820       -1.57620       -0.88610
H         -1.83720       -0.43050       -0.09680
H         -3.32250       -1.46590        1.58270
H         -1.65860       -1.99350        1.87820
H         -2.80090       -3.07770        1.08470
H         -0.28500        0.51370       -0.70140
H          0.77000        1.78800       -0.08170
H         -1.26360        0.47630        1.76820
H         -0.32230        1.94470        2.00590
H         -1.61520        1.92490        0.80960
H          5.20520        5.38040        4.00210
H          8.24620        3.19680        5.28750
H          7.22600        9.39380        5.59290
H         11.40230        7.13220        7.34780
H         11.24270       10.37140        8.45680
H         13.11560       10.67080        6.84430
H         12.37630        9.51730        4.61750
H         10.19860       10.74880        3.72570
H          9.59460       12.66170        5.40480
H         12.22540       12.85340        5.63650
H         11.52620       12.80110        7.27420
H          9.12280       11.56160        7.58920
