
  xtb     02102222113D
 energy: -240.019726408055 gnorm: 0.000808517872 xtb: 6.4.1 (unknown)
136154  0     0  0            999 V2000
  -13.0362   -7.4354   -6.5881 C   0  0  0  0  0  0  0  0  0  0  0  0
  -12.0046   -6.4201   -6.1119 C   0  0  0  0  0  0  0  0  0  0  0  0
  -10.9689   -7.0450   -5.3092 N   0  0  0  0  0  0  0  0  0  0  0  0
  -11.0937   -7.3648   -3.9962 C   0  0  0  0  0  0  0  0  0  0  0  0
  -12.1468   -7.1212   -3.1510 C   0  0  0  0  0  0  0  0  0  0  0  0
  -13.3529   -6.4759   -3.4726 C   0  0  0  0  0  0  0  0  0  0  0  0
  -14.3596   -5.9573   -3.6645 N   0  0  0  0  0  0  0  0  0  0  0  0
  -12.0579   -7.5331   -1.8046 C   0  0  0  0  0  0  0  0  0  0  0  0
  -11.9909   -7.8608   -0.7074 N   0  0  0  0  0  0  0  0  0  0  0  0
   -9.6596   -8.1647   -3.3940 S   0  0  0  0  0  0  0  0  0  0  0  0
   -8.8752   -8.0374   -4.9644 C   0  0  0  0  0  0  0  0  0  0  0  0
   -9.7655   -7.3872   -5.9196 C   0  0  0  0  0  0  0  0  0  0  0  0
   -9.5445   -7.1427   -7.0853 O   0  0  0  0  0  0  0  0  0  0  0  0
   -7.6016   -8.4708   -5.1654 C   0  0  0  0  0  0  0  0  0  0  0  0
   -6.9349   -8.3180   -6.4301 C   0  0  0  0  0  0  0  0  0  0  0  0
   -5.6114   -8.4776   -6.5536 C   0  0  0  0  0  0  0  0  0  0  0  0
   -4.7443   -8.8529   -5.3934 C   0  0  0  0  0  0  0  0  0  0  0  0
   -5.5556   -9.7485   -4.4427 C   0  0  0  0  0  0  0  0  0  0  0  0
   -6.8411   -9.0541   -4.0109 C   0  0  0  0  0  0  0  0  0  0  0  0
   -4.2627   -7.6162   -4.6919 C   0  0  0  0  0  0  0  0  0  0  0  0
   -2.6841   -7.6118   -3.9477 S   0  0  0  0  0  0  0  0  0  0  0  0
   -2.9303   -6.0032   -3.3478 C   0  0  0  0  0  0  0  0  0  0  0  0
   -2.0293   -5.2425   -2.5880 C   0  0  0  0  0  0  0  0  0  0  0  0
   -0.4293   -5.7749   -2.1220 S   0  0  0  0  0  0  0  0  0  0  0  0
   -0.1782   -4.2698   -1.3225 C   0  0  0  0  0  0  0  0  0  0  0  0
    0.8146   -3.6311   -0.5631 C   0  0  0  0  0  0  0  0  0  0  0  0
    2.0573   -4.1016   -0.0876 C   0  0  0  0  0  0  0  0  0  0  0  0
    2.8325   -3.2538    0.7700 C   0  0  0  0  0  0  0  0  0  0  0  0
    3.9450   -3.8360    1.1880 N   0  0  0  0  0  0  0  0  0  0  0  0
    4.0128   -5.3248    0.5527 S   0  0  0  0  0  0  0  0  0  0  0  0
    2.6250   -5.2819   -0.2806 N   0  0  0  0  0  0  0  0  0  0  0  0
    2.3850   -1.9350    1.0005 C   0  0  0  0  0  0  0  0  0  0  0  0
    3.0204   -0.8510    1.6202 C   0  0  0  0  0  0  0  0  0  0  0  0
    4.4712   -0.5330    2.4873 S   0  0  0  0  0  0  0  0  0  0  0  0
    4.0350    1.1613    2.5597 C   0  0  0  0  0  0  0  0  0  0  0  0
    4.8139    2.1444    3.1800 C   0  0  0  0  0  0  0  0  0  0  0  0
    4.4306    3.5015    3.2081 C   0  0  0  0  0  0  0  0  0  0  0  0
    3.2178    3.8280    2.5537 C   0  0  0  0  0  0  0  0  0  0  0  0
    2.6107    5.0009    2.3730 N   0  0  0  0  0  0  0  0  0  0  0  0
    1.5447    4.7126    1.6760 N   0  0  0  0  0  0  0  0  0  0  0  0
    0.5870    5.7137    1.3050 C   0  0  0  0  0  0  0  0  0  0  0  0
   -0.5867    5.7211    2.2800 C   0  0  0  0  0  0  0  0  0  0  0  0
    1.3741    3.4502    1.3709 N   0  0  0  0  0  0  0  0  0  0  0  0
    2.4250    2.8274    1.9160 C   0  0  0  0  0  0  0  0  0  0  0  0
    2.8108    1.4616    1.9242 C   0  0  0  0  0  0  0  0  0  0  0  0
    2.2302    0.2816    1.4064 C   0  0  0  0  0  0  0  0  0  0  0  0
    1.1094   -0.0818    0.7047 N   0  0  0  0  0  0  0  0  0  0  0  0
    1.1653   -1.4395    0.4590 C   0  0  0  0  0  0  0  0  0  0  0  0
    0.3078   -2.3459   -0.2280 C   0  0  0  0  0  0  0  0  0  0  0  0
   -0.9816   -2.2375   -0.7361 N   0  0  0  0  0  0  0  0  0  0  0  0
   -1.2666   -3.4053   -1.4032 C   0  0  0  0  0  0  0  0  0  0  0  0
   -2.3500   -3.9472   -2.1375 C   0  0  0  0  0  0  0  0  0  0  0  0
   -3.6233   -3.4462   -2.5023 C   0  0  0  0  0  0  0  0  0  0  0  0
   -4.5290   -4.2229   -3.2853 C   0  0  0  0  0  0  0  0  0  0  0  0
   -4.1881   -5.5208   -3.7226 C   0  0  0  0  0  0  0  0  0  0  0  0
   -4.9275   -6.4497   -4.4915 C   0  0  0  0  0  0  0  0  0  0  0  0
   -5.6347   -3.4961   -3.4668 N   0  0  0  0  0  0  0  0  0  0  0  0
   -5.3923   -2.3750   -2.8426 N   0  0  0  0  0  0  0  0  0  0  0  0
   -6.3689   -1.3282   -2.7554 C   0  0  0  0  0  0  0  0  0  0  0  0
   -7.1603   -1.4407   -1.4554 C   0  0  0  0  0  0  0  0  0  0  0  0
   -4.2263   -2.2775   -2.2523 N   0  0  0  0  0  0  0  0  0  0  0  0
   -2.0864   -1.4806   -0.1851 C   0  0  0  0  0  0  0  0  0  0  0  0
   -2.4920   -2.0390    1.1788 C   0  0  0  0  0  0  0  0  0  0  0  0
    0.1884    0.9064    0.1997 C   0  0  0  0  0  0  0  0  0  0  0  0
   -0.8251    1.3326    1.2635 C   0  0  0  0  0  0  0  0  0  0  0  0
    5.3400    4.3216    3.8801 C   0  0  0  0  0  0  0  0  0  0  0  0
    6.4305    3.6324    4.3707 C   0  0  0  0  0  0  0  0  0  0  0  0
    6.3167    1.9097    3.9914 S   0  0  0  0  0  0  0  0  0  0  0  0
    7.5834    4.0288    5.0803 C   0  0  0  0  0  0  0  0  0  0  0  0
    8.0086    5.2513    5.5229 C   0  0  0  0  0  0  0  0  0  0  0  0
    7.3564    6.5734    5.3753 C   0  0  0  0  0  0  0  0  0  0  0  0
    6.2677    6.8403    4.9075 O   0  0  0  0  0  0  0  0  0  0  0  0
    8.3033    7.5581    5.9293 C   0  0  0  0  0  0  0  0  0  0  0  0
    8.1274    8.9394    5.9737 C   0  0  0  0  0  0  0  0  0  0  0  0
    9.1838    9.6199    6.5277 C   0  0  0  0  0  0  0  0  0  0  0  0
   10.3319    8.9721    7.0037 C   0  0  0  0  0  0  0  0  0  0  0  0
   10.5125    7.6102    6.9748 C   0  0  0  0  0  0  0  0  0  0  0  0
    9.4472    6.8974    6.4147 C   0  0  0  0  0  0  0  0  0  0  0  0
    9.2722    5.4606    6.2163 C   0  0  0  0  0  0  0  0  0  0  0  0
   10.1512    4.5017    6.6498 C   0  0  0  0  0  0  0  0  0  0  0  0
   10.0056    3.1023    6.5334 C   0  0  0  0  0  0  0  0  0  0  0  0
    9.9897    1.9537    6.5101 N   0  0  0  0  0  0  0  0  0  0  0  0
   11.3629    4.7736    7.3208 C   0  0  0  0  0  0  0  0  0  0  0  0
   12.3639    4.9055    7.8681 N   0  0  0  0  0  0  0  0  0  0  0  0
   10.9938   10.2670    7.4026 C   0  0  0  0  0  0  0  0  0  0  0  0
   12.1043   10.8229    6.4769 C   0  0  0  0  0  0  0  0  0  0  0  0
   11.8130   10.2990    5.0926 C   0  0  0  0  0  0  0  0  0  0  0  0
   10.7256   10.9141    4.6472 C   0  0  0  0  0  0  0  0  0  0  0  0
   10.2614   11.8645    5.7230 C   0  0  0  0  0  0  0  0  0  0  0  0
   11.6150   12.2723    6.3262 C   0  0  0  0  0  0  0  0  0  0  0  0
    9.7131   10.9885    6.8767 C   0  0  0  0  0  0  0  0  0  0  0  0
  -13.7729   -6.9329   -7.2074 H   0  0  0  0  0  0  0  0  0  0  0  0
  -13.5529   -7.8940   -5.7483 H   0  0  0  0  0  0  0  0  0  0  0  0
  -12.5542   -8.2122   -7.1774 H   0  0  0  0  0  0  0  0  0  0  0  0
  -11.4892   -5.9857   -6.9731 H   0  0  0  0  0  0  0  0  0  0  0  0
  -12.4775   -5.6245   -5.5340 H   0  0  0  0  0  0  0  0  0  0  0  0
   -7.5366   -8.0180   -7.2733 H   0  0  0  0  0  0  0  0  0  0  0  0
   -5.1270   -8.3015   -7.5019 H   0  0  0  0  0  0  0  0  0  0  0  0
   -3.8694   -9.4089   -5.7447 H   0  0  0  0  0  0  0  0  0  0  0  0
   -5.7989  -10.6727   -4.9706 H   0  0  0  0  0  0  0  0  0  0  0  0
   -4.9582  -10.0013   -3.5659 H   0  0  0  0  0  0  0  0  0  0  0  0
   -7.4830   -9.7559   -3.4707 H   0  0  0  0  0  0  0  0  0  0  0  0
   -6.6070   -8.2414   -3.3151 H   0  0  0  0  0  0  0  0  0  0  0  0
    0.2394    5.4891    0.2940 H   0  0  0  0  0  0  0  0  0  0  0  0
    1.1059    6.6732    1.3194 H   0  0  0  0  0  0  0  0  0  0  0  0
   -1.0821    4.7531    2.2781 H   0  0  0  0  0  0  0  0  0  0  0  0
   -1.3037    6.4833    1.9889 H   0  0  0  0  0  0  0  0  0  0  0  0
   -0.2369    5.9361    3.2866 H   0  0  0  0  0  0  0  0  0  0  0  0
   -5.9059   -6.2297   -4.8775 H   0  0  0  0  0  0  0  0  0  0  0  0
   -5.8404   -0.3733   -2.7978 H   0  0  0  0  0  0  0  0  0  0  0  0
   -7.0292   -1.4296   -3.6183 H   0  0  0  0  0  0  0  0  0  0  0  0
   -7.6808   -2.3944   -1.4133 H   0  0  0  0  0  0  0  0  0  0  0  0
   -6.4907   -1.3685   -0.6017 H   0  0  0  0  0  0  0  0  0  0  0  0
   -7.8919   -0.6401   -1.3971 H   0  0  0  0  0  0  0  0  0  0  0  0
   -2.9182   -1.5762   -0.8861 H   0  0  0  0  0  0  0  0  0  0  0  0
   -1.8372   -0.4305   -0.0968 H   0  0  0  0  0  0  0  0  0  0  0  0
   -3.3225   -1.4659    1.5827 H   0  0  0  0  0  0  0  0  0  0  0  0
   -1.6586   -1.9935    1.8782 H   0  0  0  0  0  0  0  0  0  0  0  0
   -2.8009   -3.0777    1.0847 H   0  0  0  0  0  0  0  0  0  0  0  0
   -0.2850    0.5137   -0.7014 H   0  0  0  0  0  0  0  0  0  0  0  0
    0.7700    1.7880   -0.0817 H   0  0  0  0  0  0  0  0  0  0  0  0
   -1.2636    0.4763    1.7682 H   0  0  0  0  0  0  0  0  0  0  0  0
   -0.3223    1.9447    2.0059 H   0  0  0  0  0  0  0  0  0  0  0  0
   -1.6152    1.9249    0.8096 H   0  0  0  0  0  0  0  0  0  0  0  0
    5.2052    5.3804    4.0021 H   0  0  0  0  0  0  0  0  0  0  0  0
    8.2462    3.1968    5.2875 H   0  0  0  0  0  0  0  0  0  0  0  0
    7.2260    9.3938    5.5929 H   0  0  0  0  0  0  0  0  0  0  0  0
   11.4023    7.1322    7.3478 H   0  0  0  0  0  0  0  0  0  0  0  0
   11.2427   10.3714    8.4568 H   0  0  0  0  0  0  0  0  0  0  0  0
   13.1156   10.6708    6.8443 H   0  0  0  0  0  0  0  0  0  0  0  0
   12.3763    9.5173    4.6175 H   0  0  0  0  0  0  0  0  0  0  0  0
   10.1986   10.7488    3.7257 H   0  0  0  0  0  0  0  0  0  0  0  0
    9.5946   12.6617    5.4048 H   0  0  0  0  0  0  0  0  0  0  0  0
   12.2254   12.8534    5.6365 H   0  0  0  0  0  0  0  0  0  0  0  0
   11.5262   12.8011    7.2742 H   0  0  0  0  0  0  0  0  0  0  0  0
    9.1228   11.5616    7.5892 H   0  0  0  0  0  0  0  0  0  0  0  0
  1  2  1  0  0  0  0
  2  3  1  0  0  0  0
  3  4  1  0  0  0  0
  4  5  2  0  0  0  0
  5  6  1  0  0  0  0
  6  7  3  0  0  0  0
  5  8  1  0  0  0  0
  8  9  3  0  0  0  0
  4 10  1  0  0  0  0
 10 11  1  0  0  0  0
 11 12  1  0  0  0  0
 12 13  2  0  0  0  0
 11 14  2  0  0  0  0
 14 15  1  0  0  0  0
 15 16  2  0  0  0  0
 16 17  1  0  0  0  0
 17 18  1  0  0  0  0
 18 19  1  0  0  0  0
 17 20  1  0  0  0  0
 20 21  1  0  0  0  0
 21 22  1  0  0  0  0
 22 23  1  0  0  0  0
 23 24  1  0  0  0  0
 24 25  1  0  0  0  0
 25 26  1  0  0  0  0
 26 27  1  0  0  0  0
 27 28  1  0  0  0  0
 28 29  2  0  0  0  0
 29 30  1  0  0  0  0
 30 31  1  0  0  0  0
 28 32  1  0  0  0  0
 32 33  1  0  0  0  0
 33 34  1  0  0  0  0
 34 35  1  0  0  0  0
 35 36  1  0  0  0  0
 36 37  2  0  0  0  0
 37 38  1  0  0  0  0
 38 39  2  0  0  0  0
 39 40  1  0  0  0  0
 40 41  1  0  0  0  0
 41 42  1  0  0  0  0
 40 43  1  0  0  0  0
 43 44  2  0  0  0  0
 44 45  1  0  0  0  0
 45 46  1  0  0  0  0
 46 47  1  0  0  0  0
 47 48  1  0  0  0  0
 48 49  1  0  0  0  0
 49 50  1  0  0  0  0
 50 51  1  0  0  0  0
 51 52  1  0  0  0  0
 52 53  1  0  0  0  0
 53 54  1  0  0  0  0
 54 55  1  0  0  0  0
 55 56  1  0  0  0  0
 54 57  2  0  0  0  0
 57 58  1  0  0  0  0
 58 59  1  0  0  0  0
 59 60  1  0  0  0  0
 58 61  1  0  0  0  0
 50 62  1  0  0  0  0
 62 63  1  0  0  0  0
 47 64  1  0  0  0  0
 64 65  1  0  0  0  0
 37 66  1  0  0  0  0
 66 67  2  0  0  0  0
 67 68  1  0  0  0  0
 67 69  1  0  0  0  0
 69 70  2  0  0  0  0
 70 71  1  0  0  0  0
 71 72  2  0  0  0  0
 71 73  1  0  0  0  0
 73 74  2  0  0  0  0
 74 75  1  0  0  0  0
 75 76  2  0  0  0  0
 76 77  1  0  0  0  0
 77 78  2  0  0  0  0
 78 79  1  0  0  0  0
 79 80  2  0  0  0  0
 80 81  1  0  0  0  0
 81 82  3  0  0  0  0
 80 83  1  0  0  0  0
 83 84  3  0  0  0  0
 76 85  1  0  0  0  0
 85 86  1  0  0  0  0
 86 87  1  0  0  0  0
 87 88  2  0  0  0  0
 88 89  1  0  0  0  0
 89 90  1  0  0  0  0
 89 91  1  0  0  0  0
 12  3  1  0  0  0  0
 19 14  1  0  0  0  0
 56 20  2  0  0  0  0
 79 70  1  0  0  0  0
 91 85  1  0  0  0  0
 55 22  2  0  0  0  0
 78 73  1  0  0  0  0
 90 86  1  0  0  0  0
 52 23  2  0  0  0  0
 61 53  2  0  0  0  0
 91 75  1  0  0  0  0
 51 25  2  0  0  0  0
 49 26  2  0  0  0  0
 31 27  2  0  0  0  0
 48 32  2  0  0  0  0
 46 33  2  0  0  0  0
 45 35  2  0  0  0  0
 68 36  1  0  0  0  0
 44 38  1  0  0  0  0
  1 92  1  0  0  0  0
  1 93  1  0  0  0  0
  1 94  1  0  0  0  0
  2 95  1  0  0  0  0
  2 96  1  0  0  0  0
 15 97  1  0  0  0  0
 16 98  1  0  0  0  0
 17 99  1  0  0  0  0
 18100  1  0  0  0  0
 18101  1  0  0  0  0
 19102  1  0  0  0  0
 19103  1  0  0  0  0
 41104  1  0  0  0  0
 41105  1  0  0  0  0
 42106  1  0  0  0  0
 42107  1  0  0  0  0
 42108  1  0  0  0  0
 56109  1  0  0  0  0
 59110  1  0  0  0  0
 59111  1  0  0  0  0
 60112  1  0  0  0  0
 60113  1  0  0  0  0
 60114  1  0  0  0  0
 62115  1  0  0  0  0
 62116  1  0  0  0  0
 63117  1  0  0  0  0
 63118  1  0  0  0  0
 63119  1  0  0  0  0
 64120  1  0  0  0  0
 64121  1  0  0  0  0
 65122  1  0  0  0  0
 65123  1  0  0  0  0
 65124  1  0  0  0  0
 66125  1  0  0  0  0
 69126  1  0  0  0  0
 74127  1  0  0  0  0
 77128  1  0  0  0  0
 85129  1  0  0  0  0
 86130  1  0  0  0  0
 87131  1  0  0  0  0
 88132  1  0  0  0  0
 89133  1  0  0  0  0
 90134  1  0  0  0  0
 90135  1  0  0  0  0
 91136  1  0  0  0  0
M  END
