116

C          4.06560       -0.48910        3.05760
C          3.37980       -1.34220        1.99950
N          4.05610       -1.24280        0.71230
C          4.99170       -2.22940        0.43340
O          5.21840       -3.10190        1.24780
C          5.58210       -2.18180       -0.90480
C          5.42040       -0.97550       -1.71650
O          6.08150       -0.72190       -2.70260
N          4.42880       -0.09560       -1.29910
C          4.17310        1.04500       -2.17100
C          5.02000        2.24600       -1.77470
C          3.74040       -0.21320       -0.12970
S          2.57050        0.87950        0.27710
C          6.12080       -3.32790       -1.41030
C          6.29450       -4.54070       -0.62140
C          5.66530       -5.63030       -1.05620
C          4.79020       -5.44820       -2.26710
C          5.71480       -4.85020       -3.34570
C          6.41850       -3.56290       -2.85910
C          3.63620       -4.52740       -1.95760
C          2.80280       -4.55960       -0.86640
C          2.88990       -5.57080        0.23780
C          2.24030       -6.90410       -0.13220
C          1.89050       -3.47360       -0.89810
C          2.08050       -2.62110       -1.98320
S          3.30200       -3.18870       -3.04490
C          1.17540       -1.54910       -1.87120
C          0.85710       -0.44030       -2.67870
N          1.36200        0.01530       -3.82810
N          0.61650        1.05360       -4.11460
C          0.81610        1.81700       -5.31200
C         -0.14410        1.36050       -6.40620
N         -0.34280        1.33870       -3.27030
C         -0.22990        0.40960       -2.31970
C         -0.91050        0.20260       -1.10340
C         -1.95090        0.86660       -0.43690
S         -3.04990        2.15070       -0.68950
C         -3.71630        1.89510        0.93400
C         -3.16200        0.78800        1.58260
C         -3.77820        0.12060        2.77000
C         -4.30560       -1.26330        2.38140
C         -2.13270        0.24250        0.80980
N         -1.22250       -0.79060        0.94670
C         -0.63520       -1.07090        2.24720
C         -0.10400        0.20120        2.90790
C         -0.49870       -0.84360       -0.23650
C          0.45500       -1.78000       -0.67650
N          0.87510       -2.97730       -0.09190
C         -0.09470       -3.88160        0.50240
C         -0.91360       -4.59480       -0.57400
C         -4.68110        2.80890        1.37960
C         -4.85330        3.23330        2.67760
C         -3.81250        3.16110        3.72030
O         -2.76740        2.53960        3.70700
C         -4.25670        4.09280        4.78050
C         -3.60100        4.42760        5.93910
C         -4.21790        5.34670        6.79560
C         -3.74940        5.85210        8.03980
C         -4.61700        6.73510        8.58740
Br        -4.39970        7.64210       10.21550
S         -6.05150        7.00890        7.63490
C         -5.47390        5.88880        6.43780
C         -6.13770        5.55050        5.26410
C         -5.51450        4.64150        4.43170
C         -5.91990        4.08320        3.14700
C         -7.13860        4.25530        2.53800
C         -7.53150        3.58410        1.36220
N         -7.92580        3.04230        0.42930
C         -8.16360        5.07740        3.04350
N         -9.02750        5.73860        3.41230
H          5.10180       -0.79690        3.17490
H          3.55510       -0.60990        4.00860
H          4.03380        0.56080        2.77670
H          3.41050       -2.39520        2.28540
H          2.34790       -1.02130        1.86110
H          3.11140        1.28550       -2.11100
H          4.41620        0.72420       -3.18510
H          6.07620        1.99400       -1.82970
H          4.77940        2.56310       -0.76230
H          4.82070        3.07040       -2.45300
H          6.92120       -4.51930        0.25420
H          5.77220       -6.60060       -0.59920
H          4.40580       -6.41190       -2.61970
H          6.45250       -5.60820       -3.61190
H          5.13010       -4.62320       -4.23700
H          6.12060       -2.70350       -3.45570
H          7.50000       -3.66950       -2.96590
H          2.41950       -5.16410        1.13370
H          3.94080       -5.73440        0.47800
H          1.17850       -6.77910       -0.33000
H          2.70570       -7.32070       -1.02190
H          2.35630       -7.61500        0.68240
H          0.64130        2.86760       -5.07000
H          1.85260        1.66830       -5.62000
H          0.01160        1.95040       -7.30480
H          0.02410        0.31210       -6.64070
H         -1.17170        1.48750       -6.07490
H         -4.60980        0.72100        3.13710
H         -3.04890        0.03530        3.57730
H         -3.51790       -1.88750        1.96710
H         -5.08910       -1.16610        1.63310
H         -4.72290       -1.76080        3.25370
H          0.19410       -1.76480        2.10540
H         -1.38620       -1.54170        2.88880
H          0.39550       -0.05560        3.83870
H          0.61050        0.69340        2.25150
H         -0.90460        0.90310        3.12400
H          0.43350       -4.60980        1.11910
H         -0.77420       -3.31430        1.13570
H         -0.26320       -5.14200       -1.25250
H         -1.60850       -5.29130       -0.11230
H         -1.47950       -3.86890       -1.15440
H         -5.26640        3.29180        0.60540
H         -2.64170        3.99630        6.17880
H         -2.81620        5.56870        8.49130
H         -7.09030        5.99520        5.02880
