87

C          3.13620        6.17430       -9.69720
C          1.68460        6.33640       -9.26730
N          1.56640        6.38360       -7.81340
C          1.28400        5.18380       -7.17360
O          1.25490        4.15830       -7.82510
C          1.01720        5.28120       -5.73130
C          1.60990        6.42670       -5.02630
O          1.84240        6.45880       -3.83450
N          1.90040        7.53750       -5.80990
C          2.32280        8.74050       -5.09990
C          1.12960        9.61270       -4.73360
C          1.79230        7.56710       -7.16940
S          1.98230        8.97510       -8.00770
C          0.25320        4.35600       -5.06340
C         -0.09060        4.49300       -3.66900
C         -0.72930        3.54110       -2.97930
C         -1.10390        2.20630       -3.54930
C         -0.30150        1.95360       -4.82370
C         -0.38740        3.17710       -5.73370
C         -0.95970        1.11950       -2.52880
S         -1.94270        1.21660       -1.07550
C         -1.25520       -0.25550       -0.49620
C         -1.30530       -1.14090        0.58390
S         -2.11490       -1.35960        2.10450
C         -1.22960       -2.84620        2.34270
C         -0.35370       -3.14790        1.29550
C         -0.39480       -2.17520        0.28820
N          0.18810       -1.95310       -0.92800
C         -0.31910       -0.77510       -1.40560
C         -0.15910        0.01870       -2.56010
C          1.22680       -2.75600       -1.52050
C          2.60990       -2.33710       -1.02780
S          0.53640       -4.63010        1.53290
C         -0.27570       -4.85400        3.05430
C         -0.33620       -5.75100        4.11790
C         -1.28770       -5.23000        5.03290
N         -1.80880       -4.06110        4.53960
C         -2.73110       -3.18200        5.21320
C         -1.99880       -2.18290        6.10520
C         -1.18950       -3.81790        3.34980
C         -1.46770       -6.01680        6.16380
C         -0.66560       -7.14780        6.13620
S          0.33120       -7.23120        4.67600
C         -0.54680       -8.19430        7.07070
C         -1.19990       -8.34200        8.26100
C         -2.13750       -7.43640        8.77910
N         -2.90670       -6.69730        9.20710
C         -0.90710       -9.54420        9.07370
O         -0.13860      -10.41410        8.74010
O         -1.59130       -9.53380       10.22310
C         -1.41600      -10.65000       11.09290
C         -2.32910      -11.80410       10.70370
H          3.54950        5.25750       -9.28360
H          3.18970        6.12530      -10.78070
H          3.73030        7.01950       -9.35750
H          1.26480        7.25900       -9.67130
H          1.09570        5.48210       -9.60470
H          2.83780        8.40730       -4.19720
H          3.01460        9.28910       -5.74030
H          0.43990        9.06080       -4.09940
H          1.47450       10.48990       -4.19430
H          0.60760        9.93810       -5.63010
H          0.18650        5.40530       -3.16550
H         -1.00330        3.71250       -1.94800
H         -2.17300        2.27020       -3.81290
H          0.74470        1.77930       -4.56670
H         -0.68240        1.07560       -5.34640
H          0.08430        2.96340       -6.68840
H         -1.44070        3.41760       -5.91450
H          0.50840       -0.21740       -3.36730
H          1.16200       -2.64870       -2.60610
H          1.04040       -3.80120       -1.25780
H          3.37230       -2.95190       -1.49720
H          2.79950       -1.29410       -1.27090
H          2.67760       -2.46220        0.05010
H         -3.30940       -2.65070        4.45240
H         -3.40980       -3.79520        5.81110
H         -2.71620       -1.53730        6.60290
H         -1.32910       -1.56660        5.50990
H         -1.41650       -2.70630        6.85990
H         -2.13840       -5.79810        6.97300
H          0.14820       -8.98890        6.82350
H         -0.36810      -10.96670       11.05780
H         -1.65970      -10.27260       12.08810
H         -2.05800      -12.17680        9.71880
H         -3.36420      -11.47140       10.68410
H         -2.22660      -12.60920       11.42550
