184

C         -2.10910        3.81360        5.58930
C         -3.10890        4.74690        4.92030
N         -3.98210        4.01970        4.00430
C         -5.17030        3.54370        4.53640
O         -5.40790        3.72270        5.71690
C         -6.05550        2.81460        3.62510
C         -5.61070        2.55490        2.25690
O         -6.26740        1.95040        1.42840
N         -4.36020        3.05180        1.90390
C         -3.91080        2.80510        0.53610
C         -2.92710        1.64600        0.45460
C         -3.55290        3.77470        2.73320
S         -2.10030        4.35230        2.20680
C         -7.22940        2.29210        4.11790
C         -7.69950        2.58570        5.46030
C         -8.13990        1.58140        6.22050
C         -8.16760        0.21350        5.60680
C         -8.91960        0.42520        4.27420
C         -8.09330        1.33380        3.35590
C         -6.78310       -0.26920        5.28910
C         -5.60500        0.36930        5.53420
C         -4.54730       -0.17500        4.78490
S         -2.92750        0.36380        4.46020
C         -2.78140       -0.87310        3.25390
C         -1.81820       -1.19630        2.24690
C         -0.63110       -0.56320        1.89680
C          0.01640       -1.02070        0.77430
C          1.27000       -0.45900        0.11250
C          1.04210        1.01370       -0.13930
C          1.11980        1.94450        0.88990
C          0.85130        3.28300        0.66310
C          0.49070        3.73710       -0.59760
C          0.18590        5.17910       -0.90380
C          0.54630        6.16830        0.19640
C          0.38900        2.79890       -1.61880
C          0.64640        1.46150       -1.39160
C          2.49070       -0.79720        0.96550
C          2.62560       -2.09460        1.44950
C          3.72680       -2.46230        2.19670
C          4.72810       -1.54570        2.48850
C          5.94500       -1.95080        3.26920
C          7.07700       -2.35200        2.32250
C          4.59350       -0.25510        1.99980
C          3.49460        0.11560        1.24610
C          1.36960       -1.33900       -1.11760
C          0.41130       -2.34760       -1.03470
C         -0.47940       -2.13350        0.06050
C         -1.66040       -2.77860        0.42020
C         -2.33980       -2.28270        1.50840
C         -3.70590       -2.69040        2.03880
C         -4.72360       -2.56160        0.91970
C         -4.92690       -3.61940        0.04220
C         -5.82820       -3.50410       -0.99870
C         -6.55030       -2.33340       -1.19350
C         -7.49920       -2.19860       -2.34960
C         -6.76860       -1.65410       -3.57860
C         -6.33760       -1.27600       -0.32050
C         -5.43510       -1.38730        0.72050
C         -3.75210       -4.06710        2.67410
C         -4.98560       -4.59910        3.03190
C         -5.06490       -5.83180        3.64840
C         -3.91760       -6.56490        3.92590
C         -4.00610       -7.88760        4.63150
C         -3.99940       -7.68630        6.14820
C         -2.68850       -6.02220        3.57900
C         -2.60230       -4.78600        2.96320
C         -3.89840       -1.67260        3.13060
C         -4.91630       -1.26650        3.99740
S         -6.58770       -1.64220        4.21490
S          0.56880       -3.58730       -2.22390
C          1.92930       -2.74030       -2.86500
C          2.87290       -2.95790       -3.88990
C          3.75740       -1.87340       -3.92630
C          3.30050       -0.79530       -2.96610
C          2.21650       -1.53350       -2.20770
C          2.70340        0.23700       -3.92820
C          1.38730        0.15260       -4.36410
C          0.88380        1.06700       -5.27100
C          1.68370        2.07640       -5.78690
C          1.14110        3.04750       -6.79520
C          1.29600        2.49070       -8.21170
C          3.01420        2.12270       -5.39250
C          3.52100        1.21310       -4.48400
C          4.38430       -0.21980       -2.08910
C          5.49090       -0.98610       -1.75090
C          6.51700       -0.44450       -1.00050
C          6.46320        0.87230       -0.56460
C          7.61130        1.48520        0.18490
C          8.60350        2.12320       -0.78940
C          5.34040        1.62510       -0.88030
C          4.30630        1.08580       -1.62200
C          4.74330       -2.00230       -4.88510
C          4.64840       -3.20290       -5.58420
S          3.26880       -4.16030       -5.03950
C          5.46940       -3.73090       -6.59570
C          6.59700       -3.17980       -7.13790
C          7.14470       -1.94070       -6.77370
N          7.60560       -0.92550       -6.49370
C          7.31360       -3.94170       -8.18270
O          6.95430       -5.01260       -8.61320
O          8.41600       -3.30310       -8.58810
C          9.20000       -3.95440       -9.58540
C         10.46770       -3.14790       -9.79270
H         -2.63210        3.04010        6.14630
H         -1.47200        3.34180        4.84530
H         -1.48630        4.38060        6.27480
H         -3.75350        5.20660        5.67090
H         -2.59170        5.52110        4.35160
H         -3.44400        3.71920        0.16360
H         -4.80450        2.58180       -0.04880
H         -2.62480        1.50000       -0.57820
H         -3.38330        0.72740        0.81390
H         -2.03500        1.85350        1.03990
H         -7.63850        3.59700        5.82750
H         -8.48400        1.72820        7.23080
H         -8.70210       -0.50340        6.23650
H         -9.89130        0.87070        4.49520
H         -9.08610       -0.52990        3.77610
H         -8.74780        1.91000        2.69690
H         -7.46700        0.73300        2.69440
H         -5.50250        1.22120        6.18060
H         -0.26990        0.27280        2.47320
H          1.40000        1.63040        1.88470
H          0.91690        3.97110        1.49010
H         -0.88530        5.26080       -1.11390
H          0.71270        5.45140       -1.82360
H          0.35360        7.18360       -0.14350
H         -0.05460        5.98830        1.08410
H          1.59910        6.08870        0.45820
H          0.10160        3.11770       -2.61160
H          0.53940        0.76080       -2.20290
H          1.86060       -2.82950        1.24320
H          3.80740       -3.47660        2.56170
H          6.27760       -1.11830        3.89290
H          5.70410       -2.79230        3.92180
H          7.33720       -1.51570        1.67860
H          7.95890       -2.65060        2.88470
H          6.76630       -3.18270        1.69270
H          5.35930        0.47730        2.20990
H          3.42900        1.12530        0.87700
H         -2.03330       -3.61080       -0.15700
H         -4.38690       -4.54470        0.18430
H         -5.97710       -4.34000       -1.66790
H         -7.93200       -3.17190       -2.59000
H         -8.31100       -1.51860       -2.08390
H         -7.45280       -1.56050       -4.41890
H         -5.95780       -2.32120       -3.86290
H         -6.34580       -0.67550       -3.36270
H         -6.88040       -0.35030       -0.44460
H         -5.29850       -0.54370        1.38050
H         -5.88810       -4.04420        2.81820
H         -6.03230       -6.23270        3.91560
H         -3.15980       -8.51650        4.34820
H         -4.92560       -8.40040        4.34140
H         -3.08510       -7.18550        6.45880
H         -4.84460       -7.07250        6.45180
H         -4.06290       -8.64370        6.66020
H         -1.78330       -6.57360        3.79090
H         -1.63400       -4.38260        2.70510
H          0.74000       -0.63520       -4.00600
H         -0.14890        0.99080       -5.58120
H          1.67690        3.99580       -6.72080
H          0.08360        3.23490       -6.59640
H          0.90800        3.19620       -8.94290
H          0.75360        1.55310       -8.31120
H          2.34460        2.30310       -8.43110
H          3.66680        2.87920       -5.80370
H          4.56240        1.26580       -4.20510
H          5.55870       -2.01020       -2.08850
H          7.37870       -1.05250       -0.76490
H          8.12650        0.72030        0.77020
H          7.24070        2.24980        0.87130
H          8.11410        2.90120       -1.37080
H          9.43800        2.56500       -0.24940
H          8.99050        1.37560       -1.47790
H          5.27100        2.64900       -0.53980
H          3.43670        1.68670       -1.84640
H          5.51430       -1.27930       -5.07510
H          5.19020       -4.69820       -6.99820
H          9.42230       -4.97450       -9.25080
H          8.61290       -4.02130      -10.50890
H         11.02570       -3.08500       -8.86230
H         11.08490       -3.62360      -10.54930
H         10.21900       -2.14010      -10.11370
