
  xtb     02012216363D
 energy: -146.433459103864 gnorm: 0.000585516560 xtb: 6.4.1 (unknown)
 87 94  0     0  0            999 V2000
    3.1362    6.1743   -9.6972 C   0  0  0  0  0  0  0  0  0  0  0  0
    1.6846    6.3364   -9.2673 C   0  0  0  0  0  0  0  0  0  0  0  0
    1.5664    6.3836   -7.8134 N   0  0  0  0  0  0  0  0  0  0  0  0
    1.2840    5.1838   -7.1736 C   0  0  0  0  0  0  0  0  0  0  0  0
    1.2549    4.1583   -7.8251 O   0  0  0  0  0  0  0  0  0  0  0  0
    1.0172    5.2812   -5.7313 C   0  0  0  0  0  0  0  0  0  0  0  0
    1.6099    6.4267   -5.0263 C   0  0  0  0  0  0  0  0  0  0  0  0
    1.8424    6.4588   -3.8345 O   0  0  0  0  0  0  0  0  0  0  0  0
    1.9004    7.5375   -5.8099 N   0  0  0  0  0  0  0  0  0  0  0  0
    2.3228    8.7405   -5.0999 C   0  0  0  0  0  0  0  0  0  0  0  0
    1.1296    9.6127   -4.7336 C   0  0  0  0  0  0  0  0  0  0  0  0
    1.7923    7.5671   -7.1694 C   0  0  0  0  0  0  0  0  0  0  0  0
    1.9823    8.9751   -8.0077 S   0  0  0  0  0  0  0  0  0  0  0  0
    0.2532    4.3560   -5.0634 C   0  0  0  0  0  0  0  0  0  0  0  0
   -0.0906    4.4930   -3.6690 C   0  0  0  0  0  0  0  0  0  0  0  0
   -0.7293    3.5411   -2.9793 C   0  0  0  0  0  0  0  0  0  0  0  0
   -1.1039    2.2063   -3.5493 C   0  0  0  0  0  0  0  0  0  0  0  0
   -0.3015    1.9536   -4.8237 C   0  0  0  0  0  0  0  0  0  0  0  0
   -0.3874    3.1771   -5.7337 C   0  0  0  0  0  0  0  0  0  0  0  0
   -0.9597    1.1195   -2.5288 C   0  0  0  0  0  0  0  0  0  0  0  0
   -1.9427    1.2166   -1.0755 S   0  0  0  0  0  0  0  0  0  0  0  0
   -1.2552   -0.2555   -0.4962 C   0  0  0  0  0  0  0  0  0  0  0  0
   -1.3053   -1.1409    0.5839 C   0  0  0  0  0  0  0  0  0  0  0  0
   -2.1149   -1.3596    2.1045 S   0  0  0  0  0  0  0  0  0  0  0  0
   -1.2296   -2.8462    2.3427 C   0  0  0  0  0  0  0  0  0  0  0  0
   -0.3537   -3.1479    1.2955 C   0  0  0  0  0  0  0  0  0  0  0  0
   -0.3948   -2.1752    0.2882 C   0  0  0  0  0  0  0  0  0  0  0  0
    0.1881   -1.9531   -0.9280 N   0  0  0  0  0  0  0  0  0  0  0  0
   -0.3191   -0.7751   -1.4056 C   0  0  0  0  0  0  0  0  0  0  0  0
   -0.1591    0.0187   -2.5601 C   0  0  0  0  0  0  0  0  0  0  0  0
    1.2268   -2.7560   -1.5205 C   0  0  0  0  0  0  0  0  0  0  0  0
    2.6099   -2.3371   -1.0278 C   0  0  0  0  0  0  0  0  0  0  0  0
    0.5364   -4.6301    1.5329 S   0  0  0  0  0  0  0  0  0  0  0  0
   -0.2757   -4.8540    3.0543 C   0  0  0  0  0  0  0  0  0  0  0  0
   -0.3362   -5.7510    4.1179 C   0  0  0  0  0  0  0  0  0  0  0  0
   -1.2877   -5.2300    5.0329 C   0  0  0  0  0  0  0  0  0  0  0  0
   -1.8088   -4.0611    4.5396 N   0  0  0  0  0  0  0  0  0  0  0  0
   -2.7311   -3.1820    5.2132 C   0  0  0  0  0  0  0  0  0  0  0  0
   -1.9988   -2.1829    6.1052 C   0  0  0  0  0  0  0  0  0  0  0  0
   -1.1895   -3.8179    3.3498 C   0  0  0  0  0  0  0  0  0  0  0  0
   -1.4677   -6.0168    6.1638 C   0  0  0  0  0  0  0  0  0  0  0  0
   -0.6656   -7.1478    6.1362 C   0  0  0  0  0  0  0  0  0  0  0  0
    0.3312   -7.2312    4.6760 S   0  0  0  0  0  0  0  0  0  0  0  0
   -0.5468   -8.1943    7.0707 C   0  0  0  0  0  0  0  0  0  0  0  0
   -1.1999   -8.3420    8.2610 C   0  0  0  0  0  0  0  0  0  0  0  0
   -2.1375   -7.4364    8.7791 C   0  0  0  0  0  0  0  0  0  0  0  0
   -2.9067   -6.6973    9.2071 N   0  0  0  0  0  0  0  0  0  0  0  0
   -0.9071   -9.5442    9.0737 C   0  0  0  0  0  0  0  0  0  0  0  0
   -0.1386  -10.4141    8.7401 O   0  0  0  0  0  0  0  0  0  0  0  0
   -1.5913   -9.5338   10.2231 O   0  0  0  0  0  0  0  0  0  0  0  0
   -1.4160  -10.6500   11.0929 C   0  0  0  0  0  0  0  0  0  0  0  0
   -2.3291  -11.8041   10.7037 C   0  0  0  0  0  0  0  0  0  0  0  0
    3.5495    5.2575   -9.2836 H   0  0  0  0  0  0  0  0  0  0  0  0
    3.1897    6.1253  -10.7807 H   0  0  0  0  0  0  0  0  0  0  0  0
    3.7303    7.0195   -9.3575 H   0  0  0  0  0  0  0  0  0  0  0  0
    1.2648    7.2590   -9.6713 H   0  0  0  0  0  0  0  0  0  0  0  0
    1.0957    5.4821   -9.6047 H   0  0  0  0  0  0  0  0  0  0  0  0
    2.8378    8.4073   -4.1972 H   0  0  0  0  0  0  0  0  0  0  0  0
    3.0146    9.2891   -5.7403 H   0  0  0  0  0  0  0  0  0  0  0  0
    0.4399    9.0608   -4.0994 H   0  0  0  0  0  0  0  0  0  0  0  0
    1.4745   10.4899   -4.1943 H   0  0  0  0  0  0  0  0  0  0  0  0
    0.6076    9.9381   -5.6301 H   0  0  0  0  0  0  0  0  0  0  0  0
    0.1865    5.4053   -3.1655 H   0  0  0  0  0  0  0  0  0  0  0  0
   -1.0033    3.7125   -1.9480 H   0  0  0  0  0  0  0  0  0  0  0  0
   -2.1730    2.2702   -3.8129 H   0  0  0  0  0  0  0  0  0  0  0  0
    0.7447    1.7793   -4.5667 H   0  0  0  0  0  0  0  0  0  0  0  0
   -0.6824    1.0756   -5.3464 H   0  0  0  0  0  0  0  0  0  0  0  0
    0.0843    2.9634   -6.6884 H   0  0  0  0  0  0  0  0  0  0  0  0
   -1.4407    3.4176   -5.9145 H   0  0  0  0  0  0  0  0  0  0  0  0
    0.5084   -0.2174   -3.3673 H   0  0  0  0  0  0  0  0  0  0  0  0
    1.1620   -2.6487   -2.6061 H   0  0  0  0  0  0  0  0  0  0  0  0
    1.0404   -3.8012   -1.2578 H   0  0  0  0  0  0  0  0  0  0  0  0
    3.3723   -2.9519   -1.4972 H   0  0  0  0  0  0  0  0  0  0  0  0
    2.7995   -1.2941   -1.2709 H   0  0  0  0  0  0  0  0  0  0  0  0
    2.6776   -2.4622    0.0501 H   0  0  0  0  0  0  0  0  0  0  0  0
   -3.3094   -2.6507    4.4524 H   0  0  0  0  0  0  0  0  0  0  0  0
   -3.4098   -3.7952    5.8111 H   0  0  0  0  0  0  0  0  0  0  0  0
   -2.7162   -1.5373    6.6029 H   0  0  0  0  0  0  0  0  0  0  0  0
   -1.3291   -1.5666    5.5099 H   0  0  0  0  0  0  0  0  0  0  0  0
   -1.4165   -2.7063    6.8599 H   0  0  0  0  0  0  0  0  0  0  0  0
   -2.1384   -5.7981    6.9730 H   0  0  0  0  0  0  0  0  0  0  0  0
    0.1482   -8.9889    6.8235 H   0  0  0  0  0  0  0  0  0  0  0  0
   -0.3681  -10.9667   11.0578 H   0  0  0  0  0  0  0  0  0  0  0  0
   -1.6597  -10.2726   12.0881 H   0  0  0  0  0  0  0  0  0  0  0  0
   -2.0580  -12.1768    9.7188 H   0  0  0  0  0  0  0  0  0  0  0  0
   -3.3642  -11.4714   10.6841 H   0  0  0  0  0  0  0  0  0  0  0  0
   -2.2266  -12.6092   11.4255 H   0  0  0  0  0  0  0  0  0  0  0  0
  1  2  1  0  0  0  0
  2  3  1  0  0  0  0
  3  4  1  0  0  0  0
  4  5  2  0  0  0  0
  4  6  1  0  0  0  0
  6  7  1  0  0  0  0
  7  8  2  0  0  0  0
  7  9  1  0  0  0  0
  9 10  1  0  0  0  0
 10 11  1  0  0  0  0
  9 12  1  0  0  0  0
 12 13  2  0  0  0  0
  6 14  2  0  0  0  0
 14 15  1  0  0  0  0
 15 16  2  0  0  0  0
 16 17  1  0  0  0  0
 17 18  1  0  0  0  0
 18 19  1  0  0  0  0
 17 20  1  0  0  0  0
 20 21  1  0  0  0  0
 21 22  1  0  0  0  0
 22 23  1  0  0  0  0
 23 24  1  0  0  0  0
 24 25  1  0  0  0  0
 25 26  2  0  0  0  0
 26 27  1  0  0  0  0
 27 28  1  0  0  0  0
 28 29  1  0  0  0  0
 29 30  1  0  0  0  0
 28 31  1  0  0  0  0
 31 32  1  0  0  0  0
 26 33  1  0  0  0  0
 33 34  1  0  0  0  0
 34 35  1  0  0  0  0
 35 36  2  0  0  0  0
 36 37  1  0  0  0  0
 37 38  1  0  0  0  0
 38 39  1  0  0  0  0
 37 40  1  0  0  0  0
 36 41  1  0  0  0  0
 41 42  2  0  0  0  0
 42 43  1  0  0  0  0
 42 44  1  0  0  0  0
 44 45  2  0  0  0  0
 45 46  1  0  0  0  0
 46 47  3  0  0  0  0
 45 48  1  0  0  0  0
 48 49  2  0  0  0  0
 48 50  1  0  0  0  0
 50 51  1  0  0  0  0
 51 52  1  0  0  0  0
 12  3  1  0  0  0  0
 19 14  1  0  0  0  0
 30 20  2  0  0  0  0
 40 34  2  0  0  0  0
 29 22  2  0  0  0  0
 43 35  1  0  0  0  0
 27 23  2  0  0  0  0
 40 25  1  0  0  0  0
  1 53  1  0  0  0  0
  1 54  1  0  0  0  0
  1 55  1  0  0  0  0
  2 56  1  0  0  0  0
  2 57  1  0  0  0  0
 10 58  1  0  0  0  0
 10 59  1  0  0  0  0
 11 60  1  0  0  0  0
 11 61  1  0  0  0  0
 11 62  1  0  0  0  0
 15 63  1  0  0  0  0
 16 64  1  0  0  0  0
 17 65  1  0  0  0  0
 18 66  1  0  0  0  0
 18 67  1  0  0  0  0
 19 68  1  0  0  0  0
 19 69  1  0  0  0  0
 30 70  1  0  0  0  0
 31 71  1  0  0  0  0
 31 72  1  0  0  0  0
 32 73  1  0  0  0  0
 32 74  1  0  0  0  0
 32 75  1  0  0  0  0
 38 76  1  0  0  0  0
 38 77  1  0  0  0  0
 39 78  1  0  0  0  0
 39 79  1  0  0  0  0
 39 80  1  0  0  0  0
 41 81  1  0  0  0  0
 44 82  1  0  0  0  0
 51 83  1  0  0  0  0
 51 84  1  0  0  0  0
 52 85  1  0  0  0  0
 52 86  1  0  0  0  0
 52 87  1  0  0  0  0
M  END
