
  xtb     01262218433D
 energy: -212.324476756402 gnorm: 0.000269113150 xtb: 6.4.1 (unknown)
134145  0     0  0            999 V2000
   -0.1844    4.2749   -2.2288 C   0  0  0  0  0  0  0  0  0  0  0  0
   -0.5934    4.5303   -3.6726 C   0  0  0  0  0  0  0  0  0  0  0  0
   -1.5146    3.5048   -4.1528 N   0  0  0  0  0  0  0  0  0  0  0  0
   -2.8637    3.7309   -3.8923 C   0  0  0  0  0  0  0  0  0  0  0  0
   -3.1788    4.7588   -3.3251 O   0  0  0  0  0  0  0  0  0  0  0  0
   -3.7950    2.6760   -4.3025 C   0  0  0  0  0  0  0  0  0  0  0  0
   -3.2759    1.5293   -5.0478 C   0  0  0  0  0  0  0  0  0  0  0  0
   -3.9690    0.6445   -5.5157 O   0  0  0  0  0  0  0  0  0  0  0  0
   -1.8985    1.4728   -5.2367 N   0  0  0  0  0  0  0  0  0  0  0  0
   -1.3910    0.3284   -5.9857 C   0  0  0  0  0  0  0  0  0  0  0  0
   -1.0127   -0.8254   -5.0671 C   0  0  0  0  0  0  0  0  0  0  0  0
   -1.0134    2.3860   -4.7456 C   0  0  0  0  0  0  0  0  0  0  0  0
    0.6148    2.1467   -4.8856 S   0  0  0  0  0  0  0  0  0  0  0  0
   -5.1270    2.7275   -3.9398 C   0  0  0  0  0  0  0  0  0  0  0  0
   -5.6990    3.8729   -3.2734 C   0  0  0  0  0  0  0  0  0  0  0  0
   -6.6871    3.7400   -2.3818 C   0  0  0  0  0  0  0  0  0  0  0  0
   -7.2731    2.3969   -2.0795 C   0  0  0  0  0  0  0  0  0  0  0  0
   -7.3870    1.6722   -3.4331 C   0  0  0  0  0  0  0  0  0  0  0  0
   -6.0450    1.5643   -4.1563 C   0  0  0  0  0  0  0  0  0  0  0  0
   -6.4541    1.6451   -1.0726 C   0  0  0  0  0  0  0  0  0  0  0  0
   -6.8862    0.9501    0.0227 C   0  0  0  0  0  0  0  0  0  0  0  0
   -8.3038    0.7710    0.4680 C   0  0  0  0  0  0  0  0  0  0  0  0
   -8.9199   -0.4800   -0.1594 C   0  0  0  0  0  0  0  0  0  0  0  0
   -5.8049    0.3368    0.7007 C   0  0  0  0  0  0  0  0  0  0  0  0
   -5.7097   -0.6728    2.1247 S   0  0  0  0  0  0  0  0  0  0  0  0
   -3.9917   -0.7914    1.9062 C   0  0  0  0  0  0  0  0  0  0  0  0
   -2.8678   -1.3681    2.5243 C   0  0  0  0  0  0  0  0  0  0  0  0
   -2.6742   -2.0398    3.7480 C   0  0  0  0  0  0  0  0  0  0  0  0
   -1.3570   -2.3808    4.1692 C   0  0  0  0  0  0  0  0  0  0  0  0
   -1.4517   -2.9382    5.3781 N   0  0  0  0  0  0  0  0  0  0  0  0
   -2.7366   -2.9237    5.6369 N   0  0  0  0  0  0  0  0  0  0  0  0
   -3.2580   -3.3982    6.8854 C   0  0  0  0  0  0  0  0  0  0  0  0
   -3.3699   -2.2547    7.8899 C   0  0  0  0  0  0  0  0  0  0  0  0
   -3.5148   -2.4064    4.7175 N   0  0  0  0  0  0  0  0  0  0  0  0
   -0.2674   -2.1752    3.2991 C   0  0  0  0  0  0  0  0  0  0  0  0
    1.0890   -2.5493    3.3487 C   0  0  0  0  0  0  0  0  0  0  0  0
    2.2205   -3.2965    4.4316 S   0  0  0  0  0  0  0  0  0  0  0  0
    3.4525   -3.1863    3.1968 C   0  0  0  0  0  0  0  0  0  0  0  0
    4.8164   -3.5639    3.1557 C   0  0  0  0  0  0  0  0  0  0  0  0
    5.4912   -4.2408    4.3078 C   0  0  0  0  0  0  0  0  0  0  0  0
    5.1714   -5.7364    4.3141 C   0  0  0  0  0  0  0  0  0  0  0  0
    5.3749   -3.2851    1.9407 C   0  0  0  0  0  0  0  0  0  0  0  0
    4.2441   -2.5214    0.8376 S   0  0  0  0  0  0  0  0  0  0  0  0
    2.9905   -2.6051    2.0223 C   0  0  0  0  0  0  0  0  0  0  0  0
    1.6422   -2.2330    2.1093 C   0  0  0  0  0  0  0  0  0  0  0  0
    0.7082   -1.6382    1.3016 N   0  0  0  0  0  0  0  0  0  0  0  0
   -0.4777   -1.5838    2.0257 C   0  0  0  0  0  0  0  0  0  0  0  0
   -1.7499   -1.0501    1.7051 C   0  0  0  0  0  0  0  0  0  0  0  0
   -2.1760   -0.2453    0.6627 N   0  0  0  0  0  0  0  0  0  0  0  0
   -3.5294   -0.0959    0.7885 C   0  0  0  0  0  0  0  0  0  0  0  0
   -4.5652    0.5677    0.1165 C   0  0  0  0  0  0  0  0  0  0  0  0
   -4.7126    1.5919   -1.2629 S   0  0  0  0  0  0  0  0  0  0  0  0
   -1.4139    0.6646   -0.1624 C   0  0  0  0  0  0  0  0  0  0  0  0
   -1.4845    0.3155   -1.6478 C   0  0  0  0  0  0  0  0  0  0  0  0
    0.8624   -1.7533   -0.1333 C   0  0  0  0  0  0  0  0  0  0  0  0
    0.0870   -2.9500   -0.6780 C   0  0  0  0  0  0  0  0  0  0  0  0
    6.8091   -3.4679    1.5186 C   0  0  0  0  0  0  0  0  0  0  0  0
    7.5260   -2.2249    1.9615 C   0  0  0  0  0  0  0  0  0  0  0  0
    7.5041   -1.1295    1.2021 C   0  0  0  0  0  0  0  0  0  0  0  0
    6.9362   -1.2114   -0.1303 C   0  0  0  0  0  0  0  0  0  0  0  0
    6.0385   -0.3085   -0.6232 C   0  0  0  0  0  0  0  0  0  0  0  0
    5.4898   -0.4121   -1.9783 C   0  0  0  0  0  0  0  0  0  0  0  0
    6.0385   -0.9775   -2.9022 O   0  0  0  0  0  0  0  0  0  0  0  0
    4.2496    0.1867   -2.1722 N   0  0  0  0  0  0  0  0  0  0  0  0
    3.6366    0.0071   -3.4849 C   0  0  0  0  0  0  0  0  0  0  0  0
    2.8051   -1.2666   -3.5481 C   0  0  0  0  0  0  0  0  0  0  0  0
    3.5763    0.8682   -1.2041 C   0  0  0  0  0  0  0  0  0  0  0  0
    2.0003    1.3047   -1.4195 S   0  0  0  0  0  0  0  0  0  0  0  0
    4.2450    1.2104   -0.0675 N   0  0  0  0  0  0  0  0  0  0  0  0
    5.5037    0.7247    0.2722 C   0  0  0  0  0  0  0  0  0  0  0  0
    6.0480    1.1164    1.2822 O   0  0  0  0  0  0  0  0  0  0  0  0
    3.5951    2.0617    0.9226 C   0  0  0  0  0  0  0  0  0  0  0  0
    2.8239    1.2300    1.9391 C   0  0  0  0  0  0  0  0  0  0  0  0
    7.3615   -2.4676   -0.8201 C   0  0  0  0  0  0  0  0  0  0  0  0
    6.9549   -3.7079    0.0016 C   0  0  0  0  0  0  0  0  0  0  0  0
   -1.0639    4.2528   -1.5901 H   0  0  0  0  0  0  0  0  0  0  0  0
    0.4729    5.0716   -1.8931 H   0  0  0  0  0  0  0  0  0  0  0  0
    0.3436    3.3284   -2.1414 H   0  0  0  0  0  0  0  0  0  0  0  0
   -1.1161    5.4853   -3.7495 H   0  0  0  0  0  0  0  0  0  0  0  0
    0.2804    4.5335   -4.3252 H   0  0  0  0  0  0  0  0  0  0  0  0
   -0.5228    0.6588   -6.5582 H   0  0  0  0  0  0  0  0  0  0  0  0
   -2.1881    0.0206   -6.6646 H   0  0  0  0  0  0  0  0  0  0  0  0
   -0.2241   -0.5205   -4.3845 H   0  0  0  0  0  0  0  0  0  0  0  0
   -1.8790   -1.1472   -4.4950 H   0  0  0  0  0  0  0  0  0  0  0  0
   -0.6567   -1.6597   -5.6646 H   0  0  0  0  0  0  0  0  0  0  0  0
   -5.2624    4.8400   -3.4594 H   0  0  0  0  0  0  0  0  0  0  0  0
   -7.0701    4.5981   -1.8508 H   0  0  0  0  0  0  0  0  0  0  0  0
   -8.2776    2.5169   -1.6618 H   0  0  0  0  0  0  0  0  0  0  0  0
   -7.7940    0.6706   -3.2893 H   0  0  0  0  0  0  0  0  0  0  0  0
   -8.0924    2.2393   -4.0449 H   0  0  0  0  0  0  0  0  0  0  0  0
   -5.5260    0.6514   -3.8550 H   0  0  0  0  0  0  0  0  0  0  0  0
   -6.2135    1.4522   -5.2305 H   0  0  0  0  0  0  0  0  0  0  0  0
   -8.9014    1.6466    0.2072 H   0  0  0  0  0  0  0  0  0  0  0  0
   -8.3092    0.6646    1.5547 H   0  0  0  0  0  0  0  0  0  0  0  0
   -8.3305   -1.3564    0.0988 H   0  0  0  0  0  0  0  0  0  0  0  0
   -9.9337   -0.6246    0.2054 H   0  0  0  0  0  0  0  0  0  0  0  0
   -8.9501   -0.3899   -1.2431 H   0  0  0  0  0  0  0  0  0  0  0  0
   -4.2415   -3.8308    6.6907 H   0  0  0  0  0  0  0  0  0  0  0  0
   -2.5740   -4.1657    7.2528 H   0  0  0  0  0  0  0  0  0  0  0  0
   -2.3912   -1.8146    8.0655 H   0  0  0  0  0  0  0  0  0  0  0  0
   -4.0374   -1.4870    7.5063 H   0  0  0  0  0  0  0  0  0  0  0  0
   -3.7633   -2.6252    8.8323 H   0  0  0  0  0  0  0  0  0  0  0  0
    6.5704   -4.0915    4.2604 H   0  0  0  0  0  0  0  0  0  0  0  0
    5.1239   -3.7926    5.2333 H   0  0  0  0  0  0  0  0  0  0  0  0
    4.0976   -5.8892    4.3887 H   0  0  0  0  0  0  0  0  0  0  0  0
    5.5241   -6.2066    3.3983 H   0  0  0  0  0  0  0  0  0  0  0  0
    5.6502   -6.2210    5.1613 H   0  0  0  0  0  0  0  0  0  0  0  0
   -0.3839    0.6856    0.1929 H   0  0  0  0  0  0  0  0  0  0  0  0
   -1.8249    1.6711   -0.0214 H   0  0  0  0  0  0  0  0  0  0  0  0
   -2.4653    0.5565   -2.0499 H   0  0  0  0  0  0  0  0  0  0  0  0
   -0.7358    0.8909   -2.1851 H   0  0  0  0  0  0  0  0  0  0  0  0
   -1.3019   -0.7425   -1.8129 H   0  0  0  0  0  0  0  0  0  0  0  0
    1.9312   -1.8921   -0.3189 H   0  0  0  0  0  0  0  0  0  0  0  0
    0.5562   -0.8397   -0.6366 H   0  0  0  0  0  0  0  0  0  0  0  0
    0.2413   -3.0383   -1.7505 H   0  0  0  0  0  0  0  0  0  0  0  0
   -0.9769   -2.8362   -0.4812 H   0  0  0  0  0  0  0  0  0  0  0  0
    0.4265   -3.8668   -0.2004 H   0  0  0  0  0  0  0  0  0  0  0  0
    7.2028   -4.3343    2.0586 H   0  0  0  0  0  0  0  0  0  0  0  0
    7.9475   -2.2136    2.9547 H   0  0  0  0  0  0  0  0  0  0  0  0
    7.8953   -0.1870    1.5473 H   0  0  0  0  0  0  0  0  0  0  0  0
    3.0135    0.8766   -3.7009 H   0  0  0  0  0  0  0  0  0  0  0  0
    4.4547   -0.0460   -4.2051 H   0  0  0  0  0  0  0  0  0  0  0  0
    2.4105   -1.3840   -4.5528 H   0  0  0  0  0  0  0  0  0  0  0  0
    3.4189   -2.1311   -3.3065 H   0  0  0  0  0  0  0  0  0  0  0  0
    1.9744   -1.2120   -2.8494 H   0  0  0  0  0  0  0  0  0  0  0  0
    2.9276    2.7481    0.3995 H   0  0  0  0  0  0  0  0  0  0  0  0
    4.3867    2.6233    1.4217 H   0  0  0  0  0  0  0  0  0  0  0  0
    2.3637    1.8844    2.6735 H   0  0  0  0  0  0  0  0  0  0  0  0
    2.0440    0.6539    1.4475 H   0  0  0  0  0  0  0  0  0  0  0  0
    3.4964    0.5466    2.4525 H   0  0  0  0  0  0  0  0  0  0  0  0
    8.4505   -2.4331   -0.9030 H   0  0  0  0  0  0  0  0  0  0  0  0
    6.9523   -2.5341   -1.8247 H   0  0  0  0  0  0  0  0  0  0  0  0
    7.7024   -4.4844   -0.1622 H   0  0  0  0  0  0  0  0  0  0  0  0
    6.0040   -4.0836   -0.3802 H   0  0  0  0  0  0  0  0  0  0  0  0
  1  2  1  0  0  0  0
  2  3  1  0  0  0  0
  3  4  1  0  0  0  0
  4  5  2  0  0  0  0
  4  6  1  0  0  0  0
  6  7  1  0  0  0  0
  7  8  2  0  0  0  0
  7  9  1  0  0  0  0
  9 10  1  0  0  0  0
 10 11  1  0  0  0  0
  9 12  1  0  0  0  0
 12 13  2  0  0  0  0
  6 14  2  0  0  0  0
 14 15  1  0  0  0  0
 15 16  2  0  0  0  0
 16 17  1  0  0  0  0
 17 18  1  0  0  0  0
 18 19  1  0  0  0  0
 17 20  1  0  0  0  0
 20 21  2  0  0  0  0
 21 22  1  0  0  0  0
 22 23  1  0  0  0  0
 21 24  1  0  0  0  0
 24 25  1  0  0  0  0
 25 26  1  0  0  0  0
 26 27  1  0  0  0  0
 27 28  1  0  0  0  0
 28 29  1  0  0  0  0
 29 30  2  0  0  0  0
 30 31  1  0  0  0  0
 31 32  1  0  0  0  0
 32 33  1  0  0  0  0
 31 34  1  0  0  0  0
 29 35  1  0  0  0  0
 35 36  1  0  0  0  0
 36 37  1  0  0  0  0
 37 38  1  0  0  0  0
 38 39  1  0  0  0  0
 39 40  1  0  0  0  0
 40 41  1  0  0  0  0
 39 42  2  0  0  0  0
 42 43  1  0  0  0  0
 43 44  1  0  0  0  0
 44 45  1  0  0  0  0
 45 46  1  0  0  0  0
 46 47  1  0  0  0  0
 47 48  1  0  0  0  0
 48 49  1  0  0  0  0
 49 50  1  0  0  0  0
 50 51  1  0  0  0  0
 51 52  1  0  0  0  0
 49 53  1  0  0  0  0
 53 54  1  0  0  0  0
 46 55  1  0  0  0  0
 55 56  1  0  0  0  0
 42 57  1  0  0  0  0
 57 58  1  0  0  0  0
 58 59  2  0  0  0  0
 59 60  1  0  0  0  0
 60 61  2  0  0  0  0
 61 62  1  0  0  0  0
 62 63  2  0  0  0  0
 62 64  1  0  0  0  0
 64 65  1  0  0  0  0
 65 66  1  0  0  0  0
 64 67  1  0  0  0  0
 67 68  2  0  0  0  0
 67 69  1  0  0  0  0
 69 70  1  0  0  0  0
 70 71  2  0  0  0  0
 69 72  1  0  0  0  0
 72 73  1  0  0  0  0
 60 74  1  0  0  0  0
 74 75  1  0  0  0  0
 12  3  1  0  0  0  0
 19 14  1  0  0  0  0
 52 20  1  0  0  0  0
 75 57  1  0  0  0  0
 51 24  2  0  0  0  0
 70 61  1  0  0  0  0
 50 26  2  0  0  0  0
 48 27  2  0  0  0  0
 34 28  2  0  0  0  0
 47 35  2  0  0  0  0
 45 36  2  0  0  0  0
 44 38  2  0  0  0  0
  1 76  1  0  0  0  0
  1 77  1  0  0  0  0
  1 78  1  0  0  0  0
  2 79  1  0  0  0  0
  2 80  1  0  0  0  0
 10 81  1  0  0  0  0
 10 82  1  0  0  0  0
 11 83  1  0  0  0  0
 11 84  1  0  0  0  0
 11 85  1  0  0  0  0
 15 86  1  0  0  0  0
 16 87  1  0  0  0  0
 17 88  1  0  0  0  0
 18 89  1  0  0  0  0
 18 90  1  0  0  0  0
 19 91  1  0  0  0  0
 19 92  1  0  0  0  0
 22 93  1  0  0  0  0
 22 94  1  0  0  0  0
 23 95  1  0  0  0  0
 23 96  1  0  0  0  0
 23 97  1  0  0  0  0
 32 98  1  0  0  0  0
 32 99  1  0  0  0  0
 33100  1  0  0  0  0
 33101  1  0  0  0  0
 33102  1  0  0  0  0
 40103  1  0  0  0  0
 40104  1  0  0  0  0
 41105  1  0  0  0  0
 41106  1  0  0  0  0
 41107  1  0  0  0  0
 53108  1  0  0  0  0
 53109  1  0  0  0  0
 54110  1  0  0  0  0
 54111  1  0  0  0  0
 54112  1  0  0  0  0
 55113  1  0  0  0  0
 55114  1  0  0  0  0
 56115  1  0  0  0  0
 56116  1  0  0  0  0
 56117  1  0  0  0  0
 57118  1  0  0  0  0
 58119  1  0  0  0  0
 59120  1  0  0  0  0
 65121  1  0  0  0  0
 65122  1  0  0  0  0
 66123  1  0  0  0  0
 66124  1  0  0  0  0
 66125  1  0  0  0  0
 72126  1  0  0  0  0
 72127  1  0  0  0  0
 73128  1  0  0  0  0
 73129  1  0  0  0  0
 73130  1  0  0  0  0
 74131  1  0  0  0  0
 74132  1  0  0  0  0
 75133  1  0  0  0  0
 75134  1  0  0  0  0
M  END
