134

C         -0.18440        4.27490       -2.22880
C         -0.59340        4.53030       -3.67260
N         -1.51460        3.50480       -4.15280
C         -2.86370        3.73090       -3.89230
O         -3.17880        4.75880       -3.32510
C         -3.79500        2.67600       -4.30250
C         -3.27590        1.52930       -5.04780
O         -3.96900        0.64450       -5.51570
N         -1.89850        1.47280       -5.23670
C         -1.39100        0.32840       -5.98570
C         -1.01270       -0.82540       -5.06710
C         -1.01340        2.38600       -4.74560
S          0.61480        2.14670       -4.88560
C         -5.12700        2.72750       -3.93980
C         -5.69900        3.87290       -3.27340
C         -6.68710        3.74000       -2.38180
C         -7.27310        2.39690       -2.07950
C         -7.38700        1.67220       -3.43310
C         -6.04500        1.56430       -4.15630
C         -6.45410        1.64510       -1.07260
C         -6.88620        0.95010        0.02270
C         -8.30380        0.77100        0.46800
C         -8.91990       -0.48000       -0.15940
C         -5.80490        0.33680        0.70070
S         -5.70970       -0.67280        2.12470
C         -3.99170       -0.79140        1.90620
C         -2.86780       -1.36810        2.52430
C         -2.67420       -2.03980        3.74800
C         -1.35700       -2.38080        4.16920
N         -1.45170       -2.93820        5.37810
N         -2.73660       -2.92370        5.63690
C         -3.25800       -3.39820        6.88540
C         -3.36990       -2.25470        7.88990
N         -3.51480       -2.40640        4.71750
C         -0.26740       -2.17520        3.29910
C          1.08900       -2.54930        3.34870
S          2.22050       -3.29650        4.43160
C          3.45250       -3.18630        3.19680
C          4.81640       -3.56390        3.15570
C          5.49120       -4.24080        4.30780
C          5.17140       -5.73640        4.31410
C          5.37490       -3.28510        1.94070
S          4.24410       -2.52140        0.83760
C          2.99050       -2.60510        2.02230
C          1.64220       -2.23300        2.10930
N          0.70820       -1.63820        1.30160
C         -0.47770       -1.58380        2.02570
C         -1.74990       -1.05010        1.70510
N         -2.17600       -0.24530        0.66270
C         -3.52940       -0.09590        0.78850
C         -4.56520        0.56770        0.11650
S         -4.71260        1.59190       -1.26290
C         -1.41390        0.66460       -0.16240
C         -1.48450        0.31550       -1.64780
C          0.86240       -1.75330       -0.13330
C          0.08700       -2.95000       -0.67800
C          6.80910       -3.46790        1.51860
C          7.52600       -2.22490        1.96150
C          7.50410       -1.12950        1.20210
C          6.93620       -1.21140       -0.13030
C          6.03850       -0.30850       -0.62320
C          5.48980       -0.41210       -1.97830
O          6.03850       -0.97750       -2.90220
N          4.24960        0.18670       -2.17220
C          3.63660        0.00710       -3.48490
C          2.80510       -1.26660       -3.54810
C          3.57630        0.86820       -1.20410
S          2.00030        1.30470       -1.41950
N          4.24500        1.21040       -0.06750
C          5.50370        0.72470        0.27220
O          6.04800        1.11640        1.28220
C          3.59510        2.06170        0.92260
C          2.82390        1.23000        1.93910
C          7.36150       -2.46760       -0.82010
C          6.95490       -3.70790        0.00160
H         -1.06390        4.25280       -1.59010
H          0.47290        5.07160       -1.89310
H          0.34360        3.32840       -2.14140
H         -1.11610        5.48530       -3.74950
H          0.28040        4.53350       -4.32520
H         -0.52280        0.65880       -6.55820
H         -2.18810        0.02060       -6.66460
H         -0.22410       -0.52050       -4.38450
H         -1.87900       -1.14720       -4.49500
H         -0.65670       -1.65970       -5.66460
H         -5.26240        4.84000       -3.45940
H         -7.07010        4.59810       -1.85080
H         -8.27760        2.51690       -1.66180
H         -7.79400        0.67060       -3.28930
H         -8.09240        2.23930       -4.04490
H         -5.52600        0.65140       -3.85500
H         -6.21350        1.45220       -5.23050
H         -8.90140        1.64660        0.20720
H         -8.30920        0.66460        1.55470
H         -8.33050       -1.35640        0.09880
H         -9.93370       -0.62460        0.20540
H         -8.95010       -0.38990       -1.24310
H         -4.24150       -3.83080        6.69070
H         -2.57400       -4.16570        7.25280
H         -2.39120       -1.81460        8.06550
H         -4.03740       -1.48700        7.50630
H         -3.76330       -2.62520        8.83230
H          6.57040       -4.09150        4.26040
H          5.12390       -3.79260        5.23330
H          4.09760       -5.88920        4.38870
H          5.52410       -6.20660        3.39830
H          5.65020       -6.22100        5.16130
H         -0.38390        0.68560        0.19290
H         -1.82490        1.67110       -0.02140
H         -2.46530        0.55650       -2.04990
H         -0.73580        0.89090       -2.18510
H         -1.30190       -0.74250       -1.81290
H          1.93120       -1.89210       -0.31890
H          0.55620       -0.83970       -0.63660
H          0.24130       -3.03830       -1.75050
H         -0.97690       -2.83620       -0.48120
H          0.42650       -3.86680       -0.20040
H          7.20280       -4.33430        2.05860
H          7.94750       -2.21360        2.95470
H          7.89530       -0.18700        1.54730
H          3.01350        0.87660       -3.70090
H          4.45470       -0.04600       -4.20510
H          2.41050       -1.38400       -4.55280
H          3.41890       -2.13110       -3.30650
H          1.97440       -1.21200       -2.84940
H          2.92760        2.74810        0.39950
H          4.38670        2.62330        1.42170
H          2.36370        1.88440        2.67350
H          2.04400        0.65390        1.44750
H          3.49640        0.54660        2.45250
H          8.45050       -2.43310       -0.90300
H          6.95230       -2.53410       -1.82470
H          7.70240       -4.48440       -0.16220
H          6.00400       -4.08360       -0.38020
