120

C          7.94150        2.45020        2.97430
C          6.94560        1.78850        2.03130
N          5.60080        2.32300        2.22140
C          4.79080        1.66260        3.13780
O          5.17600        0.61720        3.62560
C          3.51350        2.31100        3.45320
C          3.00490        3.31400        2.51320
O          1.86220        3.73020        2.50030
N          3.91970        3.81950        1.59680
C          3.44010        4.88640        0.72410
C          3.64110        6.25730        1.35540
C          5.22370        3.42850        1.51560
S          6.29770        4.23810        0.55940
C          2.79630        1.98310        4.58380
C          3.28370        1.03530        5.55540
C          2.47460        0.43580        6.43810
C          1.01260        0.74860        6.48420
C          0.88480        2.25660        6.22700
C          1.46110        2.60200        4.85960
C          0.26080       -0.03300        5.44530
C         -1.07910       -0.00470        5.19800
C         -1.41700       -0.81450        4.09760
S         -2.90120       -1.11410        3.24320
C         -2.03840       -2.09460        2.07360
C         -2.61290       -2.68260        0.95570
C         -4.03670       -2.62220        0.66600
C         -4.86160       -3.68440        0.44000
C         -6.17860       -3.27340        0.15750
F         -7.16350       -4.15660       -0.09380
C         -6.38230       -1.92660        0.15720
C         -7.64560       -1.19270       -0.13140
C         -7.43470       -0.10790       -1.18480
S         -4.89800       -1.11850        0.52810
C         -1.75260       -3.37980        0.09520
C         -0.38490       -3.55220        0.41780
C          0.17550       -3.01920        1.57130
C          1.55380       -3.26330        1.96220
S          2.88820       -2.95850        0.89020
C          4.04140       -3.47690        2.07140
C          5.50790       -3.44030        1.81800
C          6.00380       -2.00390        1.65030
C          3.39110       -3.85380        3.20760
C          1.98780       -3.73970        3.16440
F          4.03570       -4.31610        4.29460
C         -0.66250       -2.23670        2.38010
C         -0.33900       -1.47210        3.53220
S          1.12960       -1.07070        4.34590
S          0.48220       -4.49170       -0.78360
C         -0.95280       -4.58420       -1.76310
C         -1.22540       -5.09800       -3.04560
C         -2.50990       -4.84050       -3.42270
S         -3.41350       -3.98380       -2.20260
C         -2.03590       -3.96480       -1.16630
C         -3.18530       -5.17030       -4.72390
C         -4.51480       -4.48630       -4.80440
C         -4.58350       -3.18370       -5.10510
C         -3.40130       -2.40050       -5.36890
C         -3.38700       -1.02990       -5.22750
C         -4.51150       -0.32280       -4.60750
O         -5.38350       -0.86280       -3.95310
N         -4.54860        1.05270       -4.79380
C         -5.68630        1.76840       -4.22530
C         -5.32200        2.40050       -2.88870
C         -3.57120        1.77210       -5.42060
S         -3.76980        3.37870       -5.74300
N         -2.41550        1.12780       -5.74970
C         -2.22560       -0.24650       -5.65340
O         -1.14510       -0.71810       -5.95220
C         -1.29990        1.89800       -6.29010
C         -1.38680        2.01430       -7.80570
C         -2.18220       -3.14710       -5.81300
C         -2.37510       -4.65540       -5.92150
H          8.92610        2.01860        2.82060
H          7.99640        3.51880        2.78130
H          7.64620        2.28900        4.00850
H          6.89110        0.71790        2.23050
H          7.23440        1.95570        0.99280
H          2.37720        4.70180        0.55890
H          3.97980        4.81820       -0.22140
H          3.26150        7.02280        0.68520
H          3.10290        6.31930        2.29820
H          4.69760        6.44250        1.53300
H          4.32640        0.76420        5.52070
H          2.86310       -0.30340        7.12160
H          0.60260        0.50580        7.47120
H          1.42960        2.78830        7.01030
H         -0.15970        2.56510        6.26670
H          1.52230        3.68590        4.74180
H          0.77590        2.26390        4.07590
H         -1.78960        0.56910        5.76370
H         -4.55730       -4.71340        0.49170
H         -8.38350       -1.91940       -0.47850
H         -8.02600       -0.73790        0.78890
H         -6.97670       -0.53150       -2.07550
H         -8.38580        0.34390       -1.45530
H         -6.78030        0.66680       -0.79220
H          6.01120       -3.90980        2.66580
H          5.74090       -4.01410        0.91680
H          7.08280       -1.99510        1.51650
H          5.53930       -1.54630        0.77880
H          5.74970       -1.41530        2.52910
H          1.34330       -4.02390        3.97550
H         -0.50460       -5.61730       -3.64950
H         -3.30780       -6.25700       -4.79780
H         -5.40710       -5.05310       -4.58980
H         -5.53820       -2.68260       -5.11280
H         -5.99960        2.53300       -4.93820
H         -6.48490        1.03780       -4.09280
H         -6.20240        2.86770       -2.45780
H         -4.55600        3.16060       -3.02250
H         -4.95250        1.64210       -2.20250
H         -0.38760        1.37080       -6.00560
H         -1.31610        2.88680       -5.82960
H         -0.53630        2.58000       -8.17420
H         -2.29960        2.52920       -8.09550
H         -1.37350        1.02620       -8.25970
H         -1.38600       -2.92940       -5.09490
H         -1.83000       -2.74100       -6.76420
H         -1.40070       -5.14090       -5.96600
H         -2.92060       -4.90260       -6.83490
