
  xtb     01212213053D
 energy: -182.002882295595 gnorm: 0.000244434217 xtb: 6.4.1 (unknown)
112121  0     0  0            999 V2000
    9.6218   -7.4480    1.8844 C   0  0  0  0  0  0  0  0  0  0  0  0
   10.0243   -6.3511    2.8611 C   0  0  0  0  0  0  0  0  0  0  0  0
    9.5524   -5.0433    2.4184 N   0  0  0  0  0  0  0  0  0  0  0  0
    8.2888   -4.6603    2.8511 C   0  0  0  0  0  0  0  0  0  0  0  0
    7.6897   -5.3648    3.6410 O   0  0  0  0  0  0  0  0  0  0  0  0
    7.7609   -3.4148    2.2848 C   0  0  0  0  0  0  0  0  0  0  0  0
    8.7318   -2.4681    1.7195 C   0  0  0  0  0  0  0  0  0  0  0  0
    8.5340   -1.2809    1.5538 O   0  0  0  0  0  0  0  0  0  0  0  0
    9.9571   -3.0094    1.3459 N   0  0  0  0  0  0  0  0  0  0  0  0
   10.8670   -2.1225    0.6277 C   0  0  0  0  0  0  0  0  0  0  0  0
   10.6489   -2.2062   -0.8770 C   0  0  0  0  0  0  0  0  0  0  0  0
   10.3385   -4.2964    1.5900 C   0  0  0  0  0  0  0  0  0  0  0  0
   11.7297   -4.9115    0.9511 S   0  0  0  0  0  0  0  0  0  0  0  0
    6.4076   -3.1582    2.2932 C   0  0  0  0  0  0  0  0  0  0  0  0
    5.8502   -1.9548    1.7288 C   0  0  0  0  0  0  0  0  0  0  0  0
    4.5630   -1.6147    1.8661 C   0  0  0  0  0  0  0  0  0  0  0  0
    3.5580   -2.4923    2.5497 C   0  0  0  0  0  0  0  0  0  0  0  0
    4.0091   -3.9394    2.3624 C   0  0  0  0  0  0  0  0  0  0  0  0
    5.4265   -4.1163    2.8948 C   0  0  0  0  0  0  0  0  0  0  0  0
    2.1808   -2.2274    2.0274 C   0  0  0  0  0  0  0  0  0  0  0  0
    1.3926   -0.7337    2.4367 S   0  0  0  0  0  0  0  0  0  0  0  0
    0.0236   -1.1578    1.4654 C   0  0  0  0  0  0  0  0  0  0  0  0
   -1.1081   -0.3216    1.1900 C   0  0  0  0  0  0  0  0  0  0  0  0
   -1.9033   -0.7274    0.0946 C   0  0  0  0  0  0  0  0  0  0  0  0
   -1.6448   -1.8570   -0.6093 O   0  0  0  0  0  0  0  0  0  0  0  0
   -0.9474   -2.9341    0.0388 C   0  0  0  0  0  0  0  0  0  0  0  0
   -1.9575   -3.6545    0.9620 C   0  0  0  0  0  0  0  0  0  0  0  0
   -1.3952   -4.8730    1.6801 C   0  0  0  0  0  0  0  0  0  0  0  0
   -0.4165   -3.8184   -1.0997 C   0  0  0  0  0  0  0  0  0  0  0  0
   -1.5113   -4.3480   -2.0183 C   0  0  0  0  0  0  0  0  0  0  0  0
    0.1807   -2.3856    0.8737 C   0  0  0  0  0  0  0  0  0  0  0  0
    1.4133   -2.9899    1.1979 C   0  0  0  0  0  0  0  0  0  0  0  0
   -2.9272    0.0937   -0.3334 C   0  0  0  0  0  0  0  0  0  0  0  0
   -3.2120    1.2819    0.3398 C   0  0  0  0  0  0  0  0  0  0  0  0
   -4.1997    2.2184   -0.0912 C   0  0  0  0  0  0  0  0  0  0  0  0
   -4.5459    3.3047    0.7029 C   0  0  0  0  0  0  0  0  0  0  0  0
   -3.9678    3.4311    2.0901 C   0  0  0  0  0  0  0  0  0  0  0  0
   -2.6926    2.7841    2.1749 O   0  0  0  0  0  0  0  0  0  0  0  0
   -2.4710    1.6445    1.4846 C   0  0  0  0  0  0  0  0  0  0  0  0
   -1.4070    0.8471    1.8783 C   0  0  0  0  0  0  0  0  0  0  0  0
   -3.7529    4.9192    2.4471 C   0  0  0  0  0  0  0  0  0  0  0  0
   -2.5621    5.1900    3.3607 C   0  0  0  0  0  0  0  0  0  0  0  0
   -4.9590    2.7098    3.0381 C   0  0  0  0  0  0  0  0  0  0  0  0
   -4.5416    2.6977    4.5022 C   0  0  0  0  0  0  0  0  0  0  0  0
   -5.4847    4.1167    0.0912 C   0  0  0  0  0  0  0  0  0  0  0  0
   -5.8577    3.6798   -1.1826 C   0  0  0  0  0  0  0  0  0  0  0  0
   -5.0130    2.2093   -1.6068 S   0  0  0  0  0  0  0  0  0  0  0  0
   -6.7780    4.3831   -1.9745 C   0  0  0  0  0  0  0  0  0  0  0  0
   -7.2262    4.1396   -3.2450 C   0  0  0  0  0  0  0  0  0  0  0  0
   -6.8347    3.0114   -4.1158 C   0  0  0  0  0  0  0  0  0  0  0  0
   -6.0809    2.0934   -3.8462 O   0  0  0  0  0  0  0  0  0  0  0  0
   -7.5511    3.2251   -5.3758 C   0  0  0  0  0  0  0  0  0  0  0  0
   -8.3171    4.3686   -5.2714 C   0  0  0  0  0  0  0  0  0  0  0  0
   -9.2127    4.7340   -6.6956 S   0  0  0  0  0  0  0  0  0  0  0  0
   -8.5451    3.3101   -7.4744 C   0  0  0  0  0  0  0  0  0  0  0  0
   -8.8149    2.8859   -8.7658 C   0  0  0  0  0  0  0  0  0  0  0  0
   -8.1978    1.7374   -9.2200 C   0  0  0  0  0  0  0  0  0  0  0  0
   -7.3233    1.0172   -8.4037 C   0  0  0  0  0  0  0  0  0  0  0  0
   -7.0495    1.4308   -7.1203 C   0  0  0  0  0  0  0  0  0  0  0  0
   -7.6613    2.5896   -6.6376 C   0  0  0  0  0  0  0  0  0  0  0  0
   -8.1645    4.9772   -3.9732 C   0  0  0  0  0  0  0  0  0  0  0  0
   -8.8081    6.1217   -3.5724 C   0  0  0  0  0  0  0  0  0  0  0  0
   -9.6918    6.7993   -4.4384 C   0  0  0  0  0  0  0  0  0  0  0  0
  -10.4127    7.3647   -5.1295 N   0  0  0  0  0  0  0  0  0  0  0  0
   -8.6876    6.7417   -2.3152 C   0  0  0  0  0  0  0  0  0  0  0  0
   -8.6360    7.2984   -1.3113 N   0  0  0  0  0  0  0  0  0  0  0  0
    9.9737   -8.4070    2.2528 H   0  0  0  0  0  0  0  0  0  0  0  0
   10.0632   -7.2672    0.9074 H   0  0  0  0  0  0  0  0  0  0  0  0
    8.5394   -7.4864    1.7863 H   0  0  0  0  0  0  0  0  0  0  0  0
   11.1099   -6.3056    2.9574 H   0  0  0  0  0  0  0  0  0  0  0  0
    9.5723   -6.5325    3.8379 H   0  0  0  0  0  0  0  0  0  0  0  0
   10.6639   -1.1105    0.9824 H   0  0  0  0  0  0  0  0  0  0  0  0
   11.8893   -2.4056    0.8817 H   0  0  0  0  0  0  0  0  0  0  0  0
   11.3274   -1.5231   -1.3793 H   0  0  0  0  0  0  0  0  0  0  0  0
   10.8434   -3.2148   -1.2336 H   0  0  0  0  0  0  0  0  0  0  0  0
    9.6268   -1.9301   -1.1256 H   0  0  0  0  0  0  0  0  0  0  0  0
    6.5208   -1.2777    1.2262 H   0  0  0  0  0  0  0  0  0  0  0  0
    4.2068   -0.6737    1.4727 H   0  0  0  0  0  0  0  0  0  0  0  0
    3.5715   -2.2477    3.6227 H   0  0  0  0  0  0  0  0  0  0  0  0
    3.3350   -4.6216    2.8818 H   0  0  0  0  0  0  0  0  0  0  0  0
    3.9946   -4.1819    1.2977 H   0  0  0  0  0  0  0  0  0  0  0  0
    5.4401   -3.9550    3.9781 H   0  0  0  0  0  0  0  0  0  0  0  0
    5.7509   -5.1462    2.7440 H   0  0  0  0  0  0  0  0  0  0  0  0
   -2.2964   -2.9237    1.7023 H   0  0  0  0  0  0  0  0  0  0  0  0
   -2.8231   -3.9368    0.3615 H   0  0  0  0  0  0  0  0  0  0  0  0
   -0.5134   -4.6069    2.2587 H   0  0  0  0  0  0  0  0  0  0  0  0
   -1.1272   -5.6561    0.9760 H   0  0  0  0  0  0  0  0  0  0  0  0
   -2.1424   -5.2724    2.3617 H   0  0  0  0  0  0  0  0  0  0  0  0
    0.1423   -4.6505   -0.6729 H   0  0  0  0  0  0  0  0  0  0  0  0
    0.2753   -3.2082   -1.6845 H   0  0  0  0  0  0  0  0  0  0  0  0
   -2.1380   -5.0738   -1.5069 H   0  0  0  0  0  0  0  0  0  0  0  0
   -1.0621   -4.8350   -2.8805 H   0  0  0  0  0  0  0  0  0  0  0  0
   -2.1334   -3.5287   -2.3660 H   0  0  0  0  0  0  0  0  0  0  0  0
    1.7181   -3.9518    0.8313 H   0  0  0  0  0  0  0  0  0  0  0  0
   -3.5060   -0.1787   -1.2017 H   0  0  0  0  0  0  0  0  0  0  0  0
   -0.8007    1.1464    2.7194 H   0  0  0  0  0  0  0  0  0  0  0  0
   -3.5930    5.4705    1.5175 H   0  0  0  0  0  0  0  0  0  0  0  0
   -4.6676    5.2965    2.9061 H   0  0  0  0  0  0  0  0  0  0  0  0
   -2.4935    6.2588    3.5503 H   0  0  0  0  0  0  0  0  0  0  0  0
   -2.6580    4.6747    4.3100 H   0  0  0  0  0  0  0  0  0  0  0  0
   -1.6419    4.8616    2.8868 H   0  0  0  0  0  0  0  0  0  0  0  0
   -5.0462    1.6776    2.6850 H   0  0  0  0  0  0  0  0  0  0  0  0
   -5.9373    3.1818    2.9287 H   0  0  0  0  0  0  0  0  0  0  0  0
   -4.6061    3.6916    4.9357 H   0  0  0  0  0  0  0  0  0  0  0  0
   -5.1997    2.0389    5.0644 H   0  0  0  0  0  0  0  0  0  0  0  0
   -3.5223    2.3323    4.5992 H   0  0  0  0  0  0  0  0  0  0  0  0
   -5.9044    5.0046    0.5298 H   0  0  0  0  0  0  0  0  0  0  0  0
   -7.1703    5.2664   -1.4840 H   0  0  0  0  0  0  0  0  0  0  0  0
   -9.4905    3.4441   -9.3948 H   0  0  0  0  0  0  0  0  0  0  0  0
   -8.3947    1.3908  -10.2231 H   0  0  0  0  0  0  0  0  0  0  0  0
   -6.8572    0.1234   -8.7900 H   0  0  0  0  0  0  0  0  0  0  0  0
   -6.3760    0.8864   -6.4771 H   0  0  0  0  0  0  0  0  0  0  0  0
  1  2  1  0  0  0  0
  2  3  1  0  0  0  0
  3  4  1  0  0  0  0
  4  5  2  0  0  0  0
  4  6  1  0  0  0  0
  6  7  1  0  0  0  0
  7  8  2  0  0  0  0
  7  9  1  0  0  0  0
  9 10  1  0  0  0  0
 10 11  1  0  0  0  0
  9 12  1  0  0  0  0
 12 13  2  0  0  0  0
  6 14  2  0  0  0  0
 14 15  1  0  0  0  0
 15 16  2  0  0  0  0
 16 17  1  0  0  0  0
 17 18  1  0  0  0  0
 18 19  1  0  0  0  0
 17 20  1  0  0  0  0
 20 21  1  0  0  0  0
 21 22  1  0  0  0  0
 22 23  1  0  0  0  0
 23 24  2  0  0  0  0
 24 25  1  0  0  0  0
 25 26  1  0  0  0  0
 26 27  1  0  0  0  0
 27 28  1  0  0  0  0
 26 29  1  0  0  0  0
 29 30  1  0  0  0  0
 26 31  1  0  0  0  0
 31 32  1  0  0  0  0
 24 33  1  0  0  0  0
 33 34  2  0  0  0  0
 34 35  1  0  0  0  0
 35 36  2  0  0  0  0
 36 37  1  0  0  0  0
 37 38  1  0  0  0  0
 38 39  1  0  0  0  0
 39 40  2  0  0  0  0
 37 41  1  0  0  0  0
 41 42  1  0  0  0  0
 37 43  1  0  0  0  0
 43 44  1  0  0  0  0
 36 45  1  0  0  0  0
 45 46  2  0  0  0  0
 46 47  1  0  0  0  0
 46 48  1  0  0  0  0
 48 49  2  0  0  0  0
 49 50  1  0  0  0  0
 50 51  2  0  0  0  0
 50 52  1  0  0  0  0
 52 53  2  0  0  0  0
 53 54  1  0  0  0  0
 54 55  1  0  0  0  0
 55 56  2  0  0  0  0
 56 57  1  0  0  0  0
 57 58  2  0  0  0  0
 58 59  1  0  0  0  0
 59 60  2  0  0  0  0
 53 61  1  0  0  0  0
 61 62  2  0  0  0  0
 62 63  1  0  0  0  0
 63 64  3  0  0  0  0
 62 65  1  0  0  0  0
 65 66  3  0  0  0  0
 12  3  1  0  0  0  0
 19 14  1  0  0  0  0
 32 20  2  0  0  0  0
 39 34  1  0  0  0  0
 61 49  1  0  0  0  0
 31 22  2  0  0  0  0
 47 35  1  0  0  0  0
 60 52  1  0  0  0  0
 40 23  1  0  0  0  0
 60 55  1  0  0  0  0
  1 67  1  0  0  0  0
  1 68  1  0  0  0  0
  1 69  1  0  0  0  0
  2 70  1  0  0  0  0
  2 71  1  0  0  0  0
 10 72  1  0  0  0  0
 10 73  1  0  0  0  0
 11 74  1  0  0  0  0
 11 75  1  0  0  0  0
 11 76  1  0  0  0  0
 15 77  1  0  0  0  0
 16 78  1  0  0  0  0
 17 79  1  0  0  0  0
 18 80  1  0  0  0  0
 18 81  1  0  0  0  0
 19 82  1  0  0  0  0
 19 83  1  0  0  0  0
 27 84  1  0  0  0  0
 27 85  1  0  0  0  0
 28 86  1  0  0  0  0
 28 87  1  0  0  0  0
 28 88  1  0  0  0  0
 29 89  1  0  0  0  0
 29 90  1  0  0  0  0
 30 91  1  0  0  0  0
 30 92  1  0  0  0  0
 30 93  1  0  0  0  0
 32 94  1  0  0  0  0
 33 95  1  0  0  0  0
 40 96  1  0  0  0  0
 41 97  1  0  0  0  0
 41 98  1  0  0  0  0
 42 99  1  0  0  0  0
 42100  1  0  0  0  0
 42101  1  0  0  0  0
 43102  1  0  0  0  0
 43103  1  0  0  0  0
 44104  1  0  0  0  0
 44105  1  0  0  0  0
 44106  1  0  0  0  0
 45107  1  0  0  0  0
 48108  1  0  0  0  0
 56109  1  0  0  0  0
 57110  1  0  0  0  0
 58111  1  0  0  0  0
 59112  1  0  0  0  0
M  END
