112

C          9.62180       -7.44800        1.88440
C         10.02430       -6.35110        2.86110
N          9.55240       -5.04330        2.41840
C          8.28880       -4.66030        2.85110
O          7.68970       -5.36480        3.64100
C          7.76090       -3.41480        2.28480
C          8.73180       -2.46810        1.71950
O          8.53400       -1.28090        1.55380
N          9.95710       -3.00940        1.34590
C         10.86700       -2.12250        0.62770
C         10.64890       -2.20620       -0.87700
C         10.33850       -4.29640        1.59000
S         11.72970       -4.91150        0.95110
C          6.40760       -3.15820        2.29320
C          5.85020       -1.95480        1.72880
C          4.56300       -1.61470        1.86610
C          3.55800       -2.49230        2.54970
C          4.00910       -3.93940        2.36240
C          5.42650       -4.11630        2.89480
C          2.18080       -2.22740        2.02740
S          1.39260       -0.73370        2.43670
C          0.02360       -1.15780        1.46540
C         -1.10810       -0.32160        1.19000
C         -1.90330       -0.72740        0.09460
O         -1.64480       -1.85700       -0.60930
C         -0.94740       -2.93410        0.03880
C         -1.95750       -3.65450        0.96200
C         -1.39520       -4.87300        1.68010
C         -0.41650       -3.81840       -1.09970
C         -1.51130       -4.34800       -2.01830
C          0.18070       -2.38560        0.87370
C          1.41330       -2.98990        1.19790
C         -2.92720        0.09370       -0.33340
C         -3.21200        1.28190        0.33980
C         -4.19970        2.21840       -0.09120
C         -4.54590        3.30470        0.70290
C         -3.96780        3.43110        2.09010
O         -2.69260        2.78410        2.17490
C         -2.47100        1.64450        1.48460
C         -1.40700        0.84710        1.87830
C         -3.75290        4.91920        2.44710
C         -2.56210        5.19000        3.36070
C         -4.95900        2.70980        3.03810
C         -4.54160        2.69770        4.50220
C         -5.48470        4.11670        0.09120
C         -5.85770        3.67980       -1.18260
S         -5.01300        2.20930       -1.60680
C         -6.77800        4.38310       -1.97450
C         -7.22620        4.13960       -3.24500
C         -6.83470        3.01140       -4.11580
O         -6.08090        2.09340       -3.84620
C         -7.55110        3.22510       -5.37580
C         -8.31710        4.36860       -5.27140
S         -9.21270        4.73400       -6.69560
C         -8.54510        3.31010       -7.47440
C         -8.81490        2.88590       -8.76580
C         -8.19780        1.73740       -9.22000
C         -7.32330        1.01720       -8.40370
C         -7.04950        1.43080       -7.12030
C         -7.66130        2.58960       -6.63760
C         -8.16450        4.97720       -3.97320
C         -8.80810        6.12170       -3.57240
C         -9.69180        6.79930       -4.43840
N        -10.41270        7.36470       -5.12950
C         -8.68760        6.74170       -2.31520
N         -8.63600        7.29840       -1.31130
H          9.97370       -8.40700        2.25280
H         10.06320       -7.26720        0.90740
H          8.53940       -7.48640        1.78630
H         11.10990       -6.30560        2.95740
H          9.57230       -6.53250        3.83790
H         10.66390       -1.11050        0.98240
H         11.88930       -2.40560        0.88170
H         11.32740       -1.52310       -1.37930
H         10.84340       -3.21480       -1.23360
H          9.62680       -1.93010       -1.12560
H          6.52080       -1.27770        1.22620
H          4.20680       -0.67370        1.47270
H          3.57150       -2.24770        3.62270
H          3.33500       -4.62160        2.88180
H          3.99460       -4.18190        1.29770
H          5.44010       -3.95500        3.97810
H          5.75090       -5.14620        2.74400
H         -2.29640       -2.92370        1.70230
H         -2.82310       -3.93680        0.36150
H         -0.51340       -4.60690        2.25870
H         -1.12720       -5.65610        0.97600
H         -2.14240       -5.27240        2.36170
H          0.14230       -4.65050       -0.67290
H          0.27530       -3.20820       -1.68450
H         -2.13800       -5.07380       -1.50690
H         -1.06210       -4.83500       -2.88050
H         -2.13340       -3.52870       -2.36600
H          1.71810       -3.95180        0.83130
H         -3.50600       -0.17870       -1.20170
H         -0.80070        1.14640        2.71940
H         -3.59300        5.47050        1.51750
H         -4.66760        5.29650        2.90610
H         -2.49350        6.25880        3.55030
H         -2.65800        4.67470        4.31000
H         -1.64190        4.86160        2.88680
H         -5.04620        1.67760        2.68500
H         -5.93730        3.18180        2.92870
H         -4.60610        3.69160        4.93570
H         -5.19970        2.03890        5.06440
H         -3.52230        2.33230        4.59920
H         -5.90440        5.00460        0.52980
H         -7.17030        5.26640       -1.48400
H         -9.49050        3.44410       -9.39480
H         -8.39470        1.39080      -10.22310
H         -6.85720        0.12340       -8.79000
H         -6.37600        0.88640       -6.47710
