79

N         -4.08330      -12.56240        3.40650
C         -3.44970      -11.72800        2.94070
C         -2.68190      -10.68740        2.37620
C         -3.07770       -9.39010        2.74800
N         -3.43190       -8.34780        3.07480
C         -1.63100      -10.96560        1.52700
C         -1.36630      -12.33520        1.25620
N         -1.14910      -13.43730        1.03480
C         -0.77930      -10.02980        0.88510
C          0.27580      -10.34140        0.03630
C          0.93740       -9.22820       -0.45640
C          0.40700       -8.03050        0.00170
S         -0.93510       -8.30220        1.06330
C          0.82370       -6.70950       -0.29520
C          1.84660       -6.32490       -1.13700
C          2.01800       -4.94360       -1.23590
S          3.15770       -4.01030       -2.17760
C          2.45290       -2.56450       -1.54930
C          2.58740       -1.17700       -1.68170
C          3.42590       -0.41940       -2.52830
C          3.28090        1.00400       -2.54470
N          4.09260        1.58580       -3.41360
S          4.96760        0.43810       -4.14450
N          4.34320       -0.84590       -3.38230
C          2.37020        1.60420       -1.64780
C          2.10910        2.95450       -1.39320
C          1.20120        3.00190       -0.32800
N          0.87030        1.72960        0.05780
C          0.17440        1.53550        1.30860
C          1.11400        1.02790        2.39940
C          1.57250        0.84190       -0.73940
C          1.62000       -0.57630       -0.82240
N          0.90730       -1.59500       -0.20550
C          1.40180       -2.79010       -0.65430
C          1.14010       -4.15400       -0.47360
Se        -0.05270       -5.22260        0.48830
C         -0.36300       -1.57490        0.48200
C         -1.48620       -1.09010       -0.43080
C          0.88110        4.30470        0.06260
C          1.56120        5.24050       -0.74940
S          2.58860        4.51030       -1.96990
C          1.32350        6.56810       -0.45890
C          0.44790        6.79830        0.60830
Se        -0.16630        5.15940        1.35100
C          0.12580        8.10060        1.00120
C         -0.68600        8.55650        2.01650
C         -1.41000        7.71200        2.95410
O         -1.43560        6.48700        2.98640
C         -2.11760        8.61860        3.87320
C         -2.93200        8.30750        4.94250
C         -3.49090        9.35240        5.66830
Cl        -4.50920        9.00940        7.00740
C         -3.22630       10.67880        5.31140
Cl        -3.92310       11.96070        6.21620
C         -2.40370       10.98650        4.23130
C         -1.84410        9.94890        3.50600
C         -0.95430        9.94340        2.34340
C         -0.48590       11.06100        1.70340
C         -0.80180       12.38210        2.08740
N         -1.01570       13.47950        2.34590
C          0.36640       11.07140        0.57890
N          1.05650       11.16890       -0.33410
H          0.54110      -11.35620       -0.20440
H          1.77710       -9.28000       -1.12450
H          2.45830       -7.02690       -1.67530
H         -0.68520        0.88020        1.17320
H         -0.21760        2.51630        1.60360
H          1.59660        0.09860        2.10410
H          1.88930        1.76580        2.59190
H          0.55990        0.86320        3.31940
H         -0.56980       -2.60840        0.78550
H         -0.29730       -0.98590        1.39580
H         -1.59670       -1.76790       -1.27400
H         -1.27500       -0.09670       -0.82070
H         -2.42470       -1.06370        0.11590
H          1.77470        7.38010       -1.00410
H          0.61020        8.85730        0.39470
H         -3.12740        7.28020        5.20620
H         -2.22410       12.02090        3.98880
