
  xtb     02022210483D
 energy: -171.487895033997 gnorm: 0.000516038547 xtb: 6.4.1 (unknown)
 92105  0     0  0            999 V2000
   -8.6082    7.9483   11.3077 N   0  0  0  0  0  0  0  0  0  0  0  0
   -7.6571    7.6743   10.7287 C   0  0  0  0  0  0  0  0  0  0  0  0
   -6.4960    7.3213   10.0095 C   0  0  0  0  0  0  0  0  0  0  0  0
   -6.6128    6.1560    9.2313 C   0  0  0  0  0  0  0  0  0  0  0  0
   -6.7517    5.2012    8.6082 N   0  0  0  0  0  0  0  0  0  0  0  0
   -5.3544    8.0921   10.0887 C   0  0  0  0  0  0  0  0  0  0  0  0
   -5.4105    9.2433   10.9194 C   0  0  0  0  0  0  0  0  0  0  0  0
   -5.4485   10.1715   11.5888 N   0  0  0  0  0  0  0  0  0  0  0  0
   -4.1215    7.8650    9.4247 C   0  0  0  0  0  0  0  0  0  0  0  0
   -2.9922    8.6704    9.5108 C   0  0  0  0  0  0  0  0  0  0  0  0
   -1.9285    8.2163    8.7483 C   0  0  0  0  0  0  0  0  0  0  0  0
   -2.2120    7.0471    8.0560 C   0  0  0  0  0  0  0  0  0  0  0  0
   -3.8305    6.5103    8.3657 S   0  0  0  0  0  0  0  0  0  0  0  0
   -1.3750    6.3149    7.1791 C   0  0  0  0  0  0  0  0  0  0  0  0
   -0.0913    6.6337    6.7870 C   0  0  0  0  0  0  0  0  0  0  0  0
    0.4742    5.7293    5.8877 C   0  0  0  0  0  0  0  0  0  0  0  0
    2.0364    5.7422    5.1021 S   0  0  0  0  0  0  0  0  0  0  0  0
    1.6056    4.2875    4.2772 C   0  0  0  0  0  0  0  0  0  0  0  0
    2.1331    3.4230    3.3092 C   0  0  0  0  0  0  0  0  0  0  0  0
    3.3229    3.5108    2.5540 C   0  0  0  0  0  0  0  0  0  0  0  0
    3.5434    2.5617    1.5046 C   0  0  0  0  0  0  0  0  0  0  0  0
    4.6639    2.7945    0.8391 N   0  0  0  0  0  0  0  0  0  0  0  0
    5.3821    4.0932    1.4831 S   0  0  0  0  0  0  0  0  0  0  0  0
    4.2894    4.4120    2.6341 N   0  0  0  0  0  0  0  0  0  0  0  0
    2.6153    1.5120    1.3309 C   0  0  0  0  0  0  0  0  0  0  0  0
    2.6269    0.4234    0.4486 C   0  0  0  0  0  0  0  0  0  0  0  0
    1.5262   -0.3776    0.7739 C   0  0  0  0  0  0  0  0  0  0  0  0
    0.8219    0.1915    1.8028 N   0  0  0  0  0  0  0  0  0  0  0  0
   -0.1341   -0.6096    2.5329 C   0  0  0  0  0  0  0  0  0  0  0  0
    0.3930   -0.9958    3.9121 C   0  0  0  0  0  0  0  0  0  0  0  0
    1.4629    1.3687    2.1585 C   0  0  0  0  0  0  0  0  0  0  0  0
    1.1667    2.3972    3.0930 C   0  0  0  0  0  0  0  0  0  0  0  0
    0.0730    2.6613    3.9034 N   0  0  0  0  0  0  0  0  0  0  0  0
    0.3321    3.8092    4.6034 C   0  0  0  0  0  0  0  0  0  0  0  0
   -0.3287    4.6358    5.5205 C   0  0  0  0  0  0  0  0  0  0  0  0
   -1.9888    4.7117    6.3742 Se  0  0  0  0  0  2  0  0  0  0  0  0
   -1.2774    2.1518    3.8501 C   0  0  0  0  0  0  0  0  0  0  0  0
   -1.9353    2.4422    2.5038 C   0  0  0  0  0  0  0  0  0  0  0  0
    1.4371   -1.5154   -0.0356 C   0  0  0  0  0  0  0  0  0  0  0  0
    2.4778   -1.5442   -0.9863 C   0  0  0  0  0  0  0  0  0  0  0  0
    3.5732   -0.1859   -0.8601 S   0  0  0  0  0  0  0  0  0  0  0  0
    2.4785   -2.6144   -1.8742 C   0  0  0  0  0  0  0  0  0  0  0  0
    1.4411   -3.5092   -1.6912 C   0  0  0  0  0  0  0  0  0  0  0  0
    0.3263   -2.9975   -0.2261 Se  0  0  0  0  0  2  0  0  0  0  0  0
    1.0825   -4.6944   -2.3631 C   0  0  0  0  0  0  0  0  0  0  0  0
    1.5434   -5.2550   -3.5218 C   0  0  0  0  0  0  0  0  0  0  0  0
    2.4802   -4.6872   -4.5193 C   0  0  0  0  0  0  0  0  0  0  0  0
    3.2144   -3.7256   -4.4143 O   0  0  0  0  0  0  0  0  0  0  0  0
    2.3447   -5.5312   -5.7206 C   0  0  0  0  0  0  0  0  0  0  0  0
    2.9620   -5.3244   -6.9527 C   0  0  0  0  0  0  0  0  0  0  0  0
    2.6313   -6.2565   -7.9060 C   0  0  0  0  0  0  0  0  0  0  0  0
    1.7539   -7.3202   -7.6529 C   0  0  0  0  0  0  0  0  0  0  0  0
    1.1475   -7.5419   -6.4395 C   0  0  0  0  0  0  0  0  0  0  0  0
    1.4689   -6.6016   -5.4549 C   0  0  0  0  0  0  0  0  0  0  0  0
    1.0261   -6.5003   -4.0681 C   0  0  0  0  0  0  0  0  0  0  0  0
    0.3159   -7.4573   -3.3906 C   0  0  0  0  0  0  0  0  0  0  0  0
   -0.0198   -7.4144   -2.0204 C   0  0  0  0  0  0  0  0  0  0  0  0
   -0.3135   -7.4676   -0.9109 N   0  0  0  0  0  0  0  0  0  0  0  0
   -0.1431   -8.6622   -3.9633 C   0  0  0  0  0  0  0  0  0  0  0  0
   -0.5539   -9.6574   -4.3622 N   0  0  0  0  0  0  0  0  0  0  0  0
    1.8615   -7.8489   -9.0616 C   0  0  0  0  0  0  0  0  0  0  0  0
    0.6770   -7.5451  -10.0033 C   0  0  0  0  0  0  0  0  0  0  0  0
    1.2539   -7.7436  -11.3865 C   0  0  0  0  0  0  0  0  0  0  0  0
    2.0847   -6.7370  -11.6256 C   0  0  0  0  0  0  0  0  0  0  0  0
    2.0834   -5.8412  -10.4079 C   0  0  0  0  0  0  0  0  0  0  0  0
    0.6271   -6.0124   -9.9565 C   0  0  0  0  0  0  0  0  0  0  0  0
    2.8401   -6.6638   -9.3431 C   0  0  0  0  0  0  0  0  0  0  0  0
   -2.9644    9.5600   10.1157 H   0  0  0  0  0  0  0  0  0  0  0  0
   -0.9776    8.7133    8.6944 H   0  0  0  0  0  0  0  0  0  0  0  0
    0.4273    7.5091    7.1350 H   0  0  0  0  0  0  0  0  0  0  0  0
   -1.0977   -0.1037    2.5935 H   0  0  0  0  0  0  0  0  0  0  0  0
   -0.2910   -1.5202    1.9435 H   0  0  0  0  0  0  0  0  0  0  0  0
    1.2952   -1.5942    3.8099 H   0  0  0  0  0  0  0  0  0  0  0  0
    0.6360   -0.1154    4.5028 H   0  0  0  0  0  0  0  0  0  0  0  0
   -0.3518   -1.5828    4.4425 H   0  0  0  0  0  0  0  0  0  0  0  0
   -1.2965    1.0892    4.0911 H   0  0  0  0  0  0  0  0  0  0  0  0
   -1.8370    2.6666    4.6406 H   0  0  0  0  0  0  0  0  0  0  0  0
   -2.9393    2.0274    2.4839 H   0  0  0  0  0  0  0  0  0  0  0  0
   -1.3598    2.0167    1.6849 H   0  0  0  0  0  0  0  0  0  0  0  0
   -2.0023    3.5164    2.3483 H   0  0  0  0  0  0  0  0  0  0  0  0
    3.2127   -2.7403   -2.6504 H   0  0  0  0  0  0  0  0  0  0  0  0
    0.2647   -5.2219   -1.8807 H   0  0  0  0  0  0  0  0  0  0  0  0
    3.6319   -4.4923   -7.1032 H   0  0  0  0  0  0  0  0  0  0  0  0
    0.4750   -8.3640   -6.2608 H   0  0  0  0  0  0  0  0  0  0  0  0
    2.2330   -8.8670   -9.1593 H   0  0  0  0  0  0  0  0  0  0  0  0
   -0.2377   -8.0842   -9.7725 H   0  0  0  0  0  0  0  0  0  0  0  0
    1.0475   -8.5967  -12.0058 H   0  0  0  0  0  0  0  0  0  0  0  0
    2.7109   -6.5810  -12.4843 H   0  0  0  0  0  0  0  0  0  0  0  0
    2.4496   -4.8274  -10.5456 H   0  0  0  0  0  0  0  0  0  0  0  0
    0.4172   -5.6046   -8.9693 H   0  0  0  0  0  0  0  0  0  0  0  0
   -0.0779   -5.6015  -10.6773 H   0  0  0  0  0  0  0  0  0  0  0  0
    3.8652   -6.8910   -9.6297 H   0  0  0  0  0  0  0  0  0  0  0  0
  1  2  3  0  0  0  0
  2  3  1  0  0  0  0
  3  4  1  0  0  0  0
  4  5  3  0  0  0  0
  3  6  2  0  0  0  0
  6  7  1  0  0  0  0
  7  8  3  0  0  0  0
  6  9  1  0  0  0  0
  9 10  2  0  0  0  0
 10 11  1  0  0  0  0
 11 12  2  0  0  0  0
 12 13  1  0  0  0  0
 12 14  1  0  0  0  0
 14 15  2  0  0  0  0
 15 16  1  0  0  0  0
 16 17  1  0  0  0  0
 17 18  1  0  0  0  0
 18 19  1  0  0  0  0
 19 20  1  0  0  0  0
 20 21  1  0  0  0  0
 21 22  2  0  0  0  0
 22 23  1  0  0  0  0
 23 24  1  0  0  0  0
 21 25  1  0  0  0  0
 25 26  1  0  0  0  0
 26 27  2  0  0  0  0
 27 28  1  0  0  0  0
 28 29  1  0  0  0  0
 29 30  1  0  0  0  0
 28 31  1  0  0  0  0
 31 32  1  0  0  0  0
 32 33  1  0  0  0  0
 33 34  1  0  0  0  0
 34 35  1  0  0  0  0
 35 36  1  0  0  0  0
 33 37  1  0  0  0  0
 37 38  1  0  0  0  0
 27 39  1  0  0  0  0
 39 40  2  0  0  0  0
 40 41  1  0  0  0  0
 40 42  1  0  0  0  0
 42 43  2  0  0  0  0
 43 44  1  0  0  0  0
 43 45  1  0  0  0  0
 45 46  2  0  0  0  0
 46 47  1  0  0  0  0
 47 48  2  0  0  0  0
 47 49  1  0  0  0  0
 49 50  2  0  0  0  0
 50 51  1  0  0  0  0
 51 52  2  0  0  0  0
 52 53  1  0  0  0  0
 53 54  2  0  0  0  0
 54 55  1  0  0  0  0
 55 56  2  0  0  0  0
 56 57  1  0  0  0  0
 57 58  3  0  0  0  0
 56 59  1  0  0  0  0
 59 60  3  0  0  0  0
 52 61  1  0  0  0  0
 61 62  1  0  0  0  0
 62 63  1  0  0  0  0
 63 64  2  0  0  0  0
 64 65  1  0  0  0  0
 65 66  1  0  0  0  0
 65 67  1  0  0  0  0
 13  9  1  0  0  0  0
 36 14  1  0  0  0  0
 44 39  1  0  0  0  0
 55 46  1  0  0  0  0
 67 61  1  0  0  0  0
 35 16  2  0  0  0  0
 54 49  1  0  0  0  0
 66 62  1  0  0  0  0
 34 18  2  0  0  0  0
 67 51  1  0  0  0  0
 32 19  2  0  0  0  0
 24 20  2  0  0  0  0
 31 25  2  0  0  0  0
 41 26  1  0  0  0  0
 10 68  1  0  0  0  0
 11 69  1  0  0  0  0
 15 70  1  0  0  0  0
 29 71  1  0  0  0  0
 29 72  1  0  0  0  0
 30 73  1  0  0  0  0
 30 74  1  0  0  0  0
 30 75  1  0  0  0  0
 37 76  1  0  0  0  0
 37 77  1  0  0  0  0
 38 78  1  0  0  0  0
 38 79  1  0  0  0  0
 38 80  1  0  0  0  0
 42 81  1  0  0  0  0
 45 82  1  0  0  0  0
 50 83  1  0  0  0  0
 53 84  1  0  0  0  0
 61 85  1  0  0  0  0
 62 86  1  0  0  0  0
 63 87  1  0  0  0  0
 64 88  1  0  0  0  0
 65 89  1  0  0  0  0
 66 90  1  0  0  0  0
 66 91  1  0  0  0  0
 67 92  1  0  0  0  0
M  END
