
  xtb     02112203023D
 energy: -176.777695267025 gnorm: 0.000355998303 xtb: 6.4.1 (unknown)
101113  0     0  0            999 V2000
   -2.0422    0.6604  -12.9507 N   0  0  0  0  0  0  0  0  0  0  0  0
   -1.3807    1.5333  -13.2950 C   0  0  0  0  0  0  0  0  0  0  0  0
   -0.5844    2.5867  -13.7796 C   0  0  0  0  0  0  0  0  0  0  0  0
   -0.5669    2.7172  -15.1841 C   0  0  0  0  0  0  0  0  0  0  0  0
   -0.5610    2.8092  -16.3272 N   0  0  0  0  0  0  0  0  0  0  0  0
    0.1447    3.4445  -12.9829 C   0  0  0  0  0  0  0  0  0  0  0  0
    0.9029    4.4480  -13.6431 C   0  0  0  0  0  0  0  0  0  0  0  0
    1.5175    5.2596  -14.1677 N   0  0  0  0  0  0  0  0  0  0  0  0
    0.2292    3.4347  -11.5662 C   0  0  0  0  0  0  0  0  0  0  0  0
    0.9907    4.3046  -10.7979 C   0  0  0  0  0  0  0  0  0  0  0  0
    0.9040    4.0625   -9.4361 C   0  0  0  0  0  0  0  0  0  0  0  0
    0.0665    3.0042   -9.1091 C   0  0  0  0  0  0  0  0  0  0  0  0
   -0.6149    2.3004  -10.5485 S   0  0  0  0  0  0  0  0  0  0  0  0
   -0.3036    2.4303   -7.8588 C   0  0  0  0  0  0  0  0  0  0  0  0
   -1.6560    1.2987   -7.9128 S   0  0  0  0  0  0  0  0  0  0  0  0
   -1.4757    1.0147   -6.2404 C   0  0  0  0  0  0  0  0  0  0  0  0
   -2.0256    0.1865   -5.2577 C   0  0  0  0  0  0  0  0  0  0  0  0
   -2.9740   -0.8524   -5.3692 C   0  0  0  0  0  0  0  0  0  0  0  0
   -3.1893   -1.7028   -4.2388 C   0  0  0  0  0  0  0  0  0  0  0  0
   -4.0432   -2.6816   -4.4969 N   0  0  0  0  0  0  0  0  0  0  0  0
   -4.5381   -2.5372   -6.0310 S   0  0  0  0  0  0  0  0  0  0  0  0
   -3.6786   -1.2244   -6.4263 N   0  0  0  0  0  0  0  0  0  0  0  0
   -2.5358   -1.3967   -3.0254 C   0  0  0  0  0  0  0  0  0  0  0  0
   -2.6143   -2.0223   -1.7742 C   0  0  0  0  0  0  0  0  0  0  0  0
   -3.3660   -3.3965   -1.0419 S   0  0  0  0  0  0  0  0  0  0  0  0
   -2.6419   -2.9339    0.4879 C   0  0  0  0  0  0  0  0  0  0  0  0
   -2.6761   -3.5096    1.7516 C   0  0  0  0  0  0  0  0  0  0  0  0
   -3.4767   -4.7324    2.0601 C   0  0  0  0  0  0  0  0  0  0  0  0
   -4.8422   -4.3574    2.6426 C   0  0  0  0  0  0  0  0  0  0  0  0
   -1.9158   -2.7692    2.6727 C   0  0  0  0  0  0  0  0  0  0  0  0
   -1.1691   -1.3519    1.9327 S   0  0  0  0  0  0  0  0  0  0  0  0
   -1.8678   -1.7638    0.4124 C   0  0  0  0  0  0  0  0  0  0  0  0
   -1.8527   -1.2549   -0.8894 C   0  0  0  0  0  0  0  0  0  0  0  0
   -1.2848   -0.1904   -1.5457 N   0  0  0  0  0  0  0  0  0  0  0  0
   -1.6770   -0.2649   -2.8785 C   0  0  0  0  0  0  0  0  0  0  0  0
   -1.3297    0.4669   -4.0493 C   0  0  0  0  0  0  0  0  0  0  0  0
   -0.3623    1.4183   -4.3257 N   0  0  0  0  0  0  0  0  0  0  0  0
   -0.4378    1.7570   -5.6617 C   0  0  0  0  0  0  0  0  0  0  0  0
    0.2452    2.5773   -6.5859 C   0  0  0  0  0  0  0  0  0  0  0  0
    1.4527    3.4234   -6.3120 C   0  0  0  0  0  0  0  0  0  0  0  0
    2.7263    2.7526   -6.8331 C   0  0  0  0  0  0  0  0  0  0  0  0
    0.7045    1.8595   -3.4629 C   0  0  0  0  0  0  0  0  0  0  0  0
    0.4186    3.2354   -2.8553 C   0  0  0  0  0  0  0  0  0  0  0  0
   -0.9538    0.9563   -0.7224 C   0  0  0  0  0  0  0  0  0  0  0  0
   -2.1829    1.8358   -0.5000 C   0  0  0  0  0  0  0  0  0  0  0  0
   -1.7662   -3.1437    4.0129 C   0  0  0  0  0  0  0  0  0  0  0  0
   -1.0501   -2.5687    5.0328 C   0  0  0  0  0  0  0  0  0  0  0  0
   -0.2271   -1.3604    4.9421 C   0  0  0  0  0  0  0  0  0  0  0  0
   -0.0752   -0.6332    3.9733 O   0  0  0  0  0  0  0  0  0  0  0  0
    0.4005   -1.1837    6.2612 C   0  0  0  0  0  0  0  0  0  0  0  0
    1.2928   -0.1818    6.6367 C   0  0  0  0  0  0  0  0  0  0  0  0
    1.7298   -0.2817    7.9355 C   0  0  0  0  0  0  0  0  0  0  0  0
    1.3121   -1.3051    8.7964 C   0  0  0  0  0  0  0  0  0  0  0  0
    0.4326   -2.2993    8.4379 C   0  0  0  0  0  0  0  0  0  0  0  0
   -0.0282   -2.2152    7.1204 C   0  0  0  0  0  0  0  0  0  0  0  0
   -0.9508   -3.0806    6.3858 C   0  0  0  0  0  0  0  0  0  0  0  0
   -1.6006   -4.1687    6.9117 C   0  0  0  0  0  0  0  0  0  0  0  0
   -1.4670   -4.6130    8.2439 C   0  0  0  0  0  0  0  0  0  0  0  0
   -1.4135   -5.0345    9.3107 N   0  0  0  0  0  0  0  0  0  0  0  0
   -2.5036   -5.0048    6.2230 C   0  0  0  0  0  0  0  0  0  0  0  0
   -3.2523   -5.7317    5.7409 N   0  0  0  0  0  0  0  0  0  0  0  0
    2.1458   -0.7900    9.9432 C   0  0  0  0  0  0  0  0  0  0  0  0
    1.3953   -0.0219   11.0515 C   0  0  0  0  0  0  0  0  0  0  0  0
    2.4851    0.7548   11.7545 C   0  0  0  0  0  0  0  0  0  0  0  0
    2.8791    1.7250   10.9397 C   0  0  0  0  0  0  0  0  0  0  0  0
    2.0623    1.6203    9.6719 C   0  0  0  0  0  0  0  0  0  0  0  0
    0.7371    1.1109   10.2532 C   0  0  0  0  0  0  0  0  0  0  0  0
    2.6104    0.3521    8.9835 C   0  0  0  0  0  0  0  0  0  0  0  0
    1.5884    5.0882  -11.2303 H   0  0  0  0  0  0  0  0  0  0  0  0
    1.4298    4.6624   -8.7198 H   0  0  0  0  0  0  0  0  0  0  0  0
   -2.9503   -5.3804    2.7624 H   0  0  0  0  0  0  0  0  0  0  0  0
   -3.6255   -5.2852    1.1303 H   0  0  0  0  0  0  0  0  0  0  0  0
   -5.4156   -5.2577    2.8433 H   0  0  0  0  0  0  0  0  0  0  0  0
   -4.7261   -3.8096    3.5747 H   0  0  0  0  0  0  0  0  0  0  0  0
   -5.3959   -3.7383    1.9405 H   0  0  0  0  0  0  0  0  0  0  0  0
    1.3265    4.3994   -6.7808 H   0  0  0  0  0  0  0  0  0  0  0  0
    1.5602    3.6015   -5.2457 H   0  0  0  0  0  0  0  0  0  0  0  0
    2.6661    2.5913   -7.9059 H   0  0  0  0  0  0  0  0  0  0  0  0
    2.8701    1.7866   -6.3535 H   0  0  0  0  0  0  0  0  0  0  0  0
    3.5923    3.3757   -6.6230 H   0  0  0  0  0  0  0  0  0  0  0  0
    0.8586    1.1004   -2.6944 H   0  0  0  0  0  0  0  0  0  0  0  0
    1.6245    1.8984   -4.0524 H   0  0  0  0  0  0  0  0  0  0  0  0
    0.3722    3.9949   -3.6317 H   0  0  0  0  0  0  0  0  0  0  0  0
   -0.5373    3.2471   -2.3398 H   0  0  0  0  0  0  0  0  0  0  0  0
    1.2040    3.5055   -2.1539 H   0  0  0  0  0  0  0  0  0  0  0  0
   -0.6097    0.5610    0.2366 H   0  0  0  0  0  0  0  0  0  0  0  0
   -0.1462    1.5402   -1.1473 H   0  0  0  0  0  0  0  0  0  0  0  0
   -2.9668    1.2682   -0.0043 H   0  0  0  0  0  0  0  0  0  0  0  0
   -1.9223    2.6842    0.1265 H   0  0  0  0  0  0  0  0  0  0  0  0
   -2.5729    2.2006   -1.4487 H   0  0  0  0  0  0  0  0  0  0  0  0
   -2.3018   -4.0491    4.2630 H   0  0  0  0  0  0  0  0  0  0  0  0
    1.5927    0.5832    5.9377 H   0  0  0  0  0  0  0  0  0  0  0  0
    0.1285   -3.0817    9.1124 H   0  0  0  0  0  0  0  0  0  0  0  0
    2.8926   -1.4789   10.3332 H   0  0  0  0  0  0  0  0  0  0  0  0
    0.7515   -0.6363   11.6747 H   0  0  0  0  0  0  0  0  0  0  0  0
    2.8826    0.4929   12.7174 H   0  0  0  0  0  0  0  0  0  0  0  0
    3.6716    2.4355   11.0857 H   0  0  0  0  0  0  0  0  0  0  0  0
    2.0259    2.5030    9.0389 H   0  0  0  0  0  0  0  0  0  0  0  0
    0.2613    1.8469   10.8991 H   0  0  0  0  0  0  0  0  0  0  0  0
    0.0253    0.7701    9.5036 H   0  0  0  0  0  0  0  0  0  0  0  0
    3.6675    0.4259    8.7347 H   0  0  0  0  0  0  0  0  0  0  0  0
  1  2  3  0  0  0  0
  2  3  1  0  0  0  0
  3  4  1  0  0  0  0
  4  5  3  0  0  0  0
  3  6  2  0  0  0  0
  6  7  1  0  0  0  0
  7  8  3  0  0  0  0
  6  9  1  0  0  0  0
  9 10  2  0  0  0  0
 10 11  1  0  0  0  0
 11 12  2  0  0  0  0
 12 13  1  0  0  0  0
 12 14  1  0  0  0  0
 14 15  1  0  0  0  0
 15 16  1  0  0  0  0
 16 17  1  0  0  0  0
 17 18  1  0  0  0  0
 18 19  1  0  0  0  0
 19 20  2  0  0  0  0
 20 21  1  0  0  0  0
 21 22  1  0  0  0  0
 19 23  1  0  0  0  0
 23 24  1  0  0  0  0
 24 25  1  0  0  0  0
 25 26  1  0  0  0  0
 26 27  1  0  0  0  0
 27 28  1  0  0  0  0
 28 29  1  0  0  0  0
 27 30  2  0  0  0  0
 30 31  1  0  0  0  0
 31 32  1  0  0  0  0
 32 33  1  0  0  0  0
 33 34  1  0  0  0  0
 34 35  1  0  0  0  0
 35 36  1  0  0  0  0
 36 37  1  0  0  0  0
 37 38  1  0  0  0  0
 38 39  1  0  0  0  0
 39 40  1  0  0  0  0
 40 41  1  0  0  0  0
 37 42  1  0  0  0  0
 42 43  1  0  0  0  0
 34 44  1  0  0  0  0
 44 45  1  0  0  0  0
 30 46  1  0  0  0  0
 46 47  2  0  0  0  0
 47 48  1  0  0  0  0
 48 49  2  0  0  0  0
 48 50  1  0  0  0  0
 50 51  2  0  0  0  0
 51 52  1  0  0  0  0
 52 53  2  0  0  0  0
 53 54  1  0  0  0  0
 54 55  2  0  0  0  0
 55 56  1  0  0  0  0
 56 57  2  0  0  0  0
 57 58  1  0  0  0  0
 58 59  3  0  0  0  0
 57 60  1  0  0  0  0
 60 61  3  0  0  0  0
 53 62  1  0  0  0  0
 62 63  1  0  0  0  0
 63 64  1  0  0  0  0
 64 65  2  0  0  0  0
 65 66  1  0  0  0  0
 66 67  1  0  0  0  0
 66 68  1  0  0  0  0
 13  9  1  0  0  0  0
 39 14  2  0  0  0  0
 56 47  1  0  0  0  0
 68 62  1  0  0  0  0
 38 16  2  0  0  0  0
 55 50  1  0  0  0  0
 67 63  1  0  0  0  0
 36 17  2  0  0  0  0
 68 52  1  0  0  0  0
 22 18  2  0  0  0  0
 35 23  2  0  0  0  0
 33 24  2  0  0  0  0
 32 26  2  0  0  0  0
 10 69  1  0  0  0  0
 11 70  1  0  0  0  0
 28 71  1  0  0  0  0
 28 72  1  0  0  0  0
 29 73  1  0  0  0  0
 29 74  1  0  0  0  0
 29 75  1  0  0  0  0
 40 76  1  0  0  0  0
 40 77  1  0  0  0  0
 41 78  1  0  0  0  0
 41 79  1  0  0  0  0
 41 80  1  0  0  0  0
 42 81  1  0  0  0  0
 42 82  1  0  0  0  0
 43 83  1  0  0  0  0
 43 84  1  0  0  0  0
 43 85  1  0  0  0  0
 44 86  1  0  0  0  0
 44 87  1  0  0  0  0
 45 88  1  0  0  0  0
 45 89  1  0  0  0  0
 45 90  1  0  0  0  0
 46 91  1  0  0  0  0
 51 92  1  0  0  0  0
 54 93  1  0  0  0  0
 62 94  1  0  0  0  0
 63 95  1  0  0  0  0
 64 96  1  0  0  0  0
 65 97  1  0  0  0  0
 66 98  1  0  0  0  0
 67 99  1  0  0  0  0
 67100  1  0  0  0  0
 68101  1  0  0  0  0
M  END
