
  xtb     02022209273D
 energy: -177.986529247341 gnorm: 0.000911584967 xtb: 6.4.1 (unknown)
 98111  0     0  0            999 V2000
   -1.9665   -2.3428   -8.4870 N   0  0  0  0  0  0  0  0  0  0  0  0
   -2.8284   -2.4939   -9.2310 C   0  0  0  0  0  0  0  0  0  0  0  0
   -3.8452   -2.6678  -10.1866 C   0  0  0  0  0  0  0  0  0  0  0  0
   -3.3933   -2.7839  -11.5177 C   0  0  0  0  0  0  0  0  0  0  0  0
   -3.0085   -2.8736  -12.5943 N   0  0  0  0  0  0  0  0  0  0  0  0
   -5.1918   -2.7232   -9.8902 C   0  0  0  0  0  0  0  0  0  0  0  0
   -6.0855   -2.8959  -10.9807 C   0  0  0  0  0  0  0  0  0  0  0  0
   -6.8111   -3.0385  -11.8552 N   0  0  0  0  0  0  0  0  0  0  0  0
   -5.7897   -2.6257   -8.6075 C   0  0  0  0  0  0  0  0  0  0  0  0
   -7.1532   -2.6443   -8.3448 C   0  0  0  0  0  0  0  0  0  0  0  0
   -7.4622   -2.5231   -6.9994 C   0  0  0  0  0  0  0  0  0  0  0  0
   -6.3435   -2.4168   -6.1837 C   0  0  0  0  0  0  0  0  0  0  0  0
   -4.8838   -2.4590   -7.1282 S   0  0  0  0  0  0  0  0  0  0  0  0
   -6.2380   -2.2756   -4.7756 C   0  0  0  0  0  0  0  0  0  0  0  0
   -7.1926   -2.3814   -3.7741 C   0  0  0  0  0  0  0  0  0  0  0  0
   -8.6496   -2.6724   -3.9313 C   0  0  0  0  0  0  0  0  0  0  0  0
   -9.4426   -1.3827   -4.1562 C   0  0  0  0  0  0  0  0  0  0  0  0
   -6.6250   -2.1587   -2.5118 C   0  0  0  0  0  0  0  0  0  0  0  0
   -5.2502   -1.8980   -2.5214 C   0  0  0  0  0  0  0  0  0  0  0  0
   -4.6337   -1.9209   -4.1310 S   0  0  0  0  0  0  0  0  0  0  0  0
   -4.7530   -1.6923   -1.2305 C   0  0  0  0  0  0  0  0  0  0  0  0
   -5.7550   -1.8016   -0.2610 C   0  0  0  0  0  0  0  0  0  0  0  0
   -7.3201   -2.1521   -0.9063 S   0  0  0  0  0  0  0  0  0  0  0  0
   -5.1407   -1.6100    0.9833 C   0  0  0  0  0  0  0  0  0  0  0  0
   -5.6666   -1.7087    2.2900 C   0  0  0  0  0  0  0  0  0  0  0  0
   -6.9108   -1.9652    2.6626 N   0  0  0  0  0  0  0  0  0  0  0  0
   -6.9562   -2.0303    4.2801 S   0  0  0  0  0  0  0  0  0  0  0  0
   -5.3913   -1.7324    4.5648 N   0  0  0  0  0  0  0  0  0  0  0  0
   -4.7772   -1.5695    3.4035 C   0  0  0  0  0  0  0  0  0  0  0  0
   -3.4244   -1.2468    3.1580 C   0  0  0  0  0  0  0  0  0  0  0  0
   -2.3799   -0.9642    4.0465 C   0  0  0  0  0  0  0  0  0  0  0  0
   -2.0903   -0.9036    5.7520 S   0  0  0  0  0  0  0  0  0  0  0  0
   -0.4502   -0.3829    5.4208 C   0  0  0  0  0  0  0  0  0  0  0  0
    0.6254   -0.0630    6.2282 C   0  0  0  0  0  0  0  0  0  0  0  0
    1.7618    0.2915    5.5001 C   0  0  0  0  0  0  0  0  0  0  0  0
    1.4695    0.2256    3.7670 S   0  0  0  0  0  0  0  0  0  0  0  0
   -0.1601   -0.2661    4.0476 C   0  0  0  0  0  0  0  0  0  0  0  0
   -1.2725   -0.6030    3.2704 C   0  0  0  0  0  0  0  0  0  0  0  0
   -1.5886   -0.6737    1.9403 N   0  0  0  0  0  0  0  0  0  0  0  0
   -0.7241   -0.0269    0.9777 C   0  0  0  0  0  0  0  0  0  0  0  0
   -1.3398    1.2710    0.4607 C   0  0  0  0  0  0  0  0  0  0  0  0
   -2.9088   -1.0770    1.8373 C   0  0  0  0  0  0  0  0  0  0  0  0
   -3.7603   -1.3538    0.7336 C   0  0  0  0  0  0  0  0  0  0  0  0
   -3.5517   -1.4177   -0.6356 N   0  0  0  0  0  0  0  0  0  0  0  0
   -2.3323   -1.5949   -1.3931 C   0  0  0  0  0  0  0  0  0  0  0  0
   -1.5903   -2.8604   -0.9707 C   0  0  0  0  0  0  0  0  0  0  0  0
    2.9655    0.6507    6.1263 C   0  0  0  0  0  0  0  0  0  0  0  0
    4.1830    0.9719    5.5866 C   0  0  0  0  0  0  0  0  0  0  0  0
    4.5156    0.9670    4.1579 C   0  0  0  0  0  0  0  0  0  0  0  0
    3.7578    0.7742    3.2207 O   0  0  0  0  0  0  0  0  0  0  0  0
    5.9579    1.2367    4.0653 C   0  0  0  0  0  0  0  0  0  0  0  0
    6.7296    1.2798    2.9065 C   0  0  0  0  0  0  0  0  0  0  0  0
    8.0594    1.5423    3.1307 C   0  0  0  0  0  0  0  0  0  0  0  0
    8.5837    1.7454    4.4144 C   0  0  0  0  0  0  0  0  0  0  0  0
    7.8331    1.7031    5.5657 C   0  0  0  0  0  0  0  0  0  0  0  0
    6.4758    1.4402    5.3608 C   0  0  0  0  0  0  0  0  0  0  0  0
    5.3841    1.3151    6.3255 C   0  0  0  0  0  0  0  0  0  0  0  0
    5.4934    1.5202    7.6764 C   0  0  0  0  0  0  0  0  0  0  0  0
    6.6887    1.8746    8.3371 C   0  0  0  0  0  0  0  0  0  0  0  0
    7.6190    2.1627    8.9452 N   0  0  0  0  0  0  0  0  0  0  0  0
    4.4402    1.4338    8.6112 C   0  0  0  0  0  0  0  0  0  0  0  0
    3.6429    1.3912    9.4372 N   0  0  0  0  0  0  0  0  0  0  0  0
    9.9821    1.9650    3.8950 C   0  0  0  0  0  0  0  0  0  0  0  0
   10.5038    3.4215    3.8239 C   0  0  0  0  0  0  0  0  0  0  0  0
    9.2908    4.3057    3.6734 C   0  0  0  0  0  0  0  0  0  0  0  0
    8.7964    4.1119    2.4580 C   0  0  0  0  0  0  0  0  0  0  0  0
    9.6660    3.0922    1.7647 C   0  0  0  0  0  0  0  0  0  0  0  0
   11.0314    3.4374    2.3802 C   0  0  0  0  0  0  0  0  0  0  0  0
    9.3984    1.7369    2.4649 C   0  0  0  0  0  0  0  0  0  0  0  0
   -7.8898   -2.7361   -9.1241 H   0  0  0  0  0  0  0  0  0  0  0  0
   -8.4708   -2.4935   -6.6368 H   0  0  0  0  0  0  0  0  0  0  0  0
   -9.0005   -3.1450   -3.0114 H   0  0  0  0  0  0  0  0  0  0  0  0
   -8.8105   -3.3704   -4.7533 H   0  0  0  0  0  0  0  0  0  0  0  0
   -9.3314   -0.7244   -3.2982 H   0  0  0  0  0  0  0  0  0  0  0  0
   -9.0881   -0.8556   -5.0393 H   0  0  0  0  0  0  0  0  0  0  0  0
  -10.4979   -1.6096   -4.2828 H   0  0  0  0  0  0  0  0  0  0  0  0
    0.6107   -0.0805    7.3029 H   0  0  0  0  0  0  0  0  0  0  0  0
   -0.4739   -0.7079    0.1649 H   0  0  0  0  0  0  0  0  0  0  0  0
    0.2071    0.2013    1.5016 H   0  0  0  0  0  0  0  0  0  0  0  0
   -1.4839    1.9660    1.2846 H   0  0  0  0  0  0  0  0  0  0  0  0
   -0.6764    1.7311   -0.2663 H   0  0  0  0  0  0  0  0  0  0  0  0
   -2.3067    1.0935   -0.0052 H   0  0  0  0  0  0  0  0  0  0  0  0
   -2.6282   -1.6859   -2.4412 H   0  0  0  0  0  0  0  0  0  0  0  0
   -1.7000   -0.7107   -1.3169 H   0  0  0  0  0  0  0  0  0  0  0  0
   -0.6731   -2.9602   -1.5445 H   0  0  0  0  0  0  0  0  0  0  0  0
   -2.2108   -3.7341   -1.1567 H   0  0  0  0  0  0  0  0  0  0  0  0
   -1.3443   -2.8396    0.0885 H   0  0  0  0  0  0  0  0  0  0  0  0
    2.8928    0.6464    7.2070 H   0  0  0  0  0  0  0  0  0  0  0  0
    6.2846    1.1138    1.9378 H   0  0  0  0  0  0  0  0  0  0  0  0
    8.2555    1.8549    6.5447 H   0  0  0  0  0  0  0  0  0  0  0  0
   10.7388    1.2706    4.2545 H   0  0  0  0  0  0  0  0  0  0  0  0
   11.1985    3.6907    4.6148 H   0  0  0  0  0  0  0  0  0  0  0  0
    8.8961    4.9194    4.4619 H   0  0  0  0  0  0  0  0  0  0  0  0
    7.9058    4.5313    2.0278 H   0  0  0  0  0  0  0  0  0  0  0  0
    9.5989    3.0612    0.6804 H   0  0  0  0  0  0  0  0  0  0  0  0
   11.7961    2.6857    2.1893 H   0  0  0  0  0  0  0  0  0  0  0  0
   11.3949    4.4176    2.0754 H   0  0  0  0  0  0  0  0  0  0  0  0
    9.7726    0.8915    1.8907 H   0  0  0  0  0  0  0  0  0  0  0  0
  1  2  3  0  0  0  0
  2  3  1  0  0  0  0
  3  4  1  0  0  0  0
  4  5  3  0  0  0  0
  3  6  2  0  0  0  0
  6  7  1  0  0  0  0
  7  8  3  0  0  0  0
  6  9  1  0  0  0  0
  9 10  2  0  0  0  0
 10 11  1  0  0  0  0
 11 12  2  0  0  0  0
 12 13  1  0  0  0  0
 12 14  1  0  0  0  0
 14 15  2  0  0  0  0
 15 16  1  0  0  0  0
 16 17  1  0  0  0  0
 15 18  1  0  0  0  0
 18 19  2  0  0  0  0
 19 20  1  0  0  0  0
 19 21  1  0  0  0  0
 21 22  2  0  0  0  0
 22 23  1  0  0  0  0
 22 24  1  0  0  0  0
 24 25  1  0  0  0  0
 25 26  2  0  0  0  0
 26 27  1  0  0  0  0
 27 28  1  0  0  0  0
 28 29  2  0  0  0  0
 29 30  1  0  0  0  0
 30 31  1  0  0  0  0
 31 32  1  0  0  0  0
 32 33  1  0  0  0  0
 33 34  1  0  0  0  0
 34 35  2  0  0  0  0
 35 36  1  0  0  0  0
 36 37  1  0  0  0  0
 37 38  1  0  0  0  0
 38 39  1  0  0  0  0
 39 40  1  0  0  0  0
 40 41  1  0  0  0  0
 39 42  1  0  0  0  0
 42 43  1  0  0  0  0
 43 44  1  0  0  0  0
 44 45  1  0  0  0  0
 45 46  1  0  0  0  0
 35 47  1  0  0  0  0
 47 48  2  0  0  0  0
 48 49  1  0  0  0  0
 49 50  2  0  0  0  0
 49 51  1  0  0  0  0
 51 52  2  0  0  0  0
 52 53  1  0  0  0  0
 53 54  2  0  0  0  0
 54 55  1  0  0  0  0
 55 56  2  0  0  0  0
 56 57  1  0  0  0  0
 57 58  2  0  0  0  0
 58 59  1  0  0  0  0
 59 60  3  0  0  0  0
 58 61  1  0  0  0  0
 61 62  3  0  0  0  0
 54 63  1  0  0  0  0
 63 64  1  0  0  0  0
 64 65  1  0  0  0  0
 65 66  2  0  0  0  0
 66 67  1  0  0  0  0
 67 68  1  0  0  0  0
 67 69  1  0  0  0  0
 13  9  1  0  0  0  0
 20 14  1  0  0  0  0
 44 21  1  0  0  0  0
 57 48  1  0  0  0  0
 69 63  1  0  0  0  0
 23 18  1  0  0  0  0
 43 24  2  0  0  0  0
 56 51  1  0  0  0  0
 68 64  1  0  0  0  0
 29 25  1  0  0  0  0
 42 30  2  0  0  0  0
 69 53  1  0  0  0  0
 38 31  2  0  0  0  0
 37 33  2  0  0  0  0
 10 70  1  0  0  0  0
 11 71  1  0  0  0  0
 16 72  1  0  0  0  0
 16 73  1  0  0  0  0
 17 74  1  0  0  0  0
 17 75  1  0  0  0  0
 17 76  1  0  0  0  0
 34 77  1  0  0  0  0
 40 78  1  0  0  0  0
 40 79  1  0  0  0  0
 41 80  1  0  0  0  0
 41 81  1  0  0  0  0
 41 82  1  0  0  0  0
 45 83  1  0  0  0  0
 45 84  1  0  0  0  0
 46 85  1  0  0  0  0
 46 86  1  0  0  0  0
 46 87  1  0  0  0  0
 47 88  1  0  0  0  0
 52 89  1  0  0  0  0
 55 90  1  0  0  0  0
 63 91  1  0  0  0  0
 64 92  1  0  0  0  0
 65 93  1  0  0  0  0
 66 94  1  0  0  0  0
 67 95  1  0  0  0  0
 68 96  1  0  0  0  0
 68 97  1  0  0  0  0
 69 98  1  0  0  0  0
M  END
