111

N          1.33720        4.49850        7.74450
C          0.81760        5.43430        8.16050
C          0.21130        6.57530        8.71540
C          0.67030        6.92230       10.00360
N          1.05820        7.18890       11.04920
C         -0.75840        7.32640        8.08420
C         -1.26430        8.44960        8.79200
N         -1.67530        9.35640        9.35770
C         -1.30880        7.10490        6.79520
C         -2.28790        7.87990        6.18620
C         -2.63420        7.44210        4.91820
C         -1.92690        6.31670        4.51770
S         -0.82000        5.79830        5.75050
C         -2.00590        5.59660        3.29860
C         -2.70420        5.90930        2.14240
C         -3.49090        7.13400        1.91820
C         -2.81350        8.33010        1.70320
C         -3.51220        9.49690        1.45910
C         -4.89630        9.47260        1.42930
C         -5.57020        8.28350        1.64020
C         -4.88620        7.09880        1.88090
C         -5.64450        5.83270        2.16170
C         -5.77780        5.60070        3.66850
C         -2.51620        4.93130        1.15420
S         -3.09040        4.80240       -0.49240
C         -2.21030        3.32020       -0.64880
C         -1.92480        2.35510       -1.62370
C         -2.25670        2.30870       -2.99560
C         -1.70730        1.26120       -3.80280
N         -2.05070        1.37030       -5.07670
S         -2.99120        2.67650       -5.24340
N         -2.99330        3.15570       -3.69770
C         -0.94310        0.25070       -3.17890
C         -0.39110       -0.92650       -3.70000
S         -0.23830       -1.73690       -5.21860
C          0.55960       -3.05740       -4.39760
C          1.08700       -4.26760       -4.84900
C          1.03730       -4.73660       -6.24390
C          2.11860       -4.55810       -7.10630
C          3.36110       -3.83670       -6.66540
C          3.25930       -2.34580       -6.99430
C          2.00540       -5.02000       -8.41110
C          0.85350       -5.64540       -8.85110
C         -0.21340       -5.81960       -7.98590
C         -0.12120       -5.36700       -6.68360
C          1.58330       -5.03790       -3.80140
S          1.45810       -4.20180       -2.25250
C          0.69020       -2.85790       -3.01370
C          0.15250       -1.63260       -2.61870
N         -0.01500       -0.92190       -1.46030
C         -0.68180        0.25110       -1.77680
C         -1.09010        1.37500       -1.01000
N         -0.85640        1.76690        0.29850
C         -1.52220        2.94250        0.50940
C         -1.68860        3.87090        1.54280
S         -1.12560        4.07860        3.16060
C          0.16080        1.34510        1.23560
C          1.56340        1.53440        0.66390
C          0.13490       -1.59930       -0.19020
C         -1.21660       -1.86140        0.46840
C          2.18740       -6.30160       -3.93300
C          2.40250       -7.24840       -2.97170
C          3.46290       -8.26770       -3.14920
O          4.07630       -8.52140       -4.15960
C          3.64920       -8.86160       -1.80210
C          4.58910       -9.78440       -1.38840
C          4.57190      -10.16830       -0.05650
F          5.46770      -11.05840        0.38760
C          3.63320       -9.63630        0.82800
F          3.65040      -10.01660        2.11050
C          2.68090       -8.71770        0.41180
C          2.69420       -8.32930       -0.91740
C          1.81580       -7.43110       -1.66570
C          0.54170       -7.07910       -1.29870
C         -0.00790       -7.31740       -0.02460
N         -0.48920       -7.45410        1.00870
C         -0.38400       -6.51140       -2.19890
N         -1.17850       -6.10250       -2.92010
H         -2.72760        8.73640        6.66670
H         -3.37700        7.91570        4.30440
H         -1.73340        8.33540        1.72930
H         -2.97820       10.41990        1.29210
H         -5.45010       10.37990        1.24110
H         -6.65030        8.26840        1.61580
H         -5.13720        4.97910        1.70990
H         -6.64050        5.90450        1.72180
H         -6.35580        4.70030        3.86150
H         -6.28150        6.44250        4.13860
H         -4.79860        5.48730        4.12860
H          3.51090       -3.95910       -5.59070
H          4.22770       -4.25830       -7.17860
H          2.40640       -1.90000       -6.48760
H          4.16160       -1.82620       -6.68010
H          3.13060       -2.20300       -8.06450
H          2.83780       -4.88800       -9.08730
H          0.78870       -5.99920       -9.86920
H         -1.11450       -6.30920       -8.32250
H         -0.94040       -5.50270       -5.99310
H         -0.01210        0.31640        1.55160
H          0.04760        1.97410        2.12190
H          2.30430        1.19680        1.38340
H          1.74000        2.58700        0.45500
H          1.69130        0.97930       -0.26250
H          0.80490       -1.04400        0.46610
H          0.61920       -2.55510       -0.40480
H         -1.82290       -2.49940       -0.17060
H         -1.76050       -0.93500        0.63780
H         -1.07250       -2.36560        1.42000
H          2.60090       -6.52220       -4.91280
H          5.31300      -10.19740       -2.07250
H          1.97430       -8.33130        1.12840
