101

N         -2.04220        0.66040      -12.95070
C         -1.38070        1.53330      -13.29500
C         -0.58440        2.58670      -13.77960
C         -0.56690        2.71720      -15.18410
N         -0.56100        2.80920      -16.32720
C          0.14470        3.44450      -12.98290
C          0.90290        4.44800      -13.64310
N          1.51750        5.25960      -14.16770
C          0.22920        3.43470      -11.56620
C          0.99070        4.30460      -10.79790
C          0.90400        4.06250       -9.43610
C          0.06650        3.00420       -9.10910
S         -0.61490        2.30040      -10.54850
C         -0.30360        2.43030       -7.85880
S         -1.65600        1.29870       -7.91280
C         -1.47570        1.01470       -6.24040
C         -2.02560        0.18650       -5.25770
C         -2.97400       -0.85240       -5.36920
C         -3.18930       -1.70280       -4.23880
N         -4.04320       -2.68160       -4.49690
S         -4.53810       -2.53720       -6.03100
N         -3.67860       -1.22440       -6.42630
C         -2.53580       -1.39670       -3.02540
C         -2.61430       -2.02230       -1.77420
S         -3.36600       -3.39650       -1.04190
C         -2.64190       -2.93390        0.48790
C         -2.67610       -3.50960        1.75160
C         -3.47670       -4.73240        2.06010
C         -4.84220       -4.35740        2.64260
C         -1.91580       -2.76920        2.67270
S         -1.16910       -1.35190        1.93270
C         -1.86780       -1.76380        0.41240
C         -1.85270       -1.25490       -0.88940
N         -1.28480       -0.19040       -1.54570
C         -1.67700       -0.26490       -2.87850
C         -1.32970        0.46690       -4.04930
N         -0.36230        1.41830       -4.32570
C         -0.43780        1.75700       -5.66170
C          0.24520        2.57730       -6.58590
C          1.45270        3.42340       -6.31200
C          2.72630        2.75260       -6.83310
C          0.70450        1.85950       -3.46290
C          0.41860        3.23540       -2.85530
C         -0.95380        0.95630       -0.72240
C         -2.18290        1.83580       -0.50000
C         -1.76620       -3.14370        4.01290
C         -1.05010       -2.56870        5.03280
C         -0.22710       -1.36040        4.94210
O         -0.07520       -0.63320        3.97330
C          0.40050       -1.18370        6.26120
C          1.29280       -0.18180        6.63670
C          1.72980       -0.28170        7.93550
C          1.31210       -1.30510        8.79640
C          0.43260       -2.29930        8.43790
C         -0.02820       -2.21520        7.12040
C         -0.95080       -3.08060        6.38580
C         -1.60060       -4.16870        6.91170
C         -1.46700       -4.61300        8.24390
N         -1.41350       -5.03450        9.31070
C         -2.50360       -5.00480        6.22300
N         -3.25230       -5.73170        5.74090
C          2.14580       -0.79000        9.94320
C          1.39530       -0.02190       11.05150
C          2.48510        0.75480       11.75450
C          2.87910        1.72500       10.93970
C          2.06230        1.62030        9.67190
C          0.73710        1.11090       10.25320
C          2.61040        0.35210        8.98350
H          1.58840        5.08820      -11.23030
H          1.42980        4.66240       -8.71980
H         -2.95030       -5.38040        2.76240
H         -3.62550       -5.28520        1.13030
H         -5.41560       -5.25770        2.84330
H         -4.72610       -3.80960        3.57470
H         -5.39590       -3.73830        1.94050
H          1.32650        4.39940       -6.78080
H          1.56020        3.60150       -5.24570
H          2.66610        2.59130       -7.90590
H          2.87010        1.78660       -6.35350
H          3.59230        3.37570       -6.62300
H          0.85860        1.10040       -2.69440
H          1.62450        1.89840       -4.05240
H          0.37220        3.99490       -3.63170
H         -0.53730        3.24710       -2.33980
H          1.20400        3.50550       -2.15390
H         -0.60970        0.56100        0.23660
H         -0.14620        1.54020       -1.14730
H         -2.96680        1.26820       -0.00430
H         -1.92230        2.68420        0.12650
H         -2.57290        2.20060       -1.44870
H         -2.30180       -4.04910        4.26300
H          1.59270        0.58320        5.93770
H          0.12850       -3.08170        9.11240
H          2.89260       -1.47890       10.33320
H          0.75150       -0.63630       11.67470
H          2.88260        0.49290       12.71740
H          3.67160        2.43550       11.08570
H          2.02590        2.50300        9.03890
H          0.26130        1.84690       10.89910
H          0.02530        0.77010        9.50360
H          3.66750        0.42590        8.73470
