
  xtb     02022213003D
 energy: -176.987106320594 gnorm: 0.000555841140 xtb: 6.4.1 (unknown)
102114  0     0  0            999 V2000
   -4.7483    0.2211   13.2772 N   0  0  0  0  0  0  0  0  0  0  0  0
   -5.2969    1.1380   12.8547 C   0  0  0  0  0  0  0  0  0  0  0  0
   -5.9879    2.2659   12.3836 C   0  0  0  0  0  0  0  0  0  0  0  0
   -6.8210    2.8846   13.3380 C   0  0  0  0  0  0  0  0  0  0  0  0
   -7.4943    3.3730   14.1280 N   0  0  0  0  0  0  0  0  0  0  0  0
   -5.8964    2.7750   11.1012 C   0  0  0  0  0  0  0  0  0  0  0  0
   -6.6707    3.9303   10.8159 C   0  0  0  0  0  0  0  0  0  0  0  0
   -7.2869    4.8604   10.5554 N   0  0  0  0  0  0  0  0  0  0  0  0
   -5.1149    2.2663   10.0339 C   0  0  0  0  0  0  0  0  0  0  0  0
   -4.2794    1.1603    9.9774 C   0  0  0  0  0  0  0  0  0  0  0  0
   -3.6866    0.9851    8.7404 C   0  0  0  0  0  0  0  0  0  0  0  0
   -4.0356    1.9463    7.7932 C   0  0  0  0  0  0  0  0  0  0  0  0
   -5.1375    3.0907    8.4908 S   0  0  0  0  0  0  0  0  0  0  0  0
   -3.5617    1.9796    6.4564 C   0  0  0  0  0  0  0  0  0  0  0  0
   -2.6892    1.0214    5.9043 C   0  0  0  0  0  0  0  0  0  0  0  0
   -2.4735    1.4082    4.5908 C   0  0  0  0  0  0  0  0  0  0  0  0
   -3.1908    2.5991    4.3730 C   0  0  0  0  0  0  0  0  0  0  0  0
   -3.8478    2.9421    5.5041 N   0  0  0  0  0  0  0  0  0  0  0  0
   -4.7668    4.0521    5.5787 C   0  0  0  0  0  0  0  0  0  0  0  0
   -6.2066    3.6045    5.3392 C   0  0  0  0  0  0  0  0  0  0  0  0
   -2.9058    3.0243    3.0622 C   0  0  0  0  0  0  0  0  0  0  0  0
   -3.2177    4.2081    2.3577 C   0  0  0  0  0  0  0  0  0  0  0  0
   -2.6738    4.4047    1.0440 C   0  0  0  0  0  0  0  0  0  0  0  0
   -2.9999    5.5792    0.5294 N   0  0  0  0  0  0  0  0  0  0  0  0
   -3.9145    6.3776    1.5960 S   0  0  0  0  0  0  0  0  0  0  0  0
   -3.9298    5.2503    2.7646 N   0  0  0  0  0  0  0  0  0  0  0  0
   -1.9449    3.3559    0.4433 C   0  0  0  0  0  0  0  0  0  0  0  0
   -1.4628    3.1941   -0.8613 C   0  0  0  0  0  0  0  0  0  0  0  0
   -1.3724    4.0901   -2.3370 S   0  0  0  0  0  0  0  0  0  0  0  0
   -0.7067    2.6686   -3.1189 C   0  0  0  0  0  0  0  0  0  0  0  0
   -0.3099    2.4267   -4.4271 C   0  0  0  0  0  0  0  0  0  0  0  0
   -0.4172    3.4505   -5.5096 C   0  0  0  0  0  0  0  0  0  0  0  0
   -1.7187    3.2735   -6.2969 C   0  0  0  0  0  0  0  0  0  0  0  0
    0.1282    1.1019   -4.5915 C   0  0  0  0  0  0  0  0  0  0  0  0
    0.0445    0.1822   -3.0895 S   0  0  0  0  0  0  0  0  0  0  0  0
   -0.5611    1.5665   -2.2586 C   0  0  0  0  0  0  0  0  0  0  0  0
   -0.9815    1.8818   -0.9628 C   0  0  0  0  0  0  0  0  0  0  0  0
   -1.1157    1.2461    0.2431 N   0  0  0  0  0  0  0  0  0  0  0  0
   -1.6917    2.1324    1.1314 C   0  0  0  0  0  0  0  0  0  0  0  0
   -2.0599    2.0242    2.4960 C   0  0  0  0  0  0  0  0  0  0  0  0
   -1.7886    1.0551    3.4528 N   0  0  0  0  0  0  0  0  0  0  0  0
   -0.6406    0.1809    3.5565 C   0  0  0  0  0  0  0  0  0  0  0  0
   -1.0378   -1.2773    3.7733 C   0  0  0  0  0  0  0  0  0  0  0  0
   -0.9843   -0.1909    0.3279 C   0  0  0  0  0  0  0  0  0  0  0  0
    0.4714   -0.6530    0.2870 C   0  0  0  0  0  0  0  0  0  0  0  0
    0.5827    0.5978   -5.8153 C   0  0  0  0  0  0  0  0  0  0  0  0
    0.9903   -0.6621   -6.1740 C   0  0  0  0  0  0  0  0  0  0  0  0
    0.9978   -1.8505   -5.3173 C   0  0  0  0  0  0  0  0  0  0  0  0
    0.7362   -1.9098   -4.1264 O   0  0  0  0  0  0  0  0  0  0  0  0
    1.3825   -2.9806   -6.1787 C   0  0  0  0  0  0  0  0  0  0  0  0
    1.4782   -4.3208   -5.8126 C   0  0  0  0  0  0  0  0  0  0  0  0
    1.8450   -5.1563   -6.8402 C   0  0  0  0  0  0  0  0  0  0  0  0
    2.0929   -4.6928   -8.1388 C   0  0  0  0  0  0  0  0  0  0  0  0
    2.0024   -3.3729   -8.5129 C   0  0  0  0  0  0  0  0  0  0  0  0
    1.6375   -2.5044   -7.4809 C   0  0  0  0  0  0  0  0  0  0  0  0
    1.4386   -1.0558   -7.4950 C   0  0  0  0  0  0  0  0  0  0  0  0
    1.6780   -0.2340   -8.5675 C   0  0  0  0  0  0  0  0  0  0  0  0
    1.5175    1.1668   -8.5839 C   0  0  0  0  0  0  0  0  0  0  0  0
    1.4157    2.3078   -8.6791 N   0  0  0  0  0  0  0  0  0  0  0  0
    2.1506   -0.6746   -9.8214 C   0  0  0  0  0  0  0  0  0  0  0  0
    2.5361   -0.9554  -10.8660 N   0  0  0  0  0  0  0  0  0  0  0  0
    2.4119   -6.0725   -8.6567 C   0  0  0  0  0  0  0  0  0  0  0  0
    3.9019   -6.4333   -8.8748 C   0  0  0  0  0  0  0  0  0  0  0  0
    4.6951   -5.5737   -7.9221 C   0  0  0  0  0  0  0  0  0  0  0  0
    4.4635   -6.0126   -6.6922 C   0  0  0  0  0  0  0  0  0  0  0  0
    3.5091   -7.1769   -6.7909 C   0  0  0  0  0  0  0  0  0  0  0  0
    3.9541   -7.7787   -8.1334 C   0  0  0  0  0  0  0  0  0  0  0  0
    2.1384   -6.5891   -7.2089 C   0  0  0  0  0  0  0  0  0  0  0  0
   -4.1133    0.5054   10.8128 H   0  0  0  0  0  0  0  0  0  0  0  0
   -3.0127    0.1767    8.5284 H   0  0  0  0  0  0  0  0  0  0  0  0
   -2.2901    0.1737    6.4217 H   0  0  0  0  0  0  0  0  0  0  0  0
   -4.6716    4.5463    6.5480 H   0  0  0  0  0  0  0  0  0  0  0  0
   -4.4767    4.7561    4.7934 H   0  0  0  0  0  0  0  0  0  0  0  0
   -6.5156    2.8589    6.0679 H   0  0  0  0  0  0  0  0  0  0  0  0
   -6.3001    3.1784    4.3431 H   0  0  0  0  0  0  0  0  0  0  0  0
   -6.8710    4.4594    5.4167 H   0  0  0  0  0  0  0  0  0  0  0  0
   -0.4135    4.4390   -5.0461 H   0  0  0  0  0  0  0  0  0  0  0  0
    0.4317    3.3904   -6.1924 H   0  0  0  0  0  0  0  0  0  0  0  0
   -1.7573    2.2909   -6.7617 H   0  0  0  0  0  0  0  0  0  0  0  0
   -2.5768    3.3787   -5.6370 H   0  0  0  0  0  0  0  0  0  0  0  0
   -1.7834    4.0269   -7.0766 H   0  0  0  0  0  0  0  0  0  0  0  0
   -0.0454    0.5105    4.4179 H   0  0  0  0  0  0  0  0  0  0  0  0
   -0.0248    0.2951    2.6684 H   0  0  0  0  0  0  0  0  0  0  0  0
   -0.1441   -1.8921    3.8341 H   0  0  0  0  0  0  0  0  0  0  0  0
   -1.5955   -1.3822    4.6991 H   0  0  0  0  0  0  0  0  0  0  0  0
   -1.6608   -1.6505    2.9643 H   0  0  0  0  0  0  0  0  0  0  0  0
   -1.4900   -0.5285    1.2299 H   0  0  0  0  0  0  0  0  0  0  0  0
   -1.5057   -0.6246   -0.5329 H   0  0  0  0  0  0  0  0  0  0  0  0
    0.8905   -0.4906   -0.7016 H   0  0  0  0  0  0  0  0  0  0  0  0
    1.0862   -0.1171    1.0067 H   0  0  0  0  0  0  0  0  0  0  0  0
    0.5207   -1.7155    0.5065 H   0  0  0  0  0  0  0  0  0  0  0  0
    0.5911    1.3389   -6.6025 H   0  0  0  0  0  0  0  0  0  0  0  0
    1.2719   -4.6353   -4.8014 H   0  0  0  0  0  0  0  0  0  0  0  0
    2.1908   -3.0359   -9.5183 H   0  0  0  0  0  0  0  0  0  0  0  0
    1.7743   -6.4399   -9.4584 H   0  0  0  0  0  0  0  0  0  0  0  0
    4.2219   -6.4199   -9.9131 H   0  0  0  0  0  0  0  0  0  0  0  0
    5.2794   -4.7252   -8.2266 H   0  0  0  0  0  0  0  0  0  0  0  0
    4.8157   -5.6039   -5.7631 H   0  0  0  0  0  0  0  0  0  0  0  0
    3.4721   -7.8420   -5.9319 H   0  0  0  0  0  0  0  0  0  0  0  0
    4.9577   -8.1994   -8.0943 H   0  0  0  0  0  0  0  0  0  0  0  0
    3.2599   -8.5191   -8.5286 H   0  0  0  0  0  0  0  0  0  0  0  0
    1.3228   -7.2954   -7.0654 H   0  0  0  0  0  0  0  0  0  0  0  0
  1  2  3  0  0  0  0
  2  3  1  0  0  0  0
  3  4  1  0  0  0  0
  4  5  3  0  0  0  0
  3  6  2  0  0  0  0
  6  7  1  0  0  0  0
  7  8  3  0  0  0  0
  6  9  1  0  0  0  0
  9 10  2  0  0  0  0
 10 11  1  0  0  0  0
 11 12  2  0  0  0  0
 12 13  1  0  0  0  0
 12 14  1  0  0  0  0
 14 15  2  0  0  0  0
 15 16  1  0  0  0  0
 16 17  2  0  0  0  0
 17 18  1  0  0  0  0
 18 19  1  0  0  0  0
 19 20  1  0  0  0  0
 17 21  1  0  0  0  0
 21 22  1  0  0  0  0
 22 23  1  0  0  0  0
 23 24  2  0  0  0  0
 24 25  1  0  0  0  0
 25 26  1  0  0  0  0
 23 27  1  0  0  0  0
 27 28  1  0  0  0  0
 28 29  1  0  0  0  0
 29 30  1  0  0  0  0
 30 31  1  0  0  0  0
 31 32  1  0  0  0  0
 32 33  1  0  0  0  0
 31 34  2  0  0  0  0
 34 35  1  0  0  0  0
 35 36  1  0  0  0  0
 36 37  1  0  0  0  0
 37 38  1  0  0  0  0
 38 39  1  0  0  0  0
 39 40  1  0  0  0  0
 40 41  1  0  0  0  0
 41 42  1  0  0  0  0
 42 43  1  0  0  0  0
 38 44  1  0  0  0  0
 44 45  1  0  0  0  0
 34 46  1  0  0  0  0
 46 47  2  0  0  0  0
 47 48  1  0  0  0  0
 48 49  2  0  0  0  0
 48 50  1  0  0  0  0
 50 51  2  0  0  0  0
 51 52  1  0  0  0  0
 52 53  2  0  0  0  0
 53 54  1  0  0  0  0
 54 55  2  0  0  0  0
 55 56  1  0  0  0  0
 56 57  2  0  0  0  0
 57 58  1  0  0  0  0
 58 59  3  0  0  0  0
 57 60  1  0  0  0  0
 60 61  3  0  0  0  0
 53 62  1  0  0  0  0
 62 63  1  0  0  0  0
 63 64  1  0  0  0  0
 64 65  2  0  0  0  0
 65 66  1  0  0  0  0
 66 67  1  0  0  0  0
 66 68  1  0  0  0  0
 13  9  1  0  0  0  0
 18 14  1  0  0  0  0
 40 21  2  0  0  0  0
 56 47  1  0  0  0  0
 68 62  1  0  0  0  0
 41 16  1  0  0  0  0
 55 50  1  0  0  0  0
 67 63  1  0  0  0  0
 26 22  2  0  0  0  0
 39 27  2  0  0  0  0
 68 52  1  0  0  0  0
 37 28  2  0  0  0  0
 36 30  2  0  0  0  0
 10 69  1  0  0  0  0
 11 70  1  0  0  0  0
 15 71  1  0  0  0  0
 19 72  1  0  0  0  0
 19 73  1  0  0  0  0
 20 74  1  0  0  0  0
 20 75  1  0  0  0  0
 20 76  1  0  0  0  0
 32 77  1  0  0  0  0
 32 78  1  0  0  0  0
 33 79  1  0  0  0  0
 33 80  1  0  0  0  0
 33 81  1  0  0  0  0
 42 82  1  0  0  0  0
 42 83  1  0  0  0  0
 43 84  1  0  0  0  0
 43 85  1  0  0  0  0
 43 86  1  0  0  0  0
 44 87  1  0  0  0  0
 44 88  1  0  0  0  0
 45 89  1  0  0  0  0
 45 90  1  0  0  0  0
 45 91  1  0  0  0  0
 46 92  1  0  0  0  0
 51 93  1  0  0  0  0
 54 94  1  0  0  0  0
 62 95  1  0  0  0  0
 63 96  1  0  0  0  0
 64 97  1  0  0  0  0
 65 98  1  0  0  0  0
 66 99  1  0  0  0  0
 67100  1  0  0  0  0
 67101  1  0  0  0  0
 68102  1  0  0  0  0
M  END
