98

N        -12.61800        3.45770       -1.68350
C        -12.87600        4.49890       -1.27220
C        -13.24620        5.76470       -0.78670
C        -14.61220        6.08090       -0.93780
N        -15.72570        6.32240       -1.06820
C        -12.37330        6.66180       -0.20320
C        -12.91880        7.90030        0.22850
N        -13.35400        8.90020        0.57780
C        -10.98330        6.48560        0.01270
C        -10.12530        7.41190        0.59380
C         -8.81370        6.97500        0.67380
C         -8.62710        5.70060        0.15820
S        -10.11710        5.03810       -0.43700
C         -7.42770        4.95820        0.07540
S         -5.91040        5.65350        0.64470
C         -5.07740        4.21910        0.18720
C         -3.80660        3.65020        0.18750
S         -2.20400        4.04620        0.73510
C         -1.68720        2.49690        0.17180
C         -0.48810        1.76760        0.12140
C          0.82740        2.11580        0.49890
C          1.88620        1.18170        0.25170
N          3.07140        1.65560        0.60330
S          2.86990        3.14610        1.20060
N          1.26510        3.24630        1.03150
C          1.55690       -0.10140       -0.23650
C          2.32580       -1.26110       -0.35960
S          3.95120       -1.73650       -0.14640
C          3.48860       -3.40790       -0.46990
C          2.12820       -3.56520       -0.74470
C          1.54320       -4.93370       -0.90000
C          1.40880       -5.61480        0.46530
C          1.46870       -2.32590       -0.68330
N          0.18980       -1.82490       -0.81620
C          0.21880       -0.46970       -0.55270
C         -0.79020        0.52410       -0.48840
N         -2.13780        0.51980       -0.86630
C         -2.68220        1.71720       -0.42800
C         -3.93000        2.36390       -0.39800
N         -5.24820        2.13620       -0.72160
C         -5.95000        3.26240       -0.37710
C         -7.27680        3.68170       -0.43480
C         -5.88440        0.93370       -1.20210
C         -6.24490        1.02980       -2.68430
C         -2.60750       -0.01290       -2.13570
C         -1.67600        0.36820       -3.28470
C         -0.97110       -2.66890       -0.95840
C         -1.17910       -3.14200       -2.39900
C          4.47220       -4.41730       -0.52630
C          5.71630       -4.41810        0.03460
C          6.78490       -5.27540       -0.53310
O          6.64930       -6.18040       -1.32630
C          8.04470       -4.74230        0.03000
C          9.33180       -5.08480       -0.26630
C         10.38970       -4.40300        0.37710
C         11.73530       -4.71590        0.10350
C         12.74150       -4.03670        0.73110
F         14.02180       -4.33500        0.46740
C         12.44740       -3.01770        1.65820
F         13.45460       -2.36770        2.25790
C         11.15180       -2.69190        1.94560
C         10.09110       -3.37400        1.31660
C          8.74730       -3.04830        1.61220
C          7.74050       -3.72640        0.98090
C          6.28870       -3.62860        1.10060
C          5.61260       -3.12660        2.18300
C          6.23490       -2.45420        3.25220
N          6.69880       -1.89620        4.14180
C          4.23200       -3.33150        2.38030
N          3.12370       -3.54260        2.59430
H        -10.46470        8.37190        0.94150
H         -8.00620        7.55010        1.09000
H          2.19620       -5.53780       -1.53420
H          0.56660       -4.89300       -1.37570
H          2.38250       -5.71780        0.93590
H          0.78170       -5.02490        1.12920
H          0.96770       -6.60180        0.34910
H         -8.10440        3.11360       -0.82040
H         -5.22290        0.08630       -1.01030
H         -6.79930        0.78310       -0.61990
H         -6.94700        1.84300       -2.84690
H         -5.36420        1.21870       -3.29450
H         -6.70560        0.10270       -3.01340
H         -3.58160        0.43380       -2.32210
H         -2.74060       -1.09290       -2.08490
H         -1.58940        1.45070       -3.34990
H         -2.07660       -0.00430       -4.22450
H         -0.67990       -0.04170       -3.13830
H         -1.83920       -2.12060       -0.58940
H         -0.83640       -3.53780       -0.30710
H         -1.32870       -2.30960       -3.07850
H         -0.30940       -3.68990       -2.75100
H         -2.04490       -3.79740       -2.44860
H          4.26690       -5.26300       -1.17620
H          9.54260       -5.86350       -0.98340
H         11.97720       -5.49310       -0.60430
H         10.94370       -1.91140        2.66040
H          8.54530       -2.26150        2.32160
