
  xtb     02012216323D
 energy: -174.743316045949 gnorm: 0.000577430157 xtb: 6.4.1 (unknown)
 92102  0     0  0            999 V2000
   10.1571    5.5804    9.3744 N   0  0  0  0  0  0  0  0  0  0  0  0
   10.4686    5.5243    8.2704 C   0  0  0  0  0  0  0  0  0  0  0  0
   10.8971    5.4811    6.9330 C   0  0  0  0  0  0  0  0  0  0  0  0
   12.1547    6.0779    6.7031 C   0  0  0  0  0  0  0  0  0  0  0  0
   13.1777    6.5681    6.5349 N   0  0  0  0  0  0  0  0  0  0  0  0
   10.1903    4.9199    5.8875 C   0  0  0  0  0  0  0  0  0  0  0  0
   10.7979    4.9792    4.6052 C   0  0  0  0  0  0  0  0  0  0  0  0
   11.2710    5.0166    3.5627 N   0  0  0  0  0  0  0  0  0  0  0  0
    8.9181    4.2935    5.9522 C   0  0  0  0  0  0  0  0  0  0  0  0
    8.0813    4.0751    7.0368 C   0  0  0  0  0  0  0  0  0  0  0  0
    6.8996    3.4354    6.6983 C   0  0  0  0  0  0  0  0  0  0  0  0
    6.7917    3.1427    5.3465 C   0  0  0  0  0  0  0  0  0  0  0  0
    8.1978    3.6730    4.4810 S   0  0  0  0  0  0  0  0  0  0  0  0
    5.7153    2.5180    4.6759 C   0  0  0  0  0  0  0  0  0  0  0  0
    4.2769    2.0344    5.5732 S   0  0  0  0  0  0  0  0  0  0  0  0
    3.5573    1.4701    4.1167 C   0  0  0  0  0  0  0  0  0  0  0  0
    2.3792    0.9105    3.6317 C   0  0  0  0  0  0  0  0  0  0  0  0
    0.8292    0.4552    4.2672 S   0  0  0  0  0  0  0  0  0  0  0  0
    0.3737    0.0129    2.6622 C   0  0  0  0  0  0  0  0  0  0  0  0
   -0.7940   -0.4275    2.0303 C   0  0  0  0  0  0  0  0  0  0  0  0
   -2.1225   -0.5177    2.5023 C   0  0  0  0  0  0  0  0  0  0  0  0
   -3.1787   -0.7008    1.5495 C   0  0  0  0  0  0  0  0  0  0  0  0
   -4.3773   -0.6665    2.1106 N   0  0  0  0  0  0  0  0  0  0  0  0
   -4.1924   -0.4332    3.7009 S   0  0  0  0  0  0  0  0  0  0  0  0
   -2.5767   -0.3604    3.7356 N   0  0  0  0  0  0  0  0  0  0  0  0
   -2.8409   -0.9299    0.1981 C   0  0  0  0  0  0  0  0  0  0  0  0
   -3.6348   -1.1485   -0.9370 C   0  0  0  0  0  0  0  0  0  0  0  0
   -5.2832   -1.1061   -1.3757 S   0  0  0  0  0  0  0  0  0  0  0  0
   -4.8359   -1.4494   -3.0497 C   0  0  0  0  0  0  0  0  0  0  0  0
   -3.4625   -1.6155   -3.2279 C   0  0  0  0  0  0  0  0  0  0  0  0
   -2.8611   -1.8534   -4.5801 C   0  0  0  0  0  0  0  0  0  0  0  0
   -2.7974   -3.3433   -4.9292 C   0  0  0  0  0  0  0  0  0  0  0  0
   -2.7857   -1.4283   -2.0160 C   0  0  0  0  0  0  0  0  0  0  0  0
   -1.4655   -1.3849   -1.5838 N   0  0  0  0  0  0  0  0  0  0  0  0
   -1.4924   -1.0186   -0.2354 C   0  0  0  0  0  0  0  0  0  0  0  0
   -0.4691   -0.6186    0.6600 C   0  0  0  0  0  0  0  0  0  0  0  0
    0.8482   -0.2445    0.4738 N   0  0  0  0  0  0  0  0  0  0  0  0
    1.3687    0.1646    1.6819 C   0  0  0  0  0  0  0  0  0  0  0  0
    2.5382    0.7337    2.2327 C   0  0  0  0  0  0  0  0  0  0  0  0
    3.7986    1.1716    1.8678 N   0  0  0  0  0  0  0  0  0  0  0  0
    4.4078    1.6411    3.0057 C   0  0  0  0  0  0  0  0  0  0  0  0
    5.6261    2.2376    3.3250 C   0  0  0  0  0  0  0  0  0  0  0  0
    4.3253    1.5029    0.5649 C   0  0  0  0  0  0  0  0  0  0  0  0
    3.8324    2.8705    0.0934 C   0  0  0  0  0  0  0  0  0  0  0  0
    1.5826   -0.1778   -0.7628 C   0  0  0  0  0  0  0  0  0  0  0  0
    2.6218   -1.2996   -0.8485 C   0  0  0  0  0  0  0  0  0  0  0  0
   -0.5545   -2.3901   -2.1034 C   0  0  0  0  0  0  0  0  0  0  0  0
   -0.8897   -3.7743   -1.5463 C   0  0  0  0  0  0  0  0  0  0  0  0
   -5.8339   -1.5750   -4.0406 C   0  0  0  0  0  0  0  0  0  0  0  0
   -7.0838   -1.0268   -4.0459 C   0  0  0  0  0  0  0  0  0  0  0  0
   -8.1566   -1.6207   -4.8783 C   0  0  0  0  0  0  0  0  0  0  0  0
   -8.0316   -2.4543   -5.7461 O   0  0  0  0  0  0  0  0  0  0  0  0
   -9.4115   -1.0114   -4.3765 C   0  0  0  0  0  0  0  0  0  0  0  0
  -10.7131   -1.2995   -4.7333 C   0  0  0  0  0  0  0  0  0  0  0  0
  -11.7393   -0.6066   -4.1015 C   0  0  0  0  0  0  0  0  0  0  0  0
  -13.3831   -0.9197   -4.4997 Cl  0  0  0  0  0  0  0  0  0  0  0  0
  -11.4281    0.3516   -3.1337 C   0  0  0  0  0  0  0  0  0  0  0  0
  -12.4236    1.0036   -2.5217 F   0  0  0  0  0  0  0  0  0  0  0  0
  -10.1233    0.6561   -2.7779 C   0  0  0  0  0  0  0  0  0  0  0  0
   -9.1040   -0.0362   -3.4098 C   0  0  0  0  0  0  0  0  0  0  0  0
   -7.6519    0.0718   -3.2969 C   0  0  0  0  0  0  0  0  0  0  0  0
   -6.9727    1.1681   -2.8313 C   0  0  0  0  0  0  0  0  0  0  0  0
   -7.5887    2.2617   -2.1916 C   0  0  0  0  0  0  0  0  0  0  0  0
   -8.0416    3.1686   -1.6534 N   0  0  0  0  0  0  0  0  0  0  0  0
   -5.5917    1.3624   -3.0411 C   0  0  0  0  0  0  0  0  0  0  0  0
   -4.4846    1.5801   -3.2544 N   0  0  0  0  0  0  0  0  0  0  0  0
    8.3278    4.3750    8.0388 H   0  0  0  0  0  0  0  0  0  0  0  0
    6.1269    3.1839    7.4026 H   0  0  0  0  0  0  0  0  0  0  0  0
   -1.8618   -1.4168   -4.6155 H   0  0  0  0  0  0  0  0  0  0  0  0
   -3.4642   -1.3365   -5.3273 H   0  0  0  0  0  0  0  0  0  0  0  0
   -3.7920   -3.7815   -4.9163 H   0  0  0  0  0  0  0  0  0  0  0  0
   -2.1789   -3.8893   -4.2214 H   0  0  0  0  0  0  0  0  0  0  0  0
   -2.3785   -3.4726   -5.9240 H   0  0  0  0  0  0  0  0  0  0  0  0
    6.4192    2.4718    2.6376 H   0  0  0  0  0  0  0  0  0  0  0  0
    5.4143    1.5157    0.6543 H   0  0  0  0  0  0  0  0  0  0  0  0
    4.0616    0.7301   -0.1544 H   0  0  0  0  0  0  0  0  0  0  0  0
    4.2293    3.0904   -0.8938 H   0  0  0  0  0  0  0  0  0  0  0  0
    2.7454    2.8957    0.0495 H   0  0  0  0  0  0  0  0  0  0  0  0
    4.1613    3.6453    0.7816 H   0  0  0  0  0  0  0  0  0  0  0  0
    0.8754   -0.2142   -1.5921 H   0  0  0  0  0  0  0  0  0  0  0  0
    2.0791    0.7949   -0.8131 H   0  0  0  0  0  0  0  0  0  0  0  0
    3.1839   -1.2234   -1.7758 H   0  0  0  0  0  0  0  0  0  0  0  0
    2.1535   -2.2802   -0.8036 H   0  0  0  0  0  0  0  0  0  0  0  0
    3.3110   -1.2420   -0.0092 H   0  0  0  0  0  0  0  0  0  0  0  0
    0.4677   -2.1452   -1.8407 H   0  0  0  0  0  0  0  0  0  0  0  0
   -0.6387   -2.3909   -3.1894 H   0  0  0  0  0  0  0  0  0  0  0  0
   -1.9177   -4.0438   -1.7775 H   0  0  0  0  0  0  0  0  0  0  0  0
   -0.2262   -4.5196   -1.9777 H   0  0  0  0  0  0  0  0  0  0  0  0
   -0.7704   -3.7842   -0.4647 H   0  0  0  0  0  0  0  0  0  0  0  0
   -5.6280   -2.2513   -4.8638 H   0  0  0  0  0  0  0  0  0  0  0  0
  -10.9266   -2.0430   -5.4845 H   0  0  0  0  0  0  0  0  0  0  0  0
   -9.9439    1.4041   -2.0224 H   0  0  0  0  0  0  0  0  0  0  0  0
  1  2  3  0  0  0  0
  2  3  1  0  0  0  0
  3  4  1  0  0  0  0
  4  5  3  0  0  0  0
  3  6  2  0  0  0  0
  6  7  1  0  0  0  0
  7  8  3  0  0  0  0
  6  9  1  0  0  0  0
  9 10  2  0  0  0  0
 10 11  1  0  0  0  0
 11 12  2  0  0  0  0
 12 13  1  0  0  0  0
 12 14  1  0  0  0  0
 14 15  1  0  0  0  0
 15 16  1  0  0  0  0
 16 17  1  0  0  0  0
 17 18  1  0  0  0  0
 18 19  1  0  0  0  0
 19 20  1  0  0  0  0
 20 21  1  0  0  0  0
 21 22  1  0  0  0  0
 22 23  2  0  0  0  0
 23 24  1  0  0  0  0
 24 25  1  0  0  0  0
 22 26  1  0  0  0  0
 26 27  1  0  0  0  0
 27 28  1  0  0  0  0
 28 29  1  0  0  0  0
 29 30  2  0  0  0  0
 30 31  1  0  0  0  0
 31 32  1  0  0  0  0
 30 33  1  0  0  0  0
 33 34  1  0  0  0  0
 34 35  1  0  0  0  0
 35 36  1  0  0  0  0
 36 37  1  0  0  0  0
 37 38  1  0  0  0  0
 38 39  1  0  0  0  0
 39 40  1  0  0  0  0
 40 41  1  0  0  0  0
 41 42  1  0  0  0  0
 40 43  1  0  0  0  0
 43 44  1  0  0  0  0
 37 45  1  0  0  0  0
 45 46  1  0  0  0  0
 34 47  1  0  0  0  0
 47 48  1  0  0  0  0
 29 49  1  0  0  0  0
 49 50  2  0  0  0  0
 50 51  1  0  0  0  0
 51 52  2  0  0  0  0
 51 53  1  0  0  0  0
 53 54  2  0  0  0  0
 54 55  1  0  0  0  0
 55 56  1  0  0  0  0
 55 57  2  0  0  0  0
 57 58  1  0  0  0  0
 57 59  1  0  0  0  0
 59 60  2  0  0  0  0
 60 61  1  0  0  0  0
 61 62  2  0  0  0  0
 62 63  1  0  0  0  0
 63 64  3  0  0  0  0
 62 65  1  0  0  0  0
 65 66  3  0  0  0  0
 13  9  1  0  0  0  0
 42 14  2  0  0  0  0
 61 50  1  0  0  0  0
 41 16  2  0  0  0  0
 60 53  1  0  0  0  0
 39 17  2  0  0  0  0
 38 19  2  0  0  0  0
 36 20  2  0  0  0  0
 25 21  2  0  0  0  0
 35 26  2  0  0  0  0
 33 27  2  0  0  0  0
 10 67  1  0  0  0  0
 11 68  1  0  0  0  0
 31 69  1  0  0  0  0
 31 70  1  0  0  0  0
 32 71  1  0  0  0  0
 32 72  1  0  0  0  0
 32 73  1  0  0  0  0
 42 74  1  0  0  0  0
 43 75  1  0  0  0  0
 43 76  1  0  0  0  0
 44 77  1  0  0  0  0
 44 78  1  0  0  0  0
 44 79  1  0  0  0  0
 45 80  1  0  0  0  0
 45 81  1  0  0  0  0
 46 82  1  0  0  0  0
 46 83  1  0  0  0  0
 46 84  1  0  0  0  0
 47 85  1  0  0  0  0
 47 86  1  0  0  0  0
 48 87  1  0  0  0  0
 48 88  1  0  0  0  0
 48 89  1  0  0  0  0
 49 90  1  0  0  0  0
 54 91  1  0  0  0  0
 59 92  1  0  0  0  0
M  END
