
  xtb     02012219213D
 energy: -178.951763407972 gnorm: 0.000480251167 xtb: 6.4.1 (unknown)
 91101  0     0  0            999 V2000
   -8.9241    9.4131   -0.4880 N   0  0  0  0  0  0  0  0  0  0  0  0
   -8.7212    9.3515   -1.6166 C   0  0  0  0  0  0  0  0  0  0  0  0
   -8.5059    9.3173   -3.0051 C   0  0  0  0  0  0  0  0  0  0  0  0
   -9.2444   10.2744   -3.7334 C   0  0  0  0  0  0  0  0  0  0  0  0
   -9.8497   11.0609   -4.3075 N   0  0  0  0  0  0  0  0  0  0  0  0
   -7.6566    8.4464   -3.6571 C   0  0  0  0  0  0  0  0  0  0  0  0
   -7.5765    8.5703   -5.0699 C   0  0  0  0  0  0  0  0  0  0  0  0
   -7.4953    8.6530   -6.2092 N   0  0  0  0  0  0  0  0  0  0  0  0
   -6.8476    7.4391   -3.0677 C   0  0  0  0  0  0  0  0  0  0  0  0
   -6.6929    7.0814   -1.7371 C   0  0  0  0  0  0  0  0  0  0  0  0
   -5.7875    6.0505   -1.5526 C   0  0  0  0  0  0  0  0  0  0  0  0
   -5.2125    5.5840   -2.7291 C   0  0  0  0  0  0  0  0  0  0  0  0
   -5.8350    6.4483   -4.0954 S   0  0  0  0  0  0  0  0  0  0  0  0
   -4.2413    4.5565   -2.8224 C   0  0  0  0  0  0  0  0  0  0  0  0
   -3.5489    4.0562   -3.9139 C   0  0  0  0  0  0  0  0  0  0  0  0
   -3.7130    4.4642   -5.3403 C   0  0  0  0  0  0  0  0  0  0  0  0
   -4.8662    3.7037   -5.9984 C   0  0  0  0  0  0  0  0  0  0  0  0
   -2.6465    3.0551   -3.5249 C   0  0  0  0  0  0  0  0  0  0  0  0
   -1.4981    2.1009   -4.4352 S   0  0  0  0  0  0  0  0  0  0  0  0
   -0.9888    1.3565   -2.9598 C   0  0  0  0  0  0  0  0  0  0  0  0
   -0.0182    0.4519   -2.5086 C   0  0  0  0  0  0  0  0  0  0  0  0
    1.0343   -0.1894   -3.1988 C   0  0  0  0  0  0  0  0  0  0  0  0
    2.0131   -0.9142   -2.4448 C   0  0  0  0  0  0  0  0  0  0  0  0
    2.9767   -1.4062   -3.2078 N   0  0  0  0  0  0  0  0  0  0  0  0
    2.6742   -0.9967   -4.7437 S   0  0  0  0  0  0  0  0  0  0  0  0
    1.3039   -0.1730   -4.4947 N   0  0  0  0  0  0  0  0  0  0  0  0
    1.8331   -1.0546   -1.0510 C   0  0  0  0  0  0  0  0  0  0  0  0
    2.5930   -1.7347   -0.0907 C   0  0  0  0  0  0  0  0  0  0  0  0
    4.0895   -2.5881    0.0311 S   0  0  0  0  0  0  0  0  0  0  0  0
    3.8040   -2.8056    1.7438 C   0  0  0  0  0  0  0  0  0  0  0  0
    4.5948   -3.3165    2.7785 C   0  0  0  0  0  0  0  0  0  0  0  0
    5.9001   -4.0111    2.5668 C   0  0  0  0  0  0  0  0  0  0  0  0
    5.7964   -5.1218    1.5214 C   0  0  0  0  0  0  0  0  0  0  0  0
    3.9601   -3.1758    4.0118 C   0  0  0  0  0  0  0  0  0  0  0  0
    2.3453   -2.4841    3.8560 S   0  0  0  0  0  0  0  0  0  0  0  0
    2.5789   -2.2656    2.1668 C   0  0  0  0  0  0  0  0  0  0  0  0
    1.8977   -1.6416    1.1202 C   0  0  0  0  0  0  0  0  0  0  0  0
    0.7524   -0.9113    0.9502 N   0  0  0  0  0  0  0  0  0  0  0  0
    0.7016   -0.5100   -0.3747 C   0  0  0  0  0  0  0  0  0  0  0  0
   -0.1727    0.3455   -1.0955 C   0  0  0  0  0  0  0  0  0  0  0  0
   -1.2042    1.1857   -0.7086 N   0  0  0  0  0  0  0  0  0  0  0  0
   -1.6819    1.8054   -1.8303 C   0  0  0  0  0  0  0  0  0  0  0  0
   -2.6295    2.7820   -2.1533 C   0  0  0  0  0  0  0  0  0  0  0  0
   -3.7627    3.7735   -1.3129 S   0  0  0  0  0  0  0  0  0  0  0  0
   -1.5450    1.7097    0.5950 C   0  0  0  0  0  0  0  0  0  0  0  0
   -0.3744    2.4626    1.2221 C   0  0  0  0  0  0  0  0  0  0  0  0
   -0.2991   -0.9958    1.9404 C   0  0  0  0  0  0  0  0  0  0  0  0
   -1.5073   -1.7624    1.4089 C   0  0  0  0  0  0  0  0  0  0  0  0
    4.3805   -3.4912    5.3173 C   0  0  0  0  0  0  0  0  0  0  0  0
    5.6389   -3.4971    5.8557 C   0  0  0  0  0  0  0  0  0  0  0  0
    5.8725   -4.2242    7.1282 C   0  0  0  0  0  0  0  0  0  0  0  0
    5.0367   -4.7158    7.8455 O   0  0  0  0  0  0  0  0  0  0  0  0
    7.3496   -4.2431    7.2903 C   0  0  0  0  0  0  0  0  0  0  0  0
    7.9452   -3.4939    6.2590 C   0  0  0  0  0  0  0  0  0  0  0  0
    9.3211   -3.3769    6.1720 C   0  0  0  0  0  0  0  0  0  0  0  0
   10.0911   -4.0157    7.1337 C   0  0  0  0  0  0  0  0  0  0  0  0
   11.4209   -3.9255    7.0653 F   0  0  0  0  0  0  0  0  0  0  0  0
    9.5191   -4.7516    8.1691 C   0  0  0  0  0  0  0  0  0  0  0  0
   10.2946   -5.3454    9.0791 F   0  0  0  0  0  0  0  0  0  0  0  0
    8.1287   -4.8671    8.2482 C   0  0  0  0  0  0  0  0  0  0  0  0
    7.5886   -5.5720    9.2363 F   0  0  0  0  0  0  0  0  0  0  0  0
    6.8855   -2.9157    5.4282 C   0  0  0  0  0  0  0  0  0  0  0  0
    7.0502   -1.8444    4.5856 C   0  0  0  0  0  0  0  0  0  0  0  0
    5.9869   -1.1083    4.0263 C   0  0  0  0  0  0  0  0  0  0  0  0
    5.1703   -0.4333    3.5843 N   0  0  0  0  0  0  0  0  0  0  0  0
    8.2994   -1.2815    4.2545 C   0  0  0  0  0  0  0  0  0  0  0  0
    9.2888   -0.8006    3.9270 N   0  0  0  0  0  0  0  0  0  0  0  0
   -7.2199    7.5586   -0.9317 H   0  0  0  0  0  0  0  0  0  0  0  0
   -5.5375    5.6422   -0.5893 H   0  0  0  0  0  0  0  0  0  0  0  0
   -2.7854    4.2344   -5.8687 H   0  0  0  0  0  0  0  0  0  0  0  0
   -3.8916    5.5386   -5.4121 H   0  0  0  0  0  0  0  0  0  0  0  0
   -4.9703    4.0137   -7.0341 H   0  0  0  0  0  0  0  0  0  0  0  0
   -5.8035    3.9007   -5.4837 H   0  0  0  0  0  0  0  0  0  0  0  0
   -4.6733    2.6338   -5.9718 H   0  0  0  0  0  0  0  0  0  0  0  0
    6.2413   -4.4425    3.5092 H   0  0  0  0  0  0  0  0  0  0  0  0
    6.6444   -3.2781    2.2373 H   0  0  0  0  0  0  0  0  0  0  0  0
    5.0381   -5.8449    1.8128 H   0  0  0  0  0  0  0  0  0  0  0  0
    6.7508   -5.6353    1.4402 H   0  0  0  0  0  0  0  0  0  0  0  0
    5.5392   -4.7200    0.5458 H   0  0  0  0  0  0  0  0  0  0  0  0
   -2.3770    2.4017    0.4427 H   0  0  0  0  0  0  0  0  0  0  0  0
   -1.9079    0.9127    1.2441 H   0  0  0  0  0  0  0  0  0  0  0  0
   -0.1054    3.3136    0.6008 H   0  0  0  0  0  0  0  0  0  0  0  0
   -0.6544    2.8288    2.2060 H   0  0  0  0  0  0  0  0  0  0  0  0
    0.5008    1.8249    1.3194 H   0  0  0  0  0  0  0  0  0  0  0  0
   -0.5761   -0.0037    2.2976 H   0  0  0  0  0  0  0  0  0  0  0  0
    0.1219   -1.5345    2.7929 H   0  0  0  0  0  0  0  0  0  0  0  0
   -1.2192   -2.7792    1.1520 H   0  0  0  0  0  0  0  0  0  0  0  0
   -1.9146   -1.2913    0.5173 H   0  0  0  0  0  0  0  0  0  0  0  0
   -2.2820   -1.8049    2.1696 H   0  0  0  0  0  0  0  0  0  0  0  0
    3.5962   -3.7892    6.0082 H   0  0  0  0  0  0  0  0  0  0  0  0
    9.8155   -2.8214    5.3922 H   0  0  0  0  0  0  0  0  0  0  0  0
  1  2  3  0  0  0  0
  2  3  1  0  0  0  0
  3  4  1  0  0  0  0
  4  5  3  0  0  0  0
  3  6  2  0  0  0  0
  6  7  1  0  0  0  0
  7  8  3  0  0  0  0
  6  9  1  0  0  0  0
  9 10  2  0  0  0  0
 10 11  1  0  0  0  0
 11 12  2  0  0  0  0
 12 13  1  0  0  0  0
 12 14  1  0  0  0  0
 14 15  2  0  0  0  0
 15 16  1  0  0  0  0
 16 17  1  0  0  0  0
 15 18  1  0  0  0  0
 18 19  1  0  0  0  0
 19 20  1  0  0  0  0
 20 21  1  0  0  0  0
 21 22  1  0  0  0  0
 22 23  1  0  0  0  0
 23 24  2  0  0  0  0
 24 25  1  0  0  0  0
 25 26  1  0  0  0  0
 23 27  1  0  0  0  0
 27 28  1  0  0  0  0
 28 29  1  0  0  0  0
 29 30  1  0  0  0  0
 30 31  1  0  0  0  0
 31 32  1  0  0  0  0
 32 33  1  0  0  0  0
 31 34  2  0  0  0  0
 34 35  1  0  0  0  0
 35 36  1  0  0  0  0
 36 37  1  0  0  0  0
 37 38  1  0  0  0  0
 38 39  1  0  0  0  0
 39 40  1  0  0  0  0
 40 41  1  0  0  0  0
 41 42  1  0  0  0  0
 42 43  1  0  0  0  0
 43 44  1  0  0  0  0
 41 45  1  0  0  0  0
 45 46  1  0  0  0  0
 38 47  1  0  0  0  0
 47 48  1  0  0  0  0
 34 49  1  0  0  0  0
 49 50  2  0  0  0  0
 50 51  1  0  0  0  0
 51 52  2  0  0  0  0
 51 53  1  0  0  0  0
 53 54  2  0  0  0  0
 54 55  1  0  0  0  0
 55 56  2  0  0  0  0
 56 57  1  0  0  0  0
 56 58  1  0  0  0  0
 58 59  1  0  0  0  0
 58 60  2  0  0  0  0
 60 61  1  0  0  0  0
 54 62  1  0  0  0  0
 62 63  2  0  0  0  0
 63 64  1  0  0  0  0
 64 65  3  0  0  0  0
 63 66  1  0  0  0  0
 66 67  3  0  0  0  0
 13  9  1  0  0  0  0
 44 14  1  0  0  0  0
 62 50  1  0  0  0  0
 43 18  2  0  0  0  0
 60 53  1  0  0  0  0
 42 20  2  0  0  0  0
 40 21  2  0  0  0  0
 26 22  2  0  0  0  0
 39 27  2  0  0  0  0
 37 28  2  0  0  0  0
 36 30  2  0  0  0  0
 10 68  1  0  0  0  0
 11 69  1  0  0  0  0
 16 70  1  0  0  0  0
 16 71  1  0  0  0  0
 17 72  1  0  0  0  0
 17 73  1  0  0  0  0
 17 74  1  0  0  0  0
 32 75  1  0  0  0  0
 32 76  1  0  0  0  0
 33 77  1  0  0  0  0
 33 78  1  0  0  0  0
 33 79  1  0  0  0  0
 45 80  1  0  0  0  0
 45 81  1  0  0  0  0
 46 82  1  0  0  0  0
 46 83  1  0  0  0  0
 46 84  1  0  0  0  0
 47 85  1  0  0  0  0
 47 86  1  0  0  0  0
 48 87  1  0  0  0  0
 48 88  1  0  0  0  0
 48 89  1  0  0  0  0
 49 90  1  0  0  0  0
 55 91  1  0  0  0  0
M  END
