
  xtb     02012216133D
 energy: -159.930071813588 gnorm: 0.000706002867 xtb: 6.4.1 (unknown)
 86 94  0     0  0            999 V2000
  -10.4011  -10.9365   -1.1689 N   0  0  0  0  0  0  0  0  0  0  0  0
   -9.7086  -10.0486   -0.9521 C   0  0  0  0  0  0  0  0  0  0  0  0
   -8.8495   -8.9563   -0.7094 C   0  0  0  0  0  0  0  0  0  0  0  0
   -8.0809   -8.5538   -1.8158 C   0  0  0  0  0  0  0  0  0  0  0  0
   -7.4718   -8.2612   -2.7446 N   0  0  0  0  0  0  0  0  0  0  0  0
   -8.7969   -8.3608    0.5342 C   0  0  0  0  0  0  0  0  0  0  0  0
   -9.6420   -8.8997    1.5412 C   0  0  0  0  0  0  0  0  0  0  0  0
  -10.3192   -9.3320    2.3573 N   0  0  0  0  0  0  0  0  0  0  0  0
   -7.9860   -7.2642    0.9250 C   0  0  0  0  0  0  0  0  0  0  0  0
   -7.9477   -6.6934    2.1913 C   0  0  0  0  0  0  0  0  0  0  0  0
   -7.0577   -5.6369    2.2925 C   0  0  0  0  0  0  0  0  0  0  0  0
   -6.3895   -5.3669    1.1076 C   0  0  0  0  0  0  0  0  0  0  0  0
   -6.8822   -6.4503   -0.1547 S   0  0  0  0  0  0  0  0  0  0  0  0
   -5.4138   -4.3716    0.8653 C   0  0  0  0  0  0  0  0  0  0  0  0
   -4.9031   -3.3035    2.1721 S   0  0  0  0  0  0  0  0  0  0  0  0
   -3.8025   -2.5187    1.1032 C   0  0  0  0  0  0  0  0  0  0  0  0
   -2.8482   -1.5098    1.0507 C   0  0  0  0  0  0  0  0  0  0  0  0
   -2.2747   -0.5758    1.8420 O   0  0  0  0  0  0  0  0  0  0  0  0
   -1.3740    0.0669    1.0436 C   0  0  0  0  0  0  0  0  0  0  0  0
   -0.5685    1.1184    1.4517 C   0  0  0  0  0  0  0  0  0  0  0  0
   -0.5989    1.6168    2.7316 O   0  0  0  0  0  0  0  0  0  0  0  0
    0.3093    0.9994    3.6428 C   0  0  0  0  0  0  0  0  0  0  0  0
   -0.0002   -0.4630    3.9299 C   0  0  0  0  0  0  0  0  0  0  0  0
    0.2705    1.6598    0.4684 C   0  0  0  0  0  0  0  0  0  0  0  0
    0.3459    1.0814   -0.8377 C   0  0  0  0  0  0  0  0  0  0  0  0
   -0.4336    0.0063   -1.2347 C   0  0  0  0  0  0  0  0  0  0  0  0
   -0.3409   -0.5487   -2.4881 O   0  0  0  0  0  0  0  0  0  0  0  0
    0.6049   -1.6099   -2.6117 C   0  0  0  0  0  0  0  0  0  0  0  0
    2.0509   -1.1771   -2.4148 C   0  0  0  0  0  0  0  0  0  0  0  0
   -1.3427   -0.4717   -0.2812 C   0  0  0  0  0  0  0  0  0  0  0  0
   -2.3357   -1.4871   -0.2586 C   0  0  0  0  0  0  0  0  0  0  0  0
   -2.9476   -2.4424   -1.0218 N   0  0  0  0  0  0  0  0  0  0  0  0
   -3.8493   -3.0722   -0.2034 C   0  0  0  0  0  0  0  0  0  0  0  0
   -4.7625   -4.1190   -0.3263 C   0  0  0  0  0  0  0  0  0  0  0  0
   -2.8895   -2.5891   -2.4567 C   0  0  0  0  0  0  0  0  0  0  0  0
   -4.1168   -1.9752   -3.1263 C   0  0  0  0  0  0  0  0  0  0  0  0
    1.2684    1.7047   -1.6265 O   0  0  0  0  0  0  0  0  0  0  0  0
    1.7791    2.6956   -0.8617 C   0  0  0  0  0  0  0  0  0  0  0  0
    2.7175    3.7190   -0.9203 C   0  0  0  0  0  0  0  0  0  0  0  0
    3.8852    4.4441   -1.9601 S   0  0  0  0  0  0  0  0  0  0  0  0
    4.3010    5.5972   -0.6925 C   0  0  0  0  0  0  0  0  0  0  0  0
    3.5646    5.4208    0.4627 C   0  0  0  0  0  0  0  0  0  0  0  0
    2.6646    4.3622    0.3443 C   0  0  0  0  0  0  0  0  0  0  0  0
    1.7433    3.7497    1.1538 N   0  0  0  0  0  0  0  0  0  0  0  0
    1.2698    4.2737    2.4129 C   0  0  0  0  0  0  0  0  0  0  0  0
    0.4578    5.5511    2.2113 C   0  0  0  0  0  0  0  0  0  0  0  0
    1.2014    2.7316    0.4198 C   0  0  0  0  0  0  0  0  0  0  0  0
    5.3104    6.5624   -0.9185 C   0  0  0  0  0  0  0  0  0  0  0  0
    6.0546    6.7662   -2.0708 C   0  0  0  0  0  0  0  0  0  0  0  0
    6.9772    7.7927   -1.9529 C   0  0  0  0  0  0  0  0  0  0  0  0
    6.9670    8.4042   -0.7052 C   0  0  0  0  0  0  0  0  0  0  0  0
    7.8082    9.4716   -0.2982 C   0  0  0  0  0  0  0  0  0  0  0  0
    7.8299   10.0919    0.9343 C   0  0  0  0  0  0  0  0  0  0  0  0
    8.7347   11.1414    1.1989 C   0  0  0  0  0  0  0  0  0  0  0  0
    9.4637   11.9955    1.4312 N   0  0  0  0  0  0  0  0  0  0  0  0
    6.9901    9.7519    2.0094 C   0  0  0  0  0  0  0  0  0  0  0  0
    6.3238    9.5095    2.9131 N   0  0  0  0  0  0  0  0  0  0  0  0
    8.7297    9.9432   -1.2713 C   0  0  0  0  0  0  0  0  0  0  0  0
    9.4703   10.3203   -2.0590 N   0  0  0  0  0  0  0  0  0  0  0  0
    5.7691    7.6733    0.3328 S   0  0  0  0  0  0  0  0  0  0  0  0
   -8.5561   -7.0510    3.0035 H   0  0  0  0  0  0  0  0  0  0  0  0
   -6.8869   -5.0705    3.1903 H   0  0  0  0  0  0  0  0  0  0  0  0
    1.3371    1.0985    3.2628 H   0  0  0  0  0  0  0  0  0  0  0  0
    0.2079    1.5907    4.5561 H   0  0  0  0  0  0  0  0  0  0  0  0
   -1.0416   -0.5732    4.2197 H   0  0  0  0  0  0  0  0  0  0  0  0
    0.6348   -0.8110    4.7401 H   0  0  0  0  0  0  0  0  0  0  0  0
    0.1859   -1.0795    3.0533 H   0  0  0  0  0  0  0  0  0  0  0  0
    0.4583   -1.9749   -3.6312 H   0  0  0  0  0  0  0  0  0  0  0  0
    0.3531   -2.4127   -1.9028 H   0  0  0  0  0  0  0  0  0  0  0  0
    2.7100   -2.0000   -2.6781 H   0  0  0  0  0  0  0  0  0  0  0  0
    2.2367   -0.9008   -1.3792 H   0  0  0  0  0  0  0  0  0  0  0  0
    2.2739   -0.3239   -3.0495 H   0  0  0  0  0  0  0  0  0  0  0  0
   -4.9538   -4.6838   -1.2211 H   0  0  0  0  0  0  0  0  0  0  0  0
   -1.9931   -2.0792   -2.8084 H   0  0  0  0  0  0  0  0  0  0  0  0
   -2.8213   -3.6546   -2.6965 H   0  0  0  0  0  0  0  0  0  0  0  0
   -4.1732   -0.9129   -2.9010 H   0  0  0  0  0  0  0  0  0  0  0  0
   -4.0467   -2.0985   -4.2030 H   0  0  0  0  0  0  0  0  0  0  0  0
   -5.0284   -2.4548   -2.7779 H   0  0  0  0  0  0  0  0  0  0  0  0
    3.6986    6.0370    1.3337 H   0  0  0  0  0  0  0  0  0  0  0  0
    0.6399    3.5139    2.8744 H   0  0  0  0  0  0  0  0  0  0  0  0
    2.1327    4.4725    3.0561 H   0  0  0  0  0  0  0  0  0  0  0  0
    1.0569    6.3182    1.7269 H   0  0  0  0  0  0  0  0  0  0  0  0
   -0.4135    5.3471    1.5937 H   0  0  0  0  0  0  0  0  0  0  0  0
    0.1215    5.9267    3.1733 H   0  0  0  0  0  0  0  0  0  0  0  0
    5.9143    6.1745   -2.9575 H   0  0  0  0  0  0  0  0  0  0  0  0
    7.6450    8.0985   -2.7392 H   0  0  0  0  0  0  0  0  0  0  0  0
  1  2  3  0  0  0  0
  2  3  1  0  0  0  0
  3  4  1  0  0  0  0
  4  5  3  0  0  0  0
  3  6  2  0  0  0  0
  6  7  1  0  0  0  0
  7  8  3  0  0  0  0
  6  9  1  0  0  0  0
  9 10  2  0  0  0  0
 10 11  1  0  0  0  0
 11 12  2  0  0  0  0
 12 13  1  0  0  0  0
 12 14  1  0  0  0  0
 14 15  1  0  0  0  0
 15 16  1  0  0  0  0
 16 17  1  0  0  0  0
 17 18  1  0  0  0  0
 18 19  1  0  0  0  0
 19 20  2  0  0  0  0
 20 21  1  0  0  0  0
 21 22  1  0  0  0  0
 22 23  1  0  0  0  0
 20 24  1  0  0  0  0
 24 25  2  0  0  0  0
 25 26  1  0  0  0  0
 26 27  1  0  0  0  0
 27 28  1  0  0  0  0
 28 29  1  0  0  0  0
 26 30  2  0  0  0  0
 30 31  1  0  0  0  0
 31 32  1  0  0  0  0
 32 33  1  0  0  0  0
 33 34  1  0  0  0  0
 32 35  1  0  0  0  0
 35 36  1  0  0  0  0
 25 37  1  0  0  0  0
 37 38  1  0  0  0  0
 38 39  1  0  0  0  0
 39 40  1  0  0  0  0
 40 41  1  0  0  0  0
 41 42  2  0  0  0  0
 42 43  1  0  0  0  0
 43 44  1  0  0  0  0
 44 45  1  0  0  0  0
 45 46  1  0  0  0  0
 44 47  1  0  0  0  0
 41 48  1  0  0  0  0
 48 49  2  0  0  0  0
 49 50  1  0  0  0  0
 50 51  2  0  0  0  0
 51 52  1  0  0  0  0
 52 53  2  0  0  0  0
 53 54  1  0  0  0  0
 54 55  3  0  0  0  0
 53 56  1  0  0  0  0
 56 57  3  0  0  0  0
 52 58  1  0  0  0  0
 58 59  3  0  0  0  0
 51 60  1  0  0  0  0
 13  9  1  0  0  0  0
 34 14  2  0  0  0  0
 47 38  2  0  0  0  0
 60 48  1  0  0  0  0
 33 16  2  0  0  0  0
 43 39  2  0  0  0  0
 31 17  2  0  0  0  0
 30 19  1  0  0  0  0
 47 24  1  0  0  0  0
 10 61  1  0  0  0  0
 11 62  1  0  0  0  0
 22 63  1  0  0  0  0
 22 64  1  0  0  0  0
 23 65  1  0  0  0  0
 23 66  1  0  0  0  0
 23 67  1  0  0  0  0
 28 68  1  0  0  0  0
 28 69  1  0  0  0  0
 29 70  1  0  0  0  0
 29 71  1  0  0  0  0
 29 72  1  0  0  0  0
 34 73  1  0  0  0  0
 35 74  1  0  0  0  0
 35 75  1  0  0  0  0
 36 76  1  0  0  0  0
 36 77  1  0  0  0  0
 36 78  1  0  0  0  0
 42 79  1  0  0  0  0
 45 80  1  0  0  0  0
 45 81  1  0  0  0  0
 46 82  1  0  0  0  0
 46 83  1  0  0  0  0
 46 84  1  0  0  0  0
 49 85  1  0  0  0  0
 50 86  1  0  0  0  0
M  END
