
  xtb     02022217473D
 energy: -186.361752986850 gnorm: 0.000790825547 xtb: 6.4.1 (unknown)
107120  0     0  0            999 V2000
   -4.3212    6.0937  -14.3575 N   0  0  0  0  0  0  0  0  0  0  0  0
   -4.8375    6.0256  -13.3358 C   0  0  0  0  0  0  0  0  0  0  0  0
   -5.4959    5.9441  -12.0902 C   0  0  0  0  0  0  0  0  0  0  0  0
   -6.8120    6.4368  -12.0948 C   0  0  0  0  0  0  0  0  0  0  0  0
   -7.8831    6.8480  -12.1421 N   0  0  0  0  0  0  0  0  0  0  0  0
   -4.8478    5.4152  -10.9921 C   0  0  0  0  0  0  0  0  0  0  0  0
   -3.5166    4.9635  -11.1956 C   0  0  0  0  0  0  0  0  0  0  0  0
   -2.4430    4.5920  -11.3408 N   0  0  0  0  0  0  0  0  0  0  0  0
   -5.3683    5.2681   -9.6790 C   0  0  0  0  0  0  0  0  0  0  0  0
   -6.6072    5.6164   -9.1643 C   0  0  0  0  0  0  0  0  0  0  0  0
   -6.7517    5.3125   -7.8184 C   0  0  0  0  0  0  0  0  0  0  0  0
   -5.6306    4.7173   -7.2573 C   0  0  0  0  0  0  0  0  0  0  0  0
   -4.3698    4.5454   -8.4385 S   0  0  0  0  0  0  0  0  0  0  0  0
   -5.4018    4.2671   -5.9297 C   0  0  0  0  0  0  0  0  0  0  0  0
   -6.2942    3.9603   -4.9152 C   0  0  0  0  0  0  0  0  0  0  0  0
   -7.7847    4.0472   -4.9632 C   0  0  0  0  0  0  0  0  0  0  0  0
   -8.2701    5.3964   -4.4278 C   0  0  0  0  0  0  0  0  0  0  0  0
   -5.6205    3.5180   -3.7667 C   0  0  0  0  0  0  0  0  0  0  0  0
   -6.2018    2.9804   -2.2073 S   0  0  0  0  0  0  0  0  0  0  0  0
   -4.5673    2.6901   -1.7313 C   0  0  0  0  0  0  0  0  0  0  0  0
   -3.8582    2.2151   -0.6189 C   0  0  0  0  0  0  0  0  0  0  0  0
   -4.3687    1.7982    0.6361 C   0  0  0  0  0  0  0  0  0  0  0  0
   -3.4445    1.3547    1.6101 C   0  0  0  0  0  0  0  0  0  0  0  0
   -3.8513    0.9620    2.8231 N   0  0  0  0  0  0  0  0  0  0  0  0
   -5.1452    1.0063    3.0535 C   0  0  0  0  0  0  0  0  0  0  0  0
   -6.0612    1.4368    2.0856 C   0  0  0  0  0  0  0  0  0  0  0  0
   -5.6825    1.8305    0.8891 N   0  0  0  0  0  0  0  0  0  0  0  0
   -2.0737    1.3139    1.2515 C   0  0  0  0  0  0  0  0  0  0  0  0
   -0.9934    0.8285    2.0029 C   0  0  0  0  0  0  0  0  0  0  0  0
   -0.6912    0.1086    3.5423 S   0  0  0  0  0  0  0  0  0  0  0  0
    0.9910   -0.0828    3.1002 C   0  0  0  0  0  0  0  0  0  0  0  0
    2.0780   -0.7021    3.7388 C   0  0  0  0  0  0  0  0  0  0  0  0
    2.0462   -1.1993    5.1448 C   0  0  0  0  0  0  0  0  0  0  0  0
    1.5519   -0.1281    6.1161 C   0  0  0  0  0  0  0  0  0  0  0  0
    3.2066   -0.6764    2.9345 C   0  0  0  0  0  0  0  0  0  0  0  0
    2.9412    0.1947    1.4237 S   0  0  0  0  0  0  0  0  0  0  0  0
    1.2811    0.4214    1.8258 C   0  0  0  0  0  0  0  0  0  0  0  0
    0.1427    0.9403    1.1995 C   0  0  0  0  0  0  0  0  0  0  0  0
   -0.1879    1.5014   -0.0046 N   0  0  0  0  0  0  0  0  0  0  0  0
   -1.5545    1.7235   -0.0125 C   0  0  0  0  0  0  0  0  0  0  0  0
   -2.4756    2.2301   -0.9669 C   0  0  0  0  0  0  0  0  0  0  0  0
   -2.3645    2.7146   -2.2605 N   0  0  0  0  0  0  0  0  0  0  0  0
   -3.6250    2.9964   -2.7153 C   0  0  0  0  0  0  0  0  0  0  0  0
   -4.2269    3.4726   -3.8848 C   0  0  0  0  0  0  0  0  0  0  0  0
   -3.7262    3.9894   -5.4523 S   0  0  0  0  0  0  0  0  0  0  0  0
   -1.2288    3.1938   -3.0137 C   0  0  0  0  0  0  0  0  0  0  0  0
   -0.6828    4.4954   -2.4286 C   0  0  0  0  0  0  0  0  0  0  0  0
    0.8099    1.5435   -1.0473 C   0  0  0  0  0  0  0  0  0  0  0  0
    0.6888    0.3440   -1.9858 C   0  0  0  0  0  0  0  0  0  0  0  0
    4.4984   -1.2194    3.1366 C   0  0  0  0  0  0  0  0  0  0  0  0
    4.7688   -2.4383    3.6864 C   0  0  0  0  0  0  0  0  0  0  0  0
    3.7877   -3.5477    3.7789 C   0  0  0  0  0  0  0  0  0  0  0  0
    2.5872   -3.4957    3.6128 O   0  0  0  0  0  0  0  0  0  0  0  0
    4.5934   -4.7650    3.9935 C   0  0  0  0  0  0  0  0  0  0  0  0
    4.1212   -6.0739    4.0547 C   0  0  0  0  0  0  0  0  0  0  0  0
    5.1057   -7.0170    4.2265 C   0  0  0  0  0  0  0  0  0  0  0  0
    6.4645   -6.6861    4.3213 C   0  0  0  0  0  0  0  0  0  0  0  0
    6.9449   -5.3997    4.2604 C   0  0  0  0  0  0  0  0  0  0  0  0
    5.9579   -4.4242    4.0928 C   0  0  0  0  0  0  0  0  0  0  0  0
    6.0842   -2.9768    3.9680 C   0  0  0  0  0  0  0  0  0  0  0  0
    7.2198   -2.2368    4.1673 C   0  0  0  0  0  0  0  0  0  0  0  0
    7.2544   -0.8265    4.1350 C   0  0  0  0  0  0  0  0  0  0  0  0
    7.3413    0.3183    4.1449 N   0  0  0  0  0  0  0  0  0  0  0  0
    8.4829   -2.7816    4.4752 C   0  0  0  0  0  0  0  0  0  0  0  0
    9.5359   -3.1660    4.7233 N   0  0  0  0  0  0  0  0  0  0  0  0
    6.8864   -8.1266    4.4684 C   0  0  0  0  0  0  0  0  0  0  0  0
    7.2683   -8.6275    5.8828 C   0  0  0  0  0  0  0  0  0  0  0  0
    6.5187   -7.7584    6.8619 C   0  0  0  0  0  0  0  0  0  0  0  0
    5.2322   -8.0698    6.7771 C   0  0  0  0  0  0  0  0  0  0  0  0
    5.0885   -9.1552    5.7391 C   0  0  0  0  0  0  0  0  0  0  0  0
    6.4147   -9.9044    5.9449 C   0  0  0  0  0  0  0  0  0  0  0  0
    5.3723   -8.4944    4.3675 C   0  0  0  0  0  0  0  0  0  0  0  0
   -7.3779    6.0843   -9.7492 H   0  0  0  0  0  0  0  0  0  0  0  0
   -7.6380    5.5506   -7.2627 H   0  0  0  0  0  0  0  0  0  0  0  0
   -8.1898    3.2534   -4.3317 H   0  0  0  0  0  0  0  0  0  0  0  0
   -8.1404    3.8887   -5.9816 H   0  0  0  0  0  0  0  0  0  0  0  0
   -9.3539    5.4534   -4.4851 H   0  0  0  0  0  0  0  0  0  0  0  0
   -7.8450    6.2185   -4.9998 H   0  0  0  0  0  0  0  0  0  0  0  0
   -7.9719    5.5131   -3.3889 H   0  0  0  0  0  0  0  0  0  0  0  0
   -5.4678    0.6900    4.0358 H   0  0  0  0  0  0  0  0  0  0  0  0
   -7.1235    1.4644    2.2849 H   0  0  0  0  0  0  0  0  0  0  0  0
    1.3896   -2.0718    5.1889 H   0  0  0  0  0  0  0  0  0  0  0  0
    3.0474   -1.5192    5.4371 H   0  0  0  0  0  0  0  0  0  0  0  0
    1.6045   -0.5061    7.1339 H   0  0  0  0  0  0  0  0  0  0  0  0
    0.5226    0.1479    5.9053 H   0  0  0  0  0  0  0  0  0  0  0  0
    2.1735    0.7623    6.0467 H   0  0  0  0  0  0  0  0  0  0  0  0
   -0.4621    2.4245   -3.0809 H   0  0  0  0  0  0  0  0  0  0  0  0
   -1.5850    3.3807   -4.0302 H   0  0  0  0  0  0  0  0  0  0  0  0
   -1.4336    5.2785   -2.5024 H   0  0  0  0  0  0  0  0  0  0  0  0
    0.1998    4.8106   -2.9785 H   0  0  0  0  0  0  0  0  0  0  0  0
   -0.4235    4.3759   -1.3785 H   0  0  0  0  0  0  0  0  0  0  0  0
    0.7591    2.4884   -1.5840 H   0  0  0  0  0  0  0  0  0  0  0  0
    1.7826    1.5082   -0.5493 H   0  0  0  0  0  0  0  0  0  0  0  0
    0.8753   -0.5750   -1.4355 H   0  0  0  0  0  0  0  0  0  0  0  0
    1.4202    0.4210   -2.7857 H   0  0  0  0  0  0  0  0  0  0  0  0
   -0.3075    0.2821   -2.4191 H   0  0  0  0  0  0  0  0  0  0  0  0
    5.3194   -0.6395    2.7296 H   0  0  0  0  0  0  0  0  0  0  0  0
    3.0671   -6.2868    3.9676 H   0  0  0  0  0  0  0  0  0  0  0  0
    7.9932   -5.1582    4.3215 H   0  0  0  0  0  0  0  0  0  0  0  0
    7.5553   -8.5066    3.6987 H   0  0  0  0  0  0  0  0  0  0  0  0
    8.3368   -8.7298    6.0519 H   0  0  0  0  0  0  0  0  0  0  0  0
    6.9798   -6.9908    7.4553 H   0  0  0  0  0  0  0  0  0  0  0  0
    4.4029   -7.6142    7.2858 H   0  0  0  0  0  0  0  0  0  0  0  0
    4.1724   -9.7388    5.7780 H   0  0  0  0  0  0  0  0  0  0  0  0
    6.4715  -10.4024    6.9116 H   0  0  0  0  0  0  0  0  0  0  0  0
    6.6391  -10.6154    5.1510 H   0  0  0  0  0  0  0  0  0  0  0  0
    5.0531   -9.1169    3.5337 H   0  0  0  0  0  0  0  0  0  0  0  0
  1  2  3  0  0  0  0
  2  3  1  0  0  0  0
  3  4  1  0  0  0  0
  4  5  3  0  0  0  0
  3  6  2  0  0  0  0
  6  7  1  0  0  0  0
  7  8  3  0  0  0  0
  6  9  1  0  0  0  0
  9 10  2  0  0  0  0
 10 11  1  0  0  0  0
 11 12  2  0  0  0  0
 12 13  1  0  0  0  0
 12 14  1  0  0  0  0
 14 15  2  0  0  0  0
 15 16  1  0  0  0  0
 16 17  1  0  0  0  0
 15 18  1  0  0  0  0
 18 19  1  0  0  0  0
 19 20  1  0  0  0  0
 20 21  1  0  0  0  0
 21 22  2  0  0  0  0
 22 23  1  0  0  0  0
 23 24  1  0  0  0  0
 24 25  2  0  0  0  0
 25 26  1  0  0  0  0
 26 27  2  0  0  0  0
 23 28  2  0  0  0  0
 28 29  1  0  0  0  0
 29 30  1  0  0  0  0
 30 31  1  0  0  0  0
 31 32  1  0  0  0  0
 32 33  1  0  0  0  0
 33 34  1  0  0  0  0
 32 35  2  0  0  0  0
 35 36  1  0  0  0  0
 36 37  1  0  0  0  0
 37 38  1  0  0  0  0
 38 39  1  0  0  0  0
 39 40  1  0  0  0  0
 40 41  2  0  0  0  0
 41 42  1  0  0  0  0
 42 43  1  0  0  0  0
 43 44  1  0  0  0  0
 44 45  1  0  0  0  0
 42 46  1  0  0  0  0
 46 47  1  0  0  0  0
 39 48  1  0  0  0  0
 48 49  1  0  0  0  0
 35 50  1  0  0  0  0
 50 51  2  0  0  0  0
 51 52  1  0  0  0  0
 52 53  2  0  0  0  0
 52 54  1  0  0  0  0
 54 55  2  0  0  0  0
 55 56  1  0  0  0  0
 56 57  2  0  0  0  0
 57 58  1  0  0  0  0
 58 59  2  0  0  0  0
 59 60  1  0  0  0  0
 60 61  2  0  0  0  0
 61 62  1  0  0  0  0
 62 63  3  0  0  0  0
 61 64  1  0  0  0  0
 64 65  3  0  0  0  0
 57 66  1  0  0  0  0
 66 67  1  0  0  0  0
 67 68  1  0  0  0  0
 68 69  2  0  0  0  0
 69 70  1  0  0  0  0
 70 71  1  0  0  0  0
 70 72  1  0  0  0  0
 13  9  1  0  0  0  0
 45 14  1  0  0  0  0
 60 51  1  0  0  0  0
 72 66  1  0  0  0  0
 44 18  2  0  0  0  0
 59 54  1  0  0  0  0
 71 67  1  0  0  0  0
 43 20  2  0  0  0  0
 72 56  1  0  0  0  0
 41 21  1  0  0  0  0
 27 22  1  0  0  0  0
 40 28  1  0  0  0  0
 38 29  2  0  0  0  0
 37 31  2  0  0  0  0
 10 73  1  0  0  0  0
 11 74  1  0  0  0  0
 16 75  1  0  0  0  0
 16 76  1  0  0  0  0
 17 77  1  0  0  0  0
 17 78  1  0  0  0  0
 17 79  1  0  0  0  0
 25 80  1  0  0  0  0
 26 81  1  0  0  0  0
 33 82  1  0  0  0  0
 33 83  1  0  0  0  0
 34 84  1  0  0  0  0
 34 85  1  0  0  0  0
 34 86  1  0  0  0  0
 46 87  1  0  0  0  0
 46 88  1  0  0  0  0
 47 89  1  0  0  0  0
 47 90  1  0  0  0  0
 47 91  1  0  0  0  0
 48 92  1  0  0  0  0
 48 93  1  0  0  0  0
 49 94  1  0  0  0  0
 49 95  1  0  0  0  0
 49 96  1  0  0  0  0
 50 97  1  0  0  0  0
 55 98  1  0  0  0  0
 58 99  1  0  0  0  0
 66100  1  0  0  0  0
 67101  1  0  0  0  0
 68102  1  0  0  0  0
 69103  1  0  0  0  0
 70104  1  0  0  0  0
 71105  1  0  0  0  0
 71106  1  0  0  0  0
 72107  1  0  0  0  0
M  END
