107

N         -4.32120        6.09370      -14.35750
C         -4.83750        6.02560      -13.33580
C         -5.49590        5.94410      -12.09020
C         -6.81200        6.43680      -12.09480
N         -7.88310        6.84800      -12.14210
C         -4.84780        5.41520      -10.99210
C         -3.51660        4.96350      -11.19560
N         -2.44300        4.59200      -11.34080
C         -5.36830        5.26810       -9.67900
C         -6.60720        5.61640       -9.16430
C         -6.75170        5.31250       -7.81840
C         -5.63060        4.71730       -7.25730
S         -4.36980        4.54540       -8.43850
C         -5.40180        4.26710       -5.92970
C         -6.29420        3.96030       -4.91520
C         -7.78470        4.04720       -4.96320
C         -8.27010        5.39640       -4.42780
C         -5.62050        3.51800       -3.76670
S         -6.20180        2.98040       -2.20730
C         -4.56730        2.69010       -1.73130
C         -3.85820        2.21510       -0.61890
C         -4.36870        1.79820        0.63610
C         -3.44450        1.35470        1.61010
N         -3.85130        0.96200        2.82310
C         -5.14520        1.00630        3.05350
C         -6.06120        1.43680        2.08560
N         -5.68250        1.83050        0.88910
C         -2.07370        1.31390        1.25150
C         -0.99340        0.82850        2.00290
S         -0.69120        0.10860        3.54230
C          0.99100       -0.08280        3.10020
C          2.07800       -0.70210        3.73880
C          2.04620       -1.19930        5.14480
C          1.55190       -0.12810        6.11610
C          3.20660       -0.67640        2.93450
S          2.94120        0.19470        1.42370
C          1.28110        0.42140        1.82580
C          0.14270        0.94030        1.19950
N         -0.18790        1.50140       -0.00460
C         -1.55450        1.72350       -0.01250
C         -2.47560        2.23010       -0.96690
N         -2.36450        2.71460       -2.26050
C         -3.62500        2.99640       -2.71530
C         -4.22690        3.47260       -3.88480
S         -3.72620        3.98940       -5.45230
C         -1.22880        3.19380       -3.01370
C         -0.68280        4.49540       -2.42860
C          0.80990        1.54350       -1.04730
C          0.68880        0.34400       -1.98580
C          4.49840       -1.21940        3.13660
C          4.76880       -2.43830        3.68640
C          3.78770       -3.54770        3.77890
O          2.58720       -3.49570        3.61280
C          4.59340       -4.76500        3.99350
C          4.12120       -6.07390        4.05470
C          5.10570       -7.01700        4.22650
C          6.46450       -6.68610        4.32130
C          6.94490       -5.39970        4.26040
C          5.95790       -4.42420        4.09280
C          6.08420       -2.97680        3.96800
C          7.21980       -2.23680        4.16730
C          7.25440       -0.82650        4.13500
N          7.34130        0.31830        4.14490
C          8.48290       -2.78160        4.47520
N          9.53590       -3.16600        4.72330
C          6.88640       -8.12660        4.46840
C          7.26830       -8.62750        5.88280
C          6.51870       -7.75840        6.86190
C          5.23220       -8.06980        6.77710
C          5.08850       -9.15520        5.73910
C          6.41470       -9.90440        5.94490
C          5.37230       -8.49440        4.36750
H         -7.37790        6.08430       -9.74920
H         -7.63800        5.55060       -7.26270
H         -8.18980        3.25340       -4.33170
H         -8.14040        3.88870       -5.98160
H         -9.35390        5.45340       -4.48510
H         -7.84500        6.21850       -4.99980
H         -7.97190        5.51310       -3.38890
H         -5.46780        0.69000        4.03580
H         -7.12350        1.46440        2.28490
H          1.38960       -2.07180        5.18890
H          3.04740       -1.51920        5.43710
H          1.60450       -0.50610        7.13390
H          0.52260        0.14790        5.90530
H          2.17350        0.76230        6.04670
H         -0.46210        2.42450       -3.08090
H         -1.58500        3.38070       -4.03020
H         -1.43360        5.27850       -2.50240
H          0.19980        4.81060       -2.97850
H         -0.42350        4.37590       -1.37850
H          0.75910        2.48840       -1.58400
H          1.78260        1.50820       -0.54930
H          0.87530       -0.57500       -1.43550
H          1.42020        0.42100       -2.78570
H         -0.30750        0.28210       -2.41910
H          5.31940       -0.63950        2.72960
H          3.06710       -6.28680        3.96760
H          7.99320       -5.15820        4.32150
H          7.55530       -8.50660        3.69870
H          8.33680       -8.72980        6.05190
H          6.97980       -6.99080        7.45530
H          4.40290       -7.61420        7.28580
H          4.17240       -9.73880        5.77800
H          6.47150      -10.40240        6.91160
H          6.63910      -10.61540        5.15100
H          5.05310       -9.11690        3.53370
