101

C          6.82630       -5.09980        0.65540
C          6.70060       -5.30180        1.99840
C          7.93050       -5.44510        2.83020
O          9.06210       -5.61140        2.43680
C          7.43950       -5.28390        4.19930
S          8.13810       -5.21090        5.75930
C          6.54950       -5.02010        6.44230
Br         6.34980       -4.83680        8.29550
C          5.53530       -5.02250        5.52380
C          6.05540       -5.16830        4.22710
C          5.54740       -5.31130        2.87300
C          4.26090       -5.67080        2.56400
C          3.23770       -5.67840        3.53190
N          2.38650       -5.65530        4.30130
C          3.86150       -6.14950        1.30010
N          3.51410       -6.60290        0.30430
C          5.90950       -4.53130       -0.25100
C          5.97330       -4.58970       -1.63950
C          6.99490       -5.34250       -2.42570
C          8.15900       -4.42330       -2.80650
C          4.95210       -3.84250       -2.22970
C          4.11050       -3.18430       -1.32010
S          4.59060       -3.49770        0.30470
C          3.10510       -2.46710       -1.97090
C          3.18830       -2.59960       -3.36440
S          4.50700       -3.57760       -3.89910
C          2.08850       -1.92260       -3.90800
C          1.59130       -1.86180       -5.22930
N          2.12080       -2.36360       -6.33370
S          1.09570       -2.10220       -7.55860
N         -0.06310       -1.33840       -6.72810
C          0.31160       -1.25600       -5.46120
C         -0.35010       -0.62240       -4.38570
C         -1.53660        0.12570       -4.33470
S         -2.81340        0.63750       -5.38330
C         -3.49140        1.56720       -4.06760
C         -4.59060        2.41480       -3.95850
C         -4.68920        2.99650       -2.70860
S         -3.44470        2.40120       -1.61540
C         -2.75450        1.45650       -2.87810
C         -1.64060        0.63140       -3.03350
N         -0.58040        0.21270       -2.27170
C         -0.20230        1.03020       -1.13700
C          0.30590        2.39990       -1.58750
C          0.21870       -0.57970       -3.08030
C          1.37790       -1.35010       -2.81420
N          2.00940       -1.71360       -1.64010
C          1.50500       -1.72540       -0.28410
C          2.31710       -0.82050        0.64230
C         -5.68380        3.91200       -2.29110
C         -5.67090        4.76770       -1.23510
C         -6.95300        5.30880       -0.70560
O         -8.03020        5.28470       -1.25560
C         -6.63190        5.81380        0.64320
C         -7.52470        6.30340        1.59500
C         -6.93200        6.68640        2.77430
C         -5.55220        6.58290        3.00100
C         -4.65880        6.10430        2.07270
C         -5.24070        5.71940        0.86170
C         -4.61230        5.22550       -0.36000
C         -3.30290        5.42530       -0.71310
C         -2.80670        5.22600       -2.01850
N         -2.36370        5.12960       -3.07350
C         -2.31150        5.92260        0.15480
N         -1.44880        6.29060        0.81760
C         -5.65760        7.14960        4.39460
C         -5.22550        8.62110        4.57100
C         -5.87430        9.03460        5.87230
C         -7.18000        9.13490        5.65800
C         -7.43560        8.79130        4.20810
C         -6.14850        9.33780        3.57690
C         -7.19490        7.26800        4.14110
H          7.80890       -5.32640        0.25400
H          4.49690       -4.91790        5.77920
H          7.36320       -6.19370       -1.85330
H          6.52280       -5.71700       -3.33600
H          8.89070       -4.97470       -3.39060
H          7.80050       -3.58610       -3.40050
H          8.64800       -4.03290       -1.91680
H         -5.26680        2.64300       -4.76160
H          0.57350        0.53820       -0.56370
H         -1.08920        1.15090       -0.50710
H         -0.45370        2.93730       -2.14970
H          1.18560        2.28730       -2.21790
H          0.57150        2.99480       -0.71790
H          1.57400       -2.75480        0.08690
H          0.44880       -1.45380       -0.29810
H          1.83350       -0.76240        1.61340
H          2.41940        0.18420        0.23790
H          3.31560       -1.22570        0.78120
H         -6.61260        3.88150       -2.85300
H         -8.58110        6.36340        1.38520
H         -3.60070        6.01720        2.25820
H         -5.30950        6.50420        5.19890
H         -4.15700        8.79540        4.47840
H         -5.34120        9.15380        6.79720
H         -7.95560        9.35460        6.36800
H         -8.38090        9.12170        3.78620
H         -6.07840       10.42110        3.65850
H         -6.00080        9.04120        2.54010
H         -7.87340        6.70130        4.77610
