
  xtb     02022215513D
 energy: -181.055476444942 gnorm: 0.000803534403 xtb: 6.4.1 (unknown)
 95109  0     0  0            999 V2000
   -7.2542   -2.9296   -5.8812 C   0  0  0  0  0  0  0  0  0  0  0  0
   -6.5585   -3.3149   -7.0035 C   0  0  0  0  0  0  0  0  0  0  0  0
   -5.1082   -3.2169   -7.1772 C   0  0  0  0  0  0  0  0  0  0  0  0
   -4.2888   -2.7860   -6.3747 O   0  0  0  0  0  0  0  0  0  0  0  0
   -4.8508   -3.7411   -8.5099 C   0  0  0  0  0  0  0  0  0  0  0  0
   -3.4759   -3.9930   -9.4957 S   0  0  0  0  0  0  0  0  0  0  0  0
   -4.5112   -4.6330  -10.7384 C   0  0  0  0  0  0  0  0  0  0  0  0
   -3.7683   -5.2223  -12.3529 Br  0  0  0  0  0  0  0  0  0  0  0  0
   -5.8408   -4.6517  -10.4131 C   0  0  0  0  0  0  0  0  0  0  0  0
   -6.0339   -4.1342   -9.1215 C   0  0  0  0  0  0  0  0  0  0  0  0
   -7.1376   -3.8831   -8.2068 C   0  0  0  0  0  0  0  0  0  0  0  0
   -8.4494   -4.1586   -8.4892 C   0  0  0  0  0  0  0  0  0  0  0  0
   -9.5450   -3.9368   -7.6314 C   0  0  0  0  0  0  0  0  0  0  0  0
  -10.4815   -3.7850   -6.9841 N   0  0  0  0  0  0  0  0  0  0  0  0
   -8.8366   -4.7162   -9.7266 C   0  0  0  0  0  0  0  0  0  0  0  0
   -9.1693   -5.1734  -10.7248 N   0  0  0  0  0  0  0  0  0  0  0  0
   -6.8092   -2.3877   -4.6708 C   0  0  0  0  0  0  0  0  0  0  0  0
   -7.7097   -2.0753   -3.6466 C   0  0  0  0  0  0  0  0  0  0  0  0
   -7.1389   -1.5668   -2.4971 C   0  0  0  0  0  0  0  0  0  0  0  0
   -7.8686   -1.0788   -0.9772 S   0  0  0  0  0  0  0  0  0  0  0  0
   -6.2924   -0.7064   -0.3731 C   0  0  0  0  0  0  0  0  0  0  0  0
   -5.6784   -0.3028    0.8187 C   0  0  0  0  0  0  0  0  0  0  0  0
   -6.2040   -0.1041    2.1158 C   0  0  0  0  0  0  0  0  0  0  0  0
   -5.2969    0.1042    3.2074 C   0  0  0  0  0  0  0  0  0  0  0  0
   -5.9203    0.1964    4.3711 N   0  0  0  0  0  0  0  0  0  0  0  0
   -7.5111    0.0436    4.1160 S   0  0  0  0  0  0  0  0  0  0  0  0
   -7.4663   -0.1519    2.5099 N   0  0  0  0  0  0  0  0  0  0  0  0
   -3.9155    0.2291    2.9365 C   0  0  0  0  0  0  0  0  0  0  0  0
   -2.8261    0.4997    3.7768 C   0  0  0  0  0  0  0  0  0  0  0  0
   -1.7006    0.6245    2.9548 C   0  0  0  0  0  0  0  0  0  0  0  0
   -2.0458    0.4233    1.6430 N   0  0  0  0  0  0  0  0  0  0  0  0
   -1.1738    0.9869    0.6360 C   0  0  0  0  0  0  0  0  0  0  0  0
   -1.2324    2.5137    0.6536 C   0  0  0  0  0  0  0  0  0  0  0  0
   -3.4031    0.1537    1.6065 C   0  0  0  0  0  0  0  0  0  0  0  0
   -4.2752   -0.2430    0.5617 C   0  0  0  0  0  0  0  0  0  0  0  0
   -4.0557   -0.6461   -0.7395 N   0  0  0  0  0  0  0  0  0  0  0  0
   -5.2704   -0.9252   -1.3073 C   0  0  0  0  0  0  0  0  0  0  0  0
   -5.7333   -1.4273   -2.5243 C   0  0  0  0  0  0  0  0  0  0  0  0
   -5.0245   -1.9898   -4.1550 Se  0  0  0  0  0  2  0  0  0  0  0  0
   -2.8472   -1.0547   -1.4158 C   0  0  0  0  0  0  0  0  0  0  0  0
   -2.4420   -0.0672   -2.5109 C   0  0  0  0  0  0  0  0  0  0  0  0
   -0.5300    0.9185    3.6558 C   0  0  0  0  0  0  0  0  0  0  0  0
   -0.7912    0.9984    5.0389 C   0  0  0  0  0  0  0  0  0  0  0  0
   -2.4768    0.7316    5.4550 S   0  0  0  0  0  0  0  0  0  0  0  0
    0.3081    1.2620    5.8346 C   0  0  0  0  0  0  0  0  0  0  0  0
    1.5191    1.3967    5.1496 C   0  0  0  0  0  0  0  0  0  0  0  0
    1.2741    1.1955    3.2759 Se  0  0  0  0  0  2  0  0  0  0  0  0
    2.7171    1.6196    5.8432 C   0  0  0  0  0  0  0  0  0  0  0  0
    4.0091    1.7111    5.3855 C   0  0  0  0  0  0  0  0  0  0  0  0
    4.4208    1.5923    3.9927 C   0  0  0  0  0  0  0  0  0  0  0  0
    3.6912    1.4839    3.0119 O   0  0  0  0  0  0  0  0  0  0  0  0
    5.8878    1.6251    3.9759 C   0  0  0  0  0  0  0  0  0  0  0  0
    6.7209    1.5009    2.8656 C   0  0  0  0  0  0  0  0  0  0  0  0
    8.0608    1.5446    3.1668 C   0  0  0  0  0  0  0  0  0  0  0  0
    8.5368    1.7063    4.4747 C   0  0  0  0  0  0  0  0  0  0  0  0
    7.7250    1.8383    5.5773 C   0  0  0  0  0  0  0  0  0  0  0  0
    6.3567    1.7912    5.2958 C   0  0  0  0  0  0  0  0  0  0  0  0
    5.2032    1.8810    6.1925 C   0  0  0  0  0  0  0  0  0  0  0  0
    5.2664    2.1037    7.5434 C   0  0  0  0  0  0  0  0  0  0  0  0
    4.1594    2.2222    8.4102 C   0  0  0  0  0  0  0  0  0  0  0  0
    3.3154    2.3314    9.1818 N   0  0  0  0  0  0  0  0  0  0  0  0
    6.4643    2.2664    8.2713 C   0  0  0  0  0  0  0  0  0  0  0  0
    7.3954    2.4047    8.9286 N   0  0  0  0  0  0  0  0  0  0  0  0
    9.9805    1.6439    4.0423 C   0  0  0  0  0  0  0  0  0  0  0  0
   10.7205    0.3148    4.3041 C   0  0  0  0  0  0  0  0  0  0  0  0
   11.9087    0.3725    3.3712 C   0  0  0  0  0  0  0  0  0  0  0  0
   11.4575    0.2183    2.1330 C   0  0  0  0  0  0  0  0  0  0  0  0
    9.9565    0.0545    2.2080 C   0  0  0  0  0  0  0  0  0  0  0  0
    9.8391   -0.6865    3.5463 C   0  0  0  0  0  0  0  0  0  0  0  0
    9.4495    1.4633    2.5839 C   0  0  0  0  0  0  0  0  0  0  0  0
   -8.3300   -3.0628   -5.9183 H   0  0  0  0  0  0  0  0  0  0  0  0
   -6.6078   -5.0163  -11.0711 H   0  0  0  0  0  0  0  0  0  0  0  0
   -8.7692   -2.2331   -3.7588 H   0  0  0  0  0  0  0  0  0  0  0  0
   -1.4446    0.6326   -0.3500 H   0  0  0  0  0  0  0  0  0  0  0  0
   -0.1522    0.6563    0.8657 H   0  0  0  0  0  0  0  0  0  0  0  0
   -0.5821    2.9136   -0.1192 H   0  0  0  0  0  0  0  0  0  0  0  0
   -2.2493    2.8565    0.4722 H   0  0  0  0  0  0  0  0  0  0  0  0
   -0.9012    2.9004    1.6151 H   0  0  0  0  0  0  0  0  0  0  0  0
   -2.0578   -1.2067   -0.6783 H   0  0  0  0  0  0  0  0  0  0  0  0
   -3.0479   -2.0263   -1.8880 H   0  0  0  0  0  0  0  0  0  0  0  0
   -2.4437    0.9586   -2.1484 H   0  0  0  0  0  0  0  0  0  0  0  0
   -1.4515   -0.3125   -2.8833 H   0  0  0  0  0  0  0  0  0  0  0  0
   -3.1428   -0.1282   -3.3435 H   0  0  0  0  0  0  0  0  0  0  0  0
    0.2526    1.3505    6.9066 H   0  0  0  0  0  0  0  0  0  0  0  0
    2.5753    1.7006    6.9151 H   0  0  0  0  0  0  0  0  0  0  0  0
    6.3104    1.3808    1.8754 H   0  0  0  0  0  0  0  0  0  0  0  0
    8.1107    1.9637    6.5750 H   0  0  0  0  0  0  0  0  0  0  0  0
   10.5836    2.5197    4.2732 H   0  0  0  0  0  0  0  0  0  0  0  0
   10.9288    0.1086    5.3503 H   0  0  0  0  0  0  0  0  0  0  0  0
   12.9148    0.5678    3.6927 H   0  0  0  0  0  0  0  0  0  0  0  0
   12.0112    0.2591    1.2134 H   0  0  0  0  0  0  0  0  0  0  0  0
    9.4690   -0.3899    1.3444 H   0  0  0  0  0  0  0  0  0  0  0  0
    8.8216   -0.7593    3.9262 H   0  0  0  0  0  0  0  0  0  0  0  0
   10.2847   -1.6790    3.5072 H   0  0  0  0  0  0  0  0  0  0  0  0
    9.6992    2.2181    1.8408 H   0  0  0  0  0  0  0  0  0  0  0  0
  1  2  2  0  0  0  0
  2  3  1  0  0  0  0
  3  4  2  0  0  0  0
  3  5  1  0  0  0  0
  5  6  1  0  0  0  0
  6  7  1  0  0  0  0
  7  8  1  0  0  0  0
  7  9  2  0  0  0  0
  9 10  1  0  0  0  0
 10 11  1  0  0  0  0
 11 12  2  0  0  0  0
 12 13  1  0  0  0  0
 13 14  3  0  0  0  0
 12 15  1  0  0  0  0
 15 16  3  0  0  0  0
  1 17  1  0  0  0  0
 17 18  2  0  0  0  0
 18 19  1  0  0  0  0
 19 20  1  0  0  0  0
 20 21  1  0  0  0  0
 21 22  1  0  0  0  0
 22 23  1  0  0  0  0
 23 24  1  0  0  0  0
 24 25  2  0  0  0  0
 25 26  1  0  0  0  0
 26 27  1  0  0  0  0
 24 28  1  0  0  0  0
 28 29  1  0  0  0  0
 29 30  2  0  0  0  0
 30 31  1  0  0  0  0
 31 32  1  0  0  0  0
 32 33  1  0  0  0  0
 31 34  1  0  0  0  0
 34 35  1  0  0  0  0
 35 36  1  0  0  0  0
 36 37  1  0  0  0  0
 37 38  1  0  0  0  0
 38 39  1  0  0  0  0
 36 40  1  0  0  0  0
 40 41  1  0  0  0  0
 30 42  1  0  0  0  0
 42 43  2  0  0  0  0
 43 44  1  0  0  0  0
 43 45  1  0  0  0  0
 45 46  2  0  0  0  0
 46 47  1  0  0  0  0
 46 48  1  0  0  0  0
 48 49  2  0  0  0  0
 49 50  1  0  0  0  0
 50 51  2  0  0  0  0
 50 52  1  0  0  0  0
 52 53  2  0  0  0  0
 53 54  1  0  0  0  0
 54 55  2  0  0  0  0
 55 56  1  0  0  0  0
 56 57  2  0  0  0  0
 57 58  1  0  0  0  0
 58 59  2  0  0  0  0
 59 60  1  0  0  0  0
 60 61  3  0  0  0  0
 59 62  1  0  0  0  0
 62 63  3  0  0  0  0
 55 64  1  0  0  0  0
 64 65  1  0  0  0  0
 65 66  1  0  0  0  0
 66 67  2  0  0  0  0
 67 68  1  0  0  0  0
 68 69  1  0  0  0  0
 68 70  1  0  0  0  0
 11  2  1  0  0  0  0
 39 17  1  0  0  0  0
 47 42  1  0  0  0  0
 58 49  1  0  0  0  0
 70 64  1  0  0  0  0
 10  5  2  0  0  0  0
 38 19  2  0  0  0  0
 57 52  1  0  0  0  0
 69 65  1  0  0  0  0
 37 21  2  0  0  0  0
 70 54  1  0  0  0  0
 35 22  2  0  0  0  0
 27 23  2  0  0  0  0
 34 28  2  0  0  0  0
 44 29  1  0  0  0  0
  1 71  1  0  0  0  0
  9 72  1  0  0  0  0
 18 73  1  0  0  0  0
 32 74  1  0  0  0  0
 32 75  1  0  0  0  0
 33 76  1  0  0  0  0
 33 77  1  0  0  0  0
 33 78  1  0  0  0  0
 40 79  1  0  0  0  0
 40 80  1  0  0  0  0
 41 81  1  0  0  0  0
 41 82  1  0  0  0  0
 41 83  1  0  0  0  0
 45 84  1  0  0  0  0
 48 85  1  0  0  0  0
 53 86  1  0  0  0  0
 56 87  1  0  0  0  0
 64 88  1  0  0  0  0
 65 89  1  0  0  0  0
 66 90  1  0  0  0  0
 67 91  1  0  0  0  0
 68 92  1  0  0  0  0
 69 93  1  0  0  0  0
 69 94  1  0  0  0  0
 70 95  1  0  0  0  0
M  END
