104

C          4.78070       -1.14980        8.18670
C          4.87160       -0.05530        9.00250
C          5.30400       -0.30480       10.41290
O          5.66570       -1.35910       10.88200
C          5.15660        0.99260       11.06760
S          5.35570        1.60580       12.65100
C          4.89630        3.18180       12.07610
Br         4.82470        4.62410       13.26920
C          4.61320        3.23500       10.73840
C          4.76170        1.96310       10.15840
C          4.65850        1.36340        8.83420
C          4.56650        2.10620        7.68240
C          4.40760        3.50740        7.71090
N          4.25310        4.64460        7.69740
C          4.65060        1.61850        6.36850
N          4.71140        1.30940        5.26370
C          4.21250       -1.37960        6.91840
S          4.98620       -2.66710        5.98160
C          3.92060       -2.35150        4.68770
C          3.66110       -2.82880        3.40000
C          4.18270       -3.94930        2.71780
C          3.57350       -4.34040        1.48240
N          4.09780       -5.45060        0.98770
S          5.26570       -5.95490        1.98860
N          5.14160       -4.77950        3.09560
C          2.56930       -3.51570        0.92930
C          1.88290       -3.61610       -0.28800
S          1.76990       -4.68680       -1.64040
C          0.63530       -3.57330       -2.38190
C         -0.06050       -3.61210       -3.58360
C          0.10970       -4.71330       -4.57860
C          1.13650       -4.32960       -5.64770
C         -0.87630       -2.47900       -3.73900
S         -0.75590       -1.37780       -2.36560
C          0.37620       -2.43190       -1.60490
C          1.09100       -2.47000       -0.40330
N          1.23850       -1.67330        0.70580
C          2.13490       -2.31030        1.55820
C          2.59460       -2.04080        2.87810
N          2.18420       -1.17110        3.86790
C          2.98320       -1.34660        4.97450
C          3.11330       -0.81230        6.26930
C          2.09790        0.00390        7.00950
C          0.95380       -0.90240        7.48060
C          1.11310       -0.20790        3.84270
C          1.63920        1.20510        3.58680
C          0.99320       -0.25730        0.50570
C          2.22630        0.42380       -0.08510
C         -1.68830       -2.27450       -4.86130
C         -2.56980       -1.26790       -5.16300
C         -2.91040       -0.12510       -4.31050
O         -2.41210        0.17610       -3.23800
C         -3.99350        0.59740       -4.99740
C         -4.67150        1.72510       -4.54090
C         -5.65700        2.16710       -5.39050
C         -5.94870        1.53110       -6.60440
C         -5.28690        0.41810       -7.06640
C         -4.27680       -0.04560       -6.21940
C         -3.37700       -1.18890       -6.36490
C         -3.30860       -2.00610       -7.46490
C         -2.42450       -3.09180       -7.63310
N         -1.73720       -3.98590       -7.85560
C         -4.11050       -1.86500       -8.61690
N         -4.72170       -1.81600       -9.58780
C         -7.04780        2.50580       -6.94340
C         -6.73920        3.60500       -7.98980
C         -5.25030        3.84220       -7.93730
C         -4.97650        4.44590       -6.78860
C         -6.27540        4.62690       -6.04270
C         -7.23760        4.84000       -7.22240
C         -6.72350        3.21500       -5.59070
H          5.26100       -2.02640        8.61820
H          4.31620        4.13370       10.23060
H         -0.83830       -4.95820       -5.05970
H          0.46250       -5.59960       -4.04740
H          1.26380       -5.15160       -6.34600
H          0.80530       -3.45640       -6.20440
H          2.09670       -4.10790       -5.18780
H          2.55000        0.45010        7.89230
H          1.70920        0.81040        6.38750
H          0.18900       -0.30990        7.97700
H          1.33250       -1.63910        8.18530
H          0.49690       -1.43680        6.65050
H          0.61240       -0.23590        4.81270
H          0.37850       -0.52240        3.10010
H          2.13110        1.27880        2.62170
H          2.37790        1.46850        4.34030
H          0.82350        1.92260        3.62390
H          0.69890        0.23680        1.42420
H          0.15920       -0.18250       -0.19660
H          3.07880        0.32450        0.58450
H          2.02430        1.47910       -0.24600
H          2.48600       -0.02820       -1.03950
H         -1.60520       -3.06480       -5.59490
H         -4.41750        2.17940       -3.59590
H         -5.53030       -0.06100       -7.99970
H         -8.04080        2.07940       -7.07090
H         -7.16130        3.42170       -8.97410
H         -4.56380        3.50560       -8.69200
H         -4.01520        4.71490       -6.39130
H         -6.27680        5.37520       -5.25440
H         -8.28830        4.78140       -6.94160
H         -7.05060        5.77090       -7.75540
H         -7.50490        3.24970       -4.83390
