
  xtb     02022202483D
 energy: -187.514442332350 gnorm: 0.000726873114 xtb: 6.4.1 (unknown)
101115  0     0  0            999 V2000
    6.8263   -5.0998    0.6554 C   0  0  0  0  0  0  0  0  0  0  0  0
    6.7006   -5.3018    1.9984 C   0  0  0  0  0  0  0  0  0  0  0  0
    7.9305   -5.4451    2.8302 C   0  0  0  0  0  0  0  0  0  0  0  0
    9.0621   -5.6114    2.4368 O   0  0  0  0  0  0  0  0  0  0  0  0
    7.4395   -5.2839    4.1993 C   0  0  0  0  0  0  0  0  0  0  0  0
    8.1381   -5.2109    5.7593 S   0  0  0  0  0  0  0  0  0  0  0  0
    6.5495   -5.0201    6.4423 C   0  0  0  0  0  0  0  0  0  0  0  0
    6.3498   -4.8368    8.2955 Br  0  0  0  0  0  0  0  0  0  0  0  0
    5.5353   -5.0225    5.5238 C   0  0  0  0  0  0  0  0  0  0  0  0
    6.0554   -5.1683    4.2271 C   0  0  0  0  0  0  0  0  0  0  0  0
    5.5474   -5.3113    2.8730 C   0  0  0  0  0  0  0  0  0  0  0  0
    4.2609   -5.6708    2.5640 C   0  0  0  0  0  0  0  0  0  0  0  0
    3.2377   -5.6784    3.5319 C   0  0  0  0  0  0  0  0  0  0  0  0
    2.3865   -5.6553    4.3013 N   0  0  0  0  0  0  0  0  0  0  0  0
    3.8615   -6.1495    1.3001 C   0  0  0  0  0  0  0  0  0  0  0  0
    3.5141   -6.6029    0.3043 N   0  0  0  0  0  0  0  0  0  0  0  0
    5.9095   -4.5313   -0.2510 C   0  0  0  0  0  0  0  0  0  0  0  0
    5.9733   -4.5897   -1.6395 C   0  0  0  0  0  0  0  0  0  0  0  0
    6.9949   -5.3425   -2.4257 C   0  0  0  0  0  0  0  0  0  0  0  0
    8.1590   -4.4233   -2.8065 C   0  0  0  0  0  0  0  0  0  0  0  0
    4.9521   -3.8425   -2.2297 C   0  0  0  0  0  0  0  0  0  0  0  0
    4.1105   -3.1843   -1.3201 C   0  0  0  0  0  0  0  0  0  0  0  0
    4.5906   -3.4977    0.3047 S   0  0  0  0  0  0  0  0  0  0  0  0
    3.1051   -2.4671   -1.9709 C   0  0  0  0  0  0  0  0  0  0  0  0
    3.1883   -2.5996   -3.3644 C   0  0  0  0  0  0  0  0  0  0  0  0
    4.5070   -3.5776   -3.8991 S   0  0  0  0  0  0  0  0  0  0  0  0
    2.0885   -1.9226   -3.9080 C   0  0  0  0  0  0  0  0  0  0  0  0
    1.5913   -1.8618   -5.2293 C   0  0  0  0  0  0  0  0  0  0  0  0
    2.1208   -2.3636   -6.3337 N   0  0  0  0  0  0  0  0  0  0  0  0
    1.0957   -2.1022   -7.5586 S   0  0  0  0  0  0  0  0  0  0  0  0
   -0.0631   -1.3384   -6.7281 N   0  0  0  0  0  0  0  0  0  0  0  0
    0.3116   -1.2560   -5.4612 C   0  0  0  0  0  0  0  0  0  0  0  0
   -0.3501   -0.6224   -4.3857 C   0  0  0  0  0  0  0  0  0  0  0  0
   -1.5366    0.1257   -4.3347 C   0  0  0  0  0  0  0  0  0  0  0  0
   -2.8134    0.6375   -5.3833 S   0  0  0  0  0  0  0  0  0  0  0  0
   -3.4914    1.5672   -4.0676 C   0  0  0  0  0  0  0  0  0  0  0  0
   -4.5906    2.4148   -3.9585 C   0  0  0  0  0  0  0  0  0  0  0  0
   -4.6892    2.9965   -2.7086 C   0  0  0  0  0  0  0  0  0  0  0  0
   -3.4447    2.4012   -1.6154 S   0  0  0  0  0  0  0  0  0  0  0  0
   -2.7545    1.4565   -2.8781 C   0  0  0  0  0  0  0  0  0  0  0  0
   -1.6406    0.6314   -3.0335 C   0  0  0  0  0  0  0  0  0  0  0  0
   -0.5804    0.2127   -2.2717 N   0  0  0  0  0  0  0  0  0  0  0  0
   -0.2023    1.0302   -1.1370 C   0  0  0  0  0  0  0  0  0  0  0  0
    0.3059    2.3999   -1.5875 C   0  0  0  0  0  0  0  0  0  0  0  0
    0.2187   -0.5797   -3.0803 C   0  0  0  0  0  0  0  0  0  0  0  0
    1.3779   -1.3501   -2.8142 C   0  0  0  0  0  0  0  0  0  0  0  0
    2.0094   -1.7136   -1.6401 N   0  0  0  0  0  0  0  0  0  0  0  0
    1.5050   -1.7254   -0.2841 C   0  0  0  0  0  0  0  0  0  0  0  0
    2.3171   -0.8205    0.6423 C   0  0  0  0  0  0  0  0  0  0  0  0
   -5.6838    3.9120   -2.2911 C   0  0  0  0  0  0  0  0  0  0  0  0
   -5.6709    4.7677   -1.2351 C   0  0  0  0  0  0  0  0  0  0  0  0
   -6.9530    5.3088   -0.7056 C   0  0  0  0  0  0  0  0  0  0  0  0
   -8.0302    5.2847   -1.2556 O   0  0  0  0  0  0  0  0  0  0  0  0
   -6.6319    5.8138    0.6432 C   0  0  0  0  0  0  0  0  0  0  0  0
   -7.5247    6.3034    1.5950 C   0  0  0  0  0  0  0  0  0  0  0  0
   -6.9320    6.6864    2.7743 C   0  0  0  0  0  0  0  0  0  0  0  0
   -5.5522    6.5829    3.0010 C   0  0  0  0  0  0  0  0  0  0  0  0
   -4.6588    6.1043    2.0727 C   0  0  0  0  0  0  0  0  0  0  0  0
   -5.2407    5.7194    0.8617 C   0  0  0  0  0  0  0  0  0  0  0  0
   -4.6123    5.2255   -0.3600 C   0  0  0  0  0  0  0  0  0  0  0  0
   -3.3029    5.4253   -0.7131 C   0  0  0  0  0  0  0  0  0  0  0  0
   -2.8067    5.2260   -2.0185 C   0  0  0  0  0  0  0  0  0  0  0  0
   -2.3637    5.1296   -3.0735 N   0  0  0  0  0  0  0  0  0  0  0  0
   -2.3115    5.9226    0.1548 C   0  0  0  0  0  0  0  0  0  0  0  0
   -1.4488    6.2906    0.8176 N   0  0  0  0  0  0  0  0  0  0  0  0
   -5.6576    7.1496    4.3946 C   0  0  0  0  0  0  0  0  0  0  0  0
   -5.2255    8.6211    4.5710 C   0  0  0  0  0  0  0  0  0  0  0  0
   -5.8743    9.0346    5.8723 C   0  0  0  0  0  0  0  0  0  0  0  0
   -7.1800    9.1349    5.6580 C   0  0  0  0  0  0  0  0  0  0  0  0
   -7.4356    8.7913    4.2081 C   0  0  0  0  0  0  0  0  0  0  0  0
   -6.1485    9.3378    3.5769 C   0  0  0  0  0  0  0  0  0  0  0  0
   -7.1949    7.2680    4.1411 C   0  0  0  0  0  0  0  0  0  0  0  0
    7.8089   -5.3264    0.2540 H   0  0  0  0  0  0  0  0  0  0  0  0
    4.4969   -4.9179    5.7792 H   0  0  0  0  0  0  0  0  0  0  0  0
    7.3632   -6.1937   -1.8533 H   0  0  0  0  0  0  0  0  0  0  0  0
    6.5228   -5.7170   -3.3360 H   0  0  0  0  0  0  0  0  0  0  0  0
    8.8907   -4.9747   -3.3906 H   0  0  0  0  0  0  0  0  0  0  0  0
    7.8005   -3.5861   -3.4005 H   0  0  0  0  0  0  0  0  0  0  0  0
    8.6480   -4.0329   -1.9168 H   0  0  0  0  0  0  0  0  0  0  0  0
   -5.2668    2.6430   -4.7616 H   0  0  0  0  0  0  0  0  0  0  0  0
    0.5735    0.5382   -0.5637 H   0  0  0  0  0  0  0  0  0  0  0  0
   -1.0892    1.1509   -0.5071 H   0  0  0  0  0  0  0  0  0  0  0  0
   -0.4537    2.9373   -2.1497 H   0  0  0  0  0  0  0  0  0  0  0  0
    1.1856    2.2873   -2.2179 H   0  0  0  0  0  0  0  0  0  0  0  0
    0.5715    2.9948   -0.7179 H   0  0  0  0  0  0  0  0  0  0  0  0
    1.5740   -2.7548    0.0869 H   0  0  0  0  0  0  0  0  0  0  0  0
    0.4488   -1.4538   -0.2981 H   0  0  0  0  0  0  0  0  0  0  0  0
    1.8335   -0.7624    1.6134 H   0  0  0  0  0  0  0  0  0  0  0  0
    2.4194    0.1842    0.2379 H   0  0  0  0  0  0  0  0  0  0  0  0
    3.3156   -1.2257    0.7812 H   0  0  0  0  0  0  0  0  0  0  0  0
   -6.6126    3.8815   -2.8530 H   0  0  0  0  0  0  0  0  0  0  0  0
   -8.5811    6.3634    1.3852 H   0  0  0  0  0  0  0  0  0  0  0  0
   -3.6007    6.0172    2.2582 H   0  0  0  0  0  0  0  0  0  0  0  0
   -5.3095    6.5042    5.1989 H   0  0  0  0  0  0  0  0  0  0  0  0
   -4.1570    8.7954    4.4784 H   0  0  0  0  0  0  0  0  0  0  0  0
   -5.3412    9.1538    6.7972 H   0  0  0  0  0  0  0  0  0  0  0  0
   -7.9556    9.3546    6.3680 H   0  0  0  0  0  0  0  0  0  0  0  0
   -8.3809    9.1217    3.7862 H   0  0  0  0  0  0  0  0  0  0  0  0
   -6.0784   10.4211    3.6585 H   0  0  0  0  0  0  0  0  0  0  0  0
   -6.0008    9.0412    2.5401 H   0  0  0  0  0  0  0  0  0  0  0  0
   -7.8734    6.7013    4.7761 H   0  0  0  0  0  0  0  0  0  0  0  0
  1  2  2  0  0  0  0
  2  3  1  0  0  0  0
  3  4  2  0  0  0  0
  3  5  1  0  0  0  0
  5  6  1  0  0  0  0
  6  7  1  0  0  0  0
  7  8  1  0  0  0  0
  7  9  2  0  0  0  0
  9 10  1  0  0  0  0
 10 11  1  0  0  0  0
 11 12  2  0  0  0  0
 12 13  1  0  0  0  0
 13 14  3  0  0  0  0
 12 15  1  0  0  0  0
 15 16  3  0  0  0  0
  1 17  1  0  0  0  0
 17 18  2  0  0  0  0
 18 19  1  0  0  0  0
 19 20  1  0  0  0  0
 18 21  1  0  0  0  0
 21 22  2  0  0  0  0
 22 23  1  0  0  0  0
 22 24  1  0  0  0  0
 24 25  2  0  0  0  0
 25 26  1  0  0  0  0
 25 27  1  0  0  0  0
 27 28  1  0  0  0  0
 28 29  2  0  0  0  0
 29 30  1  0  0  0  0
 30 31  1  0  0  0  0
 31 32  2  0  0  0  0
 32 33  1  0  0  0  0
 33 34  1  0  0  0  0
 34 35  1  0  0  0  0
 35 36  1  0  0  0  0
 36 37  1  0  0  0  0
 37 38  2  0  0  0  0
 38 39  1  0  0  0  0
 39 40  1  0  0  0  0
 40 41  1  0  0  0  0
 41 42  1  0  0  0  0
 42 43  1  0  0  0  0
 43 44  1  0  0  0  0
 42 45  1  0  0  0  0
 45 46  1  0  0  0  0
 46 47  1  0  0  0  0
 47 48  1  0  0  0  0
 48 49  1  0  0  0  0
 38 50  1  0  0  0  0
 50 51  2  0  0  0  0
 51 52  1  0  0  0  0
 52 53  2  0  0  0  0
 52 54  1  0  0  0  0
 54 55  2  0  0  0  0
 55 56  1  0  0  0  0
 56 57  2  0  0  0  0
 57 58  1  0  0  0  0
 58 59  2  0  0  0  0
 59 60  1  0  0  0  0
 60 61  2  0  0  0  0
 61 62  1  0  0  0  0
 62 63  3  0  0  0  0
 61 64  1  0  0  0  0
 64 65  3  0  0  0  0
 57 66  1  0  0  0  0
 66 67  1  0  0  0  0
 67 68  1  0  0  0  0
 68 69  2  0  0  0  0
 69 70  1  0  0  0  0
 70 71  1  0  0  0  0
 70 72  1  0  0  0  0
 11  2  1  0  0  0  0
 23 17  1  0  0  0  0
 47 24  1  0  0  0  0
 60 51  1  0  0  0  0
 72 66  1  0  0  0  0
 10  5  2  0  0  0  0
 26 21  1  0  0  0  0
 46 27  2  0  0  0  0
 59 54  1  0  0  0  0
 71 67  1  0  0  0  0
 32 28  1  0  0  0  0
 45 33  2  0  0  0  0
 72 56  1  0  0  0  0
 41 34  2  0  0  0  0
 40 36  2  0  0  0  0
  1 73  1  0  0  0  0
  9 74  1  0  0  0  0
 19 75  1  0  0  0  0
 19 76  1  0  0  0  0
 20 77  1  0  0  0  0
 20 78  1  0  0  0  0
 20 79  1  0  0  0  0
 37 80  1  0  0  0  0
 43 81  1  0  0  0  0
 43 82  1  0  0  0  0
 44 83  1  0  0  0  0
 44 84  1  0  0  0  0
 44 85  1  0  0  0  0
 48 86  1  0  0  0  0
 48 87  1  0  0  0  0
 49 88  1  0  0  0  0
 49 89  1  0  0  0  0
 49 90  1  0  0  0  0
 50 91  1  0  0  0  0
 55 92  1  0  0  0  0
 58 93  1  0  0  0  0
 66 94  1  0  0  0  0
 67 95  1  0  0  0  0
 68 96  1  0  0  0  0
 69 97  1  0  0  0  0
 70 98  1  0  0  0  0
 71 99  1  0  0  0  0
 71100  1  0  0  0  0
 72101  1  0  0  0  0
M  END
