105

C          0.31190        7.83950        3.46800
C          1.49970        8.50400        3.57510
C          1.51860        9.93640        3.98620
O          0.56250       10.65900        4.15510
C          2.94190       10.22820        4.16800
S          3.87190       11.56790        4.68530
C          5.32110       10.64340        4.41520
Br         6.99350       11.40980        4.76900
C          5.10370        9.37720        3.94480
C          3.72570        9.13990        3.80870
C          2.85880        8.07820        3.32410
C          3.28130        7.04080        2.53340
C          4.65040        6.81050        2.28520
N          5.76040        6.59560        2.08860
C          2.43430        6.17200        1.81710
N          1.81200        5.46260        1.16340
C          0.04150        6.45050        3.43400
C         -0.95800        5.87300        2.63410
C         -0.84670        4.50560        2.82050
C          0.13080        4.27740        3.81290
N          0.70310        5.46030        4.14660
C          1.62490        5.65460        5.24360
C          2.94830        4.92360        5.03920
C          0.12670        2.89290        4.07870
C          0.67930        2.09100        5.10590
C          0.39300        0.68050        5.13700
N          0.90950        0.07930        6.19480
S          1.69110        1.17800        7.08750
N          1.39980        2.47170        6.15110
C         -0.29470        0.09740        4.04960
C         -0.46260       -1.23520        3.64900
S         -0.08970       -2.83180        4.20590
C         -0.59070       -3.46220        2.64560
C         -0.54210       -4.73380        2.08900
C         -0.12720       -5.94170        2.86420
C         -1.34820       -6.72730        3.35000
C         -0.94420       -4.71840        0.74220
S         -1.42390       -3.10660        0.20920
C         -1.05720       -2.47090        1.76630
C         -1.00350       -1.20560        2.35570
N         -1.22730        0.08830        1.97320
C         -0.81020        0.90780        2.99730
C         -0.75620        2.31690        3.11680
N         -1.37070        3.31750        2.38050
C         -2.68950        3.29120        1.78360
C         -3.75080        2.87830        2.80140
C         -1.50400        0.40470        0.59090
C         -2.95920        0.12390        0.22110
C         -0.89380       -5.84620       -0.08620
C         -1.08180       -5.96680       -1.44030
C         -1.38050       -4.88040       -2.37740
O         -1.71030       -3.73610       -2.11090
C         -1.19400       -5.43510       -3.72750
C         -1.26780       -4.74410       -4.93400
C         -0.98150       -5.51370       -6.03570
C         -0.65330       -6.87280       -5.94440
C         -0.59370       -7.57010       -4.76050
C         -0.87520       -6.80430       -3.62620
C         -0.87710       -7.17700       -2.21210
C         -0.74950       -8.45330       -1.72660
C         -0.82010       -8.81820       -0.36620
N         -0.87910       -9.19470        0.71790
C         -0.56800       -9.59740       -2.53090
N         -0.41670      -10.57100       -3.12070
C         -0.44650       -7.00390       -7.43260
C          1.01190       -7.03630       -7.95410
C          1.84710       -6.28910       -6.94420
C          1.53360       -5.00330       -7.03120
C          0.48010       -4.85800       -8.10150
C          0.91540       -5.97570       -9.06250
C         -0.81540       -5.49020       -7.53410
H         -0.56370        8.48030        3.41620
H          5.88980        8.67900        3.72400
H         -1.58730        6.41660        1.95810
H          1.78900        6.72790        5.35990
H          1.16060        5.27210        6.15930
H          3.65470        5.23530        5.80370
H          3.37690        5.12920        4.06300
H          2.79290        3.85380        5.13050
H          0.50650       -6.59430        2.26140
H          0.45130       -5.60780        3.72810
H         -1.02590       -7.57480        3.94790
H         -1.92570       -7.10310        2.50910
H         -1.98810       -6.09260        3.95870
H         -2.88640        4.30690        1.43510
H         -2.72420        2.63180        0.91880
H         -3.74300        3.55710        3.65130
H         -3.56150        1.87090        3.16620
H         -4.73610        2.90610        2.34360
H         -0.86230       -0.23060       -0.02960
H         -1.22020        1.44130        0.40740
H         -3.15180        0.46270       -0.79280
H         -3.64740        0.62140        0.89960
H         -3.15100       -0.94480        0.26220
H         -0.59660       -6.74730        0.43360
H         -1.51880       -3.69510       -4.95810
H         -0.33630       -8.61470       -4.70800
H         -1.08560       -7.72100       -7.94360
H          1.36850       -8.02360       -8.23480
H          2.51800       -6.76430       -6.25280
H          1.89000       -4.18980       -6.42660
H          0.35230       -3.86180       -8.51700
H          1.87480       -5.77330       -9.53620
H          0.17130       -6.20860       -9.82290
H         -1.69750       -5.21790       -8.11050
