94

C          6.75990        1.72410       -4.53290
C          7.18930        0.47260       -4.89710
C          6.48030       -0.79870       -4.66690
O          5.40000       -0.96760       -4.13090
C          7.36020       -1.81580       -5.23400
S          7.32730       -3.51720       -5.40010
C          8.87180       -3.44820       -6.19810
Br         9.68290       -5.02910       -6.79010
C          9.38380       -2.18600       -6.32990
C          8.50480       -1.24290       -5.77020
C          8.43940        0.19680       -5.58170
C          9.40970        1.07270       -5.99460
C         10.57540        0.62720       -6.65350
N         11.53020        0.28700       -7.19090
C          9.38840        2.47180       -5.83130
N          9.43630        3.61530       -5.72980
C          5.60660        2.14670       -3.86370
C          5.35430        3.49530       -3.55460
C          6.26040        4.64540       -3.84940
C          7.33140        4.78580       -2.76380
C          4.15590        3.63890       -2.86840
S          3.32760        5.03960       -2.21450
C          2.07050        3.99610       -1.64780
C          0.84880        4.08070       -0.96220
C          0.05040        5.16970       -0.53920
C         -1.25330        4.91180        0.01310
N         -1.91170        6.02590        0.28780
S         -0.97830        7.28870       -0.10220
N          0.30530        6.46390       -0.64110
C         -1.64370        3.57530        0.26580
C         -2.74670        3.00700        0.91950
S         -4.24830        3.50190        1.61890
C         -4.55170        1.83470        2.07430
C         -5.60600        1.22330        2.73160
C         -6.77910        1.97970        3.26190
C         -6.57980        2.32900        4.73970
C         -5.38580       -0.16360        2.87540
S         -3.85070       -0.67130        2.16070
C         -3.52090        0.95210        1.69510
C         -2.49780        1.62890        1.03200
N         -1.29300        1.32040        0.45010
C         -0.77520        2.49490       -0.05430
C          0.38370        2.74460       -0.81940
N          1.25060        1.88230       -1.45980
C          2.28310        2.64200       -1.95010
C          3.47170        2.43010       -2.65160
S          4.32030        1.07870       -3.29760
C          0.91220        0.61850       -2.08600
C          0.62410        0.80250       -3.57550
C         -0.54570        0.15580        0.88450
C         -0.27190        0.20490        2.38700
C         -6.29050       -1.00700        3.51620
C         -6.25000       -2.36310        3.76670
C         -5.18060       -3.27580        3.36900
O         -4.15570       -3.01180        2.77020
C         -5.59880       -4.61600        3.84410
C         -6.84210       -4.51450        4.49270
C         -7.44810       -5.63870        5.02620
C         -6.79370       -6.85630        4.90010
F         -7.36160       -7.95300        5.40750
C         -5.56220       -6.97260        4.26030
F         -4.96470       -8.16310        4.15930
C         -4.95580       -5.83430        3.72420
F         -3.77960       -5.94630        3.11330
C         -7.27030       -3.11270        4.46200
C         -8.43530       -2.63910        5.01290
C         -9.38140       -3.44350        5.68230
N        -10.19120       -4.03790        6.23780
C         -8.86670       -1.29630        5.00170
N         -9.28680       -0.22750        5.04540
H          7.42330        2.53740       -4.79550
H         10.32650       -1.97330       -6.79900
H          5.65830        5.55580       -3.87430
H          6.74240        4.52800       -4.82080
H          6.86750        4.94450       -1.79320
H          7.94820        3.89160       -2.71270
H          7.97260        5.63320       -2.98810
H         -6.87580        2.90370        2.68860
H         -7.70080        1.40780        3.14670
H         -5.68680        2.93620        4.86780
H         -6.47740        1.42780        5.33940
H         -7.43760        2.88710        5.10290
H          1.75060       -0.07220       -1.95470
H          0.02080        0.21120       -1.61300
H          0.31950       -0.14830       -4.00320
H         -0.17780        1.52400       -3.71820
H          1.50700        1.14910       -4.10460
H         -1.12460       -0.74100        0.64370
H          0.40930        0.12890        0.36410
H          0.33260       -0.65210        2.66950
H          0.26800        1.11440        2.64270
H         -1.19690        0.17300        2.95500
H         -7.17110       -0.49370        3.87680
H         -8.39910       -5.61280        5.53160
