94

C         -1.92340        0.04480        7.07300
C         -2.40990        0.77150        8.11720
C         -2.33560        0.19890        9.49580
O         -1.75310       -0.80500        9.83370
C         -3.15450        1.10900       10.29420
S         -3.67970        1.18920       11.91990
C         -4.51360        2.67280       11.55810
Br        -5.47480        3.55130       12.90390
C         -4.38780        3.08980       10.26080
C         -3.60450        2.17960        9.53130
C         -3.06360        2.06260        8.18690
C         -3.00520        3.09510        7.28720
C         -2.23740        3.09270        6.10740
N         -1.58930        3.17120        5.16310
C         -3.65940        4.32180        7.52470
N         -4.20790        5.31540        7.69250
C         -2.14660        0.20310        5.68540
C         -3.26830        0.62950        4.98440
C         -4.60230        0.92100        5.59180
C         -5.70820        0.06760        4.97020
C         -3.02130        0.65060        3.60450
S         -3.98310        1.17250        2.24040
C         -2.63680        0.87120        1.20130
C         -2.27840        1.03540       -0.14330
C         -2.97090        1.63240       -1.21960
C         -2.28240        1.82340       -2.46210
N         -3.02380        2.45300       -3.35990
S         -4.46590        2.77390       -2.69980
N         -4.20070        2.12170       -1.24300
C         -0.98160        1.29250       -2.60920
C         -0.14230        1.22000       -3.72930
S         -0.10420        1.75770       -5.36970
C          1.41980        0.92540       -5.57840
C          2.26360        0.77200       -6.67940
C          2.03740        1.43360       -7.99560
C          2.86730        2.71640       -8.09440
C          3.38780        0.01480       -6.35860
S          3.35430       -0.53910       -4.68180
C          1.85770        0.27210       -4.41630
C          0.96780        0.45130       -3.35670
N          0.86620        0.08050       -2.04050
C         -0.32500        0.59650       -1.55300
C         -0.93200        0.58290       -0.27000
N         -0.48250        0.20290        0.98030
C         -1.51200        0.37120        1.86640
C         -1.72890        0.24740        3.24220
S         -0.81850       -0.24110        4.61820
C          0.86240        0.02450        1.48030
C          1.14160       -1.42540        1.87300
C          1.62340       -1.06960       -1.59520
C          0.83810       -2.35970       -1.82130
C          4.40010       -0.39180       -7.24640
C          5.63520       -0.90410       -6.96570
C          6.33240       -1.74730       -7.96480
O          6.05580       -1.87800       -9.13470
C          7.39840       -2.43990       -7.19950
C          8.26070       -3.42950       -7.62470
C          9.16430       -3.95580       -6.70820
Cl        10.26140       -5.19640       -7.17250
C          9.17650       -3.47080       -5.39840
F         10.04030       -3.99340       -4.51950
C          8.32310       -2.46720       -4.96620
C          7.42220       -1.94910       -5.88110
C          6.42980       -0.88470       -5.76030
C          6.44160        0.11520       -4.82140
C          5.67510        1.29100       -4.96010
N          5.10430        2.27970       -5.08030
C          7.27140        0.11770       -3.68450
N          7.90360        0.14640       -2.72670
H         -1.28360       -0.78570        7.35850
H         -4.83860        3.98600        9.87630
H         -4.83940        1.97930        5.44260
H         -4.56720        0.72580        6.66460
H         -5.82900        0.29120        3.91440
H         -5.47520       -0.98920        5.07960
H         -6.65050        0.26820        5.47350
H          2.31160        0.75900       -8.80920
H          0.97720        1.67750       -8.08620
H          2.69280        3.19960       -9.05190
H          2.59240        3.40480       -7.29970
H          3.92710        2.49280       -7.99950
H          0.96620        0.65280        2.37190
H          1.56830        0.39820        0.73770
H          0.51850       -1.70650        2.71790
H          0.93160       -2.10970        1.05550
H          2.18210       -1.53270        2.16640
H          1.90320       -0.97770       -0.55100
H          2.54280       -1.08800       -2.18620
H          0.60490       -2.48050       -2.87660
H         -0.09620       -2.34090       -1.26370
H          1.42660       -3.21350       -1.49730
H          4.13370       -0.38990       -8.29900
H          8.23250       -3.78440       -8.64250
H          8.37780       -2.13260       -3.94270
