
  xtb     02012223233D
 energy: -188.502105028582 gnorm: 0.000823596368 xtb: 6.4.1 (unknown)
 94105  0     0  0            999 V2000
    6.7599    1.7241   -4.5329 C   0  0  0  0  0  0  0  0  0  0  0  0
    7.1893    0.4726   -4.8971 C   0  0  0  0  0  0  0  0  0  0  0  0
    6.4803   -0.7987   -4.6669 C   0  0  0  0  0  0  0  0  0  0  0  0
    5.4000   -0.9676   -4.1309 O   0  0  0  0  0  0  0  0  0  0  0  0
    7.3602   -1.8158   -5.2340 C   0  0  0  0  0  0  0  0  0  0  0  0
    7.3273   -3.5172   -5.4001 S   0  0  0  0  0  0  0  0  0  0  0  0
    8.8718   -3.4482   -6.1981 C   0  0  0  0  0  0  0  0  0  0  0  0
    9.6829   -5.0291   -6.7901 Br  0  0  0  0  0  0  0  0  0  0  0  0
    9.3838   -2.1860   -6.3299 C   0  0  0  0  0  0  0  0  0  0  0  0
    8.5048   -1.2429   -5.7702 C   0  0  0  0  0  0  0  0  0  0  0  0
    8.4394    0.1968   -5.5817 C   0  0  0  0  0  0  0  0  0  0  0  0
    9.4097    1.0727   -5.9946 C   0  0  0  0  0  0  0  0  0  0  0  0
   10.5754    0.6272   -6.6535 C   0  0  0  0  0  0  0  0  0  0  0  0
   11.5302    0.2870   -7.1909 N   0  0  0  0  0  0  0  0  0  0  0  0
    9.3884    2.4718   -5.8313 C   0  0  0  0  0  0  0  0  0  0  0  0
    9.4363    3.6153   -5.7298 N   0  0  0  0  0  0  0  0  0  0  0  0
    5.6066    2.1467   -3.8637 C   0  0  0  0  0  0  0  0  0  0  0  0
    5.3543    3.4953   -3.5546 C   0  0  0  0  0  0  0  0  0  0  0  0
    6.2604    4.6454   -3.8494 C   0  0  0  0  0  0  0  0  0  0  0  0
    7.3314    4.7858   -2.7638 C   0  0  0  0  0  0  0  0  0  0  0  0
    4.1559    3.6389   -2.8684 C   0  0  0  0  0  0  0  0  0  0  0  0
    3.3276    5.0396   -2.2145 S   0  0  0  0  0  0  0  0  0  0  0  0
    2.0705    3.9961   -1.6478 C   0  0  0  0  0  0  0  0  0  0  0  0
    0.8488    4.0807   -0.9622 C   0  0  0  0  0  0  0  0  0  0  0  0
    0.0504    5.1697   -0.5392 C   0  0  0  0  0  0  0  0  0  0  0  0
   -1.2533    4.9118    0.0131 C   0  0  0  0  0  0  0  0  0  0  0  0
   -1.9117    6.0259    0.2878 N   0  0  0  0  0  0  0  0  0  0  0  0
   -0.9783    7.2887   -0.1022 S   0  0  0  0  0  0  0  0  0  0  0  0
    0.3053    6.4639   -0.6411 N   0  0  0  0  0  0  0  0  0  0  0  0
   -1.6437    3.5753    0.2658 C   0  0  0  0  0  0  0  0  0  0  0  0
   -2.7467    3.0070    0.9195 C   0  0  0  0  0  0  0  0  0  0  0  0
   -4.2483    3.5019    1.6189 S   0  0  0  0  0  0  0  0  0  0  0  0
   -4.5517    1.8347    2.0743 C   0  0  0  0  0  0  0  0  0  0  0  0
   -5.6060    1.2233    2.7316 C   0  0  0  0  0  0  0  0  0  0  0  0
   -6.7791    1.9797    3.2619 C   0  0  0  0  0  0  0  0  0  0  0  0
   -6.5798    2.3290    4.7397 C   0  0  0  0  0  0  0  0  0  0  0  0
   -5.3858   -0.1636    2.8754 C   0  0  0  0  0  0  0  0  0  0  0  0
   -3.8507   -0.6713    2.1607 S   0  0  0  0  0  0  0  0  0  0  0  0
   -3.5209    0.9521    1.6951 C   0  0  0  0  0  0  0  0  0  0  0  0
   -2.4978    1.6289    1.0320 C   0  0  0  0  0  0  0  0  0  0  0  0
   -1.2930    1.3204    0.4501 N   0  0  0  0  0  0  0  0  0  0  0  0
   -0.7752    2.4949   -0.0543 C   0  0  0  0  0  0  0  0  0  0  0  0
    0.3837    2.7446   -0.8194 C   0  0  0  0  0  0  0  0  0  0  0  0
    1.2506    1.8823   -1.4598 N   0  0  0  0  0  0  0  0  0  0  0  0
    2.2831    2.6420   -1.9501 C   0  0  0  0  0  0  0  0  0  0  0  0
    3.4717    2.4301   -2.6516 C   0  0  0  0  0  0  0  0  0  0  0  0
    4.3203    1.0787   -3.2976 S   0  0  0  0  0  0  0  0  0  0  0  0
    0.9122    0.6185   -2.0860 C   0  0  0  0  0  0  0  0  0  0  0  0
    0.6241    0.8025   -3.5755 C   0  0  0  0  0  0  0  0  0  0  0  0
   -0.5457    0.1558    0.8845 C   0  0  0  0  0  0  0  0  0  0  0  0
   -0.2719    0.2049    2.3870 C   0  0  0  0  0  0  0  0  0  0  0  0
   -6.2905   -1.0070    3.5162 C   0  0  0  0  0  0  0  0  0  0  0  0
   -6.2500   -2.3631    3.7667 C   0  0  0  0  0  0  0  0  0  0  0  0
   -5.1806   -3.2758    3.3690 C   0  0  0  0  0  0  0  0  0  0  0  0
   -4.1557   -3.0118    2.7702 O   0  0  0  0  0  0  0  0  0  0  0  0
   -5.5988   -4.6160    3.8441 C   0  0  0  0  0  0  0  0  0  0  0  0
   -6.8421   -4.5145    4.4927 C   0  0  0  0  0  0  0  0  0  0  0  0
   -7.4481   -5.6387    5.0262 C   0  0  0  0  0  0  0  0  0  0  0  0
   -6.7937   -6.8563    4.9001 C   0  0  0  0  0  0  0  0  0  0  0  0
   -7.3616   -7.9530    5.4075 F   0  0  0  0  0  0  0  0  0  0  0  0
   -5.5622   -6.9726    4.2603 C   0  0  0  0  0  0  0  0  0  0  0  0
   -4.9647   -8.1631    4.1593 F   0  0  0  0  0  0  0  0  0  0  0  0
   -4.9558   -5.8343    3.7242 C   0  0  0  0  0  0  0  0  0  0  0  0
   -3.7796   -5.9463    3.1133 F   0  0  0  0  0  0  0  0  0  0  0  0
   -7.2703   -3.1127    4.4620 C   0  0  0  0  0  0  0  0  0  0  0  0
   -8.4353   -2.6391    5.0129 C   0  0  0  0  0  0  0  0  0  0  0  0
   -9.3814   -3.4435    5.6823 C   0  0  0  0  0  0  0  0  0  0  0  0
  -10.1912   -4.0379    6.2378 N   0  0  0  0  0  0  0  0  0  0  0  0
   -8.8667   -1.2963    5.0017 C   0  0  0  0  0  0  0  0  0  0  0  0
   -9.2868   -0.2275    5.0454 N   0  0  0  0  0  0  0  0  0  0  0  0
    7.4233    2.5374   -4.7955 H   0  0  0  0  0  0  0  0  0  0  0  0
   10.3265   -1.9733   -6.7990 H   0  0  0  0  0  0  0  0  0  0  0  0
    5.6583    5.5558   -3.8743 H   0  0  0  0  0  0  0  0  0  0  0  0
    6.7424    4.5280   -4.8208 H   0  0  0  0  0  0  0  0  0  0  0  0
    6.8675    4.9445   -1.7932 H   0  0  0  0  0  0  0  0  0  0  0  0
    7.9482    3.8916   -2.7127 H   0  0  0  0  0  0  0  0  0  0  0  0
    7.9726    5.6332   -2.9881 H   0  0  0  0  0  0  0  0  0  0  0  0
   -6.8758    2.9037    2.6886 H   0  0  0  0  0  0  0  0  0  0  0  0
   -7.7008    1.4078    3.1467 H   0  0  0  0  0  0  0  0  0  0  0  0
   -5.6868    2.9362    4.8678 H   0  0  0  0  0  0  0  0  0  0  0  0
   -6.4774    1.4278    5.3394 H   0  0  0  0  0  0  0  0  0  0  0  0
   -7.4376    2.8871    5.1029 H   0  0  0  0  0  0  0  0  0  0  0  0
    1.7506   -0.0722   -1.9547 H   0  0  0  0  0  0  0  0  0  0  0  0
    0.0208    0.2112   -1.6130 H   0  0  0  0  0  0  0  0  0  0  0  0
    0.3195   -0.1483   -4.0032 H   0  0  0  0  0  0  0  0  0  0  0  0
   -0.1778    1.5240   -3.7182 H   0  0  0  0  0  0  0  0  0  0  0  0
    1.5070    1.1491   -4.1046 H   0  0  0  0  0  0  0  0  0  0  0  0
   -1.1246   -0.7410    0.6437 H   0  0  0  0  0  0  0  0  0  0  0  0
    0.4093    0.1289    0.3641 H   0  0  0  0  0  0  0  0  0  0  0  0
    0.3326   -0.6521    2.6695 H   0  0  0  0  0  0  0  0  0  0  0  0
    0.2680    1.1144    2.6427 H   0  0  0  0  0  0  0  0  0  0  0  0
   -1.1969    0.1730    2.9550 H   0  0  0  0  0  0  0  0  0  0  0  0
   -7.1711   -0.4937    3.8768 H   0  0  0  0  0  0  0  0  0  0  0  0
   -8.3991   -5.6128    5.5316 H   0  0  0  0  0  0  0  0  0  0  0  0
  1  2  2  0  0  0  0
  2  3  1  0  0  0  0
  3  4  2  0  0  0  0
  3  5  1  0  0  0  0
  5  6  1  0  0  0  0
  6  7  1  0  0  0  0
  7  8  1  0  0  0  0
  7  9  2  0  0  0  0
  9 10  1  0  0  0  0
 10 11  1  0  0  0  0
 11 12  2  0  0  0  0
 12 13  1  0  0  0  0
 13 14  3  0  0  0  0
 12 15  1  0  0  0  0
 15 16  3  0  0  0  0
  1 17  1  0  0  0  0
 17 18  2  0  0  0  0
 18 19  1  0  0  0  0
 19 20  1  0  0  0  0
 18 21  1  0  0  0  0
 21 22  1  0  0  0  0
 22 23  1  0  0  0  0
 23 24  1  0  0  0  0
 24 25  1  0  0  0  0
 25 26  1  0  0  0  0
 26 27  2  0  0  0  0
 27 28  1  0  0  0  0
 28 29  1  0  0  0  0
 26 30  1  0  0  0  0
 30 31  1  0  0  0  0
 31 32  1  0  0  0  0
 32 33  1  0  0  0  0
 33 34  1  0  0  0  0
 34 35  1  0  0  0  0
 35 36  1  0  0  0  0
 34 37  2  0  0  0  0
 37 38  1  0  0  0  0
 38 39  1  0  0  0  0
 39 40  1  0  0  0  0
 40 41  1  0  0  0  0
 41 42  1  0  0  0  0
 42 43  1  0  0  0  0
 43 44  1  0  0  0  0
 44 45  1  0  0  0  0
 45 46  1  0  0  0  0
 46 47  1  0  0  0  0
 44 48  1  0  0  0  0
 48 49  1  0  0  0  0
 41 50  1  0  0  0  0
 50 51  1  0  0  0  0
 37 52  1  0  0  0  0
 52 53  2  0  0  0  0
 53 54  1  0  0  0  0
 54 55  2  0  0  0  0
 54 56  1  0  0  0  0
 56 57  2  0  0  0  0
 57 58  1  0  0  0  0
 58 59  2  0  0  0  0
 59 60  1  0  0  0  0
 59 61  1  0  0  0  0
 61 62  1  0  0  0  0
 61 63  2  0  0  0  0
 63 64  1  0  0  0  0
 57 65  1  0  0  0  0
 65 66  2  0  0  0  0
 66 67  1  0  0  0  0
 67 68  3  0  0  0  0
 66 69  1  0  0  0  0
 69 70  3  0  0  0  0
 11  2  1  0  0  0  0
 47 17  1  0  0  0  0
 65 53  1  0  0  0  0
 10  5  2  0  0  0  0
 46 21  2  0  0  0  0
 63 56  1  0  0  0  0
 45 23  2  0  0  0  0
 43 24  2  0  0  0  0
 29 25  2  0  0  0  0
 42 30  2  0  0  0  0
 40 31  2  0  0  0  0
 39 33  2  0  0  0  0
  1 71  1  0  0  0  0
  9 72  1  0  0  0  0
 19 73  1  0  0  0  0
 19 74  1  0  0  0  0
 20 75  1  0  0  0  0
 20 76  1  0  0  0  0
 20 77  1  0  0  0  0
 35 78  1  0  0  0  0
 35 79  1  0  0  0  0
 36 80  1  0  0  0  0
 36 81  1  0  0  0  0
 36 82  1  0  0  0  0
 48 83  1  0  0  0  0
 48 84  1  0  0  0  0
 49 85  1  0  0  0  0
 49 86  1  0  0  0  0
 49 87  1  0  0  0  0
 50 88  1  0  0  0  0
 50 89  1  0  0  0  0
 51 90  1  0  0  0  0
 51 91  1  0  0  0  0
 51 92  1  0  0  0  0
 52 93  1  0  0  0  0
 58 94  1  0  0  0  0
M  END
