
  xtb     02012216353D
 energy: -215.626343249015 gnorm: 0.000885308775 xtb: 6.4.1 (unknown)
110125  0     0  0            999 V2000
    8.3934   -4.7226   -5.2446 C   0  0  0  0  0  0  0  0  0  0  0  0
    9.3833   -5.4562   -4.6479 C   0  0  0  0  0  0  0  0  0  0  0  0
    9.5141   -5.7254   -3.2001 C   0  0  0  0  0  0  0  0  0  0  0  0
    8.7821   -5.3592   -2.3022 O   0  0  0  0  0  0  0  0  0  0  0  0
   10.7252   -6.5340   -3.0894 C   0  0  0  0  0  0  0  0  0  0  0  0
   11.6004   -7.2662   -1.8170 S   0  0  0  0  0  0  0  0  0  0  0  0
   12.7445   -7.8701   -2.9805 C   0  0  0  0  0  0  0  0  0  0  0  0
   14.2014   -8.8960   -2.4049 Br  0  0  0  0  0  0  0  0  0  0  0  0
   12.4682   -7.5279   -4.2759 C   0  0  0  0  0  0  0  0  0  0  0  0
   11.2965   -6.7530   -4.3350 C   0  0  0  0  0  0  0  0  0  0  0  0
   10.4854   -6.0957   -5.3455 C   0  0  0  0  0  0  0  0  0  0  0  0
   10.7631   -6.1140   -6.6872 C   0  0  0  0  0  0  0  0  0  0  0  0
   11.8912   -6.7898   -7.1994 C   0  0  0  0  0  0  0  0  0  0  0  0
   12.8039   -7.3306   -7.6363 N   0  0  0  0  0  0  0  0  0  0  0  0
   10.0084   -5.4945   -7.7028 C   0  0  0  0  0  0  0  0  0  0  0  0
    9.4440   -5.0251   -8.5860 N   0  0  0  0  0  0  0  0  0  0  0  0
    7.2879   -4.0508   -4.6956 C   0  0  0  0  0  0  0  0  0  0  0  0
    6.8422   -3.9649   -2.9995 S   0  0  0  0  0  0  0  0  0  0  0  0
    5.4730   -2.9847   -3.3841 C   0  0  0  0  0  0  0  0  0  0  0  0
    4.5442   -2.4686   -2.4736 C   0  0  0  0  0  0  0  0  0  0  0  0
    4.6084   -2.7671   -0.7506 S   0  0  0  0  0  0  0  0  0  0  0  0
    3.1873   -1.8206   -0.5545 C   0  0  0  0  0  0  0  0  0  0  0  0
    2.3530   -1.3879    0.4828 C   0  0  0  0  0  0  0  0  0  0  0  0
    2.4698   -1.5629    1.8783 C   0  0  0  0  0  0  0  0  0  0  0  0
    1.5158   -0.9221    2.7308 C   0  0  0  0  0  0  0  0  0  0  0  0
    1.7646   -1.1259    4.0149 N   0  0  0  0  0  0  0  0  0  0  0  0
    3.0876   -2.0512    4.1378 S   0  0  0  0  0  0  0  0  0  0  0  0
    3.3932   -2.2256    2.5571 N   0  0  0  0  0  0  0  0  0  0  0  0
    0.4428   -0.2233    2.1375 C   0  0  0  0  0  0  0  0  0  0  0  0
   -0.6738    0.3831    2.7245 C   0  0  0  0  0  0  0  0  0  0  0  0
   -1.2952    0.6781    4.2995 S   0  0  0  0  0  0  0  0  0  0  0  0
   -2.7023    1.4297    3.5804 C   0  0  0  0  0  0  0  0  0  0  0  0
   -3.7577    1.9666    4.3265 C   0  0  0  0  0  0  0  0  0  0  0  0
   -4.8673    2.5801    3.7058 C   0  0  0  0  0  0  0  0  0  0  0  0
   -4.8639    2.6265    2.2890 C   0  0  0  0  0  0  0  0  0  0  0  0
   -5.7481    3.1279    1.4272 N   0  0  0  0  0  0  0  0  0  0  0  0
   -5.2366    2.8814    0.2514 N   0  0  0  0  0  0  0  0  0  0  0  0
   -5.8725    3.3145   -0.9587 C   0  0  0  0  0  0  0  0  0  0  0  0
   -5.3894    4.7083   -1.3495 C   0  0  0  0  0  0  0  0  0  0  0  0
   -4.0820    2.2591    0.2421 N   0  0  0  0  0  0  0  0  0  0  0  0
   -3.7918    2.0666    1.5336 C   0  0  0  0  0  0  0  0  0  0  0  0
   -2.6813    1.4488    2.1690 C   0  0  0  0  0  0  0  0  0  0  0  0
   -1.5014    0.8336    1.6918 C   0  0  0  0  0  0  0  0  0  0  0  0
   -0.9174    0.5420    0.4852 N   0  0  0  0  0  0  0  0  0  0  0  0
    0.2875   -0.1007    0.7270 C   0  0  0  0  0  0  0  0  0  0  0  0
    1.3176   -0.6132   -0.1139 C   0  0  0  0  0  0  0  0  0  0  0  0
    1.5582   -0.5578   -1.4793 N   0  0  0  0  0  0  0  0  0  0  0  0
    2.6868   -1.2909   -1.7474 C   0  0  0  0  0  0  0  0  0  0  0  0
    3.4574   -1.6604   -2.8728 C   0  0  0  0  0  0  0  0  0  0  0  0
    3.3405   -1.4092   -4.2661 C   0  0  0  0  0  0  0  0  0  0  0  0
    4.2774   -1.9430   -5.1992 C   0  0  0  0  0  0  0  0  0  0  0  0
    5.3695   -2.7385   -4.7703 C   0  0  0  0  0  0  0  0  0  0  0  0
    6.3925   -3.3438   -5.4913 C   0  0  0  0  0  0  0  0  0  0  0  0
    3.9070   -1.5469   -6.4166 N   0  0  0  0  0  0  0  0  0  0  0  0
    2.8330   -0.8315   -6.2161 N   0  0  0  0  0  0  0  0  0  0  0  0
    2.0889   -0.2597   -7.3005 C   0  0  0  0  0  0  0  0  0  0  0  0
    1.0008   -1.2214   -7.7696 C   0  0  0  0  0  0  0  0  0  0  0  0
    2.4427   -0.7109   -4.9700 N   0  0  0  0  0  0  0  0  0  0  0  0
    1.0619    0.3935   -2.4485 C   0  0  0  0  0  0  0  0  0  0  0  0
    1.3705    1.8281   -2.0251 C   0  0  0  0  0  0  0  0  0  0  0  0
   -1.6916    0.5894   -0.7340 C   0  0  0  0  0  0  0  0  0  0  0  0
   -2.0163   -0.8143   -1.2413 C   0  0  0  0  0  0  0  0  0  0  0  0
   -5.7977    3.0425    4.6289 C   0  0  0  0  0  0  0  0  0  0  0  0
   -5.4393    2.7938    5.9504 C   0  0  0  0  0  0  0  0  0  0  0  0
   -3.8942    1.9654    6.0489 S   0  0  0  0  0  0  0  0  0  0  0  0
   -6.2618    3.1839    7.0206 C   0  0  0  0  0  0  0  0  0  0  0  0
   -6.1134    3.0100    8.3719 C   0  0  0  0  0  0  0  0  0  0  0  0
   -4.9958    2.3151    9.0285 C   0  0  0  0  0  0  0  0  0  0  0  0
   -4.0167    1.8296    8.4965 O   0  0  0  0  0  0  0  0  0  0  0  0
   -5.3046    2.3235   10.4706 C   0  0  0  0  0  0  0  0  0  0  0  0
   -4.5925    1.7872   11.5312 C   0  0  0  0  0  0  0  0  0  0  0  0
   -3.1075    0.9672   11.2745 Cl  0  0  0  0  0  0  0  0  0  0  0  0
   -5.1063    1.9241   12.8195 C   0  0  0  0  0  0  0  0  0  0  0  0
   -6.3045    2.5845   13.0228 C   0  0  0  0  0  0  0  0  0  0  0  0
   -7.0274    3.1280   11.9666 C   0  0  0  0  0  0  0  0  0  0  0  0
   -6.5230    2.9961   10.6843 C   0  0  0  0  0  0  0  0  0  0  0  0
   -7.0422    3.4496    9.3924 C   0  0  0  0  0  0  0  0  0  0  0  0
   -8.1953    4.1704    9.2176 C   0  0  0  0  0  0  0  0  0  0  0  0
   -9.0538    4.5677   10.2646 C   0  0  0  0  0  0  0  0  0  0  0  0
   -9.7984    4.9291   11.0602 N   0  0  0  0  0  0  0  0  0  0  0  0
   -8.7034    4.6337    7.9856 C   0  0  0  0  0  0  0  0  0  0  0  0
   -9.1894    5.0540    7.0331 N   0  0  0  0  0  0  0  0  0  0  0  0
    8.4506   -4.6249   -6.3226 H   0  0  0  0  0  0  0  0  0  0  0  0
   13.0764   -7.8217   -5.1112 H   0  0  0  0  0  0  0  0  0  0  0  0
   -6.9486    3.3213   -0.7764 H   0  0  0  0  0  0  0  0  0  0  0  0
   -5.6280    2.5910   -1.7392 H   0  0  0  0  0  0  0  0  0  0  0  0
   -5.8790    5.0254   -2.2657 H   0  0  0  0  0  0  0  0  0  0  0  0
   -4.3138    4.7029   -1.5090 H   0  0  0  0  0  0  0  0  0  0  0  0
   -5.6248    5.4196   -0.5619 H   0  0  0  0  0  0  0  0  0  0  0  0
    6.4873   -3.2732   -6.5602 H   0  0  0  0  0  0  0  0  0  0  0  0
    1.6475    0.6738   -6.9450 H   0  0  0  0  0  0  0  0  0  0  0  0
    2.7945   -0.0582   -8.1082 H   0  0  0  0  0  0  0  0  0  0  0  0
    0.4445   -0.7777   -8.5901 H   0  0  0  0  0  0  0  0  0  0  0  0
    0.3137   -1.4382   -6.9551 H   0  0  0  0  0  0  0  0  0  0  0  0
    1.4464   -2.1523   -8.1111 H   0  0  0  0  0  0  0  0  0  0  0  0
   -0.0037    0.2448   -2.6178 H   0  0  0  0  0  0  0  0  0  0  0  0
    1.5657    0.1752   -3.3916 H   0  0  0  0  0  0  0  0  0  0  0  0
    0.9774    2.5239   -2.7616 H   0  0  0  0  0  0  0  0  0  0  0  0
    2.4466    1.9707   -1.9558 H   0  0  0  0  0  0  0  0  0  0  0  0
    0.9360    2.0601   -1.0551 H   0  0  0  0  0  0  0  0  0  0  0  0
   -1.1742    1.1811   -1.4883 H   0  0  0  0  0  0  0  0  0  0  0  0
   -2.6197    1.1140   -0.4998 H   0  0  0  0  0  0  0  0  0  0  0  0
   -2.5790   -0.7511   -2.1691 H   0  0  0  0  0  0  0  0  0  0  0  0
   -1.1134   -1.3952   -1.4161 H   0  0  0  0  0  0  0  0  0  0  0  0
   -2.6206   -1.3421   -0.5070 H   0  0  0  0  0  0  0  0  0  0  0  0
   -6.7094    3.5419    4.3534 H   0  0  0  0  0  0  0  0  0  0  0  0
   -7.1585    3.6956    6.6918 H   0  0  0  0  0  0  0  0  0  0  0  0
   -4.5609    1.5098   13.6522 H   0  0  0  0  0  0  0  0  0  0  0  0
   -6.6894    2.6808   14.0265 H   0  0  0  0  0  0  0  0  0  0  0  0
   -7.9578    3.6351   12.1594 H   0  0  0  0  0  0  0  0  0  0  0  0
  1  2  2  0  0  0  0
  2  3  1  0  0  0  0
  3  4  2  0  0  0  0
  3  5  1  0  0  0  0
  5  6  1  0  0  0  0
  6  7  1  0  0  0  0
  7  8  1  0  0  0  0
  7  9  2  0  0  0  0
  9 10  1  0  0  0  0
 10 11  1  0  0  0  0
 11 12  2  0  0  0  0
 12 13  1  0  0  0  0
 13 14  3  0  0  0  0
 12 15  1  0  0  0  0
 15 16  3  0  0  0  0
  1 17  1  0  0  0  0
 17 18  1  0  0  0  0
 18 19  1  0  0  0  0
 19 20  1  0  0  0  0
 20 21  1  0  0  0  0
 21 22  1  0  0  0  0
 22 23  1  0  0  0  0
 23 24  1  0  0  0  0
 24 25  1  0  0  0  0
 25 26  2  0  0  0  0
 26 27  1  0  0  0  0
 27 28  1  0  0  0  0
 25 29  1  0  0  0  0
 29 30  1  0  0  0  0
 30 31  1  0  0  0  0
 31 32  1  0  0  0  0
 32 33  1  0  0  0  0
 33 34  2  0  0  0  0
 34 35  1  0  0  0  0
 35 36  2  0  0  0  0
 36 37  1  0  0  0  0
 37 38  1  0  0  0  0
 38 39  1  0  0  0  0
 37 40  1  0  0  0  0
 40 41  2  0  0  0  0
 41 42  1  0  0  0  0
 42 43  1  0  0  0  0
 43 44  1  0  0  0  0
 44 45  1  0  0  0  0
 45 46  1  0  0  0  0
 46 47  1  0  0  0  0
 47 48  1  0  0  0  0
 48 49  1  0  0  0  0
 49 50  1  0  0  0  0
 50 51  1  0  0  0  0
 51 52  1  0  0  0  0
 52 53  1  0  0  0  0
 51 54  2  0  0  0  0
 54 55  1  0  0  0  0
 55 56  1  0  0  0  0
 56 57  1  0  0  0  0
 55 58  1  0  0  0  0
 47 59  1  0  0  0  0
 59 60  1  0  0  0  0
 44 61  1  0  0  0  0
 61 62  1  0  0  0  0
 34 63  1  0  0  0  0
 63 64  2  0  0  0  0
 64 65  1  0  0  0  0
 64 66  1  0  0  0  0
 66 67  2  0  0  0  0
 67 68  1  0  0  0  0
 68 69  2  0  0  0  0
 68 70  1  0  0  0  0
 70 71  2  0  0  0  0
 71 72  1  0  0  0  0
 71 73  1  0  0  0  0
 73 74  2  0  0  0  0
 74 75  1  0  0  0  0
 75 76  2  0  0  0  0
 76 77  1  0  0  0  0
 77 78  2  0  0  0  0
 78 79  1  0  0  0  0
 79 80  3  0  0  0  0
 78 81  1  0  0  0  0
 81 82  3  0  0  0  0
 11  2  1  0  0  0  0
 53 17  2  0  0  0  0
 77 67  1  0  0  0  0
 10  5  2  0  0  0  0
 52 19  2  0  0  0  0
 76 70  1  0  0  0  0
 49 20  2  0  0  0  0
 58 50  2  0  0  0  0
 48 22  2  0  0  0  0
 46 23  2  0  0  0  0
 28 24  2  0  0  0  0
 45 29  2  0  0  0  0
 43 30  2  0  0  0  0
 42 32  2  0  0  0  0
 65 33  1  0  0  0  0
 41 35  1  0  0  0  0
  1 83  1  0  0  0  0
  9 84  1  0  0  0  0
 38 85  1  0  0  0  0
 38 86  1  0  0  0  0
 39 87  1  0  0  0  0
 39 88  1  0  0  0  0
 39 89  1  0  0  0  0
 53 90  1  0  0  0  0
 56 91  1  0  0  0  0
 56 92  1  0  0  0  0
 57 93  1  0  0  0  0
 57 94  1  0  0  0  0
 57 95  1  0  0  0  0
 59 96  1  0  0  0  0
 59 97  1  0  0  0  0
 60 98  1  0  0  0  0
 60 99  1  0  0  0  0
 60100  1  0  0  0  0
 61101  1  0  0  0  0
 61102  1  0  0  0  0
 62103  1  0  0  0  0
 62104  1  0  0  0  0
 62105  1  0  0  0  0
 63106  1  0  0  0  0
 66107  1  0  0  0  0
 73108  1  0  0  0  0
 74109  1  0  0  0  0
 75110  1  0  0  0  0
M  END
