101

C          0.05590        5.75790       -5.38310
C         -1.00750        6.55280       -5.04380
C         -1.94590        6.43560       -3.89320
O         -1.95970        5.62050       -2.98890
C         -2.87090        7.54420       -4.06940
S         -4.23950        8.14310       -3.23640
C         -4.40750        9.42270       -4.40860
C         -5.50790       10.40890       -4.27010
C         -3.44820        9.37500       -5.38140
C         -2.56270        8.29720       -5.19110
C         -1.39700        7.71900       -5.82970
C         -0.82140        8.22940       -6.96470
C          0.30800        7.73470       -7.64700
N          1.21730        7.40790       -8.26890
C         -1.34100        9.37910       -7.59720
N         -1.74400       10.31280       -8.12930
C          0.58910        4.58980       -4.80650
Se         2.13050        3.81250       -5.66090
C          2.03720        2.52570       -4.34560
C          2.65050        1.32690       -3.95680
C          3.63350        0.53520       -4.58990
C          3.91150       -0.77880       -4.08130
N          4.78720       -1.43130       -4.82920
S          5.22810       -0.47690       -6.05980
N          4.31520        0.80920       -5.69010
C          3.29400       -1.18770       -2.87660
C          3.40940       -2.35200       -2.09980
S          4.16670       -3.90540       -2.16500
C          3.46570       -4.29040       -0.60970
C          3.51220       -5.43460        0.19480
C          4.28380       -6.66040       -0.16740
C          5.74420       -6.52430        0.27150
C          2.75610       -5.27470        1.34790
S          2.01520       -3.67540        1.44110
C          2.69860       -3.24580       -0.07960
C          2.65960       -2.14360       -0.93450
N          2.06880       -0.90770       -0.96680
C          2.41500       -0.31890       -2.16980
C          1.97720        0.87570       -2.78910
N          0.94780        1.74850       -2.50650
C          0.97600        2.75110       -3.44560
C          0.18080        3.86200       -3.70010
C         -0.24360        1.52280       -1.71410
C         -0.39770        2.53860       -0.58170
C          1.71510       -0.24820        0.27200
C          2.93570       -0.08080        1.17710
C          2.62760       -6.19270        2.41580
C          1.68740       -6.22090        3.39900
C          1.97140       -6.90550        4.68800
O          2.87030       -7.68500        4.91190
C          0.96850       -6.37790        5.63500
C          0.89690       -6.61120        7.00660
C         -0.13550       -5.95570        7.63390
C         -1.03610       -5.12610        6.95140
C         -0.98600       -4.89480        5.59750
C          0.05730       -5.55230        4.94230
C          0.39830       -5.57700        3.52340
C         -0.46160       -5.30650        2.49010
C         -0.17830       -5.64990        1.15150
N          0.00390       -5.96560        0.06280
C         -1.74000       -4.73860        2.64680
N         -2.77530       -4.24560        2.71120
C         -1.79630       -4.78290        8.20740
C         -1.53920       -3.39800        8.85150
C         -0.14180       -2.99200        8.45380
C          0.70800       -3.77890        9.10020
C         -0.09950       -4.73140        9.94670
C         -1.29200       -3.83020       10.30560
C         -0.79570       -5.70920        8.96770
H          0.59850        6.07170       -6.26900
H         -6.47290        9.90460       -4.23430
H         -5.39770       10.97830       -3.34730
H         -5.49960       11.09790       -5.11070
H         -3.39430       10.08340       -6.18700
H          4.24570       -6.78400       -1.25150
H          3.83490       -7.53920        0.29500
H          6.20450       -5.66380       -0.20830
H          6.30010       -7.41520       -0.00770
H          5.81110       -6.39710        1.34970
H         -0.67410        4.15850       -3.12090
H         -1.10850        1.61080       -2.38140
H         -0.22560        0.49990       -1.33620
H          0.51840        2.63810       -0.00310
H         -0.64790        3.51840       -0.97730
H         -1.19800        2.22350        0.08220
H          1.31550        0.73520        0.05020
H          0.95340       -0.84780        0.78060
H          3.71360        0.47720        0.65990
H          2.65070        0.46450        2.07250
H          3.33830       -1.04470        1.47580
H          3.43300       -6.91180        2.52530
H          1.60700       -7.25830        7.49710
H         -1.67950       -4.25280        5.07910
H         -2.85000       -5.05440        8.21520
H         -2.32140       -2.66500        8.67260
H          0.07720       -2.23630        7.72220
H          1.77860       -3.81180        9.01660
H          0.42910       -5.21190       10.76570
H         -2.12830       -4.37170       10.74530
H         -1.01220       -2.99850       10.95050
H         -1.19640       -6.58630        9.47200
