
  xtb     02112207183D
 energy: -179.498997433090 gnorm: 0.000503638988 xtb: 6.4.1 (unknown)
101114  0     0  0            999 V2000
    0.0559    5.7579   -5.3831 C   0  0  0  0  0  0  0  0  0  0  0  0
   -1.0075    6.5528   -5.0438 C   0  0  0  0  0  0  0  0  0  0  0  0
   -1.9459    6.4356   -3.8932 C   0  0  0  0  0  0  0  0  0  0  0  0
   -1.9597    5.6205   -2.9889 O   0  0  0  0  0  0  0  0  0  0  0  0
   -2.8709    7.5442   -4.0694 C   0  0  0  0  0  0  0  0  0  0  0  0
   -4.2395    8.1431   -3.2364 S   0  0  0  0  0  0  0  0  0  0  0  0
   -4.4075    9.4227   -4.4086 C   0  0  0  0  0  0  0  0  0  0  0  0
   -5.5079   10.4089   -4.2701 C   0  0  0  0  0  0  0  0  0  0  0  0
   -3.4482    9.3750   -5.3814 C   0  0  0  0  0  0  0  0  0  0  0  0
   -2.5627    8.2972   -5.1911 C   0  0  0  0  0  0  0  0  0  0  0  0
   -1.3970    7.7190   -5.8297 C   0  0  0  0  0  0  0  0  0  0  0  0
   -0.8214    8.2294   -6.9647 C   0  0  0  0  0  0  0  0  0  0  0  0
    0.3080    7.7347   -7.6470 C   0  0  0  0  0  0  0  0  0  0  0  0
    1.2173    7.4079   -8.2689 N   0  0  0  0  0  0  0  0  0  0  0  0
   -1.3410    9.3791   -7.5972 C   0  0  0  0  0  0  0  0  0  0  0  0
   -1.7440   10.3128   -8.1293 N   0  0  0  0  0  0  0  0  0  0  0  0
    0.5891    4.5898   -4.8065 C   0  0  0  0  0  0  0  0  0  0  0  0
    2.1305    3.8125   -5.6609 Se  0  0  0  0  0  2  0  0  0  0  0  0
    2.0372    2.5257   -4.3456 C   0  0  0  0  0  0  0  0  0  0  0  0
    2.6505    1.3269   -3.9568 C   0  0  0  0  0  0  0  0  0  0  0  0
    3.6335    0.5352   -4.5899 C   0  0  0  0  0  0  0  0  0  0  0  0
    3.9115   -0.7788   -4.0813 C   0  0  0  0  0  0  0  0  0  0  0  0
    4.7872   -1.4313   -4.8292 N   0  0  0  0  0  0  0  0  0  0  0  0
    5.2281   -0.4769   -6.0598 S   0  0  0  0  0  0  0  0  0  0  0  0
    4.3152    0.8092   -5.6901 N   0  0  0  0  0  0  0  0  0  0  0  0
    3.2940   -1.1877   -2.8766 C   0  0  0  0  0  0  0  0  0  0  0  0
    3.4094   -2.3520   -2.0998 C   0  0  0  0  0  0  0  0  0  0  0  0
    4.1667   -3.9054   -2.1650 S   0  0  0  0  0  0  0  0  0  0  0  0
    3.4657   -4.2904   -0.6097 C   0  0  0  0  0  0  0  0  0  0  0  0
    3.5122   -5.4346    0.1948 C   0  0  0  0  0  0  0  0  0  0  0  0
    4.2838   -6.6604   -0.1674 C   0  0  0  0  0  0  0  0  0  0  0  0
    5.7442   -6.5243    0.2715 C   0  0  0  0  0  0  0  0  0  0  0  0
    2.7561   -5.2747    1.3479 C   0  0  0  0  0  0  0  0  0  0  0  0
    2.0152   -3.6754    1.4411 S   0  0  0  0  0  0  0  0  0  0  0  0
    2.6986   -3.2458   -0.0796 C   0  0  0  0  0  0  0  0  0  0  0  0
    2.6596   -2.1436   -0.9345 C   0  0  0  0  0  0  0  0  0  0  0  0
    2.0688   -0.9077   -0.9668 N   0  0  0  0  0  0  0  0  0  0  0  0
    2.4150   -0.3189   -2.1698 C   0  0  0  0  0  0  0  0  0  0  0  0
    1.9772    0.8757   -2.7891 C   0  0  0  0  0  0  0  0  0  0  0  0
    0.9478    1.7485   -2.5065 N   0  0  0  0  0  0  0  0  0  0  0  0
    0.9760    2.7511   -3.4456 C   0  0  0  0  0  0  0  0  0  0  0  0
    0.1808    3.8620   -3.7001 C   0  0  0  0  0  0  0  0  0  0  0  0
   -0.2436    1.5228   -1.7141 C   0  0  0  0  0  0  0  0  0  0  0  0
   -0.3977    2.5386   -0.5817 C   0  0  0  0  0  0  0  0  0  0  0  0
    1.7151   -0.2482    0.2720 C   0  0  0  0  0  0  0  0  0  0  0  0
    2.9357   -0.0808    1.1771 C   0  0  0  0  0  0  0  0  0  0  0  0
    2.6276   -6.1927    2.4158 C   0  0  0  0  0  0  0  0  0  0  0  0
    1.6874   -6.2209    3.3990 C   0  0  0  0  0  0  0  0  0  0  0  0
    1.9714   -6.9055    4.6880 C   0  0  0  0  0  0  0  0  0  0  0  0
    2.8703   -7.6850    4.9119 O   0  0  0  0  0  0  0  0  0  0  0  0
    0.9685   -6.3779    5.6350 C   0  0  0  0  0  0  0  0  0  0  0  0
    0.8969   -6.6112    7.0066 C   0  0  0  0  0  0  0  0  0  0  0  0
   -0.1355   -5.9557    7.6339 C   0  0  0  0  0  0  0  0  0  0  0  0
   -1.0361   -5.1261    6.9514 C   0  0  0  0  0  0  0  0  0  0  0  0
   -0.9860   -4.8948    5.5975 C   0  0  0  0  0  0  0  0  0  0  0  0
    0.0573   -5.5523    4.9423 C   0  0  0  0  0  0  0  0  0  0  0  0
    0.3983   -5.5770    3.5234 C   0  0  0  0  0  0  0  0  0  0  0  0
   -0.4616   -5.3065    2.4901 C   0  0  0  0  0  0  0  0  0  0  0  0
   -0.1783   -5.6499    1.1515 C   0  0  0  0  0  0  0  0  0  0  0  0
    0.0039   -5.9656    0.0628 N   0  0  0  0  0  0  0  0  0  0  0  0
   -1.7400   -4.7386    2.6468 C   0  0  0  0  0  0  0  0  0  0  0  0
   -2.7753   -4.2456    2.7112 N   0  0  0  0  0  0  0  0  0  0  0  0
   -1.7963   -4.7829    8.2074 C   0  0  0  0  0  0  0  0  0  0  0  0
   -1.5392   -3.3980    8.8515 C   0  0  0  0  0  0  0  0  0  0  0  0
   -0.1418   -2.9920    8.4538 C   0  0  0  0  0  0  0  0  0  0  0  0
    0.7080   -3.7789    9.1002 C   0  0  0  0  0  0  0  0  0  0  0  0
   -0.0995   -4.7314    9.9467 C   0  0  0  0  0  0  0  0  0  0  0  0
   -1.2920   -3.8302   10.3056 C   0  0  0  0  0  0  0  0  0  0  0  0
   -0.7957   -5.7092    8.9677 C   0  0  0  0  0  0  0  0  0  0  0  0
    0.5985    6.0717   -6.2690 H   0  0  0  0  0  0  0  0  0  0  0  0
   -6.4729    9.9046   -4.2343 H   0  0  0  0  0  0  0  0  0  0  0  0
   -5.3977   10.9783   -3.3473 H   0  0  0  0  0  0  0  0  0  0  0  0
   -5.4996   11.0979   -5.1107 H   0  0  0  0  0  0  0  0  0  0  0  0
   -3.3943   10.0834   -6.1870 H   0  0  0  0  0  0  0  0  0  0  0  0
    4.2457   -6.7840   -1.2515 H   0  0  0  0  0  0  0  0  0  0  0  0
    3.8349   -7.5392    0.2950 H   0  0  0  0  0  0  0  0  0  0  0  0
    6.2045   -5.6638   -0.2083 H   0  0  0  0  0  0  0  0  0  0  0  0
    6.3001   -7.4152   -0.0077 H   0  0  0  0  0  0  0  0  0  0  0  0
    5.8111   -6.3971    1.3497 H   0  0  0  0  0  0  0  0  0  0  0  0
   -0.6741    4.1585   -3.1209 H   0  0  0  0  0  0  0  0  0  0  0  0
   -1.1085    1.6108   -2.3814 H   0  0  0  0  0  0  0  0  0  0  0  0
   -0.2256    0.4999   -1.3362 H   0  0  0  0  0  0  0  0  0  0  0  0
    0.5184    2.6381   -0.0031 H   0  0  0  0  0  0  0  0  0  0  0  0
   -0.6479    3.5184   -0.9773 H   0  0  0  0  0  0  0  0  0  0  0  0
   -1.1980    2.2235    0.0822 H   0  0  0  0  0  0  0  0  0  0  0  0
    1.3155    0.7352    0.0502 H   0  0  0  0  0  0  0  0  0  0  0  0
    0.9534   -0.8478    0.7806 H   0  0  0  0  0  0  0  0  0  0  0  0
    3.7136    0.4772    0.6599 H   0  0  0  0  0  0  0  0  0  0  0  0
    2.6507    0.4645    2.0725 H   0  0  0  0  0  0  0  0  0  0  0  0
    3.3383   -1.0447    1.4758 H   0  0  0  0  0  0  0  0  0  0  0  0
    3.4330   -6.9118    2.5253 H   0  0  0  0  0  0  0  0  0  0  0  0
    1.6070   -7.2583    7.4971 H   0  0  0  0  0  0  0  0  0  0  0  0
   -1.6795   -4.2528    5.0791 H   0  0  0  0  0  0  0  0  0  0  0  0
   -2.8500   -5.0544    8.2152 H   0  0  0  0  0  0  0  0  0  0  0  0
   -2.3214   -2.6650    8.6726 H   0  0  0  0  0  0  0  0  0  0  0  0
    0.0772   -2.2363    7.7222 H   0  0  0  0  0  0  0  0  0  0  0  0
    1.7786   -3.8118    9.0166 H   0  0  0  0  0  0  0  0  0  0  0  0
    0.4291   -5.2119   10.7657 H   0  0  0  0  0  0  0  0  0  0  0  0
   -2.1283   -4.3717   10.7453 H   0  0  0  0  0  0  0  0  0  0  0  0
   -1.0122   -2.9985   10.9505 H   0  0  0  0  0  0  0  0  0  0  0  0
   -1.1964   -6.5863    9.4720 H   0  0  0  0  0  0  0  0  0  0  0  0
  1  2  2  0  0  0  0
  2  3  1  0  0  0  0
  3  4  2  0  0  0  0
  3  5  1  0  0  0  0
  5  6  1  0  0  0  0
  6  7  1  0  0  0  0
  7  8  1  0  0  0  0
  7  9  2  0  0  0  0
  9 10  1  0  0  0  0
 10 11  1  0  0  0  0
 11 12  2  0  0  0  0
 12 13  1  0  0  0  0
 13 14  3  0  0  0  0
 12 15  1  0  0  0  0
 15 16  3  0  0  0  0
  1 17  1  0  0  0  0
 17 18  1  0  0  0  0
 18 19  1  0  0  0  0
 19 20  1  0  0  0  0
 20 21  1  0  0  0  0
 21 22  1  0  0  0  0
 22 23  2  0  0  0  0
 23 24  1  0  0  0  0
 24 25  1  0  0  0  0
 22 26  1  0  0  0  0
 26 27  1  0  0  0  0
 27 28  1  0  0  0  0
 28 29  1  0  0  0  0
 29 30  1  0  0  0  0
 30 31  1  0  0  0  0
 31 32  1  0  0  0  0
 30 33  2  0  0  0  0
 33 34  1  0  0  0  0
 34 35  1  0  0  0  0
 35 36  1  0  0  0  0
 36 37  1  0  0  0  0
 37 38  1  0  0  0  0
 38 39  1  0  0  0  0
 39 40  1  0  0  0  0
 40 41  1  0  0  0  0
 41 42  1  0  0  0  0
 40 43  1  0  0  0  0
 43 44  1  0  0  0  0
 37 45  1  0  0  0  0
 45 46  1  0  0  0  0
 33 47  1  0  0  0  0
 47 48  2  0  0  0  0
 48 49  1  0  0  0  0
 49 50  2  0  0  0  0
 49 51  1  0  0  0  0
 51 52  2  0  0  0  0
 52 53  1  0  0  0  0
 53 54  2  0  0  0  0
 54 55  1  0  0  0  0
 55 56  2  0  0  0  0
 56 57  1  0  0  0  0
 57 58  2  0  0  0  0
 58 59  1  0  0  0  0
 59 60  3  0  0  0  0
 58 61  1  0  0  0  0
 61 62  3  0  0  0  0
 54 63  1  0  0  0  0
 63 64  1  0  0  0  0
 64 65  1  0  0  0  0
 65 66  2  0  0  0  0
 66 67  1  0  0  0  0
 67 68  1  0  0  0  0
 67 69  1  0  0  0  0
 11  2  1  0  0  0  0
 42 17  2  0  0  0  0
 57 48  1  0  0  0  0
 69 63  1  0  0  0  0
 10  5  2  0  0  0  0
 41 19  2  0  0  0  0
 56 51  1  0  0  0  0
 68 64  1  0  0  0  0
 39 20  2  0  0  0  0
 69 53  1  0  0  0  0
 25 21  2  0  0  0  0
 38 26  2  0  0  0  0
 36 27  2  0  0  0  0
 35 29  2  0  0  0  0
  1 70  1  0  0  0  0
  8 71  1  0  0  0  0
  8 72  1  0  0  0  0
  8 73  1  0  0  0  0
  9 74  1  0  0  0  0
 31 75  1  0  0  0  0
 31 76  1  0  0  0  0
 32 77  1  0  0  0  0
 32 78  1  0  0  0  0
 32 79  1  0  0  0  0
 42 80  1  0  0  0  0
 43 81  1  0  0  0  0
 43 82  1  0  0  0  0
 44 83  1  0  0  0  0
 44 84  1  0  0  0  0
 44 85  1  0  0  0  0
 45 86  1  0  0  0  0
 45 87  1  0  0  0  0
 46 88  1  0  0  0  0
 46 89  1  0  0  0  0
 46 90  1  0  0  0  0
 47 91  1  0  0  0  0
 52 92  1  0  0  0  0
 55 93  1  0  0  0  0
 63 94  1  0  0  0  0
 64 95  1  0  0  0  0
 65 96  1  0  0  0  0
 66 97  1  0  0  0  0
 67 98  1  0  0  0  0
 68 99  1  0  0  0  0
 68100  1  0  0  0  0
 69101  1  0  0  0  0
M  END
