103

C         -6.04190        5.84130       -0.19590
C         -7.14000        5.07770        0.09890
C         -7.15140        3.63320        0.40570
O         -6.19750        2.87620        0.46200
C         -8.55360        3.32000        0.63180
S         -9.46370        1.92790        1.03050
C        -10.93360        2.86550        1.00630
C        -12.23250        2.20860        1.29580
C        -10.71400        4.18120        0.70560
C         -9.34960        4.44750        0.48920
C         -8.50340        5.57720        0.15540
C         -8.96190        6.85290       -0.05280
C        -10.33360        7.16750        0.04010
N        -11.44480        7.44610        0.10940
C         -8.17600        7.97660       -0.37160
N         -7.59890        8.93590       -0.63160
C         -4.68380        5.50970       -0.28840
C         -3.68930        6.44370       -0.61980
C         -3.91610        7.88010       -0.96220
C         -4.30590        8.03500       -2.43470
C         -2.43120        5.85430       -0.64600
S         -0.83330        6.49640       -0.97920
C         -0.17690        4.92310       -0.69190
C          1.07100        4.28730       -0.64330
C          2.38050        4.80700       -0.74960
C          3.49340        3.93570       -0.50990
N          4.65450        4.56700       -0.57720
S          4.37180        6.12460       -0.91910
N          2.75700        6.05250       -0.99270
C          3.24870        2.55940       -0.30440
C          4.12730        1.47480       -0.19880
S          5.82880        1.17340       -0.15510
C          5.48790       -0.54710       -0.11340
C          6.31580       -1.65770       -0.05860
C          7.80580       -1.55740       -0.07720
C          8.34480       -1.72860       -1.50030
C          5.57060       -2.85240       -0.04210
S          3.83160       -2.55140       -0.09420
C          4.11400       -0.85170       -0.13360
C          3.34390        0.31290       -0.17280
N          2.01700        0.64680       -0.23820
C          1.92620        2.02250       -0.29290
C          0.82530        2.91730       -0.33330
N         -0.53880        2.74310       -0.16160
C         -1.13850        3.95840       -0.37070
C         -2.43320        4.48480       -0.33360
S         -4.02020        3.90060       -0.00510
C         -1.24720        1.76790        0.64130
C         -0.96430        1.98080        2.12670
C          1.03940       -0.37180       -0.54870
C          0.64570       -1.19050        0.67990
C          6.16550       -4.11340        0.02120
C          5.61350       -5.37370        0.05640
C          4.18510       -5.68910        0.03050
O          3.24950       -4.90670       -0.03040
C          4.08510       -7.15630        0.10120
C          2.96790       -7.93930        0.10920
C          3.11220       -9.34270        0.18600
C          1.99390      -10.20040        0.19830
C          2.14720      -11.55700        0.27480
C          3.44140      -12.08980        0.34110
F          3.57280      -13.42720        0.41630
C          4.55960      -11.30300        0.33160
C          4.42000       -9.90400        0.25340
C          5.55940       -9.06460        0.24240
C          5.39560       -7.70780        0.16740
C          6.36150       -6.61030        0.14040
C          7.72530       -6.76330        0.19210
C          8.67590       -5.72320        0.16500
N          9.51250       -4.93480        0.14670
C          8.37740       -8.01020        0.28310
N          8.97520       -8.98770        0.35950
H         -6.24010        6.88540       -0.39860
H        -12.42830        1.41350        0.57730
H        -13.03820        2.93600        1.24410
H        -12.22340        1.76160        2.28910
H        -11.50110        4.90990        0.64660
H         -2.98690        8.42400       -0.78120
H         -4.69460        8.31550       -0.33410
H         -4.45670        9.08540       -2.66650
H         -5.22830        7.49960       -2.64750
H         -3.52050        7.64360       -3.07700
H          8.08470       -0.56870        0.29250
H          8.25930       -2.30640        0.57360
H          7.93340       -0.96390       -2.15500
H          8.08100       -2.70590       -1.89750
H          9.42730       -1.64070       -1.49590
H         -2.31240        1.91330        0.44510
H         -0.98790        0.75520        0.35250
H          0.09720        1.86170        2.33650
H         -1.52480        1.26080        2.71620
H         -1.26380        2.98190        2.42760
H          1.49240       -1.04810       -1.28210
H          0.18040        0.10070       -1.02730
H          0.35070       -0.55190        1.50810
H         -0.17850       -1.85280        0.43070
H          1.48440       -1.80160        1.00160
H          7.24560       -4.07310        0.05140
H          1.98550       -7.49420        0.05730
H          1.00670       -9.76610        0.14650
H          1.30210      -12.22690        0.28580
H          5.54090      -11.74820        0.38370
H          6.53360       -9.52270        0.29500
