97

C          3.13600        7.02200        3.48140
C          3.41270        7.61860        4.67540
C          2.83380        7.20300        5.98830
O          1.98590        6.36060        6.19330
C          3.60860        7.95880        6.96390
S          3.65500        8.08320        8.66870
C          4.97320        9.22090        8.56490
C          5.55590        9.78870        9.80600
C          5.34790        9.47560        7.27530
C          4.57020        8.75130        6.35250
C          4.47470        8.58150        4.91800
C          5.22090        9.26220        3.99220
C          6.21700       10.18300        4.37830
N          7.03460       10.93120        4.67610
C          5.08320        9.14980        2.59490
N          5.00830        9.11330        1.44960
C          2.03840        6.17280        3.20010
C          0.71560        6.22480        3.61440
C          0.10680        7.35360        4.37640
C         -1.12760        7.92110        3.67710
C         -0.01090        5.13360        3.11100
S         -1.65700        4.59180        3.35560
C         -1.32560        3.20380        2.38220
C         -1.95860        2.02930        1.95530
C         -3.23550        1.51930        2.27410
C         -3.59440        0.21830        1.79900
N         -4.79600       -0.15830        2.20800
S         -5.42260        1.02960        3.11220
N         -4.18420        2.06760        3.01720
C         -2.69550       -0.46660        0.95320
C         -2.84440       -1.68430        0.27840
S         -3.99350       -2.96360        0.12480
C         -2.95660       -3.72940       -1.06100
C         -3.10100       -4.87950       -1.84740
C         -4.18650       -5.88660       -1.67390
C         -4.40280       -6.27020       -0.21130
C         -2.02530       -5.02290       -2.72160
S         -0.79460       -3.77950       -2.48160
C         -1.77550       -3.00730       -1.29630
C         -1.70920       -1.84690       -0.52110
N         -0.86380       -0.78410       -0.35080
C         -1.43220        0.07830        0.56960
C         -1.02120        1.31080        1.15280
N          0.16030        2.03170        1.13960
C         -0.02470        3.17040        1.87410
C          0.73240        4.26800        2.29800
S          2.35130        4.82510        2.10650
C          1.48430        1.73600        0.64510
C          1.80620        2.52670       -0.62340
C          0.29850       -0.68200       -1.20190
C          1.43670       -1.58230       -0.72070
C         -1.74910       -5.99210       -3.70360
C         -2.66230       -6.62980       -4.50390
C         -4.01280       -6.11180       -4.80660
O         -4.57140       -5.14840       -4.32590
C         -4.50750       -6.94420       -5.92710
C         -5.71420       -6.85080       -6.58940
C         -5.93130       -7.75120       -7.62180
F         -7.09520       -7.70410       -8.29160
C         -4.99010       -8.70010       -7.99160
C         -3.77950       -8.78000       -7.31970
C         -3.53580       -7.89760       -6.27730
C         -2.38580       -7.73930       -5.39030
C         -1.28370       -8.55370       -5.34800
C         -0.24070       -8.43650       -4.40540
N          0.62850       -8.41170       -3.65530
C         -1.06680       -9.63750       -6.22320
N         -0.83340      -10.52510       -6.91300
H          3.84560        7.14460        2.67080
H          4.78510       10.26970       10.40700
H          6.32040       10.52070        9.55870
H          6.00500        9.00210       10.41230
H          6.14500       10.14710        7.01420
H          0.84810        8.14540        4.49750
H         -0.16310        6.99460        5.37310
H         -0.87950        8.23690        2.66580
H         -1.92480        7.18530        3.62660
H         -1.49320        8.78410        4.22750
H         -3.93720       -6.78110       -2.24800
H         -5.11070       -5.47500       -2.08970
H         -5.13650       -7.06990       -0.15130
H         -3.47310       -6.62180        0.23110
H         -4.76840       -5.42820        0.36890
H          2.19470        2.02950        1.42570
H          1.58770        0.66580        0.49400
H          1.86290        3.58800       -0.39710
H          1.04290        2.38790       -1.38640
H          2.76570        2.20960       -1.02180
H         -0.00290       -1.01000       -2.20270
H          0.60620        0.35670       -1.27670
H          2.32190       -1.41230       -1.32690
H          1.15250       -2.62690       -0.81510
H          1.68170       -1.39590        0.32300
H         -0.69670       -6.18730       -3.87650
H         -6.45360       -6.11540       -6.31560
H         -5.21230       -9.37040       -8.80680
H         -3.05160       -9.51600       -7.61890
