145

C         -7.79280       -0.71220        0.04560
C         -8.36940       -0.74670        1.27620
C         -9.74120       -1.32020        1.43920
O        -10.52420       -1.59020        0.55660
C         -9.86180       -1.50920        2.88000
S        -11.01920       -2.17320        3.95160
C        -10.01070       -1.77150        5.31690
C        -10.46280       -2.10300        6.69120
C         -8.84990       -1.15040        4.94850
C         -8.75670       -1.00310        3.55300
C         -7.86100       -0.39460        2.58930
C         -6.91640        0.55060        2.89530
C         -6.56520        0.84630        4.22690
N         -6.25200        1.08390        5.30550
C         -6.28580        1.37750        1.94390
N         -5.79810        2.11610        1.21250
C         -6.42130       -0.59860       -0.28310
S         -5.15490       -1.13540        0.81360
C         -3.96330       -0.69630       -0.33310
C         -2.53780       -0.68860       -0.38710
C         -2.17710       -0.09530       -1.61900
C         -3.41060        0.27690       -2.42600
C         -3.35830       -0.46310       -3.74740
C         -2.65450        0.07590       -4.81750
C         -2.56490       -0.60860       -6.01410
C         -3.17140       -1.84800       -6.17500
C         -3.03860       -2.60660       -7.46390
C         -1.78920       -3.48950       -7.43750
C         -3.86210       -2.38790       -5.09890
C         -3.95300       -1.70770       -3.89820
C         -3.59010        1.77450       -2.60800
C         -2.94900        2.68760       -1.78430
C         -3.18300        4.04280       -1.92820
C         -4.06460        4.51860       -2.88840
C         -4.35660        5.98650       -3.00460
C         -5.54570        6.36030       -2.11710
C         -4.71480        3.59840       -3.70080
C         -4.48590        2.24350       -3.56090
C         -4.50880       -0.17730       -1.49880
C         -5.89660       -0.14570       -1.48430
C         -0.85450        0.09920       -1.94120
C          0.09510       -0.30700       -1.00750
C          1.51480       -0.15170       -0.99560
C          2.05770       -0.65250        0.17760
C          0.97540       -1.26580        1.03630
C         -0.26470       -0.92940        0.21060
C         -1.58640       -1.11470        0.53660
C          1.10080       -2.77760        1.12730
C          2.09420       -3.46990        0.44730
C          2.17880       -4.84840        0.52740
C          1.27330       -5.57920        1.28240
C          1.34140       -7.07790        1.33040
C          0.53570       -7.68550        0.18020
C          0.27310       -4.88720        1.95320
C          0.18700       -3.51060        1.87810
C          0.91120       -0.57110        2.38670
C          0.56210        0.77520        2.41730
C          0.48760        1.45960        3.61440
C          0.76570        0.82300        4.81780
C          0.62470        1.54670        6.12480
C         -0.78410        1.35240        6.69010
C          1.12950       -0.51540        4.78220
C          1.20610       -1.20530        3.58510
C          3.44090       -0.45540        0.21440
C          3.91490        0.19090       -0.95840
S          2.65340        0.56200       -2.08850
C          5.29550        0.32050       -0.82890
S          6.67720        0.91640       -1.66380
C          7.70440        0.40870       -0.32190
C          6.97790       -0.19660        0.70850
C          5.62610       -0.25120        0.42900
N          4.49600       -0.73400        1.04030
C          4.44190       -1.26500        2.37730
C          4.43920       -0.14820        3.41860
C          9.09460        0.56780       -0.23330
C          9.99750        1.10920       -1.10940
C          9.68950        1.67370       -2.44040
O          8.59950        1.77250       -2.97280
C         10.98440        2.08360       -2.96770
S         11.56420        2.80700       -4.40420
C         13.19640        2.74980       -3.79050
C         14.31420        3.27060       -4.61660
C         13.26920        2.19930       -2.54140
C         12.00210        1.81490       -2.06430
C         11.42720        1.20780       -0.87880
C         12.15040        0.82810        0.22400
C         11.63480        0.24560        1.39710
N         11.29080       -0.23090        2.38490
C         13.54840        1.00050        0.28580
N         14.68660        1.12900        0.36050
H         -8.47000       -0.85800       -0.79080
H        -11.41500       -1.62000        6.90770
H        -10.60510       -3.17780        6.80000
H         -9.72580       -1.76920        7.41700
H         -8.10370       -0.82570        5.65030
H         -2.18780        1.04510       -4.71780
H         -2.01910       -0.17150       -6.83810
H         -2.96690       -1.90730       -8.29940
H         -3.91910       -3.23380       -7.61750
H         -1.69110       -4.03870       -8.37100
H         -0.89890       -2.88060       -7.29650
H         -1.84760       -4.20290       -6.61830
H         -4.33890       -3.35250       -5.20090
H         -4.49550       -2.14940       -3.07470
H         -2.26530        2.34210       -1.02310
H         -2.67360        4.74090       -1.27960
H         -4.58680        6.23940       -4.04180
H         -3.48230        6.56390       -2.69750
H         -6.43400        5.81390       -2.42560
H         -5.33560        6.10860       -1.08020
H         -5.75160        7.42620       -2.18380
H         -5.41100        3.94680       -4.45070
H         -5.00100        1.54230       -4.20210
H         -6.51680        0.22440       -2.28040
H         -0.55210        0.56990       -2.86360
H         -1.90020       -1.54370        1.47480
H          2.81470       -2.93860       -0.15600
H          2.96540       -5.36170       -0.00720
H          2.38060       -7.40400        1.25260
H          0.94000       -7.43710        2.28020
H         -0.50580       -7.37820        0.24430
H          0.93150       -7.35180       -0.77640
H          0.58120       -8.77130        0.21600
H         -0.44700       -5.43250        2.54650
H         -0.59280       -3.00220        2.42350
H          0.34180        1.28900        1.49240
H          0.20700        2.50300        3.61490
H          1.35570        1.16490        6.84080
H          0.81090        2.61260        5.98070
H         -0.89060        1.87960        7.63500
H         -1.52820        1.73310        5.99430
H         -0.98280        0.29610        6.85740
H          1.35770       -1.03050        5.70460
H          1.49170       -2.24710        3.59840
H          7.45130       -0.56510        1.60100
H          5.31230       -1.91190        2.52250
H          3.53770       -1.86920        2.46590
H          4.38980       -0.57140        4.41740
H          5.34400        0.44900        3.33410
H          3.57770        0.49940        3.27420
H          9.50220        0.18680        0.69600
H         14.37970        2.72810       -5.55930
H         14.15980        4.32350       -4.85080
H         15.25450        3.16280       -4.08200
H         14.19160        2.08120       -2.00330
