
  xtb     01272209143D
 energy: -233.942615889657 gnorm: 0.000748819724 xtb: 6.4.1 (unknown)
145159  0     0  0            999 V2000
   -7.7928   -0.7122    0.0456 C   0  0  0  0  0  0  0  0  0  0  0  0
   -8.3694   -0.7467    1.2762 C   0  0  0  0  0  0  0  0  0  0  0  0
   -9.7412   -1.3202    1.4392 C   0  0  0  0  0  0  0  0  0  0  0  0
  -10.5242   -1.5902    0.5566 O   0  0  0  0  0  0  0  0  0  0  0  0
   -9.8618   -1.5092    2.8800 C   0  0  0  0  0  0  0  0  0  0  0  0
  -11.0192   -2.1732    3.9516 S   0  0  0  0  0  0  0  0  0  0  0  0
  -10.0107   -1.7715    5.3169 C   0  0  0  0  0  0  0  0  0  0  0  0
  -10.4628   -2.1030    6.6912 C   0  0  0  0  0  0  0  0  0  0  0  0
   -8.8499   -1.1504    4.9485 C   0  0  0  0  0  0  0  0  0  0  0  0
   -8.7567   -1.0031    3.5530 C   0  0  0  0  0  0  0  0  0  0  0  0
   -7.8610   -0.3946    2.5893 C   0  0  0  0  0  0  0  0  0  0  0  0
   -6.9164    0.5506    2.8953 C   0  0  0  0  0  0  0  0  0  0  0  0
   -6.5652    0.8463    4.2269 C   0  0  0  0  0  0  0  0  0  0  0  0
   -6.2520    1.0839    5.3055 N   0  0  0  0  0  0  0  0  0  0  0  0
   -6.2858    1.3775    1.9439 C   0  0  0  0  0  0  0  0  0  0  0  0
   -5.7981    2.1161    1.2125 N   0  0  0  0  0  0  0  0  0  0  0  0
   -6.4213   -0.5986   -0.2831 C   0  0  0  0  0  0  0  0  0  0  0  0
   -5.1549   -1.1354    0.8136 S   0  0  0  0  0  0  0  0  0  0  0  0
   -3.9633   -0.6963   -0.3331 C   0  0  0  0  0  0  0  0  0  0  0  0
   -2.5378   -0.6886   -0.3871 C   0  0  0  0  0  0  0  0  0  0  0  0
   -2.1771   -0.0953   -1.6190 C   0  0  0  0  0  0  0  0  0  0  0  0
   -3.4106    0.2769   -2.4260 C   0  0  0  0  0  0  0  0  0  0  0  0
   -3.3583   -0.4631   -3.7474 C   0  0  0  0  0  0  0  0  0  0  0  0
   -2.6545    0.0759   -4.8175 C   0  0  0  0  0  0  0  0  0  0  0  0
   -2.5649   -0.6086   -6.0141 C   0  0  0  0  0  0  0  0  0  0  0  0
   -3.1714   -1.8480   -6.1750 C   0  0  0  0  0  0  0  0  0  0  0  0
   -3.0386   -2.6066   -7.4639 C   0  0  0  0  0  0  0  0  0  0  0  0
   -1.7892   -3.4895   -7.4375 C   0  0  0  0  0  0  0  0  0  0  0  0
   -3.8621   -2.3879   -5.0989 C   0  0  0  0  0  0  0  0  0  0  0  0
   -3.9530   -1.7077   -3.8982 C   0  0  0  0  0  0  0  0  0  0  0  0
   -3.5901    1.7745   -2.6080 C   0  0  0  0  0  0  0  0  0  0  0  0
   -2.9490    2.6876   -1.7843 C   0  0  0  0  0  0  0  0  0  0  0  0
   -3.1830    4.0428   -1.9282 C   0  0  0  0  0  0  0  0  0  0  0  0
   -4.0646    4.5186   -2.8884 C   0  0  0  0  0  0  0  0  0  0  0  0
   -4.3566    5.9865   -3.0046 C   0  0  0  0  0  0  0  0  0  0  0  0
   -5.5457    6.3603   -2.1171 C   0  0  0  0  0  0  0  0  0  0  0  0
   -4.7148    3.5984   -3.7008 C   0  0  0  0  0  0  0  0  0  0  0  0
   -4.4859    2.2435   -3.5609 C   0  0  0  0  0  0  0  0  0  0  0  0
   -4.5088   -0.1773   -1.4988 C   0  0  0  0  0  0  0  0  0  0  0  0
   -5.8966   -0.1457   -1.4843 C   0  0  0  0  0  0  0  0  0  0  0  0
   -0.8545    0.0992   -1.9412 C   0  0  0  0  0  0  0  0  0  0  0  0
    0.0951   -0.3070   -1.0075 C   0  0  0  0  0  0  0  0  0  0  0  0
    1.5148   -0.1517   -0.9956 C   0  0  0  0  0  0  0  0  0  0  0  0
    2.0577   -0.6525    0.1776 C   0  0  0  0  0  0  0  0  0  0  0  0
    0.9754   -1.2658    1.0363 C   0  0  0  0  0  0  0  0  0  0  0  0
   -0.2647   -0.9294    0.2106 C   0  0  0  0  0  0  0  0  0  0  0  0
   -1.5864   -1.1147    0.5366 C   0  0  0  0  0  0  0  0  0  0  0  0
    1.1008   -2.7776    1.1273 C   0  0  0  0  0  0  0  0  0  0  0  0
    2.0942   -3.4699    0.4473 C   0  0  0  0  0  0  0  0  0  0  0  0
    2.1788   -4.8484    0.5274 C   0  0  0  0  0  0  0  0  0  0  0  0
    1.2733   -5.5792    1.2824 C   0  0  0  0  0  0  0  0  0  0  0  0
    1.3414   -7.0779    1.3304 C   0  0  0  0  0  0  0  0  0  0  0  0
    0.5357   -7.6855    0.1802 C   0  0  0  0  0  0  0  0  0  0  0  0
    0.2731   -4.8872    1.9532 C   0  0  0  0  0  0  0  0  0  0  0  0
    0.1870   -3.5106    1.8781 C   0  0  0  0  0  0  0  0  0  0  0  0
    0.9112   -0.5711    2.3867 C   0  0  0  0  0  0  0  0  0  0  0  0
    0.5621    0.7752    2.4173 C   0  0  0  0  0  0  0  0  0  0  0  0
    0.4876    1.4596    3.6144 C   0  0  0  0  0  0  0  0  0  0  0  0
    0.7657    0.8230    4.8178 C   0  0  0  0  0  0  0  0  0  0  0  0
    0.6247    1.5467    6.1248 C   0  0  0  0  0  0  0  0  0  0  0  0
   -0.7841    1.3524    6.6901 C   0  0  0  0  0  0  0  0  0  0  0  0
    1.1295   -0.5154    4.7822 C   0  0  0  0  0  0  0  0  0  0  0  0
    1.2061   -1.2053    3.5851 C   0  0  0  0  0  0  0  0  0  0  0  0
    3.4409   -0.4554    0.2144 C   0  0  0  0  0  0  0  0  0  0  0  0
    3.9149    0.1909   -0.9584 C   0  0  0  0  0  0  0  0  0  0  0  0
    2.6534    0.5620   -2.0885 S   0  0  0  0  0  0  0  0  0  0  0  0
    5.2955    0.3205   -0.8289 C   0  0  0  0  0  0  0  0  0  0  0  0
    6.6772    0.9164   -1.6638 S   0  0  0  0  0  0  0  0  0  0  0  0
    7.7044    0.4087   -0.3219 C   0  0  0  0  0  0  0  0  0  0  0  0
    6.9779   -0.1966    0.7085 C   0  0  0  0  0  0  0  0  0  0  0  0
    5.6261   -0.2512    0.4290 C   0  0  0  0  0  0  0  0  0  0  0  0
    4.4960   -0.7340    1.0403 N   0  0  0  0  0  0  0  0  0  0  0  0
    4.4419   -1.2650    2.3773 C   0  0  0  0  0  0  0  0  0  0  0  0
    4.4392   -0.1482    3.4186 C   0  0  0  0  0  0  0  0  0  0  0  0
    9.0946    0.5678   -0.2333 C   0  0  0  0  0  0  0  0  0  0  0  0
    9.9975    1.1092   -1.1094 C   0  0  0  0  0  0  0  0  0  0  0  0
    9.6895    1.6737   -2.4404 C   0  0  0  0  0  0  0  0  0  0  0  0
    8.5995    1.7725   -2.9728 O   0  0  0  0  0  0  0  0  0  0  0  0
   10.9844    2.0836   -2.9677 C   0  0  0  0  0  0  0  0  0  0  0  0
   11.5642    2.8070   -4.4042 S   0  0  0  0  0  0  0  0  0  0  0  0
   13.1964    2.7498   -3.7905 C   0  0  0  0  0  0  0  0  0  0  0  0
   14.3142    3.2706   -4.6166 C   0  0  0  0  0  0  0  0  0  0  0  0
   13.2692    2.1993   -2.5414 C   0  0  0  0  0  0  0  0  0  0  0  0
   12.0021    1.8149   -2.0643 C   0  0  0  0  0  0  0  0  0  0  0  0
   11.4272    1.2078   -0.8788 C   0  0  0  0  0  0  0  0  0  0  0  0
   12.1504    0.8281    0.2240 C   0  0  0  0  0  0  0  0  0  0  0  0
   11.6348    0.2456    1.3971 C   0  0  0  0  0  0  0  0  0  0  0  0
   11.2908   -0.2309    2.3849 N   0  0  0  0  0  0  0  0  0  0  0  0
   13.5484    1.0005    0.2858 C   0  0  0  0  0  0  0  0  0  0  0  0
   14.6866    1.1290    0.3605 N   0  0  0  0  0  0  0  0  0  0  0  0
   -8.4700   -0.8580   -0.7908 H   0  0  0  0  0  0  0  0  0  0  0  0
  -11.4150   -1.6200    6.9077 H   0  0  0  0  0  0  0  0  0  0  0  0
  -10.6051   -3.1778    6.8000 H   0  0  0  0  0  0  0  0  0  0  0  0
   -9.7258   -1.7692    7.4170 H   0  0  0  0  0  0  0  0  0  0  0  0
   -8.1037   -0.8257    5.6503 H   0  0  0  0  0  0  0  0  0  0  0  0
   -2.1878    1.0451   -4.7178 H   0  0  0  0  0  0  0  0  0  0  0  0
   -2.0191   -0.1715   -6.8381 H   0  0  0  0  0  0  0  0  0  0  0  0
   -2.9669   -1.9073   -8.2994 H   0  0  0  0  0  0  0  0  0  0  0  0
   -3.9191   -3.2338   -7.6175 H   0  0  0  0  0  0  0  0  0  0  0  0
   -1.6911   -4.0387   -8.3710 H   0  0  0  0  0  0  0  0  0  0  0  0
   -0.8989   -2.8806   -7.2965 H   0  0  0  0  0  0  0  0  0  0  0  0
   -1.8476   -4.2029   -6.6183 H   0  0  0  0  0  0  0  0  0  0  0  0
   -4.3389   -3.3525   -5.2009 H   0  0  0  0  0  0  0  0  0  0  0  0
   -4.4955   -2.1494   -3.0747 H   0  0  0  0  0  0  0  0  0  0  0  0
   -2.2653    2.3421   -1.0231 H   0  0  0  0  0  0  0  0  0  0  0  0
   -2.6736    4.7409   -1.2796 H   0  0  0  0  0  0  0  0  0  0  0  0
   -4.5868    6.2394   -4.0418 H   0  0  0  0  0  0  0  0  0  0  0  0
   -3.4823    6.5639   -2.6975 H   0  0  0  0  0  0  0  0  0  0  0  0
   -6.4340    5.8139   -2.4256 H   0  0  0  0  0  0  0  0  0  0  0  0
   -5.3356    6.1086   -1.0802 H   0  0  0  0  0  0  0  0  0  0  0  0
   -5.7516    7.4262   -2.1838 H   0  0  0  0  0  0  0  0  0  0  0  0
   -5.4110    3.9468   -4.4507 H   0  0  0  0  0  0  0  0  0  0  0  0
   -5.0010    1.5423   -4.2021 H   0  0  0  0  0  0  0  0  0  0  0  0
   -6.5168    0.2244   -2.2804 H   0  0  0  0  0  0  0  0  0  0  0  0
   -0.5521    0.5699   -2.8636 H   0  0  0  0  0  0  0  0  0  0  0  0
   -1.9002   -1.5437    1.4748 H   0  0  0  0  0  0  0  0  0  0  0  0
    2.8147   -2.9386   -0.1560 H   0  0  0  0  0  0  0  0  0  0  0  0
    2.9654   -5.3617   -0.0072 H   0  0  0  0  0  0  0  0  0  0  0  0
    2.3806   -7.4040    1.2526 H   0  0  0  0  0  0  0  0  0  0  0  0
    0.9400   -7.4371    2.2802 H   0  0  0  0  0  0  0  0  0  0  0  0
   -0.5058   -7.3782    0.2443 H   0  0  0  0  0  0  0  0  0  0  0  0
    0.9315   -7.3518   -0.7764 H   0  0  0  0  0  0  0  0  0  0  0  0
    0.5812   -8.7713    0.2160 H   0  0  0  0  0  0  0  0  0  0  0  0
   -0.4470   -5.4325    2.5465 H   0  0  0  0  0  0  0  0  0  0  0  0
   -0.5928   -3.0022    2.4235 H   0  0  0  0  0  0  0  0  0  0  0  0
    0.3418    1.2890    1.4924 H   0  0  0  0  0  0  0  0  0  0  0  0
    0.2070    2.5030    3.6149 H   0  0  0  0  0  0  0  0  0  0  0  0
    1.3557    1.1649    6.8408 H   0  0  0  0  0  0  0  0  0  0  0  0
    0.8109    2.6126    5.9807 H   0  0  0  0  0  0  0  0  0  0  0  0
   -0.8906    1.8796    7.6350 H   0  0  0  0  0  0  0  0  0  0  0  0
   -1.5282    1.7331    5.9943 H   0  0  0  0  0  0  0  0  0  0  0  0
   -0.9828    0.2961    6.8574 H   0  0  0  0  0  0  0  0  0  0  0  0
    1.3577   -1.0305    5.7046 H   0  0  0  0  0  0  0  0  0  0  0  0
    1.4917   -2.2471    3.5984 H   0  0  0  0  0  0  0  0  0  0  0  0
    7.4513   -0.5651    1.6010 H   0  0  0  0  0  0  0  0  0  0  0  0
    5.3123   -1.9119    2.5225 H   0  0  0  0  0  0  0  0  0  0  0  0
    3.5377   -1.8692    2.4659 H   0  0  0  0  0  0  0  0  0  0  0  0
    4.3898   -0.5714    4.4174 H   0  0  0  0  0  0  0  0  0  0  0  0
    5.3440    0.4490    3.3341 H   0  0  0  0  0  0  0  0  0  0  0  0
    3.5777    0.4994    3.2742 H   0  0  0  0  0  0  0  0  0  0  0  0
    9.5022    0.1868    0.6960 H   0  0  0  0  0  0  0  0  0  0  0  0
   14.3797    2.7281   -5.5593 H   0  0  0  0  0  0  0  0  0  0  0  0
   14.1598    4.3235   -4.8508 H   0  0  0  0  0  0  0  0  0  0  0  0
   15.2545    3.1628   -4.0820 H   0  0  0  0  0  0  0  0  0  0  0  0
   14.1916    2.0812   -2.0033 H   0  0  0  0  0  0  0  0  0  0  0  0
  1  2  2  0  0  0  0
  2  3  1  0  0  0  0
  3  4  2  0  0  0  0
  3  5  1  0  0  0  0
  5  6  1  0  0  0  0
  6  7  1  0  0  0  0
  7  8  1  0  0  0  0
  7  9  2  0  0  0  0
  9 10  1  0  0  0  0
 10 11  1  0  0  0  0
 11 12  2  0  0  0  0
 12 13  1  0  0  0  0
 13 14  3  0  0  0  0
 12 15  1  0  0  0  0
 15 16  3  0  0  0  0
  1 17  1  0  0  0  0
 17 18  1  0  0  0  0
 18 19  1  0  0  0  0
 19 20  1  0  0  0  0
 20 21  2  0  0  0  0
 21 22  1  0  0  0  0
 22 23  1  0  0  0  0
 23 24  2  0  0  0  0
 24 25  1  0  0  0  0
 25 26  2  0  0  0  0
 26 27  1  0  0  0  0
 27 28  1  0  0  0  0
 26 29  1  0  0  0  0
 29 30  2  0  0  0  0
 22 31  1  0  0  0  0
 31 32  2  0  0  0  0
 32 33  1  0  0  0  0
 33 34  2  0  0  0  0
 34 35  1  0  0  0  0
 35 36  1  0  0  0  0
 34 37  1  0  0  0  0
 37 38  2  0  0  0  0
 22 39  1  0  0  0  0
 39 40  1  0  0  0  0
 21 41  1  0  0  0  0
 41 42  2  0  0  0  0
 42 43  1  0  0  0  0
 43 44  2  0  0  0  0
 44 45  1  0  0  0  0
 45 46  1  0  0  0  0
 46 47  2  0  0  0  0
 45 48  1  0  0  0  0
 48 49  2  0  0  0  0
 49 50  1  0  0  0  0
 50 51  2  0  0  0  0
 51 52  1  0  0  0  0
 52 53  1  0  0  0  0
 51 54  1  0  0  0  0
 54 55  2  0  0  0  0
 45 56  1  0  0  0  0
 56 57  2  0  0  0  0
 57 58  1  0  0  0  0
 58 59  2  0  0  0  0
 59 60  1  0  0  0  0
 60 61  1  0  0  0  0
 59 62  1  0  0  0  0
 62 63  2  0  0  0  0
 44 64  1  0  0  0  0
 64 65  2  0  0  0  0
 65 66  1  0  0  0  0
 65 67  1  0  0  0  0
 67 68  1  0  0  0  0
 68 69  1  0  0  0  0
 69 70  2  0  0  0  0
 70 71  1  0  0  0  0
 71 72  1  0  0  0  0
 72 73  1  0  0  0  0
 73 74  1  0  0  0  0
 69 75  1  0  0  0  0
 75 76  2  0  0  0  0
 76 77  1  0  0  0  0
 77 78  2  0  0  0  0
 77 79  1  0  0  0  0
 79 80  1  0  0  0  0
 80 81  1  0  0  0  0
 81 82  1  0  0  0  0
 81 83  2  0  0  0  0
 83 84  1  0  0  0  0
 84 85  1  0  0  0  0
 85 86  2  0  0  0  0
 86 87  1  0  0  0  0
 87 88  3  0  0  0  0
 86 89  1  0  0  0  0
 89 90  3  0  0  0  0
 11  2  1  0  0  0  0
 40 17  2  0  0  0  0
 46 42  1  0  0  0  0
 55 48  1  0  0  0  0
 63 56  1  0  0  0  0
 72 64  1  0  0  0  0
 85 76  1  0  0  0  0
 10  5  2  0  0  0  0
 39 19  2  0  0  0  0
 66 43  1  0  0  0  0
 71 67  2  0  0  0  0
 84 79  2  0  0  0  0
 47 20  1  0  0  0  0
 30 23  1  0  0  0  0
 38 31  1  0  0  0  0
  1 91  1  0  0  0  0
  8 92  1  0  0  0  0
  8 93  1  0  0  0  0
  8 94  1  0  0  0  0
  9 95  1  0  0  0  0
 24 96  1  0  0  0  0
 25 97  1  0  0  0  0
 27 98  1  0  0  0  0
 27 99  1  0  0  0  0
 28100  1  0  0  0  0
 28101  1  0  0  0  0
 28102  1  0  0  0  0
 29103  1  0  0  0  0
 30104  1  0  0  0  0
 32105  1  0  0  0  0
 33106  1  0  0  0  0
 35107  1  0  0  0  0
 35108  1  0  0  0  0
 36109  1  0  0  0  0
 36110  1  0  0  0  0
 36111  1  0  0  0  0
 37112  1  0  0  0  0
 38113  1  0  0  0  0
 40114  1  0  0  0  0
 41115  1  0  0  0  0
 47116  1  0  0  0  0
 49117  1  0  0  0  0
 50118  1  0  0  0  0
 52119  1  0  0  0  0
 52120  1  0  0  0  0
 53121  1  0  0  0  0
 53122  1  0  0  0  0
 53123  1  0  0  0  0
 54124  1  0  0  0  0
 55125  1  0  0  0  0
 57126  1  0  0  0  0
 58127  1  0  0  0  0
 60128  1  0  0  0  0
 60129  1  0  0  0  0
 61130  1  0  0  0  0
 61131  1  0  0  0  0
 61132  1  0  0  0  0
 62133  1  0  0  0  0
 63134  1  0  0  0  0
 70135  1  0  0  0  0
 73136  1  0  0  0  0
 73137  1  0  0  0  0
 74138  1  0  0  0  0
 74139  1  0  0  0  0
 74140  1  0  0  0  0
 75141  1  0  0  0  0
 82142  1  0  0  0  0
 82143  1  0  0  0  0
 82144  1  0  0  0  0
 83145  1  0  0  0  0
M  END
