
  xtb     02012216093D
 energy: -202.284477552465 gnorm: 0.000226603818 xtb: 6.4.1 (unknown)
122134  0     0  0            999 V2000
    4.5965   -0.4261   -5.4606 C   0  0  0  0  0  0  0  0  0  0  0  0
    4.7007   -0.1055   -6.7841 C   0  0  0  0  0  0  0  0  0  0  0  0
    3.7290    0.6268   -7.6485 C   0  0  0  0  0  0  0  0  0  0  0  0
    2.6941    1.1780   -7.3337 O   0  0  0  0  0  0  0  0  0  0  0  0
    4.3019    0.5339   -8.9833 C   0  0  0  0  0  0  0  0  0  0  0  0
    3.8496    1.0457  -10.5508 S   0  0  0  0  0  0  0  0  0  0  0  0
    5.3027    0.3447  -11.2129 C   0  0  0  0  0  0  0  0  0  0  0  0
    5.5682    0.4363  -12.6700 C   0  0  0  0  0  0  0  0  0  0  0  0
    6.0850   -0.2446  -10.2591 C   0  0  0  0  0  0  0  0  0  0  0  0
    5.5142   -0.1400   -8.9767 C   0  0  0  0  0  0  0  0  0  0  0  0
    5.8211   -0.5318   -7.6169 C   0  0  0  0  0  0  0  0  0  0  0  0
    6.9797   -1.1618   -7.2439 C   0  0  0  0  0  0  0  0  0  0  0  0
    7.3632   -1.5282   -5.9384 C   0  0  0  0  0  0  0  0  0  0  0  0
    7.7605   -1.8522   -4.9103 N   0  0  0  0  0  0  0  0  0  0  0  0
    7.9668   -1.5067   -8.1920 C   0  0  0  0  0  0  0  0  0  0  0  0
    8.7828   -1.8007   -8.9435 N   0  0  0  0  0  0  0  0  0  0  0  0
    3.6049   -0.1485   -4.4973 C   0  0  0  0  0  0  0  0  0  0  0  0
    2.4520    0.6178   -4.5271 C   0  0  0  0  0  0  0  0  0  0  0  0
    1.7652    0.5686   -3.3219 C   0  0  0  0  0  0  0  0  0  0  0  0
    0.2672    1.2667   -2.7744 S   0  0  0  0  0  0  0  0  0  0  0  0
    0.4678    0.4560   -1.2591 C   0  0  0  0  0  0  0  0  0  0  0  0
   -0.3128    0.3239   -0.0689 C   0  0  0  0  0  0  0  0  0  0  0  0
   -1.5606    0.8421    0.2660 C   0  0  0  0  0  0  0  0  0  0  0  0
   -2.1032    0.4464    1.4661 C   0  0  0  0  0  0  0  0  0  0  0  0
   -3.4430    0.8379    2.0639 C   0  0  0  0  0  0  0  0  0  0  0  0
   -3.4301    2.3357    2.3197 C   0  0  0  0  0  0  0  0  0  0  0  0
   -3.0212    2.8553    3.5395 C   0  0  0  0  0  0  0  0  0  0  0  0
   -2.9947    4.2223    3.7458 C   0  0  0  0  0  0  0  0  0  0  0  0
   -3.3663    5.1037    2.7400 C   0  0  0  0  0  0  0  0  0  0  0  0
   -3.3009    6.5877    2.9560 C   0  0  0  0  0  0  0  0  0  0  0  0
   -1.9161    7.1220    2.5845 C   0  0  0  0  0  0  0  0  0  0  0  0
   -3.7561    4.5783    1.5146 C   0  0  0  0  0  0  0  0  0  0  0  0
   -3.7882    3.2133    1.3043 C   0  0  0  0  0  0  0  0  0  0  0  0
   -4.6518    0.4189    1.2468 C   0  0  0  0  0  0  0  0  0  0  0  0
   -5.8994    0.9374    1.5754 C   0  0  0  0  0  0  0  0  0  0  0  0
   -7.0295    0.5309    0.8948 C   0  0  0  0  0  0  0  0  0  0  0  0
   -6.9460   -0.4036   -0.1315 C   0  0  0  0  0  0  0  0  0  0  0  0
   -8.1733   -0.8189   -0.8823 C   0  0  0  0  0  0  0  0  0  0  0  0
   -5.6990   -0.9244   -0.4478 C   0  0  0  0  0  0  0  0  0  0  0  0
   -4.5636   -0.5265    0.2366 C   0  0  0  0  0  0  0  0  0  0  0  0
   -3.4362    0.0193    3.3251 C   0  0  0  0  0  0  0  0  0  0  0  0
   -2.2535   -0.6937    3.4426 C   0  0  0  0  0  0  0  0  0  0  0  0
   -1.4046   -0.4402    2.3212 C   0  0  0  0  0  0  0  0  0  0  0  0
   -0.1410   -0.9312    2.0013 C   0  0  0  0  0  0  0  0  0  0  0  0
    0.3998   -0.5370    0.8004 C   0  0  0  0  0  0  0  0  0  0  0  0
    1.7254   -0.9521    0.1865 C   0  0  0  0  0  0  0  0  0  0  0  0
    2.9357   -0.3428    0.8769 C   0  0  0  0  0  0  0  0  0  0  0  0
    2.8181    0.6916    1.7930 C   0  0  0  0  0  0  0  0  0  0  0  0
    3.9488    1.2502    2.3622 C   0  0  0  0  0  0  0  0  0  0  0  0
    5.2177    0.7990    2.0261 C   0  0  0  0  0  0  0  0  0  0  0  0
    6.4421    1.4393    2.6131 C   0  0  0  0  0  0  0  0  0  0  0  0
    6.8928    2.6196    1.7502 C   0  0  0  0  0  0  0  0  0  0  0  0
    5.3284   -0.2263    1.0947 C   0  0  0  0  0  0  0  0  0  0  0  0
    4.2038   -0.7906    0.5257 C   0  0  0  0  0  0  0  0  0  0  0  0
    1.8076   -2.4650    0.1440 C   0  0  0  0  0  0  0  0  0  0  0  0
    2.3101   -3.1634    1.2348 C   0  0  0  0  0  0  0  0  0  0  0  0
    2.3609   -4.5438    1.2195 C   0  0  0  0  0  0  0  0  0  0  0  0
    1.9118   -5.2629    0.1191 C   0  0  0  0  0  0  0  0  0  0  0  0
    1.9379   -6.7638    0.1226 C   0  0  0  0  0  0  0  0  0  0  0  0
    0.6599   -7.3196    0.7541 C   0  0  0  0  0  0  0  0  0  0  0  0
    1.3960   -4.5604   -0.9612 C   0  0  0  0  0  0  0  0  0  0  0  0
    1.3397   -3.1787   -0.9498 C   0  0  0  0  0  0  0  0  0  0  0  0
    1.6240   -0.3011   -1.1666 C   0  0  0  0  0  0  0  0  0  0  0  0
    2.3761   -0.2351   -2.3368 C   0  0  0  0  0  0  0  0  0  0  0  0
    3.8359   -0.9232   -2.9214 S   0  0  0  0  0  0  0  0  0  0  0  0
   -2.1707   -1.7032    4.8459 S   0  0  0  0  0  0  0  0  0  0  0  0
   -3.7724   -1.1825    5.2901 C   0  0  0  0  0  0  0  0  0  0  0  0
   -4.6287   -1.4915    6.3361 C   0  0  0  0  0  0  0  0  0  0  0  0
   -5.8389   -0.8186    6.2261 C   0  0  0  0  0  0  0  0  0  0  0  0
   -5.9022    0.2209    4.8069 S   0  0  0  0  0  0  0  0  0  0  0  0
   -4.3115   -0.2609    4.3683 C   0  0  0  0  0  0  0  0  0  0  0  0
   -6.9261   -0.9435    7.1306 C   0  0  0  0  0  0  0  0  0  0  0  0
   -8.1648   -0.3459    7.0309 C   0  0  0  0  0  0  0  0  0  0  0  0
   -8.5662    0.4973    5.9788 C   0  0  0  0  0  0  0  0  0  0  0  0
   -8.9479    1.1839    5.1413 N   0  0  0  0  0  0  0  0  0  0  0  0
   -9.1521   -0.5661    8.0150 C   0  0  0  0  0  0  0  0  0  0  0  0
   -9.9666   -0.7330    8.8046 N   0  0  0  0  0  0  0  0  0  0  0  0
   -6.7085   -1.7852    8.2545 C   0  0  0  0  0  0  0  0  0  0  0  0
   -6.5271   -2.4644    9.1583 N   0  0  0  0  0  0  0  0  0  0  0  0
    5.4040   -1.0291   -5.0608 H   0  0  0  0  0  0  0  0  0  0  0  0
    5.6625    1.4775  -12.9774 H   0  0  0  0  0  0  0  0  0  0  0  0
    4.7486   -0.0030  -13.2375 H   0  0  0  0  0  0  0  0  0  0  0  0
    6.4887   -0.0870  -12.9153 H   0  0  0  0  0  0  0  0  0  0  0  0
    7.0184   -0.7276  -10.4812 H   0  0  0  0  0  0  0  0  0  0  0  0
    2.1376    1.1685   -5.3941 H   0  0  0  0  0  0  0  0  0  0  0  0
   -2.0819    1.5060   -0.4057 H   0  0  0  0  0  0  0  0  0  0  0  0
   -2.7247    2.1923    4.3397 H   0  0  0  0  0  0  0  0  0  0  0  0
   -2.6847    4.6085    4.7063 H   0  0  0  0  0  0  0  0  0  0  0  0
   -3.5063    6.8185    4.0031 H   0  0  0  0  0  0  0  0  0  0  0  0
   -4.0548    7.0844    2.3423 H   0  0  0  0  0  0  0  0  0  0  0  0
   -1.1509    6.6483    3.1956 H   0  0  0  0  0  0  0  0  0  0  0  0
   -1.6971    6.9123    1.5399 H   0  0  0  0  0  0  0  0  0  0  0  0
   -1.8692    8.1971    2.7405 H   0  0  0  0  0  0  0  0  0  0  0  0
   -4.0454    5.2464    0.7160 H   0  0  0  0  0  0  0  0  0  0  0  0
   -4.1112    2.8250    0.3494 H   0  0  0  0  0  0  0  0  0  0  0  0
   -5.9857    1.6705    2.3647 H   0  0  0  0  0  0  0  0  0  0  0  0
   -7.9898    0.9426    1.1678 H   0  0  0  0  0  0  0  0  0  0  0  0
   -9.0156   -0.9412   -0.2048 H   0  0  0  0  0  0  0  0  0  0  0  0
   -8.0083   -1.7521   -1.4152 H   0  0  0  0  0  0  0  0  0  0  0  0
   -8.4404   -0.0530   -1.6109 H   0  0  0  0  0  0  0  0  0  0  0  0
   -5.6102   -1.6566   -1.2376 H   0  0  0  0  0  0  0  0  0  0  0  0
   -3.6067   -0.9567   -0.0214 H   0  0  0  0  0  0  0  0  0  0  0  0
    0.3775   -1.6031    2.6676 H   0  0  0  0  0  0  0  0  0  0  0  0
    1.8422    1.0643    2.0686 H   0  0  0  0  0  0  0  0  0  0  0  0
    3.8401    2.0504    3.0804 H   0  0  0  0  0  0  0  0  0  0  0  0
    7.2502    0.7078    2.6713 H   0  0  0  0  0  0  0  0  0  0  0  0
    6.2270    1.7935    3.6233 H   0  0  0  0  0  0  0  0  0  0  0  0
    7.7798    3.0841    2.1744 H   0  0  0  0  0  0  0  0  0  0  0  0
    7.1246    2.2838    0.7420 H   0  0  0  0  0  0  0  0  0  0  0  0
    6.1045    3.3667    1.6890 H   0  0  0  0  0  0  0  0  0  0  0  0
    6.3059   -0.5888    0.8120 H   0  0  0  0  0  0  0  0  0  0  0  0
    4.3086   -1.5914   -0.1920 H   0  0  0  0  0  0  0  0  0  0  0  0
    2.6787   -2.6222    2.0943 H   0  0  0  0  0  0  0  0  0  0  0  0
    2.7620   -5.0712    2.0732 H   0  0  0  0  0  0  0  0  0  0  0  0
    2.0254   -7.1354   -0.9002 H   0  0  0  0  0  0  0  0  0  0  0  0
    2.8016   -7.1168    0.6896 H   0  0  0  0  0  0  0  0  0  0  0  0
    0.5600   -6.9682    1.7787 H   0  0  0  0  0  0  0  0  0  0  0  0
    0.6803   -8.4067    0.7600 H   0  0  0  0  0  0  0  0  0  0  0  0
   -0.2129   -6.9911    0.1940 H   0  0  0  0  0  0  0  0  0  0  0  0
    1.0366   -5.0998   -1.8259 H   0  0  0  0  0  0  0  0  0  0  0  0
    0.9307   -2.6555   -1.8022 H   0  0  0  0  0  0  0  0  0  0  0  0
   -4.4039   -2.1733    7.1367 H   0  0  0  0  0  0  0  0  0  0  0  0
  1  2  2  0  0  0  0
  2  3  1  0  0  0  0
  3  4  2  0  0  0  0
  3  5  1  0  0  0  0
  5  6  1  0  0  0  0
  6  7  1  0  0  0  0
  7  8  1  0  0  0  0
  7  9  2  0  0  0  0
  9 10  1  0  0  0  0
 10 11  1  0  0  0  0
 11 12  2  0  0  0  0
 12 13  1  0  0  0  0
 13 14  3  0  0  0  0
 12 15  1  0  0  0  0
 15 16  3  0  0  0  0
  1 17  1  0  0  0  0
 17 18  2  0  0  0  0
 18 19  1  0  0  0  0
 19 20  1  0  0  0  0
 20 21  1  0  0  0  0
 21 22  1  0  0  0  0
 22 23  2  0  0  0  0
 23 24  1  0  0  0  0
 24 25  1  0  0  0  0
 25 26  1  0  0  0  0
 26 27  2  0  0  0  0
 27 28  1  0  0  0  0
 28 29  2  0  0  0  0
 29 30  1  0  0  0  0
 30 31  1  0  0  0  0
 29 32  1  0  0  0  0
 32 33  2  0  0  0  0
 25 34  1  0  0  0  0
 34 35  2  0  0  0  0
 35 36  1  0  0  0  0
 36 37  2  0  0  0  0
 37 38  1  0  0  0  0
 37 39  1  0  0  0  0
 39 40  2  0  0  0  0
 25 41  1  0  0  0  0
 41 42  2  0  0  0  0
 42 43  1  0  0  0  0
 43 44  1  0  0  0  0
 44 45  2  0  0  0  0
 45 46  1  0  0  0  0
 46 47  1  0  0  0  0
 47 48  2  0  0  0  0
 48 49  1  0  0  0  0
 49 50  2  0  0  0  0
 50 51  1  0  0  0  0
 51 52  1  0  0  0  0
 50 53  1  0  0  0  0
 53 54  2  0  0  0  0
 46 55  1  0  0  0  0
 55 56  2  0  0  0  0
 56 57  1  0  0  0  0
 57 58  2  0  0  0  0
 58 59  1  0  0  0  0
 59 60  1  0  0  0  0
 58 61  1  0  0  0  0
 61 62  2  0  0  0  0
 46 63  1  0  0  0  0
 63 64  1  0  0  0  0
 64 65  1  0  0  0  0
 42 66  1  0  0  0  0
 66 67  1  0  0  0  0
 67 68  1  0  0  0  0
 68 69  2  0  0  0  0
 69 70  1  0  0  0  0
 70 71  1  0  0  0  0
 69 72  1  0  0  0  0
 72 73  2  0  0  0  0
 73 74  1  0  0  0  0
 74 75  3  0  0  0  0
 73 76  1  0  0  0  0
 76 77  3  0  0  0  0
 72 78  1  0  0  0  0
 78 79  3  0  0  0  0
 11  2  1  0  0  0  0
 65 17  1  0  0  0  0
 71 67  2  0  0  0  0
 10  5  2  0  0  0  0
 64 19  2  0  0  0  0
 63 21  2  0  0  0  0
 45 22  1  0  0  0  0
 54 47  1  0  0  0  0
 62 55  1  0  0  0  0
 43 24  2  0  0  0  0
 33 26  1  0  0  0  0
 40 34  1  0  0  0  0
 71 41  1  0  0  0  0
  1 80  1  0  0  0  0
  8 81  1  0  0  0  0
  8 82  1  0  0  0  0
  8 83  1  0  0  0  0
  9 84  1  0  0  0  0
 18 85  1  0  0  0  0
 23 86  1  0  0  0  0
 27 87  1  0  0  0  0
 28 88  1  0  0  0  0
 30 89  1  0  0  0  0
 30 90  1  0  0  0  0
 31 91  1  0  0  0  0
 31 92  1  0  0  0  0
 31 93  1  0  0  0  0
 32 94  1  0  0  0  0
 33 95  1  0  0  0  0
 35 96  1  0  0  0  0
 36 97  1  0  0  0  0
 38 98  1  0  0  0  0
 38 99  1  0  0  0  0
 38100  1  0  0  0  0
 39101  1  0  0  0  0
 40102  1  0  0  0  0
 44103  1  0  0  0  0
 48104  1  0  0  0  0
 49105  1  0  0  0  0
 51106  1  0  0  0  0
 51107  1  0  0  0  0
 52108  1  0  0  0  0
 52109  1  0  0  0  0
 52110  1  0  0  0  0
 53111  1  0  0  0  0
 54112  1  0  0  0  0
 56113  1  0  0  0  0
 57114  1  0  0  0  0
 59115  1  0  0  0  0
 59116  1  0  0  0  0
 60117  1  0  0  0  0
 60118  1  0  0  0  0
 60119  1  0  0  0  0
 61120  1  0  0  0  0
 62121  1  0  0  0  0
 68122  1  0  0  0  0
M  END
