
  xtb     01262218253D
 energy: -189.566611791483 gnorm: 0.000363138510 xtb: 6.4.1 (unknown)
104115  0     0  0            999 V2000
    1.1533   -6.0339    4.9976 C   0  0  0  0  0  0  0  0  0  0  0  0
    0.1694   -6.9528    4.7429 C   0  0  0  0  0  0  0  0  0  0  0  0
   -0.8279   -6.8961    3.6554 C   0  0  0  0  0  0  0  0  0  0  0  0
   -0.9350   -6.0474    2.7867 O   0  0  0  0  0  0  0  0  0  0  0  0
   -1.6545   -8.0761    3.8576 C   0  0  0  0  0  0  0  0  0  0  0  0
   -3.0197   -8.7779    3.1030 S   0  0  0  0  0  0  0  0  0  0  0  0
   -3.0175  -10.0720    4.2717 C   0  0  0  0  0  0  0  0  0  0  0  0
   -4.0481  -11.1372    4.1956 C   0  0  0  0  0  0  0  0  0  0  0  0
   -2.0083   -9.9533    5.1865 C   0  0  0  0  0  0  0  0  0  0  0  0
   -1.2233   -8.8090    4.9539 C   0  0  0  0  0  0  0  0  0  0  0  0
   -0.0729   -8.1448    5.5368 C   0  0  0  0  0  0  0  0  0  0  0  0
    0.6126   -8.6037    6.6330 C   0  0  0  0  0  0  0  0  0  0  0  0
    1.7329   -7.9933    7.2283 C   0  0  0  0  0  0  0  0  0  0  0  0
    2.6496   -7.5527    7.7636 N   0  0  0  0  0  0  0  0  0  0  0  0
    0.2356   -9.7904    7.2953 C   0  0  0  0  0  0  0  0  0  0  0  0
   -0.0525  -10.7527    7.8505 N   0  0  0  0  0  0  0  0  0  0  0  0
    1.4883   -4.8365    4.3534 C   0  0  0  0  0  0  0  0  0  0  0  0
    2.5274   -3.9984    4.7884 C   0  0  0  0  0  0  0  0  0  0  0  0
    3.4562   -4.2747    5.9256 C   0  0  0  0  0  0  0  0  0  0  0  0
    4.5934   -5.2018    5.4884 C   0  0  0  0  0  0  0  0  0  0  0  0
    2.6308   -2.8654    3.9912 C   0  0  0  0  0  0  0  0  0  0  0  0
    3.6900   -1.4702    4.0600 S   0  0  0  0  0  0  0  0  0  0  0  0
    2.8580   -0.8120    2.6917 C   0  0  0  0  0  0  0  0  0  0  0  0
    2.8550    0.3502    1.9138 C   0  0  0  0  0  0  0  0  0  0  0  0
    3.5669    1.5609    2.0334 C   0  0  0  0  0  0  0  0  0  0  0  0
    3.2402    2.6513    1.1865 C   0  0  0  0  0  0  0  0  0  0  0  0
    4.0078    3.6837    1.5405 N   0  0  0  0  0  0  0  0  0  0  0  0
    4.7330    3.2165    2.5263 N   0  0  0  0  0  0  0  0  0  0  0  0
    5.6723    4.0424    3.2277 C   0  0  0  0  0  0  0  0  0  0  0  0
    5.0098    4.7000    4.4348 C   0  0  0  0  0  0  0  0  0  0  0  0
    4.5219    1.9704    2.8702 N   0  0  0  0  0  0  0  0  0  0  0  0
    2.2873    2.4752    0.1632 C   0  0  0  0  0  0  0  0  0  0  0  0
    1.8376    3.3294   -0.8494 C   0  0  0  0  0  0  0  0  0  0  0  0
    2.0404    4.9649   -1.3703 S   0  0  0  0  0  0  0  0  0  0  0  0
    0.9381    4.6632   -2.6964 C   0  0  0  0  0  0  0  0  0  0  0  0
    0.4025    5.4872   -3.6922 C   0  0  0  0  0  0  0  0  0  0  0  0
    0.8428    6.8874   -3.9547 C   0  0  0  0  0  0  0  0  0  0  0  0
    2.3635    7.0243   -4.0014 C   0  0  0  0  0  0  0  0  0  0  0  0
   -0.5037    4.7848   -4.4864 C   0  0  0  0  0  0  0  0  0  0  0  0
   -0.6069    3.0782   -4.0384 S   0  0  0  0  0  0  0  0  0  0  0  0
    0.4667    3.3394   -2.7185 C   0  0  0  0  0  0  0  0  0  0  0  0
    0.9722    2.5841   -1.6592 C   0  0  0  0  0  0  0  0  0  0  0  0
    0.8470    1.3117   -1.1687 N   0  0  0  0  0  0  0  0  0  0  0  0
    1.6353    1.2204   -0.0289 C   0  0  0  0  0  0  0  0  0  0  0  0
    1.8400    0.1867    0.9223 C   0  0  0  0  0  0  0  0  0  0  0  0
    1.2310   -1.0422    1.1279 N   0  0  0  0  0  0  0  0  0  0  0  0
    1.8369   -1.6351    2.2016 C   0  0  0  0  0  0  0  0  0  0  0  0
    1.6935   -2.8101    2.9463 C   0  0  0  0  0  0  0  0  0  0  0  0
    0.6571   -4.1875    2.9396 S   0  0  0  0  0  0  0  0  0  0  0  0
   -0.0436   -1.5450    0.6654 C   0  0  0  0  0  0  0  0  0  0  0  0
   -1.1883   -0.6101    1.0470 C   0  0  0  0  0  0  0  0  0  0  0  0
    0.3333    0.2667   -2.0276 C   0  0  0  0  0  0  0  0  0  0  0  0
    1.4338   -0.7006   -2.4551 C   0  0  0  0  0  0  0  0  0  0  0  0
   -1.2942    5.1951   -5.5727 C   0  0  0  0  0  0  0  0  0  0  0  0
   -1.9020    6.4176   -5.7250 C   0  0  0  0  0  0  0  0  0  0  0  0
   -2.2242    7.3235   -4.6050 C   0  0  0  0  0  0  0  0  0  0  0  0
   -1.8760    7.2308   -3.4478 O   0  0  0  0  0  0  0  0  0  0  0  0
   -3.1765    8.3114   -5.1686 C   0  0  0  0  0  0  0  0  0  0  0  0
   -3.3961    8.0358   -6.5309 C   0  0  0  0  0  0  0  0  0  0  0  0
   -4.2743    8.8145   -7.2664 C   0  0  0  0  0  0  0  0  0  0  0  0
   -4.9217    9.8639   -6.6304 C   0  0  0  0  0  0  0  0  0  0  0  0
   -4.6994   10.1361   -5.2896 C   0  0  0  0  0  0  0  0  0  0  0  0
   -5.6089   11.5829   -4.4819 Br  0  0  0  0  0  0  0  0  0  0  0  0
   -3.8192    9.3580   -4.5286 C   0  0  0  0  0  0  0  0  0  0  0  0
   -3.5466    9.6920   -2.8717 Cl  0  0  0  0  0  0  0  0  0  0  0  0
   -2.5826    6.8829   -6.9085 C   0  0  0  0  0  0  0  0  0  0  0  0
   -2.4204    6.3921   -8.1794 C   0  0  0  0  0  0  0  0  0  0  0  0
   -3.0911    6.8917   -9.3134 C   0  0  0  0  0  0  0  0  0  0  0  0
   -3.6169    7.2533  -10.2679 N   0  0  0  0  0  0  0  0  0  0  0  0
   -1.5272    5.3530   -8.5146 C   0  0  0  0  0  0  0  0  0  0  0  0
   -0.7995    4.5328   -8.8555 N   0  0  0  0  0  0  0  0  0  0  0  0
    1.7839   -6.2499    5.8498 H   0  0  0  0  0  0  0  0  0  0  0  0
   -3.8901  -11.8659    4.9864 H   0  0  0  0  0  0  0  0  0  0  0  0
   -5.0461  -10.7125    4.3018 H   0  0  0  0  0  0  0  0  0  0  0  0
   -4.0057  -11.6452    3.2328 H   0  0  0  0  0  0  0  0  0  0  0  0
   -1.8498  -10.6577    5.9820 H   0  0  0  0  0  0  0  0  0  0  0  0
    3.8788   -3.3244    6.2583 H   0  0  0  0  0  0  0  0  0  0  0  0
    2.9251   -4.7250    6.7656 H   0  0  0  0  0  0  0  0  0  0  0  0
    4.2024   -6.1592    5.1522 H   0  0  0  0  0  0  0  0  0  0  0  0
    5.1571   -4.7511    4.6748 H   0  0  0  0  0  0  0  0  0  0  0  0
    5.2647   -5.3795    6.3235 H   0  0  0  0  0  0  0  0  0  0  0  0
    6.4984    3.4042    3.5474 H   0  0  0  0  0  0  0  0  0  0  0  0
    6.0285    4.7990    2.5262 H   0  0  0  0  0  0  0  0  0  0  0  0
    4.6377    3.9392    5.1165 H   0  0  0  0  0  0  0  0  0  0  0  0
    4.1785    5.3226    4.1129 H   0  0  0  0  0  0  0  0  0  0  0  0
    5.7303    5.3204    4.9598 H   0  0  0  0  0  0  0  0  0  0  0  0
    0.4214    7.2220   -4.9044 H   0  0  0  0  0  0  0  0  0  0  0  0
    0.4372    7.5301   -3.1682 H   0  0  0  0  0  0  0  0  0  0  0  0
    2.7830    6.3469   -4.7423 H   0  0  0  0  0  0  0  0  0  0  0  0
    2.8101    6.8050   -3.0359 H   0  0  0  0  0  0  0  0  0  0  0  0
    2.6277    8.0421   -4.2766 H   0  0  0  0  0  0  0  0  0  0  0  0
   -0.0161   -1.7313   -0.4083 H   0  0  0  0  0  0  0  0  0  0  0  0
   -0.1920   -2.5112    1.1535 H   0  0  0  0  0  0  0  0  0  0  0  0
   -1.0391    0.3870    0.6392 H   0  0  0  0  0  0  0  0  0  0  0  0
   -1.2535   -0.5276    2.1294 H   0  0  0  0  0  0  0  0  0  0  0  0
   -2.1286   -1.0070    0.6744 H   0  0  0  0  0  0  0  0  0  0  0  0
   -0.0709    0.7645   -2.9127 H   0  0  0  0  0  0  0  0  0  0  0  0
   -0.4965   -0.2540   -1.5487 H   0  0  0  0  0  0  0  0  0  0  0  0
    1.0177   -1.4742   -3.0947 H   0  0  0  0  0  0  0  0  0  0  0  0
    2.2016   -0.1677   -3.0113 H   0  0  0  0  0  0  0  0  0  0  0  0
    1.9036   -1.1705   -1.5944 H   0  0  0  0  0  0  0  0  0  0  0  0
   -1.5014    4.4303   -6.3130 H   0  0  0  0  0  0  0  0  0  0  0  0
   -4.4692    8.6205   -8.3080 H   0  0  0  0  0  0  0  0  0  0  0  0
   -5.6129   10.4817   -7.1827 H   0  0  0  0  0  0  0  0  0  0  0  0
  1  2  2  0  0  0  0
  2  3  1  0  0  0  0
  3  4  2  0  0  0  0
  3  5  1  0  0  0  0
  5  6  1  0  0  0  0
  6  7  1  0  0  0  0
  7  8  1  0  0  0  0
  7  9  2  0  0  0  0
  9 10  1  0  0  0  0
 10 11  1  0  0  0  0
 11 12  2  0  0  0  0
 12 13  1  0  0  0  0
 13 14  3  0  0  0  0
 12 15  1  0  0  0  0
 15 16  3  0  0  0  0
  1 17  1  0  0  0  0
 17 18  2  0  0  0  0
 18 19  1  0  0  0  0
 19 20  1  0  0  0  0
 18 21  1  0  0  0  0
 21 22  1  0  0  0  0
 22 23  1  0  0  0  0
 23 24  1  0  0  0  0
 24 25  1  0  0  0  0
 25 26  1  0  0  0  0
 26 27  2  0  0  0  0
 27 28  1  0  0  0  0
 28 29  1  0  0  0  0
 29 30  1  0  0  0  0
 28 31  1  0  0  0  0
 26 32  1  0  0  0  0
 32 33  1  0  0  0  0
 33 34  1  0  0  0  0
 34 35  1  0  0  0  0
 35 36  1  0  0  0  0
 36 37  1  0  0  0  0
 37 38  1  0  0  0  0
 36 39  2  0  0  0  0
 39 40  1  0  0  0  0
 40 41  1  0  0  0  0
 41 42  1  0  0  0  0
 42 43  1  0  0  0  0
 43 44  1  0  0  0  0
 44 45  1  0  0  0  0
 45 46  1  0  0  0  0
 46 47  1  0  0  0  0
 47 48  1  0  0  0  0
 48 49  1  0  0  0  0
 46 50  1  0  0  0  0
 50 51  1  0  0  0  0
 43 52  1  0  0  0  0
 52 53  1  0  0  0  0
 39 54  1  0  0  0  0
 54 55  2  0  0  0  0
 55 56  1  0  0  0  0
 56 57  2  0  0  0  0
 56 58  1  0  0  0  0
 58 59  2  0  0  0  0
 59 60  1  0  0  0  0
 60 61  2  0  0  0  0
 61 62  1  0  0  0  0
 62 63  1  0  0  0  0
 62 64  2  0  0  0  0
 64 65  1  0  0  0  0
 59 66  1  0  0  0  0
 66 67  2  0  0  0  0
 67 68  1  0  0  0  0
 68 69  3  0  0  0  0
 67 70  1  0  0  0  0
 70 71  3  0  0  0  0
 11  2  1  0  0  0  0
 49 17  1  0  0  0  0
 66 55  1  0  0  0  0
 10  5  2  0  0  0  0
 48 21  2  0  0  0  0
 64 58  1  0  0  0  0
 47 23  2  0  0  0  0
 45 24  2  0  0  0  0
 31 25  2  0  0  0  0
 44 32  2  0  0  0  0
 42 33  2  0  0  0  0
 41 35  2  0  0  0  0
  1 72  1  0  0  0  0
  8 73  1  0  0  0  0
  8 74  1  0  0  0  0
  8 75  1  0  0  0  0
  9 76  1  0  0  0  0
 19 77  1  0  0  0  0
 19 78  1  0  0  0  0
 20 79  1  0  0  0  0
 20 80  1  0  0  0  0
 20 81  1  0  0  0  0
 29 82  1  0  0  0  0
 29 83  1  0  0  0  0
 30 84  1  0  0  0  0
 30 85  1  0  0  0  0
 30 86  1  0  0  0  0
 37 87  1  0  0  0  0
 37 88  1  0  0  0  0
 38 89  1  0  0  0  0
 38 90  1  0  0  0  0
 38 91  1  0  0  0  0
 50 92  1  0  0  0  0
 50 93  1  0  0  0  0
 51 94  1  0  0  0  0
 51 95  1  0  0  0  0
 51 96  1  0  0  0  0
 52 97  1  0  0  0  0
 52 98  1  0  0  0  0
 53 99  1  0  0  0  0
 53100  1  0  0  0  0
 53101  1  0  0  0  0
 54102  1  0  0  0  0
 60103  1  0  0  0  0
 61104  1  0  0  0  0
M  END
