
  xtb     02012219293D
 energy: -179.648158602091 gnorm: 0.000586323129 xtb: 6.4.1 (unknown)
 97108  0     0  0            999 V2000
    3.1360    7.0220    3.4814 C   0  0  0  0  0  0  0  0  0  0  0  0
    3.4127    7.6186    4.6754 C   0  0  0  0  0  0  0  0  0  0  0  0
    2.8338    7.2030    5.9883 C   0  0  0  0  0  0  0  0  0  0  0  0
    1.9859    6.3606    6.1933 O   0  0  0  0  0  0  0  0  0  0  0  0
    3.6086    7.9588    6.9639 C   0  0  0  0  0  0  0  0  0  0  0  0
    3.6550    8.0832    8.6687 S   0  0  0  0  0  0  0  0  0  0  0  0
    4.9732    9.2209    8.5649 C   0  0  0  0  0  0  0  0  0  0  0  0
    5.5559    9.7887    9.8060 C   0  0  0  0  0  0  0  0  0  0  0  0
    5.3479    9.4756    7.2753 C   0  0  0  0  0  0  0  0  0  0  0  0
    4.5702    8.7513    6.3525 C   0  0  0  0  0  0  0  0  0  0  0  0
    4.4747    8.5815    4.9180 C   0  0  0  0  0  0  0  0  0  0  0  0
    5.2209    9.2622    3.9922 C   0  0  0  0  0  0  0  0  0  0  0  0
    6.2170   10.1830    4.3783 C   0  0  0  0  0  0  0  0  0  0  0  0
    7.0346   10.9312    4.6761 N   0  0  0  0  0  0  0  0  0  0  0  0
    5.0832    9.1498    2.5949 C   0  0  0  0  0  0  0  0  0  0  0  0
    5.0083    9.1133    1.4496 N   0  0  0  0  0  0  0  0  0  0  0  0
    2.0384    6.1728    3.2001 C   0  0  0  0  0  0  0  0  0  0  0  0
    0.7156    6.2248    3.6144 C   0  0  0  0  0  0  0  0  0  0  0  0
    0.1068    7.3536    4.3764 C   0  0  0  0  0  0  0  0  0  0  0  0
   -1.1276    7.9211    3.6771 C   0  0  0  0  0  0  0  0  0  0  0  0
   -0.0109    5.1336    3.1110 C   0  0  0  0  0  0  0  0  0  0  0  0
   -1.6570    4.5918    3.3556 S   0  0  0  0  0  0  0  0  0  0  0  0
   -1.3256    3.2038    2.3822 C   0  0  0  0  0  0  0  0  0  0  0  0
   -1.9586    2.0293    1.9553 C   0  0  0  0  0  0  0  0  0  0  0  0
   -3.2355    1.5193    2.2741 C   0  0  0  0  0  0  0  0  0  0  0  0
   -3.5944    0.2183    1.7990 C   0  0  0  0  0  0  0  0  0  0  0  0
   -4.7960   -0.1583    2.2080 N   0  0  0  0  0  0  0  0  0  0  0  0
   -5.4226    1.0296    3.1122 S   0  0  0  0  0  0  0  0  0  0  0  0
   -4.1842    2.0676    3.0172 N   0  0  0  0  0  0  0  0  0  0  0  0
   -2.6955   -0.4666    0.9532 C   0  0  0  0  0  0  0  0  0  0  0  0
   -2.8444   -1.6843    0.2784 C   0  0  0  0  0  0  0  0  0  0  0  0
   -3.9935   -2.9636    0.1248 S   0  0  0  0  0  0  0  0  0  0  0  0
   -2.9566   -3.7294   -1.0610 C   0  0  0  0  0  0  0  0  0  0  0  0
   -3.1010   -4.8795   -1.8474 C   0  0  0  0  0  0  0  0  0  0  0  0
   -4.1865   -5.8866   -1.6739 C   0  0  0  0  0  0  0  0  0  0  0  0
   -4.4028   -6.2702   -0.2113 C   0  0  0  0  0  0  0  0  0  0  0  0
   -2.0253   -5.0229   -2.7216 C   0  0  0  0  0  0  0  0  0  0  0  0
   -0.7946   -3.7795   -2.4816 S   0  0  0  0  0  0  0  0  0  0  0  0
   -1.7755   -3.0073   -1.2963 C   0  0  0  0  0  0  0  0  0  0  0  0
   -1.7092   -1.8469   -0.5211 C   0  0  0  0  0  0  0  0  0  0  0  0
   -0.8638   -0.7841   -0.3508 N   0  0  0  0  0  0  0  0  0  0  0  0
   -1.4322    0.0783    0.5696 C   0  0  0  0  0  0  0  0  0  0  0  0
   -1.0212    1.3108    1.1528 C   0  0  0  0  0  0  0  0  0  0  0  0
    0.1603    2.0317    1.1396 N   0  0  0  0  0  0  0  0  0  0  0  0
   -0.0247    3.1704    1.8741 C   0  0  0  0  0  0  0  0  0  0  0  0
    0.7324    4.2680    2.2980 C   0  0  0  0  0  0  0  0  0  0  0  0
    2.3513    4.8251    2.1065 S   0  0  0  0  0  0  0  0  0  0  0  0
    1.4843    1.7360    0.6451 C   0  0  0  0  0  0  0  0  0  0  0  0
    1.8062    2.5267   -0.6234 C   0  0  0  0  0  0  0  0  0  0  0  0
    0.2985   -0.6820   -1.2019 C   0  0  0  0  0  0  0  0  0  0  0  0
    1.4367   -1.5823   -0.7207 C   0  0  0  0  0  0  0  0  0  0  0  0
   -1.7491   -5.9921   -3.7036 C   0  0  0  0  0  0  0  0  0  0  0  0
   -2.6623   -6.6298   -4.5039 C   0  0  0  0  0  0  0  0  0  0  0  0
   -4.0128   -6.1118   -4.8066 C   0  0  0  0  0  0  0  0  0  0  0  0
   -4.5714   -5.1484   -4.3259 O   0  0  0  0  0  0  0  0  0  0  0  0
   -4.5075   -6.9442   -5.9271 C   0  0  0  0  0  0  0  0  0  0  0  0
   -5.7142   -6.8508   -6.5894 C   0  0  0  0  0  0  0  0  0  0  0  0
   -5.9313   -7.7512   -7.6218 C   0  0  0  0  0  0  0  0  0  0  0  0
   -7.0952   -7.7041   -8.2916 F   0  0  0  0  0  0  0  0  0  0  0  0
   -4.9901   -8.7001   -7.9916 C   0  0  0  0  0  0  0  0  0  0  0  0
   -3.7795   -8.7800   -7.3197 C   0  0  0  0  0  0  0  0  0  0  0  0
   -3.5358   -7.8976   -6.2773 C   0  0  0  0  0  0  0  0  0  0  0  0
   -2.3858   -7.7393   -5.3903 C   0  0  0  0  0  0  0  0  0  0  0  0
   -1.2837   -8.5537   -5.3480 C   0  0  0  0  0  0  0  0  0  0  0  0
   -0.2407   -8.4365   -4.4054 C   0  0  0  0  0  0  0  0  0  0  0  0
    0.6285   -8.4117   -3.6553 N   0  0  0  0  0  0  0  0  0  0  0  0
   -1.0668   -9.6375   -6.2232 C   0  0  0  0  0  0  0  0  0  0  0  0
   -0.8334  -10.5251   -6.9130 N   0  0  0  0  0  0  0  0  0  0  0  0
    3.8456    7.1446    2.6708 H   0  0  0  0  0  0  0  0  0  0  0  0
    4.7851   10.2697   10.4070 H   0  0  0  0  0  0  0  0  0  0  0  0
    6.3204   10.5207    9.5587 H   0  0  0  0  0  0  0  0  0  0  0  0
    6.0050    9.0021   10.4123 H   0  0  0  0  0  0  0  0  0  0  0  0
    6.1450   10.1471    7.0142 H   0  0  0  0  0  0  0  0  0  0  0  0
    0.8481    8.1454    4.4975 H   0  0  0  0  0  0  0  0  0  0  0  0
   -0.1631    6.9946    5.3731 H   0  0  0  0  0  0  0  0  0  0  0  0
   -0.8795    8.2369    2.6658 H   0  0  0  0  0  0  0  0  0  0  0  0
   -1.9248    7.1853    3.6266 H   0  0  0  0  0  0  0  0  0  0  0  0
   -1.4932    8.7841    4.2275 H   0  0  0  0  0  0  0  0  0  0  0  0
   -3.9372   -6.7811   -2.2480 H   0  0  0  0  0  0  0  0  0  0  0  0
   -5.1107   -5.4750   -2.0897 H   0  0  0  0  0  0  0  0  0  0  0  0
   -5.1365   -7.0699   -0.1513 H   0  0  0  0  0  0  0  0  0  0  0  0
   -3.4731   -6.6218    0.2311 H   0  0  0  0  0  0  0  0  0  0  0  0
   -4.7684   -5.4282    0.3689 H   0  0  0  0  0  0  0  0  0  0  0  0
    2.1947    2.0295    1.4257 H   0  0  0  0  0  0  0  0  0  0  0  0
    1.5877    0.6658    0.4940 H   0  0  0  0  0  0  0  0  0  0  0  0
    1.8629    3.5880   -0.3971 H   0  0  0  0  0  0  0  0  0  0  0  0
    1.0429    2.3879   -1.3864 H   0  0  0  0  0  0  0  0  0  0  0  0
    2.7657    2.2096   -1.0218 H   0  0  0  0  0  0  0  0  0  0  0  0
   -0.0029   -1.0100   -2.2027 H   0  0  0  0  0  0  0  0  0  0  0  0
    0.6062    0.3567   -1.2767 H   0  0  0  0  0  0  0  0  0  0  0  0
    2.3219   -1.4123   -1.3269 H   0  0  0  0  0  0  0  0  0  0  0  0
    1.1525   -2.6269   -0.8151 H   0  0  0  0  0  0  0  0  0  0  0  0
    1.6817   -1.3959    0.3230 H   0  0  0  0  0  0  0  0  0  0  0  0
   -0.6967   -6.1873   -3.8765 H   0  0  0  0  0  0  0  0  0  0  0  0
   -6.4536   -6.1154   -6.3156 H   0  0  0  0  0  0  0  0  0  0  0  0
   -5.2123   -9.3704   -8.8068 H   0  0  0  0  0  0  0  0  0  0  0  0
   -3.0516   -9.5160   -7.6189 H   0  0  0  0  0  0  0  0  0  0  0  0
  1  2  2  0  0  0  0
  2  3  1  0  0  0  0
  3  4  2  0  0  0  0
  3  5  1  0  0  0  0
  5  6  1  0  0  0  0
  6  7  1  0  0  0  0
  7  8  1  0  0  0  0
  7  9  2  0  0  0  0
  9 10  1  0  0  0  0
 10 11  1  0  0  0  0
 11 12  2  0  0  0  0
 12 13  1  0  0  0  0
 13 14  3  0  0  0  0
 12 15  1  0  0  0  0
 15 16  3  0  0  0  0
  1 17  1  0  0  0  0
 17 18  2  0  0  0  0
 18 19  1  0  0  0  0
 19 20  1  0  0  0  0
 18 21  1  0  0  0  0
 21 22  1  0  0  0  0
 22 23  1  0  0  0  0
 23 24  1  0  0  0  0
 24 25  1  0  0  0  0
 25 26  1  0  0  0  0
 26 27  2  0  0  0  0
 27 28  1  0  0  0  0
 28 29  1  0  0  0  0
 26 30  1  0  0  0  0
 30 31  1  0  0  0  0
 31 32  1  0  0  0  0
 32 33  1  0  0  0  0
 33 34  1  0  0  0  0
 34 35  1  0  0  0  0
 35 36  1  0  0  0  0
 34 37  2  0  0  0  0
 37 38  1  0  0  0  0
 38 39  1  0  0  0  0
 39 40  1  0  0  0  0
 40 41  1  0  0  0  0
 41 42  1  0  0  0  0
 42 43  1  0  0  0  0
 43 44  1  0  0  0  0
 44 45  1  0  0  0  0
 45 46  1  0  0  0  0
 46 47  1  0  0  0  0
 44 48  1  0  0  0  0
 48 49  1  0  0  0  0
 41 50  1  0  0  0  0
 50 51  1  0  0  0  0
 37 52  1  0  0  0  0
 52 53  2  0  0  0  0
 53 54  1  0  0  0  0
 54 55  2  0  0  0  0
 54 56  1  0  0  0  0
 56 57  2  0  0  0  0
 57 58  1  0  0  0  0
 58 59  1  0  0  0  0
 58 60  2  0  0  0  0
 60 61  1  0  0  0  0
 61 62  2  0  0  0  0
 62 63  1  0  0  0  0
 63 64  2  0  0  0  0
 64 65  1  0  0  0  0
 65 66  3  0  0  0  0
 64 67  1  0  0  0  0
 67 68  3  0  0  0  0
 11  2  1  0  0  0  0
 47 17  1  0  0  0  0
 63 53  1  0  0  0  0
 10  5  2  0  0  0  0
 46 21  2  0  0  0  0
 62 56  1  0  0  0  0
 45 23  2  0  0  0  0
 43 24  2  0  0  0  0
 29 25  2  0  0  0  0
 42 30  2  0  0  0  0
 40 31  2  0  0  0  0
 39 33  2  0  0  0  0
  1 69  1  0  0  0  0
  8 70  1  0  0  0  0
  8 71  1  0  0  0  0
  8 72  1  0  0  0  0
  9 73  1  0  0  0  0
 19 74  1  0  0  0  0
 19 75  1  0  0  0  0
 20 76  1  0  0  0  0
 20 77  1  0  0  0  0
 20 78  1  0  0  0  0
 35 79  1  0  0  0  0
 35 80  1  0  0  0  0
 36 81  1  0  0  0  0
 36 82  1  0  0  0  0
 36 83  1  0  0  0  0
 48 84  1  0  0  0  0
 48 85  1  0  0  0  0
 49 86  1  0  0  0  0
 49 87  1  0  0  0  0
 49 88  1  0  0  0  0
 50 89  1  0  0  0  0
 50 90  1  0  0  0  0
 51 91  1  0  0  0  0
 51 92  1  0  0  0  0
 51 93  1  0  0  0  0
 52 94  1  0  0  0  0
 57 95  1  0  0  0  0
 60 96  1  0  0  0  0
 61 97  1  0  0  0  0
M  END
