123

C         -1.84510       -6.92040       -3.47160
C         -2.21010       -7.82140       -2.50070
C         -2.34350       -7.53760       -1.07250
O         -2.09840       -6.49420       -0.49070
C         -2.84840       -8.78210       -0.45690
C         -3.15640       -9.02070        0.86580
C         -3.62610      -10.28690        1.19630
Cl        -4.02740      -10.64120        2.83420
C         -3.77870      -11.27250        0.22830
C         -3.46330      -11.02260       -1.09920
C         -2.99230       -9.76640       -1.45080
C         -2.57520       -9.20360       -2.73450
C         -2.51860       -9.88960       -3.92090
C         -2.90240      -11.23920       -4.06800
N         -3.20340      -12.33100       -4.25700
C         -2.05650       -9.37950       -5.15280
N         -1.68140       -9.05840       -6.19040
C         -1.46440       -5.58010       -3.37180
C         -1.12640       -4.82370       -4.51000
C         -1.26020       -5.34340       -5.87860
C         -2.54130       -5.57610       -6.37230
C         -2.72360       -6.06970       -7.64890
C         -1.62140       -6.34270       -8.43990
C         -0.34870       -6.11920       -7.94910
C         -0.14400       -5.61730       -6.67120
C          1.25170       -5.47350       -6.13480
C          1.62470       -6.69230       -5.28750
C         -0.71990       -3.54090       -4.16960
S         -0.22770       -2.15690       -5.12790
C         -0.06390       -1.24720       -3.66490
C          0.21580        0.06400       -3.26080
C          0.41030        1.24630       -4.01030
C          0.46690        2.50230       -3.32010
N          0.57150        3.52940       -4.14810
S          0.60460        2.96550       -5.66490
N          0.48200        1.38780       -5.32400
C          0.46150        2.50690       -1.90690
C          0.60040        3.55320       -0.98480
S          0.74040        5.27810       -0.97040
C          0.88820        5.21570        0.77660
C          1.06220        6.19510        1.74330
C          1.19820        7.63690        1.48980
C          0.10920        8.41620        1.09540
C         -1.27220        7.83670        0.98840
C         -1.93090        7.77750        2.36880
C          0.30890        9.77470        0.89090
C          1.55160       10.35400        1.06510
C          2.62680        9.57580        1.45720
C          2.44760        8.22370        1.67300
C          1.13660        5.64080        3.03610
S          1.01130        3.88410        3.01890
C          0.83390        3.91060        1.30370
C          0.66100        2.96970        0.28710
N          0.53730        1.60670        0.18980
C          0.39290        1.29860       -1.15230
C          0.13190        0.08380       -1.83630
N         -0.23900       -1.17290       -1.40540
C         -0.35520       -1.97930       -2.50540
C         -0.74250       -3.29240       -2.78400
S         -1.27660       -4.66200       -1.88160
C         -0.76460       -1.61380       -0.13270
C          0.19000       -2.57150        0.58090
C          1.08990        0.80760        1.26390
C          2.61690        0.80600        1.20820
C          1.21130        6.45150        4.16950
C          1.26110        6.12190        5.50380
C          1.37050        4.76890        6.04690
O          1.36320        3.71470        5.43190
C          1.50920        4.92470        7.50700
C          1.66460        3.96030        8.45930
C          1.78390        4.34690        9.81330
C          1.94380        3.39390       10.83740
C          2.05740        3.79530       12.13900
F          2.20890        2.88600       13.11260
C          2.01680        5.16350       12.47220
F          2.13090        5.52800       13.75670
C          1.86280        6.11180       11.49990
C          1.74160        5.73070       10.14870
C          1.57770        6.70620        9.13760
C          1.46040        6.30950        7.83240
C          1.27230        7.06890        6.59700
C          1.08820        8.42710        6.52180
C          1.11380        9.28520        7.64040
N          1.12960       10.03450        8.51030
C          0.81610        9.16080        5.34800
N          0.56750        9.83130        4.44840
H         -1.84640       -7.27980       -4.49380
H         -3.03480       -8.24870        1.60890
H         -4.14750      -12.24440        0.51630
H         -3.59160      -11.80390       -1.82990
H         -3.39420       -5.35870       -5.74440
H         -3.72140       -6.24680       -8.02050
H         -1.75390       -6.73830       -9.43530
H          0.50950       -6.34590       -8.56480
H          1.95080       -5.39050       -6.96850
H          1.34060       -4.57030       -5.52940
H          2.66050       -6.62560       -4.96280
H          0.99020       -6.75690       -4.40600
H          1.49680       -7.60490       -5.86500
H         -1.87590        8.46490        0.33140
H         -1.23850        6.83420        0.55930
H         -1.40030        7.08500        3.01900
H         -1.91430        8.75980        2.83530
H         -2.96340        7.44700        2.28260
H         -0.53100       10.38770        0.59860
H          1.68010       11.41350        0.90430
H          3.60000       10.01990        1.60180
H          3.27900        7.60510        1.98140
H         -1.70190       -2.14560       -0.32990
H         -1.00560       -0.73870        0.47230
H          0.22500       -3.52100        0.05430
H          1.20090       -2.17210        0.62450
H         -0.16250       -2.75760        1.59150
H          0.75570        1.25450        2.20430
H          0.72850       -0.21160        1.21280
H          2.96250        0.38440        0.26610
H          3.01260        0.21110        2.02650
H          3.00410        1.81770        1.29860
H          1.22340        7.50820        3.92930
H          1.69570        2.91680        8.18480
H          1.97710        2.34230       10.59880
H          1.83280        7.15530       11.77210
H          1.55130        7.74460        9.42500
