104

C         -3.13420        5.98630        6.40750
C         -2.02110        5.99050        7.21690
C         -0.79630        5.22020        7.00640
O         -0.52970        4.47310        6.08040
C          0.08070        5.52570        8.15590
C          1.34120        5.03670        8.42640
C          1.96390        5.47780        9.58860
Cl         3.53950        4.89850        9.97840
C          1.33750        6.37730       10.44300
C          0.06990        6.86420       10.15990
C         -0.56930        6.43760        9.00530
C         -1.87970        6.75580        8.43910
C         -2.78080        7.63490        8.98600
C         -4.04470        7.96230        8.45360
N         -5.08620        8.28330        8.08810
C         -2.55840        8.35370       10.17910
N         -2.44480        8.97020       11.14110
C         -3.40210        5.30600        5.21850
C         -4.63140        5.40740        4.53890
C         -5.81820        6.19080        4.99540
C         -6.63630        5.39430        6.01580
C         -4.63920        4.63160        3.38960
C         -3.43610        3.94040        3.15430
S         -2.26930        4.23740        4.38620
C         -3.51250        3.18810        1.98000
C         -4.74940        3.31620        1.33730
S         -5.86190        4.35240        2.16170
C         -4.67690        2.55810        0.16440
C         -5.61470        2.40990       -0.88110
N         -6.83110        2.92270       -0.97920
S         -7.45740        2.48170       -2.40610
N         -6.19990        1.62010       -2.95070
C         -5.24610        1.64650       -2.03340
C         -3.98600        1.00910       -2.05250
C         -3.42120        0.15940       -3.00970
S         -3.80310       -0.51210       -4.55920
C         -2.28290       -1.38400       -4.51870
C         -1.66020       -2.24870       -5.39880
C         -0.42190       -2.69550       -4.93390
S         -0.03830       -2.01980       -3.35620
C         -1.53020       -1.15400       -3.35030
C         -2.19010       -0.26510       -2.49740
N         -1.97950        0.29300       -1.26700
C         -0.82920       -0.13980       -0.50730
C          0.44840        0.57290       -0.95150
C         -3.05710        1.10590       -0.96890
C         -3.38040        1.95410        0.12840
N         -2.68900        2.37890        1.24680
C         -1.31920        2.22310        1.67840
C         -1.19080        1.19170        2.79950
C          0.38200       -3.57000       -5.68050
C          1.62290       -4.08490       -5.40930
C          2.42150       -3.81050       -4.21050
O          2.11200       -3.11550       -3.25570
C          3.68710       -4.54050       -4.37570
C          4.76290       -4.56310       -3.49140
C          5.82070       -5.32910       -3.91810
C          5.80550       -6.02810       -5.13250
C          4.74830       -6.01720       -6.01150
C          3.66380       -5.23690       -5.60130
C          2.38660       -4.97490       -6.26400
C          2.00490       -5.48990       -7.47590
C          0.77620       -5.25110       -8.12680
N         -0.19410       -5.11470       -8.72710
C          2.79730       -6.35040       -8.26510
N          3.38110       -7.04870       -8.96500
C          7.19590       -6.57450       -4.92690
C          8.35180       -5.91660       -5.72030
C          7.92310       -4.49850       -6.00530
C          7.93760       -3.83300       -4.85820
C          8.37660       -4.78910       -3.77660
C          9.34770       -5.67330       -4.57510
C          7.21400       -5.79280       -3.57540
H         -3.95660        6.60560        6.73800
H          1.81790        4.33850        7.75700
H          1.84620        6.69930       11.33800
H         -0.39280        7.56020       10.83990
H         -5.51610        7.14180        5.43650
H         -6.44270        6.40050        4.12480
H         -6.04000        5.16900        6.89690
H         -7.50160        5.97340        6.32490
H         -6.97850        4.45920        5.57880
H         -2.06510       -2.55500       -6.34640
H         -1.02130       -0.01020        0.55370
H         -0.70600       -1.21190       -0.69330
H          1.26290        0.31920       -0.27910
H          0.72300        0.25450       -1.95320
H          0.32130        1.65380       -0.96420
H         -0.99100        3.19370        2.06500
H         -0.69270        1.97910        0.82620
H         -1.66240        0.24780        2.53160
H         -1.66780        1.56260        3.70250
H         -0.14150        1.01460        3.01750
H         -0.07370       -3.85720       -6.62010
H          4.72990       -4.01220       -2.56440
H          4.75570       -6.56220       -6.94030
H          7.28150       -7.65860       -4.89040
H          8.69920       -6.49350       -6.57300
H          7.60830       -4.15110       -6.97190
H          7.63690       -2.81800       -4.67470
H          8.74800       -4.33880       -2.85970
H          9.63720       -6.58310       -4.05100
H         10.23780       -5.13580       -4.89830
H          7.31510       -6.36580       -2.65570
