
  xtb     02022221373D
 energy: -204.117583761683 gnorm: 0.000207737301 xtb: 6.4.1 (unknown)
114129  0     0  0            999 V2000
   -3.6067    1.9688   -9.1069 C   0  0  0  0  0  0  0  0  0  0  0  0
   -2.5829    2.0659  -10.0207 C   0  0  0  0  0  0  0  0  0  0  0  0
   -1.2054    1.5493   -9.9220 C   0  0  0  0  0  0  0  0  0  0  0  0
   -0.7251    0.7709   -9.1201 O   0  0  0  0  0  0  0  0  0  0  0  0
   -0.4605    2.1852  -11.0316 C   0  0  0  0  0  0  0  0  0  0  0  0
    0.8828    2.0752  -11.3245 C   0  0  0  0  0  0  0  0  0  0  0  0
    1.3608    2.7880  -12.4175 C   0  0  0  0  0  0  0  0  0  0  0  0
    3.0325    2.6925  -12.8277 Cl  0  0  0  0  0  0  0  0  0  0  0  0
    0.5151    3.5803  -13.1848 C   0  0  0  0  0  0  0  0  0  0  0  0
   -0.8354    3.6786  -12.8845 C   0  0  0  0  0  0  0  0  0  0  0  0
   -1.3326    2.9740  -11.7979 C   0  0  0  0  0  0  0  0  0  0  0  0
   -2.6743    2.8669  -11.2297 C   0  0  0  0  0  0  0  0  0  0  0  0
   -3.8068    3.3929  -11.7966 C   0  0  0  0  0  0  0  0  0  0  0  0
   -5.1285    3.2222  -11.3323 C   0  0  0  0  0  0  0  0  0  0  0  0
   -6.2368    3.1202  -11.0476 N   0  0  0  0  0  0  0  0  0  0  0  0
   -3.8100    4.1630  -12.9787 C   0  0  0  0  0  0  0  0  0  0  0  0
   -3.8851    4.8009  -13.9304 N   0  0  0  0  0  0  0  0  0  0  0  0
   -3.6938    1.2988   -7.8798 C   0  0  0  0  0  0  0  0  0  0  0  0
   -5.1188    1.6786   -6.8842 S   0  0  0  0  0  0  0  0  0  0  0  0
   -4.5269    0.6737   -5.6277 C   0  0  0  0  0  0  0  0  0  0  0  0
   -4.7916    0.2887   -4.3175 C   0  0  0  0  0  0  0  0  0  0  0  0
   -5.9218    0.6642   -3.0467 S   0  0  0  0  0  0  0  0  0  0  0  0
   -4.9743   -0.3110   -1.9798 C   0  0  0  0  0  0  0  0  0  0  0  0
   -4.9502   -0.6147   -0.6044 C   0  0  0  0  0  0  0  0  0  0  0  0
   -5.7881   -0.2606    0.4765 C   0  0  0  0  0  0  0  0  0  0  0  0
   -5.4177   -0.6591    1.8089 C   0  0  0  0  0  0  0  0  0  0  0  0
   -6.3031   -0.2710    2.7132 N   0  0  0  0  0  0  0  0  0  0  0  0
   -7.4947    0.5241    1.9615 S   0  0  0  0  0  0  0  0  0  0  0  0
   -6.9282    0.4112    0.4513 N   0  0  0  0  0  0  0  0  0  0  0  0
   -4.1772   -1.3046    2.0153 C   0  0  0  0  0  0  0  0  0  0  0  0
   -3.4205   -1.5452    3.1736 C   0  0  0  0  0  0  0  0  0  0  0  0
   -3.5151   -1.2635    4.8778 S   0  0  0  0  0  0  0  0  0  0  0  0
   -1.8349   -1.7245    5.0307 C   0  0  0  0  0  0  0  0  0  0  0  0
   -0.9247   -1.6556    6.0986 C   0  0  0  0  0  0  0  0  0  0  0  0
   -1.3135   -1.3282    7.5009 C   0  0  0  0  0  0  0  0  0  0  0  0
   -2.3547   -2.3136    8.0317 C   0  0  0  0  0  0  0  0  0  0  0  0
    0.3430   -2.0322    5.6941 C   0  0  0  0  0  0  0  0  0  0  0  0
    0.3910   -2.5554    4.0098 S   0  0  0  0  0  0  0  0  0  0  0  0
   -1.2695   -2.1347    3.8179 C   0  0  0  0  0  0  0  0  0  0  0  0
   -2.1720   -2.0238    2.7559 C   0  0  0  0  0  0  0  0  0  0  0  0
   -2.1392   -2.1168    1.3905 N   0  0  0  0  0  0  0  0  0  0  0  0
   -3.3545   -1.6707    0.9138 C   0  0  0  0  0  0  0  0  0  0  0  0
   -3.8033   -1.4145   -0.3989 C   0  0  0  0  0  0  0  0  0  0  0  0
   -3.1790   -1.6742   -1.6193 N   0  0  0  0  0  0  0  0  0  0  0  0
   -3.8726   -0.9406   -2.5746 C   0  0  0  0  0  0  0  0  0  0  0  0
   -3.7378   -0.5776   -3.9216 C   0  0  0  0  0  0  0  0  0  0  0  0
   -2.8449   -0.7178   -4.9524 N   0  0  0  0  0  0  0  0  0  0  0  0
   -3.3079    0.0446   -5.9956 C   0  0  0  0  0  0  0  0  0  0  0  0
   -2.8456    0.3931   -7.2526 C   0  0  0  0  0  0  0  0  0  0  0  0
   -1.5627   -1.3764   -4.9571 C   0  0  0  0  0  0  0  0  0  0  0  0
   -1.6240   -2.7484   -5.6244 C   0  0  0  0  0  0  0  0  0  0  0  0
   -2.7138   -3.0156   -1.9367 C   0  0  0  0  0  0  0  0  0  0  0  0
   -3.8144   -3.8503   -2.5907 C   0  0  0  0  0  0  0  0  0  0  0  0
   -0.8876   -2.3029    0.6919 C   0  0  0  0  0  0  0  0  0  0  0  0
   -0.4075   -3.7519    0.7495 C   0  0  0  0  0  0  0  0  0  0  0  0
    1.5865   -1.9894    6.3776 C   0  0  0  0  0  0  0  0  0  0  0  0
    2.0247   -0.9318    7.1157 C   0  0  0  0  0  0  0  0  0  0  0  0
    1.4503    0.4342    7.0193 C   0  0  0  0  0  0  0  0  0  0  0  0
    0.3732    0.7616    6.5694 O   0  0  0  0  0  0  0  0  0  0  0  0
    2.5248    1.3364    7.4756 C   0  0  0  0  0  0  0  0  0  0  0  0
    2.5129    2.7291    7.4324 C   0  0  0  0  0  0  0  0  0  0  0  0
    3.6827    3.3114    7.8574 C   0  0  0  0  0  0  0  0  0  0  0  0
    4.7858    2.5667    8.2975 C   0  0  0  0  0  0  0  0  0  0  0  0
    4.8071    1.1935    8.3587 C   0  0  0  0  0  0  0  0  0  0  0  0
    3.6276    0.5808    7.9241 C   0  0  0  0  0  0  0  0  0  0  0  0
    3.3019   -0.8343    7.7945 C   0  0  0  0  0  0  0  0  0  0  0  0
    4.0232   -1.8918    8.2797 C   0  0  0  0  0  0  0  0  0  0  0  0
    3.5884   -3.2316    8.1922 C   0  0  0  0  0  0  0  0  0  0  0  0
    3.2707   -4.3345    8.1666 N   0  0  0  0  0  0  0  0  0  0  0  0
    5.2510   -1.7719    8.9614 C   0  0  0  0  0  0  0  0  0  0  0  0
    6.2555   -1.7315    9.5158 N   0  0  0  0  0  0  0  0  0  0  0  0
    5.6262    3.7983    8.5266 C   0  0  0  0  0  0  0  0  0  0  0  0
    6.6916    4.1095    7.4533 C   0  0  0  0  0  0  0  0  0  0  0  0
    7.0089    5.5715    7.6710 C   0  0  0  0  0  0  0  0  0  0  0  0
    5.9632    6.2771    7.2594 C   0  0  0  0  0  0  0  0  0  0  0  0
    4.9217    5.3038    6.7564 C   0  0  0  0  0  0  0  0  0  0  0  0
    5.8360    4.2128    6.1839 C   0  0  0  0  0  0  0  0  0  0  0  0
    4.3948    4.6282    8.0408 C   0  0  0  0  0  0  0  0  0  0  0  0
   -4.4920    2.5521   -9.3316 H   0  0  0  0  0  0  0  0  0  0  0  0
    1.5303    1.4590  -10.7209 H   0  0  0  0  0  0  0  0  0  0  0  0
    0.9175    4.1255  -14.0241 H   0  0  0  0  0  0  0  0  0  0  0  0
   -1.4684    4.3024  -13.4936 H   0  0  0  0  0  0  0  0  0  0  0  0
   -1.7210   -0.3148    7.5184 H   0  0  0  0  0  0  0  0  0  0  0  0
   -0.4301   -1.3503    8.1397 H   0  0  0  0  0  0  0  0  0  0  0  0
   -2.6072   -2.0637    9.0587 H   0  0  0  0  0  0  0  0  0  0  0  0
   -3.2626   -2.2776    7.4353 H   0  0  0  0  0  0  0  0  0  0  0  0
   -1.9620   -3.3281    8.0097 H   0  0  0  0  0  0  0  0  0  0  0  0
   -1.9401    0.0449   -7.7124 H   0  0  0  0  0  0  0  0  0  0  0  0
   -0.8628   -0.7387   -5.5056 H   0  0  0  0  0  0  0  0  0  0  0  0
   -1.2127   -1.4565   -3.9255 H   0  0  0  0  0  0  0  0  0  0  0  0
   -2.3176   -3.4050   -5.1056 H   0  0  0  0  0  0  0  0  0  0  0  0
   -1.9521   -2.6450   -6.6554 H   0  0  0  0  0  0  0  0  0  0  0  0
   -0.6384   -3.2057   -5.6194 H   0  0  0  0  0  0  0  0  0  0  0  0
   -2.4251   -3.4993   -1.0067 H   0  0  0  0  0  0  0  0  0  0  0  0
   -1.8421   -2.9604   -2.5935 H   0  0  0  0  0  0  0  0  0  0  0  0
   -4.6729   -3.9233   -1.9261 H   0  0  0  0  0  0  0  0  0  0  0  0
   -4.1444   -3.4016   -3.5246 H   0  0  0  0  0  0  0  0  0  0  0  0
   -3.4446   -4.8524   -2.7928 H   0  0  0  0  0  0  0  0  0  0  0  0
   -0.1369   -1.6692    1.1777 H   0  0  0  0  0  0  0  0  0  0  0  0
   -1.0025   -1.9581   -0.3355 H   0  0  0  0  0  0  0  0  0  0  0  0
   -1.1486   -4.4383    0.3466 H   0  0  0  0  0  0  0  0  0  0  0  0
   -0.2061   -4.0380    1.7782 H   0  0  0  0  0  0  0  0  0  0  0  0
    0.5109   -3.8557    0.1789 H   0  0  0  0  0  0  0  0  0  0  0  0
    2.2693   -2.8078    6.1775 H   0  0  0  0  0  0  0  0  0  0  0  0
    1.6447    3.2649    7.0818 H   0  0  0  0  0  0  0  0  0  0  0  0
    5.6621    0.6295    8.6936 H   0  0  0  0  0  0  0  0  0  0  0  0
    5.9888    3.9466    9.5417 H   0  0  0  0  0  0  0  0  0  0  0  0
    7.5338    3.4232    7.4358 H   0  0  0  0  0  0  0  0  0  0  0  0
    7.9090    5.9270    8.1369 H   0  0  0  0  0  0  0  0  0  0  0  0
    5.8151    7.3396    7.3127 H   0  0  0  0  0  0  0  0  0  0  0  0
    4.1511    5.7053    6.1039 H   0  0  0  0  0  0  0  0  0  0  0  0
    6.4104    4.5649    5.3286 H   0  0  0  0  0  0  0  0  0  0  0  0
    5.3183    3.2924    5.9199 H   0  0  0  0  0  0  0  0  0  0  0  0
    3.9328    5.3295    8.7328 H   0  0  0  0  0  0  0  0  0  0  0  0
  1  2  2  0  0  0  0
  2  3  1  0  0  0  0
  3  4  2  0  0  0  0
  3  5  1  0  0  0  0
  5  6  2  0  0  0  0
  6  7  1  0  0  0  0
  7  8  1  0  0  0  0
  7  9  2  0  0  0  0
  9 10  1  0  0  0  0
 10 11  2  0  0  0  0
 11 12  1  0  0  0  0
 12 13  2  0  0  0  0
 13 14  1  0  0  0  0
 14 15  3  0  0  0  0
 13 16  1  0  0  0  0
 16 17  3  0  0  0  0
  1 18  1  0  0  0  0
 18 19  1  0  0  0  0
 19 20  1  0  0  0  0
 20 21  1  0  0  0  0
 21 22  1  0  0  0  0
 22 23  1  0  0  0  0
 23 24  1  0  0  0  0
 24 25  1  0  0  0  0
 25 26  1  0  0  0  0
 26 27  2  0  0  0  0
 27 28  1  0  0  0  0
 28 29  1  0  0  0  0
 26 30  1  0  0  0  0
 30 31  1  0  0  0  0
 31 32  1  0  0  0  0
 32 33  1  0  0  0  0
 33 34  1  0  0  0  0
 34 35  1  0  0  0  0
 35 36  1  0  0  0  0
 34 37  2  0  0  0  0
 37 38  1  0  0  0  0
 38 39  1  0  0  0  0
 39 40  1  0  0  0  0
 40 41  1  0  0  0  0
 41 42  1  0  0  0  0
 42 43  1  0  0  0  0
 43 44  1  0  0  0  0
 44 45  1  0  0  0  0
 45 46  1  0  0  0  0
 46 47  1  0  0  0  0
 47 48  1  0  0  0  0
 48 49  1  0  0  0  0
 47 50  1  0  0  0  0
 50 51  1  0  0  0  0
 44 52  1  0  0  0  0
 52 53  1  0  0  0  0
 41 54  1  0  0  0  0
 54 55  1  0  0  0  0
 37 56  1  0  0  0  0
 56 57  2  0  0  0  0
 57 58  1  0  0  0  0
 58 59  2  0  0  0  0
 58 60  1  0  0  0  0
 60 61  2  0  0  0  0
 61 62  1  0  0  0  0
 62 63  2  0  0  0  0
 63 64  1  0  0  0  0
 64 65  2  0  0  0  0
 65 66  1  0  0  0  0
 66 67  2  0  0  0  0
 67 68  1  0  0  0  0
 68 69  3  0  0  0  0
 67 70  1  0  0  0  0
 70 71  3  0  0  0  0
 63 72  1  0  0  0  0
 72 73  1  0  0  0  0
 73 74  1  0  0  0  0
 74 75  2  0  0  0  0
 75 76  1  0  0  0  0
 76 77  1  0  0  0  0
 76 78  1  0  0  0  0
 12  2  1  0  0  0  0
 49 18  2  0  0  0  0
 66 57  1  0  0  0  0
 78 72  1  0  0  0  0
 11  5  1  0  0  0  0
 48 20  2  0  0  0  0
 65 60  1  0  0  0  0
 77 73  1  0  0  0  0
 46 21  2  0  0  0  0
 78 62  1  0  0  0  0
 45 23  2  0  0  0  0
 43 24  2  0  0  0  0
 29 25  2  0  0  0  0
 42 30  2  0  0  0  0
 40 31  2  0  0  0  0
 39 33  2  0  0  0  0
  1 79  1  0  0  0  0
  6 80  1  0  0  0  0
  9 81  1  0  0  0  0
 10 82  1  0  0  0  0
 35 83  1  0  0  0  0
 35 84  1  0  0  0  0
 36 85  1  0  0  0  0
 36 86  1  0  0  0  0
 36 87  1  0  0  0  0
 49 88  1  0  0  0  0
 50 89  1  0  0  0  0
 50 90  1  0  0  0  0
 51 91  1  0  0  0  0
 51 92  1  0  0  0  0
 51 93  1  0  0  0  0
 52 94  1  0  0  0  0
 52 95  1  0  0  0  0
 53 96  1  0  0  0  0
 53 97  1  0  0  0  0
 53 98  1  0  0  0  0
 54 99  1  0  0  0  0
 54100  1  0  0  0  0
 55101  1  0  0  0  0
 55102  1  0  0  0  0
 55103  1  0  0  0  0
 56104  1  0  0  0  0
 61105  1  0  0  0  0
 64106  1  0  0  0  0
 72107  1  0  0  0  0
 73108  1  0  0  0  0
 74109  1  0  0  0  0
 75110  1  0  0  0  0
 76111  1  0  0  0  0
 77112  1  0  0  0  0
 77113  1  0  0  0  0
 78114  1  0  0  0  0
M  END
