139

C         -2.65930       -3.52610       -7.35390
C         -3.34920       -2.94020       -8.38700
C         -3.44440       -1.50100       -8.65000
O         -2.89010       -0.59240       -8.05930
C         -4.36340       -1.35810       -9.79860
C         -4.79620       -0.20000      -10.40940
C         -5.67650       -0.32900      -11.47760
Cl        -6.25390        1.08420      -12.27660
C         -6.10100       -1.57930      -11.91220
C         -5.65760       -2.73770      -11.29170
C         -4.77970       -2.63170      -10.22280
C         -4.15070       -3.64080       -9.37170
C         -4.31110       -4.99600       -9.50930
C         -3.70800       -5.98810       -8.70850
N         -3.26050       -6.85980       -8.10830
C         -5.11690       -5.60040      -10.49720
N         -5.75400       -6.15960      -11.27150
C         -1.91210       -2.95430       -6.31650
C         -1.37280       -3.73440       -5.28790
C         -0.74030       -2.97190       -4.32890
S          0.02310       -3.33800       -2.80290
C          0.28110       -1.64360       -2.55600
C          0.76570       -0.84130       -1.47810
C          1.23660       -1.19750       -0.21620
C          1.50430       -0.17770        0.66500
C          1.96810       -0.27410        2.10780
C          3.38550       -0.82230        2.09440
C          4.48960        0.01700        2.11300
C          5.76880       -0.50750        2.07840
C          5.97780       -1.87830        2.01760
C          7.36810       -2.44060        1.94400
C          7.83380       -2.53030        0.48940
C          4.86810       -2.71330        1.98400
C          3.58830       -2.19480        2.02210
C          1.07530       -1.04620        3.05780
C          1.58810       -1.41700        4.29640
C          0.77240       -1.98840        5.25050
C         -0.57720       -2.20010        4.99620
C         -1.46480       -2.74400        6.07800
C         -1.75110       -1.65930        7.11870
C         -1.08100       -1.84250        3.75380
C         -0.26730       -1.26560        2.79300
C          1.89080        1.17000        2.52080
C          1.58360        1.97600        1.43870
C          1.34640        1.17680        0.27700
C          0.92330        1.53260       -1.00090
C          0.61240        0.51110       -1.86750
C          0.06030        0.61010       -3.27900
C          1.11530        1.27040       -4.15000
C          1.18970        2.65620       -4.21100
C          2.16840        3.27300       -4.96620
C          3.10080        2.52570       -5.67460
C          4.13190        3.19800       -6.53430
C          3.59200        3.40710       -7.95060
C          3.02480        1.14160       -5.60540
C          2.04900        0.51910       -4.84870
C         -1.27920        1.31340       -3.39270
C         -1.74010        1.67740       -4.65270
C         -2.98230        2.26070       -4.80210
C         -3.79620        2.49620       -3.70090
C         -5.16380        3.09070       -3.87610
C         -6.18010        1.99660       -4.20930
C         -3.33500        2.12060       -2.44710
C         -2.09320        1.53000       -2.29130
C         -0.15650       -0.84400       -3.59960
C         -0.75670       -1.58720       -4.61260
S         -1.58130       -1.23950       -6.08100
S          1.39830        3.65300        1.84010
C          1.64780        3.25310        3.52200
C          1.55690        3.96470        4.70210
C          1.67840        3.14160        5.82540
S          1.97110        1.46320        5.38530
C          1.90340        1.87890        3.71980
C          1.51600        3.63620        7.12930
C          1.37180        2.96630        8.31650
C          1.29250        1.50370        8.47700
O          1.55060        0.65560        7.64460
C          0.84150        1.27770        9.85840
C          0.52590        0.07960       10.49430
O          0.60260       -1.07980        9.82030
C          0.12530        0.14470       11.83260
C          0.04410        1.35590       12.49230
C          0.35200        2.55360       11.85760
C          0.75110        2.50830       10.53350
C          1.11940        3.57770        9.60420
C          1.22890        4.90510        9.92850
C          0.97950        5.43540       11.21160
N          0.79110        5.93780       12.22670
C          1.62540        5.93380        9.04790
N          1.94570        6.82980        8.40420
H         -2.71140       -4.60620       -7.28830
H         -4.46000        0.76470      -10.06390
H         -6.78540       -1.64630      -12.74320
H         -6.00350       -3.69370      -11.64840
H         -1.47310       -4.80450       -5.25830
H          1.34190       -2.23520        0.05960
H          4.35550        1.08770        2.16300
H          6.61760        0.16080        2.10480
H          7.38870       -3.43670        2.39050
H          8.05520       -1.80150        2.50230
H          7.16900       -3.17460       -0.08170
H          8.84140       -2.93600        0.43680
H          7.83120       -1.54440        0.02980
H          5.00780       -3.78380        1.93480
H          2.73860       -2.86170        2.01580
H          2.63200       -1.24910        4.51610
H          1.18460       -2.25020        6.21300
H         -0.97200       -3.58750        6.56730
H         -2.40470       -3.09890        5.65030
H         -0.82190       -1.29530        7.55060
H         -2.38130       -2.05140        7.91450
H         -2.26340       -0.81920        6.65420
H         -2.12750       -2.00240        3.53440
H         -0.68430       -0.97640        1.83860
H          0.80760        2.56970       -1.27490
H          0.46810        3.25600       -3.67570
H          2.20990        4.35220       -5.00490
H          4.39840        4.16560       -6.10440
H          5.03360        2.58390       -6.58000
H          3.33480        2.45160       -8.40230
H          4.33670        3.89710       -8.57340
H          2.69720        4.02500       -7.92670
H          3.74040        0.54030       -6.14800
H          2.01660       -0.55990       -4.80720
H         -1.12070        1.50680       -5.52070
H         -3.32400        2.53390       -5.78950
H         -5.14690        3.82290       -4.68600
H         -5.46870        3.60050       -2.96000
H         -6.22610        1.26600       -3.40460
H         -5.89300        1.48050       -5.12270
H         -7.17030        2.42480       -4.34710
H         -3.95440        2.28970       -1.57750
H         -1.76010        1.23980       -1.30530
H          1.37270        5.02160        4.77320
H          1.43140        4.71620        7.16610
H          0.35720       -1.82240       10.38720
H         -0.12440       -0.77060       12.35270
H         -0.26960        1.37290       13.52490
H          0.27160        3.48240       12.39590
