
  xtb     02012215493D
 energy: -167.115701805638 gnorm: 0.000461353301 xtb: 6.4.1 (unknown)
 97106  0     0  0            999 V2000
    7.7187   -3.6924    2.0712 C   0  0  0  0  0  0  0  0  0  0  0  0
    8.5648   -4.6692    1.6123 C   0  0  0  0  0  0  0  0  0  0  0  0
    8.4356   -5.5081    0.4007 C   0  0  0  0  0  0  0  0  0  0  0  0
    7.4875   -5.6336   -0.3472 O   0  0  0  0  0  0  0  0  0  0  0  0
    9.7379   -6.1885    0.2488 C   0  0  0  0  0  0  0  0  0  0  0  0
   10.1541   -7.0335   -0.7618 C   0  0  0  0  0  0  0  0  0  0  0  0
   11.4410   -7.5457   -0.7077 C   0  0  0  0  0  0  0  0  0  0  0  0
   12.2742   -7.2013    0.3469 C   0  0  0  0  0  0  0  0  0  0  0  0
   14.2361   -7.9815    0.3953 I   0  0  0  0  0  0  0  0  0  0  0  0
   11.8677   -6.3582    1.3722 C   0  0  0  0  0  0  0  0  0  0  0  0
   10.5799   -5.8497    1.3196 C   0  0  0  0  0  0  0  0  0  0  0  0
    9.8524   -4.9570    2.2216 C   0  0  0  0  0  0  0  0  0  0  0  0
   10.3030   -4.5468    3.4485 C   0  0  0  0  0  0  0  0  0  0  0  0
   11.5644   -4.8902    3.9817 C   0  0  0  0  0  0  0  0  0  0  0  0
   12.5754   -5.1253    4.4714 N   0  0  0  0  0  0  0  0  0  0  0  0
    9.5818   -3.7713    4.3823 C   0  0  0  0  0  0  0  0  0  0  0  0
    9.0653   -3.1628    5.2082 N   0  0  0  0  0  0  0  0  0  0  0  0
    6.4486   -3.2770    1.6383 C   0  0  0  0  0  0  0  0  0  0  0  0
    5.5621   -3.7769    0.6943 C   0  0  0  0  0  0  0  0  0  0  0  0
    4.4003   -3.0256    0.6226 C   0  0  0  0  0  0  0  0  0  0  0  0
    2.9574   -3.1383   -0.3472 S   0  0  0  0  0  0  0  0  0  0  0  0
    2.3439   -1.7225    0.4354 C   0  0  0  0  0  0  0  0  0  0  0  0
    1.1650   -0.9225    0.3160 C   0  0  0  0  0  0  0  0  0  0  0  0
    1.2957    0.1486    1.2338 C   0  0  0  0  0  0  0  0  0  0  0  0
    2.5765    0.0232    2.0360 C   0  0  0  0  0  0  0  0  0  0  0  0
    3.4794    1.2589    1.9061 C   0  0  0  0  0  0  0  0  0  0  0  0
    3.8762    1.5438    0.4620 C   0  0  0  0  0  0  0  0  0  0  0  0
    2.3078   -0.3357    3.5168 C   0  0  0  0  0  0  0  0  0  0  0  0
    1.5498    0.7106    4.3214 C   0  0  0  0  0  0  0  0  0  0  0  0
    3.1915   -1.1874    1.3911 C   0  0  0  0  0  0  0  0  0  0  0  0
    4.3618   -1.9277    1.5105 C   0  0  0  0  0  0  0  0  0  0  0  0
    5.7947   -1.8447    2.4521 S   0  0  0  0  0  0  0  0  0  0  0  0
    0.3482    1.1449    1.2651 C   0  0  0  0  0  0  0  0  0  0  0  0
   -0.7441    1.0192    0.4099 C   0  0  0  0  0  0  0  0  0  0  0  0
   -1.8560    1.8887    0.1954 C   0  0  0  0  0  0  0  0  0  0  0  0
   -2.6965    1.3795   -0.7802 C   0  0  0  0  0  0  0  0  0  0  0  0
   -2.1814    0.0541   -1.2821 C   0  0  0  0  0  0  0  0  0  0  0  0
   -0.9056   -0.0802   -0.4658 C   0  0  0  0  0  0  0  0  0  0  0  0
    0.0708   -1.0478   -0.5361 C   0  0  0  0  0  0  0  0  0  0  0  0
   -3.2341   -1.0152   -0.9177 C   0  0  0  0  0  0  0  0  0  0  0  0
   -2.8685   -2.4493   -1.2742 C   0  0  0  0  0  0  0  0  0  0  0  0
   -1.8094    0.0785   -2.7778 C   0  0  0  0  0  0  0  0  0  0  0  0
   -2.9802    0.2166   -3.7407 C   0  0  0  0  0  0  0  0  0  0  0  0
   -3.8160    2.1941   -0.9511 C   0  0  0  0  0  0  0  0  0  0  0  0
   -3.7947    3.3292   -0.1169 C   0  0  0  0  0  0  0  0  0  0  0  0
   -2.3821    3.3815    0.8946 S   0  0  0  0  0  0  0  0  0  0  0  0
   -4.9000    4.1585   -0.2578 C   0  0  0  0  0  0  0  0  0  0  0  0
   -5.7971    3.6760   -1.1973 C   0  0  0  0  0  0  0  0  0  0  0  0
   -5.2493    2.1646   -1.9107 S   0  0  0  0  0  0  0  0  0  0  0  0
   -7.0070    4.2894   -1.5747 C   0  0  0  0  0  0  0  0  0  0  0  0
   -7.8981    3.8656   -2.5069 C   0  0  0  0  0  0  0  0  0  0  0  0
   -7.7838    2.4313   -3.4981 S   0  0  0  0  0  0  0  0  0  0  0  0
   -9.3013    2.8176   -4.2916 C   0  0  0  0  0  0  0  0  0  0  0  0
   -9.7783    1.9901   -5.2759 C   0  0  0  0  0  0  0  0  0  0  0  0
  -10.9655    2.1537   -6.0099 C   0  0  0  0  0  0  0  0  0  0  0  0
  -11.9223    2.2245   -6.6413 N   0  0  0  0  0  0  0  0  0  0  0  0
   -9.0358    0.8424   -5.6255 C   0  0  0  0  0  0  0  0  0  0  0  0
   -8.4370   -0.0934   -5.9109 N   0  0  0  0  0  0  0  0  0  0  0  0
   -9.8401    3.9666   -3.8113 N   0  0  0  0  0  0  0  0  0  0  0  0
  -11.1154    4.5258   -4.2218 C   0  0  0  0  0  0  0  0  0  0  0  0
  -12.2793    3.8448   -3.5120 C   0  0  0  0  0  0  0  0  0  0  0  0
   -9.1183    4.6068   -2.8102 C   0  0  0  0  0  0  0  0  0  0  0  0
   -9.4747    5.6396   -2.2905 O   0  0  0  0  0  0  0  0  0  0  0  0
    8.0884   -3.1046    2.9037 H   0  0  0  0  0  0  0  0  0  0  0  0
    9.4862   -7.2819   -1.5720 H   0  0  0  0  0  0  0  0  0  0  0  0
   11.7951   -8.2069   -1.4834 H   0  0  0  0  0  0  0  0  0  0  0  0
   12.5450   -6.1108    2.1728 H   0  0  0  0  0  0  0  0  0  0  0  0
    5.7764   -4.6427    0.0957 H   0  0  0  0  0  0  0  0  0  0  0  0
    2.9551    2.1259    2.3082 H   0  0  0  0  0  0  0  0  0  0  0  0
    4.3775    1.0941    2.5054 H   0  0  0  0  0  0  0  0  0  0  0  0
    4.4454    0.7164    0.0445 H   0  0  0  0  0  0  0  0  0  0  0  0
    2.9942    1.6990   -0.1558 H   0  0  0  0  0  0  0  0  0  0  0  0
    4.4919    2.4385    0.4149 H   0  0  0  0  0  0  0  0  0  0  0  0
    1.7434   -1.2718    3.5384 H   0  0  0  0  0  0  0  0  0  0  0  0
    3.2764   -0.5206    3.9877 H   0  0  0  0  0  0  0  0  0  0  0  0
    0.5510    0.8609    3.9211 H   0  0  0  0  0  0  0  0  0  0  0  0
    1.4533    0.3685    5.3493 H   0  0  0  0  0  0  0  0  0  0  0  0
    2.0755    1.6612    4.3325 H   0  0  0  0  0  0  0  0  0  0  0  0
    0.4387    2.0111    1.9016 H   0  0  0  0  0  0  0  0  0  0  0  0
    0.0233   -1.8719   -1.2303 H   0  0  0  0  0  0  0  0  0  0  0  0
   -3.4080   -0.9533    0.1603 H   0  0  0  0  0  0  0  0  0  0  0  0
   -4.1670   -0.7438   -1.4156 H   0  0  0  0  0  0  0  0  0  0  0  0
   -2.0051   -2.7843   -0.7063 H   0  0  0  0  0  0  0  0  0  0  0  0
   -3.7044   -3.1014   -1.0307 H   0  0  0  0  0  0  0  0  0  0  0  0
   -2.6582   -2.5545   -2.3347 H   0  0  0  0  0  0  0  0  0  0  0  0
   -1.2641   -0.8382   -3.0059 H   0  0  0  0  0  0  0  0  0  0  0  0
   -1.1192    0.9128   -2.9307 H   0  0  0  0  0  0  0  0  0  0  0  0
   -2.6057    0.2294   -4.7617 H   0  0  0  0  0  0  0  0  0  0  0  0
   -3.6748   -0.6129   -3.6479 H   0  0  0  0  0  0  0  0  0  0  0  0
   -3.5229    1.1416   -3.5710 H   0  0  0  0  0  0  0  0  0  0  0  0
   -5.0570    5.0699    0.2890 H   0  0  0  0  0  0  0  0  0  0  0  0
   -7.2623    5.2137   -1.0699 H   0  0  0  0  0  0  0  0  0  0  0  0
  -11.2147    4.4412   -5.3051 H   0  0  0  0  0  0  0  0  0  0  0  0
  -11.0788    5.5822   -3.9415 H   0  0  0  0  0  0  0  0  0  0  0  0
  -13.2096    4.3115   -3.8210 H   0  0  0  0  0  0  0  0  0  0  0  0
  -12.1753    3.9508   -2.4345 H   0  0  0  0  0  0  0  0  0  0  0  0
  -12.3281    2.7878   -3.7634 H   0  0  0  0  0  0  0  0  0  0  0  0
  1  2  2  0  0  0  0
  2  3  1  0  0  0  0
  3  4  2  0  0  0  0
  3  5  1  0  0  0  0
  5  6  2  0  0  0  0
  6  7  1  0  0  0  0
  7  8  2  0  0  0  0
  8  9  1  0  0  0  0
  8 10  1  0  0  0  0
 10 11  2  0  0  0  0
 11 12  1  0  0  0  0
 12 13  2  0  0  0  0
 13 14  1  0  0  0  0
 14 15  3  0  0  0  0
 13 16  1  0  0  0  0
 16 17  3  0  0  0  0
  1 18  1  0  0  0  0
 18 19  2  0  0  0  0
 19 20  1  0  0  0  0
 20 21  1  0  0  0  0
 21 22  1  0  0  0  0
 22 23  1  0  0  0  0
 23 24  2  0  0  0  0
 24 25  1  0  0  0  0
 25 26  1  0  0  0  0
 26 27  1  0  0  0  0
 25 28  1  0  0  0  0
 28 29  1  0  0  0  0
 25 30  1  0  0  0  0
 30 31  1  0  0  0  0
 31 32  1  0  0  0  0
 24 33  1  0  0  0  0
 33 34  2  0  0  0  0
 34 35  1  0  0  0  0
 35 36  2  0  0  0  0
 36 37  1  0  0  0  0
 37 38  1  0  0  0  0
 38 39  2  0  0  0  0
 37 40  1  0  0  0  0
 40 41  1  0  0  0  0
 37 42  1  0  0  0  0
 42 43  1  0  0  0  0
 36 44  1  0  0  0  0
 44 45  2  0  0  0  0
 45 46  1  0  0  0  0
 45 47  1  0  0  0  0
 47 48  2  0  0  0  0
 48 49  1  0  0  0  0
 48 50  1  0  0  0  0
 50 51  2  0  0  0  0
 51 52  1  0  0  0  0
 52 53  1  0  0  0  0
 53 54  2  0  0  0  0
 54 55  1  0  0  0  0
 55 56  3  0  0  0  0
 54 57  1  0  0  0  0
 57 58  3  0  0  0  0
 53 59  1  0  0  0  0
 59 60  1  0  0  0  0
 60 61  1  0  0  0  0
 59 62  1  0  0  0  0
 62 63  2  0  0  0  0
 12  2  1  0  0  0  0
 32 18  1  0  0  0  0
 38 34  1  0  0  0  0
 49 44  1  0  0  0  0
 62 51  1  0  0  0  0
 11  5  1  0  0  0  0
 31 20  2  0  0  0  0
 46 35  1  0  0  0  0
 30 22  2  0  0  0  0
 39 23  1  0  0  0  0
  1 64  1  0  0  0  0
  6 65  1  0  0  0  0
  7 66  1  0  0  0  0
 10 67  1  0  0  0  0
 19 68  1  0  0  0  0
 26 69  1  0  0  0  0
 26 70  1  0  0  0  0
 27 71  1  0  0  0  0
 27 72  1  0  0  0  0
 27 73  1  0  0  0  0
 28 74  1  0  0  0  0
 28 75  1  0  0  0  0
 29 76  1  0  0  0  0
 29 77  1  0  0  0  0
 29 78  1  0  0  0  0
 33 79  1  0  0  0  0
 39 80  1  0  0  0  0
 40 81  1  0  0  0  0
 40 82  1  0  0  0  0
 41 83  1  0  0  0  0
 41 84  1  0  0  0  0
 41 85  1  0  0  0  0
 42 86  1  0  0  0  0
 42 87  1  0  0  0  0
 43 88  1  0  0  0  0
 43 89  1  0  0  0  0
 43 90  1  0  0  0  0
 47 91  1  0  0  0  0
 50 92  1  0  0  0  0
 60 93  1  0  0  0  0
 60 94  1  0  0  0  0
 61 95  1  0  0  0  0
 61 96  1  0  0  0  0
 61 97  1  0  0  0  0
M  END
