107

C         -7.72350        2.29300       -1.87150
C         -8.01520        1.25320       -2.72120
C         -7.01200        0.30480       -3.24670
O         -5.86960        0.12400       -2.87170
C         -7.65390       -0.33340       -4.41480
C         -7.12290       -1.25610       -5.29480
C         -7.91930       -1.71560       -6.33300
C         -9.21540       -1.24080       -6.46890
I        -10.40000       -1.94960       -8.06780
C         -9.76320       -0.31230       -5.59330
C         -8.96860        0.14230       -4.55470
C         -9.23400        1.09940       -3.48160
C        -10.44420        1.67100       -3.18890
C        -11.61570        1.47150       -3.94710
N        -12.59310        1.34370       -4.53520
C        -10.67480        2.48690       -2.06080
N        -10.93200        3.12670       -1.14300
C         -6.56830        2.39030       -1.07680
S         -5.84540        3.99850       -0.88880
C         -4.50230        3.29410       -0.10180
C         -3.24160        3.66140        0.39860
C         -2.48480        4.85530        0.34760
C         -1.10170        4.82880        0.75230
N         -0.50220        5.99340        0.56360
S         -1.57460        7.03450       -0.05460
N         -2.84950        6.04060       -0.11360
C         -0.57100        3.65110        1.32840
C          0.68190        3.31100        1.86880
S          2.27920        3.96200        1.99360
C          2.80820        2.48140        2.75900
C          4.07430        2.00160        3.13340
C          5.31290        2.83280        3.12500
C          5.14910        4.08640        3.98430
C          3.98970        0.70580        3.61240
S          2.33000        0.11070        3.68090
C          1.76870        1.56260        2.94350
C          0.55980        2.02790        2.42030
N         -0.70930        1.54750        2.22370
C         -1.39860        2.51270        1.51520
C         -2.66750        2.46950        0.90620
N         -3.51610        1.39780        0.68590
C         -4.64790        1.90670        0.07460
C         -5.83930        1.38370       -0.44260
C         -6.38330        0.02540       -0.13730
C         -6.56280       -0.14490        1.37340
C         -3.02770        0.07440        0.33220
C         -2.84150       -0.06330       -1.17860
C         -1.28590        0.55530        3.10840
C         -1.22520        1.01420        4.56460
C          5.00820       -0.20660        3.99240
C          6.16250       -0.41410        3.29950
C          6.36200       -0.01290        1.88340
O          5.70710        0.77170        1.23100
C          7.45920       -0.86610        1.39020
C          7.92750       -0.94030        0.08050
C          8.92200       -1.86960       -0.10600
C          9.41810       -2.66950        0.93300
C          8.97400       -2.59880        2.23210
C          7.95900       -1.66110        2.44230
C          7.22200       -1.33690        3.65750
C          7.51160       -1.75560        4.92850
C          6.81060       -1.31660        6.07200
N          6.29080       -0.97470        7.03690
C          8.56640       -2.63100        5.25780
N          9.40490       -3.34440        5.58290
C         10.36590       -3.40540        0.01980
C          9.96340       -4.83150       -0.43280
C          8.45660       -4.88900       -0.38820
C          7.99280       -4.12840       -1.37080
C          9.17820       -3.54230       -2.09750
C         10.18380       -4.69490       -1.94790
C          9.81800       -2.51000       -1.13580
H         -8.36480        3.16650       -1.88840
H         -6.11030       -1.60730       -5.17040
H         -7.53170       -2.43840       -7.03410
H        -10.77190        0.04130       -5.73210
H          6.15080        2.24270        3.49770
H          5.53120        3.11740        2.09310
H          4.35270        4.71960        3.60260
H          4.91690        3.81370        5.01170
H          6.07400        4.65720        3.98000
H         -7.35150       -0.09710       -0.62210
H         -5.71700       -0.74520       -0.52920
H         -6.92790       -1.14510        1.59360
H         -5.62720        0.00940        1.90530
H         -7.28720        0.57560        1.74610
H         -2.06300       -0.08180        0.81120
H         -3.73230       -0.67640        0.69770
H         -2.44140       -1.04830       -1.40450
H         -3.78000        0.06200       -1.71140
H         -2.13810        0.68630       -1.53590
H         -2.32910        0.40390        2.83350
H         -0.73470       -0.38390        2.99410
H         -1.73670        1.96730        4.68060
H         -0.19630        1.12660        4.89440
H         -1.71090        0.27740        5.19820
H          4.77640       -0.85440        4.83060
H          7.51360       -0.31130       -0.69200
H          9.35750       -3.22340        3.02210
H         11.42290       -3.33190        0.26670
H         10.48920       -5.63230        0.08000
H          7.89930       -5.41530        0.36460
H          6.97080       -3.89180       -1.60270
H          8.98950       -3.16890       -3.10060
H          9.88690       -5.58630       -2.49840
H         11.20280       -4.41940       -2.21540
H         10.51660       -1.84720       -1.64240
