108

C         -7.34610        1.68320        2.89470
C         -8.15850        0.71300        3.44230
C         -7.79060       -0.62580        3.94130
O         -6.74000       -1.22900        3.83920
C         -8.98150       -1.12280        4.66540
C         -9.13550       -2.30650        5.35930
C        -10.35030       -2.55680        5.97980
C        -11.37020       -1.62150        5.89410
I        -13.20600       -2.02090        6.86130
C        -11.23090       -0.42890        5.19690
C        -10.01890       -0.18310        4.57360
C         -9.55150        0.94350        3.76520
C        -10.34870        1.97370        3.33160
C         -9.95940        2.99650        2.44400
N         -9.73390        3.84690        1.70410
C        -11.70690        2.12530        3.68000
N        -12.81230        2.31290        3.92730
C         -6.02360        1.62970        2.43890
C         -5.18220        0.51530        2.21660
C         -4.00280        1.02350        1.71290
C         -4.12260        2.42950        1.64340
N         -5.34250        2.79400        2.07850
C         -5.83560        4.15160        2.05890
C         -6.60240        4.45610        0.77420
C         -2.89250        2.92280        1.17460
C         -2.40110        4.23910        1.03160
C         -1.04510        4.43440        0.60910
N         -0.70260        5.71180        0.56830
S         -1.97320        6.60260        1.01970
N         -3.01410        5.38610        1.28970
C         -0.27320        3.30790        0.25350
C          1.00840        3.21480       -0.30040
S          2.31540        4.25210       -0.75360
C          3.18270        2.84440       -1.33860
C          4.42760        2.70070       -1.93730
C          5.35560        3.85100       -2.15370
C          6.35520        3.96840       -0.99980
C          4.69580        1.35620       -2.24370
S          3.36870        0.28990       -1.78050
C          2.47890        1.63920       -1.17860
C          1.23570        1.86080       -0.57670
N          0.15700        1.11630       -0.18460
C         -0.78880        1.97960        0.34140
C         -2.07110        1.78040        0.91540
N         -2.76480        0.63100        1.26580
C         -2.27230       -0.67970        1.63110
C         -1.16790       -0.59880        2.68200
C          0.02560       -0.24650       -0.65090
C         -1.08170       -0.37840       -1.69280
C          5.88990        0.93890       -2.84330
C          6.32440       -0.30830       -3.21390
C          5.57760       -1.56220       -3.08350
O          4.46600       -1.71800       -2.60410
C          6.43000       -2.61560       -3.65850
C          6.12750       -3.97080       -3.77440
C          7.11770       -4.71560       -4.36890
C          8.31890       -4.15290       -4.81960
C          8.62890       -2.81780       -4.71300
C          7.63690       -2.04140       -4.10630
C          7.60340       -0.60610       -3.82820
C          8.62020        0.27480       -4.09830
C          8.60850        1.65920       -3.82980
N          8.68610        2.79110       -3.64510
C          9.85270       -0.08060       -4.68540
N         10.87960       -0.28880       -5.15530
C          8.84830       -5.47640       -5.31220
C          9.90620       -6.16910       -4.42760
C          9.87380       -7.60900       -4.88680
C          8.73690       -8.14330       -4.45950
C          7.98170       -7.07370       -3.70370
C          9.15850       -6.30090       -3.09430
C          7.50920       -6.10480       -4.80850
H         -7.80080        2.66200        2.81630
H         -8.32390       -3.01540        5.41310
H        -10.50070       -3.47320        6.52920
H        -12.04570        0.27500        5.15580
H         -5.45230       -0.49990        2.41620
H         -6.46550        4.32820        2.93380
H         -4.96150        4.80600        2.11470
H         -7.50000        3.84880        0.69100
H         -5.96740        4.27070       -0.08870
H         -6.89760        5.50080        0.76990
H          5.89920        3.74700       -3.09380
H          4.75950        4.76450       -2.20280
H          5.83050        4.11100       -0.05790
H          7.01170        4.81720       -1.16750
H          6.96590        3.07170       -0.92640
H         -1.94730       -1.23420        0.74960
H         -3.12730       -1.21390        2.05120
H         -0.32410       -0.01150        2.32740
H         -1.55120       -0.13090        3.58580
H         -0.81980       -1.59770        2.93090
H         -0.12830       -0.92580        0.18770
H          0.98240       -0.51140       -1.10720
H         -0.85470        0.24340       -2.55570
H         -2.04320       -0.06650       -1.29200
H         -1.15540       -1.41110       -2.02240
H          6.57180        1.75440       -3.04100
H          5.18600       -4.36070       -3.42030
H          9.55530       -2.40220       -5.07190
H          9.08140       -5.52800       -6.37400
H         10.87680       -5.68120       -4.41240
H         10.63010       -8.05930       -5.50250
H          8.35380       -9.12920       -4.64710
H          7.20000       -7.41140       -3.02850
H          9.71120       -6.89680       -2.36990
H          8.88000       -5.34900       -2.64580
H          6.84970       -6.57640       -5.53470
