170

C          5.78920        5.16720        3.42240
C          6.93010        5.79590        2.98920
C          7.71970        5.53620        1.76680
O          7.60300        4.64370        0.95150
C          8.72870        6.61320        1.70690
C          9.68030        6.84500        0.73290
C         10.52530        7.93390        0.87950
C         10.39670        8.75750        1.98830
I         11.68970       10.41690        2.18560
C          9.44700        8.53480        2.97610
C          8.60410        7.44460        2.83050
C          7.52050        6.93450        3.67230
C          7.18450        7.44370        4.89960
C          6.19700        6.94440        5.77620
N          5.43180        6.60910        6.56460
C          7.81580        8.55860        5.49270
N          8.28100        9.45780        6.03390
C          5.06030        4.08460        2.90630
C          5.26760        3.22820        1.83280
C          4.24380        2.30620        1.69800
S          3.92390        1.04210        0.54360
C          2.43340        0.70980        1.35290
C          1.32900       -0.16800        1.12510
C          1.09730       -1.08120        0.08660
C          2.07560       -1.27630       -0.98210
C          2.90110       -2.32790       -1.22460
C          3.70920       -2.14170       -2.36870
C          3.49660       -0.95610       -2.99620
C          4.14190       -0.42170       -4.22800
C          3.19250       -0.47790       -5.42560
S          2.27550       -0.03340       -2.18310
C         -0.13290       -1.71010        0.08910
C         -0.66340       -2.71790       -0.91120
C         -0.47800       -2.30010       -2.35570
C          0.35930       -2.97650       -3.23050
C          0.39350       -2.63340       -4.56860
C         -0.39030       -1.60170       -5.06570
C         -0.45640       -1.32660       -6.53920
C         -1.57260       -2.16850       -7.16350
C         -1.17470       -0.88380       -4.17280
C         -1.21890       -1.22730       -2.83630
C         -0.16150       -4.12710       -0.62340
C          0.67530       -4.41400        0.44470
C          1.07080       -5.71660        0.69560
C          0.63200       -6.76460       -0.10030
C          1.10020       -8.16950        0.14550
C          2.36840       -8.45770       -0.66080
C         -0.22090       -6.47380       -1.15830
C         -0.61830       -5.17660       -1.41400
C         -2.12080       -2.72680       -0.53250
C         -2.32670       -2.04280        0.65320
C         -1.11590       -1.39580        1.05710
C         -0.87060       -0.50840        2.11370
C          0.38380        0.07580        2.14670
C          0.89970        1.11620        3.12780
C         -0.09650        2.25930        3.19720
C         -0.88900        2.49340        4.31100
C         -1.84110        3.49530        4.29370
C         -2.03010        4.28500        3.16840
C         -3.04390        5.39210        3.16700
C         -2.41260        6.69570        3.65960
C         -1.22920        4.05150        2.05800
C         -0.27830        3.04990        2.06890
C          1.27340        0.53700        4.48100
C          1.69680        1.39250        5.49170
C          2.08420        0.89240        6.71910
C          2.06830       -0.47440        6.96870
C          2.42970       -1.01140        8.32300
C          1.19060       -1.06080        9.21940
C          1.66340       -1.32510        5.95020
C          1.27840       -0.82970        4.71750
C          2.19540        1.50630        2.46350
C          3.22200        2.42080        2.66840
S          3.55800        3.69720        3.76480
C         -1.93750       -0.18880        3.06020
C         -3.06210        0.53590        2.80940
C         -3.90570        0.65390        3.93450
C         -3.43280        0.00910        5.03270
C         -4.06110       -0.12760        6.37670
C         -4.62940       -1.53320        6.58180
S         -1.91560       -0.76170        4.69760
S         -3.98210       -2.02160        1.16990
C         -4.42630       -2.87130       -0.29250
C         -5.62560       -3.20670       -0.88770
C         -5.45430       -3.71940       -2.17890
S         -3.75280       -3.84260       -2.61580
C         -3.30640       -3.18480       -1.09400
C         -6.54150       -4.01320       -3.01320
C         -6.57170       -4.28020       -4.36020
C         -5.41350       -4.27240       -5.26340
O         -4.23350       -4.27350       -4.96760
C         -5.96780       -4.26740       -6.63180
C         -5.30190       -4.14560       -7.83130
C         -6.05640       -4.14360       -9.00590
C         -5.33590       -3.97710      -10.29570
O         -4.14750       -3.79300      -10.38510
O         -6.15330       -4.04480      -11.35400
C         -5.53700       -3.88210      -12.62310
C         -7.44300       -4.27650       -8.94990
C         -8.10900       -4.39930       -7.73900
C         -7.36800       -4.38660       -6.56660
C         -7.76820       -4.45110       -5.15990
C         -9.04530       -4.66320       -4.70950
C        -10.16460       -4.83220       -5.55150
N        -11.11700       -4.97270       -6.17670
C         -9.42670       -4.76850       -3.35520
N         -9.81690       -4.87600       -2.28040
H          5.33540        5.58420        4.31400
H          9.75590        6.18790       -0.11960
H         11.27820        8.14160        0.13510
H          9.37790        9.19990        3.82080
H          6.12480        3.29780        1.18910
H          2.93900       -3.20510       -0.60350
H          4.42870       -2.86660       -2.70620
H          4.44610        0.61430       -4.05940
H          5.03700       -1.01050       -4.43940
H          2.91210       -1.50730       -5.63310
H          2.28690        0.08710       -5.21630
H          3.67160       -0.06020       -6.30760
H          0.97770       -3.78590       -2.87350
H          1.02680       -3.19430       -5.24120
H         -0.65790       -0.26810       -6.71590
H          0.49450       -1.57800       -7.01290
H         -1.38490       -3.22600       -6.99280
H         -2.52980       -1.91960       -6.71040
H         -1.63580       -1.99330       -8.23490
H         -1.77350       -0.05870       -4.53170
H         -1.84890       -0.66720       -2.15860
H          1.02410       -3.62210        1.09130
H          1.72770       -5.91890        1.53000
H          0.32050       -8.87550       -0.14710
H          1.30900       -8.31080        1.20780
H          3.16350       -7.77340       -0.37280
H          2.70700       -9.47630       -0.48670
H          2.17700       -8.33190       -1.72410
H         -0.58400       -7.27410       -1.78690
H         -1.28430       -4.97370       -2.23980
H         -0.77590        1.88580        5.19570
H         -2.45510        3.65640        5.16830
H         -3.43100        5.53890        2.15660
H         -3.87930        5.12820        3.81870
H         -3.14760        7.49710        3.66350
H         -1.58700        6.98410        3.01280
H         -2.02770        6.57130        4.66910
H         -1.35810        4.65420        1.17000
H          0.32350        2.87280        1.18810
H          1.71530        2.45870        5.31830
H          2.40660        1.57420        7.49260
H          3.18430       -0.37300        8.78660
H          2.84400       -2.01680        8.22550
H          0.42730       -1.69450        8.77310
H          0.77620       -0.06310        9.34580
H          1.44470       -1.45820       10.19920
H          1.65010       -2.39220        6.11950
H          0.97580       -1.51680        3.94110
H         -3.26330        0.99570        1.85820
H         -4.83070        1.20220        3.92340
H         -4.86180        0.60950        6.46640
H         -3.31890        0.07530        7.15300
H         -5.08710       -1.61640        7.56430
H         -3.83680       -2.27390        6.50220
H         -5.38130       -1.75020        5.82660
H         -6.59560       -3.05910       -0.44820
H         -7.49840       -3.93810       -2.50980
H         -4.22810       -4.04360       -7.87260
H         -5.06030       -2.90190      -12.68940
H         -4.77790       -4.65160      -12.77730
H         -6.33030       -3.97280      -13.36020
H         -8.00580       -4.27530       -9.87000
H         -9.18280       -4.49050       -7.72730
