
  xtb     02012217113D
 energy: -188.470372709759 gnorm: 0.000507553365 xtb: 6.4.1 (unknown)
100112  0     0  0            999 V2000
    5.4689    2.8262   -6.6495 C   0  0  0  0  0  0  0  0  0  0  0  0
    6.7443    2.6728   -6.1545 C   0  0  0  0  0  0  0  0  0  0  0  0
    7.1121    2.0095   -4.9035 C   0  0  0  0  0  0  0  0  0  0  0  0
    6.3725    1.4846   -4.0873 O   0  0  0  0  0  0  0  0  0  0  0  0
    8.5813    2.0952   -4.8108 C   0  0  0  0  0  0  0  0  0  0  0  0
    9.4184    1.6226   -3.8196 C   0  0  0  0  0  0  0  0  0  0  0  0
   10.7834    1.8266   -3.9538 C   0  0  0  0  0  0  0  0  0  0  0  0
   11.2721    2.4925   -5.0678 C   0  0  0  0  0  0  0  0  0  0  0  0
   13.3557    2.7880   -5.2496 I   0  0  0  0  0  0  0  0  0  0  0  0
   10.4417    2.9737   -6.0720 C   0  0  0  0  0  0  0  0  0  0  0  0
    9.0784    2.7710   -5.9380 C   0  0  0  0  0  0  0  0  0  0  0  0
    7.9520    3.1473   -6.7968 C   0  0  0  0  0  0  0  0  0  0  0  0
    8.0612    3.8316   -7.9806 C   0  0  0  0  0  0  0  0  0  0  0  0
    6.9907    4.2107   -8.8169 C   0  0  0  0  0  0  0  0  0  0  0  0
    6.1759    4.5535   -9.5513 N   0  0  0  0  0  0  0  0  0  0  0  0
    9.2847    4.2627   -8.5359 C   0  0  0  0  0  0  0  0  0  0  0  0
   10.2437    4.6408   -9.0409 N   0  0  0  0  0  0  0  0  0  0  0  0
    4.2321    2.4397   -6.1314 C   0  0  0  0  0  0  0  0  0  0  0  0
    3.0130    2.6896   -6.7907 C   0  0  0  0  0  0  0  0  0  0  0  0
    2.8609    3.3265   -8.1328 C   0  0  0  0  0  0  0  0  0  0  0  0
    3.0748    2.3017   -9.2504 C   0  0  0  0  0  0  0  0  0  0  0  0
    1.9354    2.2231   -6.0533 C   0  0  0  0  0  0  0  0  0  0  0  0
    0.2051    2.2762   -6.3359 S   0  0  0  0  0  0  0  0  0  0  0  0
   -0.0349    1.5051   -4.8077 C   0  0  0  0  0  0  0  0  0  0  0  0
   -1.0924    1.1420   -3.9639 C   0  0  0  0  0  0  0  0  0  0  0  0
   -2.4820    1.3915   -4.0404 C   0  0  0  0  0  0  0  0  0  0  0  0
   -3.3000    1.1309   -2.8891 C   0  0  0  0  0  0  0  0  0  0  0  0
   -4.5590    1.4955   -3.0723 N   0  0  0  0  0  0  0  0  0  0  0  0
   -4.7072    2.1039   -4.5641 S   0  0  0  0  0  0  0  0  0  0  0  0
   -3.1683    1.9324   -5.0341 N   0  0  0  0  0  0  0  0  0  0  0  0
   -2.7198    0.5008   -1.7651 C   0  0  0  0  0  0  0  0  0  0  0  0
   -3.2610    0.0715   -0.5419 C   0  0  0  0  0  0  0  0  0  0  0  0
   -4.7519    0.1515    0.3326 S   0  0  0  0  0  0  0  0  0  0  0  0
   -4.0043   -0.7372    1.6348 C   0  0  0  0  0  0  0  0  0  0  0  0
   -4.4221   -1.1686    2.8979 C   0  0  0  0  0  0  0  0  0  0  0  0
   -5.8598   -1.0382    3.8263 S   0  0  0  0  0  0  0  0  0  0  0  0
   -5.0659   -1.8244    5.1963 C   0  0  0  0  0  0  0  0  0  0  0  0
   -3.7742   -2.2483    4.8952 C   0  0  0  0  0  0  0  0  0  0  0  0
   -2.9350   -3.1263    5.7614 C   0  0  0  0  0  0  0  0  0  0  0  0
   -2.4401   -4.3663    5.0180 C   0  0  0  0  0  0  0  0  0  0  0  0
   -3.4214   -1.8545    3.5996 C   0  0  0  0  0  0  0  0  0  0  0  0
   -1.9411   -1.9726    2.6868 S   0  0  0  0  0  0  0  0  0  0  0  0
   -2.6710   -1.0867    1.3817 C   0  0  0  0  0  0  0  0  0  0  0  0
   -2.2454   -0.6104    0.1385 C   0  0  0  0  0  0  0  0  0  0  0  0
   -1.0915   -0.6026   -0.6022 N   0  0  0  0  0  0  0  0  0  0  0  0
   -1.3527    0.1093   -1.7618 C   0  0  0  0  0  0  0  0  0  0  0  0
   -0.5048    0.5653   -2.8006 C   0  0  0  0  0  0  0  0  0  0  0  0
    0.8677    0.6242   -2.9216 N   0  0  0  0  0  0  0  0  0  0  0  0
    1.1560    1.1968   -4.1333 C   0  0  0  0  0  0  0  0  0  0  0  0
    2.2892    1.6173   -4.8330 C   0  0  0  0  0  0  0  0  0  0  0  0
    3.9944    1.6155   -4.5882 S   0  0  0  0  0  0  0  0  0  0  0  0
    1.8907    0.5151   -1.9036 C   0  0  0  0  0  0  0  0  0  0  0  0
    2.8502   -0.6457   -2.1641 C   0  0  0  0  0  0  0  0  0  0  0  0
   -0.1203   -1.6588   -0.4100 C   0  0  0  0  0  0  0  0  0  0  0  0
   -0.7339   -3.0310   -0.6879 C   0  0  0  0  0  0  0  0  0  0  0  0
   -5.8177   -1.9445    6.3827 C   0  0  0  0  0  0  0  0  0  0  0  0
   -5.3316   -1.8768    7.6620 C   0  0  0  0  0  0  0  0  0  0  0  0
   -4.0447   -1.2482    8.0375 C   0  0  0  0  0  0  0  0  0  0  0  0
   -3.1727   -0.8301    7.3046 O   0  0  0  0  0  0  0  0  0  0  0  0
   -4.0859   -1.1234    9.5095 C   0  0  0  0  0  0  0  0  0  0  0  0
   -3.1380   -0.5828   10.3565 C   0  0  0  0  0  0  0  0  0  0  0  0
   -3.3975   -0.5692   11.7185 C   0  0  0  0  0  0  0  0  0  0  0  0
   -4.5932   -1.0848   12.1971 C   0  0  0  0  0  0  0  0  0  0  0  0
   -4.9646   -1.0441   14.2761 I   0  0  0  0  0  0  0  0  0  0  0  0
   -5.5580   -1.6263   11.3582 C   0  0  0  0  0  0  0  0  0  0  0  0
   -5.2954   -1.6451    9.9983 C   0  0  0  0  0  0  0  0  0  0  0  0
   -6.0821   -2.1433    8.8707 C   0  0  0  0  0  0  0  0  0  0  0  0
   -7.2707   -2.8183    8.9564 C   0  0  0  0  0  0  0  0  0  0  0  0
   -7.9556   -3.0658   10.1646 C   0  0  0  0  0  0  0  0  0  0  0  0
   -8.5574   -3.2912   11.1154 N   0  0  0  0  0  0  0  0  0  0  0  0
   -7.9484   -3.3851    7.8557 C   0  0  0  0  0  0  0  0  0  0  0  0
   -8.5373   -3.8942    7.0120 N   0  0  0  0  0  0  0  0  0  0  0  0
    5.3923    3.3339   -7.6011 H   0  0  0  0  0  0  0  0  0  0  0  0
    9.0115    1.1080   -2.9629 H   0  0  0  0  0  0  0  0  0  0  0  0
   11.4627    1.4691   -3.1956 H   0  0  0  0  0  0  0  0  0  0  0  0
   10.8604    3.4865   -6.9220 H   0  0  0  0  0  0  0  0  0  0  0  0
    1.8477    3.7267   -8.2063 H   0  0  0  0  0  0  0  0  0  0  0  0
    3.5640    4.1511   -8.2589 H   0  0  0  0  0  0  0  0  0  0  0  0
    2.3563    1.4901   -9.1622 H   0  0  0  0  0  0  0  0  0  0  0  0
    2.9450    2.7805  -10.2165 H   0  0  0  0  0  0  0  0  0  0  0  0
    4.0781    1.8847   -9.2050 H   0  0  0  0  0  0  0  0  0  0  0  0
   -2.0823   -2.5469    6.1266 H   0  0  0  0  0  0  0  0  0  0  0  0
   -3.5197   -3.4366    6.6286 H   0  0  0  0  0  0  0  0  0  0  0  0
   -1.7628   -4.1003    4.2110 H   0  0  0  0  0  0  0  0  0  0  0  0
   -1.9084   -5.0164    5.7079 H   0  0  0  0  0  0  0  0  0  0  0  0
   -3.2796   -4.9188    4.6013 H   0  0  0  0  0  0  0  0  0  0  0  0
    1.4091    0.4343   -0.9284 H   0  0  0  0  0  0  0  0  0  0  0  0
    2.4684    1.4460   -1.9132 H   0  0  0  0  0  0  0  0  0  0  0  0
    3.4603   -0.4389   -3.0386 H   0  0  0  0  0  0  0  0  0  0  0  0
    3.5113   -0.7690   -1.3112 H   0  0  0  0  0  0  0  0  0  0  0  0
    2.3198   -1.5797   -2.3368 H   0  0  0  0  0  0  0  0  0  0  0  0
    0.2380   -1.6137    0.6232 H   0  0  0  0  0  0  0  0  0  0  0  0
    0.7116   -1.5100   -1.0886 H   0  0  0  0  0  0  0  0  0  0  0  0
    0.0269   -3.7985   -0.5757 H   0  0  0  0  0  0  0  0  0  0  0  0
   -1.1239   -3.0701   -1.7029 H   0  0  0  0  0  0  0  0  0  0  0  0
   -1.5436   -3.2456    0.0039 H   0  0  0  0  0  0  0  0  0  0  0  0
   -6.8902   -2.0208    6.2454 H   0  0  0  0  0  0  0  0  0  0  0  0
   -2.2171   -0.1850    9.9592 H   0  0  0  0  0  0  0  0  0  0  0  0
   -2.6725   -0.1589   12.4043 H   0  0  0  0  0  0  0  0  0  0  0  0
   -6.4792   -2.0115   11.7636 H   0  0  0  0  0  0  0  0  0  0  0  0
  1  2  2  0  0  0  0
  2  3  1  0  0  0  0
  3  4  2  0  0  0  0
  3  5  1  0  0  0  0
  5  6  2  0  0  0  0
  6  7  1  0  0  0  0
  7  8  2  0  0  0  0
  8  9  1  0  0  0  0
  8 10  1  0  0  0  0
 10 11  2  0  0  0  0
 11 12  1  0  0  0  0
 12 13  2  0  0  0  0
 13 14  1  0  0  0  0
 14 15  3  0  0  0  0
 13 16  1  0  0  0  0
 16 17  3  0  0  0  0
  1 18  1  0  0  0  0
 18 19  2  0  0  0  0
 19 20  1  0  0  0  0
 20 21  1  0  0  0  0
 19 22  1  0  0  0  0
 22 23  1  0  0  0  0
 23 24  1  0  0  0  0
 24 25  1  0  0  0  0
 25 26  1  0  0  0  0
 26 27  1  0  0  0  0
 27 28  2  0  0  0  0
 28 29  1  0  0  0  0
 29 30  1  0  0  0  0
 27 31  1  0  0  0  0
 31 32  1  0  0  0  0
 32 33  1  0  0  0  0
 33 34  1  0  0  0  0
 34 35  1  0  0  0  0
 35 36  1  0  0  0  0
 36 37  1  0  0  0  0
 37 38  2  0  0  0  0
 38 39  1  0  0  0  0
 39 40  1  0  0  0  0
 38 41  1  0  0  0  0
 41 42  1  0  0  0  0
 42 43  1  0  0  0  0
 43 44  1  0  0  0  0
 44 45  1  0  0  0  0
 45 46  1  0  0  0  0
 46 47  1  0  0  0  0
 47 48  1  0  0  0  0
 48 49  1  0  0  0  0
 49 50  1  0  0  0  0
 50 51  1  0  0  0  0
 48 52  1  0  0  0  0
 52 53  1  0  0  0  0
 45 54  1  0  0  0  0
 54 55  1  0  0  0  0
 37 56  1  0  0  0  0
 56 57  2  0  0  0  0
 57 58  1  0  0  0  0
 58 59  2  0  0  0  0
 58 60  1  0  0  0  0
 60 61  2  0  0  0  0
 61 62  1  0  0  0  0
 62 63  2  0  0  0  0
 63 64  1  0  0  0  0
 63 65  1  0  0  0  0
 65 66  2  0  0  0  0
 66 67  1  0  0  0  0
 67 68  2  0  0  0  0
 68 69  1  0  0  0  0
 69 70  3  0  0  0  0
 68 71  1  0  0  0  0
 71 72  3  0  0  0  0
 12  2  1  0  0  0  0
 51 18  1  0  0  0  0
 67 57  1  0  0  0  0
 11  5  1  0  0  0  0
 50 22  2  0  0  0  0
 66 60  1  0  0  0  0
 49 24  2  0  0  0  0
 47 25  2  0  0  0  0
 30 26  2  0  0  0  0
 46 31  2  0  0  0  0
 44 32  2  0  0  0  0
 43 34  2  0  0  0  0
 41 35  2  0  0  0  0
  1 73  1  0  0  0  0
  6 74  1  0  0  0  0
  7 75  1  0  0  0  0
 10 76  1  0  0  0  0
 20 77  1  0  0  0  0
 20 78  1  0  0  0  0
 21 79  1  0  0  0  0
 21 80  1  0  0  0  0
 21 81  1  0  0  0  0
 39 82  1  0  0  0  0
 39 83  1  0  0  0  0
 40 84  1  0  0  0  0
 40 85  1  0  0  0  0
 40 86  1  0  0  0  0
 52 87  1  0  0  0  0
 52 88  1  0  0  0  0
 53 89  1  0  0  0  0
 53 90  1  0  0  0  0
 53 91  1  0  0  0  0
 54 92  1  0  0  0  0
 54 93  1  0  0  0  0
 55 94  1  0  0  0  0
 55 95  1  0  0  0  0
 55 96  1  0  0  0  0
 56 97  1  0  0  0  0
 61 98  1  0  0  0  0
 62 99  1  0  0  0  0
 65100  1  0  0  0  0
M  END
