99

C         -0.92430        2.11310       -7.50510
C         -0.07020        2.49610       -8.50190
C         -0.48800        2.32150       -9.91720
O         -1.44870        1.70560      -10.32050
C          0.48350        3.10680      -10.70740
C          0.50760        3.35340      -12.06640
C          1.51940        4.15220      -12.57760
C          2.47400        4.68660      -11.72470
I          3.98870        5.92000      -12.52760
C          2.47030        4.44050      -10.35810
C          1.46490        3.63630       -9.85020
C          1.21690        3.14940       -8.49130
C          2.14810        3.11440       -7.48590
C          3.40320        3.75300       -7.55050
N          4.42680        4.27180       -7.54900
C          2.00540        2.33580       -6.32150
N          1.94140        1.66670       -5.39110
C         -0.92720        2.45430       -6.13920
C         -0.34920        3.52630       -5.44860
O          0.31110        4.57460       -5.99760
C         -0.41220        5.40200       -6.90260
C         -1.50740        6.18440       -6.18990
C         -0.49100        3.39140       -4.06070
S          0.09960        4.34080       -2.72170
C         -0.52630        3.14560       -1.64050
C         -0.53820        2.86000       -0.26550
C         -0.09990        3.59310        0.86040
C         -0.23460        3.01030        2.16610
N          0.17870        3.82170        3.12640
S          0.69520        5.19830        2.44920
N          0.41350        4.81200        0.90420
C         -0.67710        1.67210        2.27430
C         -0.64130        0.76770        3.34520
S         -0.17490        0.73460        5.00510
C         -0.40490       -1.00910        5.02470
C         -0.18340       -2.01700        5.98380
O          0.13870       -1.91320        7.26740
C          0.32150       -0.63880        7.86450
C         -1.00350       -0.00330        8.26730
C         -0.43920       -3.29430        5.45050
S         -1.05380       -3.21140        3.80680
C         -0.84850       -1.50210        3.78890
C         -0.98870       -0.48900        2.83560
N         -1.27260       -0.38680        1.50030
C         -1.09360        0.93160        1.13220
C         -1.15550        1.58600       -0.12300
N         -1.58980        1.15490       -1.36390
C         -1.18080        2.08630       -2.28380
C         -1.17150        2.23060       -3.67200
S         -1.72690        1.33860       -5.03610
C         -2.71570        0.29490       -1.66190
C         -3.95150        1.11140       -2.03940
C         -1.37200       -1.57600        0.68240
C         -2.72270       -2.27240        0.84330
C         -0.30330       -4.55590        6.04510
C          0.61410       -4.90430        7.00640
C          1.87920       -4.18570        7.24560
O          2.27110       -3.16100        6.72900
C          2.65850       -5.06130        8.15470
C          3.92580       -4.85570        8.65870
C          4.47600       -5.83410        9.47900
Cl         6.05010       -5.63680       10.14510
C          3.74030       -6.98700        9.75840
F          4.28010       -7.92910       10.54240
C          2.46770       -7.20230        9.25130
C          1.92080       -6.22280        8.43820
C          0.63240       -6.13900        7.75400
C         -0.39940       -7.03510        7.87380
C         -0.33200       -8.21910        8.63580
N         -0.33150       -9.19940        9.23320
C         -1.66800       -6.87530        7.27900
N         -2.72770       -6.79930        6.84260
H         -1.73190        1.46200       -7.82850
H         -0.24690        2.92830      -12.71000
H          1.56340        4.35940      -13.63560
H          3.22580        4.87190       -9.72170
H         -0.84110        4.81030       -7.72020
H          0.34330        6.07820       -7.30890
H         -2.27010        5.50880       -5.80700
H         -1.97090        6.87810       -6.88520
H         -1.08510        6.74210       -5.35770
H          0.92700       -0.84530        8.75070
H          0.88840        0.01920        7.19930
H         -1.54550       -0.66710        8.93640
H         -0.81250        0.93570        8.77770
H         -1.62150        0.19480        7.39530
H         -2.44320       -0.36780       -2.48940
H         -2.95210       -0.29450       -0.78260
H         -4.79150        0.44140       -2.20030
H         -3.78460        1.67680       -2.95160
H         -4.20460        1.80400       -1.23950
H         -1.17140       -1.31060       -0.35530
H         -0.58610       -2.26680        1.00680
H         -2.79500       -3.09620        0.13940
H         -3.55270       -1.59050        0.67170
H         -2.82040       -2.67170        1.84900
H         -0.94910       -5.32950        5.64580
H          4.47350       -3.95770        8.42120
H          1.95510       -8.11770        9.49820
