218

C          4.85220        2.03240       -9.67320
C          6.14830        2.06580      -10.13310
C          7.37020        1.52590       -9.50390
O          7.48810        0.85220       -8.49920
C          8.49100        1.97590      -10.35570
C          9.84400        1.76080      -10.17990
C         10.72490        2.29300      -11.10860
C         10.23270        3.02170      -12.18090
I         11.59690        3.82450      -13.58050
C          8.87540        3.24110      -12.37290
C          7.99550        2.70820      -11.44470
C          6.53480        2.75020      -11.35380
C          5.71560        3.31460      -12.29840
C          6.18020        3.96830      -13.45980
N          6.48090        4.51820      -14.42160
C          4.30440        3.32360      -12.29290
N          3.16030        3.37520      -12.39070
C          4.26600        1.45220       -8.54000
Se         2.39940        1.79520       -8.26900
C          2.57050        0.79500       -6.73180
C          1.73700        0.40960       -5.63860
C          2.53100       -0.35360       -4.75040
C          3.93780       -0.52200       -5.29190
C          3.86840        0.30840       -6.54880
C          4.78500        0.65190       -7.52470
C          4.92190       -0.01010       -4.25760
C          5.32930        1.31590       -4.24570
C          6.18780        1.77590       -3.26380
C          6.65290        0.92910       -2.26740
C          7.54500        1.43990       -1.17300
C          6.71040        1.88430        0.02970
C          6.23180       -0.39460       -2.27710
C          5.37710       -0.86030       -3.25730
C          4.25930       -1.94690       -5.71340
C          5.56940       -2.27240       -6.04480
C          5.88740       -3.54650       -6.47190
C          4.90920       -4.52720       -6.58320
C          5.25080       -5.89930       -7.08830
C          5.14050       -5.94950       -8.61370
C          3.60140       -4.19230       -6.26230
C          3.27590       -2.91700       -5.83550
C          2.02310       -0.79370       -3.55050
C          0.69870       -0.47380       -3.26630
C         -0.07000       -0.70710       -2.07580
C         -1.32400       -0.16050       -2.22380
C         -1.49180        0.44570       -3.59620
C         -0.11070        0.24140       -4.17710
C          0.40150        0.70240       -5.36600
C         -2.59060       -0.34400       -4.28670
C         -2.33420       -1.23640       -5.31600
C         -3.36980       -1.95110       -5.89210
C         -4.67640       -1.80300       -5.44870
C         -5.80170       -2.54570       -6.10910
C         -6.37080       -1.72870       -7.27110
C         -4.92410       -0.91520       -4.40860
C         -3.89620       -0.19650       -3.83150
C         -1.81240        1.92840       -3.56550
C         -2.44230        2.52570       -4.64970
C         -2.70260        3.88280       -4.64730
C         -2.34310        4.67680       -3.56590
C         -2.59200        6.15730       -3.58340
C         -1.40910        6.88980       -4.22020
C         -1.70320        4.07570       -2.49060
C         -1.43470        2.71950       -2.48940
C         -2.15040       -0.14230       -1.12680
S          0.49090       -0.42970        0.99150
C         -1.01040       -0.54710        1.89940
C         -1.05500       -0.62680        3.33490
C         -0.01790       -0.77700        4.25160
C         -0.34820       -0.73640        5.58570
C          0.57030       -0.85470        6.78850
C          1.58700        0.26840        6.89850
C          1.42150        1.46690        6.22030
C          2.33560        2.49200        6.38120
C          3.42790        2.35150        7.22570
C          4.38760        3.48650        7.43610
C          3.90910        4.37780        8.58400
C          3.57960        1.15460        7.91410
C          2.67060        0.12660        7.75660
C          1.23240       -2.21980        6.73970
C          0.67830       -3.31500        7.38680
C          1.27410       -4.55970        7.29420
C          2.42750       -4.74580        6.54480
C          3.10010       -6.08670        6.48610
C          4.12180       -6.22030        7.61720
C          2.97140       -3.64840        5.88930
C          2.38230       -2.40230        5.98110
C         -0.40990       -0.68830        7.92230
C         -1.69660       -0.50620        7.41990
C         -1.69050       -0.55420        5.99400
C         -2.73030       -0.42450        5.07530
C         -2.39790       -0.47100        3.74260
C         -3.29240       -0.30730        2.53530
C         -4.26080       -1.45260        2.30210
C         -4.24530       -2.61000        3.06500
C         -5.13260       -3.63600        2.79120
C         -6.04520       -3.53590        1.75070
C         -6.97600       -4.66980        1.43090
C         -6.33050       -5.62250        0.42250
C         -6.04310       -2.37990        0.97930
C         -5.16300       -1.35120        1.24890
C         -4.02320        1.02010        2.63410
C         -5.23980        1.09270        3.30020
C         -5.89240        2.30310        3.43520
C         -5.35090        3.46910        2.90900
C         -6.04010        4.78920        3.09720
C         -5.59150        5.44110        4.40680
C         -4.13180        3.39040        2.24990
C         -3.47080        2.18330        2.11660
C         -2.28070       -0.33730        1.41420
C         -2.44880       -0.23470        0.05530
S          0.46850       -1.64700       -0.69070
Se        -2.94530       -0.21600        8.74480
C         -1.49400       -0.36410        9.96780
C         -0.30080       -0.63740        9.30190
C         -1.62980       -0.32700       11.36790
C         -2.65450        0.15460       12.13630
C         -2.83780       -0.35100       13.51670
O         -2.05590       -1.00480       14.16830
C         -4.20930        0.06630       13.89910
C         -4.92030       -0.24680       15.03920
C         -6.21640        0.24100       15.16330
Cl        -7.15690       -0.11500       16.55900
C         -6.75630        1.02570       14.14200
F         -8.01060        1.47770       14.26280
C         -6.04410        1.35600       12.99910
C         -4.75380        0.86840       12.88000
C         -3.74100        1.05910       11.84310
C         -3.70670        2.11400       10.96400
C         -2.55990        2.45060       10.21570
N         -1.62940        2.77750        9.62700
C         -4.76560        3.02550       10.78770
N         -5.60860        3.77980       10.59200
H          4.13770        2.57570      -10.28310
H         10.19820        1.19300       -9.33340
H         11.78780        2.14410      -10.99720
H          8.53380        3.81350      -13.21920
H          5.81900        0.35660       -7.51650
H          4.97950        1.99600       -5.00890
H          6.50150        2.81010       -3.27450
H          8.13230        2.28520       -1.53680
H          8.23500        0.65340       -0.86060
H          7.35400        2.25250        0.82540
H          6.02480        2.67790       -0.25890
H          6.12490        1.05170        0.41280
H          6.57990       -1.07040       -1.50900
H          5.07070       -1.89650       -3.25320
H          6.34500       -1.52590       -5.95790
H          6.91160       -3.78390       -6.72140
H          6.26920       -6.15940       -6.79280
H          4.57000       -6.63430       -6.65390
H          4.12790       -5.70640       -8.92810
H          5.38980       -6.94230       -8.98100
H          5.82010       -5.23030       -9.06570
H          2.82390       -4.93860       -6.34440
H          2.24970       -2.68320       -5.59180
H          2.61920       -1.34890       -2.84340
H         -0.18860        1.28210       -6.06120
H         -1.32540       -1.37540       -5.67590
H         -3.15500       -2.63860       -6.69780
H         -5.44180       -3.50500       -6.48630
H         -6.59420       -2.73900       -5.38340
H         -7.18720       -2.26470       -7.74930
H         -5.59880       -1.53790       -8.01320
H         -6.74520       -0.77210       -6.91340
H         -5.93360       -0.78810       -4.04450
H         -4.10540        0.48970       -3.02290
H         -2.74040        1.92330       -5.49600
H         -3.19670        4.33130       -5.49740
H         -2.73340        6.52100       -2.56370
H         -3.49800        6.37430       -4.15280
H         -0.49760        6.69550       -3.65940
H         -1.25970        6.55050       -5.24280
H         -1.58800        7.96240       -4.23270
H         -1.41030        4.67540       -1.64050
H         -0.93070        2.27760       -1.64180
H          0.99920       -0.89740        3.91390
H          0.57650        1.60450        5.56180
H          2.19490        3.41720        5.84100
H          5.37970        3.09590        7.67200
H          4.46220        4.08250        6.52430
H          2.92270        4.77940        8.36420
H          4.59740        5.20590        8.73620
H          3.84470        3.80460        9.50610
H          4.41980        1.02570        8.58170
H          2.80900       -0.79960        8.29610
H         -0.22310       -3.19860        7.97130
H          0.83210       -5.40010        7.81050
H          2.35530       -6.87970        6.57850
H          3.60790       -6.20420        5.52680
H          3.63220       -6.11800        8.58320
H          4.61050       -7.19090        7.57650
H          4.88060       -5.44520        7.53480
H          3.86690       -3.77140        5.29710
H          2.82670       -1.56030        5.47080
H         -3.74710       -0.28040        5.41180
H         -3.54230       -2.71530        3.87850
H         -5.11370       -4.52900        3.39980
H         -7.90540       -4.27860        1.01200
H         -7.21670       -5.22010        2.34260
H         -7.00460       -6.44340        0.18920
H         -6.09240       -5.09470       -0.49830
H         -5.40860       -6.03380        0.82750
H         -6.74070       -2.28410        0.15960
H         -5.17650       -0.45660        0.64230
H         -5.68440        0.19480        3.70530
H         -6.83910        2.34240        3.95470
H         -5.80220        5.45330        2.26390
H         -7.12180        4.64310        3.12020
H         -6.08720        6.39910        4.54420
H         -5.83350        4.80090        5.25190
H         -4.51600        5.60340        4.39980
H         -3.69190        4.28530        1.83320
H         -2.52080        2.15040        1.60270
H          0.62610       -0.75510        9.83680
H         -0.84500       -0.83070       11.92650
H         -4.47960       -0.85350       15.81410
H         -6.51410        1.96460       12.24350
