
  xtb     02012217053D
 energy: -179.608009243084 gnorm: 0.000682234387 xtb: 6.4.1 (unknown)
 94105  0     0  0            999 V2000
   -3.1917    1.1748    6.7344 C   0  0  0  0  0  0  0  0  0  0  0  0
   -4.4092    0.5364    6.6562 C   0  0  0  0  0  0  0  0  0  0  0  0
   -5.0442    0.0291    5.4398 C   0  0  0  0  0  0  0  0  0  0  0  0
   -4.6321    0.0971    4.2934 O   0  0  0  0  0  0  0  0  0  0  0  0
   -6.3127   -0.5898    5.8667 C   0  0  0  0  0  0  0  0  0  0  0  0
   -7.2723   -1.2209    5.1002 C   0  0  0  0  0  0  0  0  0  0  0  0
   -8.3913   -1.7375    5.7357 C   0  0  0  0  0  0  0  0  0  0  0  0
   -8.5200   -1.6106    7.1106 C   0  0  0  0  0  0  0  0  0  0  0  0
  -10.2321   -2.4114    8.0541 I   0  0  0  0  0  0  0  0  0  0  0  0
   -7.5637   -0.9763    7.8934 C   0  0  0  0  0  0  0  0  0  0  0  0
   -6.4467   -0.4591    7.2591 C   0  0  0  0  0  0  0  0  0  0  0  0
   -5.2752    0.2506    7.7806 C   0  0  0  0  0  0  0  0  0  0  0  0
   -5.0736    0.5699    9.0993 C   0  0  0  0  0  0  0  0  0  0  0  0
   -5.9799    0.2612   10.1359 C   0  0  0  0  0  0  0  0  0  0  0  0
   -6.6710    0.0418   11.0259 N   0  0  0  0  0  0  0  0  0  0  0  0
   -3.9541    1.2488    9.6234 C   0  0  0  0  0  0  0  0  0  0  0  0
   -3.0765    1.7916   10.1292 N   0  0  0  0  0  0  0  0  0  0  0  0
   -2.2557    1.4842    5.7469 C   0  0  0  0  0  0  0  0  0  0  0  0
   -1.0248    2.1113    6.0228 C   0  0  0  0  0  0  0  0  0  0  0  0
   -0.5323    2.5069    7.3760 C   0  0  0  0  0  0  0  0  0  0  0  0
    0.1199    1.3172    8.0863 C   0  0  0  0  0  0  0  0  0  0  0  0
   -0.2668    2.2644    4.8717 C   0  0  0  0  0  0  0  0  0  0  0  0
    1.3403    2.9113    4.5912 S   0  0  0  0  0  0  0  0  0  0  0  0
    1.1715    2.5222    2.9143 C   0  0  0  0  0  0  0  0  0  0  0  0
    1.9421    2.5221    1.7440 C   0  0  0  0  0  0  0  0  0  0  0  0
    3.3130    2.7877    1.5194 C   0  0  0  0  0  0  0  0  0  0  0  0
    3.8934    2.4341    0.2535 C   0  0  0  0  0  0  0  0  0  0  0  0
    5.1981    2.6524    0.2190 N   0  0  0  0  0  0  0  0  0  0  0  0
    5.6574    3.2587    1.6473 S   0  0  0  0  0  0  0  0  0  0  0  0
    4.2093    3.2603    2.3701 N   0  0  0  0  0  0  0  0  0  0  0  0
    3.0521    1.9613   -0.7794 C   0  0  0  0  0  0  0  0  0  0  0  0
    3.3067    1.5799   -2.1072 C   0  0  0  0  0  0  0  0  0  0  0  0
    4.6460    1.3350   -3.1715 S   0  0  0  0  0  0  0  0  0  0  0  0
    3.5380    0.8405   -4.4340 C   0  0  0  0  0  0  0  0  0  0  0  0
    3.7264    0.3413   -5.7320 C   0  0  0  0  0  0  0  0  0  0  0  0
    5.0419    0.2981   -6.4331 C   0  0  0  0  0  0  0  0  0  0  0  0
    5.8039    1.6176   -6.3255 C   0  0  0  0  0  0  0  0  0  0  0  0
    2.5106    0.0050   -6.3145 C   0  0  0  0  0  0  0  0  0  0  0  0
    1.1327    0.3968   -5.2830 S   0  0  0  0  0  0  0  0  0  0  0  0
    2.1973    0.9001   -4.0288 C   0  0  0  0  0  0  0  0  0  0  0  0
    2.0679    1.3122   -2.7010 C   0  0  0  0  0  0  0  0  0  0  0  0
    1.0568    1.4977   -1.7932 N   0  0  0  0  0  0  0  0  0  0  0  0
    1.6459    1.8558   -0.5928 C   0  0  0  0  0  0  0  0  0  0  0  0
    1.1133    1.9934    0.7117 C   0  0  0  0  0  0  0  0  0  0  0  0
   -0.1031    1.6421    1.2559 N   0  0  0  0  0  0  0  0  0  0  0  0
   -0.0694    1.9545    2.5889 C   0  0  0  0  0  0  0  0  0  0  0  0
   -0.8919    1.7884    3.7042 C   0  0  0  0  0  0  0  0  0  0  0  0
   -2.4450    1.1211    4.0296 S   0  0  0  0  0  0  0  0  0  0  0  0
   -1.1409    0.7798    0.7340 C   0  0  0  0  0  0  0  0  0  0  0  0
   -2.4646    1.5195    0.5390 C   0  0  0  0  0  0  0  0  0  0  0  0
   -0.2689    1.8368   -2.2669 C   0  0  0  0  0  0  0  0  0  0  0  0
   -0.2456    3.1122   -3.1093 C   0  0  0  0  0  0  0  0  0  0  0  0
    2.2006   -0.5591   -7.5729 C   0  0  0  0  0  0  0  0  0  0  0  0
    2.9020   -1.5290   -8.2297 C   0  0  0  0  0  0  0  0  0  0  0  0
    3.9011   -2.4316   -7.5907 C   0  0  0  0  0  0  0  0  0  0  0  0
    4.3165   -2.3966   -6.4528 O   0  0  0  0  0  0  0  0  0  0  0  0
    4.1704   -3.4364   -8.6177 C   0  0  0  0  0  0  0  0  0  0  0  0
    5.1423   -4.8397   -8.7358 S   0  0  0  0  0  0  0  0  0  0  0  0
    4.5381   -5.1081  -10.3493 C   0  0  0  0  0  0  0  0  0  0  0  0
    5.0820   -6.4458  -11.2513 Cl  0  0  0  0  0  0  0  0  0  0  0  0
    3.6359   -4.1679  -10.7675 C   0  0  0  0  0  0  0  0  0  0  0  0
    3.4230   -3.2063   -9.7637 C   0  0  0  0  0  0  0  0  0  0  0  0
    2.6233   -2.0121   -9.5709 C   0  0  0  0  0  0  0  0  0  0  0  0
    1.8126   -1.4461  -10.5184 C   0  0  0  0  0  0  0  0  0  0  0  0
    1.0897   -0.2471  -10.3581 C   0  0  0  0  0  0  0  0  0  0  0  0
    0.4868    0.7281  -10.2962 N   0  0  0  0  0  0  0  0  0  0  0  0
    1.6402   -2.0294  -11.7915 C   0  0  0  0  0  0  0  0  0  0  0  0
    1.4845   -2.4917  -12.8299 N   0  0  0  0  0  0  0  0  0  0  0  0
   -2.8865    1.4843    7.7245 H   0  0  0  0  0  0  0  0  0  0  0  0
   -7.1461   -1.3071    4.0321 H   0  0  0  0  0  0  0  0  0  0  0  0
   -9.1578   -2.2371    5.1639 H   0  0  0  0  0  0  0  0  0  0  0  0
   -7.7006   -0.8983    8.9592 H   0  0  0  0  0  0  0  0  0  0  0  0
   -1.3445    2.8955    7.9919 H   0  0  0  0  0  0  0  0  0  0  0  0
    0.2109    3.2967    7.2508 H   0  0  0  0  0  0  0  0  0  0  0  0
    0.9629    0.9470    7.5076 H   0  0  0  0  0  0  0  0  0  0  0  0
    0.4753    1.6241    9.0655 H   0  0  0  0  0  0  0  0  0  0  0  0
   -0.5944    0.5078    8.2179 H   0  0  0  0  0  0  0  0  0  0  0  0
    4.8781    0.0591   -7.4854 H   0  0  0  0  0  0  0  0  0  0  0  0
    5.6376   -0.5099   -5.9990 H   0  0  0  0  0  0  0  0  0  0  0  0
    5.1998    2.4381   -6.7070 H   0  0  0  0  0  0  0  0  0  0  0  0
    6.0750    1.8336   -5.2962 H   0  0  0  0  0  0  0  0  0  0  0  0
    6.7162    1.5591   -6.9135 H   0  0  0  0  0  0  0  0  0  0  0  0
   -0.7880    0.3242   -0.1916 H   0  0  0  0  0  0  0  0  0  0  0  0
   -1.3005   -0.0240    1.4612 H   0  0  0  0  0  0  0  0  0  0  0  0
   -3.1588    0.8879   -0.0077 H   0  0  0  0  0  0  0  0  0  0  0  0
   -2.3304    2.4509   -0.0071 H   0  0  0  0  0  0  0  0  0  0  0  0
   -2.9073    1.7562    1.5022 H   0  0  0  0  0  0  0  0  0  0  0  0
   -0.6468    1.0028   -2.8664 H   0  0  0  0  0  0  0  0  0  0  0  0
   -0.9217    1.9994   -1.4170 H   0  0  0  0  0  0  0  0  0  0  0  0
    0.3515    2.9791   -4.0068 H   0  0  0  0  0  0  0  0  0  0  0  0
    0.1694    3.9366   -2.5329 H   0  0  0  0  0  0  0  0  0  0  0  0
   -1.2587    3.3684   -3.4063 H   0  0  0  0  0  0  0  0  0  0  0  0
    1.2673   -0.2225   -8.0105 H   0  0  0  0  0  0  0  0  0  0  0  0
    3.1634   -4.1836  -11.7316 H   0  0  0  0  0  0  0  0  0  0  0  0
  1  2  2  0  0  0  0
  2  3  1  0  0  0  0
  3  4  2  0  0  0  0
  3  5  1  0  0  0  0
  5  6  2  0  0  0  0
  6  7  1  0  0  0  0
  7  8  2  0  0  0  0
  8  9  1  0  0  0  0
  8 10  1  0  0  0  0
 10 11  2  0  0  0  0
 11 12  1  0  0  0  0
 12 13  2  0  0  0  0
 13 14  1  0  0  0  0
 14 15  3  0  0  0  0
 13 16  1  0  0  0  0
 16 17  3  0  0  0  0
  1 18  1  0  0  0  0
 18 19  2  0  0  0  0
 19 20  1  0  0  0  0
 20 21  1  0  0  0  0
 19 22  1  0  0  0  0
 22 23  1  0  0  0  0
 23 24  1  0  0  0  0
 24 25  1  0  0  0  0
 25 26  1  0  0  0  0
 26 27  1  0  0  0  0
 27 28  2  0  0  0  0
 28 29  1  0  0  0  0
 29 30  1  0  0  0  0
 27 31  1  0  0  0  0
 31 32  1  0  0  0  0
 32 33  1  0  0  0  0
 33 34  1  0  0  0  0
 34 35  1  0  0  0  0
 35 36  1  0  0  0  0
 36 37  1  0  0  0  0
 35 38  2  0  0  0  0
 38 39  1  0  0  0  0
 39 40  1  0  0  0  0
 40 41  1  0  0  0  0
 41 42  1  0  0  0  0
 42 43  1  0  0  0  0
 43 44  1  0  0  0  0
 44 45  1  0  0  0  0
 45 46  1  0  0  0  0
 46 47  1  0  0  0  0
 47 48  1  0  0  0  0
 45 49  1  0  0  0  0
 49 50  1  0  0  0  0
 42 51  1  0  0  0  0
 51 52  1  0  0  0  0
 38 53  1  0  0  0  0
 53 54  2  0  0  0  0
 54 55  1  0  0  0  0
 55 56  2  0  0  0  0
 55 57  1  0  0  0  0
 57 58  1  0  0  0  0
 58 59  1  0  0  0  0
 59 60  1  0  0  0  0
 59 61  2  0  0  0  0
 61 62  1  0  0  0  0
 62 63  1  0  0  0  0
 63 64  2  0  0  0  0
 64 65  1  0  0  0  0
 65 66  3  0  0  0  0
 64 67  1  0  0  0  0
 67 68  3  0  0  0  0
 12  2  1  0  0  0  0
 48 18  1  0  0  0  0
 63 54  1  0  0  0  0
 11  5  1  0  0  0  0
 47 22  2  0  0  0  0
 62 57  2  0  0  0  0
 46 24  2  0  0  0  0
 44 25  2  0  0  0  0
 30 26  2  0  0  0  0
 43 31  2  0  0  0  0
 41 32  2  0  0  0  0
 40 34  2  0  0  0  0
  1 69  1  0  0  0  0
  6 70  1  0  0  0  0
  7 71  1  0  0  0  0
 10 72  1  0  0  0  0
 20 73  1  0  0  0  0
 20 74  1  0  0  0  0
 21 75  1  0  0  0  0
 21 76  1  0  0  0  0
 21 77  1  0  0  0  0
 36 78  1  0  0  0  0
 36 79  1  0  0  0  0
 37 80  1  0  0  0  0
 37 81  1  0  0  0  0
 37 82  1  0  0  0  0
 49 83  1  0  0  0  0
 49 84  1  0  0  0  0
 50 85  1  0  0  0  0
 50 86  1  0  0  0  0
 50 87  1  0  0  0  0
 51 88  1  0  0  0  0
 51 89  1  0  0  0  0
 52 90  1  0  0  0  0
 52 91  1  0  0  0  0
 52 92  1  0  0  0  0
 53 93  1  0  0  0  0
 61 94  1  0  0  0  0
M  END
