100

C          3.02020        0.47390       -7.75380
C          1.87520        0.42190       -8.51620
C          0.50890        0.27560       -8.01410
O          0.14080        0.19880       -6.85360
C         -0.36180        0.23210       -9.20390
C         -1.73380        0.09220       -9.27230
C         -2.33510        0.07400      -10.52180
C         -1.55450        0.19560      -11.66160
I         -2.49680        0.16630      -13.55200
C         -0.17380        0.33740      -11.60770
C          0.42700        0.35470      -10.36020
C          1.83160        0.48190       -9.96170
C          2.88370        0.63380      -10.82870
C          4.24010        0.76740      -10.46620
N          5.36440        0.88500      -10.25940
C          2.75270        0.68340      -12.23270
N          2.71770        0.73210      -13.37900
C          3.20440        0.42170       -6.37170
C          4.47500        0.47860       -5.76720
C          5.77470        0.65670       -6.48090
C          6.03060        2.13570       -6.78450
C          4.38150        0.40280       -4.38600
S          5.59810        0.40370       -3.12170
C          4.33400        0.24550       -1.95340
C          4.18510        0.11060       -0.56850
C          5.15170       -0.03670        0.45090
C          4.71010       -0.29660        1.78840
N          5.71710       -0.46920        2.62980
S          7.10340       -0.31340        1.80840
N          6.47110       -0.02030        0.34720
C          3.32440       -0.28200        2.06190
C          2.63390       -0.37690        3.27720
S          2.96540       -0.64750        4.95120
C          1.26290       -0.44420        5.29240
C          0.53300       -0.47240        6.48490
C          1.12380       -0.80770        7.81210
C          0.85770       -2.27540        8.15580
C         -0.82030       -0.25810        6.25760
S         -1.16900        0.02230        4.55100
C          0.49540       -0.18220        4.15030
C          1.28100       -0.15450        2.99470
N          1.10770        0.03570        1.65120
C          2.35170       -0.04720        1.04630
C          2.78380        0.03750       -0.30470
N          2.11370        0.08920       -1.51400
C          3.04820        0.20810       -2.50800
C          3.06480        0.28860       -3.90260
S          1.90880        0.27170       -5.18030
C          0.76170       -0.29690       -1.85550
C          0.47370       -1.74100       -1.45360
C         -0.13380        0.59360        1.16420
C          0.04120        2.04390        0.72100
C         -1.82680       -0.15300        7.24180
C         -3.17780       -0.24140        7.10180
C         -4.07320        0.37800        8.11690
O         -3.75750        0.76790        9.21860
C         -5.39080        0.46210        7.45900
C         -6.55710        1.05640        7.90150
C         -7.67160        1.01370        7.07880
C         -7.63190        0.39410        5.83080
C         -8.84340        0.39090        4.95370
C         -6.45360       -0.20790        5.39180
C         -5.33620       -0.17680        6.20580
C         -4.00650       -0.75690        6.03590
C         -3.68980       -1.80260        5.20800
C         -4.55080       -2.31520        4.21940
N         -5.20260       -2.74830        3.37880
C         -2.48890       -2.53230        5.32880
N         -1.54480       -3.17530        5.44520
H          3.94640        0.56670       -8.30410
H         -2.31710       -0.00170       -8.36950
H         -3.40510       -0.03550      -10.60750
H          0.39800        0.42840      -12.51630
H          5.79420        0.08800       -7.41160
H          6.57170        0.28310       -5.83490
H          6.98490        2.24640       -7.29090
H          5.25170        2.53800       -7.42800
H          6.05360        2.71260       -5.86290
H          2.20030       -0.63140        7.76990
H          0.69560       -0.16900        8.58760
H         -0.21150       -2.46750        8.20240
H          1.28600       -2.92380        7.39580
H          1.30230       -2.52040        9.11660
H          0.04180        0.39510       -1.41820
H          0.67750       -0.20260       -2.94080
H          0.61560       -1.89290       -0.38610
H         -0.54930       -1.99920       -1.71290
H          1.14390       -2.41380       -1.98360
H         -0.83930        0.55470        1.99790
H         -0.54760       -0.02510        0.36780
H         -0.90200        2.43370        0.34780
H          0.79230        2.12990       -0.06080
H          0.35830        2.65390        1.56380
H         -1.48520        0.12570        8.23460
H         -6.58870        1.53520        8.86800
H         -8.59430        1.46900        7.40790
H         -8.88730        1.31900        4.38260
H         -9.75210        0.32080        5.54690
H         -8.81130       -0.43710        4.25020
H         -6.42390       -0.68180        4.42300
