
  xtb     02012216523D
 energy: -180.805586371357 gnorm: 0.000589695207 xtb: 6.4.1 (unknown)
100111  0     0  0            999 V2000
    3.0202    0.4739   -7.7538 C   0  0  0  0  0  0  0  0  0  0  0  0
    1.8752    0.4219   -8.5162 C   0  0  0  0  0  0  0  0  0  0  0  0
    0.5089    0.2756   -8.0141 C   0  0  0  0  0  0  0  0  0  0  0  0
    0.1408    0.1988   -6.8536 O   0  0  0  0  0  0  0  0  0  0  0  0
   -0.3618    0.2321   -9.2039 C   0  0  0  0  0  0  0  0  0  0  0  0
   -1.7338    0.0922   -9.2723 C   0  0  0  0  0  0  0  0  0  0  0  0
   -2.3351    0.0740  -10.5218 C   0  0  0  0  0  0  0  0  0  0  0  0
   -1.5545    0.1956  -11.6616 C   0  0  0  0  0  0  0  0  0  0  0  0
   -2.4968    0.1663  -13.5520 I   0  0  0  0  0  0  0  0  0  0  0  0
   -0.1738    0.3374  -11.6077 C   0  0  0  0  0  0  0  0  0  0  0  0
    0.4270    0.3547  -10.3602 C   0  0  0  0  0  0  0  0  0  0  0  0
    1.8316    0.4819   -9.9617 C   0  0  0  0  0  0  0  0  0  0  0  0
    2.8837    0.6338  -10.8287 C   0  0  0  0  0  0  0  0  0  0  0  0
    4.2401    0.7674  -10.4662 C   0  0  0  0  0  0  0  0  0  0  0  0
    5.3644    0.8850  -10.2594 N   0  0  0  0  0  0  0  0  0  0  0  0
    2.7527    0.6834  -12.2327 C   0  0  0  0  0  0  0  0  0  0  0  0
    2.7177    0.7321  -13.3790 N   0  0  0  0  0  0  0  0  0  0  0  0
    3.2044    0.4217   -6.3717 C   0  0  0  0  0  0  0  0  0  0  0  0
    4.4750    0.4786   -5.7672 C   0  0  0  0  0  0  0  0  0  0  0  0
    5.7747    0.6567   -6.4809 C   0  0  0  0  0  0  0  0  0  0  0  0
    6.0306    2.1357   -6.7845 C   0  0  0  0  0  0  0  0  0  0  0  0
    4.3815    0.4028   -4.3860 C   0  0  0  0  0  0  0  0  0  0  0  0
    5.5981    0.4037   -3.1217 S   0  0  0  0  0  0  0  0  0  0  0  0
    4.3340    0.2455   -1.9534 C   0  0  0  0  0  0  0  0  0  0  0  0
    4.1851    0.1106   -0.5685 C   0  0  0  0  0  0  0  0  0  0  0  0
    5.1517   -0.0367    0.4509 C   0  0  0  0  0  0  0  0  0  0  0  0
    4.7101   -0.2966    1.7884 C   0  0  0  0  0  0  0  0  0  0  0  0
    5.7171   -0.4692    2.6298 N   0  0  0  0  0  0  0  0  0  0  0  0
    7.1034   -0.3134    1.8084 S   0  0  0  0  0  0  0  0  0  0  0  0
    6.4711   -0.0203    0.3472 N   0  0  0  0  0  0  0  0  0  0  0  0
    3.3244   -0.2820    2.0619 C   0  0  0  0  0  0  0  0  0  0  0  0
    2.6339   -0.3769    3.2772 C   0  0  0  0  0  0  0  0  0  0  0  0
    2.9654   -0.6475    4.9512 S   0  0  0  0  0  0  0  0  0  0  0  0
    1.2629   -0.4442    5.2924 C   0  0  0  0  0  0  0  0  0  0  0  0
    0.5330   -0.4724    6.4849 C   0  0  0  0  0  0  0  0  0  0  0  0
    1.1238   -0.8077    7.8121 C   0  0  0  0  0  0  0  0  0  0  0  0
    0.8577   -2.2754    8.1558 C   0  0  0  0  0  0  0  0  0  0  0  0
   -0.8203   -0.2581    6.2576 C   0  0  0  0  0  0  0  0  0  0  0  0
   -1.1690    0.0223    4.5510 S   0  0  0  0  0  0  0  0  0  0  0  0
    0.4954   -0.1822    4.1503 C   0  0  0  0  0  0  0  0  0  0  0  0
    1.2810   -0.1545    2.9947 C   0  0  0  0  0  0  0  0  0  0  0  0
    1.1077    0.0357    1.6512 N   0  0  0  0  0  0  0  0  0  0  0  0
    2.3517   -0.0472    1.0463 C   0  0  0  0  0  0  0  0  0  0  0  0
    2.7838    0.0375   -0.3047 C   0  0  0  0  0  0  0  0  0  0  0  0
    2.1137    0.0892   -1.5140 N   0  0  0  0  0  0  0  0  0  0  0  0
    3.0482    0.2081   -2.5080 C   0  0  0  0  0  0  0  0  0  0  0  0
    3.0648    0.2886   -3.9026 C   0  0  0  0  0  0  0  0  0  0  0  0
    1.9088    0.2717   -5.1803 S   0  0  0  0  0  0  0  0  0  0  0  0
    0.7617   -0.2969   -1.8555 C   0  0  0  0  0  0  0  0  0  0  0  0
    0.4737   -1.7410   -1.4536 C   0  0  0  0  0  0  0  0  0  0  0  0
   -0.1338    0.5936    1.1642 C   0  0  0  0  0  0  0  0  0  0  0  0
    0.0412    2.0439    0.7210 C   0  0  0  0  0  0  0  0  0  0  0  0
   -1.8268   -0.1530    7.2418 C   0  0  0  0  0  0  0  0  0  0  0  0
   -3.1778   -0.2414    7.1018 C   0  0  0  0  0  0  0  0  0  0  0  0
   -4.0732    0.3780    8.1169 C   0  0  0  0  0  0  0  0  0  0  0  0
   -3.7575    0.7679    9.2186 O   0  0  0  0  0  0  0  0  0  0  0  0
   -5.3908    0.4621    7.4590 C   0  0  0  0  0  0  0  0  0  0  0  0
   -6.5571    1.0564    7.9015 C   0  0  0  0  0  0  0  0  0  0  0  0
   -7.6716    1.0137    7.0788 C   0  0  0  0  0  0  0  0  0  0  0  0
   -7.6319    0.3941    5.8308 C   0  0  0  0  0  0  0  0  0  0  0  0
   -8.8434    0.3909    4.9537 C   0  0  0  0  0  0  0  0  0  0  0  0
   -6.4536   -0.2079    5.3918 C   0  0  0  0  0  0  0  0  0  0  0  0
   -5.3362   -0.1768    6.2058 C   0  0  0  0  0  0  0  0  0  0  0  0
   -4.0065   -0.7569    6.0359 C   0  0  0  0  0  0  0  0  0  0  0  0
   -3.6898   -1.8026    5.2080 C   0  0  0  0  0  0  0  0  0  0  0  0
   -4.5508   -2.3152    4.2194 C   0  0  0  0  0  0  0  0  0  0  0  0
   -5.2026   -2.7483    3.3788 N   0  0  0  0  0  0  0  0  0  0  0  0
   -2.4889   -2.5323    5.3288 C   0  0  0  0  0  0  0  0  0  0  0  0
   -1.5448   -3.1753    5.4452 N   0  0  0  0  0  0  0  0  0  0  0  0
    3.9464    0.5667   -8.3041 H   0  0  0  0  0  0  0  0  0  0  0  0
   -2.3171   -0.0017   -8.3695 H   0  0  0  0  0  0  0  0  0  0  0  0
   -3.4051   -0.0355  -10.6075 H   0  0  0  0  0  0  0  0  0  0  0  0
    0.3980    0.4284  -12.5163 H   0  0  0  0  0  0  0  0  0  0  0  0
    5.7942    0.0880   -7.4116 H   0  0  0  0  0  0  0  0  0  0  0  0
    6.5717    0.2831   -5.8349 H   0  0  0  0  0  0  0  0  0  0  0  0
    6.9849    2.2464   -7.2909 H   0  0  0  0  0  0  0  0  0  0  0  0
    5.2517    2.5380   -7.4280 H   0  0  0  0  0  0  0  0  0  0  0  0
    6.0536    2.7126   -5.8629 H   0  0  0  0  0  0  0  0  0  0  0  0
    2.2003   -0.6314    7.7699 H   0  0  0  0  0  0  0  0  0  0  0  0
    0.6956   -0.1690    8.5876 H   0  0  0  0  0  0  0  0  0  0  0  0
   -0.2115   -2.4675    8.2024 H   0  0  0  0  0  0  0  0  0  0  0  0
    1.2860   -2.9238    7.3958 H   0  0  0  0  0  0  0  0  0  0  0  0
    1.3023   -2.5204    9.1166 H   0  0  0  0  0  0  0  0  0  0  0  0
    0.0418    0.3951   -1.4182 H   0  0  0  0  0  0  0  0  0  0  0  0
    0.6775   -0.2026   -2.9408 H   0  0  0  0  0  0  0  0  0  0  0  0
    0.6156   -1.8929   -0.3861 H   0  0  0  0  0  0  0  0  0  0  0  0
   -0.5493   -1.9992   -1.7129 H   0  0  0  0  0  0  0  0  0  0  0  0
    1.1439   -2.4138   -1.9836 H   0  0  0  0  0  0  0  0  0  0  0  0
   -0.8393    0.5547    1.9979 H   0  0  0  0  0  0  0  0  0  0  0  0
   -0.5476   -0.0251    0.3678 H   0  0  0  0  0  0  0  0  0  0  0  0
   -0.9020    2.4337    0.3478 H   0  0  0  0  0  0  0  0  0  0  0  0
    0.7923    2.1299   -0.0608 H   0  0  0  0  0  0  0  0  0  0  0  0
    0.3583    2.6539    1.5638 H   0  0  0  0  0  0  0  0  0  0  0  0
   -1.4852    0.1257    8.2346 H   0  0  0  0  0  0  0  0  0  0  0  0
   -6.5887    1.5352    8.8680 H   0  0  0  0  0  0  0  0  0  0  0  0
   -8.5943    1.4690    7.4079 H   0  0  0  0  0  0  0  0  0  0  0  0
   -8.8873    1.3190    4.3826 H   0  0  0  0  0  0  0  0  0  0  0  0
   -9.7521    0.3208    5.5469 H   0  0  0  0  0  0  0  0  0  0  0  0
   -8.8113   -0.4371    4.2502 H   0  0  0  0  0  0  0  0  0  0  0  0
   -6.4239   -0.6818    4.4230 H   0  0  0  0  0  0  0  0  0  0  0  0
  1  2  2  0  0  0  0
  2  3  1  0  0  0  0
  3  4  2  0  0  0  0
  3  5  1  0  0  0  0
  5  6  2  0  0  0  0
  6  7  1  0  0  0  0
  7  8  2  0  0  0  0
  8  9  1  0  0  0  0
  8 10  1  0  0  0  0
 10 11  2  0  0  0  0
 11 12  1  0  0  0  0
 12 13  2  0  0  0  0
 13 14  1  0  0  0  0
 14 15  3  0  0  0  0
 13 16  1  0  0  0  0
 16 17  3  0  0  0  0
  1 18  1  0  0  0  0
 18 19  2  0  0  0  0
 19 20  1  0  0  0  0
 20 21  1  0  0  0  0
 19 22  1  0  0  0  0
 22 23  1  0  0  0  0
 23 24  1  0  0  0  0
 24 25  1  0  0  0  0
 25 26  1  0  0  0  0
 26 27  1  0  0  0  0
 27 28  2  0  0  0  0
 28 29  1  0  0  0  0
 29 30  1  0  0  0  0
 27 31  1  0  0  0  0
 31 32  1  0  0  0  0
 32 33  1  0  0  0  0
 33 34  1  0  0  0  0
 34 35  1  0  0  0  0
 35 36  1  0  0  0  0
 36 37  1  0  0  0  0
 35 38  2  0  0  0  0
 38 39  1  0  0  0  0
 39 40  1  0  0  0  0
 40 41  1  0  0  0  0
 41 42  1  0  0  0  0
 42 43  1  0  0  0  0
 43 44  1  0  0  0  0
 44 45  1  0  0  0  0
 45 46  1  0  0  0  0
 46 47  1  0  0  0  0
 47 48  1  0  0  0  0
 45 49  1  0  0  0  0
 49 50  1  0  0  0  0
 42 51  1  0  0  0  0
 51 52  1  0  0  0  0
 38 53  1  0  0  0  0
 53 54  2  0  0  0  0
 54 55  1  0  0  0  0
 55 56  2  0  0  0  0
 55 57  1  0  0  0  0
 57 58  2  0  0  0  0
 58 59  1  0  0  0  0
 59 60  2  0  0  0  0
 60 61  1  0  0  0  0
 60 62  1  0  0  0  0
 62 63  2  0  0  0  0
 63 64  1  0  0  0  0
 64 65  2  0  0  0  0
 65 66  1  0  0  0  0
 66 67  3  0  0  0  0
 65 68  1  0  0  0  0
 68 69  3  0  0  0  0
 12  2  1  0  0  0  0
 48 18  1  0  0  0  0
 64 54  1  0  0  0  0
 11  5  1  0  0  0  0
 47 22  2  0  0  0  0
 63 57  1  0  0  0  0
 46 24  2  0  0  0  0
 44 25  2  0  0  0  0
 30 26  2  0  0  0  0
 43 31  2  0  0  0  0
 41 32  2  0  0  0  0
 40 34  2  0  0  0  0
  1 70  1  0  0  0  0
  6 71  1  0  0  0  0
  7 72  1  0  0  0  0
 10 73  1  0  0  0  0
 20 74  1  0  0  0  0
 20 75  1  0  0  0  0
 21 76  1  0  0  0  0
 21 77  1  0  0  0  0
 21 78  1  0  0  0  0
 36 79  1  0  0  0  0
 36 80  1  0  0  0  0
 37 81  1  0  0  0  0
 37 82  1  0  0  0  0
 37 83  1  0  0  0  0
 49 84  1  0  0  0  0
 49 85  1  0  0  0  0
 50 86  1  0  0  0  0
 50 87  1  0  0  0  0
 50 88  1  0  0  0  0
 51 89  1  0  0  0  0
 51 90  1  0  0  0  0
 52 91  1  0  0  0  0
 52 92  1  0  0  0  0
 52 93  1  0  0  0  0
 53 94  1  0  0  0  0
 58 95  1  0  0  0  0
 59 96  1  0  0  0  0
 61 97  1  0  0  0  0
 61 98  1  0  0  0  0
 61 99  1  0  0  0  0
 62100  1  0  0  0  0
M  END
