
  xtb     02012216273D
 energy: -179.617919271419 gnorm: 0.000734320983 xtb: 6.4.1 (unknown)
 94105  0     0  0            999 V2000
   -1.7790    7.3371   -0.8894 C   0  0  0  0  0  0  0  0  0  0  0  0
   -1.4359    7.8888    0.3242 C   0  0  0  0  0  0  0  0  0  0  0  0
   -0.9708    7.1611    1.5058 C   0  0  0  0  0  0  0  0  0  0  0  0
   -0.7391    5.9682    1.6089 O   0  0  0  0  0  0  0  0  0  0  0  0
   -0.8406    8.1645    2.5790 C   0  0  0  0  0  0  0  0  0  0  0  0
   -0.4645    7.9850    3.8955 C   0  0  0  0  0  0  0  0  0  0  0  0
   -0.4286    9.0921    4.7297 C   0  0  0  0  0  0  0  0  0  0  0  0
   -0.7678   10.3404    4.2297 C   0  0  0  0  0  0  0  0  0  0  0  0
   -0.7120   12.0093    5.5236 I   0  0  0  0  0  0  0  0  0  0  0  0
   -1.1448   10.5361    2.9073 C   0  0  0  0  0  0  0  0  0  0  0  0
   -1.1795    9.4309    2.0737 C   0  0  0  0  0  0  0  0  0  0  0  0
   -1.5288    9.2946    0.6571 C   0  0  0  0  0  0  0  0  0  0  0  0
   -1.8477   10.3353   -0.1773 C   0  0  0  0  0  0  0  0  0  0  0  0
   -2.1443   10.2286   -1.5521 C   0  0  0  0  0  0  0  0  0  0  0  0
   -2.3888   10.2306   -2.6751 N   0  0  0  0  0  0  0  0  0  0  0  0
   -1.9036   11.6860    0.2271 C   0  0  0  0  0  0  0  0  0  0  0  0
   -1.9695   12.8013    0.4902 N   0  0  0  0  0  0  0  0  0  0  0  0
   -1.7370    6.0165   -1.3399 C   0  0  0  0  0  0  0  0  0  0  0  0
   -2.1608    5.6325   -2.6274 C   0  0  0  0  0  0  0  0  0  0  0  0
   -2.6698    6.5495   -3.6907 C   0  0  0  0  0  0  0  0  0  0  0  0
   -1.5107    7.1907   -4.4592 C   0  0  0  0  0  0  0  0  0  0  0  0
   -1.9986    4.2697   -2.8262 C   0  0  0  0  0  0  0  0  0  0  0  0
   -2.3460    3.2206   -4.1894 S   0  0  0  0  0  0  0  0  0  0  0  0
   -1.7710    1.8758   -3.2659 C   0  0  0  0  0  0  0  0  0  0  0  0
   -1.5780    0.4927   -3.4084 C   0  0  0  0  0  0  0  0  0  0  0  0
   -1.6902   -0.3944   -4.5052 C   0  0  0  0  0  0  0  0  0  0  0  0
   -1.2545   -1.7586   -4.3540 C   0  0  0  0  0  0  0  0  0  0  0  0
   -1.3467   -2.4426   -5.4826 N   0  0  0  0  0  0  0  0  0  0  0  0
   -1.9364   -1.4685   -6.6325 S   0  0  0  0  0  0  0  0  0  0  0  0
   -2.0950   -0.1303   -5.7366 N   0  0  0  0  0  0  0  0  0  0  0  0
   -0.8670   -2.2232   -3.0749 C   0  0  0  0  0  0  0  0  0  0  0  0
   -0.5322   -3.4907   -2.5718 C   0  0  0  0  0  0  0  0  0  0  0  0
   -0.2568   -5.0983   -3.1478 S   0  0  0  0  0  0  0  0  0  0  0  0
    0.0331   -5.6112   -1.4957 C   0  0  0  0  0  0  0  0  0  0  0  0
    0.3719   -6.8381   -0.9396 C   0  0  0  0  0  0  0  0  0  0  0  0
    0.5086   -8.0849   -1.7506 C   0  0  0  0  0  0  0  0  0  0  0  0
   -0.7940   -8.8897   -1.7373 C   0  0  0  0  0  0  0  0  0  0  0  0
    0.5090   -6.7452    0.4562 C   0  0  0  0  0  0  0  0  0  0  0  0
    0.2157   -5.1096    1.0500 S   0  0  0  0  0  0  0  0  0  0  0  0
   -0.0906   -4.5727   -0.5570 C   0  0  0  0  0  0  0  0  0  0  0  0
   -0.4103   -3.3645   -1.1796 C   0  0  0  0  0  0  0  0  0  0  0  0
   -0.6369   -2.0645   -0.8024 N   0  0  0  0  0  0  0  0  0  0  0  0
   -0.8809   -1.3470   -1.9558 C   0  0  0  0  0  0  0  0  0  0  0  0
   -1.0718    0.0353   -2.1610 C   0  0  0  0  0  0  0  0  0  0  0  0
   -0.8939    1.1078   -1.3115 N   0  0  0  0  0  0  0  0  0  0  0  0
   -1.3331    2.2246   -1.9786 C   0  0  0  0  0  0  0  0  0  0  0  0
   -1.4573    3.5898   -1.7199 C   0  0  0  0  0  0  0  0  0  0  0  0
   -1.1499    4.6440   -0.3945 S   0  0  0  0  0  0  0  0  0  0  0  0
    0.1008    1.2272   -0.2630 C   0  0  0  0  0  0  0  0  0  0  0  0
    1.3536    1.9404   -0.7705 C   0  0  0  0  0  0  0  0  0  0  0  0
   -1.1322   -1.7635    0.5268 C   0  0  0  0  0  0  0  0  0  0  0  0
   -2.4284   -2.5196    0.8161 C   0  0  0  0  0  0  0  0  0  0  0  0
    0.8465   -7.8372    1.2641 C   0  0  0  0  0  0  0  0  0  0  0  0
    1.0325   -7.9338    2.6192 C   0  0  0  0  0  0  0  0  0  0  0  0
    0.9272   -6.8477    3.6092 C   0  0  0  0  0  0  0  0  0  0  0  0
    0.6350   -5.6837    3.4080 O   0  0  0  0  0  0  0  0  0  0  0  0
    1.2552   -7.4651    4.9047 C   0  0  0  0  0  0  0  0  0  0  0  0
    1.3683   -7.0673    6.2448 C   0  0  0  0  0  0  0  0  0  0  0  0
    1.7229   -8.1284    7.0333 C   0  0  0  0  0  0  0  0  0  0  0  0
    1.9705   -8.0970    8.7177 Cl  0  0  0  0  0  0  0  0  0  0  0  0
    1.9220   -9.6257    6.1555 S   0  0  0  0  0  0  0  0  0  0  0  0
    1.5230   -8.8093    4.7001 C   0  0  0  0  0  0  0  0  0  0  0  0
    1.3961   -9.1610    3.3115 C   0  0  0  0  0  0  0  0  0  0  0  0
    1.5895  -10.4247    2.8095 C   0  0  0  0  0  0  0  0  0  0  0  0
    1.4677  -10.8080    1.4616 C   0  0  0  0  0  0  0  0  0  0  0  0
    1.3795  -11.1821    0.3787 N   0  0  0  0  0  0  0  0  0  0  0  0
    1.9417  -11.4884    3.6665 C   0  0  0  0  0  0  0  0  0  0  0  0
    2.2281  -12.3592    4.3567 N   0  0  0  0  0  0  0  0  0  0  0  0
   -2.1561    8.0296   -1.6296 H   0  0  0  0  0  0  0  0  0  0  0  0
   -0.2080    7.0022    4.2594 H   0  0  0  0  0  0  0  0  0  0  0  0
   -0.1402    8.9833    5.7637 H   0  0  0  0  0  0  0  0  0  0  0  0
   -1.4029   11.5217    2.5569 H   0  0  0  0  0  0  0  0  0  0  0  0
   -3.2749    5.9623   -4.3845 H   0  0  0  0  0  0  0  0  0  0  0  0
   -3.2994    7.3325   -3.2662 H   0  0  0  0  0  0  0  0  0  0  0  0
   -0.8876    6.4237   -4.9131 H   0  0  0  0  0  0  0  0  0  0  0  0
   -1.9015    7.8335   -5.2424 H   0  0  0  0  0  0  0  0  0  0  0  0
   -0.8955    7.7944   -3.7966 H   0  0  0  0  0  0  0  0  0  0  0  0
    0.7398   -7.7989   -2.7786 H   0  0  0  0  0  0  0  0  0  0  0  0
    1.3226   -8.7081   -1.3779 H   0  0  0  0  0  0  0  0  0  0  0  0
   -0.6791   -9.7841   -2.3425 H   0  0  0  0  0  0  0  0  0  0  0  0
   -1.0509   -9.1907   -0.7245 H   0  0  0  0  0  0  0  0  0  0  0  0
   -1.6100   -8.2954   -2.1417 H   0  0  0  0  0  0  0  0  0  0  0  0
    0.3865    0.2326    0.0736 H   0  0  0  0  0  0  0  0  0  0  0  0
   -0.3333    1.7904    0.5687 H   0  0  0  0  0  0  0  0  0  0  0  0
    1.7632    1.4157   -1.6312 H   0  0  0  0  0  0  0  0  0  0  0  0
    2.1016    1.9580    0.0168 H   0  0  0  0  0  0  0  0  0  0  0  0
    1.1320    2.9645   -1.0557 H   0  0  0  0  0  0  0  0  0  0  0  0
   -1.3351   -0.6968    0.5995 H   0  0  0  0  0  0  0  0  0  0  0  0
   -0.3687   -2.0471    1.2575 H   0  0  0  0  0  0  0  0  0  0  0  0
   -3.1797   -2.2802    0.0662 H   0  0  0  0  0  0  0  0  0  0  0  0
   -2.8041   -2.2292    1.7930 H   0  0  0  0  0  0  0  0  0  0  0  0
   -2.2625   -3.5928    0.8179 H   0  0  0  0  0  0  0  0  0  0  0  0
    0.9848   -8.7548    0.7077 H   0  0  0  0  0  0  0  0  0  0  0  0
    1.2025   -6.0715    6.6102 H   0  0  0  0  0  0  0  0  0  0  0  0
  1  2  2  0  0  0  0
  2  3  1  0  0  0  0
  3  4  2  0  0  0  0
  3  5  1  0  0  0  0
  5  6  2  0  0  0  0
  6  7  1  0  0  0  0
  7  8  2  0  0  0  0
  8  9  1  0  0  0  0
  8 10  1  0  0  0  0
 10 11  2  0  0  0  0
 11 12  1  0  0  0  0
 12 13  2  0  0  0  0
 13 14  1  0  0  0  0
 14 15  3  0  0  0  0
 13 16  1  0  0  0  0
 16 17  3  0  0  0  0
  1 18  1  0  0  0  0
 18 19  2  0  0  0  0
 19 20  1  0  0  0  0
 20 21  1  0  0  0  0
 19 22  1  0  0  0  0
 22 23  1  0  0  0  0
 23 24  1  0  0  0  0
 24 25  1  0  0  0  0
 25 26  1  0  0  0  0
 26 27  1  0  0  0  0
 27 28  2  0  0  0  0
 28 29  1  0  0  0  0
 29 30  1  0  0  0  0
 27 31  1  0  0  0  0
 31 32  1  0  0  0  0
 32 33  1  0  0  0  0
 33 34  1  0  0  0  0
 34 35  1  0  0  0  0
 35 36  1  0  0  0  0
 36 37  1  0  0  0  0
 35 38  2  0  0  0  0
 38 39  1  0  0  0  0
 39 40  1  0  0  0  0
 40 41  1  0  0  0  0
 41 42  1  0  0  0  0
 42 43  1  0  0  0  0
 43 44  1  0  0  0  0
 44 45  1  0  0  0  0
 45 46  1  0  0  0  0
 46 47  1  0  0  0  0
 47 48  1  0  0  0  0
 45 49  1  0  0  0  0
 49 50  1  0  0  0  0
 42 51  1  0  0  0  0
 51 52  1  0  0  0  0
 38 53  1  0  0  0  0
 53 54  2  0  0  0  0
 54 55  1  0  0  0  0
 55 56  2  0  0  0  0
 55 57  1  0  0  0  0
 57 58  1  0  0  0  0
 58 59  2  0  0  0  0
 59 60  1  0  0  0  0
 59 61  1  0  0  0  0
 61 62  1  0  0  0  0
 62 63  1  0  0  0  0
 63 64  2  0  0  0  0
 64 65  1  0  0  0  0
 65 66  3  0  0  0  0
 64 67  1  0  0  0  0
 67 68  3  0  0  0  0
 12  2  1  0  0  0  0
 48 18  1  0  0  0  0
 63 54  1  0  0  0  0
 11  5  1  0  0  0  0
 47 22  2  0  0  0  0
 62 57  2  0  0  0  0
 46 24  2  0  0  0  0
 44 25  2  0  0  0  0
 30 26  2  0  0  0  0
 43 31  2  0  0  0  0
 41 32  2  0  0  0  0
 40 34  2  0  0  0  0
  1 69  1  0  0  0  0
  6 70  1  0  0  0  0
  7 71  1  0  0  0  0
 10 72  1  0  0  0  0
 20 73  1  0  0  0  0
 20 74  1  0  0  0  0
 21 75  1  0  0  0  0
 21 76  1  0  0  0  0
 21 77  1  0  0  0  0
 36 78  1  0  0  0  0
 36 79  1  0  0  0  0
 37 80  1  0  0  0  0
 37 81  1  0  0  0  0
 37 82  1  0  0  0  0
 49 83  1  0  0  0  0
 49 84  1  0  0  0  0
 50 85  1  0  0  0  0
 50 86  1  0  0  0  0
 50 87  1  0  0  0  0
 51 88  1  0  0  0  0
 51 89  1  0  0  0  0
 52 90  1  0  0  0  0
 52 91  1  0  0  0  0
 52 92  1  0  0  0  0
 53 93  1  0  0  0  0
 58 94  1  0  0  0  0
M  END
