94

C         -1.77900        7.33710       -0.88940
C         -1.43590        7.88880        0.32420
C         -0.97080        7.16110        1.50580
O         -0.73910        5.96820        1.60890
C         -0.84060        8.16450        2.57900
C         -0.46450        7.98500        3.89550
C         -0.42860        9.09210        4.72970
C         -0.76780       10.34040        4.22970
I         -0.71200       12.00930        5.52360
C         -1.14480       10.53610        2.90730
C         -1.17950        9.43090        2.07370
C         -1.52880        9.29460        0.65710
C         -1.84770       10.33530       -0.17730
C         -2.14430       10.22860       -1.55210
N         -2.38880       10.23060       -2.67510
C         -1.90360       11.68600        0.22710
N         -1.96950       12.80130        0.49020
C         -1.73700        6.01650       -1.33990
C         -2.16080        5.63250       -2.62740
C         -2.66980        6.54950       -3.69070
C         -1.51070        7.19070       -4.45920
C         -1.99860        4.26970       -2.82620
S         -2.34600        3.22060       -4.18940
C         -1.77100        1.87580       -3.26590
C         -1.57800        0.49270       -3.40840
C         -1.69020       -0.39440       -4.50520
C         -1.25450       -1.75860       -4.35400
N         -1.34670       -2.44260       -5.48260
S         -1.93640       -1.46850       -6.63250
N         -2.09500       -0.13030       -5.73660
C         -0.86700       -2.22320       -3.07490
C         -0.53220       -3.49070       -2.57180
S         -0.25680       -5.09830       -3.14780
C          0.03310       -5.61120       -1.49570
C          0.37190       -6.83810       -0.93960
C          0.50860       -8.08490       -1.75060
C         -0.79400       -8.88970       -1.73730
C          0.50900       -6.74520        0.45620
S          0.21570       -5.10960        1.05000
C         -0.09060       -4.57270       -0.55700
C         -0.41030       -3.36450       -1.17960
N         -0.63690       -2.06450       -0.80240
C         -0.88090       -1.34700       -1.95580
C         -1.07180        0.03530       -2.16100
N         -0.89390        1.10780       -1.31150
C         -1.33310        2.22460       -1.97860
C         -1.45730        3.58980       -1.71990
S         -1.14990        4.64400       -0.39450
C          0.10080        1.22720       -0.26300
C          1.35360        1.94040       -0.77050
C         -1.13220       -1.76350        0.52680
C         -2.42840       -2.51960        0.81610
C          0.84650       -7.83720        1.26410
C          1.03250       -7.93380        2.61920
C          0.92720       -6.84770        3.60920
O          0.63500       -5.68370        3.40800
C          1.25520       -7.46510        4.90470
C          1.36830       -7.06730        6.24480
C          1.72290       -8.12840        7.03330
Cl         1.97050       -8.09700        8.71770
S          1.92200       -9.62570        6.15550
C          1.52300       -8.80930        4.70010
C          1.39610       -9.16100        3.31150
C          1.58950      -10.42470        2.80950
C          1.46770      -10.80800        1.46160
N          1.37950      -11.18210        0.37870
C          1.94170      -11.48840        3.66650
N          2.22810      -12.35920        4.35670
H         -2.15610        8.02960       -1.62960
H         -0.20800        7.00220        4.25940
H         -0.14020        8.98330        5.76370
H         -1.40290       11.52170        2.55690
H         -3.27490        5.96230       -4.38450
H         -3.29940        7.33250       -3.26620
H         -0.88760        6.42370       -4.91310
H         -1.90150        7.83350       -5.24240
H         -0.89550        7.79440       -3.79660
H          0.73980       -7.79890       -2.77860
H          1.32260       -8.70810       -1.37790
H         -0.67910       -9.78410       -2.34250
H         -1.05090       -9.19070       -0.72450
H         -1.61000       -8.29540       -2.14170
H          0.38650        0.23260        0.07360
H         -0.33330        1.79040        0.56870
H          1.76320        1.41570       -1.63120
H          2.10160        1.95800        0.01680
H          1.13200        2.96450       -1.05570
H         -1.33510       -0.69680        0.59950
H         -0.36870       -2.04710        1.25750
H         -3.17970       -2.28020        0.06620
H         -2.80410       -2.22920        1.79300
H         -2.26250       -3.59280        0.81790
H          0.98480       -8.75480        0.70770
H          1.20250       -6.07150        6.61020
