97

C         -1.52940        2.16050        7.69820
C         -0.34140        1.89950        8.31730
C          0.01510        2.62680        9.56170
O         -0.72250        3.28810       10.25640
C          1.47060        2.41590        9.72430
C          2.33530        2.96340       10.65200
C          3.68010        2.63060       10.58260
C          4.12820        1.76690        9.59380
I          6.18550        1.29880        9.49810
C          3.27190        1.19990        8.65950
C          1.93000        1.53010        8.73260
C          0.78510        1.07680        7.94270
C          0.73500       -0.08600        7.21860
C         -0.47200       -0.65540        6.76080
N         -1.43740       -1.17630        6.42250
C          1.85950       -0.87830        6.91680
N          2.74790       -1.53680        6.60870
C         -1.89270        1.95270        6.35300
C         -3.18030        1.97500        5.82620
C         -4.43190        2.17270        6.61510
C         -4.82360        3.65300        6.63160
C         -3.16960        1.78750        4.44190
S         -4.45220        1.66920        3.25840
C         -3.26200        1.40190        2.03500
C         -3.19460        1.10890        0.66730
C         -4.22750        0.88200       -0.26830
C         -3.87790        0.46860       -1.59280
N         -4.94020        0.24420       -2.35070
S         -6.26670        0.53360       -1.47070
N         -5.53730        0.95500       -0.08910
C         -2.51200        0.38650       -1.94070
C         -1.90580        0.08420       -3.16620
S         -2.35540       -0.39450       -4.76390
C         -0.66290       -0.38450       -5.21300
C         -0.02480       -0.67950       -6.42330
C         -0.79780       -1.19790       -7.58620
C         -0.29850       -2.55060       -8.09000
C          1.35880       -0.52970       -6.30530
S          1.83240       -0.08730       -4.65280
C          0.18750       -0.03020       -4.15580
C         -0.52640        0.23570       -2.98440
N         -0.25990        0.59420       -1.69110
C         -1.46650        0.68850       -1.01680
C         -1.81370        0.97360        0.33230
N         -1.07140        1.17360        1.48600
C         -1.94540        1.41800        2.51010
C         -1.89030        1.63970        3.88710
S         -0.66930        1.74710        5.09690
C          0.29410        0.82200        1.80950
C          0.52010       -0.68480        1.71740
C          1.05550        1.09050       -1.35440
C          1.04780        2.60450       -1.15640
C          2.45250       -0.74270       -7.16270
C          2.54810       -0.65220       -8.52910
C          1.64080        0.09510       -9.41460
O          0.64920        0.72630       -9.10740
C          2.25810        0.03680      -10.75900
C          1.79140        0.58160      -11.93740
C          2.55490        0.41710      -13.08720
Cl         2.02760        1.06290      -14.59130
C          3.76260       -0.28040      -13.01280
F          4.49560       -0.43020      -14.12270
C          4.23990       -0.82550      -11.83100
C          3.47370       -0.66410      -10.68740
C          3.67660       -1.11440       -9.31280
C          4.70920       -1.90540       -8.87970
C          5.77520       -2.33010       -9.70080
N          6.67140       -2.70260      -10.31330
C          4.84640       -2.42640       -7.57550
N          5.01640       -2.90970       -6.54760
H         -2.25680        2.68340        8.31100
H          1.96580        3.63430       11.41180
H          4.37710        3.04470       11.29460
H          3.64970        0.53370        7.90060
H         -4.29950        1.81020        7.63430
H         -5.23100        1.59640        6.14500
H         -4.98430        4.01270        5.61810
H         -5.74200        3.78670        7.19660
H         -4.04200        4.25280        7.09250
H         -0.74720       -0.46360       -8.39610
H         -1.84220       -1.28780       -7.27950
H         -0.32000       -3.28560       -7.28810
H         -0.93940       -2.89940       -8.89540
H          0.71860       -2.48340       -8.46660
H          0.99250        1.37760        1.18600
H          0.46060        1.14580        2.84000
H         -0.12390       -1.19990        2.42660
H          0.29490       -1.05740        0.72050
H          1.55300       -0.92030        1.95850
H          1.70510        0.84310       -2.19750
H          1.45150        0.56710       -0.48450
H          2.04050        2.94700       -0.87700
H          0.76040        3.09790       -2.08200
H          0.34130        2.89910       -0.38360
H          3.37080       -0.97610       -6.63420
H          0.85650        1.11830      -11.96350
H          5.18300       -1.34710      -11.84120
