97

C         -6.01830       -2.97090       -3.42620
C         -6.89810       -2.72030       -4.44660
C         -7.13490       -1.38350       -5.03550
O         -6.73170       -0.30990       -4.63970
C         -7.86850       -1.63720       -6.29380
C         -8.30190       -0.72810       -7.23900
C         -8.96410       -1.20360       -8.36080
C         -9.16760       -2.56710       -8.51460
I        -10.16800       -3.26300      -10.24030
C         -8.73530       -3.49380       -7.57520
C         -8.08030       -3.01730       -6.45180
C         -7.51410       -3.71430       -5.29800
C         -7.63010       -5.05220       -5.02740
C         -8.26290       -5.98020       -5.88030
N         -8.75860       -6.77720       -6.54090
C         -7.16580       -5.66610       -3.84460
N         -6.83530       -6.22100       -2.89540
C         -5.52560       -2.03510       -2.49570
C         -6.14040       -0.94780       -1.87920
C         -7.58900       -0.61610       -2.00100
C         -8.26470       -0.43130       -0.64370
C         -5.24490       -0.28390       -1.03000
S         -5.37670        1.16490       -0.05600
C         -3.71920        0.99720        0.39770
C         -2.75000        1.67270        1.15840
C         -2.73810        2.92810        1.80970
C         -1.50100        3.42420        2.35340
N         -1.62610        4.64190        2.85610
S         -3.15990        5.12240        2.67240
N         -3.72830        3.79600        1.94110
C         -0.36520        2.58160        2.36270
C          0.91910        2.70670        2.91730
S          1.89070        3.89530        3.70760
C          3.19010        2.73050        3.83320
C          4.50590        2.81780        4.30520
C          5.06610        4.00820        5.01350
C          4.13780        4.52570        6.11150
C          5.18350        1.61430        4.12110
S          4.15240        0.36390        3.42820
C          2.85210        1.48000        3.29430
C          1.56050        1.46990        2.76390
N          0.73370        0.58900        2.11170
C         -0.43440        1.26880        1.82550
C         -1.56890        0.88870        1.07760
N         -1.78580       -0.19370        0.24540
C         -3.09690       -0.12800       -0.16020
C         -3.96430       -0.85610       -0.97650
S         -3.86600       -2.27700       -1.94130
C         -0.79740       -0.84350       -0.59370
C         -0.74850       -0.20740       -1.98250
C          0.87180       -0.84060        2.30710
C          0.79900       -1.20610        3.78930
C          6.50580        1.23070        4.42640
C          7.65170        1.97140        4.48640
C          8.82770        1.42560        5.21520
O          8.95930        0.30130        5.64170
C          9.76460        2.56160        5.34450
C         10.96240        2.63330        6.02880
C         11.65400        3.83550        6.03010
C         11.13500        4.93140        5.35630
I         12.19490        6.75730        5.40020
C          9.93770        4.87330        4.65490
C          9.25230        3.67090        4.64820
C          8.00340        3.28000        3.99030
C          7.43380        3.93440        2.92790
C          7.87970        5.17950        2.43990
N          8.19170        6.19990        2.01700
C          6.39600        3.39450        2.14310
N          5.58000        2.98070        1.44990
H         -5.58910       -3.96410       -3.35510
H         -8.12660        0.32730       -7.09910
H         -9.31770       -0.51590       -9.11340
H         -8.90360       -4.54700       -7.72980
H         -7.68560        0.29990       -2.59090
H         -8.09250       -1.41480       -2.54880
H         -9.33180       -0.28210       -0.78730
H         -7.86780        0.43250       -0.11850
H         -8.12050       -1.31370       -0.02400
H          5.23960        4.80880        4.28600
H          6.02630        3.74300        5.45980
H          3.90510        3.73060        6.81640
H          4.62760        5.33290        6.65010
H          3.20960        4.90640        5.69600
H         -1.05760       -1.90340       -0.67690
H          0.18480       -0.74290       -0.13730
H          0.02800       -0.68570       -2.57250
H         -1.69590       -0.32300       -2.50140
H         -0.52180        0.85350       -1.90120
H          0.06030       -1.34960        1.79010
H          1.83270       -1.16120        1.89230
H          1.62240       -0.76430        4.34310
H          0.85190       -2.28560        3.89810
H         -0.13860       -0.85720        4.21690
H          6.63960        0.18290        4.68350
H         11.34450        1.76890        6.54910
H         12.59180        3.91970        6.55710
H          9.55940        5.74440        4.14490
