92

C         -2.55360       -4.96860        6.05250
C         -1.96300       -4.35140        7.11820
C         -1.56680       -5.13960        8.31060
O         -1.89910       -6.27120        8.58250
C         -0.63380       -4.26310        9.05460
C          0.11990       -4.54070       10.17830
C          0.95680       -3.55280       10.67640
C          1.02360       -2.32000       10.04420
I          2.33060       -0.84610       10.80780
C          0.26400       -2.01910        8.92170
C         -0.57330       -3.00450        8.42920
C         -1.51680       -2.99280        7.31160
C         -2.08630       -1.87220        6.76360
C         -3.23070       -1.92940        5.94100
N         -4.19580       -1.95000        5.31960
C         -1.65630       -0.55850        7.03020
N         -1.32070        0.52730        7.19300
C         -2.60390       -4.55600        4.70850
C         -3.44690       -5.05800        3.72060
C         -4.56570       -6.01110        3.96830
C         -5.77440       -5.27060        4.54700
C         -3.18850       -4.47100        2.48070
S         -3.91780       -4.67980        0.90470
C         -2.80690       -3.52140        0.26700
C         -2.48550       -2.92430       -0.95880
C         -2.97820       -3.17030       -2.25920
C         -2.37780       -2.48640       -3.36550
N         -2.89770       -2.84980       -4.52750
S         -4.04820       -3.95390       -4.25140
N         -3.92560       -4.01350       -2.63820
C         -1.38860       -1.51210       -3.10780
C         -0.73330       -0.62480       -3.97300
S         -0.64940       -0.26500       -5.66240
C          0.44570        1.05120       -5.30030
C          1.07460        1.99490       -6.12760
C          0.96960        1.91080       -7.61430
C          2.30820        1.53390       -8.24900
C          1.85140        2.87150       -5.38460
S          1.82000        2.47700       -3.65840
C          0.72580        1.17750       -3.93580
C          0.05070        0.21450       -3.17620
N         -0.06930       -0.13830       -1.85970
C         -0.94790       -1.20850       -1.78660
C         -1.42720       -2.00160       -0.70960
N         -1.09660       -2.07610        0.63340
C         -1.92500       -2.99500        1.21940
C         -2.13610       -3.54350        2.48530
S         -1.45480       -3.38170        4.06030
C          0.09350       -1.64330        1.33100
C          1.35410       -2.24190        0.71210
C          0.36360        0.78870       -0.83710
C         -0.82330        1.46060       -0.15150
C          2.67490        3.98340       -5.68950
C          2.71300        4.86440       -6.71800
S          1.67120        5.04670       -8.11200
C          2.55050        6.50800       -8.66000
O          2.26270        7.13030       -9.64000
N          3.55830        6.77670       -7.78200
C          4.44220        7.91130       -7.99670
C          5.49840        7.59970       -9.04820
C          3.71940        5.93360       -6.69730
O          4.57510        6.08380       -5.85550
H         -2.95950       -5.95420        6.26040
H          0.05440       -5.50700       10.65360
H          1.55690       -3.74370       11.55260
H          0.33810       -1.05260        8.44940
H         -4.25020       -6.79220        4.66300
H         -4.84340       -6.47740        3.02110
H         -6.10730       -4.49800        3.85890
H         -5.51490       -4.79670        5.49060
H         -6.59220       -5.96620        4.71460
H          0.22550        1.14940       -7.85760
H          0.62890        2.86180       -8.02420
H          3.06590        2.27840       -8.02130
H          2.19930        1.46830       -9.32790
H          2.64700        0.57090       -7.87470
H         -0.00450       -1.99730        2.36030
H          0.14060       -0.55500        1.37290
H          1.32420       -3.32670        0.78420
H          1.44300       -1.97530       -0.33840
H          2.23270       -1.88460        1.24220
H          1.01700        0.29330       -0.11930
H          0.96360        1.54870       -1.34360
H         -0.46990        2.14060        0.61870
H         -1.48550        0.72730        0.30300
H         -1.39770        2.03030       -0.87840
H          3.40330        4.21980       -4.91650
H          3.82940        8.75890       -8.31260
H          4.90720        8.12300       -7.03110
H          5.02550        7.37950      -10.00240
H          6.15140        8.45870       -9.17240
H          6.09810        6.74570       -8.74130
