
  xtb     02012218043D
 energy: -167.682051662922 gnorm: 0.000869625732 xtb: 6.4.1 (unknown)
 92102  0     0  0            999 V2000
   -2.5536   -4.9686    6.0525 C   0  0  0  0  0  0  0  0  0  0  0  0
   -1.9630   -4.3514    7.1182 C   0  0  0  0  0  0  0  0  0  0  0  0
   -1.5668   -5.1396    8.3106 C   0  0  0  0  0  0  0  0  0  0  0  0
   -1.8991   -6.2712    8.5825 O   0  0  0  0  0  0  0  0  0  0  0  0
   -0.6338   -4.2631    9.0546 C   0  0  0  0  0  0  0  0  0  0  0  0
    0.1199   -4.5407   10.1783 C   0  0  0  0  0  0  0  0  0  0  0  0
    0.9568   -3.5528   10.6764 C   0  0  0  0  0  0  0  0  0  0  0  0
    1.0236   -2.3200   10.0442 C   0  0  0  0  0  0  0  0  0  0  0  0
    2.3306   -0.8461   10.8078 I   0  0  0  0  0  0  0  0  0  0  0  0
    0.2640   -2.0191    8.9217 C   0  0  0  0  0  0  0  0  0  0  0  0
   -0.5733   -3.0045    8.4292 C   0  0  0  0  0  0  0  0  0  0  0  0
   -1.5168   -2.9928    7.3116 C   0  0  0  0  0  0  0  0  0  0  0  0
   -2.0863   -1.8722    6.7636 C   0  0  0  0  0  0  0  0  0  0  0  0
   -3.2307   -1.9294    5.9410 C   0  0  0  0  0  0  0  0  0  0  0  0
   -4.1958   -1.9500    5.3196 N   0  0  0  0  0  0  0  0  0  0  0  0
   -1.6563   -0.5585    7.0302 C   0  0  0  0  0  0  0  0  0  0  0  0
   -1.3207    0.5273    7.1930 N   0  0  0  0  0  0  0  0  0  0  0  0
   -2.6039   -4.5560    4.7085 C   0  0  0  0  0  0  0  0  0  0  0  0
   -3.4469   -5.0580    3.7206 C   0  0  0  0  0  0  0  0  0  0  0  0
   -4.5657   -6.0111    3.9683 C   0  0  0  0  0  0  0  0  0  0  0  0
   -5.7744   -5.2706    4.5470 C   0  0  0  0  0  0  0  0  0  0  0  0
   -3.1885   -4.4710    2.4807 C   0  0  0  0  0  0  0  0  0  0  0  0
   -3.9178   -4.6798    0.9047 S   0  0  0  0  0  0  0  0  0  0  0  0
   -2.8069   -3.5214    0.2670 C   0  0  0  0  0  0  0  0  0  0  0  0
   -2.4855   -2.9243   -0.9588 C   0  0  0  0  0  0  0  0  0  0  0  0
   -2.9782   -3.1703   -2.2592 C   0  0  0  0  0  0  0  0  0  0  0  0
   -2.3778   -2.4864   -3.3655 C   0  0  0  0  0  0  0  0  0  0  0  0
   -2.8977   -2.8498   -4.5275 N   0  0  0  0  0  0  0  0  0  0  0  0
   -4.0482   -3.9539   -4.2514 S   0  0  0  0  0  0  0  0  0  0  0  0
   -3.9256   -4.0135   -2.6382 N   0  0  0  0  0  0  0  0  0  0  0  0
   -1.3886   -1.5121   -3.1078 C   0  0  0  0  0  0  0  0  0  0  0  0
   -0.7333   -0.6248   -3.9730 C   0  0  0  0  0  0  0  0  0  0  0  0
   -0.6494   -0.2650   -5.6624 S   0  0  0  0  0  0  0  0  0  0  0  0
    0.4457    1.0512   -5.3003 C   0  0  0  0  0  0  0  0  0  0  0  0
    1.0746    1.9949   -6.1276 C   0  0  0  0  0  0  0  0  0  0  0  0
    0.9696    1.9108   -7.6143 C   0  0  0  0  0  0  0  0  0  0  0  0
    2.3082    1.5339   -8.2490 C   0  0  0  0  0  0  0  0  0  0  0  0
    1.8514    2.8715   -5.3846 C   0  0  0  0  0  0  0  0  0  0  0  0
    1.8200    2.4770   -3.6584 S   0  0  0  0  0  0  0  0  0  0  0  0
    0.7258    1.1775   -3.9358 C   0  0  0  0  0  0  0  0  0  0  0  0
    0.0507    0.2145   -3.1762 C   0  0  0  0  0  0  0  0  0  0  0  0
   -0.0693   -0.1383   -1.8597 N   0  0  0  0  0  0  0  0  0  0  0  0
   -0.9479   -1.2085   -1.7866 C   0  0  0  0  0  0  0  0  0  0  0  0
   -1.4272   -2.0016   -0.7096 C   0  0  0  0  0  0  0  0  0  0  0  0
   -1.0966   -2.0761    0.6334 N   0  0  0  0  0  0  0  0  0  0  0  0
   -1.9250   -2.9950    1.2194 C   0  0  0  0  0  0  0  0  0  0  0  0
   -2.1361   -3.5435    2.4853 C   0  0  0  0  0  0  0  0  0  0  0  0
   -1.4548   -3.3817    4.0603 S   0  0  0  0  0  0  0  0  0  0  0  0
    0.0935   -1.6433    1.3310 C   0  0  0  0  0  0  0  0  0  0  0  0
    1.3541   -2.2419    0.7121 C   0  0  0  0  0  0  0  0  0  0  0  0
    0.3636    0.7887   -0.8371 C   0  0  0  0  0  0  0  0  0  0  0  0
   -0.8233    1.4606   -0.1515 C   0  0  0  0  0  0  0  0  0  0  0  0
    2.6749    3.9834   -5.6895 C   0  0  0  0  0  0  0  0  0  0  0  0
    2.7130    4.8644   -6.7180 C   0  0  0  0  0  0  0  0  0  0  0  0
    1.6712    5.0467   -8.1120 S   0  0  0  0  0  0  0  0  0  0  0  0
    2.5505    6.5080   -8.6600 C   0  0  0  0  0  0  0  0  0  0  0  0
    2.2627    7.1303   -9.6400 O   0  0  0  0  0  0  0  0  0  0  0  0
    3.5583    6.7767   -7.7820 N   0  0  0  0  0  0  0  0  0  0  0  0
    4.4422    7.9113   -7.9967 C   0  0  0  0  0  0  0  0  0  0  0  0
    5.4984    7.5997   -9.0482 C   0  0  0  0  0  0  0  0  0  0  0  0
    3.7194    5.9336   -6.6973 C   0  0  0  0  0  0  0  0  0  0  0  0
    4.5751    6.0838   -5.8555 O   0  0  0  0  0  0  0  0  0  0  0  0
   -2.9595   -5.9542    6.2604 H   0  0  0  0  0  0  0  0  0  0  0  0
    0.0544   -5.5070   10.6536 H   0  0  0  0  0  0  0  0  0  0  0  0
    1.5569   -3.7437   11.5526 H   0  0  0  0  0  0  0  0  0  0  0  0
    0.3381   -1.0526    8.4494 H   0  0  0  0  0  0  0  0  0  0  0  0
   -4.2502   -6.7922    4.6630 H   0  0  0  0  0  0  0  0  0  0  0  0
   -4.8434   -6.4774    3.0211 H   0  0  0  0  0  0  0  0  0  0  0  0
   -6.1073   -4.4980    3.8589 H   0  0  0  0  0  0  0  0  0  0  0  0
   -5.5149   -4.7967    5.4906 H   0  0  0  0  0  0  0  0  0  0  0  0
   -6.5922   -5.9662    4.7146 H   0  0  0  0  0  0  0  0  0  0  0  0
    0.2255    1.1494   -7.8576 H   0  0  0  0  0  0  0  0  0  0  0  0
    0.6289    2.8618   -8.0242 H   0  0  0  0  0  0  0  0  0  0  0  0
    3.0659    2.2784   -8.0213 H   0  0  0  0  0  0  0  0  0  0  0  0
    2.1993    1.4683   -9.3279 H   0  0  0  0  0  0  0  0  0  0  0  0
    2.6470    0.5709   -7.8747 H   0  0  0  0  0  0  0  0  0  0  0  0
   -0.0045   -1.9973    2.3603 H   0  0  0  0  0  0  0  0  0  0  0  0
    0.1406   -0.5550    1.3729 H   0  0  0  0  0  0  0  0  0  0  0  0
    1.3242   -3.3267    0.7842 H   0  0  0  0  0  0  0  0  0  0  0  0
    1.4430   -1.9753   -0.3384 H   0  0  0  0  0  0  0  0  0  0  0  0
    2.2327   -1.8846    1.2422 H   0  0  0  0  0  0  0  0  0  0  0  0
    1.0170    0.2933   -0.1193 H   0  0  0  0  0  0  0  0  0  0  0  0
    0.9636    1.5487   -1.3436 H   0  0  0  0  0  0  0  0  0  0  0  0
   -0.4699    2.1406    0.6187 H   0  0  0  0  0  0  0  0  0  0  0  0
   -1.4855    0.7273    0.3030 H   0  0  0  0  0  0  0  0  0  0  0  0
   -1.3977    2.0303   -0.8784 H   0  0  0  0  0  0  0  0  0  0  0  0
    3.4033    4.2198   -4.9165 H   0  0  0  0  0  0  0  0  0  0  0  0
    3.8294    8.7589   -8.3126 H   0  0  0  0  0  0  0  0  0  0  0  0
    4.9072    8.1230   -7.0311 H   0  0  0  0  0  0  0  0  0  0  0  0
    5.0255    7.3795  -10.0024 H   0  0  0  0  0  0  0  0  0  0  0  0
    6.1514    8.4587   -9.1724 H   0  0  0  0  0  0  0  0  0  0  0  0
    6.0981    6.7457   -8.7413 H   0  0  0  0  0  0  0  0  0  0  0  0
  1  2  2  0  0  0  0
  2  3  1  0  0  0  0
  3  4  2  0  0  0  0
  3  5  1  0  0  0  0
  5  6  2  0  0  0  0
  6  7  1  0  0  0  0
  7  8  2  0  0  0  0
  8  9  1  0  0  0  0
  8 10  1  0  0  0  0
 10 11  2  0  0  0  0
 11 12  1  0  0  0  0
 12 13  2  0  0  0  0
 13 14  1  0  0  0  0
 14 15  3  0  0  0  0
 13 16  1  0  0  0  0
 16 17  3  0  0  0  0
  1 18  1  0  0  0  0
 18 19  2  0  0  0  0
 19 20  1  0  0  0  0
 20 21  1  0  0  0  0
 19 22  1  0  0  0  0
 22 23  1  0  0  0  0
 23 24  1  0  0  0  0
 24 25  1  0  0  0  0
 25 26  1  0  0  0  0
 26 27  1  0  0  0  0
 27 28  2  0  0  0  0
 28 29  1  0  0  0  0
 29 30  1  0  0  0  0
 27 31  1  0  0  0  0
 31 32  1  0  0  0  0
 32 33  1  0  0  0  0
 33 34  1  0  0  0  0
 34 35  1  0  0  0  0
 35 36  1  0  0  0  0
 36 37  1  0  0  0  0
 35 38  2  0  0  0  0
 38 39  1  0  0  0  0
 39 40  1  0  0  0  0
 40 41  1  0  0  0  0
 41 42  1  0  0  0  0
 42 43  1  0  0  0  0
 43 44  1  0  0  0  0
 44 45  1  0  0  0  0
 45 46  1  0  0  0  0
 46 47  1  0  0  0  0
 47 48  1  0  0  0  0
 45 49  1  0  0  0  0
 49 50  1  0  0  0  0
 42 51  1  0  0  0  0
 51 52  1  0  0  0  0
 38 53  1  0  0  0  0
 53 54  2  0  0  0  0
 54 55  1  0  0  0  0
 55 56  1  0  0  0  0
 56 57  2  0  0  0  0
 56 58  1  0  0  0  0
 58 59  1  0  0  0  0
 59 60  1  0  0  0  0
 58 61  1  0  0  0  0
 61 62  2  0  0  0  0
 12  2  1  0  0  0  0
 48 18  1  0  0  0  0
 61 54  1  0  0  0  0
 11  5  1  0  0  0  0
 47 22  2  0  0  0  0
 46 24  2  0  0  0  0
 44 25  2  0  0  0  0
 30 26  2  0  0  0  0
 43 31  2  0  0  0  0
 41 32  2  0  0  0  0
 40 34  2  0  0  0  0
  1 63  1  0  0  0  0
  6 64  1  0  0  0  0
  7 65  1  0  0  0  0
 10 66  1  0  0  0  0
 20 67  1  0  0  0  0
 20 68  1  0  0  0  0
 21 69  1  0  0  0  0
 21 70  1  0  0  0  0
 21 71  1  0  0  0  0
 36 72  1  0  0  0  0
 36 73  1  0  0  0  0
 37 74  1  0  0  0  0
 37 75  1  0  0  0  0
 37 76  1  0  0  0  0
 49 77  1  0  0  0  0
 49 78  1  0  0  0  0
 50 79  1  0  0  0  0
 50 80  1  0  0  0  0
 50 81  1  0  0  0  0
 51 82  1  0  0  0  0
 51 83  1  0  0  0  0
 52 84  1  0  0  0  0
 52 85  1  0  0  0  0
 52 86  1  0  0  0  0
 53 87  1  0  0  0  0
 59 88  1  0  0  0  0
 59 89  1  0  0  0  0
 60 90  1  0  0  0  0
 60 91  1  0  0  0  0
 60 92  1  0  0  0  0
M  END
