152

C         -2.01370        6.11570        6.93780
C         -2.72200        5.83470        8.06930
C         -3.60280        6.86860        8.66960
O         -3.61540        8.05240        8.41980
C         -4.49520        6.12400        9.58550
C         -5.58460        6.57610       10.30480
C         -6.29280        5.66750       11.07710
C         -5.90270        4.33660       11.11000
I         -7.01960        2.97280       12.27250
C         -4.80450        3.86670       10.40250
C         -4.09540        4.77620        9.63790
C         -2.89080        4.61410        8.82370
C         -1.95120        3.63080        8.98880
C         -2.12480        2.51330        9.82900
N         -2.23130        1.58290       10.49260
C         -0.66460        3.69790        8.41380
N          0.40730        3.75550        8.00730
C         -1.49440        5.23120        5.97160
S         -2.08180        3.57300        5.79970
C         -1.05620        3.33710        4.44400
C         -0.70080        2.37640        3.50380
S         -1.11740        0.75570        3.06300
C         -0.02150        0.88270        1.72830
C          0.28880        0.03050        0.62610
C         -0.16720       -1.24570        0.30810
C          0.25820       -1.78560       -0.88300
C         -0.08360       -3.14210       -1.47420
C         -1.55000       -3.31280       -1.83020
C         -2.01370       -4.57480       -2.18340
C         -3.33290       -4.75980       -2.54650
C         -4.22260       -3.69260       -2.57120
C         -5.64650       -3.89060       -3.00420
C         -5.76760       -3.74110       -4.52210
C         -3.74940       -2.43250       -2.23470
C         -2.42780       -2.24020       -1.87220
C          0.38580       -4.20970       -0.50120
C         -0.45480       -4.63770        0.51870
C         -0.02290       -5.57710        1.43500
C          1.25770       -6.11040        1.36170
C          1.73530       -7.10160        2.38320
C          2.31490       -6.37770        3.60020
C          2.09810       -5.66790        0.34950
C          1.67130       -4.72700       -0.56970
C          0.70240       -3.10240       -2.75960
C          1.37780       -1.88550       -2.87120
C          1.13550       -1.06650       -1.72920
C          1.60340        0.20540       -1.40180
C          1.17090        0.74740       -0.21640
C          1.51980        2.10220        0.39160
C          3.00590        2.07410        0.69210
C          3.47240        1.78810        1.96890
C          4.83000        1.71890        2.22550
C          5.75950        1.92440        1.21530
C          7.23020        1.80690        1.49030
C          7.68010        0.34980        1.36530
C          5.28980        2.18680       -0.06500
C          3.93450        2.25640       -0.32610
C          1.06080        3.25740       -0.48100
C         -0.20920        3.19830       -1.04500
C         -0.70560        4.25720       -1.77950
C          0.04960        5.40740       -1.97120
C         -0.47200        6.54560       -2.79890
C         -0.07110        6.36890       -4.26490
C          1.31830        5.45730       -1.41270
C          1.81730        4.40380       -0.66940
C          0.65410        2.09010        1.62960
C          0.26880        2.96520        2.64840
N          0.50760        4.25760        3.05810
C         -0.30650        4.49790        4.14520
C         -0.57160        5.56600        4.99090
C          1.38060        5.19890        2.52760
C          2.72200        5.10230        2.33060
C          3.28010        6.30080        1.83150
C          2.37630        7.30170        1.66420
C          2.61410        8.70840        1.23290
C          1.83620        9.07750       -0.02960
S          0.77770        6.77590        2.09130
S          2.26160       -1.75840       -4.32310
C          1.70850       -3.36760       -4.81570
C          0.88060       -3.93450       -3.84750
C          2.17630       -3.81590       -6.05870
C          1.91660       -4.95460       -6.78330
C          0.96770       -6.04400       -6.48030
O          0.29310       -6.22600       -5.48790
C          0.97840       -6.92390       -7.67140
C          0.22860       -8.06120       -7.89060
C          0.39080       -8.73430       -9.09520
Cl        -0.51290      -10.15750       -9.43640
C          1.29880       -8.24210      -10.03530
F          1.44720       -8.89150      -11.19660
C          2.05740       -7.10240       -9.81830
C          1.89390       -6.43330       -8.61500
C          2.52350       -5.23010       -8.07450
C          3.53560       -4.54020       -8.69150
C          4.22300       -3.41760       -8.18250
N          4.84970       -2.51270       -7.85360
C          4.06800       -4.88340       -9.95300
N          4.54760       -5.09970      -10.97310
H         -1.91550        7.17180        6.70470
H         -5.87280        7.61500       10.26180
H         -7.14780        5.99400       11.64880
H         -4.52770        2.82550       10.44310
H         -0.83690       -1.77340        0.96920
H         -1.33840       -5.41730       -2.16410
H         -3.67780       -5.74820       -2.81310
H         -6.28850       -3.15370       -2.51730
H         -5.98670       -4.88640       -2.71310
H         -6.79760       -3.88880       -4.83840
H         -5.14040       -4.47360       -5.02510
H         -5.44760       -2.74840       -4.83110
H         -4.42260       -1.58710       -2.25370
H         -2.08450       -1.24790       -1.61810
H         -1.45900       -4.24500        0.58720
H         -0.69260       -5.90480        2.21730
H          2.50310       -7.74300        1.94620
H          0.90380       -7.73280        2.70310
H          2.66200       -7.09530        4.33980
H          1.55960       -5.74350        4.05880
H          3.15290       -5.75070        3.30370
H          3.10000       -6.06620        0.27550
H          2.34550       -4.39960       -1.34780
H          2.26660        0.73040       -2.07050
H          2.77340        1.61720        2.77510
H          5.16970        1.50430        3.22880
H          7.79070        2.41870        0.78080
H          7.44830        2.16470        2.49870
H          7.14190       -0.27490        2.07480
H          7.48140       -0.02280        0.36280
H          8.74560        0.26280        1.56380
H          5.99410        2.33920       -0.87030
H          3.59890        2.46550       -1.33080
H         -0.81550        2.31480       -0.90230
H         -1.69670        4.19230       -2.20530
H         -0.06790        7.48940       -2.42680
H         -1.56040        6.58750       -2.72600
H         -0.44820        7.19390       -4.86440
H          1.01200        6.33660       -4.36030
H         -0.47630        5.43940       -4.65850
H          1.92970        6.33650       -1.55310
H          2.80050        4.48590       -0.23350
H         -0.11070        6.53500        4.93580
H          3.29220        4.21630        2.54230
H          4.32950        6.41450        1.62520
H          2.31450        9.38320        2.04040
H          3.68450        8.84250        1.06250
H          0.77320        8.89550        0.11490
H          2.17880        8.48470       -0.87400
H          1.98120       10.12850       -0.26610
H          0.44610       -4.90910       -3.96630
H          2.85410       -3.11220       -6.52740
H         -0.46450       -8.41400       -7.14370
H          2.73810       -6.77860      -10.58820
