
  xtb     02102217453D
 energy: -215.736249177646 gnorm: 0.000309027712 xtb: 6.4.1 (unknown)
120133  0     0  0            999 V2000
   -5.4732   -3.4217   -3.8450 C   0  0  0  0  0  0  0  0  0  0  0  0
   -4.9322   -3.9119   -5.0100 C   0  0  0  0  0  0  0  0  0  0  0  0
   -3.5382   -3.7635   -5.4328 C   0  0  0  0  0  0  0  0  0  0  0  0
   -2.6266   -3.2483   -4.8112 O   0  0  0  0  0  0  0  0  0  0  0  0
   -3.4638   -4.3599   -6.7823 C   0  0  0  0  0  0  0  0  0  0  0  0
   -2.3991   -4.4777   -7.6562 C   0  0  0  0  0  0  0  0  0  0  0  0
   -1.1859   -4.0173   -7.3311 F   0  0  0  0  0  0  0  0  0  0  0  0
   -2.5802   -5.0821   -8.8943 C   0  0  0  0  0  0  0  0  0  0  0  0
   -3.8303   -5.5615   -9.2430 C   0  0  0  0  0  0  0  0  0  0  0  0
   -4.9153   -5.4570   -8.3802 C   0  0  0  0  0  0  0  0  0  0  0  0
   -4.7300   -4.8559   -7.1468 C   0  0  0  0  0  0  0  0  0  0  0  0
   -5.6608   -4.6136   -6.0411 C   0  0  0  0  0  0  0  0  0  0  0  0
   -6.9682   -5.0279   -6.0014 C   0  0  0  0  0  0  0  0  0  0  0  0
   -7.6169   -5.7067   -7.0539 C   0  0  0  0  0  0  0  0  0  0  0  0
   -8.2091   -6.2545   -7.8711 N   0  0  0  0  0  0  0  0  0  0  0  0
   -7.8516   -4.8720   -4.9118 C   0  0  0  0  0  0  0  0  0  0  0  0
   -8.6321   -4.8088   -4.0708 N   0  0  0  0  0  0  0  0  0  0  0  0
   -4.8734   -2.7679   -2.7673 C   0  0  0  0  0  0  0  0  0  0  0  0
   -5.6219   -2.3612   -1.6457 C   0  0  0  0  0  0  0  0  0  0  0  0
   -7.0869   -2.4709   -1.5848 C   0  0  0  0  0  0  0  0  0  0  0  0
   -7.8427   -1.6367   -2.4043 C   0  0  0  0  0  0  0  0  0  0  0  0
   -9.2220   -1.6998   -2.3903 C   0  0  0  0  0  0  0  0  0  0  0  0
   -9.8564   -2.6075   -1.5604 C   0  0  0  0  0  0  0  0  0  0  0  0
   -9.1076   -3.4420   -0.7520 C   0  0  0  0  0  0  0  0  0  0  0  0
   -7.7204   -3.3892   -0.7457 C   0  0  0  0  0  0  0  0  0  0  0  0
   -6.9355   -4.3712    0.0762 C   0  0  0  0  0  0  0  0  0  0  0  0
   -6.5127   -5.5652   -0.7829 C   0  0  0  0  0  0  0  0  0  0  0  0
   -4.8119   -1.8128   -0.6621 C   0  0  0  0  0  0  0  0  0  0  0  0
   -5.1530   -1.1460    0.9239 S   0  0  0  0  0  0  0  0  0  0  0  0
   -3.4635   -0.8214    1.1108 C   0  0  0  0  0  0  0  0  0  0  0  0
   -2.5821   -0.3260    2.0792 C   0  0  0  0  0  0  0  0  0  0  0  0
   -2.7942    0.0409    3.4272 C   0  0  0  0  0  0  0  0  0  0  0  0
   -1.6589    0.3533    4.2453 C   0  0  0  0  0  0  0  0  0  0  0  0
   -1.9947    0.6101    5.4993 N   0  0  0  0  0  0  0  0  0  0  0  0
   -3.6019    0.4765    5.6381 S   0  0  0  0  0  0  0  0  0  0  0  0
   -3.9314    0.0829    4.1027 N   0  0  0  0  0  0  0  0  0  0  0  0
   -0.3808    0.4143    3.6456 C   0  0  0  0  0  0  0  0  0  0  0  0
    0.8577    0.8187    4.1612 C   0  0  0  0  0  0  0  0  0  0  0  0
    1.5469    1.3194    5.6672 S   0  0  0  0  0  0  0  0  0  0  0  0
    3.0713    1.5742    4.8398 C   0  0  0  0  0  0  0  0  0  0  0  0
    4.3062    2.0352    5.2726 C   0  0  0  0  0  0  0  0  0  0  0  0
    4.6162    2.3796    6.6691 C   0  0  0  0  0  0  0  0  0  0  0  0
    4.7735    3.7037    7.0833 C   0  0  0  0  0  0  0  0  0  0  0  0
    4.5391    4.8530    6.1449 C   0  0  0  0  0  0  0  0  0  0  0  0
    3.0511    5.2097    6.1135 C   0  0  0  0  0  0  0  0  0  0  0  0
    5.0747    3.9485    8.4161 C   0  0  0  0  0  0  0  0  0  0  0  0
    5.2205    2.9137    9.3206 C   0  0  0  0  0  0  0  0  0  0  0  0
    5.0483    1.6043    8.9061 C   0  0  0  0  0  0  0  0  0  0  0  0
    4.7437    1.3400    7.5850 C   0  0  0  0  0  0  0  0  0  0  0  0
    5.2389    2.0901    4.2216 C   0  0  0  0  0  0  0  0  0  0  0  0
    4.5428    1.5696    2.6886 S   0  0  0  0  0  0  0  0  0  0  0  0
    3.0283    1.2839    3.4636 C   0  0  0  0  0  0  0  0  0  0  0  0
    1.7581    0.8385    3.0885 C   0  0  0  0  0  0  0  0  0  0  0  0
    1.1348    0.4238    1.9396 N   0  0  0  0  0  0  0  0  0  0  0  0
   -0.1843    0.1457    2.2590 C   0  0  0  0  0  0  0  0  0  0  0  0
   -1.2757   -0.3581    1.5045 C   0  0  0  0  0  0  0  0  0  0  0  0
   -1.3693   -0.9144    0.2457 N   0  0  0  0  0  0  0  0  0  0  0  0
   -2.6882   -1.1897    0.0025 C   0  0  0  0  0  0  0  0  0  0  0  0
   -3.4484   -1.7736   -1.0132 C   0  0  0  0  0  0  0  0  0  0  0  0
   -3.1552   -2.4333   -2.5793 S   0  0  0  0  0  0  0  0  0  0  0  0
   -0.3505   -1.4809   -0.6097 C   0  0  0  0  0  0  0  0  0  0  0  0
   -0.1554   -0.6732   -1.8918 C   0  0  0  0  0  0  0  0  0  0  0  0
    1.7089    0.8266    0.6725 C   0  0  0  0  0  0  0  0  0  0  0  0
    1.1750    2.1921    0.2452 C   0  0  0  0  0  0  0  0  0  0  0  0
    6.5564    2.5092    4.4309 C   0  0  0  0  0  0  0  0  0  0  0  0
    7.6080    2.6183    3.5543 C   0  0  0  0  0  0  0  0  0  0  0  0
    7.5932    2.2361    2.1404 C   0  0  0  0  0  0  0  0  0  0  0  0
    6.6441    1.8419    1.4833 O   0  0  0  0  0  0  0  0  0  0  0  0
    8.9741    2.4148    1.6555 C   0  0  0  0  0  0  0  0  0  0  0  0
    9.4857    2.1632    0.3979 C   0  0  0  0  0  0  0  0  0  0  0  0
   10.8349    2.3923    0.1517 C   0  0  0  0  0  0  0  0  0  0  0  0
   11.4592    2.1428   -1.1819 C   0  0  0  0  0  0  0  0  0  0  0  0
   11.6098    2.8724    1.2091 C   0  0  0  0  0  0  0  0  0  0  0  0
   12.9182    3.0928    0.9815 F   0  0  0  0  0  0  0  0  0  0  0  0
   11.1199    3.1365    2.4782 C   0  0  0  0  0  0  0  0  0  0  0  0
    9.7731    2.9027    2.7035 C   0  0  0  0  0  0  0  0  0  0  0  0
    8.9397    3.0770    3.8922 C   0  0  0  0  0  0  0  0  0  0  0  0
    9.3578    3.6243    5.0776 C   0  0  0  0  0  0  0  0  0  0  0  0
    8.5458    3.8856    6.2011 C   0  0  0  0  0  0  0  0  0  0  0  0
    7.9603    4.1570    7.1517 N   0  0  0  0  0  0  0  0  0  0  0  0
   10.6818    4.0442    5.3256 C   0  0  0  0  0  0  0  0  0  0  0  0
   11.7394    4.4020    5.5924 N   0  0  0  0  0  0  0  0  0  0  0  0
   -6.5408   -3.5530   -3.7130 H   0  0  0  0  0  0  0  0  0  0  0  0
   -1.7405   -5.1672   -9.5658 H   0  0  0  0  0  0  0  0  0  0  0  0
   -3.9670   -6.0279  -10.2064 H   0  0  0  0  0  0  0  0  0  0  0  0
   -5.8759   -5.8395   -8.6814 H   0  0  0  0  0  0  0  0  0  0  0  0
   -7.3350   -0.9324   -3.0487 H   0  0  0  0  0  0  0  0  0  0  0  0
   -9.7975   -1.0475   -3.0295 H   0  0  0  0  0  0  0  0  0  0  0  0
  -10.9338   -2.6708   -1.5501 H   0  0  0  0  0  0  0  0  0  0  0  0
   -9.6058   -4.1583   -0.1152 H   0  0  0  0  0  0  0  0  0  0  0  0
   -7.5554   -4.7264    0.9011 H   0  0  0  0  0  0  0  0  0  0  0  0
   -6.0491   -3.8974    0.5004 H   0  0  0  0  0  0  0  0  0  0  0  0
   -7.3825   -6.0129   -1.2581 H   0  0  0  0  0  0  0  0  0  0  0  0
   -5.8233   -5.2521   -1.5642 H   0  0  0  0  0  0  0  0  0  0  0  0
   -6.0213   -6.3178   -0.1707 H   0  0  0  0  0  0  0  0  0  0  0  0
    4.8692    4.6032    5.1350 H   0  0  0  0  0  0  0  0  0  0  0  0
    5.1132    5.7168    6.4834 H   0  0  0  0  0  0  0  0  0  0  0  0
    2.7061    5.4782    7.1091 H   0  0  0  0  0  0  0  0  0  0  0  0
    2.8756    6.0500    5.4457 H   0  0  0  0  0  0  0  0  0  0  0  0
    2.4633    4.3622    5.7675 H   0  0  0  0  0  0  0  0  0  0  0  0
    5.2056    4.9691    8.7426 H   0  0  0  0  0  0  0  0  0  0  0  0
    5.4664    3.1281   10.3496 H   0  0  0  0  0  0  0  0  0  0  0  0
    5.1538    0.7899    9.6070 H   0  0  0  0  0  0  0  0  0  0  0  0
    4.6133    0.3218    7.2473 H   0  0  0  0  0  0  0  0  0  0  0  0
   -0.6775   -2.4896   -0.8849 H   0  0  0  0  0  0  0  0  0  0  0  0
    0.5719   -1.5819   -0.0361 H   0  0  0  0  0  0  0  0  0  0  0  0
   -1.0365   -0.7584   -2.5215 H   0  0  0  0  0  0  0  0  0  0  0  0
    0.6928   -1.0645   -2.4463 H   0  0  0  0  0  0  0  0  0  0  0  0
    0.0127    0.3794   -1.6806 H   0  0  0  0  0  0  0  0  0  0  0  0
    1.5174    0.0902   -0.1009 H   0  0  0  0  0  0  0  0  0  0  0  0
    2.7898    0.8847    0.8222 H   0  0  0  0  0  0  0  0  0  0  0  0
    1.4131    2.9418    0.9960 H   0  0  0  0  0  0  0  0  0  0  0  0
    1.6300    2.4887   -0.6957 H   0  0  0  0  0  0  0  0  0  0  0  0
    0.0940    2.1604    0.1220 H   0  0  0  0  0  0  0  0  0  0  0  0
    6.7515    2.7757    5.4635 H   0  0  0  0  0  0  0  0  0  0  0  0
    8.8380    1.7916   -0.3814 H   0  0  0  0  0  0  0  0  0  0  0  0
   11.8915    3.0636   -1.5722 H   0  0  0  0  0  0  0  0  0  0  0  0
   12.2692    1.4202   -1.0882 H   0  0  0  0  0  0  0  0  0  0  0  0
   10.7253    1.7663   -1.8883 H   0  0  0  0  0  0  0  0  0  0  0  0
   11.7908    3.5052    3.2361 H   0  0  0  0  0  0  0  0  0  0  0  0
  1  2  2  0  0  0  0
  2  3  1  0  0  0  0
  3  4  2  0  0  0  0
  3  5  1  0  0  0  0
  5  6  2  0  0  0  0
  6  7  1  0  0  0  0
  6  8  1  0  0  0  0
  8  9  2  0  0  0  0
  9 10  1  0  0  0  0
 10 11  2  0  0  0  0
 11 12  1  0  0  0  0
 12 13  2  0  0  0  0
 13 14  1  0  0  0  0
 14 15  3  0  0  0  0
 13 16  1  0  0  0  0
 16 17  3  0  0  0  0
  1 18  1  0  0  0  0
 18 19  2  0  0  0  0
 19 20  1  0  0  0  0
 20 21  2  0  0  0  0
 21 22  1  0  0  0  0
 22 23  2  0  0  0  0
 23 24  1  0  0  0  0
 24 25  2  0  0  0  0
 25 26  1  0  0  0  0
 26 27  1  0  0  0  0
 19 28  1  0  0  0  0
 28 29  1  0  0  0  0
 29 30  1  0  0  0  0
 30 31  1  0  0  0  0
 31 32  1  0  0  0  0
 32 33  1  0  0  0  0
 33 34  2  0  0  0  0
 34 35  1  0  0  0  0
 35 36  1  0  0  0  0
 33 37  1  0  0  0  0
 37 38  1  0  0  0  0
 38 39  1  0  0  0  0
 39 40  1  0  0  0  0
 40 41  1  0  0  0  0
 41 42  1  0  0  0  0
 42 43  2  0  0  0  0
 43 44  1  0  0  0  0
 44 45  1  0  0  0  0
 43 46  1  0  0  0  0
 46 47  2  0  0  0  0
 47 48  1  0  0  0  0
 48 49  2  0  0  0  0
 41 50  2  0  0  0  0
 50 51  1  0  0  0  0
 51 52  1  0  0  0  0
 52 53  1  0  0  0  0
 53 54  1  0  0  0  0
 54 55  1  0  0  0  0
 55 56  1  0  0  0  0
 56 57  1  0  0  0  0
 57 58  1  0  0  0  0
 58 59  1  0  0  0  0
 59 60  1  0  0  0  0
 57 61  1  0  0  0  0
 61 62  1  0  0  0  0
 54 63  1  0  0  0  0
 63 64  1  0  0  0  0
 50 65  1  0  0  0  0
 65 66  2  0  0  0  0
 66 67  1  0  0  0  0
 67 68  2  0  0  0  0
 67 69  1  0  0  0  0
 69 70  2  0  0  0  0
 70 71  1  0  0  0  0
 71 72  1  0  0  0  0
 71 73  2  0  0  0  0
 73 74  1  0  0  0  0
 73 75  1  0  0  0  0
 75 76  2  0  0  0  0
 76 77  1  0  0  0  0
 77 78  2  0  0  0  0
 78 79  1  0  0  0  0
 79 80  3  0  0  0  0
 78 81  1  0  0  0  0
 81 82  3  0  0  0  0
 12  2  1  0  0  0  0
 60 18  1  0  0  0  0
 77 66  1  0  0  0  0
 11  5  1  0  0  0  0
 25 20  1  0  0  0  0
 59 28  2  0  0  0  0
 76 69  1  0  0  0  0
 58 30  2  0  0  0  0
 56 31  2  0  0  0  0
 36 32  2  0  0  0  0
 55 37  2  0  0  0  0
 53 38  2  0  0  0  0
 52 40  2  0  0  0  0
 49 42  1  0  0  0  0
  1 83  1  0  0  0  0
  8 84  1  0  0  0  0
  9 85  1  0  0  0  0
 10 86  1  0  0  0  0
 21 87  1  0  0  0  0
 22 88  1  0  0  0  0
 23 89  1  0  0  0  0
 24 90  1  0  0  0  0
 26 91  1  0  0  0  0
 26 92  1  0  0  0  0
 27 93  1  0  0  0  0
 27 94  1  0  0  0  0
 27 95  1  0  0  0  0
 44 96  1  0  0  0  0
 44 97  1  0  0  0  0
 45 98  1  0  0  0  0
 45 99  1  0  0  0  0
 45100  1  0  0  0  0
 46101  1  0  0  0  0
 47102  1  0  0  0  0
 48103  1  0  0  0  0
 49104  1  0  0  0  0
 61105  1  0  0  0  0
 61106  1  0  0  0  0
 62107  1  0  0  0  0
 62108  1  0  0  0  0
 62109  1  0  0  0  0
 63110  1  0  0  0  0
 63111  1  0  0  0  0
 64112  1  0  0  0  0
 64113  1  0  0  0  0
 64114  1  0  0  0  0
 65115  1  0  0  0  0
 70116  1  0  0  0  0
 72117  1  0  0  0  0
 72118  1  0  0  0  0
 72119  1  0  0  0  0
 75120  1  0  0  0  0
M  END
