
  xtb     02102218573D
 energy: -210.304397013753 gnorm: 0.000545993396 xtb: 6.4.1 (unknown)
121133  0     0  0            999 V2000
    1.6906   -7.5030    2.3745 C   0  0  0  0  0  0  0  0  0  0  0  0
    2.5476   -8.3125    3.0764 C   0  0  0  0  0  0  0  0  0  0  0  0
    3.7257   -7.8310    3.8248 C   0  0  0  0  0  0  0  0  0  0  0  0
    4.1153   -6.6890    3.9226 O   0  0  0  0  0  0  0  0  0  0  0  0
    4.4145   -9.0509    4.2969 C   0  0  0  0  0  0  0  0  0  0  0  0
    5.5533   -9.1928    5.0663 C   0  0  0  0  0  0  0  0  0  0  0  0
    6.2014   -8.1215    5.5391 F   0  0  0  0  0  0  0  0  0  0  0  0
    6.0342  -10.4607    5.3686 C   0  0  0  0  0  0  0  0  0  0  0  0
    5.3705  -11.5747    4.8849 C   0  0  0  0  0  0  0  0  0  0  0  0
    4.2224  -11.4573    4.1104 C   0  0  0  0  0  0  0  0  0  0  0  0
    3.7424  -10.1910    3.8206 C   0  0  0  0  0  0  0  0  0  0  0  0
    2.5678   -9.7545    3.0630 C   0  0  0  0  0  0  0  0  0  0  0  0
    1.6116  -10.5818    2.5298 C   0  0  0  0  0  0  0  0  0  0  0  0
    1.6680  -11.9899    2.5626 C   0  0  0  0  0  0  0  0  0  0  0  0
    1.6548  -13.1381    2.5489 N   0  0  0  0  0  0  0  0  0  0  0  0
    0.4290  -10.1417    1.9001 C   0  0  0  0  0  0  0  0  0  0  0  0
   -0.5650   -9.8592    1.3985 N   0  0  0  0  0  0  0  0  0  0  0  0
    1.4637   -6.1261    2.5525 C   0  0  0  0  0  0  0  0  0  0  0  0
    1.5612   -5.3081    3.6823 C   0  0  0  0  0  0  0  0  0  0  0  0
    1.8719   -5.8063    5.0242 C   0  0  0  0  0  0  0  0  0  0  0  0
    1.1448   -6.9099    5.4730 C   0  0  0  0  0  0  0  0  0  0  0  0
    1.3592   -7.4390    6.7279 C   0  0  0  0  0  0  0  0  0  0  0  0
    2.3046   -6.8577    7.5576 C   0  0  0  0  0  0  0  0  0  0  0  0
    3.0227   -5.7625    7.1201 C   0  0  0  0  0  0  0  0  0  0  0  0
    2.8393   -5.2217    5.8516 C   0  0  0  0  0  0  0  0  0  0  0  0
    3.6930   -4.0694    5.4002 C   0  0  0  0  0  0  0  0  0  0  0  0
    5.1770   -4.2660    5.7062 C   0  0  0  0  0  0  0  0  0  0  0  0
    1.1424   -4.0012    3.3980 C   0  0  0  0  0  0  0  0  0  0  0  0
    0.9786   -2.5699    4.3920 S   0  0  0  0  0  0  0  0  0  0  0  0
    0.4046   -1.7048    3.0100 C   0  0  0  0  0  0  0  0  0  0  0  0
    0.0194   -0.4050    2.6572 C   0  0  0  0  0  0  0  0  0  0  0  0
    0.0416    0.7935    3.4041 C   0  0  0  0  0  0  0  0  0  0  0  0
   -0.2616    2.0259    2.7401 C   0  0  0  0  0  0  0  0  0  0  0  0
   -0.1444    3.0741    3.5399 N   0  0  0  0  0  0  0  0  0  0  0  0
    0.3029    2.5526    5.0055 S   0  0  0  0  0  0  0  0  0  0  0  0
    0.3682    0.9694    4.6747 N   0  0  0  0  0  0  0  0  0  0  0  0
   -0.6738    1.9886    1.3896 C   0  0  0  0  0  0  0  0  0  0  0  0
   -1.1014    3.0131    0.5364 C   0  0  0  0  0  0  0  0  0  0  0  0
   -1.2824    4.7342    0.5456 S   0  0  0  0  0  0  0  0  0  0  0  0
   -1.9015    4.6399   -1.0939 C   0  0  0  0  0  0  0  0  0  0  0  0
   -2.3494    5.6044   -1.9868 C   0  0  0  0  0  0  0  0  0  0  0  0
   -2.4160    7.0448   -1.7011 C   0  0  0  0  0  0  0  0  0  0  0  0
   -1.2586    7.8129   -1.5496 C   0  0  0  0  0  0  0  0  0  0  0  0
    0.1075    7.2298   -1.7758 C   0  0  0  0  0  0  0  0  0  0  0  0
    0.4061    7.1214   -3.2726 C   0  0  0  0  0  0  0  0  0  0  0  0
   -1.3962    9.1648   -1.2648 C   0  0  0  0  0  0  0  0  0  0  0  0
   -2.6419    9.7495   -1.1268 C   0  0  0  0  0  0  0  0  0  0  0  0
   -3.7840    8.9840   -1.2841 C   0  0  0  0  0  0  0  0  0  0  0  0
   -3.6689    7.6383   -1.5739 C   0  0  0  0  0  0  0  0  0  0  0  0
   -2.7791    5.0322   -3.1992 C   0  0  0  0  0  0  0  0  0  0  0  0
   -2.6157    3.2790   -3.1998 S   0  0  0  0  0  0  0  0  0  0  0  0
   -1.9734    3.3290   -1.5996 C   0  0  0  0  0  0  0  0  0  0  0  0
   -1.5035    2.4065   -0.6592 C   0  0  0  0  0  0  0  0  0  0  0  0
   -1.3164    1.0523   -0.5839 N   0  0  0  0  0  0  0  0  0  0  0  0
   -0.7889    0.7653    0.6631 C   0  0  0  0  0  0  0  0  0  0  0  0
   -0.3362   -0.4340    1.2764 C   0  0  0  0  0  0  0  0  0  0  0  0
   -0.1440   -1.7234    0.8087 N   0  0  0  0  0  0  0  0  0  0  0  0
    0.3136   -2.4839    1.8508 C   0  0  0  0  0  0  0  0  0  0  0  0
    0.7278   -3.8000    2.0716 C   0  0  0  0  0  0  0  0  0  0  0  0
    0.8235   -5.2549    1.1564 S   0  0  0  0  0  0  0  0  0  0  0  0
   -0.0162   -2.2201   -0.5431 C   0  0  0  0  0  0  0  0  0  0  0  0
    1.1150   -1.5196   -1.2915 C   0  0  0  0  0  0  0  0  0  0  0  0
   -1.9771    0.1945   -1.5435 C   0  0  0  0  0  0  0  0  0  0  0  0
   -3.1392   -0.5632   -0.9067 C   0  0  0  0  0  0  0  0  0  0  0  0
   -3.2204    5.8121   -4.2674 C   0  0  0  0  0  0  0  0  0  0  0  0
   -3.6685    5.5027   -5.5345 C   0  0  0  0  0  0  0  0  0  0  0  0
   -3.8022    4.1615   -6.0422 C   0  0  0  0  0  0  0  0  0  0  0  0
   -3.5411    3.1532   -5.3947 O   0  0  0  0  0  0  0  0  0  0  0  0
   -4.2472    4.0312   -7.3471 N   0  0  0  0  0  0  0  0  0  0  0  0
   -4.3781    2.6715   -7.8588 C   0  0  0  0  0  0  0  0  0  0  0  0
   -5.7854    2.1324   -7.6402 C   0  0  0  0  0  0  0  0  0  0  0  0
   -4.6045    5.0833   -8.1454 C   0  0  0  0  0  0  0  0  0  0  0  0
   -5.1525    4.8241   -9.6821 S   0  0  0  0  0  0  0  0  0  0  0  0
   -4.4984    6.3465   -7.6435 N   0  0  0  0  0  0  0  0  0  0  0  0
   -4.8568    7.4828   -8.4847 C   0  0  0  0  0  0  0  0  0  0  0  0
   -3.6844    7.9191   -9.3530 C   0  0  0  0  0  0  0  0  0  0  0  0
   -4.0231    6.6455   -6.3712 C   0  0  0  0  0  0  0  0  0  0  0  0
   -3.9293    7.8009   -6.0054 O   0  0  0  0  0  0  0  0  0  0  0  0
    1.1237   -7.9500    1.5653 H   0  0  0  0  0  0  0  0  0  0  0  0
    6.9208  -10.5571    5.9751 H   0  0  0  0  0  0  0  0  0  0  0  0
    5.7521  -12.5575    5.1151 H   0  0  0  0  0  0  0  0  0  0  0  0
    3.7296  -12.3435    3.7465 H   0  0  0  0  0  0  0  0  0  0  0  0
    0.3909   -7.3408    4.8284 H   0  0  0  0  0  0  0  0  0  0  0  0
    0.7863   -8.2920    7.0603 H   0  0  0  0  0  0  0  0  0  0  0  0
    2.4787   -7.2586    8.5452 H   0  0  0  0  0  0  0  0  0  0  0  0
    3.7510   -5.3167    7.7791 H   0  0  0  0  0  0  0  0  0  0  0  0
    3.3401   -3.1554    5.8889 H   0  0  0  0  0  0  0  0  0  0  0  0
    3.5858   -3.9428    4.3235 H   0  0  0  0  0  0  0  0  0  0  0  0
    5.3764   -4.2504    6.7740 H   0  0  0  0  0  0  0  0  0  0  0  0
    5.7534   -3.4677    5.2442 H   0  0  0  0  0  0  0  0  0  0  0  0
    5.5103   -5.2166    5.3008 H   0  0  0  0  0  0  0  0  0  0  0  0
    0.8549    7.8725   -1.3074 H   0  0  0  0  0  0  0  0  0  0  0  0
    0.1834    6.2415   -1.3215 H   0  0  0  0  0  0  0  0  0  0  0  0
    1.4136    6.7430   -3.4298 H   0  0  0  0  0  0  0  0  0  0  0  0
   -0.2959    6.4465   -3.7574 H   0  0  0  0  0  0  0  0  0  0  0  0
    0.3231    8.0967   -3.7468 H   0  0  0  0  0  0  0  0  0  0  0  0
   -0.5072    9.7686   -1.1526 H   0  0  0  0  0  0  0  0  0  0  0  0
   -2.7211   10.8027   -0.9026 H   0  0  0  0  0  0  0  0  0  0  0  0
   -4.7608    9.4322   -1.1849 H   0  0  0  0  0  0  0  0  0  0  0  0
   -4.5536    7.0297   -1.6942 H   0  0  0  0  0  0  0  0  0  0  0  0
   -0.9643   -2.1363   -1.0737 H   0  0  0  0  0  0  0  0  0  0  0  0
    0.2119   -3.2856   -0.4619 H   0  0  0  0  0  0  0  0  0  0  0  0
    0.9576   -0.4442   -1.3285 H   0  0  0  0  0  0  0  0  0  0  0  0
    1.1797   -1.9016   -2.3066 H   0  0  0  0  0  0  0  0  0  0  0  0
    2.0623   -1.7062   -0.7909 H   0  0  0  0  0  0  0  0  0  0  0  0
   -1.2629   -0.4817   -2.0135 H   0  0  0  0  0  0  0  0  0  0  0  0
   -2.3624    0.8490   -2.3288 H   0  0  0  0  0  0  0  0  0  0  0  0
   -3.6097   -1.2063   -1.6453 H   0  0  0  0  0  0  0  0  0  0  0  0
   -3.8823    0.1403   -0.5386 H   0  0  0  0  0  0  0  0  0  0  0  0
   -2.8060   -1.1720   -0.0693 H   0  0  0  0  0  0  0  0  0  0  0  0
   -3.2018    6.8818   -4.0702 H   0  0  0  0  0  0  0  0  0  0  0  0
   -4.1339    2.6834   -8.9221 H   0  0  0  0  0  0  0  0  0  0  0  0
   -3.6530    2.0612   -7.3176 H   0  0  0  0  0  0  0  0  0  0  0  0
   -6.0278    2.1342   -6.5801 H   0  0  0  0  0  0  0  0  0  0  0  0
   -6.5113    2.7410   -8.1741 H   0  0  0  0  0  0  0  0  0  0  0  0
   -5.8453    1.1139   -8.0122 H   0  0  0  0  0  0  0  0  0  0  0  0
   -5.7071    7.1945   -9.1047 H   0  0  0  0  0  0  0  0  0  0  0  0
   -5.1444    8.2909   -7.8098 H   0  0  0  0  0  0  0  0  0  0  0  0
   -3.9766    8.7771   -9.9511 H   0  0  0  0  0  0  0  0  0  0  0  0
   -2.8394    8.1985   -8.7280 H   0  0  0  0  0  0  0  0  0  0  0  0
   -3.3852    7.1146  -10.0208 H   0  0  0  0  0  0  0  0  0  0  0  0
  1  2  2  0  0  0  0
  2  3  1  0  0  0  0
  3  4  2  0  0  0  0
  3  5  1  0  0  0  0
  5  6  2  0  0  0  0
  6  7  1  0  0  0  0
  6  8  1  0  0  0  0
  8  9  2  0  0  0  0
  9 10  1  0  0  0  0
 10 11  2  0  0  0  0
 11 12  1  0  0  0  0
 12 13  2  0  0  0  0
 13 14  1  0  0  0  0
 14 15  3  0  0  0  0
 13 16  1  0  0  0  0
 16 17  3  0  0  0  0
  1 18  1  0  0  0  0
 18 19  2  0  0  0  0
 19 20  1  0  0  0  0
 20 21  2  0  0  0  0
 21 22  1  0  0  0  0
 22 23  2  0  0  0  0
 23 24  1  0  0  0  0
 24 25  2  0  0  0  0
 25 26  1  0  0  0  0
 26 27  1  0  0  0  0
 19 28  1  0  0  0  0
 28 29  1  0  0  0  0
 29 30  1  0  0  0  0
 30 31  1  0  0  0  0
 31 32  1  0  0  0  0
 32 33  1  0  0  0  0
 33 34  2  0  0  0  0
 34 35  1  0  0  0  0
 35 36  1  0  0  0  0
 33 37  1  0  0  0  0
 37 38  1  0  0  0  0
 38 39  1  0  0  0  0
 39 40  1  0  0  0  0
 40 41  1  0  0  0  0
 41 42  1  0  0  0  0
 42 43  2  0  0  0  0
 43 44  1  0  0  0  0
 44 45  1  0  0  0  0
 43 46  1  0  0  0  0
 46 47  2  0  0  0  0
 47 48  1  0  0  0  0
 48 49  2  0  0  0  0
 41 50  2  0  0  0  0
 50 51  1  0  0  0  0
 51 52  1  0  0  0  0
 52 53  1  0  0  0  0
 53 54  1  0  0  0  0
 54 55  1  0  0  0  0
 55 56  1  0  0  0  0
 56 57  1  0  0  0  0
 57 58  1  0  0  0  0
 58 59  1  0  0  0  0
 59 60  1  0  0  0  0
 57 61  1  0  0  0  0
 61 62  1  0  0  0  0
 54 63  1  0  0  0  0
 63 64  1  0  0  0  0
 50 65  1  0  0  0  0
 65 66  2  0  0  0  0
 66 67  1  0  0  0  0
 67 68  2  0  0  0  0
 67 69  1  0  0  0  0
 69 70  1  0  0  0  0
 70 71  1  0  0  0  0
 69 72  1  0  0  0  0
 72 73  2  0  0  0  0
 72 74  1  0  0  0  0
 74 75  1  0  0  0  0
 75 76  1  0  0  0  0
 74 77  1  0  0  0  0
 77 78  2  0  0  0  0
 12  2  1  0  0  0  0
 60 18  1  0  0  0  0
 77 66  1  0  0  0  0
 11  5  1  0  0  0  0
 25 20  1  0  0  0  0
 59 28  2  0  0  0  0
 58 30  2  0  0  0  0
 56 31  2  0  0  0  0
 36 32  2  0  0  0  0
 55 37  2  0  0  0  0
 53 38  2  0  0  0  0
 52 40  2  0  0  0  0
 49 42  1  0  0  0  0
  1 79  1  0  0  0  0
  8 80  1  0  0  0  0
  9 81  1  0  0  0  0
 10 82  1  0  0  0  0
 21 83  1  0  0  0  0
 22 84  1  0  0  0  0
 23 85  1  0  0  0  0
 24 86  1  0  0  0  0
 26 87  1  0  0  0  0
 26 88  1  0  0  0  0
 27 89  1  0  0  0  0
 27 90  1  0  0  0  0
 27 91  1  0  0  0  0
 44 92  1  0  0  0  0
 44 93  1  0  0  0  0
 45 94  1  0  0  0  0
 45 95  1  0  0  0  0
 45 96  1  0  0  0  0
 46 97  1  0  0  0  0
 47 98  1  0  0  0  0
 48 99  1  0  0  0  0
 49100  1  0  0  0  0
 61101  1  0  0  0  0
 61102  1  0  0  0  0
 62103  1  0  0  0  0
 62104  1  0  0  0  0
 62105  1  0  0  0  0
 63106  1  0  0  0  0
 63107  1  0  0  0  0
 64108  1  0  0  0  0
 64109  1  0  0  0  0
 64110  1  0  0  0  0
 65111  1  0  0  0  0
 70112  1  0  0  0  0
 70113  1  0  0  0  0
 71114  1  0  0  0  0
 71115  1  0  0  0  0
 71116  1  0  0  0  0
 75117  1  0  0  0  0
 75118  1  0  0  0  0
 76119  1  0  0  0  0
 76120  1  0  0  0  0
 76121  1  0  0  0  0
M  END
