
  xtb     02102217543D
 energy: -193.426222745063 gnorm: 0.000754319858 xtb: 6.4.1 (unknown)
116127  0     0  0            999 V2000
   -5.0838   -7.5625   -3.4910 C   0  0  0  0  0  0  0  0  0  0  0  0
   -6.3002   -7.8127   -4.0697 C   0  0  0  0  0  0  0  0  0  0  0  0
   -6.8725   -9.1772   -3.9195 C   0  0  0  0  0  0  0  0  0  0  0  0
   -6.2981  -10.1578   -3.5105 O   0  0  0  0  0  0  0  0  0  0  0  0
   -8.2874   -9.0476   -4.3376 C   0  0  0  0  0  0  0  0  0  0  0  0
   -9.3269   -9.9584   -4.3050 C   0  0  0  0  0  0  0  0  0  0  0  0
   -9.1395  -11.2043   -3.8587 F   0  0  0  0  0  0  0  0  0  0  0  0
  -10.5936   -9.5842   -4.7383 C   0  0  0  0  0  0  0  0  0  0  0  0
  -10.8075   -8.2963   -5.1962 C   0  0  0  0  0  0  0  0  0  0  0  0
   -9.7778   -7.3639   -5.2440 C   0  0  0  0  0  0  0  0  0  0  0  0
   -8.5174   -7.7445   -4.8177 C   0  0  0  0  0  0  0  0  0  0  0  0
   -7.2512   -7.0049   -4.7830 C   0  0  0  0  0  0  0  0  0  0  0  0
   -6.9899   -5.8755   -5.5212 C   0  0  0  0  0  0  0  0  0  0  0  0
   -5.7010   -5.3402   -5.7066 C   0  0  0  0  0  0  0  0  0  0  0  0
   -4.6725   -4.8743   -5.9155 N   0  0  0  0  0  0  0  0  0  0  0  0
   -7.9594   -5.1594   -6.2493 C   0  0  0  0  0  0  0  0  0  0  0  0
   -8.7085   -4.5114   -6.8311 N   0  0  0  0  0  0  0  0  0  0  0  0
   -4.4723   -6.3544   -3.1248 C   0  0  0  0  0  0  0  0  0  0  0  0
   -2.7687   -6.4126   -2.6683 S   0  0  0  0  0  0  0  0  0  0  0  0
   -2.7790   -4.7325   -2.3418 C   0  0  0  0  0  0  0  0  0  0  0  0
   -1.9112   -3.7074   -1.9235 C   0  0  0  0  0  0  0  0  0  0  0  0
   -2.7160   -2.5273   -1.8876 C   0  0  0  0  0  0  0  0  0  0  0  0
   -4.0050   -2.8310   -2.2594 N   0  0  0  0  0  0  0  0  0  0  0  0
   -4.0560   -4.1668   -2.5470 C   0  0  0  0  0  0  0  0  0  0  0  0
   -5.0077   -5.0774   -2.9849 C   0  0  0  0  0  0  0  0  0  0  0  0
   -5.0743   -1.8831   -2.3981 C   0  0  0  0  0  0  0  0  0  0  0  0
   -2.1876   -1.3009   -1.5184 C   0  0  0  0  0  0  0  0  0  0  0  0
   -0.8395   -1.2704   -1.1920 C   0  0  0  0  0  0  0  0  0  0  0  0
    0.0156   -0.1999   -0.7732 C   0  0  0  0  0  0  0  0  0  0  0  0
    1.2698   -0.6641   -0.4887 C   0  0  0  0  0  0  0  0  0  0  0  0
    1.3766   -2.1485   -0.7311 C   0  0  0  0  0  0  0  0  0  0  0  0
    1.5698   -2.9688    0.5657 C   0  0  0  0  0  0  0  0  0  0  0  0
    2.7864   -2.6667    1.4281 C   0  0  0  0  0  0  0  0  0  0  0  0
    2.3286   -2.5387   -1.8843 C   0  0  0  0  0  0  0  0  0  0  0  0
    3.7136   -1.9064   -1.8994 C   0  0  0  0  0  0  0  0  0  0  0  0
   -0.0427   -2.4501   -1.1986 C   0  0  0  0  0  0  0  0  0  0  0  0
   -0.5586   -3.6619   -1.5650 C   0  0  0  0  0  0  0  0  0  0  0  0
    2.0806    0.4127    0.0189 C   0  0  0  0  0  0  0  0  0  0  0  0
    1.2506    1.5721    0.0615 C   0  0  0  0  0  0  0  0  0  0  0  0
   -0.1150    1.2750   -0.5291 C   0  0  0  0  0  0  0  0  0  0  0  0
   -0.2045    2.0802   -1.8477 C   0  0  0  0  0  0  0  0  0  0  0  0
   -1.4080    1.7807   -2.7304 C   0  0  0  0  0  0  0  0  0  0  0  0
   -1.2566    1.6246    0.4351 C   0  0  0  0  0  0  0  0  0  0  0  0
   -1.1403    0.8802    1.7600 C   0  0  0  0  0  0  0  0  0  0  0  0
    1.7010    2.7708    0.5411 C   0  0  0  0  0  0  0  0  0  0  0  0
    3.0227    2.8326    0.9955 C   0  0  0  0  0  0  0  0  0  0  0  0
    3.8280    3.8407    1.5579 C   0  0  0  0  0  0  0  0  0  0  0  0
    3.7318    5.4848    2.0436 S   0  0  0  0  0  0  0  0  0  0  0  0
    5.4146    5.4434    2.5644 C   0  0  0  0  0  0  0  0  0  0  0  0
    6.0071    4.2140    2.3329 C   0  0  0  0  0  0  0  0  0  0  0  0
    5.1042    3.2992    1.7951 C   0  0  0  0  0  0  0  0  0  0  0  0
    5.1146    1.9882    1.4054 N   0  0  0  0  0  0  0  0  0  0  0  0
    6.2159    1.0728    1.5053 C   0  0  0  0  0  0  0  0  0  0  0  0
    3.8635    1.6808    0.9258 C   0  0  0  0  0  0  0  0  0  0  0  0
    3.4014    0.4676    0.4396 C   0  0  0  0  0  0  0  0  0  0  0  0
    6.0630    6.5910    3.0787 C   0  0  0  0  0  0  0  0  0  0  0  0
    5.5045    7.6949    3.6412 C   0  0  0  0  0  0  0  0  0  0  0  0
    6.2573    8.9727    3.7066 C   0  0  0  0  0  0  0  0  0  0  0  0
    7.4459    9.1286    3.5396 O   0  0  0  0  0  0  0  0  0  0  0  0
    5.2290   10.0092    3.9488 C   0  0  0  0  0  0  0  0  0  0  0  0
    5.3711   11.3822    3.9656 C   0  0  0  0  0  0  0  0  0  0  0  0
    4.2307   12.1467    4.1664 C   0  0  0  0  0  0  0  0  0  0  0  0
    2.9856   11.5571    4.3086 C   0  0  0  0  0  0  0  0  0  0  0  0
    2.8285   10.1677    4.2853 C   0  0  0  0  0  0  0  0  0  0  0  0
    1.6480    9.5219    4.3356 O   0  0  0  0  0  0  0  0  0  0  0  0
    0.4645   10.2483    4.5730 C   0  0  0  0  0  0  0  0  0  0  0  0
    3.9827    9.3892    4.1434 C   0  0  0  0  0  0  0  0  0  0  0  0
    4.1726    7.9453    4.1637 C   0  0  0  0  0  0  0  0  0  0  0  0
    3.4254    7.0289    4.8545 C   0  0  0  0  0  0  0  0  0  0  0  0
    2.2470    7.2925    5.5822 C   0  0  0  0  0  0  0  0  0  0  0  0
    1.3099    7.3998    6.2368 N   0  0  0  0  0  0  0  0  0  0  0  0
    3.8596    5.6997    5.0520 C   0  0  0  0  0  0  0  0  0  0  0  0
    4.2005    4.6265    5.2768 N   0  0  0  0  0  0  0  0  0  0  0  0
   -4.5441   -8.4609   -3.2034 H   0  0  0  0  0  0  0  0  0  0  0  0
  -11.3932  -10.3074   -4.7090 H   0  0  0  0  0  0  0  0  0  0  0  0
  -11.7944   -8.0096   -5.5251 H   0  0  0  0  0  0  0  0  0  0  0  0
   -9.9732   -6.3660   -5.6006 H   0  0  0  0  0  0  0  0  0  0  0  0
   -6.0473   -4.8593   -3.1496 H   0  0  0  0  0  0  0  0  0  0  0  0
   -4.8041   -1.1031   -3.1142 H   0  0  0  0  0  0  0  0  0  0  0  0
   -5.3021   -1.4162   -1.4364 H   0  0  0  0  0  0  0  0  0  0  0  0
   -5.9618   -2.3962   -2.7606 H   0  0  0  0  0  0  0  0  0  0  0  0
   -2.8014   -0.4165   -1.4824 H   0  0  0  0  0  0  0  0  0  0  0  0
    1.5880   -4.0241    0.2849 H   0  0  0  0  0  0  0  0  0  0  0  0
    0.6775   -2.8111    1.1787 H   0  0  0  0  0  0  0  0  0  0  0  0
    3.7129   -2.8354    0.8874 H   0  0  0  0  0  0  0  0  0  0  0  0
    2.7797   -3.3306    2.2909 H   0  0  0  0  0  0  0  0  0  0  0  0
    2.7595   -1.6436    1.7909 H   0  0  0  0  0  0  0  0  0  0  0  0
    2.4305   -3.6258   -1.8812 H   0  0  0  0  0  0  0  0  0  0  0  0
    1.8300   -2.2614   -2.8174 H   0  0  0  0  0  0  0  0  0  0  0  0
    4.3031   -2.2039   -1.0376 H   0  0  0  0  0  0  0  0  0  0  0  0
    3.6434   -0.8225   -1.9269 H   0  0  0  0  0  0  0  0  0  0  0  0
    4.2426   -2.2351   -2.7923 H   0  0  0  0  0  0  0  0  0  0  0  0
    0.0321   -4.5644   -1.5827 H   0  0  0  0  0  0  0  0  0  0  0  0
    0.7053    1.8807   -2.4198 H   0  0  0  0  0  0  0  0  0  0  0  0
   -0.2044    3.1412   -1.5887 H   0  0  0  0  0  0  0  0  0  0  0  0
   -1.3694    2.4117   -3.6161 H   0  0  0  0  0  0  0  0  0  0  0  0
   -1.4027    0.7432   -3.0531 H   0  0  0  0  0  0  0  0  0  0  0  0
   -2.3408    1.9899   -2.2129 H   0  0  0  0  0  0  0  0  0  0  0  0
   -2.2114    1.3771   -0.0294 H   0  0  0  0  0  0  0  0  0  0  0  0
   -1.2422    2.7007    0.6198 H   0  0  0  0  0  0  0  0  0  0  0  0
   -1.9529    1.1652    2.4244 H   0  0  0  0  0  0  0  0  0  0  0  0
   -0.1977    1.1148    2.2492 H   0  0  0  0  0  0  0  0  0  0  0  0
   -1.1864   -0.1949    1.6002 H   0  0  0  0  0  0  0  0  0  0  0  0
    1.0744    3.6485    0.5838 H   0  0  0  0  0  0  0  0  0  0  0  0
    7.0314    4.0146    2.5906 H   0  0  0  0  0  0  0  0  0  0  0  0
    5.9474    0.2168    2.1294 H   0  0  0  0  0  0  0  0  0  0  0  0
    6.5061    0.7097    0.5157 H   0  0  0  0  0  0  0  0  0  0  0  0
    7.0633    1.5832    1.9565 H   0  0  0  0  0  0  0  0  0  0  0  0
    4.0523   -0.3876    0.3955 H   0  0  0  0  0  0  0  0  0  0  0  0
    7.1389    6.6298    2.9374 H   0  0  0  0  0  0  0  0  0  0  0  0
    6.3410   11.8323    3.8284 H   0  0  0  0  0  0  0  0  0  0  0  0
    4.3047   13.2233    4.1985 H   0  0  0  0  0  0  0  0  0  0  0  0
    2.1217   12.1907    4.4333 H   0  0  0  0  0  0  0  0  0  0  0  0
    0.5238   10.8117    5.5080 H   0  0  0  0  0  0  0  0  0  0  0  0
    0.2388   10.9263    3.7439 H   0  0  0  0  0  0  0  0  0  0  0  0
   -0.3187    9.4975    4.6574 H   0  0  0  0  0  0  0  0  0  0  0  0
  1  2  2  0  0  0  0
  2  3  1  0  0  0  0
  3  4  2  0  0  0  0
  3  5  1  0  0  0  0
  5  6  2  0  0  0  0
  6  7  1  0  0  0  0
  6  8  1  0  0  0  0
  8  9  2  0  0  0  0
  9 10  1  0  0  0  0
 10 11  2  0  0  0  0
 11 12  1  0  0  0  0
 12 13  2  0  0  0  0
 13 14  1  0  0  0  0
 14 15  3  0  0  0  0
 13 16  1  0  0  0  0
 16 17  3  0  0  0  0
  1 18  1  0  0  0  0
 18 19  1  0  0  0  0
 19 20  1  0  0  0  0
 20 21  1  0  0  0  0
 21 22  2  0  0  0  0
 22 23  1  0  0  0  0
 23 24  1  0  0  0  0
 24 25  1  0  0  0  0
 23 26  1  0  0  0  0
 22 27  1  0  0  0  0
 27 28  2  0  0  0  0
 28 29  1  0  0  0  0
 29 30  2  0  0  0  0
 30 31  1  0  0  0  0
 31 32  1  0  0  0  0
 32 33  1  0  0  0  0
 31 34  1  0  0  0  0
 34 35  1  0  0  0  0
 31 36  1  0  0  0  0
 36 37  2  0  0  0  0
 30 38  1  0  0  0  0
 38 39  2  0  0  0  0
 39 40  1  0  0  0  0
 40 41  1  0  0  0  0
 41 42  1  0  0  0  0
 40 43  1  0  0  0  0
 43 44  1  0  0  0  0
 39 45  1  0  0  0  0
 45 46  2  0  0  0  0
 46 47  1  0  0  0  0
 47 48  1  0  0  0  0
 48 49  1  0  0  0  0
 49 50  2  0  0  0  0
 50 51  1  0  0  0  0
 51 52  1  0  0  0  0
 52 53  1  0  0  0  0
 52 54  1  0  0  0  0
 54 55  2  0  0  0  0
 49 56  1  0  0  0  0
 56 57  2  0  0  0  0
 57 58  1  0  0  0  0
 58 59  2  0  0  0  0
 58 60  1  0  0  0  0
 60 61  2  0  0  0  0
 61 62  1  0  0  0  0
 62 63  2  0  0  0  0
 63 64  1  0  0  0  0
 64 65  1  0  0  0  0
 65 66  1  0  0  0  0
 64 67  2  0  0  0  0
 67 68  1  0  0  0  0
 68 69  2  0  0  0  0
 69 70  1  0  0  0  0
 70 71  3  0  0  0  0
 69 72  1  0  0  0  0
 72 73  3  0  0  0  0
 12  2  1  0  0  0  0
 25 18  2  0  0  0  0
 36 28  1  0  0  0  0
 55 38  1  0  0  0  0
 68 57  1  0  0  0  0
 11  5  1  0  0  0  0
 24 20  2  0  0  0  0
 40 29  1  0  0  0  0
 54 46  1  0  0  0  0
 67 60  1  0  0  0  0
 37 21  1  0  0  0  0
 51 47  2  0  0  0  0
  1 74  1  0  0  0  0
  8 75  1  0  0  0  0
  9 76  1  0  0  0  0
 10 77  1  0  0  0  0
 25 78  1  0  0  0  0
 26 79  1  0  0  0  0
 26 80  1  0  0  0  0
 26 81  1  0  0  0  0
 27 82  1  0  0  0  0
 32 83  1  0  0  0  0
 32 84  1  0  0  0  0
 33 85  1  0  0  0  0
 33 86  1  0  0  0  0
 33 87  1  0  0  0  0
 34 88  1  0  0  0  0
 34 89  1  0  0  0  0
 35 90  1  0  0  0  0
 35 91  1  0  0  0  0
 35 92  1  0  0  0  0
 37 93  1  0  0  0  0
 41 94  1  0  0  0  0
 41 95  1  0  0  0  0
 42 96  1  0  0  0  0
 42 97  1  0  0  0  0
 42 98  1  0  0  0  0
 43 99  1  0  0  0  0
 43100  1  0  0  0  0
 44101  1  0  0  0  0
 44102  1  0  0  0  0
 44103  1  0  0  0  0
 45104  1  0  0  0  0
 50105  1  0  0  0  0
 53106  1  0  0  0  0
 53107  1  0  0  0  0
 53108  1  0  0  0  0
 55109  1  0  0  0  0
 56110  1  0  0  0  0
 61111  1  0  0  0  0
 62112  1  0  0  0  0
 63113  1  0  0  0  0
 66114  1  0  0  0  0
 66115  1  0  0  0  0
 66116  1  0  0  0  0
M  END
