121

C          1.69060       -7.50300        2.37450
C          2.54760       -8.31250        3.07640
C          3.72570       -7.83100        3.82480
O          4.11530       -6.68900        3.92260
C          4.41450       -9.05090        4.29690
C          5.55330       -9.19280        5.06630
F          6.20140       -8.12150        5.53910
C          6.03420      -10.46070        5.36860
C          5.37050      -11.57470        4.88490
C          4.22240      -11.45730        4.11040
C          3.74240      -10.19100        3.82060
C          2.56780       -9.75450        3.06300
C          1.61160      -10.58180        2.52980
C          1.66800      -11.98990        2.56260
N          1.65480      -13.13810        2.54890
C          0.42900      -10.14170        1.90010
N         -0.56500       -9.85920        1.39850
C          1.46370       -6.12610        2.55250
C          1.56120       -5.30810        3.68230
C          1.87190       -5.80630        5.02420
C          1.14480       -6.90990        5.47300
C          1.35920       -7.43900        6.72790
C          2.30460       -6.85770        7.55760
C          3.02270       -5.76250        7.12010
C          2.83930       -5.22170        5.85160
C          3.69300       -4.06940        5.40020
C          5.17700       -4.26600        5.70620
C          1.14240       -4.00120        3.39800
S          0.97860       -2.56990        4.39200
C          0.40460       -1.70480        3.01000
C          0.01940       -0.40500        2.65720
C          0.04160        0.79350        3.40410
C         -0.26160        2.02590        2.74010
N         -0.14440        3.07410        3.53990
S          0.30290        2.55260        5.00550
N          0.36820        0.96940        4.67470
C         -0.67380        1.98860        1.38960
C         -1.10140        3.01310        0.53640
S         -1.28240        4.73420        0.54560
C         -1.90150        4.63990       -1.09390
C         -2.34940        5.60440       -1.98680
C         -2.41600        7.04480       -1.70110
C         -1.25860        7.81290       -1.54960
C          0.10750        7.22980       -1.77580
C          0.40610        7.12140       -3.27260
C         -1.39620        9.16480       -1.26480
C         -2.64190        9.74950       -1.12680
C         -3.78400        8.98400       -1.28410
C         -3.66890        7.63830       -1.57390
C         -2.77910        5.03220       -3.19920
S         -2.61570        3.27900       -3.19980
C         -1.97340        3.32900       -1.59960
C         -1.50350        2.40650       -0.65920
N         -1.31640        1.05230       -0.58390
C         -0.78890        0.76530        0.66310
C         -0.33620       -0.43400        1.27640
N         -0.14400       -1.72340        0.80870
C          0.31360       -2.48390        1.85080
C          0.72780       -3.80000        2.07160
S          0.82350       -5.25490        1.15640
C         -0.01620       -2.22010       -0.54310
C          1.11500       -1.51960       -1.29150
C         -1.97710        0.19450       -1.54350
C         -3.13920       -0.56320       -0.90670
C         -3.22040        5.81210       -4.26740
C         -3.66850        5.50270       -5.53450
C         -3.80220        4.16150       -6.04220
O         -3.54110        3.15320       -5.39470
N         -4.24720        4.03120       -7.34710
C         -4.37810        2.67150       -7.85880
C         -5.78540        2.13240       -7.64020
C         -4.60450        5.08330       -8.14540
S         -5.15250        4.82410       -9.68210
N         -4.49840        6.34650       -7.64350
C         -4.85680        7.48280       -8.48470
C         -3.68440        7.91910       -9.35300
C         -4.02310        6.64550       -6.37120
O         -3.92930        7.80090       -6.00540
H          1.12370       -7.95000        1.56530
H          6.92080      -10.55710        5.97510
H          5.75210      -12.55750        5.11510
H          3.72960      -12.34350        3.74650
H          0.39090       -7.34080        4.82840
H          0.78630       -8.29200        7.06030
H          2.47870       -7.25860        8.54520
H          3.75100       -5.31670        7.77910
H          3.34010       -3.15540        5.88890
H          3.58580       -3.94280        4.32350
H          5.37640       -4.25040        6.77400
H          5.75340       -3.46770        5.24420
H          5.51030       -5.21660        5.30080
H          0.85490        7.87250       -1.30740
H          0.18340        6.24150       -1.32150
H          1.41360        6.74300       -3.42980
H         -0.29590        6.44650       -3.75740
H          0.32310        8.09670       -3.74680
H         -0.50720        9.76860       -1.15260
H         -2.72110       10.80270       -0.90260
H         -4.76080        9.43220       -1.18490
H         -4.55360        7.02970       -1.69420
H         -0.96430       -2.13630       -1.07370
H          0.21190       -3.28560       -0.46190
H          0.95760       -0.44420       -1.32850
H          1.17970       -1.90160       -2.30660
H          2.06230       -1.70620       -0.79090
H         -1.26290       -0.48170       -2.01350
H         -2.36240        0.84900       -2.32880
H         -3.60970       -1.20630       -1.64530
H         -3.88230        0.14030       -0.53860
H         -2.80600       -1.17200       -0.06930
H         -3.20180        6.88180       -4.07020
H         -4.13390        2.68340       -8.92210
H         -3.65300        2.06120       -7.31760
H         -6.02780        2.13420       -6.58010
H         -6.51130        2.74100       -8.17410
H         -5.84530        1.11390       -8.01220
H         -5.70710        7.19450       -9.10470
H         -5.14440        8.29090       -7.80980
H         -3.97660        8.77710       -9.95110
H         -2.83940        8.19850       -8.72800
H         -3.38520        7.11460      -10.02080
