
  xtb     02102220383D
 energy: -215.961736919362 gnorm: 0.000529002616 xtb: 6.4.1 (unknown)
117130  0     0  0            999 V2000
   -1.6493    4.5325    5.9175 C   0  0  0  0  0  0  0  0  0  0  0  0
   -2.6533    5.4053    5.5699 C   0  0  0  0  0  0  0  0  0  0  0  0
   -3.2225    5.5637    4.2291 C   0  0  0  0  0  0  0  0  0  0  0  0
   -2.8406    5.0456    3.1958 O   0  0  0  0  0  0  0  0  0  0  0  0
   -4.3682    6.4824    4.3848 C   0  0  0  0  0  0  0  0  0  0  0  0
   -5.2838    6.9429    3.4569 C   0  0  0  0  0  0  0  0  0  0  0  0
   -5.2108    6.5722    2.1740 F   0  0  0  0  0  0  0  0  0  0  0  0
   -6.3013    7.8022    3.8531 C   0  0  0  0  0  0  0  0  0  0  0  0
   -6.3891    8.1901    5.1784 C   0  0  0  0  0  0  0  0  0  0  0  0
   -5.4779    7.7434    6.1285 C   0  0  0  0  0  0  0  0  0  0  0  0
   -4.4645    6.8887    5.7290 C   0  0  0  0  0  0  0  0  0  0  0  0
   -3.3728    6.2656    6.4820 C   0  0  0  0  0  0  0  0  0  0  0  0
   -3.0790    6.5162    7.7980 C   0  0  0  0  0  0  0  0  0  0  0  0
   -1.9734    6.0029    8.5085 C   0  0  0  0  0  0  0  0  0  0  0  0
   -1.0876    5.6603    9.1550 N   0  0  0  0  0  0  0  0  0  0  0  0
   -3.8313    7.3718    8.6299 C   0  0  0  0  0  0  0  0  0  0  0  0
   -4.3983    8.0494    9.3631 N   0  0  0  0  0  0  0  0  0  0  0  0
   -0.9009    3.6493    5.1346 C   0  0  0  0  0  0  0  0  0  0  0  0
    0.0601    2.7893    5.7014 C   0  0  0  0  0  0  0  0  0  0  0  0
    0.3729    2.7231    7.1363 C   0  0  0  0  0  0  0  0  0  0  0  0
   -0.0229    1.5841    7.8321 C   0  0  0  0  0  0  0  0  0  0  0  0
    0.2272    1.4663    9.1850 C   0  0  0  0  0  0  0  0  0  0  0  0
    0.8840    2.4870    9.8511 C   0  0  0  0  0  0  0  0  0  0  0  0
    1.2996    3.6077    9.1573 C   0  0  0  0  0  0  0  0  0  0  0  0
    1.0548    3.7470    7.7977 C   0  0  0  0  0  0  0  0  0  0  0  0
    1.6111    4.9304    7.0584 C   0  0  0  0  0  0  0  0  0  0  0  0
    2.9938    4.5898    6.4977 C   0  0  0  0  0  0  0  0  0  0  0  0
    0.6293    1.9584    4.7471 C   0  0  0  0  0  0  0  0  0  0  0  0
    1.8392    0.6922    4.8414 S   0  0  0  0  0  0  0  0  0  0  0  0
    1.6625    0.4442    3.1370 C   0  0  0  0  0  0  0  0  0  0  0  0
    2.1703   -0.3820    2.1240 C   0  0  0  0  0  0  0  0  0  0  0  0
    3.1973   -1.3534    2.1225 C   0  0  0  0  0  0  0  0  0  0  0  0
    3.5335   -2.0095    0.8907 C   0  0  0  0  0  0  0  0  0  0  0  0
    4.5437   -2.8528    1.0272 N   0  0  0  0  0  0  0  0  0  0  0  0
    5.0293   -2.8285    2.5714 S   0  0  0  0  0  0  0  0  0  0  0  0
    3.9669   -1.7411    3.1266 N   0  0  0  0  0  0  0  0  0  0  0  0
    2.7387   -1.7667   -0.2535 C   0  0  0  0  0  0  0  0  0  0  0  0
    2.6780   -2.4140   -1.4936 C   0  0  0  0  0  0  0  0  0  0  0  0
    3.4971   -3.6771   -2.3470 S   0  0  0  0  0  0  0  0  0  0  0  0
    2.3030   -3.5374   -3.6230 C   0  0  0  0  0  0  0  0  0  0  0  0
    2.1060   -4.2426   -4.7998 C   0  0  0  0  0  0  0  0  0  0  0  0
    2.9856   -5.3232   -5.2697 C   0  0  0  0  0  0  0  0  0  0  0  0
    2.5769   -6.6591   -5.2660 C   0  0  0  0  0  0  0  0  0  0  0  0
    1.2527   -7.0769   -4.6917 C   0  0  0  0  0  0  0  0  0  0  0  0
    1.3663   -7.2434   -3.1745 C   0  0  0  0  0  0  0  0  0  0  0  0
    3.4628   -7.6222   -5.7290 C   0  0  0  0  0  0  0  0  0  0  0  0
    4.7210   -7.2801   -6.1874 C   0  0  0  0  0  0  0  0  0  0  0  0
    5.1252   -5.9564   -6.1724 C   0  0  0  0  0  0  0  0  0  0  0  0
    4.2609   -4.9832   -5.7106 C   0  0  0  0  0  0  0  0  0  0  0  0
    0.9754   -3.7795   -5.5021 C   0  0  0  0  0  0  0  0  0  0  0  0
    0.1606   -2.4683   -4.6512 S   0  0  0  0  0  0  0  0  0  0  0  0
    1.3295   -2.5467   -3.3863 C   0  0  0  0  0  0  0  0  0  0  0  0
    1.5606   -1.9008   -2.1705 C   0  0  0  0  0  0  0  0  0  0  0  0
    0.9534   -0.9418   -1.4040 N   0  0  0  0  0  0  0  0  0  0  0  0
    1.6658   -0.8275   -0.2290 C   0  0  0  0  0  0  0  0  0  0  0  0
    1.4794   -0.0305    0.9275 C   0  0  0  0  0  0  0  0  0  0  0  0
    0.6315    1.0276    1.1960 N   0  0  0  0  0  0  0  0  0  0  0  0
    0.7301    1.3010    2.5360 C   0  0  0  0  0  0  0  0  0  0  0  0
    0.1400    2.1793    3.4464 C   0  0  0  0  0  0  0  0  0  0  0  0
   -1.0537    3.4207    3.3929 S   0  0  0  0  0  0  0  0  0  0  0  0
    0.1777    2.0749    0.3044 C   0  0  0  0  0  0  0  0  0  0  0  0
    1.1153    3.2811    0.3527 C   0  0  0  0  0  0  0  0  0  0  0  0
   -0.3790   -0.4831   -1.7334 C   0  0  0  0  0  0  0  0  0  0  0  0
   -0.3768    0.5262   -2.8816 C   0  0  0  0  0  0  0  0  0  0  0  0
    0.5975   -4.3279   -6.7281 C   0  0  0  0  0  0  0  0  0  0  0  0
   -0.4605   -4.0275   -7.5568 C   0  0  0  0  0  0  0  0  0  0  0  0
   -1.4357   -2.9613   -7.3405 C   0  0  0  0  0  0  0  0  0  0  0  0
   -1.5091   -2.1993   -6.3924 O   0  0  0  0  0  0  0  0  0  0  0  0
   -2.3267   -2.9797   -8.5199 C   0  0  0  0  0  0  0  0  0  0  0  0
   -1.9215   -4.0081   -9.3909 C   0  0  0  0  0  0  0  0  0  0  0  0
   -2.6075   -4.2190  -10.5758 C   0  0  0  0  0  0  0  0  0  0  0  0
   -3.6893   -3.4022  -10.8727 C   0  0  0  0  0  0  0  0  0  0  0  0
   -4.0862   -2.3930  -10.0095 C   0  0  0  0  0  0  0  0  0  0  0  0
   -5.5705   -1.3171  -10.4695 Br  0  0  0  0  0  0  0  0  0  0  0  0
   -3.4060   -2.1614   -8.8087 C   0  0  0  0  0  0  0  0  0  0  0  0
   -3.8914   -0.9156   -7.7400 Cl  0  0  0  0  0  0  0  0  0  0  0  0
   -0.7702   -4.6937   -8.8013 C   0  0  0  0  0  0  0  0  0  0  0  0
   -0.1489   -5.7922   -9.3402 C   0  0  0  0  0  0  0  0  0  0  0  0
   -0.5158   -6.3855  -10.5662 C   0  0  0  0  0  0  0  0  0  0  0  0
   -0.7608   -6.9138  -11.5557 N   0  0  0  0  0  0  0  0  0  0  0  0
    0.9175   -6.5099   -8.7590 C   0  0  0  0  0  0  0  0  0  0  0  0
    1.7677   -7.1688   -8.3550 N   0  0  0  0  0  0  0  0  0  0  0  0
   -1.3901    4.4845    6.9693 H   0  0  0  0  0  0  0  0  0  0  0  0
   -7.0096    8.1525    3.1191 H   0  0  0  0  0  0  0  0  0  0  0  0
   -7.1833    8.8544    5.4824 H   0  0  0  0  0  0  0  0  0  0  0  0
   -5.5751    8.0619    7.1527 H   0  0  0  0  0  0  0  0  0  0  0  0
   -0.5413    0.7978    7.3022 H   0  0  0  0  0  0  0  0  0  0  0  0
   -0.0920    0.5823    9.7162 H   0  0  0  0  0  0  0  0  0  0  0  0
    1.0764    2.4066   10.9103 H   0  0  0  0  0  0  0  0  0  0  0  0
    1.8181    4.3989    9.6772 H   0  0  0  0  0  0  0  0  0  0  0  0
    0.9551    5.2231    6.2372 H   0  0  0  0  0  0  0  0  0  0  0  0
    1.6924    5.7759    7.7429 H   0  0  0  0  0  0  0  0  0  0  0  0
    2.9273    3.7530    5.8053 H   0  0  0  0  0  0  0  0  0  0  0  0
    3.6702    4.3120    7.3026 H   0  0  0  0  0  0  0  0  0  0  0  0
    3.4116    5.4445    5.9710 H   0  0  0  0  0  0  0  0  0  0  0  0
    0.4801   -6.3387   -4.9133 H   0  0  0  0  0  0  0  0  0  0  0  0
    0.9500   -8.0250   -5.1390 H   0  0  0  0  0  0  0  0  0  0  0  0
    0.4145   -7.5613   -2.7552 H   0  0  0  0  0  0  0  0  0  0  0  0
    1.6546   -6.3038   -2.7082 H   0  0  0  0  0  0  0  0  0  0  0  0
    2.1201   -7.9886   -2.9317 H   0  0  0  0  0  0  0  0  0  0  0  0
    3.1528   -8.6564   -5.7354 H   0  0  0  0  0  0  0  0  0  0  0  0
    5.3875   -8.0462   -6.5534 H   0  0  0  0  0  0  0  0  0  0  0  0
    6.1090   -5.6805   -6.5211 H   0  0  0  0  0  0  0  0  0  0  0  0
    4.5620   -3.9455   -5.6995 H   0  0  0  0  0  0  0  0  0  0  0  0
    0.1476    1.7022   -0.7124 H   0  0  0  0  0  0  0  0  0  0  0  0
   -0.8271    2.3767    0.6150 H   0  0  0  0  0  0  0  0  0  0  0  0
    2.1257    2.9868    0.0751 H   0  0  0  0  0  0  0  0  0  0  0  0
    0.7660    4.0378   -0.3440 H   0  0  0  0  0  0  0  0  0  0  0  0
    1.1390    3.7165    1.3476 H   0  0  0  0  0  0  0  0  0  0  0  0
   -0.8449   -0.0786   -0.8344 H   0  0  0  0  0  0  0  0  0  0  0  0
   -0.9616   -1.3572   -2.0445 H   0  0  0  0  0  0  0  0  0  0  0  0
   -0.1280    0.0312   -3.8160 H   0  0  0  0  0  0  0  0  0  0  0  0
   -1.3647    0.9660   -2.9831 H   0  0  0  0  0  0  0  0  0  0  0  0
    0.3481    1.3211   -2.7189 H   0  0  0  0  0  0  0  0  0  0  0  0
    1.2642   -5.1162   -7.0585 H   0  0  0  0  0  0  0  0  0  0  0  0
   -2.3239   -4.9937  -11.2679 H   0  0  0  0  0  0  0  0  0  0  0  0
   -4.2363   -3.5509  -11.7909 H   0  0  0  0  0  0  0  0  0  0  0  0
  1  2  2  0  0  0  0
  2  3  1  0  0  0  0
  3  4  2  0  0  0  0
  3  5  1  0  0  0  0
  5  6  2  0  0  0  0
  6  7  1  0  0  0  0
  6  8  1  0  0  0  0
  8  9  2  0  0  0  0
  9 10  1  0  0  0  0
 10 11  2  0  0  0  0
 11 12  1  0  0  0  0
 12 13  2  0  0  0  0
 13 14  1  0  0  0  0
 14 15  3  0  0  0  0
 13 16  1  0  0  0  0
 16 17  3  0  0  0  0
  1 18  1  0  0  0  0
 18 19  2  0  0  0  0
 19 20  1  0  0  0  0
 20 21  2  0  0  0  0
 21 22  1  0  0  0  0
 22 23  2  0  0  0  0
 23 24  1  0  0  0  0
 24 25  2  0  0  0  0
 25 26  1  0  0  0  0
 26 27  1  0  0  0  0
 19 28  1  0  0  0  0
 28 29  1  0  0  0  0
 29 30  1  0  0  0  0
 30 31  1  0  0  0  0
 31 32  1  0  0  0  0
 32 33  1  0  0  0  0
 33 34  2  0  0  0  0
 34 35  1  0  0  0  0
 35 36  1  0  0  0  0
 33 37  1  0  0  0  0
 37 38  1  0  0  0  0
 38 39  1  0  0  0  0
 39 40  1  0  0  0  0
 40 41  1  0  0  0  0
 41 42  1  0  0  0  0
 42 43  2  0  0  0  0
 43 44  1  0  0  0  0
 44 45  1  0  0  0  0
 43 46  1  0  0  0  0
 46 47  2  0  0  0  0
 47 48  1  0  0  0  0
 48 49  2  0  0  0  0
 41 50  2  0  0  0  0
 50 51  1  0  0  0  0
 51 52  1  0  0  0  0
 52 53  1  0  0  0  0
 53 54  1  0  0  0  0
 54 55  1  0  0  0  0
 55 56  1  0  0  0  0
 56 57  1  0  0  0  0
 57 58  1  0  0  0  0
 58 59  1  0  0  0  0
 59 60  1  0  0  0  0
 57 61  1  0  0  0  0
 61 62  1  0  0  0  0
 54 63  1  0  0  0  0
 63 64  1  0  0  0  0
 50 65  1  0  0  0  0
 65 66  2  0  0  0  0
 66 67  1  0  0  0  0
 67 68  2  0  0  0  0
 67 69  1  0  0  0  0
 69 70  2  0  0  0  0
 70 71  1  0  0  0  0
 71 72  2  0  0  0  0
 72 73  1  0  0  0  0
 73 74  1  0  0  0  0
 73 75  2  0  0  0  0
 75 76  1  0  0  0  0
 70 77  1  0  0  0  0
 77 78  2  0  0  0  0
 78 79  1  0  0  0  0
 79 80  3  0  0  0  0
 78 81  1  0  0  0  0
 81 82  3  0  0  0  0
 12  2  1  0  0  0  0
 60 18  1  0  0  0  0
 77 66  1  0  0  0  0
 11  5  1  0  0  0  0
 25 20  1  0  0  0  0
 59 28  2  0  0  0  0
 75 69  1  0  0  0  0
 58 30  2  0  0  0  0
 56 31  2  0  0  0  0
 36 32  2  0  0  0  0
 55 37  2  0  0  0  0
 53 38  2  0  0  0  0
 52 40  2  0  0  0  0
 49 42  1  0  0  0  0
  1 83  1  0  0  0  0
  8 84  1  0  0  0  0
  9 85  1  0  0  0  0
 10 86  1  0  0  0  0
 21 87  1  0  0  0  0
 22 88  1  0  0  0  0
 23 89  1  0  0  0  0
 24 90  1  0  0  0  0
 26 91  1  0  0  0  0
 26 92  1  0  0  0  0
 27 93  1  0  0  0  0
 27 94  1  0  0  0  0
 27 95  1  0  0  0  0
 44 96  1  0  0  0  0
 44 97  1  0  0  0  0
 45 98  1  0  0  0  0
 45 99  1  0  0  0  0
 45100  1  0  0  0  0
 46101  1  0  0  0  0
 47102  1  0  0  0  0
 48103  1  0  0  0  0
 49104  1  0  0  0  0
 61105  1  0  0  0  0
 61106  1  0  0  0  0
 62107  1  0  0  0  0
 62108  1  0  0  0  0
 62109  1  0  0  0  0
 63110  1  0  0  0  0
 63111  1  0  0  0  0
 64112  1  0  0  0  0
 64113  1  0  0  0  0
 64114  1  0  0  0  0
 65115  1  0  0  0  0
 71116  1  0  0  0  0
 72117  1  0  0  0  0
M  END
