
  xtb     02102219253D
 energy: -209.447146923045 gnorm: 0.000404507635 xtb: 6.4.1 (unknown)
117130  0     0  0            999 V2000
    2.5076    7.4919    1.1923 C   0  0  0  0  0  0  0  0  0  0  0  0
    1.6664    8.3943    0.5833 C   0  0  0  0  0  0  0  0  0  0  0  0
    0.4710    8.0584   -0.1932 C   0  0  0  0  0  0  0  0  0  0  0  0
    0.0794    6.9501   -0.5108 O   0  0  0  0  0  0  0  0  0  0  0  0
   -0.1772    9.3472   -0.5107 C   0  0  0  0  0  0  0  0  0  0  0  0
   -1.3504    9.6211   -1.1887 C   0  0  0  0  0  0  0  0  0  0  0  0
   -2.1011    8.6360   -1.6942 F   0  0  0  0  0  0  0  0  0  0  0  0
   -1.7673   10.9365   -1.3518 C   0  0  0  0  0  0  0  0  0  0  0  0
   -1.0014   11.9643   -0.8309 C   0  0  0  0  0  0  0  0  0  0  0  0
    0.1833   11.7138   -0.1481 C   0  0  0  0  0  0  0  0  0  0  0  0
    0.5958   10.4017    0.0103 C   0  0  0  0  0  0  0  0  0  0  0  0
    1.7780    9.8326    0.6631 C   0  0  0  0  0  0  0  0  0  0  0  0
    2.8117   10.5603    1.1956 C   0  0  0  0  0  0  0  0  0  0  0  0
    4.0010   10.0297    1.7381 C   0  0  0  0  0  0  0  0  0  0  0  0
    5.0106    9.6948    2.1724 N   0  0  0  0  0  0  0  0  0  0  0  0
    2.8501   11.9695    1.2397 C   0  0  0  0  0  0  0  0  0  0  0  0
    2.9480   13.1112    1.3138 N   0  0  0  0  0  0  0  0  0  0  0  0
    2.4979    6.0955    1.1886 C   0  0  0  0  0  0  0  0  0  0  0  0
    3.4361    5.3448    1.9230 C   0  0  0  0  0  0  0  0  0  0  0  0
    4.4941    5.9322    2.7585 C   0  0  0  0  0  0  0  0  0  0  0  0
    4.3584    5.8388    4.1404 C   0  0  0  0  0  0  0  0  0  0  0  0
    5.3129    6.3834    4.9769 C   0  0  0  0  0  0  0  0  0  0  0  0
    6.4161    7.0196    4.4341 C   0  0  0  0  0  0  0  0  0  0  0  0
    6.5637    7.0938    3.0619 C   0  0  0  0  0  0  0  0  0  0  0  0
    5.6136    6.5567    2.2040 C   0  0  0  0  0  0  0  0  0  0  0  0
    5.8518    6.5727    0.7209 C   0  0  0  0  0  0  0  0  0  0  0  0
    6.5391    5.2758    0.2877 C   0  0  0  0  0  0  0  0  0  0  0  0
    3.2039    3.9822    1.8111 C   0  0  0  0  0  0  0  0  0  0  0  0
    4.0049    2.5834    2.5020 S   0  0  0  0  0  0  0  0  0  0  0  0
    2.8602    1.5733    1.6863 C   0  0  0  0  0  0  0  0  0  0  0  0
    2.5273    0.2175    1.5858 C   0  0  0  0  0  0  0  0  0  0  0  0
    3.0546   -0.9103    2.2534 C   0  0  0  0  0  0  0  0  0  0  0  0
    2.4127   -2.1787    2.0784 C   0  0  0  0  0  0  0  0  0  0  0  0
    2.9711   -3.1335    2.8052 N   0  0  0  0  0  0  0  0  0  0  0  0
    4.2042   -2.4912    3.6346 S   0  0  0  0  0  0  0  0  0  0  0  0
    4.0700   -0.9687    3.1001 N   0  0  0  0  0  0  0  0  0  0  0  0
    1.3406   -2.2798    1.1640 C   0  0  0  0  0  0  0  0  0  0  0  0
    0.5997   -3.3916    0.7452 C   0  0  0  0  0  0  0  0  0  0  0  0
    0.4621   -5.0810    1.0955 S   0  0  0  0  0  0  0  0  0  0  0  0
   -0.7762   -5.1959   -0.1402 C   0  0  0  0  0  0  0  0  0  0  0  0
   -1.5582   -6.2526   -0.5869 C   0  0  0  0  0  0  0  0  0  0  0  0
   -1.4535   -7.6265   -0.0723 C   0  0  0  0  0  0  0  0  0  0  0  0
   -2.4508   -8.1923    0.7255 C   0  0  0  0  0  0  0  0  0  0  0  0
   -3.6408   -7.3964    1.1817 C   0  0  0  0  0  0  0  0  0  0  0  0
   -3.2852   -6.5897    2.4327 C   0  0  0  0  0  0  0  0  0  0  0  0
   -2.2816   -9.4965    1.1693 C   0  0  0  0  0  0  0  0  0  0  0  0
   -1.1580  -10.2289    0.8355 C   0  0  0  0  0  0  0  0  0  0  0  0
   -0.1658   -9.6560    0.0589 C   0  0  0  0  0  0  0  0  0  0  0  0
   -0.3131   -8.3579   -0.3893 C   0  0  0  0  0  0  0  0  0  0  0  0
   -2.4339   -5.8548   -1.6117 C   0  0  0  0  0  0  0  0  0  0  0  0
   -2.2781   -4.1410   -1.9896 S   0  0  0  0  0  0  0  0  0  0  0  0
   -1.0541   -3.9770   -0.7842 C   0  0  0  0  0  0  0  0  0  0  0  0
   -0.2636   -2.9479   -0.2644 C   0  0  0  0  0  0  0  0  0  0  0  0
   -0.1017   -1.6034   -0.4629 N   0  0  0  0  0  0  0  0  0  0  0  0
    0.8712   -1.1584    0.4159 C   0  0  0  0  0  0  0  0  0  0  0  0
    1.4041    0.1257    0.7086 C   0  0  0  0  0  0  0  0  0  0  0  0
    1.0607    1.4062    0.3140 N   0  0  0  0  0  0  0  0  0  0  0  0
    1.9294    2.2785    0.9121 C   0  0  0  0  0  0  0  0  0  0  0  0
    2.1148    3.6615    0.9788 C   0  0  0  0  0  0  0  0  0  0  0  0
    1.3458    5.0663    0.3391 S   0  0  0  0  0  0  0  0  0  0  0  0
   -0.1573    1.9154   -0.2764 C   0  0  0  0  0  0  0  0  0  0  0  0
   -1.3712    1.6120    0.5978 C   0  0  0  0  0  0  0  0  0  0  0  0
   -0.6212   -1.0013   -1.6715 C   0  0  0  0  0  0  0  0  0  0  0  0
    0.4998   -0.6563   -2.6485 C   0  0  0  0  0  0  0  0  0  0  0  0
   -3.3039   -6.7592   -2.2303 C   0  0  0  0  0  0  0  0  0  0  0  0
   -4.2171   -6.5750   -3.2386 C   0  0  0  0  0  0  0  0  0  0  0  0
   -4.4452   -5.3239   -3.9792 C   0  0  0  0  0  0  0  0  0  0  0  0
   -3.9154   -4.2406   -3.7856 O   0  0  0  0  0  0  0  0  0  0  0  0
   -5.4347   -5.6506   -5.0047 C   0  0  0  0  0  0  0  0  0  0  0  0
   -5.8091   -7.0283   -4.8784 C   0  0  0  0  0  0  0  0  0  0  0  0
   -6.7315   -7.4074   -5.8014 C   0  0  0  0  0  0  0  0  0  0  0  0
   -7.1495   -6.0861   -6.8337 S   0  0  0  0  0  0  0  0  0  0  0  0
   -6.0653   -4.9895   -6.0124 C   0  0  0  0  0  0  0  0  0  0  0  0
   -5.9188   -3.5750   -6.4226 C   0  0  0  0  0  0  0  0  0  0  0  0
   -5.0797   -7.6140   -3.7706 C   0  0  0  0  0  0  0  0  0  0  0  0
   -5.2447   -8.9033   -3.3310 C   0  0  0  0  0  0  0  0  0  0  0  0
   -4.6131   -9.4967   -2.2221 C   0  0  0  0  0  0  0  0  0  0  0  0
   -4.1535  -10.0435   -1.3218 N   0  0  0  0  0  0  0  0  0  0  0  0
   -6.1371   -9.7808   -3.9797 C   0  0  0  0  0  0  0  0  0  0  0  0
   -6.8587  -10.5074   -4.4985 N   0  0  0  0  0  0  0  0  0  0  0  0
    3.3087    7.9047    1.7951 H   0  0  0  0  0  0  0  0  0  0  0  0
   -2.6849   11.1355   -1.8823 H   0  0  0  0  0  0  0  0  0  0  0  0
   -1.3308   12.9841   -0.9569 H   0  0  0  0  0  0  0  0  0  0  0  0
    0.7557   12.5357    0.2476 H   0  0  0  0  0  0  0  0  0  0  0  0
    3.4894    5.3452    4.5516 H   0  0  0  0  0  0  0  0  0  0  0  0
    5.1932    6.3129    6.0475 H   0  0  0  0  0  0  0  0  0  0  0  0
    7.1630    7.4544    5.0808 H   0  0  0  0  0  0  0  0  0  0  0  0
    7.4279    7.5850    2.6412 H   0  0  0  0  0  0  0  0  0  0  0  0
    4.9125    6.6784    0.1759 H   0  0  0  0  0  0  0  0  0  0  0  0
    6.4858    7.4238    0.4680 H   0  0  0  0  0  0  0  0  0  0  0  0
    5.9132    4.4171    0.5214 H   0  0  0  0  0  0  0  0  0  0  0  0
    6.7289    5.2859   -0.7831 H   0  0  0  0  0  0  0  0  0  0  0  0
    7.4864    5.1578    0.8084 H   0  0  0  0  0  0  0  0  0  0  0  0
   -4.4626   -8.0772    1.4094 H   0  0  0  0  0  0  0  0  0  0  0  0
   -3.9766   -6.7132    0.3999 H   0  0  0  0  0  0  0  0  0  0  0  0
   -2.4732   -5.8972    2.2211 H   0  0  0  0  0  0  0  0  0  0  0  0
   -4.1464   -6.0204    2.7751 H   0  0  0  0  0  0  0  0  0  0  0  0
   -2.9659   -7.2538    3.2325 H   0  0  0  0  0  0  0  0  0  0  0  0
   -3.0512   -9.9440    1.7801 H   0  0  0  0  0  0  0  0  0  0  0  0
   -1.0546  -11.2454    1.1835 H   0  0  0  0  0  0  0  0  0  0  0  0
    0.7191  -10.2174   -0.2004 H   0  0  0  0  0  0  0  0  0  0  0  0
    0.4514   -7.9014   -1.0016 H   0  0  0  0  0  0  0  0  0  0  0  0
   -0.0357    2.9982   -0.3562 H   0  0  0  0  0  0  0  0  0  0  0  0
   -0.2817    1.5326   -1.2890 H   0  0  0  0  0  0  0  0  0  0  0  0
   -1.2600    2.0953    1.5656 H   0  0  0  0  0  0  0  0  0  0  0  0
   -1.4843    0.5429    0.7635 H   0  0  0  0  0  0  0  0  0  0  0  0
   -2.2713    1.9937    0.1240 H   0  0  0  0  0  0  0  0  0  0  0  0
   -1.2804   -1.7432   -2.1283 H   0  0  0  0  0  0  0  0  0  0  0  0
   -1.2341   -0.1312   -1.4373 H   0  0  0  0  0  0  0  0  0  0  0  0
    0.0836   -0.1963   -3.5405 H   0  0  0  0  0  0  0  0  0  0  0  0
    1.0281   -1.5608   -2.9409 H   0  0  0  0  0  0  0  0  0  0  0  0
    1.2190    0.0267   -2.2021 H   0  0  0  0  0  0  0  0  0  0  0  0
   -3.2197   -7.7638   -1.8304 H   0  0  0  0  0  0  0  0  0  0  0  0
   -7.1967   -8.3600   -5.9571 H   0  0  0  0  0  0  0  0  0  0  0  0
   -6.8795   -3.0619   -6.3865 H   0  0  0  0  0  0  0  0  0  0  0  0
   -5.2194   -3.0801   -5.7523 H   0  0  0  0  0  0  0  0  0  0  0  0
   -5.5446   -3.5088   -7.4443 H   0  0  0  0  0  0  0  0  0  0  0  0
  1  2  2  0  0  0  0
  2  3  1  0  0  0  0
  3  4  2  0  0  0  0
  3  5  1  0  0  0  0
  5  6  2  0  0  0  0
  6  7  1  0  0  0  0
  6  8  1  0  0  0  0
  8  9  2  0  0  0  0
  9 10  1  0  0  0  0
 10 11  2  0  0  0  0
 11 12  1  0  0  0  0
 12 13  2  0  0  0  0
 13 14  1  0  0  0  0
 14 15  3  0  0  0  0
 13 16  1  0  0  0  0
 16 17  3  0  0  0  0
  1 18  1  0  0  0  0
 18 19  2  0  0  0  0
 19 20  1  0  0  0  0
 20 21  2  0  0  0  0
 21 22  1  0  0  0  0
 22 23  2  0  0  0  0
 23 24  1  0  0  0  0
 24 25  2  0  0  0  0
 25 26  1  0  0  0  0
 26 27  1  0  0  0  0
 19 28  1  0  0  0  0
 28 29  1  0  0  0  0
 29 30  1  0  0  0  0
 30 31  1  0  0  0  0
 31 32  1  0  0  0  0
 32 33  1  0  0  0  0
 33 34  2  0  0  0  0
 34 35  1  0  0  0  0
 35 36  1  0  0  0  0
 33 37  1  0  0  0  0
 37 38  1  0  0  0  0
 38 39  1  0  0  0  0
 39 40  1  0  0  0  0
 40 41  1  0  0  0  0
 41 42  1  0  0  0  0
 42 43  2  0  0  0  0
 43 44  1  0  0  0  0
 44 45  1  0  0  0  0
 43 46  1  0  0  0  0
 46 47  2  0  0  0  0
 47 48  1  0  0  0  0
 48 49  2  0  0  0  0
 41 50  2  0  0  0  0
 50 51  1  0  0  0  0
 51 52  1  0  0  0  0
 52 53  1  0  0  0  0
 53 54  1  0  0  0  0
 54 55  1  0  0  0  0
 55 56  1  0  0  0  0
 56 57  1  0  0  0  0
 57 58  1  0  0  0  0
 58 59  1  0  0  0  0
 59 60  1  0  0  0  0
 57 61  1  0  0  0  0
 61 62  1  0  0  0  0
 54 63  1  0  0  0  0
 63 64  1  0  0  0  0
 50 65  1  0  0  0  0
 65 66  2  0  0  0  0
 66 67  1  0  0  0  0
 67 68  2  0  0  0  0
 67 69  1  0  0  0  0
 69 70  1  0  0  0  0
 70 71  2  0  0  0  0
 71 72  1  0  0  0  0
 72 73  1  0  0  0  0
 73 74  1  0  0  0  0
 70 75  1  0  0  0  0
 75 76  2  0  0  0  0
 76 77  1  0  0  0  0
 77 78  3  0  0  0  0
 76 79  1  0  0  0  0
 79 80  3  0  0  0  0
 12  2  1  0  0  0  0
 60 18  1  0  0  0  0
 75 66  1  0  0  0  0
 11  5  1  0  0  0  0
 25 20  1  0  0  0  0
 59 28  2  0  0  0  0
 73 69  2  0  0  0  0
 58 30  2  0  0  0  0
 56 31  2  0  0  0  0
 36 32  2  0  0  0  0
 55 37  2  0  0  0  0
 53 38  2  0  0  0  0
 52 40  2  0  0  0  0
 49 42  1  0  0  0  0
  1 81  1  0  0  0  0
  8 82  1  0  0  0  0
  9 83  1  0  0  0  0
 10 84  1  0  0  0  0
 21 85  1  0  0  0  0
 22 86  1  0  0  0  0
 23 87  1  0  0  0  0
 24 88  1  0  0  0  0
 26 89  1  0  0  0  0
 26 90  1  0  0  0  0
 27 91  1  0  0  0  0
 27 92  1  0  0  0  0
 27 93  1  0  0  0  0
 44 94  1  0  0  0  0
 44 95  1  0  0  0  0
 45 96  1  0  0  0  0
 45 97  1  0  0  0  0
 45 98  1  0  0  0  0
 46 99  1  0  0  0  0
 47100  1  0  0  0  0
 48101  1  0  0  0  0
 49102  1  0  0  0  0
 61103  1  0  0  0  0
 61104  1  0  0  0  0
 62105  1  0  0  0  0
 62106  1  0  0  0  0
 62107  1  0  0  0  0
 63108  1  0  0  0  0
 63109  1  0  0  0  0
 64110  1  0  0  0  0
 64111  1  0  0  0  0
 64112  1  0  0  0  0
 65113  1  0  0  0  0
 71114  1  0  0  0  0
 74115  1  0  0  0  0
 74116  1  0  0  0  0
 74117  1  0  0  0  0
M  END
