
  xtb     02102219253D
 energy: -212.378475124899 gnorm: 0.000728888276 xtb: 6.4.1 (unknown)
117130  0     0  0            999 V2000
    5.5823   -0.5579    5.1527 C   0  0  0  0  0  0  0  0  0  0  0  0
    6.8744   -0.4803    5.6057 C   0  0  0  0  0  0  0  0  0  0  0  0
    8.0539   -0.2220    4.7553 C   0  0  0  0  0  0  0  0  0  0  0  0
    8.0751   -0.1004    3.5505 O   0  0  0  0  0  0  0  0  0  0  0  0
    9.2171   -0.3043    5.6635 C   0  0  0  0  0  0  0  0  0  0  0  0
   10.5605   -0.0944    5.4181 C   0  0  0  0  0  0  0  0  0  0  0  0
   10.9886    0.2827    4.2075 F   0  0  0  0  0  0  0  0  0  0  0  0
   11.4876   -0.2589    6.4397 C   0  0  0  0  0  0  0  0  0  0  0  0
   11.0561   -0.6448    7.6969 C   0  0  0  0  0  0  0  0  0  0  0  0
    9.7100   -0.8573    7.9690 C   0  0  0  0  0  0  0  0  0  0  0  0
    8.7891   -0.6794    6.9498 C   0  0  0  0  0  0  0  0  0  0  0  0
    7.3293   -0.7932    6.9393 C   0  0  0  0  0  0  0  0  0  0  0  0
    6.5446   -1.0519    8.0348 C   0  0  0  0  0  0  0  0  0  0  0  0
    5.1343   -1.0479    8.0395 C   0  0  0  0  0  0  0  0  0  0  0  0
    3.9894   -1.0403    8.1325 N   0  0  0  0  0  0  0  0  0  0  0  0
    7.0427   -1.3362    9.3228 C   0  0  0  0  0  0  0  0  0  0  0  0
    7.3825   -1.5820   10.3918 N   0  0  0  0  0  0  0  0  0  0  0  0
    5.0331   -0.0158    3.9756 C   0  0  0  0  0  0  0  0  0  0  0  0
    5.3824    1.1084    3.2196 C   0  0  0  0  0  0  0  0  0  0  0  0
    6.4709    2.0140    3.5995 C   0  0  0  0  0  0  0  0  0  0  0  0
    6.4544    2.5064    4.9054 C   0  0  0  0  0  0  0  0  0  0  0  0
    7.4719    3.3095    5.3755 C   0  0  0  0  0  0  0  0  0  0  0  0
    8.5359    3.6182    4.5421 C   0  0  0  0  0  0  0  0  0  0  0  0
    8.5533    3.1393    3.2482 C   0  0  0  0  0  0  0  0  0  0  0  0
    7.5303    2.3401    2.7457 C   0  0  0  0  0  0  0  0  0  0  0  0
    7.6517    1.8144    1.3442 C   0  0  0  0  0  0  0  0  0  0  0  0
    7.6941    2.9359    0.3065 C   0  0  0  0  0  0  0  0  0  0  0  0
    4.4638    1.3247    2.1844 C   0  0  0  0  0  0  0  0  0  0  0  0
    4.3121    2.5757    0.9699 S   0  0  0  0  0  0  0  0  0  0  0  0
    2.8874    1.8018    0.3732 C   0  0  0  0  0  0  0  0  0  0  0  0
    1.9474    1.9524   -0.6602 C   0  0  0  0  0  0  0  0  0  0  0  0
    1.8770    2.8082   -1.7844 C   0  0  0  0  0  0  0  0  0  0  0  0
    0.8664    2.5740   -2.7831 C   0  0  0  0  0  0  0  0  0  0  0  0
    0.9797    3.3962   -3.8134 N   0  0  0  0  0  0  0  0  0  0  0  0
    2.2344    4.3841   -3.5526 S   0  0  0  0  0  0  0  0  0  0  0  0
    2.6887    3.7996   -2.1138 N   0  0  0  0  0  0  0  0  0  0  0  0
   -0.1294    1.5982   -2.5426 C   0  0  0  0  0  0  0  0  0  0  0  0
   -1.2952    1.2231   -3.2292 C   0  0  0  0  0  0  0  0  0  0  0  0
   -2.0911    1.5498   -4.7311 S   0  0  0  0  0  0  0  0  0  0  0  0
   -3.3718    0.4533   -4.2517 C   0  0  0  0  0  0  0  0  0  0  0  0
   -4.5249    0.0197   -4.8899 C   0  0  0  0  0  0  0  0  0  0  0  0
   -4.9456    0.4720   -6.2243 C   0  0  0  0  0  0  0  0  0  0  0  0
   -4.9123   -0.3776   -7.3332 C   0  0  0  0  0  0  0  0  0  0  0  0
   -4.3543   -1.7700   -7.2433 C   0  0  0  0  0  0  0  0  0  0  0  0
   -2.8288   -1.7344   -7.3601 C   0  0  0  0  0  0  0  0  0  0  0  0
   -5.3287    0.1208   -8.5598 C   0  0  0  0  0  0  0  0  0  0  0  0
   -5.7696    1.4240   -8.6940 C   0  0  0  0  0  0  0  0  0  0  0  0
   -5.7826    2.2652   -7.5950 C   0  0  0  0  0  0  0  0  0  0  0  0
   -5.3674    1.7904   -6.3662 C   0  0  0  0  0  0  0  0  0  0  0  0
   -5.2524   -0.8833   -4.0921 C   0  0  0  0  0  0  0  0  0  0  0  0
   -4.4550   -1.2018   -2.5519 S   0  0  0  0  0  0  0  0  0  0  0  0
   -3.1789   -0.1253   -2.9835 C   0  0  0  0  0  0  0  0  0  0  0  0
   -1.9851    0.3156   -2.4096 C   0  0  0  0  0  0  0  0  0  0  0  0
   -1.2783    0.0951   -1.2534 N   0  0  0  0  0  0  0  0  0  0  0  0
   -0.1219    0.8428   -1.3384 C   0  0  0  0  0  0  0  0  0  0  0  0
    1.0060    0.9025   -0.4931 C   0  0  0  0  0  0  0  0  0  0  0  0
    1.3899    0.0984    0.5629 N   0  0  0  0  0  0  0  0  0  0  0  0
    2.5300    0.6517    1.0916 C   0  0  0  0  0  0  0  0  0  0  0  0
    3.4236    0.3825    2.1291 C   0  0  0  0  0  0  0  0  0  0  0  0
    3.5492   -0.7760    3.3939 S   0  0  0  0  0  0  0  0  0  0  0  0
    1.1325   -1.3216    0.7033 C   0  0  0  0  0  0  0  0  0  0  0  0
    2.2903   -2.1507    0.1482 C   0  0  0  0  0  0  0  0  0  0  0  0
   -1.9595   -0.3084   -0.0385 C   0  0  0  0  0  0  0  0  0  0  0  0
   -3.0697    0.6767    0.3248 C   0  0  0  0  0  0  0  0  0  0  0  0
   -6.4687   -1.4229   -4.5204 C   0  0  0  0  0  0  0  0  0  0  0  0
   -7.3206   -2.3081   -3.9040 C   0  0  0  0  0  0  0  0  0  0  0  0
   -7.1573   -2.8598   -2.5590 C   0  0  0  0  0  0  0  0  0  0  0  0
   -6.2325   -2.6832   -1.7844 O   0  0  0  0  0  0  0  0  0  0  0  0
   -8.3588   -3.6816   -2.3072 C   0  0  0  0  0  0  0  0  0  0  0  0
   -8.6867   -4.3966   -1.1747 C   0  0  0  0  0  0  0  0  0  0  0  0
   -9.8902   -5.0927   -1.1822 C   0  0  0  0  0  0  0  0  0  0  0  0
  -10.3509   -6.0045    0.2055 Cl  0  0  0  0  0  0  0  0  0  0  0  0
  -10.7292   -5.0661   -2.2900 C   0  0  0  0  0  0  0  0  0  0  0  0
  -10.3884   -4.3452   -3.4249 C   0  0  0  0  0  0  0  0  0  0  0  0
   -9.1914   -3.6447   -3.4393 C   0  0  0  0  0  0  0  0  0  0  0  0
   -8.5559   -2.8175   -4.4642 C   0  0  0  0  0  0  0  0  0  0  0  0
   -9.0428   -2.6172   -5.7306 C   0  0  0  0  0  0  0  0  0  0  0  0
  -10.2622   -3.1501   -6.1993 C   0  0  0  0  0  0  0  0  0  0  0  0
  -11.2434   -3.5476   -6.6436 N   0  0  0  0  0  0  0  0  0  0  0  0
   -8.4081   -1.8899   -6.7592 C   0  0  0  0  0  0  0  0  0  0  0  0
   -7.9577   -1.3409   -7.6624 N   0  0  0  0  0  0  0  0  0  0  0  0
    4.8732   -1.1131    5.7569 H   0  0  0  0  0  0  0  0  0  0  0  0
   12.5324   -0.0849    6.2362 H   0  0  0  0  0  0  0  0  0  0  0  0
   11.7806   -0.7810    8.4848 H   0  0  0  0  0  0  0  0  0  0  0  0
    9.4052   -1.1576    8.9576 H   0  0  0  0  0  0  0  0  0  0  0  0
    5.6234    2.2561    5.5506 H   0  0  0  0  0  0  0  0  0  0  0  0
    7.4396    3.6864    6.3871 H   0  0  0  0  0  0  0  0  0  0  0  0
    9.3506    4.2267    4.9060 H   0  0  0  0  0  0  0  0  0  0  0  0
    9.3944    3.3670    2.6108 H   0  0  0  0  0  0  0  0  0  0  0  0
    6.8295    1.1357    1.1225 H   0  0  0  0  0  0  0  0  0  0  0  0
    8.5747    1.2336    1.2846 H   0  0  0  0  0  0  0  0  0  0  0  0
    7.7338    2.5137   -0.6947 H   0  0  0  0  0  0  0  0  0  0  0  0
    6.8095    3.5639    0.3805 H   0  0  0  0  0  0  0  0  0  0  0  0
    8.5697    3.5642    0.4467 H   0  0  0  0  0  0  0  0  0  0  0  0
   -4.6291   -2.2414   -6.2984 H   0  0  0  0  0  0  0  0  0  0  0  0
   -4.7665   -2.3747   -8.0526 H   0  0  0  0  0  0  0  0  0  0  0  0
   -2.4211   -2.7416   -7.3138 H   0  0  0  0  0  0  0  0  0  0  0  0
   -2.3982   -1.1484   -6.5510 H   0  0  0  0  0  0  0  0  0  0  0  0
   -2.5324   -1.2815   -8.3032 H   0  0  0  0  0  0  0  0  0  0  0  0
   -5.3132   -0.5309   -9.4204 H   0  0  0  0  0  0  0  0  0  0  0  0
   -6.0997    1.7844   -9.6564 H   0  0  0  0  0  0  0  0  0  0  0  0
   -6.1168    3.2872   -7.6918 H   0  0  0  0  0  0  0  0  0  0  0  0
   -5.3790    2.4353   -5.4992 H   0  0  0  0  0  0  0  0  0  0  0  0
    0.9886   -1.5464    1.7647 H   0  0  0  0  0  0  0  0  0  0  0  0
    0.2321   -1.5787    0.1496 H   0  0  0  0  0  0  0  0  0  0  0  0
    3.2059   -1.9689    0.7034 H   0  0  0  0  0  0  0  0  0  0  0  0
    2.4609   -1.9043   -0.8977 H   0  0  0  0  0  0  0  0  0  0  0  0
    2.0470   -3.2067    0.2229 H   0  0  0  0  0  0  0  0  0  0  0  0
   -1.2424   -0.3329    0.7800 H   0  0  0  0  0  0  0  0  0  0  0  0
   -2.3858   -1.3049   -0.1892 H   0  0  0  0  0  0  0  0  0  0  0  0
   -3.8462    0.6872   -0.4343 H   0  0  0  0  0  0  0  0  0  0  0  0
   -3.5180    0.3818    1.2692 H   0  0  0  0  0  0  0  0  0  0  0  0
   -2.6638    1.6810    0.4281 H   0  0  0  0  0  0  0  0  0  0  0  0
   -6.7647   -1.0631   -5.4993 H   0  0  0  0  0  0  0  0  0  0  0  0
   -8.0285   -4.4104   -0.3205 H   0  0  0  0  0  0  0  0  0  0  0  0
  -11.6575   -5.6149   -2.2640 H   0  0  0  0  0  0  0  0  0  0  0  0
  -11.0577   -4.3403   -4.2693 H   0  0  0  0  0  0  0  0  0  0  0  0
  1  2  2  0  0  0  0
  2  3  1  0  0  0  0
  3  4  2  0  0  0  0
  3  5  1  0  0  0  0
  5  6  2  0  0  0  0
  6  7  1  0  0  0  0
  6  8  1  0  0  0  0
  8  9  2  0  0  0  0
  9 10  1  0  0  0  0
 10 11  2  0  0  0  0
 11 12  1  0  0  0  0
 12 13  2  0  0  0  0
 13 14  1  0  0  0  0
 14 15  3  0  0  0  0
 13 16  1  0  0  0  0
 16 17  3  0  0  0  0
  1 18  1  0  0  0  0
 18 19  2  0  0  0  0
 19 20  1  0  0  0  0
 20 21  2  0  0  0  0
 21 22  1  0  0  0  0
 22 23  2  0  0  0  0
 23 24  1  0  0  0  0
 24 25  2  0  0  0  0
 25 26  1  0  0  0  0
 26 27  1  0  0  0  0
 19 28  1  0  0  0  0
 28 29  1  0  0  0  0
 29 30  1  0  0  0  0
 30 31  1  0  0  0  0
 31 32  1  0  0  0  0
 32 33  1  0  0  0  0
 33 34  2  0  0  0  0
 34 35  1  0  0  0  0
 35 36  1  0  0  0  0
 33 37  1  0  0  0  0
 37 38  1  0  0  0  0
 38 39  1  0  0  0  0
 39 40  1  0  0  0  0
 40 41  1  0  0  0  0
 41 42  1  0  0  0  0
 42 43  2  0  0  0  0
 43 44  1  0  0  0  0
 44 45  1  0  0  0  0
 43 46  1  0  0  0  0
 46 47  2  0  0  0  0
 47 48  1  0  0  0  0
 48 49  2  0  0  0  0
 41 50  2  0  0  0  0
 50 51  1  0  0  0  0
 51 52  1  0  0  0  0
 52 53  1  0  0  0  0
 53 54  1  0  0  0  0
 54 55  1  0  0  0  0
 55 56  1  0  0  0  0
 56 57  1  0  0  0  0
 57 58  1  0  0  0  0
 58 59  1  0  0  0  0
 59 60  1  0  0  0  0
 57 61  1  0  0  0  0
 61 62  1  0  0  0  0
 54 63  1  0  0  0  0
 63 64  1  0  0  0  0
 50 65  1  0  0  0  0
 65 66  2  0  0  0  0
 66 67  1  0  0  0  0
 67 68  2  0  0  0  0
 67 69  1  0  0  0  0
 69 70  2  0  0  0  0
 70 71  1  0  0  0  0
 71 72  1  0  0  0  0
 71 73  2  0  0  0  0
 73 74  1  0  0  0  0
 74 75  2  0  0  0  0
 75 76  1  0  0  0  0
 76 77  2  0  0  0  0
 77 78  1  0  0  0  0
 78 79  3  0  0  0  0
 77 80  1  0  0  0  0
 80 81  3  0  0  0  0
 12  2  1  0  0  0  0
 60 18  1  0  0  0  0
 76 66  1  0  0  0  0
 11  5  1  0  0  0  0
 25 20  1  0  0  0  0
 59 28  2  0  0  0  0
 75 69  1  0  0  0  0
 58 30  2  0  0  0  0
 56 31  2  0  0  0  0
 36 32  2  0  0  0  0
 55 37  2  0  0  0  0
 53 38  2  0  0  0  0
 52 40  2  0  0  0  0
 49 42  1  0  0  0  0
  1 82  1  0  0  0  0
  8 83  1  0  0  0  0
  9 84  1  0  0  0  0
 10 85  1  0  0  0  0
 21 86  1  0  0  0  0
 22 87  1  0  0  0  0
 23 88  1  0  0  0  0
 24 89  1  0  0  0  0
 26 90  1  0  0  0  0
 26 91  1  0  0  0  0
 27 92  1  0  0  0  0
 27 93  1  0  0  0  0
 27 94  1  0  0  0  0
 44 95  1  0  0  0  0
 44 96  1  0  0  0  0
 45 97  1  0  0  0  0
 45 98  1  0  0  0  0
 45 99  1  0  0  0  0
 46100  1  0  0  0  0
 47101  1  0  0  0  0
 48102  1  0  0  0  0
 49103  1  0  0  0  0
 61104  1  0  0  0  0
 61105  1  0  0  0  0
 62106  1  0  0  0  0
 62107  1  0  0  0  0
 62108  1  0  0  0  0
 63109  1  0  0  0  0
 63110  1  0  0  0  0
 64111  1  0  0  0  0
 64112  1  0  0  0  0
 64113  1  0  0  0  0
 65114  1  0  0  0  0
 70115  1  0  0  0  0
 73116  1  0  0  0  0
 74117  1  0  0  0  0
M  END
