88

C         -3.28630       -1.88120       -6.31640
C         -2.49840       -2.70890       -7.07920
C         -1.07810       -3.06890       -6.87520
O         -0.38210       -2.90830       -5.89400
C         -0.63980       -3.67000       -8.15380
C          0.61050       -4.11050       -8.54840
F          1.65990       -4.03800       -7.72190
C          0.79210       -4.63460       -9.82190
C         -0.28420       -4.70990      -10.68890
C         -1.55060       -4.27790      -10.31370
C         -1.72630       -3.75920       -9.04150
C         -2.91270       -3.23330       -8.36680
C         -4.19250       -3.31140       -8.85090
C         -5.35810       -2.92320       -8.15490
N         -6.35770       -2.65610       -7.65640
C         -4.53220       -3.85110      -10.10940
N         -4.87470       -4.27050      -11.12160
C         -3.06490       -1.28760       -5.06280
Se        -4.27060        0.11620       -4.52390
C         -3.21640        0.24590       -3.02040
C         -3.11190        0.97680       -1.83360
C         -3.96430        1.97390       -1.31640
C         -3.68730        2.52100       -0.02520
N         -4.59150        3.41260        0.34960
S         -5.69480        3.55000       -0.82720
N         -5.06040        2.47590       -1.86200
C         -2.51610        2.10280        0.64630
C         -1.95170        2.55250        1.84400
S         -2.28890        3.68850        3.10330
C         -0.75520        3.26920        3.84530
C         -0.12380        3.71550        4.99660
C         -0.68860        4.79210        5.86370
C         -0.09510        6.15440        5.49310
C          1.11400        3.07070        5.18570
S          1.46020        1.90820        3.90340
C         -0.03320        2.29150        3.13570
C         -0.72950        1.88480        1.99480
N         -0.52930        1.03770        0.94060
C         -1.62030        1.13000        0.09780
C         -1.97210        0.49220       -1.12480
N         -1.43620       -0.54860       -1.85750
C         -2.16780       -0.69300       -3.00850
C         -2.09100       -1.54060       -4.10720
C         -0.43530       -1.54320       -1.54260
C          0.85030       -1.34350       -2.34600
C          0.75570        0.39120        0.80140
C          0.88330       -0.83190        1.70920
C          1.94880        3.33540        6.27300
C          3.16520        2.80050        6.63100
C          3.89250        1.75180        5.91570
O          3.57880        1.19740        4.87630
C          5.10350        1.47850        6.71460
C          6.10570        0.56180        6.47500
C          7.15240        0.47930        7.38520
Cl         8.41920       -0.65100        7.12630
C          7.17530        1.31120        8.50920
Cl         8.47320        1.19770        9.62830
C          6.16210        2.23530        8.74470
C          5.11690        2.31960        7.84050
C          3.92400        3.16640        7.80990
C          3.61810        4.12720        8.74010
C          2.48440        4.96590        8.72050
N          1.59220        5.68830        8.77460
C          4.41670        4.42050        9.86600
N          5.01230        4.71180       10.80300
H         -4.22640       -1.58290       -6.77030
H          1.77280       -4.97330      -10.11650
H         -0.13700       -5.11260      -11.67910
H         -2.36740       -4.34470      -11.01240
H         -0.49770        4.58930        6.91840
H         -1.76920        4.82110        5.71060
H         -0.52970        6.92670        6.12080
H         -0.30620        6.38850        4.45230
H          0.98230        6.15890        5.64010
H         -1.35740       -2.31340       -4.24160
H         -0.24700       -1.53950       -0.47290
H         -0.85920       -2.52070       -1.79690
H          0.67710       -1.54180       -3.40000
H          1.61420       -2.02910       -1.98980
H          1.22310       -0.32510       -2.25630
H          1.51900        1.11910        1.09640
H          0.92280        0.14230       -0.24260
H          0.04150       -1.51100        1.58880
H          0.92080       -0.52290        2.75000
H          1.80240       -1.36320        1.47970
H          1.55110        4.08590        6.94220
H          6.07490       -0.07370        5.60420
H          6.21550        2.85760        9.62250
