
  xtb     02102219403D
 energy: -198.018027340177 gnorm: 0.000535447972 xtb: 6.4.1 (unknown)
112123  0     0  0            999 V2000
   -5.7556    5.0380   -3.0528 C   0  0  0  0  0  0  0  0  0  0  0  0
   -5.6329    6.4021   -3.0420 C   0  0  0  0  0  0  0  0  0  0  0  0
   -4.5796    7.2225   -2.3950 C   0  0  0  0  0  0  0  0  0  0  0  0
   -3.5119    6.8755   -1.9406 O   0  0  0  0  0  0  0  0  0  0  0  0
   -5.1244    8.5998   -2.3636 C   0  0  0  0  0  0  0  0  0  0  0  0
   -4.5937    9.7538   -1.8165 C   0  0  0  0  0  0  0  0  0  0  0  0
   -3.4027    9.7455   -1.2072 F   0  0  0  0  0  0  0  0  0  0  0  0
   -5.2986   10.9483   -1.8959 C   0  0  0  0  0  0  0  0  0  0  0  0
   -6.5334   10.9724   -2.5207 C   0  0  0  0  0  0  0  0  0  0  0  0
   -7.0854    9.8271   -3.0810 C   0  0  0  0  0  0  0  0  0  0  0  0
   -6.3751    8.6402   -3.0035 C   0  0  0  0  0  0  0  0  0  0  0  0
   -6.6839    7.2968   -3.4896 C   0  0  0  0  0  0  0  0  0  0  0  0
   -7.7407    6.9767   -4.3025 C   0  0  0  0  0  0  0  0  0  0  0  0
   -7.9831    5.7074   -4.8701 C   0  0  0  0  0  0  0  0  0  0  0  0
   -8.2472    4.7196   -5.3940 N   0  0  0  0  0  0  0  0  0  0  0  0
   -8.7215    7.8962   -4.7284 C   0  0  0  0  0  0  0  0  0  0  0  0
   -9.5555    8.5892   -5.1062 N   0  0  0  0  0  0  0  0  0  0  0  0
   -4.8353    4.0072   -2.7059 C   0  0  0  0  0  0  0  0  0  0  0  0
   -5.3758    2.7346   -2.3837 C   0  0  0  0  0  0  0  0  0  0  0  0
   -4.5911    1.6865   -1.9872 C   0  0  0  0  0  0  0  0  0  0  0  0
   -3.2020    1.8602   -1.9182 C   0  0  0  0  0  0  0  0  0  0  0  0
   -2.0869    1.0803   -1.5584 C   0  0  0  0  0  0  0  0  0  0  0  0
   -0.9387    1.8585   -1.7619 C   0  0  0  0  0  0  0  0  0  0  0  0
   -1.2752    3.0961   -2.2120 N   0  0  0  0  0  0  0  0  0  0  0  0
   -2.6463    3.1264   -2.3130 C   0  0  0  0  0  0  0  0  0  0  0  0
   -3.4456    4.1773   -2.7035 C   0  0  0  0  0  0  0  0  0  0  0  0
   -0.3699    4.1639   -2.5508 C   0  0  0  0  0  0  0  0  0  0  0  0
   -0.1040    4.2117   -4.0541 C   0  0  0  0  0  0  0  0  0  0  0  0
    0.1657    1.0627   -1.4334 C   0  0  0  0  0  0  0  0  0  0  0  0
    1.5498    1.2962   -1.5446 C   0  0  0  0  0  0  0  0  0  0  0  0
    2.4620    0.2608   -1.2238 C   0  0  0  0  0  0  0  0  0  0  0  0
    3.6959    0.7238   -1.4450 N   0  0  0  0  0  0  0  0  0  0  0  0
    3.5061    1.9527   -1.8667 N   0  0  0  0  0  0  0  0  0  0  0  0
    4.5954    2.7924   -2.2705 C   0  0  0  0  0  0  0  0  0  0  0  0
    4.8496    2.6619   -3.7699 C   0  0  0  0  0  0  0  0  0  0  0  0
    2.2596    2.3531   -1.9481 N   0  0  0  0  0  0  0  0  0  0  0  0
    1.9767   -0.9556   -0.7055 C   0  0  0  0  0  0  0  0  0  0  0  0
    0.5736   -1.1856   -0.5278 C   0  0  0  0  0  0  0  0  0  0  0  0
   -0.3465   -0.1983   -0.9873 C   0  0  0  0  0  0  0  0  0  0  0  0
   -1.7290   -0.1626   -1.0983 N   0  0  0  0  0  0  0  0  0  0  0  0
   -2.7419   -1.1830   -0.9919 C   0  0  0  0  0  0  0  0  0  0  0  0
   -3.5959   -1.0073    0.2656 C   0  0  0  0  0  0  0  0  0  0  0  0
    0.4181   -2.4012    0.1229 N   0  0  0  0  0  0  0  0  0  0  0  0
   -0.7152   -3.0473    0.7373 C   0  0  0  0  0  0  0  0  0  0  0  0
   -1.1618   -4.2784   -0.0534 C   0  0  0  0  0  0  0  0  0  0  0  0
    1.6650   -2.9304    0.3367 C   0  0  0  0  0  0  0  0  0  0  0  0
    2.6421   -2.0689   -0.1771 C   0  0  0  0  0  0  0  0  0  0  0  0
    3.8877   -2.5551    0.0805 N   0  0  0  0  0  0  0  0  0  0  0  0
    5.1321   -1.9782   -0.3575 C   0  0  0  0  0  0  0  0  0  0  0  0
    5.6661   -2.6805   -1.6050 C   0  0  0  0  0  0  0  0  0  0  0  0
    3.7252   -3.7307    0.7731 C   0  0  0  0  0  0  0  0  0  0  0  0
    2.3258   -4.0024    0.9668 C   0  0  0  0  0  0  0  0  0  0  0  0
    1.9476   -5.1487    1.6736 C   0  0  0  0  0  0  0  0  0  0  0  0
    2.9164   -5.9487    2.2177 C   0  0  0  0  0  0  0  0  0  0  0  0
    4.2927   -5.6681    2.0566 C   0  0  0  0  0  0  0  0  0  0  0  0
    4.6900   -4.5736    1.2806 C   0  0  0  0  0  0  0  0  0  0  0  0
    5.2940   -6.4984    2.6483 C   0  0  0  0  0  0  0  0  0  0  0  0
    5.2052   -7.2548    3.7781 C   0  0  0  0  0  0  0  0  0  0  0  0
    6.1713   -8.3539    4.0157 C   0  0  0  0  0  0  0  0  0  0  0  0
    7.1959   -8.5735    3.4116 O   0  0  0  0  0  0  0  0  0  0  0  0
    5.5816   -9.1552    5.1155 C   0  0  0  0  0  0  0  0  0  0  0  0
    6.0240  -10.3509    5.6455 C   0  0  0  0  0  0  0  0  0  0  0  0
    5.2723  -10.9233    6.6595 C   0  0  0  0  0  0  0  0  0  0  0  0
    5.6635  -12.0847    7.1998 F   0  0  0  0  0  0  0  0  0  0  0  0
    4.1102  -10.3053    7.1214 C   0  0  0  0  0  0  0  0  0  0  0  0
    3.3962  -10.8902    8.0908 F   0  0  0  0  0  0  0  0  0  0  0  0
    3.6709   -9.0982    6.5985 C   0  0  0  0  0  0  0  0  0  0  0  0
    4.4186   -8.5198    5.5857 C   0  0  0  0  0  0  0  0  0  0  0  0
    4.2471   -7.2597    4.8623 C   0  0  0  0  0  0  0  0  0  0  0  0
    3.5060   -6.1937    5.3020 C   0  0  0  0  0  0  0  0  0  0  0  0
    3.5934   -4.8950    4.7571 C   0  0  0  0  0  0  0  0  0  0  0  0
    3.6723   -3.8008    4.4190 N   0  0  0  0  0  0  0  0  0  0  0  0
    2.6349   -6.2456    6.4081 C   0  0  0  0  0  0  0  0  0  0  0  0
    1.8916   -6.2454    7.2830 N   0  0  0  0  0  0  0  0  0  0  0  0
   -6.7395    4.6645   -3.3161 H   0  0  0  0  0  0  0  0  0  0  0  0
   -4.8714   11.8404   -1.4659 H   0  0  0  0  0  0  0  0  0  0  0  0
   -7.0798   11.9014   -2.5740 H   0  0  0  0  0  0  0  0  0  0  0  0
   -8.0504    9.8756   -3.5567 H   0  0  0  0  0  0  0  0  0  0  0  0
   -6.4469    2.6057   -2.4348 H   0  0  0  0  0  0  0  0  0  0  0  0
   -5.0438    0.7381   -1.7400 H   0  0  0  0  0  0  0  0  0  0  0  0
   -3.0110    5.1112   -3.0095 H   0  0  0  0  0  0  0  0  0  0  0  0
   -0.8014    5.1089   -2.2101 H   0  0  0  0  0  0  0  0  0  0  0  0
    0.5687    3.9802   -2.0238 H   0  0  0  0  0  0  0  0  0  0  0  0
    0.5576    5.0416   -4.2852 H   0  0  0  0  0  0  0  0  0  0  0  0
    0.3697    3.2874   -4.3761 H   0  0  0  0  0  0  0  0  0  0  0  0
   -1.0322    4.3394   -4.6063 H   0  0  0  0  0  0  0  0  0  0  0  0
    4.3313    3.8216   -2.0188 H   0  0  0  0  0  0  0  0  0  0  0  0
    5.4757    2.4829   -1.7039 H   0  0  0  0  0  0  0  0  0  0  0  0
    5.1037    1.6347   -4.0203 H   0  0  0  0  0  0  0  0  0  0  0  0
    5.6715    3.3083   -4.0638 H   0  0  0  0  0  0  0  0  0  0  0  0
    3.9603    2.9498   -4.3254 H   0  0  0  0  0  0  0  0  0  0  0  0
   -2.2810   -2.1656   -1.0330 H   0  0  0  0  0  0  0  0  0  0  0  0
   -3.3888   -1.0895   -1.8718 H   0  0  0  0  0  0  0  0  0  0  0  0
   -4.1502   -0.0742    0.2138 H   0  0  0  0  0  0  0  0  0  0  0  0
   -2.9831   -0.9710    1.1639 H   0  0  0  0  0  0  0  0  0  0  0  0
   -4.3010   -1.8296    0.3542 H   0  0  0  0  0  0  0  0  0  0  0  0
   -1.5253   -2.3369    0.8659 H   0  0  0  0  0  0  0  0  0  0  0  0
   -0.3989   -3.3662    1.7369 H   0  0  0  0  0  0  0  0  0  0  0  0
   -1.4476   -4.0213   -1.0713 H   0  0  0  0  0  0  0  0  0  0  0  0
   -2.0092   -4.7479    0.4392 H   0  0  0  0  0  0  0  0  0  0  0  0
   -0.3489   -4.9973   -0.1139 H   0  0  0  0  0  0  0  0  0  0  0  0
    4.9425   -0.9258   -0.5824 H   0  0  0  0  0  0  0  0  0  0  0  0
    5.8586   -2.0478    0.4574 H   0  0  0  0  0  0  0  0  0  0  0  0
    6.6090   -2.2332   -1.9064 H   0  0  0  0  0  0  0  0  0  0  0  0
    4.9560   -2.5782   -2.4221 H   0  0  0  0  0  0  0  0  0  0  0  0
    5.8254   -3.7395   -1.4149 H   0  0  0  0  0  0  0  0  0  0  0  0
    0.9066   -5.4000    1.8077 H   0  0  0  0  0  0  0  0  0  0  0  0
    2.6297   -6.8441    2.7492 H   0  0  0  0  0  0  0  0  0  0  0  0
    5.7414   -4.3669    1.1516 H   0  0  0  0  0  0  0  0  0  0  0  0
    6.2334   -6.5875    2.1115 H   0  0  0  0  0  0  0  0  0  0  0  0
    6.9224  -10.8279    5.2877 H   0  0  0  0  0  0  0  0  0  0  0  0
    2.7666   -8.6577    6.9856 H   0  0  0  0  0  0  0  0  0  0  0  0
  1  2  2  0  0  0  0
  2  3  1  0  0  0  0
  3  4  2  0  0  0  0
  3  5  1  0  0  0  0
  5  6  2  0  0  0  0
  6  7  1  0  0  0  0
  6  8  1  0  0  0  0
  8  9  2  0  0  0  0
  9 10  1  0  0  0  0
 10 11  2  0  0  0  0
 11 12  1  0  0  0  0
 12 13  2  0  0  0  0
 13 14  1  0  0  0  0
 14 15  3  0  0  0  0
 13 16  1  0  0  0  0
 16 17  3  0  0  0  0
  1 18  1  0  0  0  0
 18 19  2  0  0  0  0
 19 20  1  0  0  0  0
 20 21  2  0  0  0  0
 21 22  1  0  0  0  0
 22 23  2  0  0  0  0
 23 24  1  0  0  0  0
 24 25  1  0  0  0  0
 25 26  2  0  0  0  0
 24 27  1  0  0  0  0
 27 28  1  0  0  0  0
 23 29  1  0  0  0  0
 29 30  1  0  0  0  0
 30 31  1  0  0  0  0
 31 32  2  0  0  0  0
 32 33  1  0  0  0  0
 33 34  1  0  0  0  0
 34 35  1  0  0  0  0
 33 36  1  0  0  0  0
 31 37  1  0  0  0  0
 37 38  2  0  0  0  0
 38 39  1  0  0  0  0
 39 40  1  0  0  0  0
 40 41  1  0  0  0  0
 41 42  1  0  0  0  0
 38 43  1  0  0  0  0
 43 44  1  0  0  0  0
 44 45  1  0  0  0  0
 43 46  1  0  0  0  0
 46 47  2  0  0  0  0
 47 48  1  0  0  0  0
 48 49  1  0  0  0  0
 49 50  1  0  0  0  0
 48 51  1  0  0  0  0
 51 52  2  0  0  0  0
 52 53  1  0  0  0  0
 53 54  2  0  0  0  0
 54 55  1  0  0  0  0
 55 56  2  0  0  0  0
 55 57  1  0  0  0  0
 57 58  2  0  0  0  0
 58 59  1  0  0  0  0
 59 60  2  0  0  0  0
 59 61  1  0  0  0  0
 61 62  2  0  0  0  0
 62 63  1  0  0  0  0
 63 64  1  0  0  0  0
 63 65  2  0  0  0  0
 65 66  1  0  0  0  0
 65 67  1  0  0  0  0
 67 68  2  0  0  0  0
 68 69  1  0  0  0  0
 69 70  2  0  0  0  0
 70 71  1  0  0  0  0
 71 72  3  0  0  0  0
 70 73  1  0  0  0  0
 73 74  3  0  0  0  0
 12  2  1  0  0  0  0
 26 18  1  0  0  0  0
 39 29  2  0  0  0  0
 52 46  1  0  0  0  0
 69 58  1  0  0  0  0
 11  5  1  0  0  0  0
 25 21  1  0  0  0  0
 36 30  2  0  0  0  0
 47 37  1  0  0  0  0
 56 51  1  0  0  0  0
 68 61  1  0  0  0  0
 40 22  1  0  0  0  0
  1 75  1  0  0  0  0
  8 76  1  0  0  0  0
  9 77  1  0  0  0  0
 10 78  1  0  0  0  0
 19 79  1  0  0  0  0
 20 80  1  0  0  0  0
 26 81  1  0  0  0  0
 27 82  1  0  0  0  0
 27 83  1  0  0  0  0
 28 84  1  0  0  0  0
 28 85  1  0  0  0  0
 28 86  1  0  0  0  0
 34 87  1  0  0  0  0
 34 88  1  0  0  0  0
 35 89  1  0  0  0  0
 35 90  1  0  0  0  0
 35 91  1  0  0  0  0
 41 92  1  0  0  0  0
 41 93  1  0  0  0  0
 42 94  1  0  0  0  0
 42 95  1  0  0  0  0
 42 96  1  0  0  0  0
 44 97  1  0  0  0  0
 44 98  1  0  0  0  0
 45 99  1  0  0  0  0
 45100  1  0  0  0  0
 45101  1  0  0  0  0
 49102  1  0  0  0  0
 49103  1  0  0  0  0
 50104  1  0  0  0  0
 50105  1  0  0  0  0
 50106  1  0  0  0  0
 53107  1  0  0  0  0
 54108  1  0  0  0  0
 56109  1  0  0  0  0
 57110  1  0  0  0  0
 62111  1  0  0  0  0
 67112  1  0  0  0  0
M  END
