130

C         -3.28500       -0.38590        7.64830
C         -2.47590       -1.25690        8.34100
C         -1.29960       -1.94260        7.80040
O         -0.80220       -1.80460        6.69810
C         -0.83590       -2.85000        8.86940
C          0.21400       -3.74900        8.89300
F          1.01150       -3.90650        7.83110
C          0.45260       -4.50800       10.03230
C         -0.36750       -4.35720       11.13630
C         -1.42840       -3.45890       11.13620
C         -1.66130       -2.70300        9.99980
C         -2.67550       -1.68660        9.70590
C         -3.59890       -1.21400       10.60380
C         -4.52500       -0.17590       10.36970
N         -5.29460        0.67280       10.28400
C         -3.73150       -1.68230       11.92770
N         -3.89960       -2.01690       13.01310
C         -3.18100        0.11240        6.34740
C         -4.13740        1.00000        5.81550
C         -5.32210        1.47810        6.54340
C         -6.56770        1.00950        6.13540
C         -7.71680        1.41330        6.78640
C         -7.62750        2.29820        7.84730
C         -6.39390        2.78260        8.23910
C         -5.22650        2.38540        7.60120
C         -3.91580        3.00600        7.99390
C         -3.63720        4.23440        7.12450
C         -3.85030        1.33390        4.50030
S         -4.64940        2.37090        3.33310
C         -3.40340        1.99280        2.19170
C         -3.03380        2.31250        0.87520
C         -3.51960        3.24730       -0.06940
C         -2.79040        3.45470       -1.29430
N         -3.31840        4.41480       -2.03610
S         -4.61920        5.00180       -1.27430
N         -4.56110        4.05620        0.03740
C         -1.69440        2.61300       -1.59770
C         -0.87540        2.46560       -2.73050
S         -0.58980        3.23930       -4.25170
C          0.64480        2.04930       -4.59830
C          1.49700        1.85200       -5.69080
C          1.48030        2.66210       -6.91840
C          1.91910        3.98720       -6.93090
C          2.54320        4.62580       -5.72440
C          4.04310        4.32540       -5.68390
C          1.84750        4.69400       -8.12500
C          1.35300        4.11420       -9.27830
C          0.92170        2.79870       -9.25820
C          0.98790        2.07720       -8.08230
C          2.34100        0.76250       -5.49180
S          2.01610       -0.05560       -3.96500
C          0.79760        1.09870       -3.57970
C         -0.06610        1.34080       -2.51060
N         -0.33490        0.79820       -1.27940
C         -1.30200        1.59150       -0.69310
C         -1.85850        1.56030        0.60250
N         -1.48170        0.86320        1.73120
C         -2.42810        1.11610        2.69280
C         -2.67130        0.73860        4.01390
S         -1.91320       -0.27440        5.18370
C         -0.13220        0.49280        2.11300
C          0.48720        1.54220        3.03510
C         -0.10640       -0.61020       -1.02510
C         -0.83780       -1.48150       -2.04590
C          3.29890        0.29750       -6.41660
C          4.29220       -0.62070       -6.25980
C          4.84640       -1.30790       -7.45690
O          4.71040       -0.97340       -8.61240
C          5.53080       -2.50720       -6.93340
C          6.10640       -3.54030       -7.66950
C          6.64830       -4.54220       -6.90060
C          6.61800       -4.52640       -5.49940
C          6.06510       -3.50900       -4.75860
C          5.51430       -2.47830       -5.52280
C          4.89920       -1.22430       -5.09550
C          5.12320       -0.60280       -3.89370
C          4.80890        0.75250       -3.66500
N          4.62350        1.86740       -3.46220
C          5.77700       -1.20010       -2.79950
N          6.27590       -1.64260       -1.86450
C          7.32130       -5.85540       -5.38930
C          6.46360       -7.10170       -5.05750
C          5.07110       -6.81200       -5.56010
C          5.10760       -6.82610       -6.88590
C          6.52610       -7.12510       -7.30380
C          6.95560       -8.05530       -6.15800
C          7.36210       -5.87030       -6.95000
H         -4.15940       -0.01560        8.17160
H          1.27560       -5.20520       10.03670
H         -0.17990       -4.94990       12.01830
H         -2.04950       -3.36670       12.01110
H         -6.62340        0.31430        5.31000
H         -8.67670        1.03620        6.46720
H         -8.51990        2.61350        8.36650
H         -6.32750        3.47760        9.06250
H         -3.09620        2.29490        7.87990
H         -3.95970        3.30400        9.04260
H         -2.69600        4.69760        7.41190
H         -3.57950        3.95210        6.07530
H         -4.43400        4.96580        7.23670
H          2.08350        4.25740       -4.80740
H          2.39270        5.70620       -5.76980
H          4.52450        4.66280       -6.59960
H          4.21550        3.25720       -5.57430
H          4.50420        4.82880       -4.83850
H          2.18900        5.71900       -8.14510
H          1.30650        4.68590      -10.19310
H          0.53580        2.33550      -10.15360
H          0.64520        1.05240       -8.05410
H          0.48510        0.41660        1.22040
H         -0.16650       -0.47420        2.62400
H          1.51410        1.26490        3.25540
H         -0.05830        1.61100        3.97180
H          0.48350        2.51730        2.55200
H         -0.48160       -0.85800       -0.03410
H          0.96960       -0.80640       -1.07110
H         -0.45740       -1.31410       -3.04960
H         -1.90310       -1.25990       -2.03380
H         -0.69600       -2.52880       -1.79450
H          3.17270        0.66850       -7.42980
H          6.11040       -3.51760       -8.74800
H          6.04320       -3.50420       -3.68100
H          8.26840       -5.85010       -4.85360
H          6.54140       -7.44170       -4.02820
H          4.24040       -6.57660       -4.92070
H          4.31400       -6.60490       -7.57530
H          6.66140       -7.48670       -8.31970
H          6.42130       -9.00420       -6.16310
H          8.02890       -8.23740       -6.12610
H          8.33710       -5.87050       -7.43320
