164

C          6.29380        6.37500        3.09880
C          5.96900        7.46730        3.87090
C          4.63900        7.76340        4.41370
O          3.61410        7.12660        4.26000
C          4.79340        9.00590        5.19960
C          3.86900        9.72600        5.93250
F          2.59400        9.32920        6.01670
C          4.25820       10.88250        6.59740
C          5.57370       11.30350        6.51920
C          6.52100       10.59560        5.78850
C          6.12840        9.44410        5.12720
C          6.88230        8.50370        4.29290
C          8.21200        8.63050        3.97470
C          8.95450        7.75260        3.15850
N          9.63650        7.09730        2.50550
C          9.03990        9.68280        4.41660
N          9.77440       10.50590        4.73620
C          5.49590        5.33630        2.61120
S          3.77890        5.12070        2.84650
C          3.79980        3.68530        1.88720
C          2.65740        2.86390        1.66730
C          2.93420        1.62820        0.97170
C          4.17370        1.26960        0.42530
C          5.34510        2.23090        0.45880
C          5.07310        3.37990        1.40230
C          6.01270        4.30650        1.81800
C          6.57820        1.45330        0.88770
C          6.81330        1.23640        2.23950
C          7.89880        0.48940        2.65670
C          8.77580       -0.06950        1.73690
C          9.93310       -0.91400        2.18560
C          9.53150       -2.38980        2.23130
C          8.52470        0.12840        0.38590
C          7.43990        0.87460       -0.03570
C          5.50830        2.90340       -0.90640
C          4.45260        2.96810       -1.80560
C          4.59460        3.62670       -3.01380
C          5.78840        4.24470       -3.35710
C          5.92610        4.99240       -4.65180
C          5.51320        6.45460       -4.47150
C          6.83660        4.19510       -2.44730
C          6.69880        3.53980       -1.23910
C          4.26680        0.03990       -0.21590
C          3.19450       -0.83650       -0.37070
C          1.93180       -0.51780        0.11820
C          0.70250       -1.30080       -0.05150
C         -0.51930       -0.78310        0.45580
C         -0.50810        0.43190        1.11830
C         -1.58020        1.18130        1.61610
N         -1.05240        2.36820        2.10350
C          0.32230        2.37030        1.91210
C          1.38940        3.24350        2.12280
C          0.65020        1.15910        1.29190
C          1.86970        0.72650        0.79980
C         -1.79720        3.39830        2.78140
C         -1.86400        3.14350        4.28630
C         -2.84530        0.62750        1.40680
C         -2.93030       -0.60840        0.75950
C         -4.17390       -1.14050        0.30400
C         -4.28270       -2.36910       -0.33700
C         -3.15560       -3.37060       -0.32690
C         -3.19120       -4.16210        0.98920
C         -2.10750       -4.95460        1.34800
C         -2.12800       -5.69680        2.51330
C         -3.23210       -5.67600        3.35500
C         -3.24120       -6.45330        4.63960
C         -2.71410       -5.59290        5.78970
C         -4.31330       -4.88590        2.99320
C         -4.29590       -4.13830        1.82980
C         -3.35490       -4.29080       -1.51720
C         -3.97900       -5.52390       -1.37840
C         -4.28170       -6.28730       -2.49070
C         -3.97260       -5.84040       -3.76850
C         -4.28440       -6.68700       -4.96850
C         -3.12680       -7.64260       -5.26380
C         -3.34010       -4.61090       -3.90330
C         -3.04360       -3.84030       -2.79460
C         -1.84360       -2.61870       -0.32840
C         -1.78530       -1.37170        0.31130
C         -0.66230       -3.14640       -0.83380
C          0.57560       -2.51330       -0.72050
C         -5.53010       -2.56930       -0.91510
C         -6.42140       -1.52770       -0.71050
S         -5.66140       -0.26050        0.22890
C         -7.70770       -1.31210       -1.24040
C         -8.47200       -2.12750       -2.02520
C         -9.51300       -1.51030       -2.89050
O         -9.97860       -0.39750       -2.76870
C         -9.78880       -2.51500       -3.93660
C         -9.08720       -3.68560       -3.65050
C         -9.14730       -4.78520       -4.51530
C         -9.91410       -4.68970       -5.64740
C        -10.64910       -3.52510       -5.95910
C        -11.44520       -3.43940       -7.11960
C        -12.14700       -2.30000       -7.40180
C        -12.08570       -1.19310       -6.53970
C        -11.32460       -1.23690       -5.40460
C        -10.59180       -2.39890       -5.08710
C         -8.39320       -3.52480       -2.37540
C         -7.98460       -4.54720       -1.55590
C         -7.92540       -5.90070       -1.93530
N         -7.81580       -7.01180       -2.20510
C         -7.64730       -4.33370       -0.20430
N         -7.42020       -4.18910        0.91150
H          7.33200        6.28290        2.80340
H          3.52620       11.43470        7.16530
H          5.87230       12.20190        7.03700
H          7.53720       10.94990        5.74880
H          7.05940        4.26050        1.57500
H          6.14050        1.65580        2.97400
H          8.06740        0.33950        3.71370
H         10.77030       -0.79090        1.49540
H         10.25930       -0.59840        3.17840
H         10.36800       -3.00210        2.55990
H          8.70220       -2.53470        2.92010
H          9.21950       -2.72790        1.24560
H          9.18850       -0.30530       -0.34870
H          7.27190        1.01370       -1.09410
H          3.50830        2.50010       -1.57070
H          3.76050        3.65770       -3.70050
H          6.96190        4.95130       -4.99470
H          5.29450        4.53160       -5.41410
H          6.14080        6.93530       -3.72450
H          4.47900        6.51730       -4.14020
H          5.61160        6.99640       -5.40930
H          7.77490        4.67460       -2.68700
H          7.53500        3.51380       -0.55680
H          5.21900       -0.24890       -0.63580
H          3.36230       -1.76310       -0.89870
H          1.28210        4.19920        2.61470
H         -1.31180        4.35860        2.58700
H         -2.80620        3.42740        2.36080
H         -0.86240        3.12140        4.70940
H         -2.34730        2.18990        4.48710
H         -2.43040        3.93240        4.77280
H         -3.76070        1.12920        1.68660
H         -1.23720       -5.00140        0.71160
H         -1.27330       -6.30790        2.76790
H         -2.61600       -7.34280        4.53940
H         -4.25930       -6.77430        4.86870
H         -3.33310       -4.70700        5.91270
H         -1.69490       -5.27180        5.58580
H         -2.72230       -6.15490        6.72080
H         -5.19270       -4.85880        3.61970
H         -5.17160       -3.56170        1.57730
H         -4.24870       -5.88410       -0.39650
H         -4.78540       -7.23450       -2.36360
H         -4.45720       -6.04960       -5.83850
H         -5.19040       -7.26680       -4.78110
H         -3.35400       -8.26030       -6.12950
H         -2.94780       -8.29250       -4.41030
H         -2.21580       -7.08300       -5.46500
H         -3.09250       -4.24340       -4.88940
H         -2.57630       -2.87330       -2.92040
H         -0.70330       -4.09030       -1.36000
H          1.43760       -2.99080       -1.16190
H         -5.75400       -3.42860       -1.51850
H         -8.10430       -0.30870       -1.11810
H         -8.59080       -5.68400       -4.30320
H         -9.96690       -5.52530       -6.33060
H        -11.49140       -4.29240       -7.78140
H        -12.75480       -2.24350       -8.29280
H        -12.64730       -0.30320       -6.78210
H        -11.26850       -0.39330       -4.73480
