
  xtb     02102219233D
 energy: -212.547911779271 gnorm: 0.000215564643 xtb: 6.4.1 (unknown)
117130  0     0  0            999 V2000
   -7.1998    0.5656   -1.2244 C   0  0  0  0  0  0  0  0  0  0  0  0
   -8.3477    0.3070   -1.9314 C   0  0  0  0  0  0  0  0  0  0  0  0
   -8.6899   -0.9921   -2.5481 C   0  0  0  0  0  0  0  0  0  0  0  0
   -8.0950   -2.0394   -2.4215 O   0  0  0  0  0  0  0  0  0  0  0  0
  -10.0004   -0.7810   -3.1994 C   0  0  0  0  0  0  0  0  0  0  0  0
  -10.7544   -1.6252   -3.9919 C   0  0  0  0  0  0  0  0  0  0  0  0
  -10.3139   -2.8470   -4.3124 F   0  0  0  0  0  0  0  0  0  0  0  0
  -11.9817   -1.2014   -4.4868 C   0  0  0  0  0  0  0  0  0  0  0  0
  -12.4468    0.0629   -4.1692 C   0  0  0  0  0  0  0  0  0  0  0  0
  -11.7059    0.9302   -3.3758 C   0  0  0  0  0  0  0  0  0  0  0  0
  -10.4771    0.5073   -2.8964 C   0  0  0  0  0  0  0  0  0  0  0  0
   -9.4691    1.2005   -2.0916 C   0  0  0  0  0  0  0  0  0  0  0  0
   -9.5475    2.5051   -1.6726 C   0  0  0  0  0  0  0  0  0  0  0  0
   -8.5225    3.2023   -1.0002 C   0  0  0  0  0  0  0  0  0  0  0  0
   -7.7251    3.8422   -0.4763 N   0  0  0  0  0  0  0  0  0  0  0  0
  -10.6630    3.3431   -1.8754 C   0  0  0  0  0  0  0  0  0  0  0  0
  -11.5370    4.0777   -1.9973 N   0  0  0  0  0  0  0  0  0  0  0  0
   -5.9576   -0.0838   -1.3389 C   0  0  0  0  0  0  0  0  0  0  0  0
   -5.3778   -0.7742   -2.4056 C   0  0  0  0  0  0  0  0  0  0  0  0
   -5.9954   -1.0250   -3.7102 C   0  0  0  0  0  0  0  0  0  0  0  0
   -6.1439   -2.3532   -4.1045 C   0  0  0  0  0  0  0  0  0  0  0  0
   -6.7954   -2.6696   -5.2813 C   0  0  0  0  0  0  0  0  0  0  0  0
   -7.2985   -1.6569   -6.0771 C   0  0  0  0  0  0  0  0  0  0  0  0
   -7.1050   -0.3354   -5.7132 C   0  0  0  0  0  0  0  0  0  0  0  0
   -6.4509    0.0068   -4.5373 C   0  0  0  0  0  0  0  0  0  0  0  0
   -6.1430    1.4528   -4.2591 C   0  0  0  0  0  0  0  0  0  0  0  0
   -4.6876    1.7564   -4.6229 C   0  0  0  0  0  0  0  0  0  0  0  0
   -4.0708   -1.1704   -2.1030 C   0  0  0  0  0  0  0  0  0  0  0  0
   -2.8601   -2.0156   -3.0409 S   0  0  0  0  0  0  0  0  0  0  0  0
   -1.7441   -1.7979   -1.7375 C   0  0  0  0  0  0  0  0  0  0  0  0
   -0.4072   -2.0804   -1.4277 C   0  0  0  0  0  0  0  0  0  0  0  0
    0.5673   -2.8138   -2.1395 C   0  0  0  0  0  0  0  0  0  0  0  0
    1.8684   -2.9741   -1.5634 C   0  0  0  0  0  0  0  0  0  0  0  0
    2.6687   -3.7121   -2.3166 N   0  0  0  0  0  0  0  0  0  0  0  0
    1.8535   -4.1635   -3.6397 S   0  0  0  0  0  0  0  0  0  0  0  0
    0.4490   -3.4342   -3.3030 N   0  0  0  0  0  0  0  0  0  0  0  0
    2.1615   -2.3107   -0.3515 C   0  0  0  0  0  0  0  0  0  0  0  0
    3.3784   -2.1481    0.3231 C   0  0  0  0  0  0  0  0  0  0  0  0
    5.0377   -2.6059    0.1553 S   0  0  0  0  0  0  0  0  0  0  0  0
    5.4237   -1.5906    1.5261 C   0  0  0  0  0  0  0  0  0  0  0  0
    6.6347   -1.2377    2.1276 C   0  0  0  0  0  0  0  0  0  0  0  0
    7.9373   -1.7837    1.7245 C   0  0  0  0  0  0  0  0  0  0  0  0
    8.9323   -0.9898    1.1464 C   0  0  0  0  0  0  0  0  0  0  0  0
    8.6927    0.4507    0.7983 C   0  0  0  0  0  0  0  0  0  0  0  0
    7.8993    0.5541   -0.5061 C   0  0  0  0  0  0  0  0  0  0  0  0
   10.1335   -1.5939    0.7977 C   0  0  0  0  0  0  0  0  0  0  0  0
   10.3540   -2.9420    1.0125 C   0  0  0  0  0  0  0  0  0  0  0  0
    9.3564   -3.7241    1.5688 C   0  0  0  0  0  0  0  0  0  0  0  0
    8.1514   -3.1458    1.9168 C   0  0  0  0  0  0  0  0  0  0  0  0
    6.4485   -0.3175    3.1581 C   0  0  0  0  0  0  0  0  0  0  0  0
    4.7442    0.0597    3.4034 S   0  0  0  0  0  0  0  0  0  0  0  0
    4.3030   -0.9578    2.0841 C   0  0  0  0  0  0  0  0  0  0  0  0
    3.1331   -1.2794    1.3942 C   0  0  0  0  0  0  0  0  0  0  0  0
    1.8103   -0.9322    1.4260 N   0  0  0  0  0  0  0  0  0  0  0  0
    1.1853   -1.5438    0.3519 C   0  0  0  0  0  0  0  0  0  0  0  0
   -0.1446   -1.5103   -0.1465 C   0  0  0  0  0  0  0  0  0  0  0  0
   -1.3195   -0.9446    0.3232 N   0  0  0  0  0  0  0  0  0  0  0  0
   -2.2782   -1.1136   -0.6389 C   0  0  0  0  0  0  0  0  0  0  0  0
   -3.6138   -0.7571   -0.8420 C   0  0  0  0  0  0  0  0  0  0  0  0
   -4.8295    0.1204    0.0054 S   0  0  0  0  0  0  0  0  0  0  0  0
   -1.7215   -0.6005    1.6697 C   0  0  0  0  0  0  0  0  0  0  0  0
   -1.5494   -1.7806    2.6227 C   0  0  0  0  0  0  0  0  0  0  0  0
    1.3965    0.1832    2.2483 C   0  0  0  0  0  0  0  0  0  0  0  0
    1.1827    1.4447    1.4162 C   0  0  0  0  0  0  0  0  0  0  0  0
    7.4654    0.1745    3.9972 C   0  0  0  0  0  0  0  0  0  0  0  0
    7.4289    1.1928    4.9059 C   0  0  0  0  0  0  0  0  0  0  0  0
    8.4236    1.2243    6.0086 C   0  0  0  0  0  0  0  0  0  0  0  0
    9.4473    0.5846    6.0854 O   0  0  0  0  0  0  0  0  0  0  0  0
    7.8578    2.1577    7.0080 C   0  0  0  0  0  0  0  0  0  0  0  0
    8.3239    2.4645    8.2724 C   0  0  0  0  0  0  0  0  0  0  0  0
    7.5991    3.3571    9.0468 C   0  0  0  0  0  0  0  0  0  0  0  0
    6.4356    3.9104    8.5329 C   0  0  0  0  0  0  0  0  0  0  0  0
    5.7389    4.7610    9.3039 F   0  0  0  0  0  0  0  0  0  0  0  0
    5.9526    3.6288    7.2621 C   0  0  0  0  0  0  0  0  0  0  0  0
    6.6830    2.7384    6.4952 C   0  0  0  0  0  0  0  0  0  0  0  0
    6.4912    2.2689    5.1229 C   0  0  0  0  0  0  0  0  0  0  0  0
    5.7698    2.9272    4.1602 C   0  0  0  0  0  0  0  0  0  0  0  0
    5.9033    2.6594    2.7822 C   0  0  0  0  0  0  0  0  0  0  0  0
    6.0379    2.5131    1.6513 N   0  0  0  0  0  0  0  0  0  0  0  0
    4.8897    3.9948    4.4218 C   0  0  0  0  0  0  0  0  0  0  0  0
    4.1296    4.8409    4.5787 N   0  0  0  0  0  0  0  0  0  0  0  0
   -7.2202    1.3733   -0.5015 H   0  0  0  0  0  0  0  0  0  0  0  0
  -12.5555   -1.8671   -5.1120 H   0  0  0  0  0  0  0  0  0  0  0  0
  -13.4043    0.3844   -4.5491 H   0  0  0  0  0  0  0  0  0  0  0  0
  -12.0935    1.9087   -3.1466 H   0  0  0  0  0  0  0  0  0  0  0  0
   -5.7758   -3.1364   -3.4608 H   0  0  0  0  0  0  0  0  0  0  0  0
   -6.9206   -3.7025   -5.5659 H   0  0  0  0  0  0  0  0  0  0  0  0
   -7.8293   -1.8919   -6.9876 H   0  0  0  0  0  0  0  0  0  0  0  0
   -7.4665    0.4540   -6.3578 H   0  0  0  0  0  0  0  0  0  0  0  0
   -6.8019    2.0838   -4.8592 H   0  0  0  0  0  0  0  0  0  0  0  0
   -6.3053    1.7059   -3.2111 H   0  0  0  0  0  0  0  0  0  0  0  0
   -4.5031    1.5289   -5.6703 H   0  0  0  0  0  0  0  0  0  0  0  0
   -4.0106    1.1556   -4.0193 H   0  0  0  0  0  0  0  0  0  0  0  0
   -4.4668    2.8069   -4.4492 H   0  0  0  0  0  0  0  0  0  0  0  0
    8.1375    0.9610    1.5855 H   0  0  0  0  0  0  0  0  0  0  0  0
    9.6508    0.9593    0.6784 H   0  0  0  0  0  0  0  0  0  0  0  0
    7.7188    1.5975   -0.7485 H   0  0  0  0  0  0  0  0  0  0  0  0
    6.9381    0.0561   -0.4063 H   0  0  0  0  0  0  0  0  0  0  0  0
    8.4452    0.0880   -1.3235 H   0  0  0  0  0  0  0  0  0  0  0  0
   10.9085   -0.9910    0.3469 H   0  0  0  0  0  0  0  0  0  0  0  0
   11.3002   -3.3838    0.7384 H   0  0  0  0  0  0  0  0  0  0  0  0
    9.5146   -4.7795    1.7307 H   0  0  0  0  0  0  0  0  0  0  0  0
    7.3668   -3.7451    2.3556 H   0  0  0  0  0  0  0  0  0  0  0  0
   -1.1881    0.2839    2.0186 H   0  0  0  0  0  0  0  0  0  0  0  0
   -2.7797   -0.3333    1.6176 H   0  0  0  0  0  0  0  0  0  0  0  0
   -0.5181   -2.1254    2.6441 H   0  0  0  0  0  0  0  0  0  0  0  0
   -1.8453   -1.4911    3.6273 H   0  0  0  0  0  0  0  0  0  0  0  0
   -2.1761   -2.6102    2.3035 H   0  0  0  0  0  0  0  0  0  0  0  0
    2.2049    0.3589    2.9623 H   0  0  0  0  0  0  0  0  0  0  0  0
    0.5117   -0.0771    2.8278 H   0  0  0  0  0  0  0  0  0  0  0  0
    0.4344    1.2855    0.6433 H   0  0  0  0  0  0  0  0  0  0  0  0
    2.1143    1.7327    0.9345 H   0  0  0  0  0  0  0  0  0  0  0  0
    0.8616    2.2612    2.0571 H   0  0  0  0  0  0  0  0  0  0  0  0
    8.3907   -0.3951    3.9762 H   0  0  0  0  0  0  0  0  0  0  0  0
    9.2333    2.0145    8.6386 H   0  0  0  0  0  0  0  0  0  0  0  0
    7.9187    3.6295   10.0401 H   0  0  0  0  0  0  0  0  0  0  0  0
    5.0410    4.0905    6.9192 H   0  0  0  0  0  0  0  0  0  0  0  0
  1  2  2  0  0  0  0
  2  3  1  0  0  0  0
  3  4  2  0  0  0  0
  3  5  1  0  0  0  0
  5  6  2  0  0  0  0
  6  7  1  0  0  0  0
  6  8  1  0  0  0  0
  8  9  2  0  0  0  0
  9 10  1  0  0  0  0
 10 11  2  0  0  0  0
 11 12  1  0  0  0  0
 12 13  2  0  0  0  0
 13 14  1  0  0  0  0
 14 15  3  0  0  0  0
 13 16  1  0  0  0  0
 16 17  3  0  0  0  0
  1 18  1  0  0  0  0
 18 19  2  0  0  0  0
 19 20  1  0  0  0  0
 20 21  2  0  0  0  0
 21 22  1  0  0  0  0
 22 23  2  0  0  0  0
 23 24  1  0  0  0  0
 24 25  2  0  0  0  0
 25 26  1  0  0  0  0
 26 27  1  0  0  0  0
 19 28  1  0  0  0  0
 28 29  1  0  0  0  0
 29 30  1  0  0  0  0
 30 31  1  0  0  0  0
 31 32  1  0  0  0  0
 32 33  1  0  0  0  0
 33 34  2  0  0  0  0
 34 35  1  0  0  0  0
 35 36  1  0  0  0  0
 33 37  1  0  0  0  0
 37 38  1  0  0  0  0
 38 39  1  0  0  0  0
 39 40  1  0  0  0  0
 40 41  1  0  0  0  0
 41 42  1  0  0  0  0
 42 43  2  0  0  0  0
 43 44  1  0  0  0  0
 44 45  1  0  0  0  0
 43 46  1  0  0  0  0
 46 47  2  0  0  0  0
 47 48  1  0  0  0  0
 48 49  2  0  0  0  0
 41 50  2  0  0  0  0
 50 51  1  0  0  0  0
 51 52  1  0  0  0  0
 52 53  1  0  0  0  0
 53 54  1  0  0  0  0
 54 55  1  0  0  0  0
 55 56  1  0  0  0  0
 56 57  1  0  0  0  0
 57 58  1  0  0  0  0
 58 59  1  0  0  0  0
 59 60  1  0  0  0  0
 57 61  1  0  0  0  0
 61 62  1  0  0  0  0
 54 63  1  0  0  0  0
 63 64  1  0  0  0  0
 50 65  1  0  0  0  0
 65 66  2  0  0  0  0
 66 67  1  0  0  0  0
 67 68  2  0  0  0  0
 67 69  1  0  0  0  0
 69 70  2  0  0  0  0
 70 71  1  0  0  0  0
 71 72  2  0  0  0  0
 72 73  1  0  0  0  0
 72 74  1  0  0  0  0
 74 75  2  0  0  0  0
 75 76  1  0  0  0  0
 76 77  2  0  0  0  0
 77 78  1  0  0  0  0
 78 79  3  0  0  0  0
 77 80  1  0  0  0  0
 80 81  3  0  0  0  0
 12  2  1  0  0  0  0
 60 18  1  0  0  0  0
 76 66  1  0  0  0  0
 11  5  1  0  0  0  0
 25 20  1  0  0  0  0
 59 28  2  0  0  0  0
 75 69  1  0  0  0  0
 58 30  2  0  0  0  0
 56 31  2  0  0  0  0
 36 32  2  0  0  0  0
 55 37  2  0  0  0  0
 53 38  2  0  0  0  0
 52 40  2  0  0  0  0
 49 42  1  0  0  0  0
  1 82  1  0  0  0  0
  8 83  1  0  0  0  0
  9 84  1  0  0  0  0
 10 85  1  0  0  0  0
 21 86  1  0  0  0  0
 22 87  1  0  0  0  0
 23 88  1  0  0  0  0
 24 89  1  0  0  0  0
 26 90  1  0  0  0  0
 26 91  1  0  0  0  0
 27 92  1  0  0  0  0
 27 93  1  0  0  0  0
 27 94  1  0  0  0  0
 44 95  1  0  0  0  0
 44 96  1  0  0  0  0
 45 97  1  0  0  0  0
 45 98  1  0  0  0  0
 45 99  1  0  0  0  0
 46100  1  0  0  0  0
 47101  1  0  0  0  0
 48102  1  0  0  0  0
 49103  1  0  0  0  0
 61104  1  0  0  0  0
 61105  1  0  0  0  0
 62106  1  0  0  0  0
 62107  1  0  0  0  0
 62108  1  0  0  0  0
 63109  1  0  0  0  0
 63110  1  0  0  0  0
 64111  1  0  0  0  0
 64112  1  0  0  0  0
 64113  1  0  0  0  0
 65114  1  0  0  0  0
 70115  1  0  0  0  0
 71116  1  0  0  0  0
 74117  1  0  0  0  0
M  END
