
  xtb     02102219293D
 energy: -216.415685753912 gnorm: 0.000573686387 xtb: 6.4.1 (unknown)
117130  0     0  0            999 V2000
    6.8192    0.1545    3.9910 C   0  0  0  0  0  0  0  0  0  0  0  0
    7.3819   -0.0560    5.2225 C   0  0  0  0  0  0  0  0  0  0  0  0
    6.6461   -0.5053    6.4240 C   0  0  0  0  0  0  0  0  0  0  0  0
    5.4802   -0.8247    6.4904 O   0  0  0  0  0  0  0  0  0  0  0  0
    7.6733   -0.6512    7.4779 C   0  0  0  0  0  0  0  0  0  0  0  0
    7.5456   -0.9806    8.8141 C   0  0  0  0  0  0  0  0  0  0  0  0
    6.3427   -1.1857    9.3615 F   0  0  0  0  0  0  0  0  0  0  0  0
    8.6763   -1.0851    9.6149 C   0  0  0  0  0  0  0  0  0  0  0  0
    9.9272   -0.8701    9.0629 C   0  0  0  0  0  0  0  0  0  0  0  0
   10.0810   -0.5356    7.7230 C   0  0  0  0  0  0  0  0  0  0  0  0
    8.9496   -0.4210    6.9321 C   0  0  0  0  0  0  0  0  0  0  0  0
    8.7946   -0.0496    5.5244 C   0  0  0  0  0  0  0  0  0  0  0  0
    9.8106    0.3360    4.6866 C   0  0  0  0  0  0  0  0  0  0  0  0
    9.6354    0.8220    3.3742 C   0  0  0  0  0  0  0  0  0  0  0  0
    9.5740    1.2556    2.3123 N   0  0  0  0  0  0  0  0  0  0  0  0
   11.1767    0.3330    5.0352 C   0  0  0  0  0  0  0  0  0  0  0  0
   12.3049    0.3469    5.2486 N   0  0  0  0  0  0  0  0  0  0  0  0
    5.4672    0.4095    3.6947 C   0  0  0  0  0  0  0  0  0  0  0  0
    4.4441    0.9958    4.4415 C   0  0  0  0  0  0  0  0  0  0  0  0
    4.5437    1.5522    5.7938 C   0  0  0  0  0  0  0  0  0  0  0  0
    3.6671    1.0324    6.7480 C   0  0  0  0  0  0  0  0  0  0  0  0
    3.7138    1.4602    8.0590 C   0  0  0  0  0  0  0  0  0  0  0  0
    4.6257    2.4343    8.4248 C   0  0  0  0  0  0  0  0  0  0  0  0
    5.4600    2.9885    7.4714 C   0  0  0  0  0  0  0  0  0  0  0  0
    5.4428    2.5636    6.1479 C   0  0  0  0  0  0  0  0  0  0  0  0
    6.3181    3.2626    5.1387 C   0  0  0  0  0  0  0  0  0  0  0  0
    7.7697    3.4132    5.5953 C   0  0  0  0  0  0  0  0  0  0  0  0
    3.2502    1.0451    3.7100 C   0  0  0  0  0  0  0  0  0  0  0  0
    1.6590    1.6521    4.1075 S   0  0  0  0  0  0  0  0  0  0  0  0
    1.1310    1.2259    2.5166 C   0  0  0  0  0  0  0  0  0  0  0  0
   -0.0186    1.3200    1.7182 C   0  0  0  0  0  0  0  0  0  0  0  0
   -1.2676    1.9335    1.9610 C   0  0  0  0  0  0  0  0  0  0  0  0
   -2.2200    2.0136    0.8923 C   0  0  0  0  0  0  0  0  0  0  0  0
   -3.3167    2.6683    1.2403 N   0  0  0  0  0  0  0  0  0  0  0  0
   -3.1665    3.1376    2.7817 S   0  0  0  0  0  0  0  0  0  0  0  0
   -1.6955    2.5266    3.0645 N   0  0  0  0  0  0  0  0  0  0  0  0
   -1.9295    1.3672   -0.3295 C   0  0  0  0  0  0  0  0  0  0  0  0
   -2.7111    1.1675   -1.4758 C   0  0  0  0  0  0  0  0  0  0  0  0
   -4.2661    1.6090   -2.0898 S   0  0  0  0  0  0  0  0  0  0  0  0
   -3.9448    0.6448   -3.5126 C   0  0  0  0  0  0  0  0  0  0  0  0
   -4.7080    0.3774   -4.6547 C   0  0  0  0  0  0  0  0  0  0  0  0
   -6.0682    0.8892   -4.8385 C   0  0  0  0  0  0  0  0  0  0  0  0
   -7.1682    0.0554   -5.0688 C   0  0  0  0  0  0  0  0  0  0  0  0
   -7.0850   -1.4422   -4.9511 C   0  0  0  0  0  0  0  0  0  0  0  0
   -6.9695   -1.8526   -3.4815 C   0  0  0  0  0  0  0  0  0  0  0  0
   -8.4031    0.6480   -5.2968 C   0  0  0  0  0  0  0  0  0  0  0  0
   -8.5620    2.0228   -5.2902 C   0  0  0  0  0  0  0  0  0  0  0  0
   -7.4799    2.8373   -5.0102 C   0  0  0  0  0  0  0  0  0  0  0  0
   -6.2410    2.2711   -4.7808 C   0  0  0  0  0  0  0  0  0  0  0  0
   -4.0176   -0.4543   -5.5379 C   0  0  0  0  0  0  0  0  0  0  0  0
   -2.4605   -0.9683   -4.8852 S   0  0  0  0  0  0  0  0  0  0  0  0
   -2.6947    0.0057   -3.4836 C   0  0  0  0  0  0  0  0  0  0  0  0
   -1.9844    0.3201   -2.3227 C   0  0  0  0  0  0  0  0  0  0  0  0
   -0.7801    0.0082   -1.7495 N   0  0  0  0  0  0  0  0  0  0  0  0
   -0.7077    0.6614   -0.5340 C   0  0  0  0  0  0  0  0  0  0  0  0
    0.3062    0.7477    0.4547 C   0  0  0  0  0  0  0  0  0  0  0  0
    1.6344    0.3481    0.4793 N   0  0  0  0  0  0  0  0  0  0  0  0
    2.1283    0.6465    1.7234 C   0  0  0  0  0  0  0  0  0  0  0  0
    3.3460    0.5498    2.4012 C   0  0  0  0  0  0  0  0  0  0  0  0
    4.9437    0.0101    2.0538 S   0  0  0  0  0  0  0  0  0  0  0  0
    2.5740    0.2341   -0.6168 C   0  0  0  0  0  0  0  0  0  0  0  0
    2.8122    1.5923   -1.2732 C   0  0  0  0  0  0  0  0  0  0  0  0
   -0.0133   -1.1080   -2.2562 C   0  0  0  0  0  0  0  0  0  0  0  0
    0.8112   -0.7335   -3.4867 C   0  0  0  0  0  0  0  0  0  0  0  0
   -4.3977   -0.9784   -6.7864 C   0  0  0  0  0  0  0  0  0  0  0  0
   -5.2503   -0.3992   -7.6938 C   0  0  0  0  0  0  0  0  0  0  0  0
   -5.5147    1.0497   -7.7919 C   0  0  0  0  0  0  0  0  0  0  0  0
   -5.0555    1.9378   -7.1058 O   0  0  0  0  0  0  0  0  0  0  0  0
   -6.3360    1.2158   -9.0104 C   0  0  0  0  0  0  0  0  0  0  0  0
   -6.8569    2.3766   -9.5416 C   0  0  0  0  0  0  0  0  0  0  0  0
   -7.5867    2.2909  -10.7211 C   0  0  0  0  0  0  0  0  0  0  0  0
   -8.2636    3.7114  -11.4080 Cl  0  0  0  0  0  0  0  0  0  0  0  0
   -7.7688    1.0548  -11.3497 C   0  0  0  0  0  0  0  0  0  0  0  0
   -8.6590    0.9662  -12.8161 Cl  0  0  0  0  0  0  0  0  0  0  0  0
   -7.2390   -0.1133  -10.8113 C   0  0  0  0  0  0  0  0  0  0  0  0
   -6.5209   -0.0316   -9.6302 C   0  0  0  0  0  0  0  0  0  0  0  0
   -5.8710   -1.0582   -8.8189 C   0  0  0  0  0  0  0  0  0  0  0  0
   -5.9455   -2.4121   -9.0275 C   0  0  0  0  0  0  0  0  0  0  0  0
   -5.4235   -3.3830   -8.1483 C   0  0  0  0  0  0  0  0  0  0  0  0
   -5.0461   -4.2221   -7.4607 N   0  0  0  0  0  0  0  0  0  0  0  0
   -6.5907   -3.0078  -10.1303 C   0  0  0  0  0  0  0  0  0  0  0  0
   -7.0920   -3.5497  -11.0094 N   0  0  0  0  0  0  0  0  0  0  0  0
    7.4673    0.1042    3.1234 H   0  0  0  0  0  0  0  0  0  0  0  0
    8.5610   -1.3351   10.6578 H   0  0  0  0  0  0  0  0  0  0  0  0
   10.8027   -0.9611    9.6870 H   0  0  0  0  0  0  0  0  0  0  0  0
   11.0673   -0.3739    7.3213 H   0  0  0  0  0  0  0  0  0  0  0  0
    2.9740    0.2596    6.4557 H   0  0  0  0  0  0  0  0  0  0  0  0
    3.0454    1.0326    8.7896 H   0  0  0  0  0  0  0  0  0  0  0  0
    4.6788    2.7745    9.4483 H   0  0  0  0  0  0  0  0  0  0  0  0
    6.1379    3.7777    7.7598 H   0  0  0  0  0  0  0  0  0  0  0  0
    5.9014    4.2590    4.9591 H   0  0  0  0  0  0  0  0  0  0  0  0
    6.2971    2.7301    4.1884 H   0  0  0  0  0  0  0  0  0  0  0  0
    8.3973    3.6974    4.7535 H   0  0  0  0  0  0  0  0  0  0  0  0
    7.8678    4.1772    6.3617 H   0  0  0  0  0  0  0  0  0  0  0  0
    8.1426    2.4765    6.0033 H   0  0  0  0  0  0  0  0  0  0  0  0
   -6.2325   -1.8440   -5.4995 H   0  0  0  0  0  0  0  0  0  0  0  0
   -7.9879   -1.8854   -5.3756 H   0  0  0  0  0  0  0  0  0  0  0  0
   -6.0590   -1.4505   -3.0424 H   0  0  0  0  0  0  0  0  0  0  0  0
   -6.9464   -2.9361   -3.3955 H   0  0  0  0  0  0  0  0  0  0  0  0
   -7.8171   -1.4746   -2.9145 H   0  0  0  0  0  0  0  0  0  0  0  0
   -9.2602    0.0147   -5.4775 H   0  0  0  0  0  0  0  0  0  0  0  0
   -9.5328    2.4529   -5.4866 H   0  0  0  0  0  0  0  0  0  0  0  0
   -7.5965    3.9095   -4.9737 H   0  0  0  0  0  0  0  0  0  0  0  0
   -5.3859    2.8988   -4.5865 H   0  0  0  0  0  0  0  0  0  0  0  0
    2.2363   -0.4881   -1.3533 H   0  0  0  0  0  0  0  0  0  0  0  0
    3.5090   -0.1374   -0.1903 H   0  0  0  0  0  0  0  0  0  0  0  0
    3.2016    2.2998   -0.5449 H   0  0  0  0  0  0  0  0  0  0  0  0
    3.5347    1.4932   -2.0786 H   0  0  0  0  0  0  0  0  0  0  0  0
    1.8837    1.9918   -1.6764 H   0  0  0  0  0  0  0  0  0  0  0  0
    0.6029   -1.5052   -1.4487 H   0  0  0  0  0  0  0  0  0  0  0  0
   -0.7234   -1.8929   -2.5404 H   0  0  0  0  0  0  0  0  0  0  0  0
    1.4369   -1.5725   -3.7781 H   0  0  0  0  0  0  0  0  0  0  0  0
    0.1519   -0.4962   -4.3169 H   0  0  0  0  0  0  0  0  0  0  0  0
    1.4418    0.1307   -3.2989 H   0  0  0  0  0  0  0  0  0  0  0  0
   -3.9358   -1.9238   -7.0497 H   0  0  0  0  0  0  0  0  0  0  0  0
   -6.7037    3.3233   -9.0485 H   0  0  0  0  0  0  0  0  0  0  0  0
   -7.3940   -1.0472  -11.3264 H   0  0  0  0  0  0  0  0  0  0  0  0
  1  2  2  0  0  0  0
  2  3  1  0  0  0  0
  3  4  2  0  0  0  0
  3  5  1  0  0  0  0
  5  6  2  0  0  0  0
  6  7  1  0  0  0  0
  6  8  1  0  0  0  0
  8  9  2  0  0  0  0
  9 10  1  0  0  0  0
 10 11  2  0  0  0  0
 11 12  1  0  0  0  0
 12 13  2  0  0  0  0
 13 14  1  0  0  0  0
 14 15  3  0  0  0  0
 13 16  1  0  0  0  0
 16 17  3  0  0  0  0
  1 18  1  0  0  0  0
 18 19  2  0  0  0  0
 19 20  1  0  0  0  0
 20 21  2  0  0  0  0
 21 22  1  0  0  0  0
 22 23  2  0  0  0  0
 23 24  1  0  0  0  0
 24 25  2  0  0  0  0
 25 26  1  0  0  0  0
 26 27  1  0  0  0  0
 19 28  1  0  0  0  0
 28 29  1  0  0  0  0
 29 30  1  0  0  0  0
 30 31  1  0  0  0  0
 31 32  1  0  0  0  0
 32 33  1  0  0  0  0
 33 34  2  0  0  0  0
 34 35  1  0  0  0  0
 35 36  1  0  0  0  0
 33 37  1  0  0  0  0
 37 38  1  0  0  0  0
 38 39  1  0  0  0  0
 39 40  1  0  0  0  0
 40 41  1  0  0  0  0
 41 42  1  0  0  0  0
 42 43  2  0  0  0  0
 43 44  1  0  0  0  0
 44 45  1  0  0  0  0
 43 46  1  0  0  0  0
 46 47  2  0  0  0  0
 47 48  1  0  0  0  0
 48 49  2  0  0  0  0
 41 50  2  0  0  0  0
 50 51  1  0  0  0  0
 51 52  1  0  0  0  0
 52 53  1  0  0  0  0
 53 54  1  0  0  0  0
 54 55  1  0  0  0  0
 55 56  1  0  0  0  0
 56 57  1  0  0  0  0
 57 58  1  0  0  0  0
 58 59  1  0  0  0  0
 59 60  1  0  0  0  0
 57 61  1  0  0  0  0
 61 62  1  0  0  0  0
 54 63  1  0  0  0  0
 63 64  1  0  0  0  0
 50 65  1  0  0  0  0
 65 66  2  0  0  0  0
 66 67  1  0  0  0  0
 67 68  2  0  0  0  0
 67 69  1  0  0  0  0
 69 70  2  0  0  0  0
 70 71  1  0  0  0  0
 71 72  1  0  0  0  0
 71 73  2  0  0  0  0
 73 74  1  0  0  0  0
 73 75  1  0  0  0  0
 75 76  2  0  0  0  0
 76 77  1  0  0  0  0
 77 78  2  0  0  0  0
 78 79  1  0  0  0  0
 79 80  3  0  0  0  0
 78 81  1  0  0  0  0
 81 82  3  0  0  0  0
 12  2  1  0  0  0  0
 60 18  1  0  0  0  0
 77 66  1  0  0  0  0
 11  5  1  0  0  0  0
 25 20  1  0  0  0  0
 59 28  2  0  0  0  0
 76 69  1  0  0  0  0
 58 30  2  0  0  0  0
 56 31  2  0  0  0  0
 36 32  2  0  0  0  0
 55 37  2  0  0  0  0
 53 38  2  0  0  0  0
 52 40  2  0  0  0  0
 49 42  1  0  0  0  0
  1 83  1  0  0  0  0
  8 84  1  0  0  0  0
  9 85  1  0  0  0  0
 10 86  1  0  0  0  0
 21 87  1  0  0  0  0
 22 88  1  0  0  0  0
 23 89  1  0  0  0  0
 24 90  1  0  0  0  0
 26 91  1  0  0  0  0
 26 92  1  0  0  0  0
 27 93  1  0  0  0  0
 27 94  1  0  0  0  0
 27 95  1  0  0  0  0
 44 96  1  0  0  0  0
 44 97  1  0  0  0  0
 45 98  1  0  0  0  0
 45 99  1  0  0  0  0
 45100  1  0  0  0  0
 46101  1  0  0  0  0
 47102  1  0  0  0  0
 48103  1  0  0  0  0
 49104  1  0  0  0  0
 61105  1  0  0  0  0
 61106  1  0  0  0  0
 62107  1  0  0  0  0
 62108  1  0  0  0  0
 62109  1  0  0  0  0
 63110  1  0  0  0  0
 63111  1  0  0  0  0
 64112  1  0  0  0  0
 64113  1  0  0  0  0
 64114  1  0  0  0  0
 65115  1  0  0  0  0
 70116  1  0  0  0  0
 75117  1  0  0  0  0
M  END
