
  xtb     02032200413D
 energy: -226.352763266787 gnorm: 0.000951527879 xtb: 6.4.1 (unknown)
130146  0     0  0            999 V2000
   -3.2850   -0.3859    7.6483 C   0  0  0  0  0  0  0  0  0  0  0  0
   -2.4759   -1.2569    8.3410 C   0  0  0  0  0  0  0  0  0  0  0  0
   -1.2996   -1.9426    7.8004 C   0  0  0  0  0  0  0  0  0  0  0  0
   -0.8022   -1.8046    6.6981 O   0  0  0  0  0  0  0  0  0  0  0  0
   -0.8359   -2.8500    8.8694 C   0  0  0  0  0  0  0  0  0  0  0  0
    0.2140   -3.7490    8.8930 C   0  0  0  0  0  0  0  0  0  0  0  0
    1.0115   -3.9065    7.8311 F   0  0  0  0  0  0  0  0  0  0  0  0
    0.4526   -4.5080   10.0323 C   0  0  0  0  0  0  0  0  0  0  0  0
   -0.3675   -4.3572   11.1363 C   0  0  0  0  0  0  0  0  0  0  0  0
   -1.4284   -3.4589   11.1362 C   0  0  0  0  0  0  0  0  0  0  0  0
   -1.6613   -2.7030    9.9998 C   0  0  0  0  0  0  0  0  0  0  0  0
   -2.6755   -1.6866    9.7059 C   0  0  0  0  0  0  0  0  0  0  0  0
   -3.5989   -1.2140   10.6038 C   0  0  0  0  0  0  0  0  0  0  0  0
   -4.5250   -0.1759   10.3697 C   0  0  0  0  0  0  0  0  0  0  0  0
   -5.2946    0.6728   10.2840 N   0  0  0  0  0  0  0  0  0  0  0  0
   -3.7315   -1.6823   11.9277 C   0  0  0  0  0  0  0  0  0  0  0  0
   -3.8996   -2.0169   13.0131 N   0  0  0  0  0  0  0  0  0  0  0  0
   -3.1810    0.1124    6.3474 C   0  0  0  0  0  0  0  0  0  0  0  0
   -4.1374    1.0000    5.8155 C   0  0  0  0  0  0  0  0  0  0  0  0
   -5.3221    1.4781    6.5434 C   0  0  0  0  0  0  0  0  0  0  0  0
   -6.5677    1.0095    6.1354 C   0  0  0  0  0  0  0  0  0  0  0  0
   -7.7168    1.4133    6.7864 C   0  0  0  0  0  0  0  0  0  0  0  0
   -7.6275    2.2982    7.8473 C   0  0  0  0  0  0  0  0  0  0  0  0
   -6.3939    2.7826    8.2391 C   0  0  0  0  0  0  0  0  0  0  0  0
   -5.2265    2.3854    7.6012 C   0  0  0  0  0  0  0  0  0  0  0  0
   -3.9158    3.0060    7.9939 C   0  0  0  0  0  0  0  0  0  0  0  0
   -3.6372    4.2344    7.1245 C   0  0  0  0  0  0  0  0  0  0  0  0
   -3.8503    1.3339    4.5003 C   0  0  0  0  0  0  0  0  0  0  0  0
   -4.6494    2.3709    3.3331 S   0  0  0  0  0  0  0  0  0  0  0  0
   -3.4034    1.9928    2.1917 C   0  0  0  0  0  0  0  0  0  0  0  0
   -3.0338    2.3125    0.8752 C   0  0  0  0  0  0  0  0  0  0  0  0
   -3.5196    3.2473   -0.0694 C   0  0  0  0  0  0  0  0  0  0  0  0
   -2.7904    3.4547   -1.2943 C   0  0  0  0  0  0  0  0  0  0  0  0
   -3.3184    4.4148   -2.0361 N   0  0  0  0  0  0  0  0  0  0  0  0
   -4.6192    5.0018   -1.2743 S   0  0  0  0  0  0  0  0  0  0  0  0
   -4.5611    4.0562    0.0374 N   0  0  0  0  0  0  0  0  0  0  0  0
   -1.6944    2.6130   -1.5977 C   0  0  0  0  0  0  0  0  0  0  0  0
   -0.8754    2.4656   -2.7305 C   0  0  0  0  0  0  0  0  0  0  0  0
   -0.5898    3.2393   -4.2517 S   0  0  0  0  0  0  0  0  0  0  0  0
    0.6448    2.0493   -4.5983 C   0  0  0  0  0  0  0  0  0  0  0  0
    1.4970    1.8520   -5.6908 C   0  0  0  0  0  0  0  0  0  0  0  0
    1.4803    2.6621   -6.9184 C   0  0  0  0  0  0  0  0  0  0  0  0
    1.9191    3.9872   -6.9309 C   0  0  0  0  0  0  0  0  0  0  0  0
    2.5432    4.6258   -5.7244 C   0  0  0  0  0  0  0  0  0  0  0  0
    4.0431    4.3254   -5.6839 C   0  0  0  0  0  0  0  0  0  0  0  0
    1.8475    4.6940   -8.1250 C   0  0  0  0  0  0  0  0  0  0  0  0
    1.3530    4.1142   -9.2783 C   0  0  0  0  0  0  0  0  0  0  0  0
    0.9217    2.7987   -9.2582 C   0  0  0  0  0  0  0  0  0  0  0  0
    0.9879    2.0772   -8.0823 C   0  0  0  0  0  0  0  0  0  0  0  0
    2.3410    0.7625   -5.4918 C   0  0  0  0  0  0  0  0  0  0  0  0
    2.0161   -0.0556   -3.9650 S   0  0  0  0  0  0  0  0  0  0  0  0
    0.7976    1.0987   -3.5797 C   0  0  0  0  0  0  0  0  0  0  0  0
   -0.0661    1.3408   -2.5106 C   0  0  0  0  0  0  0  0  0  0  0  0
   -0.3349    0.7982   -1.2794 N   0  0  0  0  0  0  0  0  0  0  0  0
   -1.3020    1.5915   -0.6931 C   0  0  0  0  0  0  0  0  0  0  0  0
   -1.8585    1.5603    0.6025 C   0  0  0  0  0  0  0  0  0  0  0  0
   -1.4817    0.8632    1.7312 N   0  0  0  0  0  0  0  0  0  0  0  0
   -2.4281    1.1161    2.6928 C   0  0  0  0  0  0  0  0  0  0  0  0
   -2.6713    0.7386    4.0139 C   0  0  0  0  0  0  0  0  0  0  0  0
   -1.9132   -0.2744    5.1837 S   0  0  0  0  0  0  0  0  0  0  0  0
   -0.1322    0.4928    2.1130 C   0  0  0  0  0  0  0  0  0  0  0  0
    0.4872    1.5422    3.0351 C   0  0  0  0  0  0  0  0  0  0  0  0
   -0.1064   -0.6102   -1.0251 C   0  0  0  0  0  0  0  0  0  0  0  0
   -0.8378   -1.4815   -2.0459 C   0  0  0  0  0  0  0  0  0  0  0  0
    3.2989    0.2975   -6.4166 C   0  0  0  0  0  0  0  0  0  0  0  0
    4.2922   -0.6207   -6.2598 C   0  0  0  0  0  0  0  0  0  0  0  0
    4.8464   -1.3079   -7.4569 C   0  0  0  0  0  0  0  0  0  0  0  0
    4.7104   -0.9734   -8.6124 O   0  0  0  0  0  0  0  0  0  0  0  0
    5.5308   -2.5072   -6.9334 C   0  0  0  0  0  0  0  0  0  0  0  0
    6.1064   -3.5403   -7.6695 C   0  0  0  0  0  0  0  0  0  0  0  0
    6.6483   -4.5422   -6.9006 C   0  0  0  0  0  0  0  0  0  0  0  0
    6.6180   -4.5264   -5.4994 C   0  0  0  0  0  0  0  0  0  0  0  0
    6.0651   -3.5090   -4.7586 C   0  0  0  0  0  0  0  0  0  0  0  0
    5.5143   -2.4783   -5.5228 C   0  0  0  0  0  0  0  0  0  0  0  0
    4.8992   -1.2243   -5.0955 C   0  0  0  0  0  0  0  0  0  0  0  0
    5.1232   -0.6028   -3.8937 C   0  0  0  0  0  0  0  0  0  0  0  0
    4.8089    0.7525   -3.6650 C   0  0  0  0  0  0  0  0  0  0  0  0
    4.6235    1.8674   -3.4622 N   0  0  0  0  0  0  0  0  0  0  0  0
    5.7770   -1.2001   -2.7995 C   0  0  0  0  0  0  0  0  0  0  0  0
    6.2759   -1.6426   -1.8645 N   0  0  0  0  0  0  0  0  0  0  0  0
    7.3213   -5.8554   -5.3893 C   0  0  0  0  0  0  0  0  0  0  0  0
    6.4636   -7.1017   -5.0575 C   0  0  0  0  0  0  0  0  0  0  0  0
    5.0711   -6.8120   -5.5601 C   0  0  0  0  0  0  0  0  0  0  0  0
    5.1076   -6.8261   -6.8859 C   0  0  0  0  0  0  0  0  0  0  0  0
    6.5261   -7.1251   -7.3038 C   0  0  0  0  0  0  0  0  0  0  0  0
    6.9556   -8.0553   -6.1580 C   0  0  0  0  0  0  0  0  0  0  0  0
    7.3621   -5.8703   -6.9500 C   0  0  0  0  0  0  0  0  0  0  0  0
   -4.1594   -0.0156    8.1716 H   0  0  0  0  0  0  0  0  0  0  0  0
    1.2756   -5.2052   10.0367 H   0  0  0  0  0  0  0  0  0  0  0  0
   -0.1799   -4.9499   12.0183 H   0  0  0  0  0  0  0  0  0  0  0  0
   -2.0495   -3.3667   12.0111 H   0  0  0  0  0  0  0  0  0  0  0  0
   -6.6234    0.3143    5.3100 H   0  0  0  0  0  0  0  0  0  0  0  0
   -8.6767    1.0362    6.4672 H   0  0  0  0  0  0  0  0  0  0  0  0
   -8.5199    2.6135    8.3665 H   0  0  0  0  0  0  0  0  0  0  0  0
   -6.3275    3.4776    9.0625 H   0  0  0  0  0  0  0  0  0  0  0  0
   -3.0962    2.2949    7.8799 H   0  0  0  0  0  0  0  0  0  0  0  0
   -3.9597    3.3040    9.0426 H   0  0  0  0  0  0  0  0  0  0  0  0
   -2.6960    4.6976    7.4119 H   0  0  0  0  0  0  0  0  0  0  0  0
   -3.5795    3.9521    6.0753 H   0  0  0  0  0  0  0  0  0  0  0  0
   -4.4340    4.9658    7.2367 H   0  0  0  0  0  0  0  0  0  0  0  0
    2.0835    4.2574   -4.8074 H   0  0  0  0  0  0  0  0  0  0  0  0
    2.3927    5.7062   -5.7698 H   0  0  0  0  0  0  0  0  0  0  0  0
    4.5245    4.6628   -6.5996 H   0  0  0  0  0  0  0  0  0  0  0  0
    4.2155    3.2572   -5.5743 H   0  0  0  0  0  0  0  0  0  0  0  0
    4.5042    4.8288   -4.8385 H   0  0  0  0  0  0  0  0  0  0  0  0
    2.1890    5.7190   -8.1451 H   0  0  0  0  0  0  0  0  0  0  0  0
    1.3065    4.6859  -10.1931 H   0  0  0  0  0  0  0  0  0  0  0  0
    0.5358    2.3355  -10.1536 H   0  0  0  0  0  0  0  0  0  0  0  0
    0.6452    1.0524   -8.0541 H   0  0  0  0  0  0  0  0  0  0  0  0
    0.4851    0.4166    1.2204 H   0  0  0  0  0  0  0  0  0  0  0  0
   -0.1665   -0.4742    2.6240 H   0  0  0  0  0  0  0  0  0  0  0  0
    1.5141    1.2649    3.2554 H   0  0  0  0  0  0  0  0  0  0  0  0
   -0.0583    1.6110    3.9718 H   0  0  0  0  0  0  0  0  0  0  0  0
    0.4835    2.5173    2.5520 H   0  0  0  0  0  0  0  0  0  0  0  0
   -0.4816   -0.8580   -0.0341 H   0  0  0  0  0  0  0  0  0  0  0  0
    0.9696   -0.8064   -1.0711 H   0  0  0  0  0  0  0  0  0  0  0  0
   -0.4574   -1.3141   -3.0496 H   0  0  0  0  0  0  0  0  0  0  0  0
   -1.9031   -1.2599   -2.0338 H   0  0  0  0  0  0  0  0  0  0  0  0
   -0.6960   -2.5288   -1.7945 H   0  0  0  0  0  0  0  0  0  0  0  0
    3.1727    0.6685   -7.4298 H   0  0  0  0  0  0  0  0  0  0  0  0
    6.1104   -3.5176   -8.7480 H   0  0  0  0  0  0  0  0  0  0  0  0
    6.0432   -3.5042   -3.6810 H   0  0  0  0  0  0  0  0  0  0  0  0
    8.2684   -5.8501   -4.8536 H   0  0  0  0  0  0  0  0  0  0  0  0
    6.5414   -7.4417   -4.0282 H   0  0  0  0  0  0  0  0  0  0  0  0
    4.2404   -6.5766   -4.9207 H   0  0  0  0  0  0  0  0  0  0  0  0
    4.3140   -6.6049   -7.5753 H   0  0  0  0  0  0  0  0  0  0  0  0
    6.6614   -7.4867   -8.3197 H   0  0  0  0  0  0  0  0  0  0  0  0
    6.4213   -9.0042   -6.1631 H   0  0  0  0  0  0  0  0  0  0  0  0
    8.0289   -8.2374   -6.1261 H   0  0  0  0  0  0  0  0  0  0  0  0
    8.3371   -5.8705   -7.4332 H   0  0  0  0  0  0  0  0  0  0  0  0
  1  2  2  0  0  0  0
  2  3  1  0  0  0  0
  3  4  2  0  0  0  0
  3  5  1  0  0  0  0
  5  6  2  0  0  0  0
  6  7  1  0  0  0  0
  6  8  1  0  0  0  0
  8  9  2  0  0  0  0
  9 10  1  0  0  0  0
 10 11  2  0  0  0  0
 11 12  1  0  0  0  0
 12 13  2  0  0  0  0
 13 14  1  0  0  0  0
 14 15  3  0  0  0  0
 13 16  1  0  0  0  0
 16 17  3  0  0  0  0
  1 18  1  0  0  0  0
 18 19  2  0  0  0  0
 19 20  1  0  0  0  0
 20 21  2  0  0  0  0
 21 22  1  0  0  0  0
 22 23  2  0  0  0  0
 23 24  1  0  0  0  0
 24 25  2  0  0  0  0
 25 26  1  0  0  0  0
 26 27  1  0  0  0  0
 19 28  1  0  0  0  0
 28 29  1  0  0  0  0
 29 30  1  0  0  0  0
 30 31  1  0  0  0  0
 31 32  1  0  0  0  0
 32 33  1  0  0  0  0
 33 34  2  0  0  0  0
 34 35  1  0  0  0  0
 35 36  1  0  0  0  0
 33 37  1  0  0  0  0
 37 38  1  0  0  0  0
 38 39  1  0  0  0  0
 39 40  1  0  0  0  0
 40 41  1  0  0  0  0
 41 42  1  0  0  0  0
 42 43  2  0  0  0  0
 43 44  1  0  0  0  0
 44 45  1  0  0  0  0
 43 46  1  0  0  0  0
 46 47  2  0  0  0  0
 47 48  1  0  0  0  0
 48 49  2  0  0  0  0
 41 50  2  0  0  0  0
 50 51  1  0  0  0  0
 51 52  1  0  0  0  0
 52 53  1  0  0  0  0
 53 54  1  0  0  0  0
 54 55  1  0  0  0  0
 55 56  1  0  0  0  0
 56 57  1  0  0  0  0
 57 58  1  0  0  0  0
 58 59  1  0  0  0  0
 59 60  1  0  0  0  0
 57 61  1  0  0  0  0
 61 62  1  0  0  0  0
 54 63  1  0  0  0  0
 63 64  1  0  0  0  0
 50 65  1  0  0  0  0
 65 66  2  0  0  0  0
 66 67  1  0  0  0  0
 67 68  2  0  0  0  0
 67 69  1  0  0  0  0
 69 70  2  0  0  0  0
 70 71  1  0  0  0  0
 71 72  2  0  0  0  0
 72 73  1  0  0  0  0
 73 74  2  0  0  0  0
 74 75  1  0  0  0  0
 75 76  2  0  0  0  0
 76 77  1  0  0  0  0
 77 78  3  0  0  0  0
 76 79  1  0  0  0  0
 79 80  3  0  0  0  0
 72 81  1  0  0  0  0
 81 82  1  0  0  0  0
 82 83  1  0  0  0  0
 83 84  2  0  0  0  0
 84 85  1  0  0  0  0
 85 86  1  0  0  0  0
 85 87  1  0  0  0  0
 12  2  1  0  0  0  0
 60 18  1  0  0  0  0
 75 66  1  0  0  0  0
 87 81  1  0  0  0  0
 11  5  1  0  0  0  0
 25 20  1  0  0  0  0
 59 28  2  0  0  0  0
 74 69  1  0  0  0  0
 86 82  1  0  0  0  0
 58 30  2  0  0  0  0
 87 71  1  0  0  0  0
 56 31  2  0  0  0  0
 36 32  2  0  0  0  0
 55 37  2  0  0  0  0
 53 38  2  0  0  0  0
 52 40  2  0  0  0  0
 49 42  1  0  0  0  0
  1 88  1  0  0  0  0
  8 89  1  0  0  0  0
  9 90  1  0  0  0  0
 10 91  1  0  0  0  0
 21 92  1  0  0  0  0
 22 93  1  0  0  0  0
 23 94  1  0  0  0  0
 24 95  1  0  0  0  0
 26 96  1  0  0  0  0
 26 97  1  0  0  0  0
 27 98  1  0  0  0  0
 27 99  1  0  0  0  0
 27100  1  0  0  0  0
 44101  1  0  0  0  0
 44102  1  0  0  0  0
 45103  1  0  0  0  0
 45104  1  0  0  0  0
 45105  1  0  0  0  0
 46106  1  0  0  0  0
 47107  1  0  0  0  0
 48108  1  0  0  0  0
 49109  1  0  0  0  0
 61110  1  0  0  0  0
 61111  1  0  0  0  0
 62112  1  0  0  0  0
 62113  1  0  0  0  0
 62114  1  0  0  0  0
 63115  1  0  0  0  0
 63116  1  0  0  0  0
 64117  1  0  0  0  0
 64118  1  0  0  0  0
 64119  1  0  0  0  0
 65120  1  0  0  0  0
 70121  1  0  0  0  0
 73122  1  0  0  0  0
 81123  1  0  0  0  0
 82124  1  0  0  0  0
 83125  1  0  0  0  0
 84126  1  0  0  0  0
 85127  1  0  0  0  0
 86128  1  0  0  0  0
 86129  1  0  0  0  0
 87130  1  0  0  0  0
M  END
