112

C         -1.86980       -3.94270       -8.00770
C         -3.12090       -4.41320       -8.33130
C         -4.32600       -4.28000       -7.50500
O         -4.41170       -3.80110       -6.39130
C         -5.42820       -4.84810       -8.31100
C         -6.77890       -4.95650       -8.03780
F         -7.28840       -4.51040       -6.88460
C         -7.63220       -5.53460       -8.97010
C         -7.11990       -5.99850      -10.16850
C         -5.76550       -5.90050      -10.46550
C         -4.91930       -5.32350       -9.53370
C         -3.47440       -5.08070       -9.56300
C         -2.63610       -5.45590      -10.58320
C         -1.24050       -5.25720      -10.62180
N         -0.10280       -5.14320      -10.73880
C         -3.05340       -6.11860      -11.75610
N         -3.31440       -6.65690      -12.73630
C         -1.39980       -3.29370       -6.86180
S         -2.32760       -2.93320       -5.40600
C         -0.93750       -2.22480       -4.69520
C         -0.54300       -1.59090       -3.49970
C          0.82930       -1.24410       -3.68470
N          1.25100       -1.65820       -4.92660
C          0.18820       -2.25340       -5.55150
C         -0.06990       -2.85960       -6.76520
C          2.57300       -1.48580       -5.45930
C          1.54280       -0.56980       -2.70820
C          0.87840       -0.28510       -1.52330
C          1.30560        0.40460       -0.34010
C          0.26410        0.52580        0.53350
C         -0.98650       -0.13740        0.01880
C         -2.13270        0.85450       -0.27040
C         -2.70770        1.59130        0.93100
C         -1.36180       -1.27430        0.99230
C         -2.55720       -2.13110        0.59720
C         -0.48880       -0.64370       -1.32630
C         -1.20680       -1.26790       -2.31080
C          0.69200        1.21440        1.71700
C          2.05220        1.59520        1.50940
C          2.55360        1.07680        0.17000
C          3.69970        0.09060        0.48070
C          4.27870       -0.66810       -0.70490
C          2.93110        2.19780       -0.82030
C          4.12660        3.06090       -0.43900
C          2.76420        2.24010        2.48380
C          2.10610        2.54430        3.68120
C          2.49470        3.17230        4.87920
S          3.85570        3.93420        5.58600
C          2.96660        4.16870        7.09100
C          1.65860        3.70370        7.00440
C          1.39380        3.14430        5.76180
N          0.33720        2.53730        5.14210
C         -0.94540        2.25150        5.72060
C          0.74860        2.15330        3.88740
C          0.03730        1.47390        2.91220
C          3.62410        4.82150        8.14600
C          3.28360        4.92600        9.46790
C          3.88610        6.02810       10.26460
O          4.80640        6.73640        9.93320
C          3.08420        6.08260       11.50900
C          3.11250        6.97470       12.56510
F          3.98490        7.98670       12.59050
C          2.22210        6.82930       13.62270
C          1.30640        5.79220       13.60950
C          1.26280        4.87770       12.56380
C          2.15700        5.02330       11.51760
C          2.36770        4.21060       10.31570
C          1.95920        2.90640       10.17760
C          2.40250        2.04690        9.15380
N          2.75160        1.29050        8.36340
C          1.10970        2.24020       11.08210
N          0.39420        1.65180       11.76130
H         -1.10040       -4.07780       -8.75840
H         -8.68390       -5.61170       -8.74340
H         -7.78600       -6.44590      -10.89000
H         -5.39820       -6.26910      -11.40840
H          0.63260       -3.00140       -7.56710
H          3.31610       -1.90310       -4.77570
H          2.79470       -0.42630       -5.61520
H          2.64300       -2.00350       -6.41300
H          2.56250       -0.26660       -2.87670
H         -2.93290        0.30610       -0.76870
H         -1.75290        1.59110       -0.98360
H         -1.96430        2.24820        1.37380
H         -3.07000        0.89700        1.68500
H         -3.54810        2.20250        0.60770
H         -0.48460       -1.91900        1.09320
H         -1.54970       -0.83220        1.97170
H         -2.75570       -2.85350        1.38650
H         -2.35800       -2.68180       -0.31720
H         -3.45150       -1.52920        0.46010
H         -2.25370       -1.50500       -2.21190
H          3.31770       -0.63280        1.20580
H          4.49800        0.64810        0.97190
H          5.11710       -1.27410       -0.36690
H          3.53640       -1.33260       -1.13780
H          4.64460        0.01170       -1.47030
H          2.05440        2.84120       -0.93340
H          3.12020        1.73910       -1.79180
H          4.32980        3.76600       -1.24280
H          5.01900        2.46010       -0.28570
H          3.92460        3.63160        0.46240
H          3.80460        2.50020        2.37360
H          0.94480        3.81870        7.79990
H         -1.06680        1.17750        5.88630
H         -1.02910        2.76340        6.67640
H         -1.74350        2.60020        5.06160
H         -0.97160        1.14280        3.09200
H          4.50360        5.39530        7.86790
H          2.25870        7.53240       14.43970
H          0.61220        5.68960       14.42930
H          0.53660        4.08170       12.57580
