
  xtb     02012215513D
 energy: -212.561663134237 gnorm: 0.000885151739 xtb: 6.4.1 (unknown)
117130  0     0  0            999 V2000
   -2.6203   -2.3906    7.2258 C   0  0  0  0  0  0  0  0  0  0  0  0
   -1.6553   -3.2217    7.7421 C   0  0  0  0  0  0  0  0  0  0  0  0
   -0.5397   -3.8039    6.9925 C   0  0  0  0  0  0  0  0  0  0  0  0
   -0.2323   -3.5857    5.8351 O   0  0  0  0  0  0  0  0  0  0  0  0
    0.1318   -4.7276    7.9302 C   0  0  0  0  0  0  0  0  0  0  0  0
    1.2192   -5.5615    7.7478 C   0  0  0  0  0  0  0  0  0  0  0  0
    1.8539   -5.6197    6.5719 F   0  0  0  0  0  0  0  0  0  0  0  0
    1.6680   -6.3571    8.7951 C   0  0  0  0  0  0  0  0  0  0  0  0
    1.0186   -6.3086   10.0159 C   0  0  0  0  0  0  0  0  0  0  0  0
   -0.0750   -5.4761   10.2243 C   0  0  0  0  0  0  0  0  0  0  0  0
   -0.5170   -4.6832    9.1790 C   0  0  0  0  0  0  0  0  0  0  0  0
   -1.6163   -3.7178    9.0980 C   0  0  0  0  0  0  0  0  0  0  0  0
   -2.4115   -3.3309   10.1470 C   0  0  0  0  0  0  0  0  0  0  0  0
   -3.4122   -2.3367   10.0987 C   0  0  0  0  0  0  0  0  0  0  0  0
   -4.2255   -1.5273   10.1592 N   0  0  0  0  0  0  0  0  0  0  0  0
   -2.3132   -3.8568   11.4519 C   0  0  0  0  0  0  0  0  0  0  0  0
   -2.2906   -4.2446   12.5325 N   0  0  0  0  0  0  0  0  0  0  0  0
   -2.7418   -1.8128    5.9604 C   0  0  0  0  0  0  0  0  0  0  0  0
   -3.8268   -0.9745    5.6394 C   0  0  0  0  0  0  0  0  0  0  0  0
   -4.9554   -0.7515    6.5555 C   0  0  0  0  0  0  0  0  0  0  0  0
   -5.8424   -1.8009    6.7794 C   0  0  0  0  0  0  0  0  0  0  0  0
   -6.9114   -1.6456    7.6397 C   0  0  0  0  0  0  0  0  0  0  0  0
   -7.0950   -0.4384    8.2911 C   0  0  0  0  0  0  0  0  0  0  0  0
   -6.2112    0.6021    8.0756 C   0  0  0  0  0  0  0  0  0  0  0  0
   -5.1347    0.4688    7.2093 C   0  0  0  0  0  0  0  0  0  0  0  0
   -4.1423    1.5872    7.0682 C   0  0  0  0  0  0  0  0  0  0  0  0
   -2.9562    1.3659    8.0101 C   0  0  0  0  0  0  0  0  0  0  0  0
   -3.7011   -0.4412    4.3650 C   0  0  0  0  0  0  0  0  0  0  0  0
   -4.7212    0.6215    3.4120 S   0  0  0  0  0  0  0  0  0  0  0  0
   -3.5728    0.5083    2.1221 C   0  0  0  0  0  0  0  0  0  0  0  0
   -3.4042    0.9648    0.8080 C   0  0  0  0  0  0  0  0  0  0  0  0
   -4.2656    1.6970   -0.0399 C   0  0  0  0  0  0  0  0  0  0  0  0
   -3.8696    1.9287   -1.3986 C   0  0  0  0  0  0  0  0  0  0  0  0
   -4.7954    2.5704   -2.0928 N   0  0  0  0  0  0  0  0  0  0  0  0
   -6.0558    2.8633   -1.1196 S   0  0  0  0  0  0  0  0  0  0  0  0
   -5.4680    2.1814    0.2257 N   0  0  0  0  0  0  0  0  0  0  0  0
   -2.5745    1.5373   -1.8071 C   0  0  0  0  0  0  0  0  0  0  0  0
   -1.8626    1.8007   -2.9836 C   0  0  0  0  0  0  0  0  0  0  0  0
   -2.1069    2.5701   -4.5146 S   0  0  0  0  0  0  0  0  0  0  0  0
   -0.4150    2.2900   -4.8840 C   0  0  0  0  0  0  0  0  0  0  0  0
    0.3762    2.6221   -5.9742 C   0  0  0  0  0  0  0  0  0  0  0  0
   -0.0748    3.3634   -7.1613 C   0  0  0  0  0  0  0  0  0  0  0  0
   -0.9160    2.7800   -8.1107 C   0  0  0  0  0  0  0  0  0  0  0  0
   -1.3268    1.3387   -8.0120 C   0  0  0  0  0  0  0  0  0  0  0  0
   -0.2181    0.4344   -8.5560 C   0  0  0  0  0  0  0  0  0  0  0  0
   -1.2954    3.5361   -9.2112 C   0  0  0  0  0  0  0  0  0  0  0  0
   -0.8612    4.8381   -9.3743 C   0  0  0  0  0  0  0  0  0  0  0  0
   -0.0251    5.4095   -8.4312 C   0  0  0  0  0  0  0  0  0  0  0  0
    0.3684    4.6722   -7.3319 C   0  0  0  0  0  0  0  0  0  0  0  0
    1.7095    2.2062   -5.7937 C   0  0  0  0  0  0  0  0  0  0  0  0
    1.9548    1.4087   -4.2433 S   0  0  0  0  0  0  0  0  0  0  0  0
    0.2870    1.6248   -3.8603 C   0  0  0  0  0  0  0  0  0  0  0  0
   -0.5540    1.3401   -2.7816 C   0  0  0  0  0  0  0  0  0  0  0  0
   -0.4454    0.7820   -1.5364 N   0  0  0  0  0  0  0  0  0  0  0  0
   -1.6769    0.8678   -0.9217 C   0  0  0  0  0  0  0  0  0  0  0  0
   -2.1506    0.4587    0.3522 C   0  0  0  0  0  0  0  0  0  0  0  0
   -1.6026   -0.3259    1.3524 N   0  0  0  0  0  0  0  0  0  0  0  0
   -2.4647   -0.2951    2.4188 C   0  0  0  0  0  0  0  0  0  0  0  0
   -2.5323   -0.8544    3.6968 C   0  0  0  0  0  0  0  0  0  0  0  0
   -1.5785   -1.9342    4.6440 S   0  0  0  0  0  0  0  0  0  0  0  0
   -0.6970   -1.4522    1.2579 C   0  0  0  0  0  0  0  0  0  0  0  0
   -1.4460   -2.7180    0.8443 C   0  0  0  0  0  0  0  0  0  0  0  0
    0.8619    0.4905   -0.9920 C   0  0  0  0  0  0  0  0  0  0  0  0
    1.4256   -0.8252   -1.5287 C   0  0  0  0  0  0  0  0  0  0  0  0
    2.6695    2.3825   -6.7923 C   0  0  0  0  0  0  0  0  0  0  0  0
    4.0046    2.0563   -6.8207 C   0  0  0  0  0  0  0  0  0  0  0  0
    4.7665    1.4793   -5.7111 C   0  0  0  0  0  0  0  0  0  0  0  0
    4.3418    1.1287   -4.6252 O   0  0  0  0  0  0  0  0  0  0  0  0
    6.1664    1.4133   -6.1784 C   0  0  0  0  0  0  0  0  0  0  0  0
    7.3102    0.9786   -5.5351 C   0  0  0  0  0  0  0  0  0  0  0  0
    7.2621    0.5149   -4.2814 F   0  0  0  0  0  0  0  0  0  0  0  0
    8.5346    1.0202   -6.1909 C   0  0  0  0  0  0  0  0  0  0  0  0
    8.5980    1.4988   -7.4876 C   0  0  0  0  0  0  0  0  0  0  0  0
    7.4615    1.9397   -8.1557 C   0  0  0  0  0  0  0  0  0  0  0  0
    6.2435    1.8959   -7.4988 C   0  0  0  0  0  0  0  0  0  0  0  0
    4.8975    2.2776   -7.9347 C   0  0  0  0  0  0  0  0  0  0  0  0
    4.5689    2.7261   -9.1889 C   0  0  0  0  0  0  0  0  0  0  0  0
    3.2677    3.0291   -9.6440 C   0  0  0  0  0  0  0  0  0  0  0  0
    2.2469    3.2743  -10.1113 N   0  0  0  0  0  0  0  0  0  0  0  0
    5.5009    2.9302  -10.2278 C   0  0  0  0  0  0  0  0  0  0  0  0
    6.2017    3.1206  -11.1172 N   0  0  0  0  0  0  0  0  0  0  0  0
   -3.4351   -2.1228    7.8885 H   0  0  0  0  0  0  0  0  0  0  0  0
    2.5177   -7.0027    8.6382 H   0  0  0  0  0  0  0  0  0  0  0  0
    1.3686   -6.9306   10.8251 H   0  0  0  0  0  0  0  0  0  0  0  0
   -0.5605   -5.4621   11.1856 H   0  0  0  0  0  0  0  0  0  0  0  0
   -5.6867   -2.7397    6.2660 H   0  0  0  0  0  0  0  0  0  0  0  0
   -7.5931   -2.4660    7.8053 H   0  0  0  0  0  0  0  0  0  0  0  0
   -7.9217   -0.3113    8.9732 H   0  0  0  0  0  0  0  0  0  0  0  0
   -6.3499    1.5385    8.5958 H   0  0  0  0  0  0  0  0  0  0  0  0
   -4.6269    2.5319    7.3203 H   0  0  0  0  0  0  0  0  0  0  0  0
   -3.7821    1.6560    6.0406 H   0  0  0  0  0  0  0  0  0  0  0  0
   -2.2840    2.2203    7.9809 H   0  0  0  0  0  0  0  0  0  0  0  0
   -2.3974    0.4777    7.7228 H   0  0  0  0  0  0  0  0  0  0  0  0
   -3.3070    1.2294    9.0304 H   0  0  0  0  0  0  0  0  0  0  0  0
   -2.2352    1.1818   -8.5960 H   0  0  0  0  0  0  0  0  0  0  0  0
   -1.5401    1.0683   -6.9769 H   0  0  0  0  0  0  0  0  0  0  0  0
    0.0389    0.7247   -9.5722 H   0  0  0  0  0  0  0  0  0  0  0  0
    0.6779    0.5141   -7.9439 H   0  0  0  0  0  0  0  0  0  0  0  0
   -0.5424   -0.6036   -8.5594 H   0  0  0  0  0  0  0  0  0  0  0  0
   -1.9369    3.0884   -9.9562 H   0  0  0  0  0  0  0  0  0  0  0  0
   -1.1670    5.4042  -10.2409 H   0  0  0  0  0  0  0  0  0  0  0  0
    0.3251    6.4232   -8.5532 H   0  0  0  0  0  0  0  0  0  0  0  0
    1.0211    5.1078   -6.5881 H   0  0  0  0  0  0  0  0  0  0  0  0
   -0.2535   -1.5943    2.2473 H   0  0  0  0  0  0  0  0  0  0  0  0
    0.0945   -1.2546    0.5464 H   0  0  0  0  0  0  0  0  0  0  0  0
   -1.9165   -2.5817   -0.1276 H   0  0  0  0  0  0  0  0  0  0  0  0
   -0.7510   -3.5507    0.7861 H   0  0  0  0  0  0  0  0  0  0  0  0
   -2.2157   -2.9623    1.5718 H   0  0  0  0  0  0  0  0  0  0  0  0
    0.8024    0.5052    0.0971 H   0  0  0  0  0  0  0  0  0  0  0  0
    1.5330    1.3014   -1.2953 H   0  0  0  0  0  0  0  0  0  0  0  0
    2.3346   -1.0822   -0.9924 H   0  0  0  0  0  0  0  0  0  0  0  0
    0.7108   -1.6390   -1.4286 H   0  0  0  0  0  0  0  0  0  0  0  0
    1.6727   -0.7205   -2.5813 H   0  0  0  0  0  0  0  0  0  0  0  0
    2.2684    2.8607   -7.6783 H   0  0  0  0  0  0  0  0  0  0  0  0
    9.4186    0.6782   -5.6764 H   0  0  0  0  0  0  0  0  0  0  0  0
    9.5512    1.5309   -7.9924 H   0  0  0  0  0  0  0  0  0  0  0  0
    7.5440    2.3079   -9.1644 H   0  0  0  0  0  0  0  0  0  0  0  0
  1  2  2  0  0  0  0
  2  3  1  0  0  0  0
  3  4  2  0  0  0  0
  3  5  1  0  0  0  0
  5  6  2  0  0  0  0
  6  7  1  0  0  0  0
  6  8  1  0  0  0  0
  8  9  2  0  0  0  0
  9 10  1  0  0  0  0
 10 11  2  0  0  0  0
 11 12  1  0  0  0  0
 12 13  2  0  0  0  0
 13 14  1  0  0  0  0
 14 15  3  0  0  0  0
 13 16  1  0  0  0  0
 16 17  3  0  0  0  0
  1 18  1  0  0  0  0
 18 19  2  0  0  0  0
 19 20  1  0  0  0  0
 20 21  2  0  0  0  0
 21 22  1  0  0  0  0
 22 23  2  0  0  0  0
 23 24  1  0  0  0  0
 24 25  2  0  0  0  0
 25 26  1  0  0  0  0
 26 27  1  0  0  0  0
 19 28  1  0  0  0  0
 28 29  1  0  0  0  0
 29 30  1  0  0  0  0
 30 31  1  0  0  0  0
 31 32  1  0  0  0  0
 32 33  1  0  0  0  0
 33 34  2  0  0  0  0
 34 35  1  0  0  0  0
 35 36  1  0  0  0  0
 33 37  1  0  0  0  0
 37 38  1  0  0  0  0
 38 39  1  0  0  0  0
 39 40  1  0  0  0  0
 40 41  1  0  0  0  0
 41 42  1  0  0  0  0
 42 43  2  0  0  0  0
 43 44  1  0  0  0  0
 44 45  1  0  0  0  0
 43 46  1  0  0  0  0
 46 47  2  0  0  0  0
 47 48  1  0  0  0  0
 48 49  2  0  0  0  0
 41 50  2  0  0  0  0
 50 51  1  0  0  0  0
 51 52  1  0  0  0  0
 52 53  1  0  0  0  0
 53 54  1  0  0  0  0
 54 55  1  0  0  0  0
 55 56  1  0  0  0  0
 56 57  1  0  0  0  0
 57 58  1  0  0  0  0
 58 59  1  0  0  0  0
 59 60  1  0  0  0  0
 57 61  1  0  0  0  0
 61 62  1  0  0  0  0
 54 63  1  0  0  0  0
 63 64  1  0  0  0  0
 50 65  1  0  0  0  0
 65 66  2  0  0  0  0
 66 67  1  0  0  0  0
 67 68  2  0  0  0  0
 67 69  1  0  0  0  0
 69 70  2  0  0  0  0
 70 71  1  0  0  0  0
 70 72  1  0  0  0  0
 72 73  2  0  0  0  0
 73 74  1  0  0  0  0
 74 75  2  0  0  0  0
 75 76  1  0  0  0  0
 76 77  2  0  0  0  0
 77 78  1  0  0  0  0
 78 79  3  0  0  0  0
 77 80  1  0  0  0  0
 80 81  3  0  0  0  0
 12  2  1  0  0  0  0
 60 18  1  0  0  0  0
 76 66  1  0  0  0  0
 11  5  1  0  0  0  0
 25 20  1  0  0  0  0
 59 28  2  0  0  0  0
 75 69  1  0  0  0  0
 58 30  2  0  0  0  0
 56 31  2  0  0  0  0
 36 32  2  0  0  0  0
 55 37  2  0  0  0  0
 53 38  2  0  0  0  0
 52 40  2  0  0  0  0
 49 42  1  0  0  0  0
  1 82  1  0  0  0  0
  8 83  1  0  0  0  0
  9 84  1  0  0  0  0
 10 85  1  0  0  0  0
 21 86  1  0  0  0  0
 22 87  1  0  0  0  0
 23 88  1  0  0  0  0
 24 89  1  0  0  0  0
 26 90  1  0  0  0  0
 26 91  1  0  0  0  0
 27 92  1  0  0  0  0
 27 93  1  0  0  0  0
 27 94  1  0  0  0  0
 44 95  1  0  0  0  0
 44 96  1  0  0  0  0
 45 97  1  0  0  0  0
 45 98  1  0  0  0  0
 45 99  1  0  0  0  0
 46100  1  0  0  0  0
 47101  1  0  0  0  0
 48102  1  0  0  0  0
 49103  1  0  0  0  0
 61104  1  0  0  0  0
 61105  1  0  0  0  0
 62106  1  0  0  0  0
 62107  1  0  0  0  0
 62108  1  0  0  0  0
 63109  1  0  0  0  0
 63110  1  0  0  0  0
 64111  1  0  0  0  0
 64112  1  0  0  0  0
 64113  1  0  0  0  0
 65114  1  0  0  0  0
 72115  1  0  0  0  0
 73116  1  0  0  0  0
 74117  1  0  0  0  0
M  END
