117

C          6.81920        0.15450        3.99100
C          7.38190       -0.05600        5.22250
C          6.64610       -0.50530        6.42400
O          5.48020       -0.82470        6.49040
C          7.67330       -0.65120        7.47790
C          7.54560       -0.98060        8.81410
F          6.34270       -1.18570        9.36150
C          8.67630       -1.08510        9.61490
C          9.92720       -0.87010        9.06290
C         10.08100       -0.53560        7.72300
C          8.94960       -0.42100        6.93210
C          8.79460       -0.04960        5.52440
C          9.81060        0.33600        4.68660
C          9.63540        0.82200        3.37420
N          9.57400        1.25560        2.31230
C         11.17670        0.33300        5.03520
N         12.30490        0.34690        5.24860
C          5.46720        0.40950        3.69470
C          4.44410        0.99580        4.44150
C          4.54370        1.55220        5.79380
C          3.66710        1.03240        6.74800
C          3.71380        1.46020        8.05900
C          4.62570        2.43430        8.42480
C          5.46000        2.98850        7.47140
C          5.44280        2.56360        6.14790
C          6.31810        3.26260        5.13870
C          7.76970        3.41320        5.59530
C          3.25020        1.04510        3.71000
S          1.65900        1.65210        4.10750
C          1.13100        1.22590        2.51660
C         -0.01860        1.32000        1.71820
C         -1.26760        1.93350        1.96100
C         -2.22000        2.01360        0.89230
N         -3.31670        2.66830        1.24030
S         -3.16650        3.13760        2.78170
N         -1.69550        2.52660        3.06450
C         -1.92950        1.36720       -0.32950
C         -2.71110        1.16750       -1.47580
S         -4.26610        1.60900       -2.08980
C         -3.94480        0.64480       -3.51260
C         -4.70800        0.37740       -4.65470
C         -6.06820        0.88920       -4.83850
C         -7.16820        0.05540       -5.06880
C         -7.08500       -1.44220       -4.95110
C         -6.96950       -1.85260       -3.48150
C         -8.40310        0.64800       -5.29680
C         -8.56200        2.02280       -5.29020
C         -7.47990        2.83730       -5.01020
C         -6.24100        2.27110       -4.78080
C         -4.01760       -0.45430       -5.53790
S         -2.46050       -0.96830       -4.88520
C         -2.69470        0.00570       -3.48360
C         -1.98440        0.32010       -2.32270
N         -0.78010        0.00820       -1.74950
C         -0.70770        0.66140       -0.53400
C          0.30620        0.74770        0.45470
N          1.63440        0.34810        0.47930
C          2.12830        0.64650        1.72340
C          3.34600        0.54980        2.40120
S          4.94370        0.01010        2.05380
C          2.57400        0.23410       -0.61680
C          2.81220        1.59230       -1.27320
C         -0.01330       -1.10800       -2.25620
C          0.81120       -0.73350       -3.48670
C         -4.39770       -0.97840       -6.78640
C         -5.25030       -0.39920       -7.69380
C         -5.51470        1.04970       -7.79190
O         -5.05550        1.93780       -7.10580
C         -6.33600        1.21580       -9.01040
C         -6.85690        2.37660       -9.54160
C         -7.58670        2.29090      -10.72110
Cl        -8.26360        3.71140      -11.40800
C         -7.76880        1.05480      -11.34970
Cl        -8.65900        0.96620      -12.81610
C         -7.23900       -0.11330      -10.81130
C         -6.52090       -0.03160       -9.63020
C         -5.87100       -1.05820       -8.81890
C         -5.94550       -2.41210       -9.02750
C         -5.42350       -3.38300       -8.14830
N         -5.04610       -4.22210       -7.46070
C         -6.59070       -3.00780      -10.13030
N         -7.09200       -3.54970      -11.00940
H          7.46730        0.10420        3.12340
H          8.56100       -1.33510       10.65780
H         10.80270       -0.96110        9.68700
H         11.06730       -0.37390        7.32130
H          2.97400        0.25960        6.45570
H          3.04540        1.03260        8.78960
H          4.67880        2.77450        9.44830
H          6.13790        3.77770        7.75980
H          5.90140        4.25900        4.95910
H          6.29710        2.73010        4.18840
H          8.39730        3.69740        4.75350
H          7.86780        4.17720        6.36170
H          8.14260        2.47650        6.00330
H         -6.23250       -1.84400       -5.49950
H         -7.98790       -1.88540       -5.37560
H         -6.05900       -1.45050       -3.04240
H         -6.94640       -2.93610       -3.39550
H         -7.81710       -1.47460       -2.91450
H         -9.26020        0.01470       -5.47750
H         -9.53280        2.45290       -5.48660
H         -7.59650        3.90950       -4.97370
H         -5.38590        2.89880       -4.58650
H          2.23630       -0.48810       -1.35330
H          3.50900       -0.13740       -0.19030
H          3.20160        2.29980       -0.54490
H          3.53470        1.49320       -2.07860
H          1.88370        1.99180       -1.67640
H          0.60290       -1.50520       -1.44870
H         -0.72340       -1.89290       -2.54040
H          1.43690       -1.57250       -3.77810
H          0.15190       -0.49620       -4.31690
H          1.44180        0.13070       -3.29890
H         -3.93580       -1.92380       -7.04970
H         -6.70370        3.32330       -9.04850
H         -7.39400       -1.04720      -11.32640
