117

C         -5.46350        4.75880        2.07910
C         -5.54310        4.82350        3.45000
C         -4.61240        4.19120        4.38780
O         -3.63010        3.52380        4.11890
C         -5.11060        4.52670        5.73680
C         -4.62020        4.19250        6.98550
F         -3.51630        3.44890        7.11600
C         -5.27580        4.63130        8.12930
C         -6.41890        5.40120        8.00710
C         -6.93010        5.75090        6.76260
C         -6.27290        5.31290        5.62520
C         -6.55970        5.52230        4.20330
C         -7.60180        6.26610        3.71110
C         -8.56340        6.91520        4.51400
N         -9.38080        7.46750        5.10180
C         -7.87560        6.51370        2.34900
N         -8.17440        6.77960        1.27190
C         -4.53550        4.12430        1.24960
C         -4.62830        4.20190       -0.15280
C         -5.68300        4.93500       -0.86920
C         -6.66620        4.19340       -1.51690
C         -7.69370        4.82700       -2.18780
C         -7.73910        6.20980       -2.22220
C         -6.75100        6.94790       -1.59810
C         -5.71310        6.33060       -0.91380
C         -4.60790        7.15930       -0.32260
C         -3.45600        7.28650       -1.32240
C         -3.63430        3.46100       -0.77450
S         -3.23710        3.19590       -2.46140
C         -1.91090        2.20750       -1.95290
C         -0.86380        1.46990       -2.51700
C         -0.44590        1.34300       -3.86070
C          0.74770        0.60480       -4.14620
N          1.05180        0.61170       -5.43420
S         -0.07160        1.47160       -6.22130
N         -0.98870        1.86810       -4.94750
C          1.40320       -0.06530       -3.08900
C          2.48620       -0.95130       -3.10370
S          3.62010       -1.61410       -4.23050
C          4.28730       -2.58560       -2.93090
C          5.32220       -3.50870       -2.88300
C          6.19200       -3.85370       -4.01700
C          5.71830       -4.58600       -5.10810
C          4.32400       -5.14590       -5.13220
C          4.24350       -6.43040       -4.30410
C          6.59580       -4.86190       -6.14790
C          7.90660       -4.42160       -6.12040
C          8.36860       -3.69590       -5.03680
C          7.51400       -3.41780       -3.98850
C          5.48420       -4.04400       -1.58980
S          4.33590       -3.35700       -0.44100
C          3.65560       -2.38180       -1.68890
C          2.63170       -1.43780       -1.79760
N          1.70430       -0.85690       -0.97580
C          0.93560        0.00090       -1.74110
C         -0.14600        0.87090       -1.43790
N         -0.72860        1.28110       -0.25180
C         -1.78880        2.08890       -0.56190
C         -2.76540        2.81520        0.12520
S         -3.17650        3.13070        1.77070
C         -0.20850        1.27980        1.09840
C          1.12950        2.00960        1.18170
C          1.46120       -1.42290        0.33300
C          0.13350       -2.17450        0.37910
C          6.42610       -5.03700       -1.31340
C          6.67820       -5.73020       -0.15170
C          5.97350       -5.56630        1.11560
O          5.13150       -4.73370        1.39950
C          6.46650       -6.64550        1.99980
C          6.03750       -6.98530        3.27000
Cl         4.90430       -6.02930        4.11390
C          6.55240       -8.15200        3.85250
Cl         6.08180       -8.59490        5.43550
C          7.40930       -8.97520        3.12450
Cl         7.93990      -10.44770        3.81470
C          7.83290       -8.62860        1.83040
Cl         8.73120       -9.78330        0.93530
C          7.41800       -7.41420        1.29870
C          7.69620       -6.74790        0.02670
C          8.82190       -6.90670       -0.73960
C          9.99180       -7.59200       -0.34460
N         11.02270       -8.01840       -0.07510
C          9.06360       -6.26220       -1.97260
N          9.34490       -5.80460       -2.98770
H         -6.23500        5.27760        1.52170
H         -4.88170        4.36370        9.09690
H         -6.92560        5.73900        8.89790
H         -7.82190        6.35130        6.70190
H         -6.62370        3.11440       -1.47590
H         -8.45720        4.24210       -2.67800
H         -8.54320        6.71310       -2.73700
H         -6.78500        8.02660       -1.63320
H         -4.23360        6.70980        0.59880
H         -4.99010        8.15280       -0.08220
H         -3.05320        6.30580       -1.56590
H         -3.80450        7.74880       -2.24280
H         -2.65760        7.89670       -0.90660
H          3.61180       -4.41930       -4.73930
H          4.04320       -5.36740       -6.16320
H          3.24480       -6.85670       -4.36370
H          4.95670       -7.16360       -4.67440
H          4.47100       -6.22980       -3.25910
H          6.24110       -5.43570       -6.99210
H          8.56870       -4.65060       -6.94150
H          9.39150       -3.35670       -5.00060
H          7.86320       -2.85150       -3.13710
H         -0.94220        1.80460        1.71460
H         -0.13820        0.26260        1.48310
H          1.86880        1.56120        0.52170
H          1.00330        3.05000        0.89160
H          1.50260        1.97930        2.20160
H          1.51520       -0.65130        1.10060
H          2.27710       -2.12360        0.52500
H         -0.69900       -1.52660        0.11420
H         -0.03140       -2.57020        1.37740
H          0.15310       -3.00540       -0.32220
H          7.01450       -5.31310       -2.18120
