98

C          4.95290       -0.32850       -9.28200
C          5.81690       -1.40130       -9.33310
C          5.91590       -2.44270       -8.32020
O          5.25110       -2.54190       -7.29710
C          6.97590       -3.36030       -8.77050
C          7.48380       -4.50810       -8.19020
F          7.00810       -4.95910       -7.02510
C          8.50560       -5.20910       -8.81910
C          9.00610       -4.75010      -10.02430
C          8.51070       -3.59900      -10.62730
C          7.49300       -2.90310       -9.99810
C          6.78000       -1.67860      -10.37610
C          7.01460       -0.95260      -11.51510
C          7.98420       -1.28390      -12.48480
N          8.75370       -1.48910      -13.31150
C          6.33810        0.22570      -11.89560
N          5.83980        1.18630      -12.28080
C          4.02320        0.04760       -8.30890
C          3.26800        1.21880       -8.45170
C          2.42090        1.50320       -7.40080
S          1.33830        2.86070       -7.13710
C          0.91780        2.18720       -5.60120
C          0.14870        2.49990       -4.47560
C         -0.61860        3.65030       -4.18910
C         -1.21830        3.77400       -2.89600
N         -1.87070        4.91600       -2.74660
S         -1.74280        5.76150       -4.12090
N         -0.84830        4.70320       -4.95760
C         -1.08670        2.70720       -1.98020
C         -1.62750        2.54710       -0.69840
C         -1.26730        1.26680       -0.26390
N         -0.52030        0.64240       -1.22500
C         -0.16120       -0.74070       -1.02550
C          1.05400       -0.88690       -0.10940
C         -0.36810        1.51210       -2.29090
C          0.32410        1.43810       -3.53200
N          1.20830        0.53050       -4.08290
C          1.56240        0.97550       -5.32750
C          2.43170        0.56870       -6.34070
Se         3.61950       -0.83020       -6.67210
C          1.86880       -0.64640       -3.57200
C          1.24470       -1.93080       -4.11630
C         -1.78190        0.96420        1.00050
C         -2.52100        2.04730        1.52040
S         -2.58980        3.42190        0.43820
C         -3.06860        1.87210        2.78640
C         -2.80890        0.63780        3.35410
Se        -1.77510       -0.46660        2.18950
C         -3.17540        0.06020        4.58470
C         -3.78460        0.58090        5.69270
C         -4.11370        1.99280        5.99460
O         -4.11130        2.95060        5.24790
C         -4.44220        2.02830        7.43210
C         -4.73070        3.16140        8.19040
C         -4.97290        2.89890        9.51700
C         -4.93640        1.60360       10.05140
C         -4.66320        0.47720        9.31340
C         -4.40980        0.72310        7.96000
C         -4.08150       -0.20280        6.88120
C         -4.12540       -1.57030        6.97080
C         -4.43830       -2.28240        8.14780
N         -4.67700       -2.93010        9.06530
C         -3.91460       -2.47380        5.90730
N         -3.77770       -3.27730        5.09730
C         -5.25350        2.08290       11.44580
C         -4.07010        2.15280       12.43390
C         -4.55930        3.08380       13.51950
C         -4.59340        4.31020       13.01420
C         -4.12780        4.22880       11.57840
C         -3.10540        3.09120       11.69740
C         -5.29420        3.52690       10.85040
H          4.99280        0.36020      -10.11840
H          8.89360       -6.10230       -8.35560
H          9.80000       -5.29730      -10.50850
H          8.92320       -3.26900      -11.56560
H          3.36280        1.84820       -9.32060
H         -0.00850       -1.22410       -1.98610
H         -1.01830       -1.23000       -0.54350
H          1.36700       -1.92640       -0.07300
H          1.88800       -0.27570       -0.44830
H          0.80030       -0.56910        0.90080
H          1.87730       -0.62500       -2.48670
H          2.91310       -0.60290       -3.91140
H          1.42430       -2.00630       -5.18810
H          1.69710       -2.79290       -3.63520
H          0.16900       -1.95490       -3.95390
H         -3.64120        2.62630        3.29730
H         -2.88360       -0.98310        4.66170
H         -4.75020        4.14020        7.73720
H         -4.63750       -0.51150        9.73980
H         -6.15850        1.67710       11.89320
H         -3.68590        1.18780       12.75290
H         -4.87260        2.75710       14.49360
H         -4.94080        5.21280       13.48170
H         -3.79540        5.15550       11.11820
H         -2.25130        3.36860       12.31290
H         -2.75510        2.70700       10.74120
H         -6.22640        4.08610       10.90200
