117

C         -2.62030       -2.39060        7.22580
C         -1.65530       -3.22170        7.74210
C         -0.53970       -3.80390        6.99250
O         -0.23230       -3.58570        5.83510
C          0.13180       -4.72760        7.93020
C          1.21920       -5.56150        7.74780
F          1.85390       -5.61970        6.57190
C          1.66800       -6.35710        8.79510
C          1.01860       -6.30860       10.01590
C         -0.07500       -5.47610       10.22430
C         -0.51700       -4.68320        9.17900
C         -1.61630       -3.71780        9.09800
C         -2.41150       -3.33090       10.14700
C         -3.41220       -2.33670       10.09870
N         -4.22550       -1.52730       10.15920
C         -2.31320       -3.85680       11.45190
N         -2.29060       -4.24460       12.53250
C         -2.74180       -1.81280        5.96040
C         -3.82680       -0.97450        5.63940
C         -4.95540       -0.75150        6.55550
C         -5.84240       -1.80090        6.77940
C         -6.91140       -1.64560        7.63970
C         -7.09500       -0.43840        8.29110
C         -6.21120        0.60210        8.07560
C         -5.13470        0.46880        7.20930
C         -4.14230        1.58720        7.06820
C         -2.95620        1.36590        8.01010
C         -3.70110       -0.44120        4.36500
S         -4.72120        0.62150        3.41200
C         -3.57280        0.50830        2.12210
C         -3.40420        0.96480        0.80800
C         -4.26560        1.69700       -0.03990
C         -3.86960        1.92870       -1.39860
N         -4.79540        2.57040       -2.09280
S         -6.05580        2.86330       -1.11960
N         -5.46800        2.18140        0.22570
C         -2.57450        1.53730       -1.80710
C         -1.86260        1.80070       -2.98360
S         -2.10690        2.57010       -4.51460
C         -0.41500        2.29000       -4.88400
C          0.37620        2.62210       -5.97420
C         -0.07480        3.36340       -7.16130
C         -0.91600        2.78000       -8.11070
C         -1.32680        1.33870       -8.01200
C         -0.21810        0.43440       -8.55600
C         -1.29540        3.53610       -9.21120
C         -0.86120        4.83810       -9.37430
C         -0.02510        5.40950       -8.43120
C          0.36840        4.67220       -7.33190
C          1.70950        2.20620       -5.79370
S          1.95480        1.40870       -4.24330
C          0.28700        1.62480       -3.86030
C         -0.55400        1.34010       -2.78160
N         -0.44540        0.78200       -1.53640
C         -1.67690        0.86780       -0.92170
C         -2.15060        0.45870        0.35220
N         -1.60260       -0.32590        1.35240
C         -2.46470       -0.29510        2.41880
C         -2.53230       -0.85440        3.69680
S         -1.57850       -1.93420        4.64400
C         -0.69700       -1.45220        1.25790
C         -1.44600       -2.71800        0.84430
C          0.86190        0.49050       -0.99200
C          1.42560       -0.82520       -1.52870
C          2.66950        2.38250       -6.79230
C          4.00460        2.05630       -6.82070
C          4.76650        1.47930       -5.71110
O          4.34180        1.12870       -4.62520
C          6.16640        1.41330       -6.17840
C          7.31020        0.97860       -5.53510
F          7.26210        0.51490       -4.28140
C          8.53460        1.02020       -6.19090
C          8.59800        1.49880       -7.48760
C          7.46150        1.93970       -8.15570
C          6.24350        1.89590       -7.49880
C          4.89750        2.27760       -7.93470
C          4.56890        2.72610       -9.18890
C          3.26770        3.02910       -9.64400
N          2.24690        3.27430      -10.11130
C          5.50090        2.93020      -10.22780
N          6.20170        3.12060      -11.11720
H         -3.43510       -2.12280        7.88850
H          2.51770       -7.00270        8.63820
H          1.36860       -6.93060       10.82510
H         -0.56050       -5.46210       11.18560
H         -5.68670       -2.73970        6.26600
H         -7.59310       -2.46600        7.80530
H         -7.92170       -0.31130        8.97320
H         -6.34990        1.53850        8.59580
H         -4.62690        2.53190        7.32030
H         -3.78210        1.65600        6.04060
H         -2.28400        2.22030        7.98090
H         -2.39740        0.47770        7.72280
H         -3.30700        1.22940        9.03040
H         -2.23520        1.18180       -8.59600
H         -1.54010        1.06830       -6.97690
H          0.03890        0.72470       -9.57220
H          0.67790        0.51410       -7.94390
H         -0.54240       -0.60360       -8.55940
H         -1.93690        3.08840       -9.95620
H         -1.16700        5.40420      -10.24090
H          0.32510        6.42320       -8.55320
H          1.02110        5.10780       -6.58810
H         -0.25350       -1.59430        2.24730
H          0.09450       -1.25460        0.54640
H         -1.91650       -2.58170       -0.12760
H         -0.75100       -3.55070        0.78610
H         -2.21570       -2.96230        1.57180
H          0.80240        0.50520        0.09710
H          1.53300        1.30140       -1.29530
H          2.33460       -1.08220       -0.99240
H          0.71080       -1.63900       -1.42860
H          1.67270       -0.72050       -2.58130
H          2.26840        2.86070       -7.67830
H          9.41860        0.67820       -5.67640
H          9.55120        1.53090       -7.99240
H          7.54400        2.30790       -9.16440
