117

C         -1.58820        4.22030        6.29720
C         -2.94950        4.33150        6.45490
C         -3.96040        3.75400        5.56630
O         -3.77230        3.11250        4.54840
C         -5.26610        4.10650        6.15860
C         -6.55100        3.81430        5.74030
F         -6.76890        3.10540        4.62730
C         -7.64000        4.25940        6.47980
C         -7.42650        4.99290        7.63340
C         -6.14390        5.30030        8.07280
C         -5.06150        4.85670        7.33200
C         -3.61940        5.02630        7.53120
C         -3.04370        5.74170        8.55000
C         -3.76780        6.39180        9.57160
N         -4.29020        6.94150       10.43370
C         -1.66170        5.95900        8.73510
N         -0.56280        6.20400        8.96430
C         -0.83580        3.58460        5.30620
C          0.57210        3.59890        5.32590
C          1.37590        4.27210        6.35690
C          2.05950        3.47880        7.27310
C          2.81560        4.05690        8.27390
C          2.89970        5.43570        8.35900
C          2.23970        6.22500        7.43590
C          1.47040        5.66420        6.42600
C          0.84090        6.54770        5.38610
C          1.76030        6.66160        4.16790
C          1.10660        2.86260        4.27910
S          2.75610        2.51850        3.79420
C          2.13390        1.60230        2.46420
C          2.60580        0.79750        1.42020
C          3.91080        0.35490        1.10790
C          4.08180       -0.61210        0.06380
N          5.34330       -0.98690       -0.07690
S          6.24020       -0.18710        1.00730
N          5.05240        0.66680        1.70020
C          2.95810       -0.99640       -0.70210
C          2.85600       -1.80960       -1.83800
S          3.86510       -2.80530       -2.83020
C          2.48210       -3.11020       -3.86430
C          2.31820       -3.87340       -5.00970
C          3.40190       -4.62070       -5.66510
C          3.44890       -6.01660       -5.65510
C          2.45170       -6.83340       -4.88300
C          2.89560       -6.95870       -3.42360
C          4.50020       -6.64730       -6.30630
C          5.48200       -5.92250       -6.95500
C          5.43840       -4.53900       -6.94620
C          4.40390       -3.89210       -6.29920
C          0.99730       -3.80590       -5.49650
S         -0.03110       -2.79360       -4.48280
C          1.30240       -2.46730       -3.44040
C          1.52740       -1.73070       -2.27620
N          0.79820       -0.92830       -1.43620
C          1.65590       -0.47030       -0.44970
C          1.46110        0.33610        0.70190
N          0.33180        0.81200        1.33600
C          0.73390        1.58170        2.39380
C          0.13400        2.29490        3.43420
S         -1.47120        2.66340        3.94550
C         -1.04970        0.39470        1.24520
C         -1.94020        1.47420        0.63170
C         -0.41170       -0.32820       -1.95950
C         -0.09590        0.96910       -2.70090
C          0.61090       -4.46730       -6.66260
C         -0.61160       -4.53130       -7.29310
C         -1.83010       -3.84470       -6.86980
O         -1.99260       -3.13350       -5.89310
C         -2.85650       -4.17580       -7.88040
C         -4.17290       -3.76430       -7.93290
C         -4.94270       -4.21050       -8.99520
F         -6.22560       -3.83730       -9.08690
C         -4.39340       -5.04380       -9.96910
F         -5.15870       -5.45720      -10.98580
C         -3.07040       -5.45840       -9.91360
C         -2.29400       -5.01820       -8.85370
C         -0.89490       -5.27400       -8.50230
C         -0.04820       -6.09840       -9.19790
C          1.28370       -6.40770       -8.84950
N          2.36600       -6.73130       -8.64010
C         -0.40940       -6.78550      -10.37640
N         -0.63430       -7.36970      -11.33860
H         -0.97050        4.69210        7.05280
H         -8.63690        4.02520        6.14140
H         -8.27480        5.33570        8.20530
H         -6.01230        5.87260        8.97550
H          1.97990        2.40360        7.20040
H          3.33360        3.43210        8.98570
H          3.48150        5.89610        9.14290
H          2.31380        7.30030        7.50020
H          0.67460        7.54000        5.80870
H         -0.12490        6.15070        5.06890
H          1.92730        5.68260        3.72400
H          2.72440        7.07160        4.45950
H          1.31760        7.31230        3.41730
H          1.46140       -6.37640       -4.91700
H          2.37980       -7.82770       -5.32690
H          3.87590       -7.42560       -3.36570
H          2.95820       -5.97680       -2.95930
H          2.18770       -7.56380       -2.86200
H          4.54090       -7.72610       -6.30830
H          6.28270       -6.43620       -7.46480
H          6.20480       -3.96400       -7.44360
H          4.35470       -2.81270       -6.29130
H         -1.09740       -0.54790        0.69820
H         -1.39980        0.19910        2.26460
H         -2.01610        2.32010        1.30920
H         -1.54410        1.83050       -0.31550
H         -2.93980        1.07950        0.47360
H         -0.84740       -1.05180       -2.65280
H         -1.13300       -0.14170       -1.17180
H          0.58480        0.77630       -3.52680
H         -1.01060        1.39790       -3.10020
H          0.37060        1.68950       -2.03150
H          1.42630       -5.00960       -7.12730
H         -4.59270       -3.11940       -7.17750
H         -2.69600       -6.10230      -10.69220
