112

C         -5.75560        5.03800       -3.05280
C         -5.63290        6.40210       -3.04200
C         -4.57960        7.22250       -2.39500
O         -3.51190        6.87550       -1.94060
C         -5.12440        8.59980       -2.36360
C         -4.59370        9.75380       -1.81650
F         -3.40270        9.74550       -1.20720
C         -5.29860       10.94830       -1.89590
C         -6.53340       10.97240       -2.52070
C         -7.08540        9.82710       -3.08100
C         -6.37510        8.64020       -3.00350
C         -6.68390        7.29680       -3.48960
C         -7.74070        6.97670       -4.30250
C         -7.98310        5.70740       -4.87010
N         -8.24720        4.71960       -5.39400
C         -8.72150        7.89620       -4.72840
N         -9.55550        8.58920       -5.10620
C         -4.83530        4.00720       -2.70590
C         -5.37580        2.73460       -2.38370
C         -4.59110        1.68650       -1.98720
C         -3.20200        1.86020       -1.91820
C         -2.08690        1.08030       -1.55840
C         -0.93870        1.85850       -1.76190
N         -1.27520        3.09610       -2.21200
C         -2.64630        3.12640       -2.31300
C         -3.44560        4.17730       -2.70350
C         -0.36990        4.16390       -2.55080
C         -0.10400        4.21170       -4.05410
C          0.16570        1.06270       -1.43340
C          1.54980        1.29620       -1.54460
C          2.46200        0.26080       -1.22380
N          3.69590        0.72380       -1.44500
N          3.50610        1.95270       -1.86670
C          4.59540        2.79240       -2.27050
C          4.84960        2.66190       -3.76990
N          2.25960        2.35310       -1.94810
C          1.97670       -0.95560       -0.70550
C          0.57360       -1.18560       -0.52780
C         -0.34650       -0.19830       -0.98730
N         -1.72900       -0.16260       -1.09830
C         -2.74190       -1.18300       -0.99190
C         -3.59590       -1.00730        0.26560
N          0.41810       -2.40120        0.12290
C         -0.71520       -3.04730        0.73730
C         -1.16180       -4.27840       -0.05340
C          1.66500       -2.93040        0.33670
C          2.64210       -2.06890       -0.17710
N          3.88770       -2.55510        0.08050
C          5.13210       -1.97820       -0.35750
C          5.66610       -2.68050       -1.60500
C          3.72520       -3.73070        0.77310
C          2.32580       -4.00240        0.96680
C          1.94760       -5.14870        1.67360
C          2.91640       -5.94870        2.21770
C          4.29270       -5.66810        2.05660
C          4.69000       -4.57360        1.28060
C          5.29400       -6.49840        2.64830
C          5.20520       -7.25480        3.77810
C          6.17130       -8.35390        4.01570
O          7.19590       -8.57350        3.41160
C          5.58160       -9.15520        5.11550
C          6.02400      -10.35090        5.64550
C          5.27230      -10.92330        6.65950
F          5.66350      -12.08470        7.19980
C          4.11020      -10.30530        7.12140
F          3.39620      -10.89020        8.09080
C          3.67090       -9.09820        6.59850
C          4.41860       -8.51980        5.58570
C          4.24710       -7.25970        4.86230
C          3.50600       -6.19370        5.30200
C          3.59340       -4.89500        4.75710
N          3.67230       -3.80080        4.41900
C          2.63490       -6.24560        6.40810
N          1.89160       -6.24540        7.28300
H         -6.73950        4.66450       -3.31610
H         -4.87140       11.84040       -1.46590
H         -7.07980       11.90140       -2.57400
H         -8.05040        9.87560       -3.55670
H         -6.44690        2.60570       -2.43480
H         -5.04380        0.73810       -1.74000
H         -3.01100        5.11120       -3.00950
H         -0.80140        5.10890       -2.21010
H          0.56870        3.98020       -2.02380
H          0.55760        5.04160       -4.28520
H          0.36970        3.28740       -4.37610
H         -1.03220        4.33940       -4.60630
H          4.33130        3.82160       -2.01880
H          5.47570        2.48290       -1.70390
H          5.10370        1.63470       -4.02030
H          5.67150        3.30830       -4.06380
H          3.96030        2.94980       -4.32540
H         -2.28100       -2.16560       -1.03300
H         -3.38880       -1.08950       -1.87180
H         -4.15020       -0.07420        0.21380
H         -2.98310       -0.97100        1.16390
H         -4.30100       -1.82960        0.35420
H         -1.52530       -2.33690        0.86590
H         -0.39890       -3.36620        1.73690
H         -1.44760       -4.02130       -1.07130
H         -2.00920       -4.74790        0.43920
H         -0.34890       -4.99730       -0.11390
H          4.94250       -0.92580       -0.58240
H          5.85860       -2.04780        0.45740
H          6.60900       -2.23320       -1.90640
H          4.95600       -2.57820       -2.42210
H          5.82540       -3.73950       -1.41490
H          0.90660       -5.40000        1.80770
H          2.62970       -6.84410        2.74920
H          5.74140       -4.36690        1.15160
H          6.23340       -6.58750        2.11150
H          6.92240      -10.82790        5.28770
H          2.76660       -8.65770        6.98560
