
  xtb     02102218343D
 energy: -224.515819539492 gnorm: 0.000599598452 xtb: 6.4.1 (unknown)
117130  0     0  0            999 V2000
   -5.4635    4.7588    2.0791 C   0  0  0  0  0  0  0  0  0  0  0  0
   -5.5431    4.8235    3.4500 C   0  0  0  0  0  0  0  0  0  0  0  0
   -4.6124    4.1912    4.3878 C   0  0  0  0  0  0  0  0  0  0  0  0
   -3.6301    3.5238    4.1189 O   0  0  0  0  0  0  0  0  0  0  0  0
   -5.1106    4.5267    5.7368 C   0  0  0  0  0  0  0  0  0  0  0  0
   -4.6202    4.1925    6.9855 C   0  0  0  0  0  0  0  0  0  0  0  0
   -3.5163    3.4489    7.1160 F   0  0  0  0  0  0  0  0  0  0  0  0
   -5.2758    4.6313    8.1293 C   0  0  0  0  0  0  0  0  0  0  0  0
   -6.4189    5.4012    8.0071 C   0  0  0  0  0  0  0  0  0  0  0  0
   -6.9301    5.7509    6.7626 C   0  0  0  0  0  0  0  0  0  0  0  0
   -6.2729    5.3129    5.6252 C   0  0  0  0  0  0  0  0  0  0  0  0
   -6.5597    5.5223    4.2033 C   0  0  0  0  0  0  0  0  0  0  0  0
   -7.6018    6.2661    3.7111 C   0  0  0  0  0  0  0  0  0  0  0  0
   -8.5634    6.9152    4.5140 C   0  0  0  0  0  0  0  0  0  0  0  0
   -9.3808    7.4675    5.1018 N   0  0  0  0  0  0  0  0  0  0  0  0
   -7.8756    6.5137    2.3490 C   0  0  0  0  0  0  0  0  0  0  0  0
   -8.1744    6.7796    1.2719 N   0  0  0  0  0  0  0  0  0  0  0  0
   -4.5355    4.1243    1.2496 C   0  0  0  0  0  0  0  0  0  0  0  0
   -4.6283    4.2019   -0.1528 C   0  0  0  0  0  0  0  0  0  0  0  0
   -5.6830    4.9350   -0.8692 C   0  0  0  0  0  0  0  0  0  0  0  0
   -6.6662    4.1934   -1.5169 C   0  0  0  0  0  0  0  0  0  0  0  0
   -7.6937    4.8270   -2.1878 C   0  0  0  0  0  0  0  0  0  0  0  0
   -7.7391    6.2098   -2.2222 C   0  0  0  0  0  0  0  0  0  0  0  0
   -6.7510    6.9479   -1.5981 C   0  0  0  0  0  0  0  0  0  0  0  0
   -5.7131    6.3306   -0.9138 C   0  0  0  0  0  0  0  0  0  0  0  0
   -4.6079    7.1593   -0.3226 C   0  0  0  0  0  0  0  0  0  0  0  0
   -3.4560    7.2865   -1.3224 C   0  0  0  0  0  0  0  0  0  0  0  0
   -3.6343    3.4610   -0.7745 C   0  0  0  0  0  0  0  0  0  0  0  0
   -3.2371    3.1959   -2.4614 S   0  0  0  0  0  0  0  0  0  0  0  0
   -1.9109    2.2075   -1.9529 C   0  0  0  0  0  0  0  0  0  0  0  0
   -0.8638    1.4699   -2.5170 C   0  0  0  0  0  0  0  0  0  0  0  0
   -0.4459    1.3430   -3.8607 C   0  0  0  0  0  0  0  0  0  0  0  0
    0.7477    0.6048   -4.1462 C   0  0  0  0  0  0  0  0  0  0  0  0
    1.0518    0.6117   -5.4342 N   0  0  0  0  0  0  0  0  0  0  0  0
   -0.0716    1.4716   -6.2213 S   0  0  0  0  0  0  0  0  0  0  0  0
   -0.9887    1.8681   -4.9475 N   0  0  0  0  0  0  0  0  0  0  0  0
    1.4032   -0.0653   -3.0890 C   0  0  0  0  0  0  0  0  0  0  0  0
    2.4862   -0.9513   -3.1037 C   0  0  0  0  0  0  0  0  0  0  0  0
    3.6201   -1.6141   -4.2305 S   0  0  0  0  0  0  0  0  0  0  0  0
    4.2873   -2.5856   -2.9309 C   0  0  0  0  0  0  0  0  0  0  0  0
    5.3222   -3.5087   -2.8830 C   0  0  0  0  0  0  0  0  0  0  0  0
    6.1920   -3.8537   -4.0170 C   0  0  0  0  0  0  0  0  0  0  0  0
    5.7183   -4.5860   -5.1081 C   0  0  0  0  0  0  0  0  0  0  0  0
    4.3240   -5.1459   -5.1322 C   0  0  0  0  0  0  0  0  0  0  0  0
    4.2435   -6.4304   -4.3041 C   0  0  0  0  0  0  0  0  0  0  0  0
    6.5958   -4.8619   -6.1479 C   0  0  0  0  0  0  0  0  0  0  0  0
    7.9066   -4.4216   -6.1204 C   0  0  0  0  0  0  0  0  0  0  0  0
    8.3686   -3.6959   -5.0368 C   0  0  0  0  0  0  0  0  0  0  0  0
    7.5140   -3.4178   -3.9885 C   0  0  0  0  0  0  0  0  0  0  0  0
    5.4842   -4.0440   -1.5898 C   0  0  0  0  0  0  0  0  0  0  0  0
    4.3359   -3.3570   -0.4410 S   0  0  0  0  0  0  0  0  0  0  0  0
    3.6556   -2.3818   -1.6889 C   0  0  0  0  0  0  0  0  0  0  0  0
    2.6317   -1.4378   -1.7976 C   0  0  0  0  0  0  0  0  0  0  0  0
    1.7043   -0.8569   -0.9758 N   0  0  0  0  0  0  0  0  0  0  0  0
    0.9356    0.0009   -1.7411 C   0  0  0  0  0  0  0  0  0  0  0  0
   -0.1460    0.8709   -1.4379 C   0  0  0  0  0  0  0  0  0  0  0  0
   -0.7286    1.2811   -0.2518 N   0  0  0  0  0  0  0  0  0  0  0  0
   -1.7888    2.0889   -0.5619 C   0  0  0  0  0  0  0  0  0  0  0  0
   -2.7654    2.8152    0.1252 C   0  0  0  0  0  0  0  0  0  0  0  0
   -3.1765    3.1307    1.7707 S   0  0  0  0  0  0  0  0  0  0  0  0
   -0.2085    1.2798    1.0984 C   0  0  0  0  0  0  0  0  0  0  0  0
    1.1295    2.0096    1.1817 C   0  0  0  0  0  0  0  0  0  0  0  0
    1.4612   -1.4229    0.3330 C   0  0  0  0  0  0  0  0  0  0  0  0
    0.1335   -2.1745    0.3791 C   0  0  0  0  0  0  0  0  0  0  0  0
    6.4261   -5.0370   -1.3134 C   0  0  0  0  0  0  0  0  0  0  0  0
    6.6782   -5.7302   -0.1517 C   0  0  0  0  0  0  0  0  0  0  0  0
    5.9735   -5.5663    1.1156 C   0  0  0  0  0  0  0  0  0  0  0  0
    5.1315   -4.7337    1.3995 O   0  0  0  0  0  0  0  0  0  0  0  0
    6.4665   -6.6455    1.9998 C   0  0  0  0  0  0  0  0  0  0  0  0
    6.0375   -6.9853    3.2700 C   0  0  0  0  0  0  0  0  0  0  0  0
    4.9043   -6.0293    4.1139 Cl  0  0  0  0  0  0  0  0  0  0  0  0
    6.5524   -8.1520    3.8525 C   0  0  0  0  0  0  0  0  0  0  0  0
    6.0818   -8.5949    5.4355 Cl  0  0  0  0  0  0  0  0  0  0  0  0
    7.4093   -8.9752    3.1245 C   0  0  0  0  0  0  0  0  0  0  0  0
    7.9399  -10.4477    3.8147 Cl  0  0  0  0  0  0  0  0  0  0  0  0
    7.8329   -8.6286    1.8304 C   0  0  0  0  0  0  0  0  0  0  0  0
    8.7312   -9.7833    0.9353 Cl  0  0  0  0  0  0  0  0  0  0  0  0
    7.4180   -7.4142    1.2987 C   0  0  0  0  0  0  0  0  0  0  0  0
    7.6962   -6.7479    0.0267 C   0  0  0  0  0  0  0  0  0  0  0  0
    8.8219   -6.9067   -0.7396 C   0  0  0  0  0  0  0  0  0  0  0  0
    9.9918   -7.5920   -0.3446 C   0  0  0  0  0  0  0  0  0  0  0  0
   11.0227   -8.0184   -0.0751 N   0  0  0  0  0  0  0  0  0  0  0  0
    9.0636   -6.2622   -1.9726 C   0  0  0  0  0  0  0  0  0  0  0  0
    9.3449   -5.8046   -2.9877 N   0  0  0  0  0  0  0  0  0  0  0  0
   -6.2350    5.2776    1.5217 H   0  0  0  0  0  0  0  0  0  0  0  0
   -4.8817    4.3637    9.0969 H   0  0  0  0  0  0  0  0  0  0  0  0
   -6.9256    5.7390    8.8979 H   0  0  0  0  0  0  0  0  0  0  0  0
   -7.8219    6.3513    6.7019 H   0  0  0  0  0  0  0  0  0  0  0  0
   -6.6237    3.1144   -1.4759 H   0  0  0  0  0  0  0  0  0  0  0  0
   -8.4572    4.2421   -2.6780 H   0  0  0  0  0  0  0  0  0  0  0  0
   -8.5432    6.7131   -2.7370 H   0  0  0  0  0  0  0  0  0  0  0  0
   -6.7850    8.0266   -1.6332 H   0  0  0  0  0  0  0  0  0  0  0  0
   -4.2336    6.7098    0.5988 H   0  0  0  0  0  0  0  0  0  0  0  0
   -4.9901    8.1528   -0.0822 H   0  0  0  0  0  0  0  0  0  0  0  0
   -3.0532    6.3058   -1.5659 H   0  0  0  0  0  0  0  0  0  0  0  0
   -3.8045    7.7488   -2.2428 H   0  0  0  0  0  0  0  0  0  0  0  0
   -2.6576    7.8967   -0.9066 H   0  0  0  0  0  0  0  0  0  0  0  0
    3.6118   -4.4193   -4.7393 H   0  0  0  0  0  0  0  0  0  0  0  0
    4.0432   -5.3674   -6.1632 H   0  0  0  0  0  0  0  0  0  0  0  0
    3.2448   -6.8567   -4.3637 H   0  0  0  0  0  0  0  0  0  0  0  0
    4.9567   -7.1636   -4.6744 H   0  0  0  0  0  0  0  0  0  0  0  0
    4.4710   -6.2298   -3.2591 H   0  0  0  0  0  0  0  0  0  0  0  0
    6.2411   -5.4357   -6.9921 H   0  0  0  0  0  0  0  0  0  0  0  0
    8.5687   -4.6506   -6.9415 H   0  0  0  0  0  0  0  0  0  0  0  0
    9.3915   -3.3567   -5.0006 H   0  0  0  0  0  0  0  0  0  0  0  0
    7.8632   -2.8515   -3.1371 H   0  0  0  0  0  0  0  0  0  0  0  0
   -0.9422    1.8046    1.7146 H   0  0  0  0  0  0  0  0  0  0  0  0
   -0.1382    0.2626    1.4831 H   0  0  0  0  0  0  0  0  0  0  0  0
    1.8688    1.5612    0.5217 H   0  0  0  0  0  0  0  0  0  0  0  0
    1.0033    3.0500    0.8916 H   0  0  0  0  0  0  0  0  0  0  0  0
    1.5026    1.9793    2.2016 H   0  0  0  0  0  0  0  0  0  0  0  0
    1.5152   -0.6513    1.1006 H   0  0  0  0  0  0  0  0  0  0  0  0
    2.2771   -2.1236    0.5250 H   0  0  0  0  0  0  0  0  0  0  0  0
   -0.6990   -1.5266    0.1142 H   0  0  0  0  0  0  0  0  0  0  0  0
   -0.0314   -2.5702    1.3774 H   0  0  0  0  0  0  0  0  0  0  0  0
    0.1531   -3.0054   -0.3222 H   0  0  0  0  0  0  0  0  0  0  0  0
    7.0145   -5.3131   -2.1812 H   0  0  0  0  0  0  0  0  0  0  0  0
  1  2  2  0  0  0  0
  2  3  1  0  0  0  0
  3  4  2  0  0  0  0
  3  5  1  0  0  0  0
  5  6  2  0  0  0  0
  6  7  1  0  0  0  0
  6  8  1  0  0  0  0
  8  9  2  0  0  0  0
  9 10  1  0  0  0  0
 10 11  2  0  0  0  0
 11 12  1  0  0  0  0
 12 13  2  0  0  0  0
 13 14  1  0  0  0  0
 14 15  3  0  0  0  0
 13 16  1  0  0  0  0
 16 17  3  0  0  0  0
  1 18  1  0  0  0  0
 18 19  2  0  0  0  0
 19 20  1  0  0  0  0
 20 21  2  0  0  0  0
 21 22  1  0  0  0  0
 22 23  2  0  0  0  0
 23 24  1  0  0  0  0
 24 25  2  0  0  0  0
 25 26  1  0  0  0  0
 26 27  1  0  0  0  0
 19 28  1  0  0  0  0
 28 29  1  0  0  0  0
 29 30  1  0  0  0  0
 30 31  1  0  0  0  0
 31 32  1  0  0  0  0
 32 33  1  0  0  0  0
 33 34  2  0  0  0  0
 34 35  1  0  0  0  0
 35 36  1  0  0  0  0
 33 37  1  0  0  0  0
 37 38  1  0  0  0  0
 38 39  1  0  0  0  0
 39 40  1  0  0  0  0
 40 41  1  0  0  0  0
 41 42  1  0  0  0  0
 42 43  2  0  0  0  0
 43 44  1  0  0  0  0
 44 45  1  0  0  0  0
 43 46  1  0  0  0  0
 46 47  2  0  0  0  0
 47 48  1  0  0  0  0
 48 49  2  0  0  0  0
 41 50  2  0  0  0  0
 50 51  1  0  0  0  0
 51 52  1  0  0  0  0
 52 53  1  0  0  0  0
 53 54  1  0  0  0  0
 54 55  1  0  0  0  0
 55 56  1  0  0  0  0
 56 57  1  0  0  0  0
 57 58  1  0  0  0  0
 58 59  1  0  0  0  0
 59 60  1  0  0  0  0
 57 61  1  0  0  0  0
 61 62  1  0  0  0  0
 54 63  1  0  0  0  0
 63 64  1  0  0  0  0
 50 65  1  0  0  0  0
 65 66  2  0  0  0  0
 66 67  1  0  0  0  0
 67 68  2  0  0  0  0
 67 69  1  0  0  0  0
 69 70  2  0  0  0  0
 70 71  1  0  0  0  0
 70 72  1  0  0  0  0
 72 73  1  0  0  0  0
 72 74  2  0  0  0  0
 74 75  1  0  0  0  0
 74 76  1  0  0  0  0
 76 77  1  0  0  0  0
 76 78  2  0  0  0  0
 78 79  1  0  0  0  0
 79 80  2  0  0  0  0
 80 81  1  0  0  0  0
 81 82  3  0  0  0  0
 80 83  1  0  0  0  0
 83 84  3  0  0  0  0
 12  2  1  0  0  0  0
 60 18  1  0  0  0  0
 79 66  1  0  0  0  0
 11  5  1  0  0  0  0
 25 20  1  0  0  0  0
 59 28  2  0  0  0  0
 78 69  1  0  0  0  0
 58 30  2  0  0  0  0
 56 31  2  0  0  0  0
 36 32  2  0  0  0  0
 55 37  2  0  0  0  0
 53 38  2  0  0  0  0
 52 40  2  0  0  0  0
 49 42  1  0  0  0  0
  1 85  1  0  0  0  0
  8 86  1  0  0  0  0
  9 87  1  0  0  0  0
 10 88  1  0  0  0  0
 21 89  1  0  0  0  0
 22 90  1  0  0  0  0
 23 91  1  0  0  0  0
 24 92  1  0  0  0  0
 26 93  1  0  0  0  0
 26 94  1  0  0  0  0
 27 95  1  0  0  0  0
 27 96  1  0  0  0  0
 27 97  1  0  0  0  0
 44 98  1  0  0  0  0
 44 99  1  0  0  0  0
 45100  1  0  0  0  0
 45101  1  0  0  0  0
 45102  1  0  0  0  0
 46103  1  0  0  0  0
 47104  1  0  0  0  0
 48105  1  0  0  0  0
 49106  1  0  0  0  0
 61107  1  0  0  0  0
 61108  1  0  0  0  0
 62109  1  0  0  0  0
 62110  1  0  0  0  0
 62111  1  0  0  0  0
 63112  1  0  0  0  0
 63113  1  0  0  0  0
 64114  1  0  0  0  0
 64115  1  0  0  0  0
 64116  1  0  0  0  0
 65117  1  0  0  0  0
M  END
