
  xtb     02012216423D
 energy: -265.837860949199 gnorm: 0.000226239124 xtb: 6.4.1 (unknown)
164182  0     0  0            999 V2000
    6.2938    6.3750    3.0988 C   0  0  0  0  0  0  0  0  0  0  0  0
    5.9690    7.4673    3.8709 C   0  0  0  0  0  0  0  0  0  0  0  0
    4.6390    7.7634    4.4137 C   0  0  0  0  0  0  0  0  0  0  0  0
    3.6141    7.1266    4.2600 O   0  0  0  0  0  0  0  0  0  0  0  0
    4.7934    9.0059    5.1996 C   0  0  0  0  0  0  0  0  0  0  0  0
    3.8690    9.7260    5.9325 C   0  0  0  0  0  0  0  0  0  0  0  0
    2.5940    9.3292    6.0167 F   0  0  0  0  0  0  0  0  0  0  0  0
    4.2582   10.8825    6.5974 C   0  0  0  0  0  0  0  0  0  0  0  0
    5.5737   11.3035    6.5192 C   0  0  0  0  0  0  0  0  0  0  0  0
    6.5210   10.5956    5.7885 C   0  0  0  0  0  0  0  0  0  0  0  0
    6.1284    9.4441    5.1272 C   0  0  0  0  0  0  0  0  0  0  0  0
    6.8823    8.5037    4.2929 C   0  0  0  0  0  0  0  0  0  0  0  0
    8.2120    8.6305    3.9747 C   0  0  0  0  0  0  0  0  0  0  0  0
    8.9545    7.7526    3.1585 C   0  0  0  0  0  0  0  0  0  0  0  0
    9.6365    7.0973    2.5055 N   0  0  0  0  0  0  0  0  0  0  0  0
    9.0399    9.6828    4.4166 C   0  0  0  0  0  0  0  0  0  0  0  0
    9.7744   10.5059    4.7362 N   0  0  0  0  0  0  0  0  0  0  0  0
    5.4959    5.3363    2.6112 C   0  0  0  0  0  0  0  0  0  0  0  0
    3.7789    5.1207    2.8465 S   0  0  0  0  0  0  0  0  0  0  0  0
    3.7998    3.6853    1.8872 C   0  0  0  0  0  0  0  0  0  0  0  0
    2.6574    2.8639    1.6673 C   0  0  0  0  0  0  0  0  0  0  0  0
    2.9342    1.6282    0.9717 C   0  0  0  0  0  0  0  0  0  0  0  0
    4.1737    1.2696    0.4253 C   0  0  0  0  0  0  0  0  0  0  0  0
    5.3451    2.2309    0.4588 C   0  0  0  0  0  0  0  0  0  0  0  0
    5.0731    3.3799    1.4023 C   0  0  0  0  0  0  0  0  0  0  0  0
    6.0127    4.3065    1.8180 C   0  0  0  0  0  0  0  0  0  0  0  0
    6.5782    1.4533    0.8877 C   0  0  0  0  0  0  0  0  0  0  0  0
    6.8133    1.2364    2.2395 C   0  0  0  0  0  0  0  0  0  0  0  0
    7.8988    0.4894    2.6567 C   0  0  0  0  0  0  0  0  0  0  0  0
    8.7758   -0.0695    1.7369 C   0  0  0  0  0  0  0  0  0  0  0  0
    9.9331   -0.9140    2.1856 C   0  0  0  0  0  0  0  0  0  0  0  0
    9.5315   -2.3898    2.2313 C   0  0  0  0  0  0  0  0  0  0  0  0
    8.5247    0.1284    0.3859 C   0  0  0  0  0  0  0  0  0  0  0  0
    7.4399    0.8746   -0.0357 C   0  0  0  0  0  0  0  0  0  0  0  0
    5.5083    2.9034   -0.9064 C   0  0  0  0  0  0  0  0  0  0  0  0
    4.4526    2.9681   -1.8056 C   0  0  0  0  0  0  0  0  0  0  0  0
    4.5946    3.6267   -3.0138 C   0  0  0  0  0  0  0  0  0  0  0  0
    5.7884    4.2447   -3.3571 C   0  0  0  0  0  0  0  0  0  0  0  0
    5.9261    4.9924   -4.6518 C   0  0  0  0  0  0  0  0  0  0  0  0
    5.5132    6.4546   -4.4715 C   0  0  0  0  0  0  0  0  0  0  0  0
    6.8366    4.1951   -2.4473 C   0  0  0  0  0  0  0  0  0  0  0  0
    6.6988    3.5398   -1.2391 C   0  0  0  0  0  0  0  0  0  0  0  0
    4.2668    0.0399   -0.2159 C   0  0  0  0  0  0  0  0  0  0  0  0
    3.1945   -0.8365   -0.3707 C   0  0  0  0  0  0  0  0  0  0  0  0
    1.9318   -0.5178    0.1182 C   0  0  0  0  0  0  0  0  0  0  0  0
    0.7025   -1.3008   -0.0515 C   0  0  0  0  0  0  0  0  0  0  0  0
   -0.5193   -0.7831    0.4558 C   0  0  0  0  0  0  0  0  0  0  0  0
   -0.5081    0.4319    1.1183 C   0  0  0  0  0  0  0  0  0  0  0  0
   -1.5802    1.1813    1.6161 C   0  0  0  0  0  0  0  0  0  0  0  0
   -1.0524    2.3682    2.1035 N   0  0  0  0  0  0  0  0  0  0  0  0
    0.3223    2.3703    1.9121 C   0  0  0  0  0  0  0  0  0  0  0  0
    1.3894    3.2435    2.1228 C   0  0  0  0  0  0  0  0  0  0  0  0
    0.6502    1.1591    1.2919 C   0  0  0  0  0  0  0  0  0  0  0  0
    1.8697    0.7265    0.7998 C   0  0  0  0  0  0  0  0  0  0  0  0
   -1.7972    3.3983    2.7814 C   0  0  0  0  0  0  0  0  0  0  0  0
   -1.8640    3.1435    4.2863 C   0  0  0  0  0  0  0  0  0  0  0  0
   -2.8453    0.6275    1.4068 C   0  0  0  0  0  0  0  0  0  0  0  0
   -2.9303   -0.6084    0.7595 C   0  0  0  0  0  0  0  0  0  0  0  0
   -4.1739   -1.1405    0.3040 C   0  0  0  0  0  0  0  0  0  0  0  0
   -4.2827   -2.3691   -0.3370 C   0  0  0  0  0  0  0  0  0  0  0  0
   -3.1556   -3.3706   -0.3269 C   0  0  0  0  0  0  0  0  0  0  0  0
   -3.1912   -4.1621    0.9892 C   0  0  0  0  0  0  0  0  0  0  0  0
   -2.1075   -4.9546    1.3480 C   0  0  0  0  0  0  0  0  0  0  0  0
   -2.1280   -5.6968    2.5133 C   0  0  0  0  0  0  0  0  0  0  0  0
   -3.2321   -5.6760    3.3550 C   0  0  0  0  0  0  0  0  0  0  0  0
   -3.2412   -6.4533    4.6396 C   0  0  0  0  0  0  0  0  0  0  0  0
   -2.7141   -5.5929    5.7897 C   0  0  0  0  0  0  0  0  0  0  0  0
   -4.3133   -4.8859    2.9932 C   0  0  0  0  0  0  0  0  0  0  0  0
   -4.2959   -4.1383    1.8298 C   0  0  0  0  0  0  0  0  0  0  0  0
   -3.3549   -4.2908   -1.5172 C   0  0  0  0  0  0  0  0  0  0  0  0
   -3.9790   -5.5239   -1.3784 C   0  0  0  0  0  0  0  0  0  0  0  0
   -4.2817   -6.2873   -2.4907 C   0  0  0  0  0  0  0  0  0  0  0  0
   -3.9726   -5.8404   -3.7685 C   0  0  0  0  0  0  0  0  0  0  0  0
   -4.2844   -6.6870   -4.9685 C   0  0  0  0  0  0  0  0  0  0  0  0
   -3.1268   -7.6426   -5.2638 C   0  0  0  0  0  0  0  0  0  0  0  0
   -3.3401   -4.6109   -3.9033 C   0  0  0  0  0  0  0  0  0  0  0  0
   -3.0436   -3.8403   -2.7946 C   0  0  0  0  0  0  0  0  0  0  0  0
   -1.8436   -2.6187   -0.3284 C   0  0  0  0  0  0  0  0  0  0  0  0
   -1.7853   -1.3717    0.3113 C   0  0  0  0  0  0  0  0  0  0  0  0
   -0.6623   -3.1464   -0.8338 C   0  0  0  0  0  0  0  0  0  0  0  0
    0.5756   -2.5133   -0.7205 C   0  0  0  0  0  0  0  0  0  0  0  0
   -5.5301   -2.5693   -0.9151 C   0  0  0  0  0  0  0  0  0  0  0  0
   -6.4214   -1.5277   -0.7105 C   0  0  0  0  0  0  0  0  0  0  0  0
   -5.6614   -0.2605    0.2289 S   0  0  0  0  0  0  0  0  0  0  0  0
   -7.7077   -1.3121   -1.2404 C   0  0  0  0  0  0  0  0  0  0  0  0
   -8.4720   -2.1275   -2.0252 C   0  0  0  0  0  0  0  0  0  0  0  0
   -9.5130   -1.5103   -2.8905 C   0  0  0  0  0  0  0  0  0  0  0  0
   -9.9786   -0.3975   -2.7687 O   0  0  0  0  0  0  0  0  0  0  0  0
   -9.7888   -2.5150   -3.9366 C   0  0  0  0  0  0  0  0  0  0  0  0
   -9.0872   -3.6856   -3.6505 C   0  0  0  0  0  0  0  0  0  0  0  0
   -9.1473   -4.7852   -4.5153 C   0  0  0  0  0  0  0  0  0  0  0  0
   -9.9141   -4.6897   -5.6474 C   0  0  0  0  0  0  0  0  0  0  0  0
  -10.6491   -3.5251   -5.9591 C   0  0  0  0  0  0  0  0  0  0  0  0
  -11.4452   -3.4394   -7.1196 C   0  0  0  0  0  0  0  0  0  0  0  0
  -12.1470   -2.3000   -7.4018 C   0  0  0  0  0  0  0  0  0  0  0  0
  -12.0857   -1.1931   -6.5397 C   0  0  0  0  0  0  0  0  0  0  0  0
  -11.3246   -1.2369   -5.4046 C   0  0  0  0  0  0  0  0  0  0  0  0
  -10.5918   -2.3989   -5.0871 C   0  0  0  0  0  0  0  0  0  0  0  0
   -8.3932   -3.5248   -2.3754 C   0  0  0  0  0  0  0  0  0  0  0  0
   -7.9846   -4.5472   -1.5559 C   0  0  0  0  0  0  0  0  0  0  0  0
   -7.9254   -5.9007   -1.9353 C   0  0  0  0  0  0  0  0  0  0  0  0
   -7.8158   -7.0118   -2.2051 N   0  0  0  0  0  0  0  0  0  0  0  0
   -7.6473   -4.3337   -0.2043 C   0  0  0  0  0  0  0  0  0  0  0  0
   -7.4202   -4.1891    0.9115 N   0  0  0  0  0  0  0  0  0  0  0  0
    7.3320    6.2829    2.8034 H   0  0  0  0  0  0  0  0  0  0  0  0
    3.5262   11.4347    7.1653 H   0  0  0  0  0  0  0  0  0  0  0  0
    5.8723   12.2019    7.0370 H   0  0  0  0  0  0  0  0  0  0  0  0
    7.5372   10.9499    5.7488 H   0  0  0  0  0  0  0  0  0  0  0  0
    7.0594    4.2605    1.5750 H   0  0  0  0  0  0  0  0  0  0  0  0
    6.1405    1.6558    2.9740 H   0  0  0  0  0  0  0  0  0  0  0  0
    8.0674    0.3395    3.7137 H   0  0  0  0  0  0  0  0  0  0  0  0
   10.7703   -0.7909    1.4954 H   0  0  0  0  0  0  0  0  0  0  0  0
   10.2593   -0.5984    3.1784 H   0  0  0  0  0  0  0  0  0  0  0  0
   10.3680   -3.0021    2.5599 H   0  0  0  0  0  0  0  0  0  0  0  0
    8.7022   -2.5347    2.9201 H   0  0  0  0  0  0  0  0  0  0  0  0
    9.2195   -2.7279    1.2456 H   0  0  0  0  0  0  0  0  0  0  0  0
    9.1885   -0.3053   -0.3487 H   0  0  0  0  0  0  0  0  0  0  0  0
    7.2719    1.0137   -1.0941 H   0  0  0  0  0  0  0  0  0  0  0  0
    3.5083    2.5001   -1.5707 H   0  0  0  0  0  0  0  0  0  0  0  0
    3.7605    3.6577   -3.7005 H   0  0  0  0  0  0  0  0  0  0  0  0
    6.9619    4.9513   -4.9947 H   0  0  0  0  0  0  0  0  0  0  0  0
    5.2945    4.5316   -5.4141 H   0  0  0  0  0  0  0  0  0  0  0  0
    6.1408    6.9353   -3.7245 H   0  0  0  0  0  0  0  0  0  0  0  0
    4.4790    6.5173   -4.1402 H   0  0  0  0  0  0  0  0  0  0  0  0
    5.6116    6.9964   -5.4093 H   0  0  0  0  0  0  0  0  0  0  0  0
    7.7749    4.6746   -2.6870 H   0  0  0  0  0  0  0  0  0  0  0  0
    7.5350    3.5138   -0.5568 H   0  0  0  0  0  0  0  0  0  0  0  0
    5.2190   -0.2489   -0.6358 H   0  0  0  0  0  0  0  0  0  0  0  0
    3.3623   -1.7631   -0.8987 H   0  0  0  0  0  0  0  0  0  0  0  0
    1.2821    4.1992    2.6147 H   0  0  0  0  0  0  0  0  0  0  0  0
   -1.3118    4.3586    2.5870 H   0  0  0  0  0  0  0  0  0  0  0  0
   -2.8062    3.4274    2.3608 H   0  0  0  0  0  0  0  0  0  0  0  0
   -0.8624    3.1214    4.7094 H   0  0  0  0  0  0  0  0  0  0  0  0
   -2.3473    2.1899    4.4871 H   0  0  0  0  0  0  0  0  0  0  0  0
   -2.4304    3.9324    4.7728 H   0  0  0  0  0  0  0  0  0  0  0  0
   -3.7607    1.1292    1.6866 H   0  0  0  0  0  0  0  0  0  0  0  0
   -1.2372   -5.0014    0.7116 H   0  0  0  0  0  0  0  0  0  0  0  0
   -1.2733   -6.3079    2.7679 H   0  0  0  0  0  0  0  0  0  0  0  0
   -2.6160   -7.3428    4.5394 H   0  0  0  0  0  0  0  0  0  0  0  0
   -4.2593   -6.7743    4.8687 H   0  0  0  0  0  0  0  0  0  0  0  0
   -3.3331   -4.7070    5.9127 H   0  0  0  0  0  0  0  0  0  0  0  0
   -1.6949   -5.2718    5.5858 H   0  0  0  0  0  0  0  0  0  0  0  0
   -2.7223   -6.1549    6.7208 H   0  0  0  0  0  0  0  0  0  0  0  0
   -5.1927   -4.8588    3.6197 H   0  0  0  0  0  0  0  0  0  0  0  0
   -5.1716   -3.5617    1.5773 H   0  0  0  0  0  0  0  0  0  0  0  0
   -4.2487   -5.8841   -0.3965 H   0  0  0  0  0  0  0  0  0  0  0  0
   -4.7854   -7.2345   -2.3636 H   0  0  0  0  0  0  0  0  0  0  0  0
   -4.4572   -6.0496   -5.8385 H   0  0  0  0  0  0  0  0  0  0  0  0
   -5.1904   -7.2668   -4.7811 H   0  0  0  0  0  0  0  0  0  0  0  0
   -3.3540   -8.2603   -6.1295 H   0  0  0  0  0  0  0  0  0  0  0  0
   -2.9478   -8.2925   -4.4103 H   0  0  0  0  0  0  0  0  0  0  0  0
   -2.2158   -7.0830   -5.4650 H   0  0  0  0  0  0  0  0  0  0  0  0
   -3.0925   -4.2434   -4.8894 H   0  0  0  0  0  0  0  0  0  0  0  0
   -2.5763   -2.8733   -2.9204 H   0  0  0  0  0  0  0  0  0  0  0  0
   -0.7033   -4.0903   -1.3600 H   0  0  0  0  0  0  0  0  0  0  0  0
    1.4376   -2.9908   -1.1619 H   0  0  0  0  0  0  0  0  0  0  0  0
   -5.7540   -3.4286   -1.5185 H   0  0  0  0  0  0  0  0  0  0  0  0
   -8.1043   -0.3087   -1.1181 H   0  0  0  0  0  0  0  0  0  0  0  0
   -8.5908   -5.6840   -4.3032 H   0  0  0  0  0  0  0  0  0  0  0  0
   -9.9669   -5.5253   -6.3306 H   0  0  0  0  0  0  0  0  0  0  0  0
  -11.4914   -4.2924   -7.7814 H   0  0  0  0  0  0  0  0  0  0  0  0
  -12.7548   -2.2435   -8.2928 H   0  0  0  0  0  0  0  0  0  0  0  0
  -12.6473   -0.3032   -6.7821 H   0  0  0  0  0  0  0  0  0  0  0  0
  -11.2685   -0.3933   -4.7348 H   0  0  0  0  0  0  0  0  0  0  0  0
  1  2  2  0  0  0  0
  2  3  1  0  0  0  0
  3  4  2  0  0  0  0
  3  5  1  0  0  0  0
  5  6  2  0  0  0  0
  6  7  1  0  0  0  0
  6  8  1  0  0  0  0
  8  9  2  0  0  0  0
  9 10  1  0  0  0  0
 10 11  2  0  0  0  0
 11 12  1  0  0  0  0
 12 13  2  0  0  0  0
 13 14  1  0  0  0  0
 14 15  3  0  0  0  0
 13 16  1  0  0  0  0
 16 17  3  0  0  0  0
  1 18  1  0  0  0  0
 18 19  1  0  0  0  0
 19 20  1  0  0  0  0
 20 21  1  0  0  0  0
 21 22  2  0  0  0  0
 22 23  1  0  0  0  0
 23 24  1  0  0  0  0
 24 25  1  0  0  0  0
 25 26  1  0  0  0  0
 24 27  1  0  0  0  0
 27 28  2  0  0  0  0
 28 29  1  0  0  0  0
 29 30  2  0  0  0  0
 30 31  1  0  0  0  0
 31 32  1  0  0  0  0
 30 33  1  0  0  0  0
 33 34  2  0  0  0  0
 24 35  1  0  0  0  0
 35 36  2  0  0  0  0
 36 37  1  0  0  0  0
 37 38  2  0  0  0  0
 38 39  1  0  0  0  0
 39 40  1  0  0  0  0
 38 41  1  0  0  0  0
 41 42  2  0  0  0  0
 23 43  2  0  0  0  0
 43 44  1  0  0  0  0
 44 45  2  0  0  0  0
 45 46  1  0  0  0  0
 46 47  1  0  0  0  0
 47 48  2  0  0  0  0
 48 49  1  0  0  0  0
 49 50  1  0  0  0  0
 50 51  1  0  0  0  0
 51 52  2  0  0  0  0
 51 53  1  0  0  0  0
 53 54  2  0  0  0  0
 50 55  1  0  0  0  0
 55 56  1  0  0  0  0
 49 57  2  0  0  0  0
 57 58  1  0  0  0  0
 58 59  1  0  0  0  0
 59 60  2  0  0  0  0
 60 61  1  0  0  0  0
 61 62  1  0  0  0  0
 62 63  2  0  0  0  0
 63 64  1  0  0  0  0
 64 65  2  0  0  0  0
 65 66  1  0  0  0  0
 66 67  1  0  0  0  0
 65 68  1  0  0  0  0
 68 69  2  0  0  0  0
 61 70  1  0  0  0  0
 70 71  2  0  0  0  0
 71 72  1  0  0  0  0
 72 73  2  0  0  0  0
 73 74  1  0  0  0  0
 74 75  1  0  0  0  0
 73 76  1  0  0  0  0
 76 77  2  0  0  0  0
 61 78  1  0  0  0  0
 78 79  1  0  0  0  0
 78 80  2  0  0  0  0
 80 81  1  0  0  0  0
 60 82  1  0  0  0  0
 82 83  2  0  0  0  0
 83 84  1  0  0  0  0
 83 85  1  0  0  0  0
 85 86  2  0  0  0  0
 86 87  1  0  0  0  0
 87 88  2  0  0  0  0
 87 89  1  0  0  0  0
 89 90  2  0  0  0  0
 90 91  1  0  0  0  0
 91 92  2  0  0  0  0
 92 93  1  0  0  0  0
 93 94  2  0  0  0  0
 94 95  1  0  0  0  0
 95 96  2  0  0  0  0
 96 97  1  0  0  0  0
 97 98  2  0  0  0  0
 90 99  1  0  0  0  0
 99100  2  0  0  0  0
100101  1  0  0  0  0
101102  3  0  0  0  0
100103  1  0  0  0  0
103104  3  0  0  0  0
 12  2  1  0  0  0  0
 26 18  2  0  0  0  0
 34 27  1  0  0  0  0
 42 35  1  0  0  0  0
 54 45  1  0  0  0  0
 79 58  2  0  0  0  0
 99 86  1  0  0  0  0
 11  5  1  0  0  0  0
 25 20  2  0  0  0  0
 81 46  2  0  0  0  0
 98 89  1  0  0  0  0
 52 21  1  0  0  0  0
 84 59  1  0  0  0  0
 98 93  1  0  0  0  0
 54 22  1  0  0  0  0
 69 62  1  0  0  0  0
 77 70  1  0  0  0  0
 79 47  1  0  0  0  0
 53 48  1  0  0  0  0
  1105  1  0  0  0  0
  8106  1  0  0  0  0
  9107  1  0  0  0  0
 10108  1  0  0  0  0
 26109  1  0  0  0  0
 28110  1  0  0  0  0
 29111  1  0  0  0  0
 31112  1  0  0  0  0
 31113  1  0  0  0  0
 32114  1  0  0  0  0
 32115  1  0  0  0  0
 32116  1  0  0  0  0
 33117  1  0  0  0  0
 34118  1  0  0  0  0
 36119  1  0  0  0  0
 37120  1  0  0  0  0
 39121  1  0  0  0  0
 39122  1  0  0  0  0
 40123  1  0  0  0  0
 40124  1  0  0  0  0
 40125  1  0  0  0  0
 41126  1  0  0  0  0
 42127  1  0  0  0  0
 43128  1  0  0  0  0
 44129  1  0  0  0  0
 52130  1  0  0  0  0
 55131  1  0  0  0  0
 55132  1  0  0  0  0
 56133  1  0  0  0  0
 56134  1  0  0  0  0
 56135  1  0  0  0  0
 57136  1  0  0  0  0
 63137  1  0  0  0  0
 64138  1  0  0  0  0
 66139  1  0  0  0  0
 66140  1  0  0  0  0
 67141  1  0  0  0  0
 67142  1  0  0  0  0
 67143  1  0  0  0  0
 68144  1  0  0  0  0
 69145  1  0  0  0  0
 71146  1  0  0  0  0
 72147  1  0  0  0  0
 74148  1  0  0  0  0
 74149  1  0  0  0  0
 75150  1  0  0  0  0
 75151  1  0  0  0  0
 75152  1  0  0  0  0
 76153  1  0  0  0  0
 77154  1  0  0  0  0
 80155  1  0  0  0  0
 81156  1  0  0  0  0
 82157  1  0  0  0  0
 85158  1  0  0  0  0
 91159  1  0  0  0  0
 92160  1  0  0  0  0
 94161  1  0  0  0  0
 95162  1  0  0  0  0
 96163  1  0  0  0  0
 97164  1  0  0  0  0
M  END
