
  xtb     02012216283D
 energy: -284.331062440807 gnorm: 0.000344607095 xtb: 6.4.1 (unknown)
167185  0     0  0            999 V2000
   -2.1199    0.5866   -9.9060 C   0  0  0  0  0  0  0  0  0  0  0  0
   -1.4956    0.6665  -11.1280 C   0  0  0  0  0  0  0  0  0  0  0  0
   -0.1270    0.2392  -11.4916 C   0  0  0  0  0  0  0  0  0  0  0  0
    0.6749   -0.3890  -10.8343 O   0  0  0  0  0  0  0  0  0  0  0  0
    0.0903    0.7457  -12.8653 C   0  0  0  0  0  0  0  0  0  0  0  0
    1.2106    0.6763  -13.6733 C   0  0  0  0  0  0  0  0  0  0  0  0
    2.3282    0.0730  -13.2544 F   0  0  0  0  0  0  0  0  0  0  0  0
    1.1882    1.2422  -14.9418 C   0  0  0  0  0  0  0  0  0  0  0  0
    0.0398    1.8734  -15.3867 C   0  0  0  0  0  0  0  0  0  0  0  0
   -1.0988    1.9524  -14.5941 C   0  0  0  0  0  0  0  0  0  0  0  0
   -1.0717    1.3845  -13.3308 C   0  0  0  0  0  0  0  0  0  0  0  0
   -2.0927    1.3048  -12.2846 C   0  0  0  0  0  0  0  0  0  0  0  0
   -3.3895    1.7281  -12.4305 C   0  0  0  0  0  0  0  0  0  0  0  0
   -3.8998    2.3429  -13.5935 C   0  0  0  0  0  0  0  0  0  0  0  0
   -4.3869    2.8535  -14.4993 N   0  0  0  0  0  0  0  0  0  0  0  0
   -4.4261    1.5992  -11.4813 C   0  0  0  0  0  0  0  0  0  0  0  0
   -5.3404    1.5273  -10.7889 N   0  0  0  0  0  0  0  0  0  0  0  0
   -1.7183    0.0361   -8.6817 C   0  0  0  0  0  0  0  0  0  0  0  0
   -0.5983   -0.6969   -8.2888 C   0  0  0  0  0  0  0  0  0  0  0  0
   -0.6134   -1.0028   -6.9449 C   0  0  0  0  0  0  0  0  0  0  0  0
    0.2767   -1.7628   -5.9880 C   0  0  0  0  0  0  0  0  0  0  0  0
    1.6675   -1.1977   -5.7706 C   0  0  0  0  0  0  0  0  0  0  0  0
    2.6321   -2.0041   -5.1782 C   0  0  0  0  0  0  0  0  0  0  0  0
    3.8656   -1.4844   -4.8417 C   0  0  0  0  0  0  0  0  0  0  0  0
    4.1671   -0.1501   -5.0845 C   0  0  0  0  0  0  0  0  0  0  0  0
    5.4834    0.4178   -4.6391 C   0  0  0  0  0  0  0  0  0  0  0  0
    5.4406    0.7379   -3.1434 C   0  0  0  0  0  0  0  0  0  0  0  0
    3.2045    0.6453   -5.6902 C   0  0  0  0  0  0  0  0  0  0  0  0
    1.9642    0.1317   -6.0271 C   0  0  0  0  0  0  0  0  0  0  0  0
    0.3260   -3.2049   -6.4601 C   0  0  0  0  0  0  0  0  0  0  0  0
    1.1149   -3.5202   -7.5598 C   0  0  0  0  0  0  0  0  0  0  0  0
    1.1495   -4.8121   -8.0450 C   0  0  0  0  0  0  0  0  0  0  0  0
    0.3998   -5.8191   -7.4482 C   0  0  0  0  0  0  0  0  0  0  0  0
    0.3978   -7.2088   -8.0161 C   0  0  0  0  0  0  0  0  0  0  0  0
   -0.6449   -7.3244   -9.1300 C   0  0  0  0  0  0  0  0  0  0  0  0
   -0.3847   -5.4962   -6.3503 C   0  0  0  0  0  0  0  0  0  0  0  0
   -0.4256   -4.2027   -5.8600 C   0  0  0  0  0  0  0  0  0  0  0  0
   -0.4768   -1.5515   -4.6995 C   0  0  0  0  0  0  0  0  0  0  0  0
   -1.6597   -0.8451   -4.9083 C   0  0  0  0  0  0  0  0  0  0  0  0
   -1.7571   -0.5256   -6.2800 C   0  0  0  0  0  0  0  0  0  0  0  0
   -2.8206    0.3060   -7.3197 S   0  0  0  0  0  0  0  0  0  0  0  0
   -2.5164   -0.4742   -3.4485 S   0  0  0  0  0  0  0  0  0  0  0  0
   -1.2396   -1.2134   -2.5294 C   0  0  0  0  0  0  0  0  0  0  0  0
   -0.2323   -1.7386   -3.3430 C   0  0  0  0  0  0  0  0  0  0  0  0
    1.1148   -2.3454   -2.4391 S   0  0  0  0  0  0  0  0  0  0  0  0
    0.3698   -1.7863   -0.9536 C   0  0  0  0  0  0  0  0  0  0  0  0
    1.0025   -1.8069    0.2808 C   0  0  0  0  0  0  0  0  0  0  0  0
    2.3419   -2.3421    0.4458 C   0  0  0  0  0  0  0  0  0  0  0  0
    2.7826   -3.2516    1.3626 C   0  0  0  0  0  0  0  0  0  0  0  0
    4.1553   -3.5455    1.2356 C   0  0  0  0  0  0  0  0  0  0  0  0
    4.7646   -2.8606    0.2302 C   0  0  0  0  0  0  0  0  0  0  0  0
    6.2011   -2.8689   -0.1633 C   0  0  0  0  0  0  0  0  0  0  0  0
    6.9037   -1.5866    0.2881 C   0  0  0  0  0  0  0  0  0  0  0  0
    3.6393   -1.8348   -0.5968 S   0  0  0  0  0  0  0  0  0  0  0  0
    0.3017   -1.2391    1.3584 C   0  0  0  0  0  0  0  0  0  0  0  0
   -1.0193   -0.7554    1.1775 C   0  0  0  0  0  0  0  0  0  0  0  0
   -1.6675   -0.7707   -0.0507 C   0  0  0  0  0  0  0  0  0  0  0  0
   -3.0307   -0.3051   -0.2156 C   0  0  0  0  0  0  0  0  0  0  0  0
   -4.0504   -0.9315   -0.8743 C   0  0  0  0  0  0  0  0  0  0  0  0
   -5.2623   -0.2148   -0.8293 C   0  0  0  0  0  0  0  0  0  0  0  0
   -5.1708    0.9606   -0.1499 C   0  0  0  0  0  0  0  0  0  0  0  0
   -6.2382    1.9621    0.1251 C   0  0  0  0  0  0  0  0  0  0  0  0
   -6.6239    1.9685    1.6056 C   0  0  0  0  0  0  0  0  0  0  0  0
   -3.5704    1.2000    0.4695 S   0  0  0  0  0  0  0  0  0  0  0  0
   -0.9296   -1.2522   -1.1474 C   0  0  0  0  0  0  0  0  0  0  0  0
   -1.7088   -0.0916    2.6480 S   0  0  0  0  0  0  0  0  0  0  0  0
   -0.2077   -0.3477    3.4788 C   0  0  0  0  0  0  0  0  0  0  0  0
    0.2922    0.0246    4.7235 C   0  0  0  0  0  0  0  0  0  0  0  0
    1.6325   -0.3339    4.8557 C   0  0  0  0  0  0  0  0  0  0  0  0
    2.2831   -1.1411    3.4696 S   0  0  0  0  0  0  0  0  0  0  0  0
    0.7468   -0.9785    2.6773 C   0  0  0  0  0  0  0  0  0  0  0  0
    2.1053    0.1265    6.1031 C   0  0  0  0  0  0  0  0  0  0  0  0
    3.5723    0.1730    6.9686 S   0  0  0  0  0  0  0  0  0  0  0  0
    2.7873    1.0835    8.2712 C   0  0  0  0  0  0  0  0  0  0  0  0
    1.4383    1.3034    7.9938 C   0  0  0  0  0  0  0  0  0  0  0  0
    1.0546    0.7646    6.7836 C   0  0  0  0  0  0  0  0  0  0  0  0
   -0.2120    0.7242    5.9607 C   0  0  0  0  0  0  0  0  0  0  0  0
   -1.3173   -0.1300    6.5619 C   0  0  0  0  0  0  0  0  0  0  0  0
   -1.0965   -0.9731    7.6401 C   0  0  0  0  0  0  0  0  0  0  0  0
   -2.1261   -1.7519    8.1374 C   0  0  0  0  0  0  0  0  0  0  0  0
   -3.3905   -1.7173    7.5659 C   0  0  0  0  0  0  0  0  0  0  0  0
   -4.5159   -2.5262    8.1430 C   0  0  0  0  0  0  0  0  0  0  0  0
   -5.2217   -1.7404    9.2501 C   0  0  0  0  0  0  0  0  0  0  0  0
   -3.6010   -0.8779    6.4790 C   0  0  0  0  0  0  0  0  0  0  0  0
   -2.5789   -0.0942    5.9808 C   0  0  0  0  0  0  0  0  0  0  0  0
   -0.7105    2.1374    5.7176 C   0  0  0  0  0  0  0  0  0  0  0  0
   -0.4606    2.8114    4.5320 C   0  0  0  0  0  0  0  0  0  0  0  0
   -0.9427    4.0941    4.3438 C   0  0  0  0  0  0  0  0  0  0  0  0
   -1.6692    4.7370    5.3361 C   0  0  0  0  0  0  0  0  0  0  0  0
   -2.2476    6.1019    5.0990 C   0  0  0  0  0  0  0  0  0  0  0  0
   -3.6259    5.9845    4.4444 C   0  0  0  0  0  0  0  0  0  0  0  0
   -1.8927    4.0655    6.5317 C   0  0  0  0  0  0  0  0  0  0  0  0
   -1.4192    2.7825    6.7235 C   0  0  0  0  0  0  0  0  0  0  0  0
    3.6179    1.4527    9.3382 C   0  0  0  0  0  0  0  0  0  0  0  0
    3.3851    2.1785   10.4799 C   0  0  0  0  0  0  0  0  0  0  0  0
    2.1177    2.7965   10.9455 C   0  0  0  0  0  0  0  0  0  0  0  0
    1.0133    2.7650   10.4420 O   0  0  0  0  0  0  0  0  0  0  0  0
    2.4848    3.4694   12.1909 C   0  0  0  0  0  0  0  0  0  0  0  0
    1.6624    4.4153   13.3536 S   0  0  0  0  0  0  0  0  0  0  0  0
    3.1464    4.5641   14.2496 C   0  0  0  0  0  0  0  0  0  0  0  0
    3.1745    5.5473   15.8435 Br  0  0  0  0  0  0  0  0  0  0  0  0
    4.2138    3.9212   13.6859 C   0  0  0  0  0  0  0  0  0  0  0  0
    3.8250    3.2877   12.4918 C   0  0  0  0  0  0  0  0  0  0  0  0
    4.4289    2.4769   11.4485 C   0  0  0  0  0  0  0  0  0  0  0  0
    5.7481    2.1038   11.4470 C   0  0  0  0  0  0  0  0  0  0  0  0
    6.6244    2.4928   12.4829 C   0  0  0  0  0  0  0  0  0  0  0  0
    7.3561    2.7969   13.3128 N   0  0  0  0  0  0  0  0  0  0  0  0
    6.4096    1.3198   10.4806 C   0  0  0  0  0  0  0  0  0  0  0  0
    7.0318    0.6895    9.7488 N   0  0  0  0  0  0  0  0  0  0  0  0
   -3.0950    1.0566   -9.8517 H   0  0  0  0  0  0  0  0  0  0  0  0
    2.0694    1.1817  -15.5607 H   0  0  0  0  0  0  0  0  0  0  0  0
    0.0275    2.3148  -16.3712 H   0  0  0  0  0  0  0  0  0  0  0  0
   -1.9751    2.4533  -14.9689 H   0  0  0  0  0  0  0  0  0  0  0  0
    0.1809   -0.9596   -8.9798 H   0  0  0  0  0  0  0  0  0  0  0  0
    2.4127   -3.0429   -4.9783 H   0  0  0  0  0  0  0  0  0  0  0  0
    4.6018   -2.1224   -4.3749 H   0  0  0  0  0  0  0  0  0  0  0  0
    5.7082    1.3272   -5.1990 H   0  0  0  0  0  0  0  0  0  0  0  0
    6.2796   -0.3055   -4.8281 H   0  0  0  0  0  0  0  0  0  0  0  0
    4.6756    1.4836   -2.9383 H   0  0  0  0  0  0  0  0  0  0  0  0
    5.2017   -0.1566   -2.5720 H   0  0  0  0  0  0  0  0  0  0  0  0
    6.4008    1.1236   -2.8084 H   0  0  0  0  0  0  0  0  0  0  0  0
    3.4213    1.6841   -5.8948 H   0  0  0  0  0  0  0  0  0  0  0  0
    1.2248    0.7712   -6.4873 H   0  0  0  0  0  0  0  0  0  0  0  0
    1.7077   -2.7503   -8.0306 H   0  0  0  0  0  0  0  0  0  0  0  0
    1.7674   -5.0429   -8.9006 H   0  0  0  0  0  0  0  0  0  0  0  0
    1.3838   -7.4447   -8.4215 H   0  0  0  0  0  0  0  0  0  0  0  0
    0.1683   -7.9317   -7.2308 H   0  0  0  0  0  0  0  0  0  0  0  0
   -0.4257   -6.6183   -9.9278 H   0  0  0  0  0  0  0  0  0  0  0  0
   -0.6487   -8.3292   -9.5460 H   0  0  0  0  0  0  0  0  0  0  0  0
   -1.6375   -7.1044   -8.7431 H   0  0  0  0  0  0  0  0  0  0  0  0
   -0.9734   -6.2648   -5.8699 H   0  0  0  0  0  0  0  0  0  0  0  0
   -1.0457   -3.9754   -5.0048 H   0  0  0  0  0  0  0  0  0  0  0  0
    2.1356   -3.7204    2.0828 H   0  0  0  0  0  0  0  0  0  0  0  0
    4.6708   -4.2444    1.8697 H   0  0  0  0  0  0  0  0  0  0  0  0
    6.6855   -3.7343    0.2935 H   0  0  0  0  0  0  0  0  0  0  0  0
    6.2858   -2.9616   -1.2488 H   0  0  0  0  0  0  0  0  0  0  0  0
    6.4410   -0.7190   -0.1771 H   0  0  0  0  0  0  0  0  0  0  0  0
    7.9537   -1.6140    0.0085 H   0  0  0  0  0  0  0  0  0  0  0  0
    6.8331   -1.4778    1.3679 H   0  0  0  0  0  0  0  0  0  0  0  0
   -3.9439   -1.8940   -1.3420 H   0  0  0  0  0  0  0  0  0  0  0  0
   -6.1705   -0.5606   -1.2899 H   0  0  0  0  0  0  0  0  0  0  0  0
   -5.8894    2.9586   -0.1576 H   0  0  0  0  0  0  0  0  0  0  0  0
   -7.1113    1.7202   -0.4841 H   0  0  0  0  0  0  0  0  0  0  0  0
   -5.7603    2.2169    2.2187 H   0  0  0  0  0  0  0  0  0  0  0  0
   -6.9899    0.9890    1.9052 H   0  0  0  0  0  0  0  0  0  0  0  0
   -7.4043    2.7026    1.7887 H   0  0  0  0  0  0  0  0  0  0  0  0
    0.7967    1.8406    8.6670 H   0  0  0  0  0  0  0  0  0  0  0  0
   -0.1216   -1.0209    8.1021 H   0  0  0  0  0  0  0  0  0  0  0  0
   -1.9406   -2.3985    8.9832 H   0  0  0  0  0  0  0  0  0  0  0  0
   -4.1283   -3.4598    8.5558 H   0  0  0  0  0  0  0  0  0  0  0  0
   -5.2360   -2.7707    7.3597 H   0  0  0  0  0  0  0  0  0  0  0  0
   -5.6254   -0.8108    8.8551 H   0  0  0  0  0  0  0  0  0  0  0  0
   -4.5220   -1.4977   10.0466 H   0  0  0  0  0  0  0  0  0  0  0  0
   -6.0379   -2.3237    9.6700 H   0  0  0  0  0  0  0  0  0  0  0  0
   -4.5763   -0.8374    6.0158 H   0  0  0  0  0  0  0  0  0  0  0  0
   -2.7609    0.5575    5.1384 H   0  0  0  0  0  0  0  0  0  0  0  0
    0.1082    2.3389    3.7450 H   0  0  0  0  0  0  0  0  0  0  0  0
   -0.7496    4.6011    3.4093 H   0  0  0  0  0  0  0  0  0  0  0  0
   -2.3426    6.6353    6.0467 H   0  0  0  0  0  0  0  0  0  0  0  0
   -1.5875    6.6770    4.4466 H   0  0  0  0  0  0  0  0  0  0  0  0
   -4.3040    5.4295    5.0890 H   0  0  0  0  0  0  0  0  0  0  0  0
   -3.5494    5.4585    3.4953 H   0  0  0  0  0  0  0  0  0  0  0  0
   -4.0471    6.9705    4.2632 H   0  0  0  0  0  0  0  0  0  0  0  0
   -2.4456    4.5520    7.3222 H   0  0  0  0  0  0  0  0  0  0  0  0
   -1.6086    2.2721    7.6561 H   0  0  0  0  0  0  0  0  0  0  0  0
    4.6368    1.1037    9.2151 H   0  0  0  0  0  0  0  0  0  0  0  0
    5.1985    3.9169   14.1149 H   0  0  0  0  0  0  0  0  0  0  0  0
  1  2  2  0  0  0  0
  2  3  1  0  0  0  0
  3  4  2  0  0  0  0
  3  5  1  0  0  0  0
  5  6  2  0  0  0  0
  6  7  1  0  0  0  0
  6  8  1  0  0  0  0
  8  9  2  0  0  0  0
  9 10  1  0  0  0  0
 10 11  2  0  0  0  0
 11 12  1  0  0  0  0
 12 13  2  0  0  0  0
 13 14  1  0  0  0  0
 14 15  3  0  0  0  0
 13 16  1  0  0  0  0
 16 17  3  0  0  0  0
  1 18  1  0  0  0  0
 18 19  2  0  0  0  0
 19 20  1  0  0  0  0
 20 21  1  0  0  0  0
 21 22  1  0  0  0  0
 22 23  2  0  0  0  0
 23 24  1  0  0  0  0
 24 25  2  0  0  0  0
 25 26  1  0  0  0  0
 26 27  1  0  0  0  0
 25 28  1  0  0  0  0
 28 29  2  0  0  0  0
 21 30  1  0  0  0  0
 30 31  2  0  0  0  0
 31 32  1  0  0  0  0
 32 33  2  0  0  0  0
 33 34  1  0  0  0  0
 34 35  1  0  0  0  0
 33 36  1  0  0  0  0
 36 37  2  0  0  0  0
 21 38  1  0  0  0  0
 38 39  2  0  0  0  0
 39 40  1  0  0  0  0
 40 41  1  0  0  0  0
 39 42  1  0  0  0  0
 42 43  1  0  0  0  0
 43 44  2  0  0  0  0
 44 45  1  0  0  0  0
 45 46  1  0  0  0  0
 46 47  2  0  0  0  0
 47 48  1  0  0  0  0
 48 49  2  0  0  0  0
 49 50  1  0  0  0  0
 50 51  2  0  0  0  0
 51 52  1  0  0  0  0
 52 53  1  0  0  0  0
 51 54  1  0  0  0  0
 47 55  1  0  0  0  0
 55 56  2  0  0  0  0
 56 57  1  0  0  0  0
 57 58  1  0  0  0  0
 58 59  2  0  0  0  0
 59 60  1  0  0  0  0
 60 61  2  0  0  0  0
 61 62  1  0  0  0  0
 62 63  1  0  0  0  0
 61 64  1  0  0  0  0
 57 65  2  0  0  0  0
 56 66  1  0  0  0  0
 66 67  1  0  0  0  0
 67 68  1  0  0  0  0
 68 69  2  0  0  0  0
 69 70  1  0  0  0  0
 70 71  1  0  0  0  0
 69 72  1  0  0  0  0
 72 73  1  0  0  0  0
 73 74  1  0  0  0  0
 74 75  2  0  0  0  0
 75 76  1  0  0  0  0
 76 77  1  0  0  0  0
 77 78  1  0  0  0  0
 78 79  2  0  0  0  0
 79 80  1  0  0  0  0
 80 81  2  0  0  0  0
 81 82  1  0  0  0  0
 82 83  1  0  0  0  0
 81 84  1  0  0  0  0
 84 85  2  0  0  0  0
 77 86  1  0  0  0  0
 86 87  2  0  0  0  0
 87 88  1  0  0  0  0
 88 89  2  0  0  0  0
 89 90  1  0  0  0  0
 90 91  1  0  0  0  0
 89 92  1  0  0  0  0
 92 93  2  0  0  0  0
 74 94  1  0  0  0  0
 94 95  2  0  0  0  0
 95 96  1  0  0  0  0
 96 97  2  0  0  0  0
 96 98  1  0  0  0  0
 98 99  1  0  0  0  0
 99100  1  0  0  0  0
100101  1  0  0  0  0
100102  2  0  0  0  0
102103  1  0  0  0  0
103104  1  0  0  0  0
104105  2  0  0  0  0
105106  1  0  0  0  0
106107  3  0  0  0  0
105108  1  0  0  0  0
108109  3  0  0  0  0
 12  2  1  0  0  0  0
 41 18  1  0  0  0  0
 65 43  1  0  0  0  0
 71 67  2  0  0  0  0
 76 72  2  0  0  0  0
 85 78  1  0  0  0  0
 93 86  1  0  0  0  0
104 95  1  0  0  0  0
 11  5  1  0  0  0  0
 40 20  2  0  0  0  0
 65 46  1  0  0  0  0
 77 68  1  0  0  0  0
103 98  2  0  0  0  0
 29 22  1  0  0  0  0
 37 30  1  0  0  0  0
 44 38  1  0  0  0  0
 54 48  1  0  0  0  0
 71 55  1  0  0  0  0
 64 58  1  0  0  0  0
  1110  1  0  0  0  0
  8111  1  0  0  0  0
  9112  1  0  0  0  0
 10113  1  0  0  0  0
 19114  1  0  0  0  0
 23115  1  0  0  0  0
 24116  1  0  0  0  0
 26117  1  0  0  0  0
 26118  1  0  0  0  0
 27119  1  0  0  0  0
 27120  1  0  0  0  0
 27121  1  0  0  0  0
 28122  1  0  0  0  0
 29123  1  0  0  0  0
 31124  1  0  0  0  0
 32125  1  0  0  0  0
 34126  1  0  0  0  0
 34127  1  0  0  0  0
 35128  1  0  0  0  0
 35129  1  0  0  0  0
 35130  1  0  0  0  0
 36131  1  0  0  0  0
 37132  1  0  0  0  0
 49133  1  0  0  0  0
 50134  1  0  0  0  0
 52135  1  0  0  0  0
 52136  1  0  0  0  0
 53137  1  0  0  0  0
 53138  1  0  0  0  0
 53139  1  0  0  0  0
 59140  1  0  0  0  0
 60141  1  0  0  0  0
 62142  1  0  0  0  0
 62143  1  0  0  0  0
 63144  1  0  0  0  0
 63145  1  0  0  0  0
 63146  1  0  0  0  0
 75147  1  0  0  0  0
 79148  1  0  0  0  0
 80149  1  0  0  0  0
 82150  1  0  0  0  0
 82151  1  0  0  0  0
 83152  1  0  0  0  0
 83153  1  0  0  0  0
 83154  1  0  0  0  0
 84155  1  0  0  0  0
 85156  1  0  0  0  0
 87157  1  0  0  0  0
 88158  1  0  0  0  0
 90159  1  0  0  0  0
 90160  1  0  0  0  0
 91161  1  0  0  0  0
 91162  1  0  0  0  0
 91163  1  0  0  0  0
 92164  1  0  0  0  0
 93165  1  0  0  0  0
 94166  1  0  0  0  0
102167  1  0  0  0  0
M  END
