170

C          1.05440       -1.04600        9.22370
C          2.08050       -1.49060       10.02290
C          3.05400       -2.57180        9.75440
O          3.04990       -3.39700        8.86670
C          4.06830       -2.46140       10.82690
C          5.23450       -3.17720       11.02730
F          5.60040       -4.15150       10.18750
C          6.05110       -2.88450       12.11240
C          5.68800       -1.87490       12.98640
C          4.51910       -1.14530       12.80770
C          3.70740       -1.44260       11.72510
C          2.44050       -0.86070       11.27810
C          1.72840        0.08090       11.97700
C          0.46980        0.61230       11.62280
N         -0.55720        1.09140       11.43300
C          2.14410        0.64530       13.20150
N          2.41380        1.15280       14.19560
C          0.59250       -1.47060        7.97080
C          0.94010       -2.53410        7.13730
C          0.24590       -2.51820        5.94690
C          0.24280       -3.34220        4.68200
C         -0.41510       -4.70450        4.85210
C         -1.01150       -5.09770        6.04040
C         -1.61800       -6.33720        6.13980
C         -1.65060       -7.20770        5.05960
C         -2.35030       -8.53200        5.16310
C         -3.83500       -8.37920        4.82590
C         -1.06000       -6.80290        3.86870
C         -0.44900       -5.56900        3.76440
C          1.63770       -3.48210        4.09950
C          2.13110       -2.55090        3.19600
C          3.37380       -2.72640        2.61830
C          4.16200       -3.82230        2.94210
C          5.46530       -4.05520        2.23480
C          5.21670       -4.76780        0.90330
C          3.68720       -4.71980        3.88930
C          2.44160       -4.55330        4.46480
C         -0.66860       -2.50250        3.82320
C         -1.21600       -1.44210        4.54270
C         -0.65220       -1.44140        5.83790
S         -0.66070       -0.45720        7.22970
S         -2.22430       -0.40640        3.58770
C         -1.84530       -1.35380        2.17970
C         -1.02080       -2.44080        2.48010
S         -0.45830       -3.26910        1.06500
C         -1.21020       -2.05120        0.05270
C         -0.99070       -1.93700       -1.31300
C         -0.16150       -2.87290       -2.04630
C         -0.43200       -3.46890       -3.24550
C          0.58580       -4.34450       -3.67170
C          1.63840       -4.40990       -2.81130
C          2.86700       -5.24650       -2.90220
C          2.81470       -6.40760       -1.90660
S          1.38270       -3.39170       -1.43400
C         -1.58580       -0.83530       -1.95360
C         -2.47400        0.01070       -1.24280
C         -2.70660       -0.11510        0.12010
C         -3.60400        0.78660        0.81750
C         -3.66080        2.14890        0.74810
C         -4.67800        2.69980        1.55260
C         -5.41140        1.76580        2.21710
C         -6.52830        1.96990        3.18030
C         -6.08570        1.64780        4.60930
S         -4.84700        0.16660        1.86530
C         -2.00270       -1.13240        0.78830
S         -3.14750        1.28830       -2.24100
C         -2.11450        0.81310       -3.55120
C         -1.75830        1.39530       -4.76390
C         -0.69610        0.71440       -5.35680
S         -0.19560       -0.69680       -4.48780
C         -1.36790       -0.33150       -3.25870
C         -0.23860        1.46980       -6.45640
S          1.03590        1.40230       -7.59250
C          0.53640        2.95700       -8.25490
C         -0.60420        3.44010       -7.62150
C         -1.01310        2.63050       -6.57800
C         -2.09290        2.65670       -5.52020
C         -1.99920        3.80210       -4.52780
C         -0.80750        4.47470       -4.30250
C         -0.73560        5.44250       -3.31560
C         -1.83900        5.75300       -2.53280
C         -1.74730        6.75670       -1.41940
C         -1.57060        6.04760       -0.07510
C         -3.02800        5.07250       -2.76590
C         -3.10920        4.10570       -3.74830
C         -3.43700        2.62600       -6.22330
C         -4.16850        1.45640       -6.35950
C         -5.36910        1.46020       -7.04720
C         -5.85990        2.62390       -7.62200
C         -7.18190        2.63540       -8.33320
C         -8.30580        3.01020       -7.36500
C         -5.12010        3.79240       -7.48320
C         -3.92300        3.79550       -6.79530
C          1.23080        3.57280       -9.31480
C          2.53600        3.40100       -9.67890
C          2.98490        3.73430      -11.05340
O          2.36790        4.34720      -11.89490
C          4.31990        3.10820      -11.18340
C          5.13640        3.01520      -12.29430
C          6.34610        2.34840      -12.17410
C          6.70580        1.79040      -10.95460
Br         8.35800        0.86150      -10.82370
C          5.90300        1.88250       -9.82390
C          4.69990        2.55410       -9.94720
C          3.66600        2.86200       -8.95870
C          3.86890        2.91820       -7.60360
C          2.96180        3.52060       -6.70850
N          2.27840        4.05390       -5.95540
C          5.04450        2.47710       -6.96460
N          5.97500        2.11800       -6.39630
H          0.51980       -0.17880        9.59370
H          6.95890       -3.44910       12.25520
H          6.32710       -1.64800       13.82580
H          4.26720       -0.36350       13.50400
H          1.68310       -3.26040        7.41100
H         -0.99890       -4.44380        6.89930
H         -2.06970       -6.63180        7.07620
H         -2.25080       -8.92450        6.17700
H         -1.89590       -9.24610        4.47350
H         -4.34300       -9.33780        4.90100
H         -3.95570       -7.99950        3.81380
H         -4.30860       -7.68020        5.51160
H         -1.07450       -7.46330        3.01360
H          0.01600       -5.27540        2.83430
H          1.54310       -1.68420        2.93130
H          3.73210       -2.00350        1.89960
H          5.96010       -3.10070        2.04390
H          6.12410       -4.66510        2.85530
H          4.74750       -5.73420        1.07530
H          4.55650       -4.17310        0.27550
H          6.15350       -4.92580        0.37400
H          4.29530       -5.56540        4.17640
H          2.08550       -5.26810        5.19170
H         -1.34960       -3.31330       -3.78460
H          0.53780       -4.90490       -4.58840
H          2.95590       -5.63440       -3.91890
H          3.74660       -4.63400       -2.69050
H          3.72200       -7.00220       -1.97370
H          2.72050       -6.02820       -0.89160
H          1.96110       -7.04790       -2.11710
H         -2.97330        2.73780        0.16730
H         -4.85980        3.75670        1.63500
H         -7.36980        1.32590        2.91230
H         -6.85920        3.00870        3.12060
H         -6.90630        1.80850        5.30350
H         -5.76680        0.61030        4.67970
H         -5.25280        2.28390        4.90000
H         -1.05300        4.37810       -7.89280
H          0.06980        4.24700       -4.88880
H          0.19970        5.95770       -3.15170
H         -2.65790        7.35950       -1.38940
H         -0.90090        7.42430       -1.58950
H         -2.41760        5.39430        0.12350
H         -0.66630        5.44290       -0.08320
H         -1.49610        6.77270        0.73190
H         -3.90010        5.29720       -2.16860
H         -4.04030        3.58270       -3.91240
H         -3.80400        0.53630       -5.92630
H         -5.92980        0.54110       -7.14140
H         -7.38420        1.64940       -8.75580
H         -7.15550        3.35900       -9.15050
H         -8.12850        3.99680       -6.94300
H         -9.26370        3.01920       -7.87960
H         -8.35620        2.29340       -6.54850
H         -5.48530        4.70940       -7.92290
H         -3.36270        4.71280       -6.68840
H          0.64360        4.21750       -9.96160
H          4.83280        3.45530      -13.23130
H          7.00900        2.25700      -13.02050
H          6.21540        1.43230       -8.89520
