
  xtb     02102218443D
 energy: -203.549610328339 gnorm: 0.000214954554 xtb: 6.4.1 (unknown)
115127  0     0  0            999 V2000
   -4.8754   -2.1545   -8.3460 C   0  0  0  0  0  0  0  0  0  0  0  0
   -4.7197   -1.3848   -9.4771 C   0  0  0  0  0  0  0  0  0  0  0  0
   -4.3008    0.0192   -9.4960 C   0  0  0  0  0  0  0  0  0  0  0  0
   -4.0082    0.7163   -8.5424 O   0  0  0  0  0  0  0  0  0  0  0  0
   -4.3157    0.4251  -10.9163 C   0  0  0  0  0  0  0  0  0  0  0  0
   -4.0183    1.6383  -11.5082 C   0  0  0  0  0  0  0  0  0  0  0  0
   -3.6420    2.6906  -10.7742 F   0  0  0  0  0  0  0  0  0  0  0  0
   -4.1075    1.7778  -12.8881 C   0  0  0  0  0  0  0  0  0  0  0  0
   -4.4963    0.6971  -13.6592 C   0  0  0  0  0  0  0  0  0  0  0  0
   -4.7998   -0.5328  -13.0863 C   0  0  0  0  0  0  0  0  0  0  0  0
   -4.7077   -0.6679  -11.7115 C   0  0  0  0  0  0  0  0  0  0  0  0
   -4.9522   -1.8175  -10.8353 C   0  0  0  0  0  0  0  0  0  0  0  0
   -5.2998   -3.0736  -11.2661 C   0  0  0  0  0  0  0  0  0  0  0  0
   -5.5016   -4.2001  -10.4424 C   0  0  0  0  0  0  0  0  0  0  0  0
   -5.6763   -5.1675   -9.8471 N   0  0  0  0  0  0  0  0  0  0  0  0
   -5.4899   -3.4284  -12.6178 C   0  0  0  0  0  0  0  0  0  0  0  0
   -5.6602   -3.7912  -13.6939 N   0  0  0  0  0  0  0  0  0  0  0  0
   -4.6094   -1.8663   -7.0062 C   0  0  0  0  0  0  0  0  0  0  0  0
   -3.9610   -0.3621   -6.3622 S   0  0  0  0  0  0  0  0  0  0  0  0
   -3.9137   -1.0616   -4.8049 C   0  0  0  0  0  0  0  0  0  0  0  0
   -3.5109   -0.6846   -3.5088 C   0  0  0  0  0  0  0  0  0  0  0  0
   -3.7074   -1.7553   -2.6359 C   0  0  0  0  0  0  0  0  0  0  0  0
   -4.2721   -2.9529   -3.3597 C   0  0  0  0  0  0  0  0  0  0  0  0
   -4.3783   -2.3923   -4.7594 C   0  0  0  0  0  0  0  0  0  0  0  0
   -4.7848   -2.8301   -5.9948 C   0  0  0  0  0  0  0  0  0  0  0  0
   -5.6353   -3.3779   -2.7925 C   0  0  0  0  0  0  0  0  0  0  0  0
   -6.6279   -2.2232   -2.7240 C   0  0  0  0  0  0  0  0  0  0  0  0
   -3.2303   -4.0896   -3.2600 C   0  0  0  0  0  0  0  0  0  0  0  0
   -3.5714   -5.3512   -4.0400 C   0  0  0  0  0  0  0  0  0  0  0  0
   -3.2415   -1.4634   -1.3619 C   0  0  0  0  0  0  0  0  0  0  0  0
   -3.0857   -2.3513    0.1275 S   0  0  0  0  0  0  0  0  0  0  0  0
   -2.2526   -1.0027    0.8249 C   0  0  0  0  0  0  0  0  0  0  0  0
   -1.5338   -0.7312    2.0122 C   0  0  0  0  0  0  0  0  0  0  0  0
   -0.9539    0.5340    1.9086 C   0  0  0  0  0  0  0  0  0  0  0  0
   -1.3625    1.2109    0.6256 C   0  0  0  0  0  0  0  0  0  0  0  0
   -2.1280    0.0903   -0.0304 C   0  0  0  0  0  0  0  0  0  0  0  0
   -2.6950   -0.1633   -1.2716 C   0  0  0  0  0  0  0  0  0  0  0  0
   -2.7834    0.7047   -2.7731 S   0  0  0  0  0  0  0  0  0  0  0  0
   -2.3513    2.3723    0.8786 C   0  0  0  0  0  0  0  0  0  0  0  0
   -1.7870    3.5196    1.7041 C   0  0  0  0  0  0  0  0  0  0  0  0
   -0.1551    1.6631   -0.2071 C   0  0  0  0  0  0  0  0  0  0  0  0
    0.7686    0.5102   -0.5818 C   0  0  0  0  0  0  0  0  0  0  0  0
   -0.0713    0.7723    2.9550 C   0  0  0  0  0  0  0  0  0  0  0  0
    1.0725    2.0270    3.3287 S   0  0  0  0  0  0  0  0  0  0  0  0
    1.6374    1.0879    4.6701 C   0  0  0  0  0  0  0  0  0  0  0  0
    2.6772    1.1732    5.6156 C   0  0  0  0  0  0  0  0  0  0  0  0
    2.6558    0.0117    6.4170 C   0  0  0  0  0  0  0  0  0  0  0  0
    1.5180   -0.9004    6.0118 C   0  0  0  0  0  0  0  0  0  0  0  0
    1.9575   -2.2974    5.5156 C   0  0  0  0  0  0  0  0  0  0  0  0
    3.1554   -2.9133    6.2274 C   0  0  0  0  0  0  0  0  0  0  0  0
    0.4167   -0.9592    7.0935 C   0  0  0  0  0  0  0  0  0  0  0  0
    0.7951   -1.6851    8.3759 C   0  0  0  0  0  0  0  0  0  0  0  0
    0.9592   -0.1174    4.8459 C   0  0  0  0  0  0  0  0  0  0  0  0
   -0.0066   -0.3050    3.8678 C   0  0  0  0  0  0  0  0  0  0  0  0
   -1.0662   -1.6129    3.4266 S   0  0  0  0  0  0  0  0  0  0  0  0
    3.6759    0.0189    7.3362 C   0  0  0  0  0  0  0  0  0  0  0  0
    4.5067    1.1510    7.2345 C   0  0  0  0  0  0  0  0  0  0  0  0
    3.9543    2.2481    5.9751 S   0  0  0  0  0  0  0  0  0  0  0  0
    5.6452    1.2963    8.0284 C   0  0  0  0  0  0  0  0  0  0  0  0
    6.6273    2.2622    8.0189 C   0  0  0  0  0  0  0  0  0  0  0  0
    6.6694    3.4253    7.1326 C   0  0  0  0  0  0  0  0  0  0  0  0
    5.8378    3.7714    6.3118 O   0  0  0  0  0  0  0  0  0  0  0  0
    7.9405    4.1169    7.4287 C   0  0  0  0  0  0  0  0  0  0  0  0
    8.4610    5.2519    6.8439 C   0  0  0  0  0  0  0  0  0  0  0  0
    9.6955    5.7120    7.2865 C   0  0  0  0  0  0  0  0  0  0  0  0
   10.3824    7.1197    6.5818 Cl  0  0  0  0  0  0  0  0  0  0  0  0
   10.3780    5.0317    8.2995 C   0  0  0  0  0  0  0  0  0  0  0  0
   11.9050    5.6080    8.8354 Cl  0  0  0  0  0  0  0  0  0  0  0  0
    9.8463    3.8881    8.8875 C   0  0  0  0  0  0  0  0  0  0  0  0
    8.6172    3.4261    8.4485 C   0  0  0  0  0  0  0  0  0  0  0  0
    7.8125    2.2707    8.8491 C   0  0  0  0  0  0  0  0  0  0  0  0
    8.1530    1.3795    9.8357 C   0  0  0  0  0  0  0  0  0  0  0  0
    9.3363    1.4596   10.5994 C   0  0  0  0  0  0  0  0  0  0  0  0
   10.2776    1.4622   11.2566 N   0  0  0  0  0  0  0  0  0  0  0  0
    7.3901    0.2651   10.2405 C   0  0  0  0  0  0  0  0  0  0  0  0
    6.8324   -0.6609   10.6307 N   0  0  0  0  0  0  0  0  0  0  0  0
   -5.2455   -3.1614   -8.4965 H   0  0  0  0  0  0  0  0  0  0  0  0
   -3.8715    2.7299  -13.3366 H   0  0  0  0  0  0  0  0  0  0  0  0
   -4.5656    0.8101  -14.7301 H   0  0  0  0  0  0  0  0  0  0  0  0
   -5.1003   -1.3541  -13.7147 H   0  0  0  0  0  0  0  0  0  0  0  0
   -5.1945   -3.7997   -6.2160 H   0  0  0  0  0  0  0  0  0  0  0  0
   -5.4807   -3.7869   -1.7916 H   0  0  0  0  0  0  0  0  0  0  0  0
   -6.0471   -4.1639   -3.4257 H   0  0  0  0  0  0  0  0  0  0  0  0
   -6.2683   -1.4401   -2.0603 H   0  0  0  0  0  0  0  0  0  0  0  0
   -6.7851   -1.7919   -3.7101 H   0  0  0  0  0  0  0  0  0  0  0  0
   -7.5843   -2.5775   -2.3478 H   0  0  0  0  0  0  0  0  0  0  0  0
   -2.2730   -3.7008   -3.6169 H   0  0  0  0  0  0  0  0  0  0  0  0
   -3.1149   -4.3378   -2.2020 H   0  0  0  0  0  0  0  0  0  0  0  0
   -4.5031   -5.7909   -3.6960 H   0  0  0  0  0  0  0  0  0  0  0  0
   -3.6500   -5.1415   -5.1026 H   0  0  0  0  0  0  0  0  0  0  0  0
   -2.7807   -6.0844   -3.8984 H   0  0  0  0  0  0  0  0  0  0  0  0
   -2.6780    2.7458   -0.0943 H   0  0  0  0  0  0  0  0  0  0  0  0
   -3.2265    1.9635    1.3905 H   0  0  0  0  0  0  0  0  0  0  0  0
   -0.9423    3.9885    1.2082 H   0  0  0  0  0  0  0  0  0  0  0  0
   -2.5575    4.2739    1.8451 H   0  0  0  0  0  0  0  0  0  0  0  0
   -1.4679    3.1744    2.6836 H   0  0  0  0  0  0  0  0  0  0  0  0
   -0.5243    2.1443   -1.1150 H   0  0  0  0  0  0  0  0  0  0  0  0
    0.4088    2.3972    0.3694 H   0  0  0  0  0  0  0  0  0  0  0  0
    1.1493    0.0145    0.3085 H   0  0  0  0  0  0  0  0  0  0  0  0
    0.2466   -0.2266   -1.1881 H   0  0  0  0  0  0  0  0  0  0  0  0
    1.6143    0.8848   -1.1525 H   0  0  0  0  0  0  0  0  0  0  0  0
    2.2084   -2.2149    4.4548 H   0  0  0  0  0  0  0  0  0  0  0  0
    1.0975   -2.9654    5.5936 H   0  0  0  0  0  0  0  0  0  0  0  0
    4.0516   -2.3234    6.0534 H   0  0  0  0  0  0  0  0  0  0  0  0
    3.3272   -3.9127    5.8333 H   0  0  0  0  0  0  0  0  0  0  0  0
    2.9944   -2.9938    7.2972 H   0  0  0  0  0  0  0  0  0  0  0  0
   -0.4568   -1.4439    6.6500 H   0  0  0  0  0  0  0  0  0  0  0  0
    0.1372    0.0695    7.3369 H   0  0  0  0  0  0  0  0  0  0  0  0
    1.6784   -1.2427    8.8273 H   0  0  0  0  0  0  0  0  0  0  0  0
    0.9769   -2.7397    8.1915 H   0  0  0  0  0  0  0  0  0  0  0  0
   -0.0240   -1.6055    9.0874 H   0  0  0  0  0  0  0  0  0  0  0  0
    3.8794   -0.7480    8.0615 H   0  0  0  0  0  0  0  0  0  0  0  0
    5.7722    0.4879    8.7381 H   0  0  0  0  0  0  0  0  0  0  0  0
    7.9235    5.7653    6.0625 H   0  0  0  0  0  0  0  0  0  0  0  0
   10.4040    3.3919    9.6644 H   0  0  0  0  0  0  0  0  0  0  0  0
  1  2  2  0  0  0  0
  2  3  1  0  0  0  0
  3  4  2  0  0  0  0
  3  5  1  0  0  0  0
  5  6  2  0  0  0  0
  6  7  1  0  0  0  0
  6  8  1  0  0  0  0
  8  9  2  0  0  0  0
  9 10  1  0  0  0  0
 10 11  2  0  0  0  0
 11 12  1  0  0  0  0
 12 13  2  0  0  0  0
 13 14  1  0  0  0  0
 14 15  3  0  0  0  0
 13 16  1  0  0  0  0
 16 17  3  0  0  0  0
  1 18  1  0  0  0  0
 18 19  1  0  0  0  0
 19 20  1  0  0  0  0
 20 21  1  0  0  0  0
 21 22  2  0  0  0  0
 22 23  1  0  0  0  0
 23 24  1  0  0  0  0
 24 25  1  0  0  0  0
 23 26  1  0  0  0  0
 26 27  1  0  0  0  0
 23 28  1  0  0  0  0
 28 29  1  0  0  0  0
 22 30  1  0  0  0  0
 30 31  1  0  0  0  0
 31 32  1  0  0  0  0
 32 33  1  0  0  0  0
 33 34  2  0  0  0  0
 34 35  1  0  0  0  0
 35 36  1  0  0  0  0
 36 37  1  0  0  0  0
 37 38  1  0  0  0  0
 35 39  1  0  0  0  0
 39 40  1  0  0  0  0
 35 41  1  0  0  0  0
 41 42  1  0  0  0  0
 34 43  1  0  0  0  0
 43 44  1  0  0  0  0
 44 45  1  0  0  0  0
 45 46  1  0  0  0  0
 46 47  2  0  0  0  0
 47 48  1  0  0  0  0
 48 49  1  0  0  0  0
 49 50  1  0  0  0  0
 48 51  1  0  0  0  0
 51 52  1  0  0  0  0
 48 53  1  0  0  0  0
 53 54  1  0  0  0  0
 54 55  1  0  0  0  0
 47 56  1  0  0  0  0
 56 57  2  0  0  0  0
 57 58  1  0  0  0  0
 57 59  1  0  0  0  0
 59 60  2  0  0  0  0
 60 61  1  0  0  0  0
 61 62  2  0  0  0  0
 61 63  1  0  0  0  0
 63 64  2  0  0  0  0
 64 65  1  0  0  0  0
 65 66  1  0  0  0  0
 65 67  2  0  0  0  0
 67 68  1  0  0  0  0
 67 69  1  0  0  0  0
 69 70  2  0  0  0  0
 70 71  1  0  0  0  0
 71 72  2  0  0  0  0
 72 73  1  0  0  0  0
 73 74  3  0  0  0  0
 72 75  1  0  0  0  0
 75 76  3  0  0  0  0
 12  2  1  0  0  0  0
 25 18  2  0  0  0  0
 37 30  2  0  0  0  0
 54 43  2  0  0  0  0
 71 60  1  0  0  0  0
 11  5  1  0  0  0  0
 24 20  2  0  0  0  0
 36 32  2  0  0  0  0
 53 45  2  0  0  0  0
 70 63  1  0  0  0  0
 38 21  1  0  0  0  0
 58 46  1  0  0  0  0
 55 33  1  0  0  0  0
  1 77  1  0  0  0  0
  8 78  1  0  0  0  0
  9 79  1  0  0  0  0
 10 80  1  0  0  0  0
 25 81  1  0  0  0  0
 26 82  1  0  0  0  0
 26 83  1  0  0  0  0
 27 84  1  0  0  0  0
 27 85  1  0  0  0  0
 27 86  1  0  0  0  0
 28 87  1  0  0  0  0
 28 88  1  0  0  0  0
 29 89  1  0  0  0  0
 29 90  1  0  0  0  0
 29 91  1  0  0  0  0
 39 92  1  0  0  0  0
 39 93  1  0  0  0  0
 40 94  1  0  0  0  0
 40 95  1  0  0  0  0
 40 96  1  0  0  0  0
 41 97  1  0  0  0  0
 41 98  1  0  0  0  0
 42 99  1  0  0  0  0
 42100  1  0  0  0  0
 42101  1  0  0  0  0
 49102  1  0  0  0  0
 49103  1  0  0  0  0
 50104  1  0  0  0  0
 50105  1  0  0  0  0
 50106  1  0  0  0  0
 51107  1  0  0  0  0
 51108  1  0  0  0  0
 52109  1  0  0  0  0
 52110  1  0  0  0  0
 52111  1  0  0  0  0
 56112  1  0  0  0  0
 59113  1  0  0  0  0
 64114  1  0  0  0  0
 69115  1  0  0  0  0
M  END
