112

C         -5.81570        4.15680       -6.14510
C         -6.25290        2.92640       -6.54270
C         -6.74670        2.72400       -7.92940
O         -7.02000        3.58450       -8.73110
C         -6.78490        1.25220       -8.10320
C         -7.06090        0.48030       -9.21700
F         -7.37680        1.04440      -10.38620
C         -7.01160       -0.90640       -9.13230
C         -6.68130       -1.50960       -7.93130
C         -6.40760       -0.75790       -6.79510
C         -6.46430        0.62190       -6.88470
C         -6.27450        1.65450       -5.86550
C         -6.38690        1.46080       -4.51120
C         -6.46220        0.19810       -3.89300
N         -6.49830       -0.80480       -3.33500
C         -6.53940        2.52230       -3.59750
N         -6.72910        3.36100       -2.83600
C         -4.95910        4.47840       -5.07270
C         -4.82470        5.72910       -4.46270
O         -5.53900        6.83170       -4.76040
C         -6.95830        6.78420       -4.60290
C         -7.34940        6.68870       -3.13520
C         -3.81510        5.72980       -3.48820
S         -3.24930        6.95370       -2.38090
C         -2.12410        5.80900       -1.74380
C         -1.12220        5.73910       -0.76480
C         -0.58900        6.73620        0.08120
C          0.50670        6.40000        0.94160
N          0.93720        7.43840        1.64100
S          0.03750        8.72610        1.25320
N         -0.93590        8.01020        0.17690
C          0.94480        5.05850        0.99290
C          1.87210        4.42900        1.83390
S          2.94900        4.83340        3.12520
C          3.32200        3.13120        3.28930
C          4.14690        2.44460        4.18700
O          4.84020        3.17150        5.08130
C          4.98470        2.79700        6.45050
C          3.69790        2.28430        7.07630
C          4.16440        1.05580        3.91700
S          3.09750        0.65240        2.56470
C          2.65210        2.30660        2.37940
C          1.81580        3.05900        1.54760
N          0.89640        2.82540        0.56090
C          0.35850        4.03970        0.18320
C         -0.61090        4.40960       -0.78590
N         -1.26700        3.70110       -1.78370
C         -2.18050        4.55070       -2.35620
C         -3.15010        4.50440       -3.35900
S         -3.79970        3.31750       -4.43060
C         -0.79200        2.58930       -2.58130
C          0.36700        3.02040       -3.47800
C          0.43430        1.47540        0.32740
C          1.38340        0.68810       -0.57500
C          4.94560        0.10930        4.59140
C          5.19610       -1.21190        4.30690
C          4.76110       -1.95450        3.11920
O          3.91320       -1.63120        2.30450
C          5.56070       -3.19170        3.08990
C          5.58780       -4.15280        2.08160
C          6.47570       -5.17680        2.31020
C          7.27730       -5.24190        3.45750
C          7.25470       -4.30460        4.46310
C          6.35700       -3.25480        4.25030
C          6.07670       -2.07630        5.06780
C          6.51290       -1.89190        6.35510
C          6.18360       -0.79740        7.17800
N          5.95760        0.05880        7.91090
C          7.31520       -2.80960        7.06480
N          7.96340       -3.50780        7.70560
C          7.94260       -6.52230        3.01890
C          7.46320       -7.82130        3.70030
C          7.92210       -8.91170        2.75920
C          7.16380       -8.85180        1.67200
C          6.17900       -7.72030        1.86000
C          5.96370       -7.80670        3.37650
C          7.04830       -6.45090        1.73960
H         -6.08770        4.98380       -6.79540
H         -7.23230       -1.49310      -10.01000
H         -6.63840       -2.58640       -7.87530
H         -6.14920       -1.24850       -5.87100
H         -7.30120        7.72350       -5.04160
H         -7.38600        5.94620       -5.16360
H         -8.42560        6.79920       -3.03850
H         -6.85890        7.47470       -2.56580
H         -7.05920        5.72180       -2.72950
H          5.79590        2.07420        6.58370
H          5.29000        3.73210        6.92750
H          3.87660        2.08310        8.12770
H          3.37170        1.36060        6.60300
H          2.90890        3.02680        6.97950
H         -1.63480        2.26240       -3.19610
H         -0.48930        1.75510       -1.95810
H          0.69600        2.18270       -4.08670
H          0.05660        3.82780       -4.13730
H          1.20380        3.37080       -2.87680
H          0.38930        0.97290        1.29960
H         -0.58230        1.51470       -0.06600
H          2.31690        0.49810       -0.05240
H          1.60720        1.23050       -1.48990
H          0.93840       -0.26990       -0.82930
H          5.48650        0.50680        5.43850
H          4.96140       -4.05860        1.20840
H          7.88750       -4.36190        5.33290
H          9.02380       -6.47740        2.90210
H          7.75030       -7.92090        4.74330
H          8.75980       -9.55620        2.95090
H          7.24180       -9.43630        0.77400
H          5.29600       -7.72990        1.22650
H          5.42720       -6.95850        3.79760
H          5.47050       -8.73180        3.67000
H          7.53420       -6.35820        0.76990
