
  xtb     02102218093D
 energy: -329.510291056203 gnorm: 0.000553690153 xtb: 6.4.1 (unknown)
202222  0     0  0            999 V2000
    2.3462   -9.5253    4.9649 C   0  0  0  0  0  0  0  0  0  0  0  0
    2.0594  -10.0673    6.1902 C   0  0  0  0  0  0  0  0  0  0  0  0
    1.2540   -9.4353    7.2508 C   0  0  0  0  0  0  0  0  0  0  0  0
    0.6955   -8.3594    7.2199 O   0  0  0  0  0  0  0  0  0  0  0  0
    1.2634  -10.3907    8.3788 C   0  0  0  0  0  0  0  0  0  0  0  0
    0.6774  -10.3055    9.6285 C   0  0  0  0  0  0  0  0  0  0  0  0
   -0.0384   -9.2333    9.9827 F   0  0  0  0  0  0  0  0  0  0  0  0
    0.8291  -11.3442   10.5386 C   0  0  0  0  0  0  0  0  0  0  0  0
    1.5688  -12.4589   10.1842 C   0  0  0  0  0  0  0  0  0  0  0  0
    2.1664  -12.5672    8.9344 C   0  0  0  0  0  0  0  0  0  0  0  0
    2.0123  -11.5294    8.0295 C   0  0  0  0  0  0  0  0  0  0  0  0
    2.5124  -11.3588    6.6638 C   0  0  0  0  0  0  0  0  0  0  0  0
    3.2640  -12.2823    5.9825 C   0  0  0  0  0  0  0  0  0  0  0  0
    3.7427  -12.1529    4.6617 C   0  0  0  0  0  0  0  0  0  0  0  0
    4.1719  -12.1423    3.5957 N   0  0  0  0  0  0  0  0  0  0  0  0
    3.6698  -13.5260    6.5109 C   0  0  0  0  0  0  0  0  0  0  0  0
    4.0394  -14.5518    6.8709 N   0  0  0  0  0  0  0  0  0  0  0  0
    1.9749   -8.2950    4.3932 C   0  0  0  0  0  0  0  0  0  0  0  0
    2.3801   -7.9422    3.1137 C   0  0  0  0  0  0  0  0  0  0  0  0
    1.9252   -6.6859    2.6981 C   0  0  0  0  0  0  0  0  0  0  0  0
    2.1573   -6.0088    1.4755 C   0  0  0  0  0  0  0  0  0  0  0  0
    2.8567   -6.6687    0.3944 C   0  0  0  0  0  0  0  0  0  0  0  0
    2.7155   -7.9634   -0.0253 C   0  0  0  0  0  0  0  0  0  0  0  0
    3.5581   -8.2948   -1.1027 C   0  0  0  0  0  0  0  0  0  0  0  0
    4.3557   -7.2657   -1.5024 C   0  0  0  0  0  0  0  0  0  0  0  0
    5.3447   -7.2361   -2.6154 C   0  0  0  0  0  0  0  0  0  0  0  0
    4.8120   -6.4353   -3.8057 C   0  0  0  0  0  0  0  0  0  0  0  0
    4.0592   -5.8449   -0.5582 S   0  0  0  0  0  0  0  0  0  0  0  0
    1.6694   -4.7162    1.3842 C   0  0  0  0  0  0  0  0  0  0  0  0
    1.8317   -3.7312   -0.0583 S   0  0  0  0  0  0  0  0  0  0  0  0
    0.9569   -2.4698    0.7226 C   0  0  0  0  0  0  0  0  0  0  0  0
    0.5092   -1.1798    0.3009 C   0  0  0  0  0  0  0  0  0  0  0  0
    0.6701   -0.5203   -0.9137 C   0  0  0  0  0  0  0  0  0  0  0  0
    0.0863    0.7184   -1.0365 C   0  0  0  0  0  0  0  0  0  0  0  0
    0.0796    1.6711   -2.2314 C   0  0  0  0  0  0  0  0  0  0  0  0
    1.4993    1.8941   -2.7171 C   0  0  0  0  0  0  0  0  0  0  0  0
    2.3980    2.4764   -1.8282 C   0  0  0  0  0  0  0  0  0  0  0  0
    3.7149    2.6806   -2.1859 C   0  0  0  0  0  0  0  0  0  0  0  0
    4.1791    2.2996   -3.4388 C   0  0  0  0  0  0  0  0  0  0  0  0
    5.6243    2.4743   -3.8064 C   0  0  0  0  0  0  0  0  0  0  0  0
    6.4556    1.3012   -3.2835 C   0  0  0  0  0  0  0  0  0  0  0  0
    3.2816    1.7174   -4.3207 C   0  0  0  0  0  0  0  0  0  0  0  0
    1.9569    1.5223   -3.9710 C   0  0  0  0  0  0  0  0  0  0  0  0
   -0.8759    1.0822   -3.2610 C   0  0  0  0  0  0  0  0  0  0  0  0
   -2.0626    1.7196   -3.6011 C   0  0  0  0  0  0  0  0  0  0  0  0
   -2.9305    1.1641   -4.5245 C   0  0  0  0  0  0  0  0  0  0  0  0
   -2.6468   -0.0477   -5.1365 C   0  0  0  0  0  0  0  0  0  0  0  0
   -3.6039   -0.6623   -6.1161 C   0  0  0  0  0  0  0  0  0  0  0  0
   -4.6230   -1.5424   -5.3897 C   0  0  0  0  0  0  0  0  0  0  0  0
   -1.4750   -0.6991   -4.7761 C   0  0  0  0  0  0  0  0  0  0  0  0
   -0.6083   -0.1488   -3.8512 C   0  0  0  0  0  0  0  0  0  0  0  0
   -0.5095    2.9129   -1.5976 C   0  0  0  0  0  0  0  0  0  0  0  0
   -0.9597    2.6166   -0.3334 C   0  0  0  0  0  0  0  0  0  0  0  0
   -0.6103    1.2845    0.0523 C   0  0  0  0  0  0  0  0  0  0  0  0
   -0.7813    0.6198    1.2621 C   0  0  0  0  0  0  0  0  0  0  0  0
   -0.2095   -0.6257    1.3803 C   0  0  0  0  0  0  0  0  0  0  0  0
   -0.1777   -1.5633    2.5871 C   0  0  0  0  0  0  0  0  0  0  0  0
    0.6258   -0.8479    3.6591 C   0  0  0  0  0  0  0  0  0  0  0  0
    1.9406   -1.2046    3.9304 C   0  0  0  0  0  0  0  0  0  0  0  0
    2.6840   -0.5155    4.8721 C   0  0  0  0  0  0  0  0  0  0  0  0
    2.1415    0.5542    5.5691 C   0  0  0  0  0  0  0  0  0  0  0  0
    2.9608    1.3246    6.5635 C   0  0  0  0  0  0  0  0  0  0  0  0
    3.6998    2.4716    5.8713 C   0  0  0  0  0  0  0  0  0  0  0  0
    0.8356    0.9264    5.2795 C   0  0  0  0  0  0  0  0  0  0  0  0
    0.0920    0.2435    4.3362 C   0  0  0  0  0  0  0  0  0  0  0  0
   -1.5865   -1.9727    2.9788 C   0  0  0  0  0  0  0  0  0  0  0  0
   -2.1036   -1.8441    4.2574 C   0  0  0  0  0  0  0  0  0  0  0  0
   -3.3901   -2.2689    4.5402 C   0  0  0  0  0  0  0  0  0  0  0  0
   -4.1889   -2.8422    3.5634 C   0  0  0  0  0  0  0  0  0  0  0  0
   -5.5510   -3.3796    3.8932 C   0  0  0  0  0  0  0  0  0  0  0  0
   -5.4769   -4.8879    4.1404 C   0  0  0  0  0  0  0  0  0  0  0  0
   -3.6699   -2.9639    2.2802 C   0  0  0  0  0  0  0  0  0  0  0  0
   -2.3917   -2.5323    1.9909 C   0  0  0  0  0  0  0  0  0  0  0  0
    0.5610   -2.7533    2.0083 C   0  0  0  0  0  0  0  0  0  0  0  0
    0.9351   -4.0572    2.4236 C   0  0  0  0  0  0  0  0  0  0  0  0
    0.6694   -4.7580    3.6103 C   0  0  0  0  0  0  0  0  0  0  0  0
    1.1697   -6.0499    3.7148 C   0  0  0  0  0  0  0  0  0  0  0  0
    0.9972   -7.0430    5.1315 S   0  0  0  0  0  0  0  0  0  0  0  0
   -0.0934   -4.2663    4.7553 C   0  0  0  0  0  0  0  0  0  0  0  0
    0.2862   -3.4199    5.7493 C   0  0  0  0  0  0  0  0  0  0  0  0
   -0.6326   -3.3797    6.8214 C   0  0  0  0  0  0  0  0  0  0  0  0
   -1.7009   -4.2020    6.6523 C   0  0  0  0  0  0  0  0  0  0  0  0
   -2.8224   -4.4755    7.5938 C   0  0  0  0  0  0  0  0  0  0  0  0
   -2.7507   -5.9087    8.1239 C   0  0  0  0  0  0  0  0  0  0  0  0
   -1.6014   -5.0455    5.1433 S   0  0  0  0  0  0  0  0  0  0  0  0
   -1.7167    3.9321    0.4838 S   0  0  0  0  0  0  0  0  0  0  0  0
   -1.3949    4.9628   -0.9007 C   0  0  0  0  0  0  0  0  0  0  0  0
   -1.7016    6.3142   -0.9310 C   0  0  0  0  0  0  0  0  0  0  0  0
   -2.3844    6.9589    0.1698 C   0  0  0  0  0  0  0  0  0  0  0  0
   -3.4137    6.4712    0.9287 C   0  0  0  0  0  0  0  0  0  0  0  0
   -3.8318    7.3579    1.9381 C   0  0  0  0  0  0  0  0  0  0  0  0
   -3.1179    8.5174    1.9736 C   0  0  0  0  0  0  0  0  0  0  0  0
   -3.3004    9.6949    2.8666 C   0  0  0  0  0  0  0  0  0  0  0  0
   -3.9654   10.8545    2.1209 C   0  0  0  0  0  0  0  0  0  0  0  0
   -1.9127    8.5399    0.7323 S   0  0  0  0  0  0  0  0  0  0  0  0
   -1.2914    7.0260   -2.0855 C   0  0  0  0  0  0  0  0  0  0  0  0
   -1.4884    8.3721   -2.4127 C   0  0  0  0  0  0  0  0  0  0  0  0
   -0.9413    8.7451   -3.6317 C   0  0  0  0  0  0  0  0  0  0  0  0
   -0.1671    7.3962   -4.4355 S   0  0  0  0  0  0  0  0  0  0  0  0
   -0.5932    6.3467   -3.1170 C   0  0  0  0  0  0  0  0  0  0  0  0
   -0.3066    4.9881   -3.0873 C   0  0  0  0  0  0  0  0  0  0  0  0
    0.4265    4.4366   -4.2240 C   0  0  0  0  0  0  0  0  0  0  0  0
   -0.0212    3.6819   -5.2629 C   0  0  0  0  0  0  0  0  0  0  0  0
    0.9409    3.5226   -6.2839 C   0  0  0  0  0  0  0  0  0  0  0  0
    2.1133    4.1599   -6.0283 C   0  0  0  0  0  0  0  0  0  0  0  0
    3.3206    4.2784   -6.8918 C   0  0  0  0  0  0  0  0  0  0  0  0
    3.3875    5.6635   -7.5391 C   0  0  0  0  0  0  0  0  0  0  0  0
    2.0574    4.9769   -4.5044 S   0  0  0  0  0  0  0  0  0  0  0  0
   -0.7172    4.2696   -1.9538 C   0  0  0  0  0  0  0  0  0  0  0  0
   -1.0268   10.0718   -4.0907 C   0  0  0  0  0  0  0  0  0  0  0  0
   -0.5349   10.6610   -5.2253 C   0  0  0  0  0  0  0  0  0  0  0  0
    0.2279    9.9859   -6.2907 C   0  0  0  0  0  0  0  0  0  0  0  0
    0.5342    8.8146   -6.3578 O   0  0  0  0  0  0  0  0  0  0  0  0
    0.5460   11.0387   -7.2786 C   0  0  0  0  0  0  0  0  0  0  0  0
    1.2470   10.9669   -8.4685 C   0  0  0  0  0  0  0  0  0  0  0  0
    1.7657    9.8108   -8.8945 F   0  0  0  0  0  0  0  0  0  0  0  0
    1.4216   12.1081   -9.2413 C   0  0  0  0  0  0  0  0  0  0  0  0
    0.8898   13.3112   -8.8110 C   0  0  0  0  0  0  0  0  0  0  0  0
    0.1814   13.4077   -7.6194 C   0  0  0  0  0  0  0  0  0  0  0  0
    0.0094   12.2673   -6.8516 C   0  0  0  0  0  0  0  0  0  0  0  0
   -0.6733   12.0600   -5.5727 C   0  0  0  0  0  0  0  0  0  0  0  0
   -1.3160   13.0389   -4.8580 C   0  0  0  0  0  0  0  0  0  0  0  0
   -1.9746   12.8696   -3.6217 C   0  0  0  0  0  0  0  0  0  0  0  0
   -2.5339   12.8318   -2.6186 N   0  0  0  0  0  0  0  0  0  0  0  0
   -1.4143   14.3867   -5.2634 C   0  0  0  0  0  0  0  0  0  0  0  0
   -1.5360   15.4980   -5.5257 N   0  0  0  0  0  0  0  0  0  0  0  0
    2.9640  -10.1225    4.3049 H   0  0  0  0  0  0  0  0  0  0  0  0
    0.3671  -11.2647   11.5099 H   0  0  0  0  0  0  0  0  0  0  0  0
    1.6847  -13.2630   10.8944 H   0  0  0  0  0  0  0  0  0  0  0  0
    2.7361  -13.4478    8.6904 H   0  0  0  0  0  0  0  0  0  0  0  0
    3.0110   -8.5798    2.5199 H   0  0  0  0  0  0  0  0  0  0  0  0
    1.9966   -8.6426    0.3970 H   0  0  0  0  0  0  0  0  0  0  0  0
    3.5761   -9.2670   -1.5622 H   0  0  0  0  0  0  0  0  0  0  0  0
    5.5566   -8.2614   -2.9254 H   0  0  0  0  0  0  0  0  0  0  0  0
    6.2763   -6.7828   -2.2679 H   0  0  0  0  0  0  0  0  0  0  0  0
    3.8904   -6.8780   -4.1769 H   0  0  0  0  0  0  0  0  0  0  0  0
    5.5426   -6.4254   -4.6104 H   0  0  0  0  0  0  0  0  0  0  0  0
    4.6069   -5.4097   -3.5071 H   0  0  0  0  0  0  0  0  0  0  0  0
    1.2570   -0.9714   -1.6982 H   0  0  0  0  0  0  0  0  0  0  0  0
    2.0579    2.7734   -0.8457 H   0  0  0  0  0  0  0  0  0  0  0  0
    4.3929    3.1438   -1.4834 H   0  0  0  0  0  0  0  0  0  0  0  0
    6.0038    3.4045   -3.3784 H   0  0  0  0  0  0  0  0  0  0  0  0
    5.7275    2.5297   -4.8921 H   0  0  0  0  0  0  0  0  0  0  0  0
    6.3738    1.2316   -2.2012 H   0  0  0  0  0  0  0  0  0  0  0  0
    7.5033    1.4291   -3.5459 H   0  0  0  0  0  0  0  0  0  0  0  0
    6.1011    0.3667   -3.7131 H   0  0  0  0  0  0  0  0  0  0  0  0
    3.6159    1.4179   -5.3039 H   0  0  0  0  0  0  0  0  0  0  0  0
    1.2823    1.0942   -4.6955 H   0  0  0  0  0  0  0  0  0  0  0  0
   -2.3228    2.6658   -3.1516 H   0  0  0  0  0  0  0  0  0  0  0  0
   -3.8417    1.6890   -4.7758 H   0  0  0  0  0  0  0  0  0  0  0  0
   -3.0547   -1.2695   -6.8386 H   0  0  0  0  0  0  0  0  0  0  0  0
   -4.1313    0.1236   -6.6607 H   0  0  0  0  0  0  0  0  0  0  0  0
   -5.3154   -1.9884   -6.0999 H   0  0  0  0  0  0  0  0  0  0  0  0
   -5.1907   -0.9518   -4.6741 H   0  0  0  0  0  0  0  0  0  0  0  0
   -4.1171   -2.3394   -4.8492 H   0  0  0  0  0  0  0  0  0  0  0  0
   -1.2347   -1.6521   -5.2262 H   0  0  0  0  0  0  0  0  0  0  0  0
    0.2872   -0.6906   -3.5928 H   0  0  0  0  0  0  0  0  0  0  0  0
   -1.3358    1.0867    2.0599 H   0  0  0  0  0  0  0  0  0  0  0  0
    2.3974   -2.0330    3.4096 H   0  0  0  0  0  0  0  0  0  0  0  0
    3.7023   -0.8203    5.0694 H   0  0  0  0  0  0  0  0  0  0  0  0
    3.6881    0.6621    7.0374 H   0  0  0  0  0  0  0  0  0  0  0  0
    2.3120    1.7324    7.3414 H   0  0  0  0  0  0  0  0  0  0  0  0
    4.3621    2.0838    5.1005 H   0  0  0  0  0  0  0  0  0  0  0  0
    4.2932    3.0315    6.5905 H   0  0  0  0  0  0  0  0  0  0  0  0
    2.9906    3.1498    5.4019 H   0  0  0  0  0  0  0  0  0  0  0  0
    0.3927    1.7646    5.7990 H   0  0  0  0  0  0  0  0  0  0  0  0
   -0.9174    0.5662    4.1341 H   0  0  0  0  0  0  0  0  0  0  0  0
   -1.5027   -1.4358    5.0541 H   0  0  0  0  0  0  0  0  0  0  0  0
   -3.7694   -2.1584    5.5462 H   0  0  0  0  0  0  0  0  0  0  0  0
   -5.9393   -2.8846    4.7857 H   0  0  0  0  0  0  0  0  0  0  0  0
   -6.2389   -3.1840    3.0676 H   0  0  0  0  0  0  0  0  0  0  0  0
   -6.4551   -5.2797    4.4099 H   0  0  0  0  0  0  0  0  0  0  0  0
   -4.7777   -5.1064    4.9443 H   0  0  0  0  0  0  0  0  0  0  0  0
   -5.1296   -5.4008    3.2467 H   0  0  0  0  0  0  0  0  0  0  0  0
   -4.2743   -3.4030    1.4992 H   0  0  0  0  0  0  0  0  0  0  0  0
   -2.0083   -2.6342    0.9851 H   0  0  0  0  0  0  0  0  0  0  0  0
    1.2012   -2.8563    5.7285 H   0  0  0  0  0  0  0  0  0  0  0  0
   -0.4909   -2.7658    7.6937 H   0  0  0  0  0  0  0  0  0  0  0  0
   -2.7633   -3.7684    8.4243 H   0  0  0  0  0  0  0  0  0  0  0  0
   -3.7805   -4.3284    7.0874 H   0  0  0  0  0  0  0  0  0  0  0  0
   -2.8431   -6.6168    7.3037 H   0  0  0  0  0  0  0  0  0  0  0  0
   -3.5520   -6.0905    8.8361 H   0  0  0  0  0  0  0  0  0  0  0  0
   -1.7974   -6.0851    8.6157 H   0  0  0  0  0  0  0  0  0  0  0  0
   -3.8856    5.5232    0.7436 H   0  0  0  0  0  0  0  0  0  0  0  0
   -4.6356    7.1414    2.6193 H   0  0  0  0  0  0  0  0  0  0  0  0
   -3.9199    9.3992    3.7160 H   0  0  0  0  0  0  0  0  0  0  0  0
   -2.3302   10.0240    3.2469 H   0  0  0  0  0  0  0  0  0  0  0  0
   -4.9386   10.5517    1.7412 H   0  0  0  0  0  0  0  0  0  0  0  0
   -3.3493   11.1683    1.2814 H   0  0  0  0  0  0  0  0  0  0  0  0
   -4.1006   11.7021    2.7877 H   0  0  0  0  0  0  0  0  0  0  0  0
   -2.0171    9.0753   -1.7946 H   0  0  0  0  0  0  0  0  0  0  0  0
   -1.0111    3.2659   -5.3096 H   0  0  0  0  0  0  0  0  0  0  0  0
    0.7585    2.9572   -7.1810 H   0  0  0  0  0  0  0  0  0  0  0  0
    3.2810    3.5095   -7.6666 H   0  0  0  0  0  0  0  0  0  0  0  0
    4.2188    4.1192   -6.2903 H   0  0  0  0  0  0  0  0  0  0  0  0
    3.4305    6.4336   -6.7731 H   0  0  0  0  0  0  0  0  0  0  0  0
    2.5040    5.8417   -8.1467 H   0  0  0  0  0  0  0  0  0  0  0  0
    4.2692    5.7457   -8.1701 H   0  0  0  0  0  0  0  0  0  0  0  0
   -1.5675   10.7152   -3.4069 H   0  0  0  0  0  0  0  0  0  0  0  0
    1.9709   12.0381  -10.1669 H   0  0  0  0  0  0  0  0  0  0  0  0
    1.0282   14.1952   -9.4140 H   0  0  0  0  0  0  0  0  0  0  0  0
   -0.2192   14.3592   -7.3132 H   0  0  0  0  0  0  0  0  0  0  0  0
  1  2  2  0  0  0  0
  2  3  1  0  0  0  0
  3  4  2  0  0  0  0
  3  5  1  0  0  0  0
  5  6  2  0  0  0  0
  6  7  1  0  0  0  0
  6  8  1  0  0  0  0
  8  9  2  0  0  0  0
  9 10  1  0  0  0  0
 10 11  2  0  0  0  0
 11 12  1  0  0  0  0
 12 13  2  0  0  0  0
 13 14  1  0  0  0  0
 14 15  3  0  0  0  0
 13 16  1  0  0  0  0
 16 17  3  0  0  0  0
  1 18  1  0  0  0  0
 18 19  2  0  0  0  0
 19 20  1  0  0  0  0
 20 21  2  0  0  0  0
 21 22  1  0  0  0  0
 22 23  2  0  0  0  0
 23 24  1  0  0  0  0
 24 25  2  0  0  0  0
 25 26  1  0  0  0  0
 26 27  1  0  0  0  0
 25 28  1  0  0  0  0
 21 29  1  0  0  0  0
 29 30  1  0  0  0  0
 30 31  1  0  0  0  0
 31 32  1  0  0  0  0
 32 33  2  0  0  0  0
 33 34  1  0  0  0  0
 34 35  1  0  0  0  0
 35 36  1  0  0  0  0
 36 37  2  0  0  0  0
 37 38  1  0  0  0  0
 38 39  2  0  0  0  0
 39 40  1  0  0  0  0
 40 41  1  0  0  0  0
 39 42  1  0  0  0  0
 42 43  2  0  0  0  0
 35 44  1  0  0  0  0
 44 45  2  0  0  0  0
 45 46  1  0  0  0  0
 46 47  2  0  0  0  0
 47 48  1  0  0  0  0
 48 49  1  0  0  0  0
 47 50  1  0  0  0  0
 50 51  2  0  0  0  0
 35 52  1  0  0  0  0
 52 53  2  0  0  0  0
 53 54  1  0  0  0  0
 54 55  1  0  0  0  0
 55 56  2  0  0  0  0
 56 57  1  0  0  0  0
 57 58  1  0  0  0  0
 58 59  2  0  0  0  0
 59 60  1  0  0  0  0
 60 61  2  0  0  0  0
 61 62  1  0  0  0  0
 62 63  1  0  0  0  0
 61 64  1  0  0  0  0
 64 65  2  0  0  0  0
 57 66  1  0  0  0  0
 66 67  2  0  0  0  0
 67 68  1  0  0  0  0
 68 69  2  0  0  0  0
 69 70  1  0  0  0  0
 70 71  1  0  0  0  0
 69 72  1  0  0  0  0
 72 73  2  0  0  0  0
 57 74  1  0  0  0  0
 74 75  1  0  0  0  0
 75 76  1  0  0  0  0
 76 77  2  0  0  0  0
 77 78  1  0  0  0  0
 76 79  1  0  0  0  0
 79 80  2  0  0  0  0
 80 81  1  0  0  0  0
 81 82  2  0  0  0  0
 82 83  1  0  0  0  0
 83 84  1  0  0  0  0
 82 85  1  0  0  0  0
 53 86  1  0  0  0  0
 86 87  1  0  0  0  0
 87 88  2  0  0  0  0
 88 89  1  0  0  0  0
 89 90  2  0  0  0  0
 90 91  1  0  0  0  0
 91 92  2  0  0  0  0
 92 93  1  0  0  0  0
 93 94  1  0  0  0  0
 92 95  1  0  0  0  0
 88 96  1  0  0  0  0
 96 97  1  0  0  0  0
 97 98  2  0  0  0  0
 98 99  1  0  0  0  0
 99100  1  0  0  0  0
100101  1  0  0  0  0
101102  1  0  0  0  0
102103  2  0  0  0  0
103104  1  0  0  0  0
104105  2  0  0  0  0
105106  1  0  0  0  0
106107  1  0  0  0  0
105108  1  0  0  0  0
101109  2  0  0  0  0
 98110  1  0  0  0  0
110111  2  0  0  0  0
111112  1  0  0  0  0
112113  2  0  0  0  0
112114  1  0  0  0  0
114115  2  0  0  0  0
115116  1  0  0  0  0
115117  1  0  0  0  0
117118  2  0  0  0  0
118119  1  0  0  0  0
119120  2  0  0  0  0
120121  1  0  0  0  0
121122  2  0  0  0  0
122123  1  0  0  0  0
123124  3  0  0  0  0
122125  1  0  0  0  0
125126  3  0  0  0  0
 12  2  1  0  0  0  0
 78 18  1  0  0  0  0
 85 79  1  0  0  0  0
109 87  1  0  0  0  0
121111  1  0  0  0  0
 11  5  1  0  0  0  0
 77 20  1  0  0  0  0
 95 89  1  0  0  0  0
100 96  2  0  0  0  0
108102  1  0  0  0  0
120114  1  0  0  0  0
 28 22  1  0  0  0  0
 75 29  2  0  0  0  0
 74 31  2  0  0  0  0
 56 32  1  0  0  0  0
 65 58  1  0  0  0  0
 73 66  1  0  0  0  0
 54 34  2  0  0  0  0
 43 36  1  0  0  0  0
 51 44  1  0  0  0  0
109 52  1  0  0  0  0
  1127  1  0  0  0  0
  8128  1  0  0  0  0
  9129  1  0  0  0  0
 10130  1  0  0  0  0
 19131  1  0  0  0  0
 23132  1  0  0  0  0
 24133  1  0  0  0  0
 26134  1  0  0  0  0
 26135  1  0  0  0  0
 27136  1  0  0  0  0
 27137  1  0  0  0  0
 27138  1  0  0  0  0
 33139  1  0  0  0  0
 37140  1  0  0  0  0
 38141  1  0  0  0  0
 40142  1  0  0  0  0
 40143  1  0  0  0  0
 41144  1  0  0  0  0
 41145  1  0  0  0  0
 41146  1  0  0  0  0
 42147  1  0  0  0  0
 43148  1  0  0  0  0
 45149  1  0  0  0  0
 46150  1  0  0  0  0
 48151  1  0  0  0  0
 48152  1  0  0  0  0
 49153  1  0  0  0  0
 49154  1  0  0  0  0
 49155  1  0  0  0  0
 50156  1  0  0  0  0
 51157  1  0  0  0  0
 55158  1  0  0  0  0
 59159  1  0  0  0  0
 60160  1  0  0  0  0
 62161  1  0  0  0  0
 62162  1  0  0  0  0
 63163  1  0  0  0  0
 63164  1  0  0  0  0
 63165  1  0  0  0  0
 64166  1  0  0  0  0
 65167  1  0  0  0  0
 67168  1  0  0  0  0
 68169  1  0  0  0  0
 70170  1  0  0  0  0
 70171  1  0  0  0  0
 71172  1  0  0  0  0
 71173  1  0  0  0  0
 71174  1  0  0  0  0
 72175  1  0  0  0  0
 73176  1  0  0  0  0
 80177  1  0  0  0  0
 81178  1  0  0  0  0
 83179  1  0  0  0  0
 83180  1  0  0  0  0
 84181  1  0  0  0  0
 84182  1  0  0  0  0
 84183  1  0  0  0  0
 90184  1  0  0  0  0
 91185  1  0  0  0  0
 93186  1  0  0  0  0
 93187  1  0  0  0  0
 94188  1  0  0  0  0
 94189  1  0  0  0  0
 94190  1  0  0  0  0
 97191  1  0  0  0  0
103192  1  0  0  0  0
104193  1  0  0  0  0
106194  1  0  0  0  0
106195  1  0  0  0  0
107196  1  0  0  0  0
107197  1  0  0  0  0
107198  1  0  0  0  0
110199  1  0  0  0  0
117200  1  0  0  0  0
118201  1  0  0  0  0
119202  1  0  0  0  0
M  END
