
  xtb     02012221123D
 energy: -186.815768342121 gnorm: 0.000817769732 xtb: 6.4.1 (unknown)
 97108  0     0  0            999 V2000
   -5.6233   -5.3701    2.2596 C   0  0  0  0  0  0  0  0  0  0  0  0
   -4.8135   -6.4509    2.4461 C   0  0  0  0  0  0  0  0  0  0  0  0
   -5.1852   -7.4814    3.4526 C   0  0  0  0  0  0  0  0  0  0  0  0
   -6.2541   -7.5986    4.0015 O   0  0  0  0  0  0  0  0  0  0  0  0
   -3.9489   -8.2721    3.6552 C   0  0  0  0  0  0  0  0  0  0  0  0
   -3.6631   -9.2894    4.5480 C   0  0  0  0  0  0  0  0  0  0  0  0
   -4.5835   -9.7271    5.4117 F   0  0  0  0  0  0  0  0  0  0  0  0
   -2.4019   -9.8735    4.5568 C   0  0  0  0  0  0  0  0  0  0  0  0
   -1.4332   -9.4293    3.6736 C   0  0  0  0  0  0  0  0  0  0  0  0
   -1.6956   -8.4136    2.7625 C   0  0  0  0  0  0  0  0  0  0  0  0
   -2.9554   -7.8407    2.7540 C   0  0  0  0  0  0  0  0  0  0  0  0
   -3.5297   -6.8072    1.8922 C   0  0  0  0  0  0  0  0  0  0  0  0
   -3.0675   -6.4683    0.6465 C   0  0  0  0  0  0  0  0  0  0  0  0
   -1.8301   -6.8848    0.1192 C   0  0  0  0  0  0  0  0  0  0  0  0
   -0.8189   -7.1654   -0.3465 N   0  0  0  0  0  0  0  0  0  0  0  0
   -3.8365   -5.7307   -0.2782 C   0  0  0  0  0  0  0  0  0  0  0  0
   -4.4616   -5.1831   -1.0703 N   0  0  0  0  0  0  0  0  0  0  0  0
   -5.3082   -4.1091    1.7106 C   0  0  0  0  0  0  0  0  0  0  0  0
   -6.2067   -3.1655    1.2284 C   0  0  0  0  0  0  0  0  0  0  0  0
   -7.6866   -3.3448    1.1515 C   0  0  0  0  0  0  0  0  0  0  0  0
   -8.3615   -2.7622    2.3965 C   0  0  0  0  0  0  0  0  0  0  0  0
   -5.5522   -2.0030    0.8109 C   0  0  0  0  0  0  0  0  0  0  0  0
   -6.1343   -0.5221    0.0868 S   0  0  0  0  0  0  0  0  0  0  0  0
   -4.5070    0.0537    0.0227 C   0  0  0  0  0  0  0  0  0  0  0  0
   -3.7998    1.1881   -0.3944 C   0  0  0  0  0  0  0  0  0  0  0  0
   -4.2670    2.4114   -0.9219 C   0  0  0  0  0  0  0  0  0  0  0  0
   -3.3185    3.4429   -1.2109 C   0  0  0  0  0  0  0  0  0  0  0  0
   -3.8913    4.5464   -1.6659 N   0  0  0  0  0  0  0  0  0  0  0  0
   -5.4903    4.3025   -1.7294 S   0  0  0  0  0  0  0  0  0  0  0  0
   -5.5123    2.7829   -1.1759 N   0  0  0  0  0  0  0  0  0  0  0  0
   -1.9449    3.1727   -1.0285 C   0  0  0  0  0  0  0  0  0  0  0  0
   -0.8239    3.9567   -1.3265 C   0  0  0  0  0  0  0  0  0  0  0  0
   -0.4556    5.5115   -1.9811 S   0  0  0  0  0  0  0  0  0  0  0  0
    1.2460    5.1194   -1.8792 C   0  0  0  0  0  0  0  0  0  0  0  0
    2.3961    5.8282   -2.2302 C   0  0  0  0  0  0  0  0  0  0  0  0
    2.3757    7.1631   -2.8930 C   0  0  0  0  0  0  0  0  0  0  0  0
    2.5372    7.0063   -4.4075 C   0  0  0  0  0  0  0  0  0  0  0  0
    3.5476    5.0811   -1.9933 C   0  0  0  0  0  0  0  0  0  0  0  0
    3.1793    3.5125   -1.2718 S   0  0  0  0  0  0  0  0  0  0  0  0
    1.4900    3.8439   -1.3484 C   0  0  0  0  0  0  0  0  0  0  0  0
    0.3032    3.1782   -1.0371 C   0  0  0  0  0  0  0  0  0  0  0  0
   -0.0804    1.9561   -0.5542 N   0  0  0  0  0  0  0  0  0  0  0  0
   -1.4664    1.9196   -0.5402 C   0  0  0  0  0  0  0  0  0  0  0  0
   -2.4165    0.9377   -0.1462 C   0  0  0  0  0  0  0  0  0  0  0  0
   -2.3076   -0.3163    0.4341 N   0  0  0  0  0  0  0  0  0  0  0  0
   -3.5650   -0.8450    0.5368 C   0  0  0  0  0  0  0  0  0  0  0  0
   -4.1622   -2.0238    0.9902 C   0  0  0  0  0  0  0  0  0  0  0  0
   -3.6455   -3.5159    1.6815 S   0  0  0  0  0  0  0  0  0  0  0  0
   -1.2245   -0.9293    1.1688 C   0  0  0  0  0  0  0  0  0  0  0  0
   -0.8541   -0.1088    2.4024 C   0  0  0  0  0  0  0  0  0  0  0  0
    0.8976    0.8909   -0.5093 C   0  0  0  0  0  0  0  0  0  0  0  0
    0.7333   -0.0690   -1.6849 C   0  0  0  0  0  0  0  0  0  0  0  0
    4.8724    5.5090   -2.1934 C   0  0  0  0  0  0  0  0  0  0  0  0
    6.0214    4.7720   -2.2422 C   0  0  0  0  0  0  0  0  0  0  0  0
    7.3239    5.4199   -1.9582 C   0  0  0  0  0  0  0  0  0  0  0  0
    7.5542    6.6056   -1.8994 O   0  0  0  0  0  0  0  0  0  0  0  0
    8.2601    4.2981   -1.7038 C   0  0  0  0  0  0  0  0  0  0  0  0
    9.5737    4.3498   -1.2846 C   0  0  0  0  0  0  0  0  0  0  0  0
   10.2496    3.1518   -1.0824 C   0  0  0  0  0  0  0  0  0  0  0  0
   11.8871    3.1470   -0.5560 Cl  0  0  0  0  0  0  0  0  0  0  0  0
    9.5879    1.9426   -1.3088 C   0  0  0  0  0  0  0  0  0  0  0  0
   10.2420    0.7942   -1.0976 F   0  0  0  0  0  0  0  0  0  0  0  0
    8.2728    1.8814   -1.7432 C   0  0  0  0  0  0  0  0  0  0  0  0
    7.6027    3.0770   -1.9413 C   0  0  0  0  0  0  0  0  0  0  0  0
    6.2530    3.3580   -2.4242 C   0  0  0  0  0  0  0  0  0  0  0  0
    5.4801    2.5008   -3.1650 C   0  0  0  0  0  0  0  0  0  0  0  0
    4.3538    2.9278   -3.8993 C   0  0  0  0  0  0  0  0  0  0  0  0
    3.4698    3.2573   -4.5535 N   0  0  0  0  0  0  0  0  0  0  0  0
    5.7674    1.1336   -3.3405 C   0  0  0  0  0  0  0  0  0  0  0  0
    5.9355    0.0072   -3.4849 N   0  0  0  0  0  0  0  0  0  0  0  0
   -6.6229   -5.4724    2.6707 H   0  0  0  0  0  0  0  0  0  0  0  0
   -2.1977  -10.6684    5.2566 H   0  0  0  0  0  0  0  0  0  0  0  0
   -0.4545   -9.8835    3.6910 H   0  0  0  0  0  0  0  0  0  0  0  0
   -0.9249   -8.0807    2.0867 H   0  0  0  0  0  0  0  0  0  0  0  0
   -7.9355   -4.4010    1.0519 H   0  0  0  0  0  0  0  0  0  0  0  0
   -8.0523   -2.8195    0.2672 H   0  0  0  0  0  0  0  0  0  0  0  0
   -9.4392   -2.8784    2.3220 H   0  0  0  0  0  0  0  0  0  0  0  0
   -8.1324   -1.7034    2.4904 H   0  0  0  0  0  0  0  0  0  0  0  0
   -8.0190   -3.2721    3.2941 H   0  0  0  0  0  0  0  0  0  0  0  0
    1.4207    7.6455   -2.6768 H   0  0  0  0  0  0  0  0  0  0  0  0
    3.1801    7.7907   -2.5041 H   0  0  0  0  0  0  0  0  0  0  0  0
    3.4837    6.5254   -4.6422 H   0  0  0  0  0  0  0  0  0  0  0  0
    2.5081    7.9805   -4.8878 H   0  0  0  0  0  0  0  0  0  0  0  0
    1.7349    6.3937   -4.8104 H   0  0  0  0  0  0  0  0  0  0  0  0
   -0.3667   -1.0991    0.5192 H   0  0  0  0  0  0  0  0  0  0  0  0
   -1.5822   -1.9120    1.4863 H   0  0  0  0  0  0  0  0  0  0  0  0
   -0.5813    0.9088    2.1320 H   0  0  0  0  0  0  0  0  0  0  0  0
   -1.7004   -0.0613    3.0839 H   0  0  0  0  0  0  0  0  0  0  0  0
   -0.0194   -0.5730    2.9206 H   0  0  0  0  0  0  0  0  0  0  0  0
    0.8591    0.3736    0.4481 H   0  0  0  0  0  0  0  0  0  0  0  0
    1.8783    1.3690   -0.5734 H   0  0  0  0  0  0  0  0  0  0  0  0
    0.8894    0.4620   -2.6211 H   0  0  0  0  0  0  0  0  0  0  0  0
   -0.2634   -0.5043   -1.7039 H   0  0  0  0  0  0  0  0  0  0  0  0
    1.4668   -0.8677   -1.6174 H   0  0  0  0  0  0  0  0  0  0  0  0
    5.0199    6.5844   -2.2282 H   0  0  0  0  0  0  0  0  0  0  0  0
   10.0618    5.2969   -1.1190 H   0  0  0  0  0  0  0  0  0  0  0  0
    7.8143    0.9185   -1.9012 H   0  0  0  0  0  0  0  0  0  0  0  0
  1  2  2  0  0  0  0
  2  3  1  0  0  0  0
  3  4  2  0  0  0  0
  3  5  1  0  0  0  0
  5  6  2  0  0  0  0
  6  7  1  0  0  0  0
  6  8  1  0  0  0  0
  8  9  2  0  0  0  0
  9 10  1  0  0  0  0
 10 11  2  0  0  0  0
 11 12  1  0  0  0  0
 12 13  2  0  0  0  0
 13 14  1  0  0  0  0
 14 15  3  0  0  0  0
 13 16  1  0  0  0  0
 16 17  3  0  0  0  0
  1 18  1  0  0  0  0
 18 19  2  0  0  0  0
 19 20  1  0  0  0  0
 20 21  1  0  0  0  0
 19 22  1  0  0  0  0
 22 23  1  0  0  0  0
 23 24  1  0  0  0  0
 24 25  1  0  0  0  0
 25 26  1  0  0  0  0
 26 27  1  0  0  0  0
 27 28  2  0  0  0  0
 28 29  1  0  0  0  0
 29 30  1  0  0  0  0
 27 31  1  0  0  0  0
 31 32  1  0  0  0  0
 32 33  1  0  0  0  0
 33 34  1  0  0  0  0
 34 35  1  0  0  0  0
 35 36  1  0  0  0  0
 36 37  1  0  0  0  0
 35 38  2  0  0  0  0
 38 39  1  0  0  0  0
 39 40  1  0  0  0  0
 40 41  1  0  0  0  0
 41 42  1  0  0  0  0
 42 43  1  0  0  0  0
 43 44  1  0  0  0  0
 44 45  1  0  0  0  0
 45 46  1  0  0  0  0
 46 47  1  0  0  0  0
 47 48  1  0  0  0  0
 45 49  1  0  0  0  0
 49 50  1  0  0  0  0
 42 51  1  0  0  0  0
 51 52  1  0  0  0  0
 38 53  1  0  0  0  0
 53 54  2  0  0  0  0
 54 55  1  0  0  0  0
 55 56  2  0  0  0  0
 55 57  1  0  0  0  0
 57 58  2  0  0  0  0
 58 59  1  0  0  0  0
 59 60  1  0  0  0  0
 59 61  2  0  0  0  0
 61 62  1  0  0  0  0
 61 63  1  0  0  0  0
 63 64  2  0  0  0  0
 64 65  1  0  0  0  0
 65 66  2  0  0  0  0
 66 67  1  0  0  0  0
 67 68  3  0  0  0  0
 66 69  1  0  0  0  0
 69 70  3  0  0  0  0
 12  2  1  0  0  0  0
 48 18  1  0  0  0  0
 65 54  1  0  0  0  0
 11  5  1  0  0  0  0
 47 22  2  0  0  0  0
 64 57  1  0  0  0  0
 46 24  2  0  0  0  0
 44 25  2  0  0  0  0
 30 26  2  0  0  0  0
 43 31  2  0  0  0  0
 41 32  2  0  0  0  0
 40 34  2  0  0  0  0
  1 71  1  0  0  0  0
  8 72  1  0  0  0  0
  9 73  1  0  0  0  0
 10 74  1  0  0  0  0
 20 75  1  0  0  0  0
 20 76  1  0  0  0  0
 21 77  1  0  0  0  0
 21 78  1  0  0  0  0
 21 79  1  0  0  0  0
 36 80  1  0  0  0  0
 36 81  1  0  0  0  0
 37 82  1  0  0  0  0
 37 83  1  0  0  0  0
 37 84  1  0  0  0  0
 49 85  1  0  0  0  0
 49 86  1  0  0  0  0
 50 87  1  0  0  0  0
 50 88  1  0  0  0  0
 50 89  1  0  0  0  0
 51 90  1  0  0  0  0
 51 91  1  0  0  0  0
 52 92  1  0  0  0  0
 52 93  1  0  0  0  0
 52 94  1  0  0  0  0
 53 95  1  0  0  0  0
 58 96  1  0  0  0  0
 63 97  1  0  0  0  0
M  END
