139

C          0.86660        8.40050       -1.07940
C          1.10140        9.21490       -0.01350
C          1.67590       10.56880       -0.25480
O          1.75910       11.13350       -1.31810
C          2.15200       11.01880        1.07220
C          2.89510       12.12670        1.43870
F          3.27830       13.03050        0.53220
C          3.25880       12.31110        2.76720
C          2.88290       11.37710        3.71730
C          2.13010       10.26010        3.37660
C          1.75840       10.08960        2.05440
C          0.95870        9.04200        1.41430
C          0.02870        8.27570        2.06710
C         -0.91470        7.43990        1.43390
N         -1.74440        6.78920        0.97950
C         -0.20670        8.36050        3.45580
N         -0.45850        8.42750        4.57350
C          0.70590        6.99900       -1.10500
C          0.11200        6.26730       -2.12010
C          0.08020        4.90880       -1.83170
S         -0.63070        3.52090       -2.60660
C         -0.11610        2.53560       -1.27910
C         -0.34620        1.18870       -0.85720
C         -1.01430        0.13830       -1.48110
C         -1.11950       -1.04300       -0.78490
C         -1.80280       -2.32890       -1.21480
C         -3.31670       -2.20450       -1.30690
C         -4.04630       -3.25710       -1.85290
C         -5.41920       -3.20050       -1.92110
C         -6.11260       -2.08550       -1.44210
O         -7.46220       -2.13100       -1.59170
C         -8.26710       -1.08430       -1.08670
C         -8.46410       -1.16930        0.42420
C         -5.38700       -1.03970       -0.88390
C         -4.00460       -1.10840       -0.81570
C         -1.22810       -2.84920       -2.52030
C         -1.71370       -2.36560       -3.73190
C         -1.22880       -2.84700       -4.92660
C         -0.24420       -3.83900       -4.94970
O          0.14300       -4.26220       -6.17450
C          1.08510       -5.31810       -6.27260
C          1.28260       -5.62180       -7.74890
C          0.25870       -4.30760       -3.74060
C         -0.22610       -3.80610       -2.54470
C         -1.49060       -3.21420       -0.04120
C         -0.80380       -2.51500        0.93800
C         -0.55130       -1.17610        0.50570
C          0.12650       -0.12920        1.12550
C          0.21650        1.05700        0.43690
C          0.90710        2.34170        0.86340
C          0.28780        3.05730        2.04950
C          1.03140        4.01300        2.73600
C          0.44720        4.78570        3.71310
C         -0.90890        4.64370        4.01670
O         -1.38300        5.46550        4.97930
C         -2.77750        5.54340        5.20270
C         -3.01050        6.66460        6.20240
C         -1.65470        3.69160        3.32900
C         -1.05540        2.91190        2.35480
C          2.38050        2.04410        1.05670
C          3.29140        2.22020        0.02890
C          4.63080        1.90950        0.19580
C          5.08150        1.40220        1.40900
O          6.36520        1.06510        1.68910
C          7.35230        1.22280        0.68830
C          8.68000        0.76930        1.27410
C          4.16190        1.21490        2.44420
C          2.83360        1.52930        2.26800
C          0.60470        3.22250       -0.31660
C          0.70430        4.57590       -0.61460
S          1.32780        5.96490        0.17930
S         -0.39190       -3.46520        2.32400
C         -1.11980       -4.85430        1.56880
C         -1.21590       -6.19910        1.90640
C         -1.77970       -6.95070        0.88980
S         -2.30670       -5.94450       -0.45860
C         -1.67130       -4.54550        0.31090
C         -1.96930       -8.35070        0.88120
C         -2.07800       -9.17020       -0.20310
C         -2.72390      -10.50770       -0.05700
O         -2.99950      -11.06860        0.97680
C         -2.98420      -10.93720       -1.43950
C         -2.41740       -9.98890       -2.35400
C         -2.61120      -10.31590       -3.65810
S         -3.50240      -11.78810       -3.80520
C         -3.60320      -11.97430       -2.06820
Cl        -4.38650      -13.30560       -1.37220
C         -1.73550       -8.95720       -1.59540
C         -0.75660       -8.14300       -2.10600
C          0.12160       -7.36120       -1.33010
N          0.90180       -6.75730       -0.74230
C         -0.47110       -8.09160       -3.48280
N         -0.21930       -8.01690       -4.60090
H          0.87220        8.89440       -2.04700
H          3.83580       13.18150        3.03680
H          3.18060       11.52020        4.74450
H          1.85810        9.54160        4.13220
H         -0.32220        6.72150       -2.99190
H         -1.43330        0.25760       -2.46800
H         -3.52800       -4.12350       -2.23700
H         -5.98760       -4.01050       -2.34940
H         -7.85780       -0.10800       -1.37400
H         -9.22800       -1.21540       -1.59220
H         -8.89940       -2.13070        0.68440
H         -7.51610       -1.06960        0.94720
H         -9.13330       -0.37820        0.75100
H         -5.87630       -0.15890       -0.49930
H         -3.46580       -0.28350       -0.37340
H         -2.49530       -1.62010       -3.73700
H         -1.60720       -2.47980       -5.86740
H          0.70890       -6.20680       -5.74970
H          2.03730       -5.01290       -5.81670
H          1.99150       -6.43650       -7.86360
H          1.65880       -4.74290       -8.26590
H          0.33500       -5.90890       -8.19580
H          1.02390       -5.06690       -3.71090
H          0.19240       -4.18720       -1.62490
H          0.55350       -0.25280        2.10820
H          2.07610        4.15210        2.49900
H          1.01530        5.52630        4.25380
H         -3.15320        4.58900        5.59920
H         -3.29340        5.76010        4.25700
H         -4.07560        6.81470        6.35360
H         -2.56230        7.58010        5.82640
H         -2.54350        6.41840        7.15190
H         -2.70410        3.55510        3.53640
H         -1.65110        2.18510        1.82120
H          2.96240        2.60870       -0.92410
H          5.30800        2.06750       -0.62870
H          7.41300        2.27660        0.38180
H          7.09780        0.61470       -0.19100
H          8.92320        1.36760        2.14780
H          8.61550       -0.27260        1.57520
H          9.46780        0.87970        0.53440
H          4.52040        0.82030        3.38160
H          2.13980        1.39160        3.08390
H         -0.83810       -6.63310        2.81400
H         -2.10330       -8.82670        1.84770
H         -2.30590       -9.79300       -4.54260
