97

C          2.13670        2.13250       -7.69790
C          1.40770        3.28340       -7.77430
C          0.86960        3.72260       -9.08850
O          1.19480        3.30990      -10.17560
C         -0.17430        4.71910       -8.75110
C         -1.08940        5.37620       -9.55350
F         -1.11630        5.17730      -10.87440
C         -2.00280        6.25860       -8.98830
C         -1.99410        6.47400       -7.62110
C         -1.07980        5.83380       -6.79340
C         -0.17070        4.95960       -7.36280
C          0.91620        4.18560       -6.76300
C          1.52850        4.46870       -5.56860
C          2.77660        3.92050       -5.20550
N          3.81750        3.53520       -4.91170
C          1.03290        5.38190       -4.61910
N          0.65400        6.08340       -3.79260
C          2.37660        1.30130       -6.58740
C          3.34200        0.30150       -6.50210
C          4.39640        0.05530       -7.52650
C          5.51380        1.09400       -7.39740
C          3.27320       -0.37210       -5.28090
S          4.21190       -1.68380       -4.60300
C          3.23270       -1.61350       -3.18170
C          3.09610       -2.26960       -1.95280
C          3.77290       -3.40280       -1.45220
C          3.36180       -3.94920       -0.19610
N          4.04650       -5.03320        0.13440
S          5.12160       -5.33470       -1.03700
N          4.75140       -4.09720       -2.01200
C          2.35110       -3.28650        0.53320
C          1.83760       -3.55880        1.80650
S          2.03530       -4.71260        3.07660
C          0.88630       -3.80960        4.03720
C          0.38460       -4.00140        5.32660
C          0.76270       -5.16160        6.18660
C         -0.14750       -6.35890        5.89860
C         -0.50020       -2.98960        5.68420
S         -0.73020       -1.82220        4.38040
C          0.38390       -2.67650        3.38140
C          0.92660       -2.53860        2.10190
N          0.85890       -1.65730        1.05840
C          1.70960       -2.10030        0.06080
C          2.03390       -1.62840       -1.24320
N          1.52100       -0.63810       -2.06220
C          2.24390       -0.62420       -3.22210
C          2.25340        0.07660       -4.42930
S          1.34880        1.35130       -5.15410
C          0.41470        0.28210       -1.93780
C          0.89010        1.68780       -1.56840
C          0.09610       -0.44320        1.23390
C         -1.39890       -0.67710        1.01520
C         -1.23910       -2.90820        6.88200
C         -1.91760       -1.84890        7.40850
C         -3.01330       -2.09240        8.38330
O         -3.24480       -3.12860        8.96130
C         -3.76860       -0.82130        8.43190
C         -4.95230       -0.51190        9.08250
Cl        -5.76280       -1.67950       10.04360
C         -5.47850        0.77140        8.94510
C         -4.82840        1.71310        8.16720
C         -3.63590        1.42070        7.51530
C         -3.10670        0.15070        7.65480
C         -1.86800       -0.43240        7.14010
C         -0.75940        0.27670        6.75500
C          0.50960       -0.31830        6.59370
N          1.56430       -0.76360        6.50910
C         -0.73770        1.67180        6.56610
N         -0.67280        2.80050        6.36530
H          2.50810        1.76510       -8.65020
H         -2.70860        6.76350       -9.62880
H         -2.71140        7.15490       -7.18940
H         -1.09290        6.01340       -5.73070
H          4.80750       -0.94390       -7.37100
H          3.96790        0.10410       -8.52970
H          6.28790        0.90210       -8.13540
H          5.12160        2.09650       -7.55040
H          5.95670        1.04920       -6.40590
H          1.79520       -5.43530        5.96190
H          0.69980       -4.88970        7.23990
H         -1.18590       -6.11290        6.10890
H         -0.06580       -6.65330        4.85500
H          0.14150       -7.20190        6.52020
H         -0.30970       -0.10300       -1.22650
H         -0.07590        0.32620       -2.91630
H          0.03550        2.34280       -1.42540
H          1.48710        1.68270       -0.65880
H          1.50580        2.09740       -2.36520
H          0.24960       -0.11170        2.26670
H          0.48640        0.33340        0.58300
H         -1.92990        0.26960        1.05760
H         -1.59300       -1.15010        0.05440
H         -1.79280       -1.32650        1.79270
H         -1.36900       -3.84240        7.41930
H         -6.39770        1.02060        9.45080
H         -5.25600        2.69890        8.06630
H         -3.14920        2.16890        6.91110
