
  xtb     02102217463D
 energy: -247.664055970480 gnorm: 0.000513516223 xtb: 6.4.1 (unknown)
139153  0     0  0            999 V2000
    0.8666    8.4005   -1.0794 C   0  0  0  0  0  0  0  0  0  0  0  0
    1.1014    9.2149   -0.0135 C   0  0  0  0  0  0  0  0  0  0  0  0
    1.6759   10.5688   -0.2548 C   0  0  0  0  0  0  0  0  0  0  0  0
    1.7591   11.1335   -1.3181 O   0  0  0  0  0  0  0  0  0  0  0  0
    2.1520   11.0188    1.0722 C   0  0  0  0  0  0  0  0  0  0  0  0
    2.8951   12.1267    1.4387 C   0  0  0  0  0  0  0  0  0  0  0  0
    3.2783   13.0305    0.5322 F   0  0  0  0  0  0  0  0  0  0  0  0
    3.2588   12.3111    2.7672 C   0  0  0  0  0  0  0  0  0  0  0  0
    2.8829   11.3771    3.7173 C   0  0  0  0  0  0  0  0  0  0  0  0
    2.1301   10.2601    3.3766 C   0  0  0  0  0  0  0  0  0  0  0  0
    1.7584   10.0896    2.0544 C   0  0  0  0  0  0  0  0  0  0  0  0
    0.9587    9.0420    1.4143 C   0  0  0  0  0  0  0  0  0  0  0  0
    0.0287    8.2757    2.0671 C   0  0  0  0  0  0  0  0  0  0  0  0
   -0.9147    7.4399    1.4339 C   0  0  0  0  0  0  0  0  0  0  0  0
   -1.7444    6.7892    0.9795 N   0  0  0  0  0  0  0  0  0  0  0  0
   -0.2067    8.3605    3.4558 C   0  0  0  0  0  0  0  0  0  0  0  0
   -0.4585    8.4275    4.5735 N   0  0  0  0  0  0  0  0  0  0  0  0
    0.7059    6.9990   -1.1050 C   0  0  0  0  0  0  0  0  0  0  0  0
    0.1120    6.2673   -2.1201 C   0  0  0  0  0  0  0  0  0  0  0  0
    0.0802    4.9088   -1.8317 C   0  0  0  0  0  0  0  0  0  0  0  0
   -0.6307    3.5209   -2.6066 S   0  0  0  0  0  0  0  0  0  0  0  0
   -0.1161    2.5356   -1.2791 C   0  0  0  0  0  0  0  0  0  0  0  0
   -0.3462    1.1887   -0.8572 C   0  0  0  0  0  0  0  0  0  0  0  0
   -1.0143    0.1383   -1.4811 C   0  0  0  0  0  0  0  0  0  0  0  0
   -1.1195   -1.0430   -0.7849 C   0  0  0  0  0  0  0  0  0  0  0  0
   -1.8028   -2.3289   -1.2148 C   0  0  0  0  0  0  0  0  0  0  0  0
   -3.3167   -2.2045   -1.3069 C   0  0  0  0  0  0  0  0  0  0  0  0
   -4.0463   -3.2571   -1.8529 C   0  0  0  0  0  0  0  0  0  0  0  0
   -5.4192   -3.2005   -1.9211 C   0  0  0  0  0  0  0  0  0  0  0  0
   -6.1126   -2.0855   -1.4421 C   0  0  0  0  0  0  0  0  0  0  0  0
   -7.4622   -2.1310   -1.5917 O   0  0  0  0  0  0  0  0  0  0  0  0
   -8.2671   -1.0843   -1.0867 C   0  0  0  0  0  0  0  0  0  0  0  0
   -8.4641   -1.1693    0.4242 C   0  0  0  0  0  0  0  0  0  0  0  0
   -5.3870   -1.0397   -0.8839 C   0  0  0  0  0  0  0  0  0  0  0  0
   -4.0046   -1.1084   -0.8157 C   0  0  0  0  0  0  0  0  0  0  0  0
   -1.2281   -2.8492   -2.5203 C   0  0  0  0  0  0  0  0  0  0  0  0
   -1.7137   -2.3656   -3.7319 C   0  0  0  0  0  0  0  0  0  0  0  0
   -1.2288   -2.8470   -4.9266 C   0  0  0  0  0  0  0  0  0  0  0  0
   -0.2442   -3.8390   -4.9497 C   0  0  0  0  0  0  0  0  0  0  0  0
    0.1430   -4.2622   -6.1745 O   0  0  0  0  0  0  0  0  0  0  0  0
    1.0851   -5.3181   -6.2726 C   0  0  0  0  0  0  0  0  0  0  0  0
    1.2826   -5.6218   -7.7489 C   0  0  0  0  0  0  0  0  0  0  0  0
    0.2587   -4.3076   -3.7406 C   0  0  0  0  0  0  0  0  0  0  0  0
   -0.2261   -3.8061   -2.5447 C   0  0  0  0  0  0  0  0  0  0  0  0
   -1.4906   -3.2142   -0.0412 C   0  0  0  0  0  0  0  0  0  0  0  0
   -0.8038   -2.5150    0.9380 C   0  0  0  0  0  0  0  0  0  0  0  0
   -0.5513   -1.1761    0.5057 C   0  0  0  0  0  0  0  0  0  0  0  0
    0.1265   -0.1292    1.1255 C   0  0  0  0  0  0  0  0  0  0  0  0
    0.2165    1.0570    0.4369 C   0  0  0  0  0  0  0  0  0  0  0  0
    0.9071    2.3417    0.8634 C   0  0  0  0  0  0  0  0  0  0  0  0
    0.2878    3.0573    2.0495 C   0  0  0  0  0  0  0  0  0  0  0  0
    1.0314    4.0130    2.7360 C   0  0  0  0  0  0  0  0  0  0  0  0
    0.4472    4.7857    3.7131 C   0  0  0  0  0  0  0  0  0  0  0  0
   -0.9089    4.6437    4.0167 C   0  0  0  0  0  0  0  0  0  0  0  0
   -1.3830    5.4655    4.9793 O   0  0  0  0  0  0  0  0  0  0  0  0
   -2.7775    5.5434    5.2027 C   0  0  0  0  0  0  0  0  0  0  0  0
   -3.0105    6.6646    6.2024 C   0  0  0  0  0  0  0  0  0  0  0  0
   -1.6547    3.6916    3.3290 C   0  0  0  0  0  0  0  0  0  0  0  0
   -1.0554    2.9119    2.3548 C   0  0  0  0  0  0  0  0  0  0  0  0
    2.3805    2.0441    1.0567 C   0  0  0  0  0  0  0  0  0  0  0  0
    3.2914    2.2202    0.0289 C   0  0  0  0  0  0  0  0  0  0  0  0
    4.6308    1.9095    0.1958 C   0  0  0  0  0  0  0  0  0  0  0  0
    5.0815    1.4022    1.4090 C   0  0  0  0  0  0  0  0  0  0  0  0
    6.3652    1.0651    1.6891 O   0  0  0  0  0  0  0  0  0  0  0  0
    7.3523    1.2228    0.6883 C   0  0  0  0  0  0  0  0  0  0  0  0
    8.6800    0.7693    1.2741 C   0  0  0  0  0  0  0  0  0  0  0  0
    4.1619    1.2149    2.4442 C   0  0  0  0  0  0  0  0  0  0  0  0
    2.8336    1.5293    2.2680 C   0  0  0  0  0  0  0  0  0  0  0  0
    0.6047    3.2225   -0.3166 C   0  0  0  0  0  0  0  0  0  0  0  0
    0.7043    4.5759   -0.6146 C   0  0  0  0  0  0  0  0  0  0  0  0
    1.3278    5.9649    0.1793 S   0  0  0  0  0  0  0  0  0  0  0  0
   -0.3919   -3.4652    2.3240 S   0  0  0  0  0  0  0  0  0  0  0  0
   -1.1198   -4.8543    1.5688 C   0  0  0  0  0  0  0  0  0  0  0  0
   -1.2159   -6.1991    1.9064 C   0  0  0  0  0  0  0  0  0  0  0  0
   -1.7797   -6.9507    0.8898 C   0  0  0  0  0  0  0  0  0  0  0  0
   -2.3067   -5.9445   -0.4586 S   0  0  0  0  0  0  0  0  0  0  0  0
   -1.6713   -4.5455    0.3109 C   0  0  0  0  0  0  0  0  0  0  0  0
   -1.9693   -8.3507    0.8812 C   0  0  0  0  0  0  0  0  0  0  0  0
   -2.0780   -9.1702   -0.2031 C   0  0  0  0  0  0  0  0  0  0  0  0
   -2.7239  -10.5077   -0.0570 C   0  0  0  0  0  0  0  0  0  0  0  0
   -2.9995  -11.0686    0.9768 O   0  0  0  0  0  0  0  0  0  0  0  0
   -2.9842  -10.9372   -1.4395 C   0  0  0  0  0  0  0  0  0  0  0  0
   -2.4174   -9.9889   -2.3540 C   0  0  0  0  0  0  0  0  0  0  0  0
   -2.6112  -10.3159   -3.6581 C   0  0  0  0  0  0  0  0  0  0  0  0
   -3.5024  -11.7881   -3.8052 S   0  0  0  0  0  0  0  0  0  0  0  0
   -3.6032  -11.9743   -2.0682 C   0  0  0  0  0  0  0  0  0  0  0  0
   -4.3865  -13.3056   -1.3722 Cl  0  0  0  0  0  0  0  0  0  0  0  0
   -1.7355   -8.9572   -1.5954 C   0  0  0  0  0  0  0  0  0  0  0  0
   -0.7566   -8.1430   -2.1060 C   0  0  0  0  0  0  0  0  0  0  0  0
    0.1216   -7.3612   -1.3301 C   0  0  0  0  0  0  0  0  0  0  0  0
    0.9018   -6.7573   -0.7423 N   0  0  0  0  0  0  0  0  0  0  0  0
   -0.4711   -8.0916   -3.4828 C   0  0  0  0  0  0  0  0  0  0  0  0
   -0.2193   -8.0169   -4.6009 N   0  0  0  0  0  0  0  0  0  0  0  0
    0.8722    8.8944   -2.0470 H   0  0  0  0  0  0  0  0  0  0  0  0
    3.8358   13.1815    3.0368 H   0  0  0  0  0  0  0  0  0  0  0  0
    3.1806   11.5202    4.7445 H   0  0  0  0  0  0  0  0  0  0  0  0
    1.8581    9.5416    4.1322 H   0  0  0  0  0  0  0  0  0  0  0  0
   -0.3222    6.7215   -2.9919 H   0  0  0  0  0  0  0  0  0  0  0  0
   -1.4333    0.2576   -2.4680 H   0  0  0  0  0  0  0  0  0  0  0  0
   -3.5280   -4.1235   -2.2370 H   0  0  0  0  0  0  0  0  0  0  0  0
   -5.9876   -4.0105   -2.3494 H   0  0  0  0  0  0  0  0  0  0  0  0
   -7.8578   -0.1080   -1.3740 H   0  0  0  0  0  0  0  0  0  0  0  0
   -9.2280   -1.2154   -1.5922 H   0  0  0  0  0  0  0  0  0  0  0  0
   -8.8994   -2.1307    0.6844 H   0  0  0  0  0  0  0  0  0  0  0  0
   -7.5161   -1.0696    0.9472 H   0  0  0  0  0  0  0  0  0  0  0  0
   -9.1333   -0.3782    0.7510 H   0  0  0  0  0  0  0  0  0  0  0  0
   -5.8763   -0.1589   -0.4993 H   0  0  0  0  0  0  0  0  0  0  0  0
   -3.4658   -0.2835   -0.3734 H   0  0  0  0  0  0  0  0  0  0  0  0
   -2.4953   -1.6201   -3.7370 H   0  0  0  0  0  0  0  0  0  0  0  0
   -1.6072   -2.4798   -5.8674 H   0  0  0  0  0  0  0  0  0  0  0  0
    0.7089   -6.2068   -5.7497 H   0  0  0  0  0  0  0  0  0  0  0  0
    2.0373   -5.0129   -5.8167 H   0  0  0  0  0  0  0  0  0  0  0  0
    1.9915   -6.4365   -7.8636 H   0  0  0  0  0  0  0  0  0  0  0  0
    1.6588   -4.7429   -8.2659 H   0  0  0  0  0  0  0  0  0  0  0  0
    0.3350   -5.9089   -8.1958 H   0  0  0  0  0  0  0  0  0  0  0  0
    1.0239   -5.0669   -3.7109 H   0  0  0  0  0  0  0  0  0  0  0  0
    0.1924   -4.1872   -1.6249 H   0  0  0  0  0  0  0  0  0  0  0  0
    0.5535   -0.2528    2.1082 H   0  0  0  0  0  0  0  0  0  0  0  0
    2.0761    4.1521    2.4990 H   0  0  0  0  0  0  0  0  0  0  0  0
    1.0153    5.5263    4.2538 H   0  0  0  0  0  0  0  0  0  0  0  0
   -3.1532    4.5890    5.5992 H   0  0  0  0  0  0  0  0  0  0  0  0
   -3.2934    5.7601    4.2570 H   0  0  0  0  0  0  0  0  0  0  0  0
   -4.0756    6.8147    6.3536 H   0  0  0  0  0  0  0  0  0  0  0  0
   -2.5623    7.5801    5.8264 H   0  0  0  0  0  0  0  0  0  0  0  0
   -2.5435    6.4184    7.1519 H   0  0  0  0  0  0  0  0  0  0  0  0
   -2.7041    3.5551    3.5364 H   0  0  0  0  0  0  0  0  0  0  0  0
   -1.6511    2.1851    1.8212 H   0  0  0  0  0  0  0  0  0  0  0  0
    2.9624    2.6087   -0.9241 H   0  0  0  0  0  0  0  0  0  0  0  0
    5.3080    2.0675   -0.6287 H   0  0  0  0  0  0  0  0  0  0  0  0
    7.4130    2.2766    0.3818 H   0  0  0  0  0  0  0  0  0  0  0  0
    7.0978    0.6147   -0.1910 H   0  0  0  0  0  0  0  0  0  0  0  0
    8.9232    1.3676    2.1478 H   0  0  0  0  0  0  0  0  0  0  0  0
    8.6155   -0.2726    1.5752 H   0  0  0  0  0  0  0  0  0  0  0  0
    9.4678    0.8797    0.5344 H   0  0  0  0  0  0  0  0  0  0  0  0
    4.5204    0.8203    3.3816 H   0  0  0  0  0  0  0  0  0  0  0  0
    2.1398    1.3916    3.0839 H   0  0  0  0  0  0  0  0  0  0  0  0
   -0.8381   -6.6331    2.8140 H   0  0  0  0  0  0  0  0  0  0  0  0
   -2.1033   -8.8267    1.8477 H   0  0  0  0  0  0  0  0  0  0  0  0
   -2.3059   -9.7930   -4.5426 H   0  0  0  0  0  0  0  0  0  0  0  0
  1  2  2  0  0  0  0
  2  3  1  0  0  0  0
  3  4  2  0  0  0  0
  3  5  1  0  0  0  0
  5  6  2  0  0  0  0
  6  7  1  0  0  0  0
  6  8  1  0  0  0  0
  8  9  2  0  0  0  0
  9 10  1  0  0  0  0
 10 11  2  0  0  0  0
 11 12  1  0  0  0  0
 12 13  2  0  0  0  0
 13 14  1  0  0  0  0
 14 15  3  0  0  0  0
 13 16  1  0  0  0  0
 16 17  3  0  0  0  0
  1 18  1  0  0  0  0
 18 19  2  0  0  0  0
 19 20  1  0  0  0  0
 20 21  1  0  0  0  0
 21 22  1  0  0  0  0
 22 23  1  0  0  0  0
 23 24  2  0  0  0  0
 24 25  1  0  0  0  0
 25 26  1  0  0  0  0
 26 27  1  0  0  0  0
 27 28  2  0  0  0  0
 28 29  1  0  0  0  0
 29 30  2  0  0  0  0
 30 31  1  0  0  0  0
 31 32  1  0  0  0  0
 32 33  1  0  0  0  0
 30 34  1  0  0  0  0
 34 35  2  0  0  0  0
 26 36  1  0  0  0  0
 36 37  2  0  0  0  0
 37 38  1  0  0  0  0
 38 39  2  0  0  0  0
 39 40  1  0  0  0  0
 40 41  1  0  0  0  0
 41 42  1  0  0  0  0
 39 43  1  0  0  0  0
 43 44  2  0  0  0  0
 26 45  1  0  0  0  0
 45 46  2  0  0  0  0
 46 47  1  0  0  0  0
 47 48  1  0  0  0  0
 48 49  2  0  0  0  0
 49 50  1  0  0  0  0
 50 51  1  0  0  0  0
 51 52  2  0  0  0  0
 52 53  1  0  0  0  0
 53 54  2  0  0  0  0
 54 55  1  0  0  0  0
 55 56  1  0  0  0  0
 56 57  1  0  0  0  0
 54 58  1  0  0  0  0
 58 59  2  0  0  0  0
 50 60  1  0  0  0  0
 60 61  2  0  0  0  0
 61 62  1  0  0  0  0
 62 63  2  0  0  0  0
 63 64  1  0  0  0  0
 64 65  1  0  0  0  0
 65 66  1  0  0  0  0
 63 67  1  0  0  0  0
 67 68  2  0  0  0  0
 50 69  1  0  0  0  0
 69 70  1  0  0  0  0
 70 71  1  0  0  0  0
 46 72  1  0  0  0  0
 72 73  1  0  0  0  0
 73 74  1  0  0  0  0
 74 75  2  0  0  0  0
 75 76  1  0  0  0  0
 76 77  1  0  0  0  0
 75 78  1  0  0  0  0
 78 79  2  0  0  0  0
 79 80  1  0  0  0  0
 80 81  2  0  0  0  0
 80 82  1  0  0  0  0
 82 83  1  0  0  0  0
 83 84  2  0  0  0  0
 84 85  1  0  0  0  0
 85 86  1  0  0  0  0
 86 87  1  0  0  0  0
 83 88  1  0  0  0  0
 88 89  2  0  0  0  0
 89 90  1  0  0  0  0
 90 91  3  0  0  0  0
 89 92  1  0  0  0  0
 92 93  3  0  0  0  0
 12  2  1  0  0  0  0
 71 18  1  0  0  0  0
 77 73  2  0  0  0  0
 88 79  1  0  0  0  0
 11  5  1  0  0  0  0
 70 20  2  0  0  0  0
 86 82  2  0  0  0  0
 69 22  2  0  0  0  0
 49 23  1  0  0  0  0
 59 51  1  0  0  0  0
 68 60  1  0  0  0  0
 47 25  2  0  0  0  0
 35 27  1  0  0  0  0
 44 36  1  0  0  0  0
 77 45  1  0  0  0  0
  1 94  1  0  0  0  0
  8 95  1  0  0  0  0
  9 96  1  0  0  0  0
 10 97  1  0  0  0  0
 19 98  1  0  0  0  0
 24 99  1  0  0  0  0
 28100  1  0  0  0  0
 29101  1  0  0  0  0
 32102  1  0  0  0  0
 32103  1  0  0  0  0
 33104  1  0  0  0  0
 33105  1  0  0  0  0
 33106  1  0  0  0  0
 34107  1  0  0  0  0
 35108  1  0  0  0  0
 37109  1  0  0  0  0
 38110  1  0  0  0  0
 41111  1  0  0  0  0
 41112  1  0  0  0  0
 42113  1  0  0  0  0
 42114  1  0  0  0  0
 42115  1  0  0  0  0
 43116  1  0  0  0  0
 44117  1  0  0  0  0
 48118  1  0  0  0  0
 52119  1  0  0  0  0
 53120  1  0  0  0  0
 56121  1  0  0  0  0
 56122  1  0  0  0  0
 57123  1  0  0  0  0
 57124  1  0  0  0  0
 57125  1  0  0  0  0
 58126  1  0  0  0  0
 59127  1  0  0  0  0
 61128  1  0  0  0  0
 62129  1  0  0  0  0
 65130  1  0  0  0  0
 65131  1  0  0  0  0
 66132  1  0  0  0  0
 66133  1  0  0  0  0
 66134  1  0  0  0  0
 67135  1  0  0  0  0
 68136  1  0  0  0  0
 74137  1  0  0  0  0
 78138  1  0  0  0  0
 84139  1  0  0  0  0
M  END
