
  xtb     02012220353D
 energy: -182.592987047699 gnorm: 0.000571826808 xtb: 6.4.1 (unknown)
 97108  0     0  0            999 V2000
    2.1367    2.1325   -7.6979 C   0  0  0  0  0  0  0  0  0  0  0  0
    1.4077    3.2834   -7.7743 C   0  0  0  0  0  0  0  0  0  0  0  0
    0.8696    3.7226   -9.0885 C   0  0  0  0  0  0  0  0  0  0  0  0
    1.1948    3.3099  -10.1756 O   0  0  0  0  0  0  0  0  0  0  0  0
   -0.1743    4.7191   -8.7511 C   0  0  0  0  0  0  0  0  0  0  0  0
   -1.0894    5.3762   -9.5535 C   0  0  0  0  0  0  0  0  0  0  0  0
   -1.1163    5.1773  -10.8744 F   0  0  0  0  0  0  0  0  0  0  0  0
   -2.0028    6.2586   -8.9883 C   0  0  0  0  0  0  0  0  0  0  0  0
   -1.9941    6.4740   -7.6211 C   0  0  0  0  0  0  0  0  0  0  0  0
   -1.0798    5.8338   -6.7934 C   0  0  0  0  0  0  0  0  0  0  0  0
   -0.1707    4.9596   -7.3628 C   0  0  0  0  0  0  0  0  0  0  0  0
    0.9162    4.1856   -6.7630 C   0  0  0  0  0  0  0  0  0  0  0  0
    1.5285    4.4687   -5.5686 C   0  0  0  0  0  0  0  0  0  0  0  0
    2.7766    3.9205   -5.2055 C   0  0  0  0  0  0  0  0  0  0  0  0
    3.8175    3.5352   -4.9117 N   0  0  0  0  0  0  0  0  0  0  0  0
    1.0329    5.3819   -4.6191 C   0  0  0  0  0  0  0  0  0  0  0  0
    0.6540    6.0834   -3.7926 N   0  0  0  0  0  0  0  0  0  0  0  0
    2.3766    1.3013   -6.5874 C   0  0  0  0  0  0  0  0  0  0  0  0
    3.3420    0.3015   -6.5021 C   0  0  0  0  0  0  0  0  0  0  0  0
    4.3964    0.0553   -7.5265 C   0  0  0  0  0  0  0  0  0  0  0  0
    5.5138    1.0940   -7.3974 C   0  0  0  0  0  0  0  0  0  0  0  0
    3.2732   -0.3721   -5.2809 C   0  0  0  0  0  0  0  0  0  0  0  0
    4.2119   -1.6838   -4.6030 S   0  0  0  0  0  0  0  0  0  0  0  0
    3.2327   -1.6135   -3.1817 C   0  0  0  0  0  0  0  0  0  0  0  0
    3.0961   -2.2696   -1.9528 C   0  0  0  0  0  0  0  0  0  0  0  0
    3.7729   -3.4028   -1.4522 C   0  0  0  0  0  0  0  0  0  0  0  0
    3.3618   -3.9492   -0.1961 C   0  0  0  0  0  0  0  0  0  0  0  0
    4.0465   -5.0332    0.1344 N   0  0  0  0  0  0  0  0  0  0  0  0
    5.1216   -5.3347   -1.0370 S   0  0  0  0  0  0  0  0  0  0  0  0
    4.7514   -4.0972   -2.0120 N   0  0  0  0  0  0  0  0  0  0  0  0
    2.3511   -3.2865    0.5332 C   0  0  0  0  0  0  0  0  0  0  0  0
    1.8376   -3.5588    1.8065 C   0  0  0  0  0  0  0  0  0  0  0  0
    2.0353   -4.7126    3.0766 S   0  0  0  0  0  0  0  0  0  0  0  0
    0.8863   -3.8096    4.0372 C   0  0  0  0  0  0  0  0  0  0  0  0
    0.3846   -4.0014    5.3266 C   0  0  0  0  0  0  0  0  0  0  0  0
    0.7627   -5.1616    6.1866 C   0  0  0  0  0  0  0  0  0  0  0  0
   -0.1475   -6.3589    5.8986 C   0  0  0  0  0  0  0  0  0  0  0  0
   -0.5002   -2.9896    5.6842 C   0  0  0  0  0  0  0  0  0  0  0  0
   -0.7302   -1.8222    4.3804 S   0  0  0  0  0  0  0  0  0  0  0  0
    0.3839   -2.6765    3.3814 C   0  0  0  0  0  0  0  0  0  0  0  0
    0.9266   -2.5386    2.1019 C   0  0  0  0  0  0  0  0  0  0  0  0
    0.8589   -1.6573    1.0584 N   0  0  0  0  0  0  0  0  0  0  0  0
    1.7096   -2.1003    0.0608 C   0  0  0  0  0  0  0  0  0  0  0  0
    2.0339   -1.6284   -1.2432 C   0  0  0  0  0  0  0  0  0  0  0  0
    1.5210   -0.6381   -2.0622 N   0  0  0  0  0  0  0  0  0  0  0  0
    2.2439   -0.6242   -3.2221 C   0  0  0  0  0  0  0  0  0  0  0  0
    2.2534    0.0766   -4.4293 C   0  0  0  0  0  0  0  0  0  0  0  0
    1.3488    1.3513   -5.1541 S   0  0  0  0  0  0  0  0  0  0  0  0
    0.4147    0.2821   -1.9378 C   0  0  0  0  0  0  0  0  0  0  0  0
    0.8901    1.6878   -1.5684 C   0  0  0  0  0  0  0  0  0  0  0  0
    0.0961   -0.4432    1.2339 C   0  0  0  0  0  0  0  0  0  0  0  0
   -1.3989   -0.6771    1.0152 C   0  0  0  0  0  0  0  0  0  0  0  0
   -1.2391   -2.9082    6.8820 C   0  0  0  0  0  0  0  0  0  0  0  0
   -1.9176   -1.8489    7.4085 C   0  0  0  0  0  0  0  0  0  0  0  0
   -3.0133   -2.0924    8.3833 C   0  0  0  0  0  0  0  0  0  0  0  0
   -3.2448   -3.1286    8.9613 O   0  0  0  0  0  0  0  0  0  0  0  0
   -3.7686   -0.8213    8.4319 C   0  0  0  0  0  0  0  0  0  0  0  0
   -4.9523   -0.5119    9.0825 C   0  0  0  0  0  0  0  0  0  0  0  0
   -5.7628   -1.6795   10.0436 Cl  0  0  0  0  0  0  0  0  0  0  0  0
   -5.4785    0.7714    8.9451 C   0  0  0  0  0  0  0  0  0  0  0  0
   -4.8284    1.7131    8.1672 C   0  0  0  0  0  0  0  0  0  0  0  0
   -3.6359    1.4207    7.5153 C   0  0  0  0  0  0  0  0  0  0  0  0
   -3.1067    0.1507    7.6548 C   0  0  0  0  0  0  0  0  0  0  0  0
   -1.8680   -0.4324    7.1401 C   0  0  0  0  0  0  0  0  0  0  0  0
   -0.7594    0.2767    6.7550 C   0  0  0  0  0  0  0  0  0  0  0  0
    0.5096   -0.3183    6.5937 C   0  0  0  0  0  0  0  0  0  0  0  0
    1.5643   -0.7636    6.5091 N   0  0  0  0  0  0  0  0  0  0  0  0
   -0.7377    1.6718    6.5661 C   0  0  0  0  0  0  0  0  0  0  0  0
   -0.6728    2.8005    6.3653 N   0  0  0  0  0  0  0  0  0  0  0  0
    2.5081    1.7651   -8.6502 H   0  0  0  0  0  0  0  0  0  0  0  0
   -2.7086    6.7635   -9.6288 H   0  0  0  0  0  0  0  0  0  0  0  0
   -2.7114    7.1549   -7.1894 H   0  0  0  0  0  0  0  0  0  0  0  0
   -1.0929    6.0134   -5.7307 H   0  0  0  0  0  0  0  0  0  0  0  0
    4.8075   -0.9439   -7.3710 H   0  0  0  0  0  0  0  0  0  0  0  0
    3.9679    0.1041   -8.5297 H   0  0  0  0  0  0  0  0  0  0  0  0
    6.2879    0.9021   -8.1354 H   0  0  0  0  0  0  0  0  0  0  0  0
    5.1216    2.0965   -7.5504 H   0  0  0  0  0  0  0  0  0  0  0  0
    5.9567    1.0492   -6.4059 H   0  0  0  0  0  0  0  0  0  0  0  0
    1.7952   -5.4353    5.9619 H   0  0  0  0  0  0  0  0  0  0  0  0
    0.6998   -4.8897    7.2399 H   0  0  0  0  0  0  0  0  0  0  0  0
   -1.1859   -6.1129    6.1089 H   0  0  0  0  0  0  0  0  0  0  0  0
   -0.0658   -6.6533    4.8550 H   0  0  0  0  0  0  0  0  0  0  0  0
    0.1415   -7.2019    6.5202 H   0  0  0  0  0  0  0  0  0  0  0  0
   -0.3097   -0.1030   -1.2265 H   0  0  0  0  0  0  0  0  0  0  0  0
   -0.0759    0.3262   -2.9163 H   0  0  0  0  0  0  0  0  0  0  0  0
    0.0355    2.3428   -1.4254 H   0  0  0  0  0  0  0  0  0  0  0  0
    1.4871    1.6827   -0.6588 H   0  0  0  0  0  0  0  0  0  0  0  0
    1.5058    2.0974   -2.3652 H   0  0  0  0  0  0  0  0  0  0  0  0
    0.2496   -0.1117    2.2667 H   0  0  0  0  0  0  0  0  0  0  0  0
    0.4864    0.3334    0.5830 H   0  0  0  0  0  0  0  0  0  0  0  0
   -1.9299    0.2696    1.0576 H   0  0  0  0  0  0  0  0  0  0  0  0
   -1.5930   -1.1501    0.0544 H   0  0  0  0  0  0  0  0  0  0  0  0
   -1.7928   -1.3265    1.7927 H   0  0  0  0  0  0  0  0  0  0  0  0
   -1.3690   -3.8424    7.4193 H   0  0  0  0  0  0  0  0  0  0  0  0
   -6.3977    1.0206    9.4508 H   0  0  0  0  0  0  0  0  0  0  0  0
   -5.2560    2.6989    8.0663 H   0  0  0  0  0  0  0  0  0  0  0  0
   -3.1492    2.1689    6.9111 H   0  0  0  0  0  0  0  0  0  0  0  0
  1  2  2  0  0  0  0
  2  3  1  0  0  0  0
  3  4  2  0  0  0  0
  3  5  1  0  0  0  0
  5  6  2  0  0  0  0
  6  7  1  0  0  0  0
  6  8  1  0  0  0  0
  8  9  2  0  0  0  0
  9 10  1  0  0  0  0
 10 11  2  0  0  0  0
 11 12  1  0  0  0  0
 12 13  2  0  0  0  0
 13 14  1  0  0  0  0
 14 15  3  0  0  0  0
 13 16  1  0  0  0  0
 16 17  3  0  0  0  0
  1 18  1  0  0  0  0
 18 19  2  0  0  0  0
 19 20  1  0  0  0  0
 20 21  1  0  0  0  0
 19 22  1  0  0  0  0
 22 23  1  0  0  0  0
 23 24  1  0  0  0  0
 24 25  1  0  0  0  0
 25 26  1  0  0  0  0
 26 27  1  0  0  0  0
 27 28  2  0  0  0  0
 28 29  1  0  0  0  0
 29 30  1  0  0  0  0
 27 31  1  0  0  0  0
 31 32  1  0  0  0  0
 32 33  1  0  0  0  0
 33 34  1  0  0  0  0
 34 35  1  0  0  0  0
 35 36  1  0  0  0  0
 36 37  1  0  0  0  0
 35 38  2  0  0  0  0
 38 39  1  0  0  0  0
 39 40  1  0  0  0  0
 40 41  1  0  0  0  0
 41 42  1  0  0  0  0
 42 43  1  0  0  0  0
 43 44  1  0  0  0  0
 44 45  1  0  0  0  0
 45 46  1  0  0  0  0
 46 47  1  0  0  0  0
 47 48  1  0  0  0  0
 45 49  1  0  0  0  0
 49 50  1  0  0  0  0
 42 51  1  0  0  0  0
 51 52  1  0  0  0  0
 38 53  1  0  0  0  0
 53 54  2  0  0  0  0
 54 55  1  0  0  0  0
 55 56  2  0  0  0  0
 55 57  1  0  0  0  0
 57 58  2  0  0  0  0
 58 59  1  0  0  0  0
 58 60  1  0  0  0  0
 60 61  2  0  0  0  0
 61 62  1  0  0  0  0
 62 63  2  0  0  0  0
 63 64  1  0  0  0  0
 64 65  2  0  0  0  0
 65 66  1  0  0  0  0
 66 67  3  0  0  0  0
 65 68  1  0  0  0  0
 68 69  3  0  0  0  0
 12  2  1  0  0  0  0
 48 18  1  0  0  0  0
 64 54  1  0  0  0  0
 11  5  1  0  0  0  0
 47 22  2  0  0  0  0
 63 57  1  0  0  0  0
 46 24  2  0  0  0  0
 44 25  2  0  0  0  0
 30 26  2  0  0  0  0
 43 31  2  0  0  0  0
 41 32  2  0  0  0  0
 40 34  2  0  0  0  0
  1 70  1  0  0  0  0
  8 71  1  0  0  0  0
  9 72  1  0  0  0  0
 10 73  1  0  0  0  0
 20 74  1  0  0  0  0
 20 75  1  0  0  0  0
 21 76  1  0  0  0  0
 21 77  1  0  0  0  0
 21 78  1  0  0  0  0
 36 79  1  0  0  0  0
 36 80  1  0  0  0  0
 37 81  1  0  0  0  0
 37 82  1  0  0  0  0
 37 83  1  0  0  0  0
 49 84  1  0  0  0  0
 49 85  1  0  0  0  0
 50 86  1  0  0  0  0
 50 87  1  0  0  0  0
 50 88  1  0  0  0  0
 51 89  1  0  0  0  0
 51 90  1  0  0  0  0
 52 91  1  0  0  0  0
 52 92  1  0  0  0  0
 52 93  1  0  0  0  0
 53 94  1  0  0  0  0
 60 95  1  0  0  0  0
 61 96  1  0  0  0  0
 62 97  1  0  0  0  0
M  END
