
  xtb     02022201323D
 energy: -196.594754127504 gnorm: 0.000313173100 xtb: 6.4.1 (unknown)
103115  0     0  0            999 V2000
    2.9313    8.1301    2.6174 C   0  0  0  0  0  0  0  0  0  0  0  0
    4.1406    8.2841    1.9789 C   0  0  0  0  0  0  0  0  0  0  0  0
    4.6599    7.4347    0.9045 C   0  0  0  0  0  0  0  0  0  0  0  0
    4.1104    6.4829    0.3809 O   0  0  0  0  0  0  0  0  0  0  0  0
    5.9955    7.9719    0.5754 C   0  0  0  0  0  0  0  0  0  0  0  0
    6.9303    7.5505   -0.3518 C   0  0  0  0  0  0  0  0  0  0  0  0
    6.6936    6.4953   -1.1388 F   0  0  0  0  0  0  0  0  0  0  0  0
    8.1389    8.2250   -0.4750 C   0  0  0  0  0  0  0  0  0  0  0  0
    8.3960    9.3169    0.3349 C   0  0  0  0  0  0  0  0  0  0  0  0
    7.4708    9.7600    1.2731 C   0  0  0  0  0  0  0  0  0  0  0  0
    6.2676    9.0851    1.3923 C   0  0  0  0  0  0  0  0  0  0  0  0
    5.1183    9.3076    2.2741 C   0  0  0  0  0  0  0  0  0  0  0  0
    5.0236   10.3149    3.2014 C   0  0  0  0  0  0  0  0  0  0  0  0
    3.9271   10.5490    4.0569 C   0  0  0  0  0  0  0  0  0  0  0  0
    3.0789   10.8094    4.7875 N   0  0  0  0  0  0  0  0  0  0  0  0
    6.0264   11.2788    3.4361 C   0  0  0  0  0  0  0  0  0  0  0  0
    6.7962   12.0936    3.6845 N   0  0  0  0  0  0  0  0  0  0  0  0
    1.9260    7.1740    2.4627 C   0  0  0  0  0  0  0  0  0  0  0  0
    0.7693    7.1445    3.2652 C   0  0  0  0  0  0  0  0  0  0  0  0
    0.4572    8.0843    4.3831 C   0  0  0  0  0  0  0  0  0  0  0  0
    1.1414    7.6326    5.6766 C   0  0  0  0  0  0  0  0  0  0  0  0
   -0.0410    6.0655    2.9445 C   0  0  0  0  0  0  0  0  0  0  0  0
   -1.5512    5.4818    3.6215 S   0  0  0  0  0  0  0  0  0  0  0  0
   -1.5000    4.1591    2.5085 C   0  0  0  0  0  0  0  0  0  0  0  0
   -2.2101    2.9868    2.2240 C   0  0  0  0  0  0  0  0  0  0  0  0
   -3.3121    2.3940    2.8803 C   0  0  0  0  0  0  0  0  0  0  0  0
   -3.7106    1.0708    2.5019 C   0  0  0  0  0  0  0  0  0  0  0  0
   -4.7062    0.6106    3.2428 N   0  0  0  0  0  0  0  0  0  0  0  0
   -5.1123    1.7487    4.3198 S   0  0  0  0  0  0  0  0  0  0  0  0
   -4.0294    2.8706    3.8852 N   0  0  0  0  0  0  0  0  0  0  0  0
   -3.0633    0.4493    1.4110 C   0  0  0  0  0  0  0  0  0  0  0  0
   -3.2766   -0.7960    0.8045 C   0  0  0  0  0  0  0  0  0  0  0  0
   -4.2193   -2.2241    1.0405 S   0  0  0  0  0  0  0  0  0  0  0  0
   -3.4560   -2.9369   -0.3634 C   0  0  0  0  0  0  0  0  0  0  0  0
   -3.5235   -4.2159   -0.9320 C   0  0  0  0  0  0  0  0  0  0  0  0
   -4.5018   -5.2616   -0.5160 C   0  0  0  0  0  0  0  0  0  0  0  0
   -5.9383   -4.7406   -0.5531 C   0  0  0  0  0  0  0  0  0  0  0  0
   -2.6498   -4.3287   -2.0070 C   0  0  0  0  0  0  0  0  0  0  0  0
   -1.8155   -2.8132   -2.3610 S   0  0  0  0  0  0  0  0  0  0  0  0
   -2.5441   -2.0725   -0.9875 C   0  0  0  0  0  0  0  0  0  0  0  0
   -2.4321   -0.8558   -0.3099 C   0  0  0  0  0  0  0  0  0  0  0  0
   -1.6890    0.2906   -0.4002 N   0  0  0  0  0  0  0  0  0  0  0  0
   -2.0371    1.1026    0.6678 C   0  0  0  0  0  0  0  0  0  0  0  0
   -1.5274    2.3364    1.1520 C   0  0  0  0  0  0  0  0  0  0  0  0
   -0.4208    3.0956    0.8204 N   0  0  0  0  0  0  0  0  0  0  0  0
   -0.3936    4.1838    1.6495 C   0  0  0  0  0  0  0  0  0  0  0  0
    0.4533    5.2672    1.8970 C   0  0  0  0  0  0  0  0  0  0  0  0
    1.9568    5.8516    1.2929 S   0  0  0  0  0  0  0  0  0  0  0  0
    0.7581    2.7539    0.0558 C   0  0  0  0  0  0  0  0  0  0  0  0
    1.4802    1.5469    0.6485 C   0  0  0  0  0  0  0  0  0  0  0  0
   -1.0492    0.6277   -1.6539 C   0  0  0  0  0  0  0  0  0  0  0  0
   -1.7293    1.8165   -2.3275 C   0  0  0  0  0  0  0  0  0  0  0  0
   -2.3352   -5.4354   -2.8228 C   0  0  0  0  0  0  0  0  0  0  0  0
   -2.1865   -6.7246   -2.3852 C   0  0  0  0  0  0  0  0  0  0  0  0
   -1.8943   -7.0840   -0.9787 C   0  0  0  0  0  0  0  0  0  0  0  0
   -1.9754   -6.3810    0.0061 O   0  0  0  0  0  0  0  0  0  0  0  0
   -1.3599   -8.4611   -1.0345 C   0  0  0  0  0  0  0  0  0  0  0  0
   -0.8660   -9.2202   -0.0140 C   0  0  0  0  0  0  0  0  0  0  0  0
   -0.3725  -10.5136   -0.2976 C   0  0  0  0  0  0  0  0  0  0  0  0
    0.1559  -11.3345    0.7171 C   0  0  0  0  0  0  0  0  0  0  0  0
    0.6386  -12.5771    0.4152 C   0  0  0  0  0  0  0  0  0  0  0  0
    1.1455  -13.3553    1.3817 F   0  0  0  0  0  0  0  0  0  0  0  0
    0.6111  -13.0529   -0.9107 C   0  0  0  0  0  0  0  0  0  0  0  0
    1.0915  -14.2749   -1.1775 F   0  0  0  0  0  0  0  0  0  0  0  0
    0.1026  -12.2800   -1.9168 C   0  0  0  0  0  0  0  0  0  0  0  0
   -0.4010  -10.9934   -1.6391 C   0  0  0  0  0  0  0  0  0  0  0  0
   -0.9215  -10.1837   -2.6751 C   0  0  0  0  0  0  0  0  0  0  0  0
   -1.3946   -8.9339   -2.3760 C   0  0  0  0  0  0  0  0  0  0  0  0
   -1.9575   -7.8842   -3.2182 C   0  0  0  0  0  0  0  0  0  0  0  0
   -2.2965   -7.9990   -4.5414 C   0  0  0  0  0  0  0  0  0  0  0  0
   -2.0866   -9.1616   -5.3095 C   0  0  0  0  0  0  0  0  0  0  0  0
   -1.9292  -10.0821   -5.9773 N   0  0  0  0  0  0  0  0  0  0  0  0
   -2.9388   -6.9806   -5.2763 C   0  0  0  0  0  0  0  0  0  0  0  0
   -3.4848   -6.1970   -5.9136 N   0  0  0  0  0  0  0  0  0  0  0  0
    2.7134    8.8557    3.3889 H   0  0  0  0  0  0  0  0  0  0  0  0
    8.8596    7.8848   -1.2018 H   0  0  0  0  0  0  0  0  0  0  0  0
    9.3364    9.8370    0.2370 H   0  0  0  0  0  0  0  0  0  0  0  0
    7.7024   10.6128    1.8884 H   0  0  0  0  0  0  0  0  0  0  0  0
   -0.6239    8.0859    4.5352 H   0  0  0  0  0  0  0  0  0  0  0  0
    0.7706    9.1012    4.1431 H   0  0  0  0  0  0  0  0  0  0  0  0
    0.8074    6.6352    5.9525 H   0  0  0  0  0  0  0  0  0  0  0  0
    0.8955    8.3192    6.4814 H   0  0  0  0  0  0  0  0  0  0  0  0
    2.2221    7.6169    5.5558 H   0  0  0  0  0  0  0  0  0  0  0  0
   -4.4139   -6.1251   -1.1763 H   0  0  0  0  0  0  0  0  0  0  0  0
   -4.2509   -5.5859    0.4971 H   0  0  0  0  0  0  0  0  0  0  0  0
   -6.1882   -4.3903   -1.5524 H   0  0  0  0  0  0  0  0  0  0  0  0
   -6.6234   -5.5415   -0.2876 H   0  0  0  0  0  0  0  0  0  0  0  0
   -6.0782   -3.9232    0.1486 H   0  0  0  0  0  0  0  0  0  0  0  0
    0.5018    2.5969   -0.9918 H   0  0  0  0  0  0  0  0  0  0  0  0
    1.4192    3.6226    0.0976 H   0  0  0  0  0  0  0  0  0  0  0  0
    1.8041    1.7711    1.6621 H   0  0  0  0  0  0  0  0  0  0  0  0
    0.8328    0.6737    0.6842 H   0  0  0  0  0  0  0  0  0  0  0  0
    2.3570    1.3128    0.0513 H   0  0  0  0  0  0  0  0  0  0  0  0
    0.0175    0.8027   -1.5105 H   0  0  0  0  0  0  0  0  0  0  0  0
   -1.1449   -0.2518   -2.2955 H   0  0  0  0  0  0  0  0  0  0  0  0
   -2.7706    1.5809   -2.5347 H   0  0  0  0  0  0  0  0  0  0  0  0
   -1.7017    2.7003   -1.6946 H   0  0  0  0  0  0  0  0  0  0  0  0
   -1.2323    2.0417   -3.2671 H   0  0  0  0  0  0  0  0  0  0  0  0
   -2.0970   -5.2095   -3.8563 H   0  0  0  0  0  0  0  0  0  0  0  0
   -0.8480   -8.8379    0.9953 H   0  0  0  0  0  0  0  0  0  0  0  0
    0.1849  -10.9842    1.7370 H   0  0  0  0  0  0  0  0  0  0  0  0
    0.0885  -12.6599   -2.9264 H   0  0  0  0  0  0  0  0  0  0  0  0
   -0.9217  -10.5680   -3.6825 H   0  0  0  0  0  0  0  0  0  0  0  0
  1  2  2  0  0  0  0
  2  3  1  0  0  0  0
  3  4  2  0  0  0  0
  3  5  1  0  0  0  0
  5  6  2  0  0  0  0
  6  7  1  0  0  0  0
  6  8  1  0  0  0  0
  8  9  2  0  0  0  0
  9 10  1  0  0  0  0
 10 11  2  0  0  0  0
 11 12  1  0  0  0  0
 12 13  2  0  0  0  0
 13 14  1  0  0  0  0
 14 15  3  0  0  0  0
 13 16  1  0  0  0  0
 16 17  3  0  0  0  0
  1 18  1  0  0  0  0
 18 19  2  0  0  0  0
 19 20  1  0  0  0  0
 20 21  1  0  0  0  0
 19 22  1  0  0  0  0
 22 23  1  0  0  0  0
 23 24  1  0  0  0  0
 24 25  1  0  0  0  0
 25 26  1  0  0  0  0
 26 27  1  0  0  0  0
 27 28  2  0  0  0  0
 28 29  1  0  0  0  0
 29 30  1  0  0  0  0
 27 31  1  0  0  0  0
 31 32  1  0  0  0  0
 32 33  1  0  0  0  0
 33 34  1  0  0  0  0
 34 35  1  0  0  0  0
 35 36  1  0  0  0  0
 36 37  1  0  0  0  0
 35 38  2  0  0  0  0
 38 39  1  0  0  0  0
 39 40  1  0  0  0  0
 40 41  1  0  0  0  0
 41 42  1  0  0  0  0
 42 43  1  0  0  0  0
 43 44  1  0  0  0  0
 44 45  1  0  0  0  0
 45 46  1  0  0  0  0
 46 47  1  0  0  0  0
 47 48  1  0  0  0  0
 45 49  1  0  0  0  0
 49 50  1  0  0  0  0
 42 51  1  0  0  0  0
 51 52  1  0  0  0  0
 38 53  1  0  0  0  0
 53 54  2  0  0  0  0
 54 55  1  0  0  0  0
 55 56  2  0  0  0  0
 55 57  1  0  0  0  0
 57 58  2  0  0  0  0
 58 59  1  0  0  0  0
 59 60  2  0  0  0  0
 60 61  1  0  0  0  0
 61 62  1  0  0  0  0
 61 63  2  0  0  0  0
 63 64  1  0  0  0  0
 63 65  1  0  0  0  0
 65 66  2  0  0  0  0
 66 67  1  0  0  0  0
 67 68  2  0  0  0  0
 68 69  1  0  0  0  0
 69 70  2  0  0  0  0
 70 71  1  0  0  0  0
 71 72  3  0  0  0  0
 70 73  1  0  0  0  0
 73 74  3  0  0  0  0
 12  2  1  0  0  0  0
 48 18  1  0  0  0  0
 69 54  1  0  0  0  0
 11  5  1  0  0  0  0
 47 22  2  0  0  0  0
 68 57  1  0  0  0  0
 46 24  2  0  0  0  0
 66 59  1  0  0  0  0
 44 25  2  0  0  0  0
 30 26  2  0  0  0  0
 43 31  2  0  0  0  0
 41 32  2  0  0  0  0
 40 34  2  0  0  0  0
  1 75  1  0  0  0  0
  8 76  1  0  0  0  0
  9 77  1  0  0  0  0
 10 78  1  0  0  0  0
 20 79  1  0  0  0  0
 20 80  1  0  0  0  0
 21 81  1  0  0  0  0
 21 82  1  0  0  0  0
 21 83  1  0  0  0  0
 36 84  1  0  0  0  0
 36 85  1  0  0  0  0
 37 86  1  0  0  0  0
 37 87  1  0  0  0  0
 37 88  1  0  0  0  0
 49 89  1  0  0  0  0
 49 90  1  0  0  0  0
 50 91  1  0  0  0  0
 50 92  1  0  0  0  0
 50 93  1  0  0  0  0
 51 94  1  0  0  0  0
 51 95  1  0  0  0  0
 52 96  1  0  0  0  0
 52 97  1  0  0  0  0
 52 98  1  0  0  0  0
 53 99  1  0  0  0  0
 58100  1  0  0  0  0
 60101  1  0  0  0  0
 65102  1  0  0  0  0
 67103  1  0  0  0  0
M  END
