97

C         -8.19890       -0.40030        0.16580
C         -8.56020       -1.72730        0.14200
C         -7.65040       -2.86880        0.27000
O         -6.43900       -2.84100        0.38510
C         -8.50550       -4.07200        0.22930
C         -8.17630       -5.41170        0.32070
F         -6.90600       -5.80020        0.47480
C         -9.17300       -6.37750        0.25380
C        -10.49110       -5.98740        0.09500
C        -10.84620       -4.64670        0.00090
C         -9.84980       -3.68740        0.06880
C         -9.91120       -2.22470        0.00370
C        -11.05900       -1.49350       -0.17270
C        -11.13780       -0.08730       -0.24760
N        -11.28830        1.04970       -0.32390
C        -12.34640       -2.05300       -0.31330
N        -13.42280       -2.43470       -0.43220
C         -6.94780        0.21050        0.27750
C         -6.78350        1.60920        0.30610
C         -7.88390        2.61870        0.28250
C         -8.47470        2.81710        1.68130
C         -5.44500        1.95670        0.41200
S         -4.62730        3.50680        0.49610
C         -3.11420        2.67240        0.56730
C         -1.74470        2.96370        0.66390
C         -1.02140        4.15910        0.88630
C          0.40250        4.09190        1.08830
N          0.92720        5.27470        1.36390
S         -0.25560        6.37890        1.36140
N         -1.48800        5.39080        1.01150
C          1.06780        2.85720        0.90270
C          2.42450        2.49500        0.86140
S          3.97730        3.19920        1.13470
C          4.73320        1.68870        0.67120
C          6.06890        1.29210        0.52880
C          7.24340        2.10700        0.95060
C          7.05180        2.76220        2.31660
C          6.15010       -0.01860        0.05730
S          4.56200       -0.77430       -0.11290
C          3.79550        0.69830        0.33450
C          2.48270        1.15640        0.44760
N          1.21460        0.66470        0.25570
C          0.33750        1.68780        0.56190
C         -1.07200        1.71170        0.61580
N         -1.99810        0.69030        0.57210
C         -3.23930        1.27470        0.52960
C         -4.56880        0.85690        0.44910
S         -5.40630       -0.64550        0.37680
C         -1.83420       -0.65330        1.09260
C         -2.39560       -0.76850        2.50910
C          0.98580       -0.40930       -0.69160
C          1.48170       -0.02890       -2.08640
C          7.25760       -0.83200       -0.24050
C          8.45850       -0.43240       -0.77180
C          8.65900        0.80890       -1.54550
O          7.87210        1.71280       -1.73130
C          9.99590        0.66780       -2.16920
C         10.64270        1.55160       -3.00950
C         11.89330        1.18940       -3.48420
F         12.55880        2.01840       -4.29770
C         12.46510       -0.03100       -3.12410
F         13.67090       -0.35720       -3.60330
C         11.81370       -0.92070       -2.28260
C         10.56450       -0.56280       -1.80090
C          9.63720       -1.25920       -0.91090
C          9.88240       -2.44000       -0.26010
C          9.01050       -3.02930        0.68010
N          8.35970       -3.55080        1.46940
C         11.05710       -3.20330       -0.42350
N         11.98750       -3.86780       -0.52290
H         -9.01240        0.30790        0.08940
H         -8.90220       -7.41890        0.32690
H        -11.26200       -6.74060        0.04350
H        -11.88160       -4.37680       -0.12100
H         -8.67610        2.32030       -0.40570
H         -7.46840        3.56660       -0.06530
H         -8.89400        1.88740        2.05880
H         -9.26560        3.56070        1.64320
H         -7.70670        3.15790        2.37170
H          8.12720        1.46640        0.97710
H          7.41990        2.87630        0.19270
H          6.26870        3.51420        2.28910
H          6.79300        2.01560        3.06430
H          7.97720        3.24560        2.61880
H         -0.77380       -0.89670        1.12410
H         -2.35660       -1.35160        0.43170
H         -2.20350       -1.76680        2.89150
H         -3.46820       -0.59940        2.51920
H         -1.91750       -0.04350        3.16470
H          1.51220       -1.30130       -0.33840
H         -0.08080       -0.61450       -0.75210
H          0.98880        0.88010       -2.42500
H          1.25220       -0.83040       -2.78280
H          2.55560        0.13430       -2.09130
H          7.09980       -1.89430       -0.09190
H         10.19640        2.49260       -3.28890
H         12.29360       -1.85420       -2.03840
