
  xtb     02022214293D
 energy: -226.363382669443 gnorm: 0.000329116675 xtb: 6.4.1 (unknown)
130146  0     0  0            999 V2000
   -2.9708   -3.6255    7.2586 C   0  0  0  0  0  0  0  0  0  0  0  0
   -3.9202   -2.7107    7.6561 C   0  0  0  0  0  0  0  0  0  0  0  0
   -4.0023   -1.3172    7.2152 C   0  0  0  0  0  0  0  0  0  0  0  0
   -3.2947   -0.7539    6.3999 O   0  0  0  0  0  0  0  0  0  0  0  0
   -5.1265   -0.7225    7.9669 C   0  0  0  0  0  0  0  0  0  0  0  0
   -5.6342    0.5631    7.9577 C   0  0  0  0  0  0  0  0  0  0  0  0
   -5.1014    1.5100    7.1770 F   0  0  0  0  0  0  0  0  0  0  0  0
   -6.7144    0.8891    8.7687 C   0  0  0  0  0  0  0  0  0  0  0  0
   -7.2736   -0.0809    9.5814 C   0  0  0  0  0  0  0  0  0  0  0  0
   -6.7811   -1.3807    9.6064 C   0  0  0  0  0  0  0  0  0  0  0  0
   -5.7053   -1.7014    8.7960 C   0  0  0  0  0  0  0  0  0  0  0  0
   -4.9774   -2.9600    8.6081 C   0  0  0  0  0  0  0  0  0  0  0  0
   -5.2867   -4.1465    9.2250 C   0  0  0  0  0  0  0  0  0  0  0  0
   -6.3516   -4.3143   10.1344 C   0  0  0  0  0  0  0  0  0  0  0  0
   -7.1990   -4.5255   10.8801 N   0  0  0  0  0  0  0  0  0  0  0  0
   -4.6150   -5.3749    9.0498 C   0  0  0  0  0  0  0  0  0  0  0  0
   -4.1377   -6.4175    8.9733 N   0  0  0  0  0  0  0  0  0  0  0  0
   -1.9391   -3.5183    6.3252 C   0  0  0  0  0  0  0  0  0  0  0  0
   -1.0472   -4.5811    6.0614 C   0  0  0  0  0  0  0  0  0  0  0  0
   -0.9756   -5.8147    6.8386 C   0  0  0  0  0  0  0  0  0  0  0  0
   -0.9411   -5.7912    8.2323 C   0  0  0  0  0  0  0  0  0  0  0  0
   -0.8781   -6.9762    8.9390 C   0  0  0  0  0  0  0  0  0  0  0  0
   -0.8427   -8.1871    8.2705 C   0  0  0  0  0  0  0  0  0  0  0  0
   -0.8574   -8.2297    6.8818 C   0  0  0  0  0  0  0  0  0  0  0  0
   -0.7564   -9.5345    6.1466 C   0  0  0  0  0  0  0  0  0  0  0  0
    0.7018   -9.8258    5.7859 C   0  0  0  0  0  0  0  0  0  0  0  0
   -0.9180   -7.0383    6.1770 C   0  0  0  0  0  0  0  0  0  0  0  0
   -0.2401   -4.3063    4.9625 C   0  0  0  0  0  0  0  0  0  0  0  0
    1.0217   -5.2140    4.1497 S   0  0  0  0  0  0  0  0  0  0  0  0
    1.2179   -3.8989    3.0423 C   0  0  0  0  0  0  0  0  0  0  0  0
    1.9872   -3.5602    1.9175 C   0  0  0  0  0  0  0  0  0  0  0  0
    3.0940   -4.1672    1.2787 C   0  0  0  0  0  0  0  0  0  0  0  0
    3.7484   -3.4760    0.1975 C   0  0  0  0  0  0  0  0  0  0  0  0
    4.8087   -4.1299   -0.2473 N   0  0  0  0  0  0  0  0  0  0  0  0
    4.9701   -5.4964    0.6049 S   0  0  0  0  0  0  0  0  0  0  0  0
    3.6919   -5.3080    1.5806 N   0  0  0  0  0  0  0  0  0  0  0  0
    3.1766   -2.2841   -0.3073 C   0  0  0  0  0  0  0  0  0  0  0  0
    3.4461   -1.4937   -1.4367 C   0  0  0  0  0  0  0  0  0  0  0  0
    4.6070   -1.3852   -2.7161 S   0  0  0  0  0  0  0  0  0  0  0  0
    3.6831   -0.0633   -3.4039 C   0  0  0  0  0  0  0  0  0  0  0  0
    3.8300    0.6900   -4.5664 C   0  0  0  0  0  0  0  0  0  0  0  0
    4.9043    0.4898   -5.5359 C   0  0  0  0  0  0  0  0  0  0  0  0
    4.6300    0.3672   -6.8969 C   0  0  0  0  0  0  0  0  0  0  0  0
    5.6636    0.1758   -7.7931 C   0  0  0  0  0  0  0  0  0  0  0  0
    6.9702    0.1035   -7.3453 C   0  0  0  0  0  0  0  0  0  0  0  0
    7.2610    0.2023   -5.9900 C   0  0  0  0  0  0  0  0  0  0  0  0
    8.6813    0.1655   -5.5056 C   0  0  0  0  0  0  0  0  0  0  0  0
    9.2698    1.5778   -5.4914 C   0  0  0  0  0  0  0  0  0  0  0  0
    6.2206    0.3903   -5.0943 C   0  0  0  0  0  0  0  0  0  0  0  0
    2.7986    1.6396   -4.6995 C   0  0  0  0  0  0  0  0  0  0  0  0
    1.6236    1.5354   -3.3913 S   0  0  0  0  0  0  0  0  0  0  0  0
    2.5387    0.2682   -2.6616 C   0  0  0  0  0  0  0  0  0  0  0  0
    2.4128   -0.5507   -1.5365 C   0  0  0  0  0  0  0  0  0  0  0  0
    1.5300   -0.7053   -0.4972 N   0  0  0  0  0  0  0  0  0  0  0  0
    1.9991   -1.7458    0.2790 C   0  0  0  0  0  0  0  0  0  0  0  0
    1.5172   -2.2889    1.4886 C   0  0  0  0  0  0  0  0  0  0  0  0
    0.5564   -1.8300    2.3654 N   0  0  0  0  0  0  0  0  0  0  0  0
    0.3609   -2.8176    3.2990 C   0  0  0  0  0  0  0  0  0  0  0  0
   -0.4706   -3.0397    4.3975 C   0  0  0  0  0  0  0  0  0  0  0  0
   -1.6943   -2.1573    5.2308 S   0  0  0  0  0  0  0  0  0  0  0  0
    0.2705   -0.4450    2.6868 C   0  0  0  0  0  0  0  0  0  0  0  0
    1.0151   -0.0058    3.9469 C   0  0  0  0  0  0  0  0  0  0  0  0
    0.1502   -0.2888   -0.6531 C   0  0  0  0  0  0  0  0  0  0  0  0
   -0.5176   -1.0233   -1.8149 C   0  0  0  0  0  0  0  0  0  0  0  0
    2.7961    2.6035   -5.7147 C   0  0  0  0  0  0  0  0  0  0  0  0
    1.8673    3.5622   -6.0328 C   0  0  0  0  0  0  0  0  0  0  0  0
    0.5787    3.7717   -5.3685 C   0  0  0  0  0  0  0  0  0  0  0  0
    0.1455    3.1898   -4.3867 O   0  0  0  0  0  0  0  0  0  0  0  0
   -0.1098    4.8323   -6.1218 C   0  0  0  0  0  0  0  0  0  0  0  0
   -1.3801    5.3467   -5.8750 C   0  0  0  0  0  0  0  0  0  0  0  0
   -1.7671    6.3272   -6.7566 C   0  0  0  0  0  0  0  0  0  0  0  0
   -0.9512    6.7601   -7.8099 C   0  0  0  0  0  0  0  0  0  0  0  0
    0.3044    6.2607   -8.0637 C   0  0  0  0  0  0  0  0  0  0  0  0
    0.7211    5.2661   -7.1748 C   0  0  0  0  0  0  0  0  0  0  0  0
    1.9717    4.5083   -7.1254 C   0  0  0  0  0  0  0  0  0  0  0  0
    3.0414    4.6905   -7.9649 C   0  0  0  0  0  0  0  0  0  0  0  0
    3.0829    5.6379   -9.0092 C   0  0  0  0  0  0  0  0  0  0  0  0
    3.1917    6.3805   -9.8785 N   0  0  0  0  0  0  0  0  0  0  0  0
    4.2646    3.9884   -7.9209 C   0  0  0  0  0  0  0  0  0  0  0  0
    5.2934    3.4781   -7.9661 N   0  0  0  0  0  0  0  0  0  0  0  0
   -1.9708    7.7600   -8.2947 C   0  0  0  0  0  0  0  0  0  0  0  0
   -1.7344    9.2532   -7.9591 C   0  0  0  0  0  0  0  0  0  0  0  0
   -0.9071    9.2831   -6.6980 C   0  0  0  0  0  0  0  0  0  0  0  0
   -1.6778    8.8758   -5.6985 C   0  0  0  0  0  0  0  0  0  0  0  0
   -3.0403    8.5624   -6.2658 C   0  0  0  0  0  0  0  0  0  0  0  0
   -3.1149    9.6119   -7.3863 C   0  0  0  0  0  0  0  0  0  0  0  0
   -2.8789    7.2797   -7.1189 C   0  0  0  0  0  0  0  0  0  0  0  0
   -3.0219   -4.6015    7.7251 H   0  0  0  0  0  0  0  0  0  0  0  0
   -7.1000    1.8962    8.7518 H   0  0  0  0  0  0  0  0  0  0  0  0
   -8.1113    0.1766   10.2110 H   0  0  0  0  0  0  0  0  0  0  0  0
   -7.2387   -2.1118   10.2512 H   0  0  0  0  0  0  0  0  0  0  0  0
   -0.9355   -4.8455    8.7548 H   0  0  0  0  0  0  0  0  0  0  0  0
   -0.8582   -6.9548   10.0180 H   0  0  0  0  0  0  0  0  0  0  0  0
   -0.8025   -9.1090    8.8318 H   0  0  0  0  0  0  0  0  0  0  0  0
   -1.1448  -10.3422    6.7692 H   0  0  0  0  0  0  0  0  0  0  0  0
   -1.3508   -9.4907    5.2319 H   0  0  0  0  0  0  0  0  0  0  0  0
    0.7796  -10.7693    5.2509 H   0  0  0  0  0  0  0  0  0  0  0  0
    1.1018   -9.0341    5.1564 H   0  0  0  0  0  0  0  0  0  0  0  0
    1.3090   -9.8861    6.6864 H   0  0  0  0  0  0  0  0  0  0  0  0
   -0.9490   -7.0577    5.0973 H   0  0  0  0  0  0  0  0  0  0  0  0
    3.6070    0.3934   -7.2439 H   0  0  0  0  0  0  0  0  0  0  0  0
    5.4478    0.0846   -8.8469 H   0  0  0  0  0  0  0  0  0  0  0  0
    7.7736   -0.0372   -8.0534 H   0  0  0  0  0  0  0  0  0  0  0  0
    9.2801   -0.4679   -6.1628 H   0  0  0  0  0  0  0  0  0  0  0  0
    8.7187   -0.2533   -4.4981 H   0  0  0  0  0  0  0  0  0  0  0  0
    9.2423    2.0082   -6.4897 H   0  0  0  0  0  0  0  0  0  0  0  0
    8.6943    2.2202   -4.8289 H   0  0  0  0  0  0  0  0  0  0  0  0
   10.3013    1.5572   -5.1477 H   0  0  0  0  0  0  0  0  0  0  0  0
    6.4328    0.4832   -4.0388 H   0  0  0  0  0  0  0  0  0  0  0  0
   -0.8074   -0.3337    2.8393 H   0  0  0  0  0  0  0  0  0  0  0  0
    0.5952    0.1853    1.8606 H   0  0  0  0  0  0  0  0  0  0  0  0
    0.6773   -0.5638    4.8150 H   0  0  0  0  0  0  0  0  0  0  0  0
    2.0858   -0.1570    3.8246 H   0  0  0  0  0  0  0  0  0  0  0  0
    0.8283    1.0493    4.1252 H   0  0  0  0  0  0  0  0  0  0  0  0
   -0.4021   -0.5119    0.2568 H   0  0  0  0  0  0  0  0  0  0  0  0
    0.1349    0.7890   -0.8397 H   0  0  0  0  0  0  0  0  0  0  0  0
   -0.4707   -2.0990   -1.6572 H   0  0  0  0  0  0  0  0  0  0  0  0
   -0.0327   -0.7845   -2.7569 H   0  0  0  0  0  0  0  0  0  0  0  0
   -1.5596   -0.7235   -1.8800 H   0  0  0  0  0  0  0  0  0  0  0  0
    3.6808    2.5622   -6.3380 H   0  0  0  0  0  0  0  0  0  0  0  0
   -1.9771    4.9790   -5.0550 H   0  0  0  0  0  0  0  0  0  0  0  0
    0.9153    6.6039   -8.8815 H   0  0  0  0  0  0  0  0  0  0  0  0
   -2.3334    7.6157   -9.3104 H   0  0  0  0  0  0  0  0  0  0  0  0
   -1.3655    9.8493   -8.7894 H   0  0  0  0  0  0  0  0  0  0  0  0
    0.1370    9.5347   -6.6730 H   0  0  0  0  0  0  0  0  0  0  0  0
   -1.4063    8.7189   -4.6709 H   0  0  0  0  0  0  0  0  0  0  0  0
   -3.8612    8.5309   -5.5541 H   0  0  0  0  0  0  0  0  0  0  0  0
   -3.1613   10.6314   -7.0062 H   0  0  0  0  0  0  0  0  0  0  0  0
   -3.9323    9.4425   -8.0858 H   0  0  0  0  0  0  0  0  0  0  0  0
   -3.8357    6.8240   -7.3672 H   0  0  0  0  0  0  0  0  0  0  0  0
  1  2  2  0  0  0  0
  2  3  1  0  0  0  0
  3  4  2  0  0  0  0
  3  5  1  0  0  0  0
  5  6  2  0  0  0  0
  6  7  1  0  0  0  0
  6  8  1  0  0  0  0
  8  9  2  0  0  0  0
  9 10  1  0  0  0  0
 10 11  2  0  0  0  0
 11 12  1  0  0  0  0
 12 13  2  0  0  0  0
 13 14  1  0  0  0  0
 14 15  3  0  0  0  0
 13 16  1  0  0  0  0
 16 17  3  0  0  0  0
  1 18  1  0  0  0  0
 18 19  2  0  0  0  0
 19 20  1  0  0  0  0
 20 21  2  0  0  0  0
 21 22  1  0  0  0  0
 22 23  2  0  0  0  0
 23 24  1  0  0  0  0
 24 25  1  0  0  0  0
 25 26  1  0  0  0  0
 24 27  2  0  0  0  0
 19 28  1  0  0  0  0
 28 29  1  0  0  0  0
 29 30  1  0  0  0  0
 30 31  1  0  0  0  0
 31 32  1  0  0  0  0
 32 33  1  0  0  0  0
 33 34  2  0  0  0  0
 34 35  1  0  0  0  0
 35 36  1  0  0  0  0
 33 37  1  0  0  0  0
 37 38  1  0  0  0  0
 38 39  1  0  0  0  0
 39 40  1  0  0  0  0
 40 41  1  0  0  0  0
 41 42  1  0  0  0  0
 42 43  2  0  0  0  0
 43 44  1  0  0  0  0
 44 45  2  0  0  0  0
 45 46  1  0  0  0  0
 46 47  1  0  0  0  0
 47 48  1  0  0  0  0
 46 49  2  0  0  0  0
 41 50  2  0  0  0  0
 50 51  1  0  0  0  0
 51 52  1  0  0  0  0
 52 53  1  0  0  0  0
 53 54  1  0  0  0  0
 54 55  1  0  0  0  0
 55 56  1  0  0  0  0
 56 57  1  0  0  0  0
 57 58  1  0  0  0  0
 58 59  1  0  0  0  0
 59 60  1  0  0  0  0
 57 61  1  0  0  0  0
 61 62  1  0  0  0  0
 54 63  1  0  0  0  0
 63 64  1  0  0  0  0
 50 65  1  0  0  0  0
 65 66  2  0  0  0  0
 66 67  1  0  0  0  0
 67 68  2  0  0  0  0
 67 69  1  0  0  0  0
 69 70  2  0  0  0  0
 70 71  1  0  0  0  0
 71 72  2  0  0  0  0
 72 73  1  0  0  0  0
 73 74  2  0  0  0  0
 74 75  1  0  0  0  0
 75 76  2  0  0  0  0
 76 77  1  0  0  0  0
 77 78  3  0  0  0  0
 76 79  1  0  0  0  0
 79 80  3  0  0  0  0
 72 81  1  0  0  0  0
 81 82  1  0  0  0  0
 82 83  1  0  0  0  0
 83 84  2  0  0  0  0
 84 85  1  0  0  0  0
 85 86  1  0  0  0  0
 85 87  1  0  0  0  0
 12  2  1  0  0  0  0
 60 18  1  0  0  0  0
 75 66  1  0  0  0  0
 87 81  1  0  0  0  0
 11  5  1  0  0  0  0
 27 20  1  0  0  0  0
 59 28  2  0  0  0  0
 74 69  1  0  0  0  0
 86 82  1  0  0  0  0
 58 30  2  0  0  0  0
 87 71  1  0  0  0  0
 56 31  2  0  0  0  0
 36 32  2  0  0  0  0
 55 37  2  0  0  0  0
 53 38  2  0  0  0  0
 52 40  2  0  0  0  0
 49 42  1  0  0  0  0
  1 88  1  0  0  0  0
  8 89  1  0  0  0  0
  9 90  1  0  0  0  0
 10 91  1  0  0  0  0
 21 92  1  0  0  0  0
 22 93  1  0  0  0  0
 23 94  1  0  0  0  0
 25 95  1  0  0  0  0
 25 96  1  0  0  0  0
 26 97  1  0  0  0  0
 26 98  1  0  0  0  0
 26 99  1  0  0  0  0
 27100  1  0  0  0  0
 43101  1  0  0  0  0
 44102  1  0  0  0  0
 45103  1  0  0  0  0
 47104  1  0  0  0  0
 47105  1  0  0  0  0
 48106  1  0  0  0  0
 48107  1  0  0  0  0
 48108  1  0  0  0  0
 49109  1  0  0  0  0
 61110  1  0  0  0  0
 61111  1  0  0  0  0
 62112  1  0  0  0  0
 62113  1  0  0  0  0
 62114  1  0  0  0  0
 63115  1  0  0  0  0
 63116  1  0  0  0  0
 64117  1  0  0  0  0
 64118  1  0  0  0  0
 64119  1  0  0  0  0
 65120  1  0  0  0  0
 70121  1  0  0  0  0
 73122  1  0  0  0  0
 81123  1  0  0  0  0
 82124  1  0  0  0  0
 83125  1  0  0  0  0
 84126  1  0  0  0  0
 85127  1  0  0  0  0
 86128  1  0  0  0  0
 86129  1  0  0  0  0
 87130  1  0  0  0  0
M  END
