86

C          4.43800        3.06070        2.62790
C          4.67990        4.37420        2.31030
C          3.97760        5.23760        1.33960
O          2.91780        5.05890        0.77250
C          4.84290        6.42520        1.16600
C          4.66470        7.48720        0.30280
C          5.63730        8.47520        0.32010
F          5.50990        9.52830       -0.50480
C          6.74210        8.41550        1.15640
C          6.90430        7.34510        2.02310
C          5.94590        6.34160        2.03080
C          5.82820        5.11250        2.81190
C          6.62130        4.78180        3.87890
C          6.45070        3.66290        4.72290
N          6.37420        2.79890        5.47570
C          7.70830        5.56380        4.32460
N          8.60740        6.14890        4.73330
C          3.40620        2.18530        2.25300
S          3.60720        0.49020        2.74410
C          2.12180        0.09420        1.99660
C          1.28550       -1.00220        1.77060
C          1.37390       -2.34520        2.18590
N          2.27400       -3.01230        2.91050
N          1.77820       -4.22070        2.99770
C          2.48140       -5.27430        3.67000
C          3.44440       -5.96940        2.71180
N          0.63350       -4.43010        2.39810
C          0.33040       -3.24780        1.85830
C         -0.73370       -2.81010        1.04570
C         -1.80470       -3.50210        0.47300
S         -2.46400       -5.07800        0.39660
C         -3.64310       -4.52990       -0.79980
C         -3.54260       -3.16790       -1.05460
C         -2.49730       -2.59190       -0.34310
N         -1.90810       -1.35640       -0.26850
C         -2.16130       -0.40440       -1.32980
C         -1.01290       -0.37260       -2.33430
C         -0.80650       -1.46270        0.57580
C          0.16700       -0.52890        1.01500
N          0.32090        0.83840        0.82960
C          1.50140        1.21600        1.41620
C          2.21930        2.39540        1.56170
C         -0.65330        1.84870        0.48130
C         -1.86770        1.80030        1.40580
C         -4.53260       -5.47680       -1.33530
C         -5.33060       -5.41330       -2.44480
C         -6.45620       -6.37790       -2.55090
O         -6.64340       -7.35470       -1.86350
C         -7.31420       -5.85790       -3.63930
C         -8.54040       -6.32310       -4.06770
C         -9.14900       -5.62330       -5.09950
F        -10.34400       -6.03810       -5.55080
C         -8.57180       -4.50480       -5.68170
C         -7.33460       -4.05320       -5.24710
C         -6.69780       -4.73610       -4.22180
C         -5.39430       -4.53080       -3.58500
C         -4.36930       -3.80980       -4.14580
C         -4.50450       -3.00740       -5.29720
N         -4.55020       -2.30460       -6.20430
C         -3.03420       -3.80900       -3.69890
N         -1.92150       -3.76270       -3.41740
H          5.18560        2.58350        3.25110
H          3.81210        7.54450       -0.35490
H          7.47030        9.21040        1.12220
H          7.76880        7.30770        2.66470
H          3.02870       -4.82610        4.50150
H          1.73610       -5.97910        4.04290
H          3.97820       -6.75860        3.23300
H          2.89650       -6.40540        1.88000
H          4.16570       -5.25440        2.32360
H         -4.23440       -2.64590       -1.69070
H         -2.37430        0.58200       -0.92020
H         -3.06690       -0.74010       -1.83780
H         -1.23010        0.34070       -3.12480
H         -0.07820       -0.09310       -1.85380
H         -0.89030       -1.35770       -2.77970
H          1.94440        3.36470        1.19060
H         -0.93690        1.76400       -0.56850
H         -0.15390        2.81210        0.59870
H         -2.58870        2.55840        1.11150
H         -2.34980        0.82600        1.37770
H         -1.56040        1.99550        2.43070
H         -4.65030       -6.38900       -0.75740
H         -9.00310       -7.18970       -3.62360
H         -9.09610       -3.99520       -6.47460
H         -6.89750       -3.17970       -5.70250
