75

C          0.24050       -7.19730        0.15540
C          0.82950       -8.15640        0.94240
C          1.50010       -7.99370        2.24740
O          1.81240       -6.97480        2.83150
C          1.71840       -9.36560        2.75640
C          2.26330       -9.74600        3.96600
C          2.35040      -11.10800        4.21040
F          2.87270      -11.52830        5.37490
C          1.91510      -12.05590        3.29630
C          1.37270      -11.65840        2.08360
C          1.27410      -10.30170        1.80870
C          0.76920       -9.57770        0.64390
C          0.39080      -10.16120       -0.53720
C          0.00740       -9.48420       -1.71520
N         -0.29270       -9.02370       -2.72390
C          0.37630      -11.55470       -0.76000
N          0.33660      -12.67490       -1.00780
C          0.23550       -5.79690        0.23970
S         -0.79150       -4.95990       -0.94510
C         -0.29340       -3.44150       -0.32460
C         -0.47090       -2.07390       -0.50490
S         -1.35050       -0.96070       -1.50810
C         -0.61280        0.36660       -0.64820
C          0.26920       -0.03730        0.36440
C          0.35160       -1.43050        0.45150
N          1.02600       -2.35500        1.19060
C          0.63330       -3.59120        0.74500
C          0.92400       -4.90960        1.05760
C          1.88700       -2.08720        2.31570
C          1.10530       -2.07860        3.62640
S          1.01560        1.29140        1.21350
C          0.14590        2.40380        0.20190
C         -0.00380        3.77480        0.00240
C         -0.93420        3.91900       -1.06320
N         -1.35320        2.68410       -1.49100
C         -2.21900        2.40350       -2.60860
C         -1.43010        2.26950       -3.90870
C         -0.68730        1.75900       -0.74140
C         -1.18400        5.24050       -1.38410
C         -0.45480        6.12290       -0.58210
S          0.55840        5.28830        0.59620
C         -0.55930        7.51310       -0.74540
C          0.06350        8.54210       -0.09210
C          1.05430        8.42150        0.99540
O          1.47300        7.40170        1.50630
C          1.43130        9.80390        1.33450
C          2.29360       10.45390        2.22900
C          2.21280       11.81160        2.07470
Cl         3.08500       12.98150        2.95200
S          1.08560       12.31660        0.83950
C          0.71650       10.67100        0.52290
C         -0.14570        9.95450       -0.37710
C         -0.97560       10.54760       -1.29630
C         -1.82900        9.88100       -2.19410
N         -2.54360        9.39880       -2.95360
C         -1.03170       11.95290       -1.40740
N         -1.08210       13.09530       -1.50370
H         -0.34090       -7.56860       -0.68070
H          2.60400       -9.01930        4.68600
H          2.00410      -13.10240        3.54210
H          1.03500      -12.40440        1.38370
H          1.58760       -5.24150        1.83390
H          2.36180       -1.11580        2.15420
H          2.65870       -2.86050        2.34330
H          0.33490       -1.31140        3.60240
H          0.63490       -3.04490        3.79180
H          1.77690       -1.87100        4.45410
H         -2.75310        1.47260       -2.39920
H         -2.94490        3.21630       -2.68740
H         -2.10810        2.07170       -4.73350
H         -0.72160        1.44790       -3.83660
H         -0.88280        3.18600       -4.11630
H         -1.84980        5.58500       -2.15490
H         -1.25390        7.79410       -1.52870
H          2.93240        9.96270        2.93850
