
  xtb     02012218243D
 energy: -180.653145022164 gnorm: 0.000222007490 xtb: 6.4.1 (unknown)
 91102  0     0  0            999 V2000
    3.8306    3.1003    5.8651 C   0  0  0  0  0  0  0  0  0  0  0  0
    3.4519    4.4050    5.7432 C   0  0  0  0  0  0  0  0  0  0  0  0
    3.2544    5.2323    6.9597 C   0  0  0  0  0  0  0  0  0  0  0  0
    3.6059    4.9691    8.0863 O   0  0  0  0  0  0  0  0  0  0  0  0
    2.4816    6.4097    6.4985 C   0  0  0  0  0  0  0  0  0  0  0  0
    1.9363    7.4317    7.2486 C   0  0  0  0  0  0  0  0  0  0  0  0
    1.2322    8.4077    6.5583 C   0  0  0  0  0  0  0  0  0  0  0  0
    0.6827    9.4211    7.2471 F   0  0  0  0  0  0  0  0  0  0  0  0
    1.0695    8.3774    5.1809 C   0  0  0  0  0  0  0  0  0  0  0  0
    1.6298    7.3503    4.4368 C   0  0  0  0  0  0  0  0  0  0  0  0
    2.3407    6.3613    5.0988 C   0  0  0  0  0  0  0  0  0  0  0  0
    3.0701    5.1990    4.5972 C   0  0  0  0  0  0  0  0  0  0  0  0
    3.5468    5.0507    3.3203 C   0  0  0  0  0  0  0  0  0  0  0  0
    4.5200    4.0908    2.9711 C   0  0  0  0  0  0  0  0  0  0  0  0
    5.3490    3.3582    2.6647 N   0  0  0  0  0  0  0  0  0  0  0  0
    3.1857    5.8785    2.2401 C   0  0  0  0  0  0  0  0  0  0  0  0
    2.8968    6.4980    1.3177 N   0  0  0  0  0  0  0  0  0  0  0  0
    3.6613    2.0391    4.9517 C   0  0  0  0  0  0  0  0  0  0  0  0
    4.3043    0.8065    4.9828 C   0  0  0  0  0  0  0  0  0  0  0  0
    5.3493    0.4037    5.9696 C   0  0  0  0  0  0  0  0  0  0  0  0
    4.7087   -0.3117    7.1625 C   0  0  0  0  0  0  0  0  0  0  0  0
    3.8428   -0.0355    3.9677 C   0  0  0  0  0  0  0  0  0  0  0  0
    2.8385    0.5223    3.1637 C   0  0  0  0  0  0  0  0  0  0  0  0
    2.4483    2.1207    3.6725 S   0  0  0  0  0  0  0  0  0  0  0  0
    2.4294   -0.3595    2.1617 C   0  0  0  0  0  0  0  0  0  0  0  0
    3.1085   -1.5833    2.2307 C   0  0  0  0  0  0  0  0  0  0  0  0
    4.2766   -1.6639    3.5010 S   0  0  0  0  0  0  0  0  0  0  0  0
    2.5698   -2.4041    1.2313 C   0  0  0  0  0  0  0  0  0  0  0  0
    2.7729   -3.7733    0.9496 C   0  0  0  0  0  0  0  0  0  0  0  0
    3.6094   -4.6215    1.5272 N   0  0  0  0  0  0  0  0  0  0  0  0
    3.3720   -6.0897    0.8903 S   0  0  0  0  0  0  0  0  0  0  0  0
    2.1935   -5.7011   -0.1473 N   0  0  0  0  0  0  0  0  0  0  0  0
    1.9448   -4.4058   -0.0342 C   0  0  0  0  0  0  0  0  0  0  0  0
    1.0413   -3.6134   -0.7767 C   0  0  0  0  0  0  0  0  0  0  0  0
    0.2020   -3.9404   -1.8502 C   0  0  0  0  0  0  0  0  0  0  0  0
   -0.2911   -5.3339   -2.7445 S   0  0  0  0  0  0  0  0  0  0  0  0
   -1.2900   -4.3056   -3.7434 C   0  0  0  0  0  0  0  0  0  0  0  0
   -2.1345   -4.5534   -4.8173 C   0  0  0  0  0  0  0  0  0  0  0  0
   -2.7671   -3.4089   -5.2755 C   0  0  0  0  0  0  0  0  0  0  0  0
   -2.2343   -1.9812   -4.3899 S   0  0  0  0  0  0  0  0  0  0  0  0
   -1.2236   -2.9470   -3.3829 C   0  0  0  0  0  0  0  0  0  0  0  0
   -0.3730   -2.7429   -2.2968 C   0  0  0  0  0  0  0  0  0  0  0  0
    0.0548   -1.6938   -1.5231 N   0  0  0  0  0  0  0  0  0  0  0  0
    0.0194   -0.3655   -2.0998 C   0  0  0  0  0  0  0  0  0  0  0  0
    1.3100   -0.0684   -2.8606 C   0  0  0  0  0  0  0  0  0  0  0  0
    0.9166   -2.2093   -0.5655 C   0  0  0  0  0  0  0  0  0  0  0  0
    1.5955   -1.6270    0.5362 C   0  0  0  0  0  0  0  0  0  0  0  0
    1.5161   -0.3893    1.1442 N   0  0  0  0  0  0  0  0  0  0  0  0
    0.5189    0.6527    1.0532 C   0  0  0  0  0  0  0  0  0  0  0  0
    1.0636    1.9094    0.3758 C   0  0  0  0  0  0  0  0  0  0  0  0
   -3.6570   -3.3423   -6.3660 C   0  0  0  0  0  0  0  0  0  0  0  0
   -4.5205   -2.3481   -6.7241 C   0  0  0  0  0  0  0  0  0  0  0  0
   -4.9954   -2.2571   -8.1276 C   0  0  0  0  0  0  0  0  0  0  0  0
   -4.8927   -3.0965   -8.9906 O   0  0  0  0  0  0  0  0  0  0  0  0
   -5.5648   -0.8936   -8.2497 C   0  0  0  0  0  0  0  0  0  0  0  0
   -6.0428   -0.2563   -9.3776 C   0  0  0  0  0  0  0  0  0  0  0  0
   -6.5034    1.0433   -9.2363 C   0  0  0  0  0  0  0  0  0  0  0  0
   -6.9724    1.6994  -10.3041 F   0  0  0  0  0  0  0  0  0  0  0  0
   -6.4813    1.6774   -7.9933 C   0  0  0  0  0  0  0  0  0  0  0  0
   -6.9193    2.9369   -7.8913 F   0  0  0  0  0  0  0  0  0  0  0  0
   -6.0127    1.0346   -6.8571 C   0  0  0  0  0  0  0  0  0  0  0  0
   -5.5510   -0.2642   -6.9921 C   0  0  0  0  0  0  0  0  0  0  0  0
   -5.0470   -1.2135   -6.0001 C   0  0  0  0  0  0  0  0  0  0  0  0
   -5.3041   -1.1605   -4.6551 C   0  0  0  0  0  0  0  0  0  0  0  0
   -5.1084   -2.2581   -3.7900 C   0  0  0  0  0  0  0  0  0  0  0  0
   -5.0181   -3.1466   -3.0690 N   0  0  0  0  0  0  0  0  0  0  0  0
   -5.8744   -0.0485   -4.0049 C   0  0  0  0  0  0  0  0  0  0  0  0
   -6.3056    0.8427   -3.4240 N   0  0  0  0  0  0  0  0  0  0  0  0
    4.2326    2.8302    6.8364 H   0  0  0  0  0  0  0  0  0  0  0  0
    2.0528    7.4724    8.3197 H   0  0  0  0  0  0  0  0  0  0  0  0
    0.5050    9.1616    4.7015 H   0  0  0  0  0  0  0  0  0  0  0  0
    1.4977    7.3277    3.3671 H   0  0  0  0  0  0  0  0  0  0  0  0
    5.9042    1.2769    6.3118 H   0  0  0  0  0  0  0  0  0  0  0  0
    6.0462   -0.2767    5.4765 H   0  0  0  0  0  0  0  0  0  0  0  0
    4.0058    0.3433    7.6725 H   0  0  0  0  0  0  0  0  0  0  0  0
    4.1758   -1.1991    6.8295 H   0  0  0  0  0  0  0  0  0  0  0  0
    5.4766   -0.6135    7.8694 H   0  0  0  0  0  0  0  0  0  0  0  0
   -2.3206   -5.5259   -5.2343 H   0  0  0  0  0  0  0  0  0  0  0  0
   -0.8294   -0.3458   -2.7883 H   0  0  0  0  0  0  0  0  0  0  0  0
   -0.1528    0.3916   -1.3416 H   0  0  0  0  0  0  0  0  0  0  0  0
    1.4545   -0.7926   -3.6591 H   0  0  0  0  0  0  0  0  0  0  0  0
    2.1681   -0.1192   -2.1932 H   0  0  0  0  0  0  0  0  0  0  0  0
    1.2620    0.9248   -3.2984 H   0  0  0  0  0  0  0  0  0  0  0  0
   -0.3642    0.2566    0.5507 H   0  0  0  0  0  0  0  0  0  0  0  0
    0.2225    0.9103    2.0763 H   0  0  0  0  0  0  0  0  0  0  0  0
    0.2742    2.6499    0.2822 H   0  0  0  0  0  0  0  0  0  0  0  0
    1.4643    1.6927   -0.6102 H   0  0  0  0  0  0  0  0  0  0  0  0
    1.8630    2.3378    0.9748 H   0  0  0  0  0  0  0  0  0  0  0  0
   -3.5909   -4.1680   -7.0685 H   0  0  0  0  0  0  0  0  0  0  0  0
   -6.0611   -0.7470  -10.3376 H   0  0  0  0  0  0  0  0  0  0  0  0
   -6.0130    1.5623   -5.9172 H   0  0  0  0  0  0  0  0  0  0  0  0
  1  2  2  0  0  0  0
  2  3  1  0  0  0  0
  3  4  2  0  0  0  0
  3  5  1  0  0  0  0
  5  6  2  0  0  0  0
  6  7  1  0  0  0  0
  7  8  1  0  0  0  0
  7  9  2  0  0  0  0
  9 10  1  0  0  0  0
 10 11  2  0  0  0  0
 11 12  1  0  0  0  0
 12 13  2  0  0  0  0
 13 14  1  0  0  0  0
 14 15  3  0  0  0  0
 13 16  1  0  0  0  0
 16 17  3  0  0  0  0
  1 18  1  0  0  0  0
 18 19  2  0  0  0  0
 19 20  1  0  0  0  0
 20 21  1  0  0  0  0
 19 22  1  0  0  0  0
 22 23  2  0  0  0  0
 23 24  1  0  0  0  0
 23 25  1  0  0  0  0
 25 26  2  0  0  0  0
 26 27  1  0  0  0  0
 26 28  1  0  0  0  0
 28 29  1  0  0  0  0
 29 30  2  0  0  0  0
 30 31  1  0  0  0  0
 31 32  1  0  0  0  0
 32 33  2  0  0  0  0
 33 34  1  0  0  0  0
 34 35  1  0  0  0  0
 35 36  1  0  0  0  0
 36 37  1  0  0  0  0
 37 38  1  0  0  0  0
 38 39  2  0  0  0  0
 39 40  1  0  0  0  0
 40 41  1  0  0  0  0
 41 42  1  0  0  0  0
 42 43  1  0  0  0  0
 43 44  1  0  0  0  0
 44 45  1  0  0  0  0
 43 46  1  0  0  0  0
 46 47  1  0  0  0  0
 47 48  1  0  0  0  0
 48 49  1  0  0  0  0
 49 50  1  0  0  0  0
 39 51  1  0  0  0  0
 51 52  2  0  0  0  0
 52 53  1  0  0  0  0
 53 54  2  0  0  0  0
 53 55  1  0  0  0  0
 55 56  2  0  0  0  0
 56 57  1  0  0  0  0
 57 58  1  0  0  0  0
 57 59  2  0  0  0  0
 59 60  1  0  0  0  0
 59 61  1  0  0  0  0
 61 62  2  0  0  0  0
 62 63  1  0  0  0  0
 63 64  2  0  0  0  0
 64 65  1  0  0  0  0
 65 66  3  0  0  0  0
 64 67  1  0  0  0  0
 67 68  3  0  0  0  0
 12  2  1  0  0  0  0
 24 18  1  0  0  0  0
 48 25  1  0  0  0  0
 63 52  1  0  0  0  0
 11  5  1  0  0  0  0
 27 22  1  0  0  0  0
 47 28  2  0  0  0  0
 62 55  1  0  0  0  0
 33 29  1  0  0  0  0
 46 34  2  0  0  0  0
 42 35  2  0  0  0  0
 41 37  2  0  0  0  0
  1 69  1  0  0  0  0
  6 70  1  0  0  0  0
  9 71  1  0  0  0  0
 10 72  1  0  0  0  0
 20 73  1  0  0  0  0
 20 74  1  0  0  0  0
 21 75  1  0  0  0  0
 21 76  1  0  0  0  0
 21 77  1  0  0  0  0
 38 78  1  0  0  0  0
 44 79  1  0  0  0  0
 44 80  1  0  0  0  0
 45 81  1  0  0  0  0
 45 82  1  0  0  0  0
 45 83  1  0  0  0  0
 49 84  1  0  0  0  0
 49 85  1  0  0  0  0
 50 86  1  0  0  0  0
 50 87  1  0  0  0  0
 50 88  1  0  0  0  0
 51 89  1  0  0  0  0
 56 90  1  0  0  0  0
 61 91  1  0  0  0  0
M  END
