
  xtb     01262216483D
 energy: -191.860208856073 gnorm: 0.000648903004 xtb: 6.4.1 (unknown)
103114  0     0  0            999 V2000
   -2.1129    6.0242    3.7993 C   0  0  0  0  0  0  0  0  0  0  0  0
   -2.8522    6.6391    4.7791 C   0  0  0  0  0  0  0  0  0  0  0  0
   -3.3803    5.9741    5.9837 C   0  0  0  0  0  0  0  0  0  0  0  0
   -3.1714    4.8401    6.3648 O   0  0  0  0  0  0  0  0  0  0  0  0
   -4.3383    6.9359    6.5760 C   0  0  0  0  0  0  0  0  0  0  0  0
   -5.1131    6.7830    7.7071 C   0  0  0  0  0  0  0  0  0  0  0  0
   -5.9491    7.8390    8.0395 C   0  0  0  0  0  0  0  0  0  0  0  0
   -6.7185    7.7381    9.1365 F   0  0  0  0  0  0  0  0  0  0  0  0
   -6.0226    8.9974    7.2810 C   0  0  0  0  0  0  0  0  0  0  0  0
   -5.2420    9.1355    6.1431 C   0  0  0  0  0  0  0  0  0  0  0  0
   -4.3928    8.0980    5.7871 C   0  0  0  0  0  0  0  0  0  0  0  0
   -3.4628    7.9472    4.6708 C   0  0  0  0  0  0  0  0  0  0  0  0
   -3.1580    8.9086    3.7422 C   0  0  0  0  0  0  0  0  0  0  0  0
   -3.7708   10.1773    3.6858 C   0  0  0  0  0  0  0  0  0  0  0  0
   -4.2389   11.2207    3.5839 N   0  0  0  0  0  0  0  0  0  0  0  0
   -2.1714    8.7741    2.7428 C   0  0  0  0  0  0  0  0  0  0  0  0
   -1.3670    8.7486    1.9236 N   0  0  0  0  0  0  0  0  0  0  0  0
   -1.3288    4.8623    3.9011 C   0  0  0  0  0  0  0  0  0  0  0  0
   -0.5474    4.3511    4.9395 C   0  0  0  0  0  0  0  0  0  0  0  0
   -0.3889    5.0380    6.2526 C   0  0  0  0  0  0  0  0  0  0  0  0
    0.9990    4.9064    6.8664 C   0  0  0  0  0  0  0  0  0  0  0  0
    0.1263    3.1869    4.5434 C   0  0  0  0  0  0  0  0  0  0  0  0
    1.2964    1.9770    5.4249 Se  0  0  0  0  0  2  0  0  0  0  0  0
    1.2772    1.0280    3.8321 C   0  0  0  0  0  0  0  0  0  0  0  0
    1.8537   -0.1211    3.2788 C   0  0  0  0  0  0  0  0  0  0  0  0
    2.8140   -1.0023    3.8190 C   0  0  0  0  0  0  0  0  0  0  0  0
    3.3291   -2.0486    2.9914 C   0  0  0  0  0  0  0  0  0  0  0  0
    4.2587   -2.7680    3.5994 N   0  0  0  0  0  0  0  0  0  0  0  0
    4.4654   -2.1741    5.0940 S   0  0  0  0  0  0  0  0  0  0  0  0
    3.3744   -0.9768    5.0177 N   0  0  0  0  0  0  0  0  0  0  0  0
    2.7689   -2.2349    1.7094 C   0  0  0  0  0  0  0  0  0  0  0  0
    2.9645   -3.2647    0.7843 C   0  0  0  0  0  0  0  0  0  0  0  0
    4.0041   -4.7958    0.5910 Se  0  0  0  0  0  2  0  0  0  0  0  0
    2.9864   -5.0692   -0.9902 C   0  0  0  0  0  0  0  0  0  0  0  0
    2.9843   -6.0780   -1.9427 C   0  0  0  0  0  0  0  0  0  0  0  0
    3.9474   -7.2190   -1.9038 C   0  0  0  0  0  0  0  0  0  0  0  0
    5.1581   -6.9407   -2.7977 C   0  0  0  0  0  0  0  0  0  0  0  0
    2.0173   -5.8512   -2.9392 C   0  0  0  0  0  0  0  0  0  0  0  0
    1.1241   -4.3577   -2.6588 S   0  0  0  0  0  0  0  0  0  0  0  0
    2.0343   -4.0608   -1.2267 C   0  0  0  0  0  0  0  0  0  0  0  0
    2.0354   -3.0630   -0.2458 C   0  0  0  0  0  0  0  0  0  0  0  0
    1.2983   -1.9375    0.0101 N   0  0  0  0  0  0  0  0  0  0  0  0
    1.7402   -1.3906    1.1962 C   0  0  0  0  0  0  0  0  0  0  0  0
    1.3658   -0.2435    1.9478 C   0  0  0  0  0  0  0  0  0  0  0  0
    0.5391    0.8397    1.6916 N   0  0  0  0  0  0  0  0  0  0  0  0
    0.4919    1.6071    2.8299 C   0  0  0  0  0  0  0  0  0  0  0  0
   -0.1312    2.7984    3.2170 C   0  0  0  0  0  0  0  0  0  0  0  0
   -1.1670    3.9185    2.4210 S   0  0  0  0  0  0  0  0  0  0  0  0
    0.2287    1.4740    0.4283 C   0  0  0  0  0  0  0  0  0  0  0  0
    1.4346    2.2483   -0.1009 C   0  0  0  0  0  0  0  0  0  0  0  0
    0.1158   -1.6612   -0.7732 C   0  0  0  0  0  0  0  0  0  0  0  0
    0.4486   -0.9604   -2.0902 C   0  0  0  0  0  0  0  0  0  0  0  0
    1.7943   -6.7307   -4.0014 C   0  0  0  0  0  0  0  0  0  0  0  0
    0.8974   -6.6770   -5.0428 C   0  0  0  0  0  0  0  0  0  0  0  0
   -0.0695   -5.6078   -5.2967 C   0  0  0  0  0  0  0  0  0  0  0  0
   -0.2339   -4.5821   -4.6589 O   0  0  0  0  0  0  0  0  0  0  0  0
   -0.8198   -6.0122   -6.5021 C   0  0  0  0  0  0  0  0  0  0  0  0
   -1.8478   -5.3389   -7.1297 C   0  0  0  0  0  0  0  0  0  0  0  0
   -2.4044   -5.9327   -8.2589 C   0  0  0  0  0  0  0  0  0  0  0  0
   -3.4080   -5.3557   -9.0102 O   0  0  0  0  0  0  0  0  0  0  0  0
   -4.3794   -4.5898   -8.4633 C   0  0  0  0  0  0  0  0  0  0  0  0
   -4.4955   -4.3699   -7.2919 O   0  0  0  0  0  0  0  0  0  0  0  0
   -5.2934   -4.0898   -9.5467 C   0  0  0  0  0  0  0  0  0  0  0  0
   -1.9203   -7.1514   -8.7330 C   0  0  0  0  0  0  0  0  0  0  0  0
   -0.8855   -7.8156   -8.0963 C   0  0  0  0  0  0  0  0  0  0  0  0
   -0.3276   -7.2446   -6.9617 C   0  0  0  0  0  0  0  0  0  0  0  0
    0.7484   -7.6841   -6.0739 C   0  0  0  0  0  0  0  0  0  0  0  0
    1.4642   -8.8458   -6.2198 C   0  0  0  0  0  0  0  0  0  0  0  0
    2.5070   -9.2853   -5.3789 C   0  0  0  0  0  0  0  0  0  0  0  0
    3.3646   -9.7128   -4.7440 N   0  0  0  0  0  0  0  0  0  0  0  0
    1.2516   -9.7794   -7.2556 C   0  0  0  0  0  0  0  0  0  0  0  0
    1.1341  -10.5799   -8.0703 N   0  0  0  0  0  0  0  0  0  0  0  0
   -2.1675    6.4427    2.8000 H   0  0  0  0  0  0  0  0  0  0  0  0
   -5.0703    5.8871    8.3055 H   0  0  0  0  0  0  0  0  0  0  0  0
   -6.6946    9.7839    7.5864 H   0  0  0  0  0  0  0  0  0  0  0  0
   -5.3108   10.0361    5.5555 H   0  0  0  0  0  0  0  0  0  0  0  0
   -0.6359    6.0953    6.1205 H   0  0  0  0  0  0  0  0  0  0  0  0
   -1.1341    4.6235    6.9410 H   0  0  0  0  0  0  0  0  0  0  0  0
    1.0817    5.5708    7.7229 H   0  0  0  0  0  0  0  0  0  0  0  0
    1.7692    5.1736    6.1453 H   0  0  0  0  0  0  0  0  0  0  0  0
    1.1826    3.8893    7.2145 H   0  0  0  0  0  0  0  0  0  0  0  0
    3.4720   -8.1504   -2.2150 H   0  0  0  0  0  0  0  0  0  0  0  0
    4.2874   -7.3363   -0.8699 H   0  0  0  0  0  0  0  0  0  0  0  0
    5.8550   -7.7720   -2.7436 H   0  0  0  0  0  0  0  0  0  0  0  0
    4.8518   -6.8156   -3.8335 H   0  0  0  0  0  0  0  0  0  0  0  0
    5.6657   -6.0350   -2.4722 H   0  0  0  0  0  0  0  0  0  0  0  0
   -0.6009    2.1618    0.6104 H   0  0  0  0  0  0  0  0  0  0  0  0
   -0.0941    0.7455   -0.3060 H   0  0  0  0  0  0  0  0  0  0  0  0
    1.7366    3.0137    0.6101 H   0  0  0  0  0  0  0  0  0  0  0  0
    1.1805    2.7305   -1.0406 H   0  0  0  0  0  0  0  0  0  0  0  0
    2.2766    1.5781   -0.2637 H   0  0  0  0  0  0  0  0  0  0  0  0
   -0.3563   -2.6218   -1.0045 H   0  0  0  0  0  0  0  0  0  0  0  0
   -0.5868   -1.0925   -0.1620 H   0  0  0  0  0  0  0  0  0  0  0  0
    0.9825   -1.6425   -2.7459 H   0  0  0  0  0  0  0  0  0  0  0  0
    1.0709   -0.0831   -1.9322 H   0  0  0  0  0  0  0  0  0  0  0  0
   -0.4687   -0.6621   -2.5899 H   0  0  0  0  0  0  0  0  0  0  0  0
    2.4395   -7.5982   -3.9791 H   0  0  0  0  0  0  0  0  0  0  0  0
   -2.1983   -4.3962   -6.7424 H   0  0  0  0  0  0  0  0  0  0  0  0
   -6.0468   -3.4386   -9.1150 H   0  0  0  0  0  0  0  0  0  0  0  0
   -4.7147   -3.5530  -10.2942 H   0  0  0  0  0  0  0  0  0  0  0  0
   -5.7720   -4.9363  -10.0338 H   0  0  0  0  0  0  0  0  0  0  0  0
   -2.3730   -7.5722   -9.6172 H   0  0  0  0  0  0  0  0  0  0  0  0
   -0.5384   -8.7571   -8.4884 H   0  0  0  0  0  0  0  0  0  0  0  0
  1  2  2  0  0  0  0
  2  3  1  0  0  0  0
  3  4  2  0  0  0  0
  3  5  1  0  0  0  0
  5  6  2  0  0  0  0
  6  7  1  0  0  0  0
  7  8  1  0  0  0  0
  7  9  2  0  0  0  0
  9 10  1  0  0  0  0
 10 11  2  0  0  0  0
 11 12  1  0  0  0  0
 12 13  2  0  0  0  0
 13 14  1  0  0  0  0
 14 15  3  0  0  0  0
 13 16  1  0  0  0  0
 16 17  3  0  0  0  0
  1 18  1  0  0  0  0
 18 19  2  0  0  0  0
 19 20  1  0  0  0  0
 20 21  1  0  0  0  0
 19 22  1  0  0  0  0
 22 23  1  0  0  0  0
 23 24  1  0  0  0  0
 24 25  1  0  0  0  0
 25 26  1  0  0  0  0
 26 27  1  0  0  0  0
 27 28  2  0  0  0  0
 28 29  1  0  0  0  0
 29 30  1  0  0  0  0
 27 31  1  0  0  0  0
 31 32  1  0  0  0  0
 32 33  1  0  0  0  0
 33 34  1  0  0  0  0
 34 35  1  0  0  0  0
 35 36  1  0  0  0  0
 36 37  1  0  0  0  0
 35 38  2  0  0  0  0
 38 39  1  0  0  0  0
 39 40  1  0  0  0  0
 40 41  1  0  0  0  0
 41 42  1  0  0  0  0
 42 43  1  0  0  0  0
 43 44  1  0  0  0  0
 44 45  1  0  0  0  0
 45 46  1  0  0  0  0
 46 47  1  0  0  0  0
 47 48  1  0  0  0  0
 45 49  1  0  0  0  0
 49 50  1  0  0  0  0
 42 51  1  0  0  0  0
 51 52  1  0  0  0  0
 38 53  1  0  0  0  0
 53 54  2  0  0  0  0
 54 55  1  0  0  0  0
 55 56  2  0  0  0  0
 55 57  1  0  0  0  0
 57 58  2  0  0  0  0
 58 59  1  0  0  0  0
 59 60  1  0  0  0  0
 60 61  1  0  0  0  0
 61 62  2  0  0  0  0
 61 63  1  0  0  0  0
 59 64  2  0  0  0  0
 64 65  1  0  0  0  0
 65 66  2  0  0  0  0
 66 67  1  0  0  0  0
 67 68  2  0  0  0  0
 68 69  1  0  0  0  0
 69 70  3  0  0  0  0
 68 71  1  0  0  0  0
 71 72  3  0  0  0  0
 12  2  1  0  0  0  0
 48 18  1  0  0  0  0
 67 54  1  0  0  0  0
 11  5  1  0  0  0  0
 47 22  2  0  0  0  0
 66 57  1  0  0  0  0
 46 24  2  0  0  0  0
 44 25  2  0  0  0  0
 30 26  2  0  0  0  0
 43 31  2  0  0  0  0
 41 32  2  0  0  0  0
 40 34  2  0  0  0  0
  1 73  1  0  0  0  0
  6 74  1  0  0  0  0
  9 75  1  0  0  0  0
 10 76  1  0  0  0  0
 20 77  1  0  0  0  0
 20 78  1  0  0  0  0
 21 79  1  0  0  0  0
 21 80  1  0  0  0  0
 21 81  1  0  0  0  0
 36 82  1  0  0  0  0
 36 83  1  0  0  0  0
 37 84  1  0  0  0  0
 37 85  1  0  0  0  0
 37 86  1  0  0  0  0
 49 87  1  0  0  0  0
 49 88  1  0  0  0  0
 50 89  1  0  0  0  0
 50 90  1  0  0  0  0
 50 91  1  0  0  0  0
 51 92  1  0  0  0  0
 51 93  1  0  0  0  0
 52 94  1  0  0  0  0
 52 95  1  0  0  0  0
 52 96  1  0  0  0  0
 53 97  1  0  0  0  0
 58 98  1  0  0  0  0
 63 99  1  0  0  0  0
 63100  1  0  0  0  0
 63101  1  0  0  0  0
 64102  1  0  0  0  0
 65103  1  0  0  0  0
M  END
