
  xtb     02012217193D
 energy: -182.552447629849 gnorm: 0.000737412246 xtb: 6.4.1 (unknown)
 98109  0     0  0            999 V2000
   -7.2890    4.8533   -0.2799 C   0  0  0  0  0  0  0  0  0  0  0  0
   -8.2982    3.9349   -0.2496 C   0  0  0  0  0  0  0  0  0  0  0  0
   -9.5256    4.1655   -1.0501 C   0  0  0  0  0  0  0  0  0  0  0  0
   -9.8663    5.1957   -1.5848 O   0  0  0  0  0  0  0  0  0  0  0  0
  -10.2013    2.8475   -1.1010 C   0  0  0  0  0  0  0  0  0  0  0  0
  -11.3258    2.4814   -1.8125 C   0  0  0  0  0  0  0  0  0  0  0  0
  -11.7373    1.1617   -1.6967 C   0  0  0  0  0  0  0  0  0  0  0  0
  -12.8261    0.7590   -2.3729 F   0  0  0  0  0  0  0  0  0  0  0  0
  -11.0658    0.2368   -0.9106 C   0  0  0  0  0  0  0  0  0  0  0  0
   -9.9420    0.6186   -0.1936 C   0  0  0  0  0  0  0  0  0  0  0  0
   -9.5072    1.9315   -0.2888 C   0  0  0  0  0  0  0  0  0  0  0  0
   -8.4047    2.6325    0.3665 C   0  0  0  0  0  0  0  0  0  0  0  0
   -7.7932    2.2411    1.5297 C   0  0  0  0  0  0  0  0  0  0  0  0
   -6.9868    3.1069    2.2979 C   0  0  0  0  0  0  0  0  0  0  0  0
   -6.3748    3.8058    2.9725 N   0  0  0  0  0  0  0  0  0  0  0  0
   -7.9690    0.9786    2.1275 C   0  0  0  0  0  0  0  0  0  0  0  0
   -8.0515   -0.0477    2.6356 N   0  0  0  0  0  0  0  0  0  0  0  0
   -5.9190    4.6807   -0.0003 C   0  0  0  0  0  0  0  0  0  0  0  0
   -4.9846    5.6892    0.2120 C   0  0  0  0  0  0  0  0  0  0  0  0
   -5.2899    7.1497    0.2593 C   0  0  0  0  0  0  0  0  0  0  0  0
   -5.1243    7.7776   -1.1277 C   0  0  0  0  0  0  0  0  0  0  0  0
   -3.6984    5.1692    0.3718 C   0  0  0  0  0  0  0  0  0  0  0  0
   -2.1507    5.9265    0.6731 S   0  0  0  0  0  0  0  0  0  0  0  0
   -1.4140    4.3654    0.6577 C   0  0  0  0  0  0  0  0  0  0  0  0
   -0.1389    3.7935    0.7737 C   0  0  0  0  0  0  0  0  0  0  0  0
    1.1315    4.4101    0.8719 C   0  0  0  0  0  0  0  0  0  0  0  0
    2.3012    3.5740    0.8401 C   0  0  0  0  0  0  0  0  0  0  0  0
    3.4494    4.2216    0.8734 N   0  0  0  0  0  0  0  0  0  0  0  0
    3.1195    5.9513    0.9551 Se  0  0  0  0  0  2  0  0  0  0  0  0
    1.3743    5.7047    0.9360 N   0  0  0  0  0  0  0  0  0  0  0  0
    2.1226    2.1701    0.8382 C   0  0  0  0  0  0  0  0  0  0  0  0
    3.0641    1.1386    0.9585 C   0  0  0  0  0  0  0  0  0  0  0  0
    4.7742    0.9431    1.0827 S   0  0  0  0  0  0  0  0  0  0  0  0
    4.5433   -0.7798    1.2861 C   0  0  0  0  0  0  0  0  0  0  0  0
    5.4433   -1.8448    1.4367 C   0  0  0  0  0  0  0  0  0  0  0  0
    6.9073   -1.6668    1.6619 C   0  0  0  0  0  0  0  0  0  0  0  0
    7.1930   -0.7032    2.8136 C   0  0  0  0  0  0  0  0  0  0  0  0
    4.7697   -3.0588    1.4982 C   0  0  0  0  0  0  0  0  0  0  0  0
    3.0166   -2.8585    1.4618 S   0  0  0  0  0  0  0  0  0  0  0  0
    3.1929   -1.1577    1.2561 C   0  0  0  0  0  0  0  0  0  0  0  0
    2.3487   -0.0596    1.0629 C   0  0  0  0  0  0  0  0  0  0  0  0
    1.0049    0.1949    0.9925 N   0  0  0  0  0  0  0  0  0  0  0  0
    0.8370    1.5562    0.8293 C   0  0  0  0  0  0  0  0  0  0  0  0
   -0.3067    2.3831    0.6682 C   0  0  0  0  0  0  0  0  0  0  0  0
   -1.6493    2.1146    0.4544 N   0  0  0  0  0  0  0  0  0  0  0  0
   -2.3132    3.3145    0.4402 C   0  0  0  0  0  0  0  0  0  0  0  0
   -3.6202    3.7726    0.2665 C   0  0  0  0  0  0  0  0  0  0  0  0
   -5.1695    3.0815   -0.0315 S   0  0  0  0  0  0  0  0  0  0  0  0
   -2.2761    0.9864   -0.2004 C   0  0  0  0  0  0  0  0  0  0  0  0
   -1.9616    0.9826   -1.6951 C   0  0  0  0  0  0  0  0  0  0  0  0
    0.0624   -0.8291    1.3826 C   0  0  0  0  0  0  0  0  0  0  0  0
   -0.2097   -1.8214    0.2528 C   0  0  0  0  0  0  0  0  0  0  0  0
    5.2544   -4.3784    1.6320 C   0  0  0  0  0  0  0  0  0  0  0  0
    6.3960   -4.8789    1.0701 C   0  0  0  0  0  0  0  0  0  0  0  0
    7.0852   -4.2930   -0.0990 C   0  0  0  0  0  0  0  0  0  0  0  0
    6.8686   -3.2341   -0.6740 O   0  0  0  0  0  0  0  0  0  0  0  0
    8.0434   -5.3032   -0.5331 C   0  0  0  0  0  0  0  0  0  0  0  0
    8.9006   -5.2153   -1.6251 C   0  0  0  0  0  0  0  0  0  0  0  0
    8.9198   -4.1381   -2.4172 O   0  0  0  0  0  0  0  0  0  0  0  0
    9.7508   -6.3049   -1.8570 C   0  0  0  0  0  0  0  0  0  0  0  0
    9.7069   -7.4095   -1.0290 C   0  0  0  0  0  0  0  0  0  0  0  0
    8.8365   -7.4987    0.0576 C   0  0  0  0  0  0  0  0  0  0  0  0
    7.9960   -6.4299    0.3059 C   0  0  0  0  0  0  0  0  0  0  0  0
    6.9823   -6.1820    1.3293 C   0  0  0  0  0  0  0  0  0  0  0  0
    6.6973   -6.9995    2.3903 C   0  0  0  0  0  0  0  0  0  0  0  0
    5.7804   -6.6896    3.4168 C   0  0  0  0  0  0  0  0  0  0  0  0
    5.0629   -6.4888    4.2905 N   0  0  0  0  0  0  0  0  0  0  0  0
    7.3140   -8.2495    2.6072 C   0  0  0  0  0  0  0  0  0  0  0  0
    7.7748   -9.2772    2.8282 N   0  0  0  0  0  0  0  0  0  0  0  0
   -7.5724    5.8267   -0.6678 H   0  0  0  0  0  0  0  0  0  0  0  0
  -11.8611    3.1870   -2.4274 H   0  0  0  0  0  0  0  0  0  0  0  0
  -11.4310   -0.7771   -0.8653 H   0  0  0  0  0  0  0  0  0  0  0  0
   -9.4205   -0.1040    0.4130 H   0  0  0  0  0  0  0  0  0  0  0  0
   -4.5933    7.6252    0.9523 H   0  0  0  0  0  0  0  0  0  0  0  0
   -6.3039    7.3126    0.6241 H   0  0  0  0  0  0  0  0  0  0  0  0
   -4.1072    7.6386   -1.4865 H   0  0  0  0  0  0  0  0  0  0  0  0
   -5.3317    8.8430   -1.0786 H   0  0  0  0  0  0  0  0  0  0  0  0
   -5.8084    7.3236   -1.8411 H   0  0  0  0  0  0  0  0  0  0  0  0
    7.3596   -1.2887    0.7416 H   0  0  0  0  0  0  0  0  0  0  0  0
    7.3599   -2.6335    1.8859 H   0  0  0  0  0  0  0  0  0  0  0  0
    8.2646   -0.6537    2.9886 H   0  0  0  0  0  0  0  0  0  0  0  0
    6.8362    0.2977    2.5891 H   0  0  0  0  0  0  0  0  0  0  0  0
    6.7107   -1.0501    3.7251 H   0  0  0  0  0  0  0  0  0  0  0  0
   -1.9697    0.0483    0.2496 H   0  0  0  0  0  0  0  0  0  0  0  0
   -3.3535    1.0944   -0.0496 H   0  0  0  0  0  0  0  0  0  0  0  0
   -2.4540    0.1416   -2.1754 H   0  0  0  0  0  0  0  0  0  0  0  0
   -2.3147    1.9011   -2.1582 H   0  0  0  0  0  0  0  0  0  0  0  0
   -0.8885    0.9063   -1.8597 H   0  0  0  0  0  0  0  0  0  0  0  0
    0.5018   -1.3750    2.2250 H   0  0  0  0  0  0  0  0  0  0  0  0
   -0.8481   -0.3513    1.7464 H   0  0  0  0  0  0  0  0  0  0  0  0
   -0.5180   -1.3159   -0.6583 H   0  0  0  0  0  0  0  0  0  0  0  0
    0.6904   -2.3901    0.0355 H   0  0  0  0  0  0  0  0  0  0  0  0
   -0.9882   -2.5169    0.5536 H   0  0  0  0  0  0  0  0  0  0  0  0
    4.6118   -5.0551    2.1833 H   0  0  0  0  0  0  0  0  0  0  0  0
    8.2482   -3.5031   -2.0973 H   0  0  0  0  0  0  0  0  0  0  0  0
   10.4325   -6.2615   -2.6913 H   0  0  0  0  0  0  0  0  0  0  0  0
   10.3686   -8.2383   -1.2306 H   0  0  0  0  0  0  0  0  0  0  0  0
    8.8300   -8.3841    0.6708 H   0  0  0  0  0  0  0  0  0  0  0  0
  1  2  2  0  0  0  0
  2  3  1  0  0  0  0
  3  4  2  0  0  0  0
  3  5  1  0  0  0  0
  5  6  2  0  0  0  0
  6  7  1  0  0  0  0
  7  8  1  0  0  0  0
  7  9  2  0  0  0  0
  9 10  1  0  0  0  0
 10 11  2  0  0  0  0
 11 12  1  0  0  0  0
 12 13  2  0  0  0  0
 13 14  1  0  0  0  0
 14 15  3  0  0  0  0
 13 16  1  0  0  0  0
 16 17  3  0  0  0  0
  1 18  1  0  0  0  0
 18 19  2  0  0  0  0
 19 20  1  0  0  0  0
 20 21  1  0  0  0  0
 19 22  1  0  0  0  0
 22 23  1  0  0  0  0
 23 24  1  0  0  0  0
 24 25  1  0  0  0  0
 25 26  1  0  0  0  0
 26 27  1  0  0  0  0
 27 28  2  0  0  0  0
 28 29  1  0  0  0  0
 29 30  1  0  0  0  0
 27 31  1  0  0  0  0
 31 32  1  0  0  0  0
 32 33  1  0  0  0  0
 33 34  1  0  0  0  0
 34 35  1  0  0  0  0
 35 36  1  0  0  0  0
 36 37  1  0  0  0  0
 35 38  2  0  0  0  0
 38 39  1  0  0  0  0
 39 40  1  0  0  0  0
 40 41  1  0  0  0  0
 41 42  1  0  0  0  0
 42 43  1  0  0  0  0
 43 44  1  0  0  0  0
 44 45  1  0  0  0  0
 45 46  1  0  0  0  0
 46 47  1  0  0  0  0
 47 48  1  0  0  0  0
 45 49  1  0  0  0  0
 49 50  1  0  0  0  0
 42 51  1  0  0  0  0
 51 52  1  0  0  0  0
 38 53  1  0  0  0  0
 53 54  2  0  0  0  0
 54 55  1  0  0  0  0
 55 56  2  0  0  0  0
 55 57  1  0  0  0  0
 57 58  2  0  0  0  0
 58 59  1  0  0  0  0
 58 60  1  0  0  0  0
 60 61  2  0  0  0  0
 61 62  1  0  0  0  0
 62 63  2  0  0  0  0
 63 64  1  0  0  0  0
 64 65  2  0  0  0  0
 65 66  1  0  0  0  0
 66 67  3  0  0  0  0
 65 68  1  0  0  0  0
 68 69  3  0  0  0  0
 12  2  1  0  0  0  0
 48 18  1  0  0  0  0
 64 54  1  0  0  0  0
 11  5  1  0  0  0  0
 47 22  2  0  0  0  0
 63 57  1  0  0  0  0
 46 24  2  0  0  0  0
 44 25  2  0  0  0  0
 30 26  2  0  0  0  0
 43 31  2  0  0  0  0
 41 32  2  0  0  0  0
 40 34  2  0  0  0  0
  1 70  1  0  0  0  0
  6 71  1  0  0  0  0
  9 72  1  0  0  0  0
 10 73  1  0  0  0  0
 20 74  1  0  0  0  0
 20 75  1  0  0  0  0
 21 76  1  0  0  0  0
 21 77  1  0  0  0  0
 21 78  1  0  0  0  0
 36 79  1  0  0  0  0
 36 80  1  0  0  0  0
 37 81  1  0  0  0  0
 37 82  1  0  0  0  0
 37 83  1  0  0  0  0
 49 84  1  0  0  0  0
 49 85  1  0  0  0  0
 50 86  1  0  0  0  0
 50 87  1  0  0  0  0
 50 88  1  0  0  0  0
 51 89  1  0  0  0  0
 51 90  1  0  0  0  0
 52 91  1  0  0  0  0
 52 92  1  0  0  0  0
 52 93  1  0  0  0  0
 53 94  1  0  0  0  0
 59 95  1  0  0  0  0
 60 96  1  0  0  0  0
 61 97  1  0  0  0  0
 62 98  1  0  0  0  0
M  END
