91

C          3.83060        3.10030        5.86510
C          3.45190        4.40500        5.74320
C          3.25440        5.23230        6.95970
O          3.60590        4.96910        8.08630
C          2.48160        6.40970        6.49850
C          1.93630        7.43170        7.24860
C          1.23220        8.40770        6.55830
F          0.68270        9.42110        7.24710
C          1.06950        8.37740        5.18090
C          1.62980        7.35030        4.43680
C          2.34070        6.36130        5.09880
C          3.07010        5.19900        4.59720
C          3.54680        5.05070        3.32030
C          4.52000        4.09080        2.97110
N          5.34900        3.35820        2.66470
C          3.18570        5.87850        2.24010
N          2.89680        6.49800        1.31770
C          3.66130        2.03910        4.95170
C          4.30430        0.80650        4.98280
C          5.34930        0.40370        5.96960
C          4.70870       -0.31170        7.16250
C          3.84280       -0.03550        3.96770
C          2.83850        0.52230        3.16370
S          2.44830        2.12070        3.67250
C          2.42940       -0.35950        2.16170
C          3.10850       -1.58330        2.23070
S          4.27660       -1.66390        3.50100
C          2.56980       -2.40410        1.23130
C          2.77290       -3.77330        0.94960
N          3.60940       -4.62150        1.52720
S          3.37200       -6.08970        0.89030
N          2.19350       -5.70110       -0.14730
C          1.94480       -4.40580       -0.03420
C          1.04130       -3.61340       -0.77670
C          0.20200       -3.94040       -1.85020
S         -0.29110       -5.33390       -2.74450
C         -1.29000       -4.30560       -3.74340
C         -2.13450       -4.55340       -4.81730
C         -2.76710       -3.40890       -5.27550
S         -2.23430       -1.98120       -4.38990
C         -1.22360       -2.94700       -3.38290
C         -0.37300       -2.74290       -2.29680
N          0.05480       -1.69380       -1.52310
C          0.01940       -0.36550       -2.09980
C          1.31000       -0.06840       -2.86060
C          0.91660       -2.20930       -0.56550
C          1.59550       -1.62700        0.53620
N          1.51610       -0.38930        1.14420
C          0.51890        0.65270        1.05320
C          1.06360        1.90940        0.37580
C         -3.65700       -3.34230       -6.36600
C         -4.52050       -2.34810       -6.72410
C         -4.99540       -2.25710       -8.12760
O         -4.89270       -3.09650       -8.99060
C         -5.56480       -0.89360       -8.24970
C         -6.04280       -0.25630       -9.37760
C         -6.50340        1.04330       -9.23630
F         -6.97240        1.69940      -10.30410
C         -6.48130        1.67740       -7.99330
F         -6.91930        2.93690       -7.89130
C         -6.01270        1.03460       -6.85710
C         -5.55100       -0.26420       -6.99210
C         -5.04700       -1.21350       -6.00010
C         -5.30410       -1.16050       -4.65510
C         -5.10840       -2.25810       -3.79000
N         -5.01810       -3.14660       -3.06900
C         -5.87440       -0.04850       -4.00490
N         -6.30560        0.84270       -3.42400
H          4.23260        2.83020        6.83640
H          2.05280        7.47240        8.31970
H          0.50500        9.16160        4.70150
H          1.49770        7.32770        3.36710
H          5.90420        1.27690        6.31180
H          6.04620       -0.27670        5.47650
H          4.00580        0.34330        7.67250
H          4.17580       -1.19910        6.82950
H          5.47660       -0.61350        7.86940
H         -2.32060       -5.52590       -5.23430
H         -0.82940       -0.34580       -2.78830
H         -0.15280        0.39160       -1.34160
H          1.45450       -0.79260       -3.65910
H          2.16810       -0.11920       -2.19320
H          1.26200        0.92480       -3.29840
H         -0.36420        0.25660        0.55070
H          0.22250        0.91030        2.07630
H          0.27420        2.64990        0.28220
H          1.46430        1.69270       -0.61020
H          1.86300        2.33780        0.97480
H         -3.59090       -4.16800       -7.06850
H         -6.06110       -0.74700      -10.33760
H         -6.01300        1.56230       -5.91720
