97

C          8.03380        2.85610        2.54430
C          7.76450        4.16460        2.82460
C          8.50560        4.85270        3.90950
O          9.51890        4.47930        4.45380
C          7.69880        6.05790        4.21640
C          7.87760        6.98220        5.22510
C          6.94890        8.01000        5.30410
F          7.08150        8.93220        6.27170
C          5.88320        8.12230        4.42340
C          5.71980        7.19310        3.40710
C          6.63320        6.15570        3.30210
C          6.75190        5.06960        2.33180
C          6.21440        5.06750        1.07020
C          5.24840        5.98730        0.62050
N          4.43000        6.68440        0.21690
C          6.63820        4.17810        0.06070
N          7.00150        3.50750       -0.79750
C          7.22250        1.89560        1.91130
C          7.63920        0.66100        1.41880
C          9.06080        0.21890        1.34230
C          9.76610        0.89460        0.16330
C          6.56830       -0.07020        0.90050
S          6.46700       -1.64430        0.14060
C          4.76390       -1.41920       -0.03930
C          3.64680       -2.10080       -0.53830
C          3.55840       -3.41370       -1.05840
C          2.26280       -3.91780       -1.41470
N          2.24930       -5.16070       -1.85590
Se         3.90100       -5.77730       -1.84970
N          4.55320       -4.26340       -1.22460
C          1.15090       -3.05090       -1.29740
C         -0.18690       -3.27240       -1.64590
S         -1.19330       -4.53810       -2.25250
C         -2.56160       -3.44640       -2.20460
C         -3.92090       -3.61280       -2.49940
C         -4.47880       -4.86530       -3.10000
C         -4.20960       -6.10710       -2.24950
C         -4.62220       -2.42630       -2.30830
S         -3.57400       -1.10290       -1.80460
C         -2.21850       -2.15900       -1.76560
C         -0.86650       -2.07140       -1.42420
N         -0.00150       -1.12720       -0.94700
C          1.24840       -1.70480       -0.82860
C          2.51640       -1.24350       -0.37030
N          2.95080       -0.09410        0.26270
C          4.30040       -0.19400        0.45230
C          5.32640        0.57250        1.00620
S          5.47620        2.10590        1.77540
C          2.29080        1.10740        0.71730
C          2.44640        2.24560       -0.29170
C         -0.51300        0.20150       -0.70410
C         -1.22200        0.28980        0.64750
C         -5.98120       -2.09710       -2.51810
C         -7.10040       -2.85660       -2.34170
C         -8.37030       -2.46700       -3.00380
O         -8.60200       -1.43460       -3.58790
C         -9.26610       -3.63600       -2.83580
C        -10.52990       -3.83640       -3.35490
C        -11.15800       -5.03940       -3.07340
F        -12.38240       -5.27630       -3.55800
C        -10.52650       -6.00900       -2.29320
F        -11.15110       -7.16650       -2.05250
C         -9.26180       -5.80450       -1.76150
C         -8.63050       -4.60270       -2.03660
C         -7.33530       -4.07710       -1.60460
C         -6.62960       -4.51540       -0.51510
C         -5.53220       -3.82520        0.03890
N         -4.66260       -3.28580        0.55910
C         -6.96980       -5.66280        0.23110
N         -7.19020       -6.59800        0.85850
H          8.97230        2.48730        2.94770
H          8.70000        6.91170        5.91880
H          5.18930        8.93970        4.54060
H          4.88830        7.28120        2.72670
H          9.08250       -0.86410        1.20800
H          9.58310        0.46600        2.26890
H         10.80050        0.56610        0.11020
H          9.26960        0.63900       -0.76920
H          9.74510        1.97600        0.27540
H         -5.54950       -4.74960       -3.27220
H         -4.00030       -5.00670       -4.07440
H         -4.71500       -6.96620       -2.68350
H         -4.56440       -5.97650       -1.23050
H         -3.14480       -6.31850       -2.20900
H          2.77670        1.40160        1.65360
H          1.24940        0.89940        0.94350
H          1.90500        3.12300        0.05040
H          2.07560        1.96090       -1.27430
H          3.49550        2.51090       -0.39760
H         -1.24190        0.41090       -1.49420
H          0.28600        0.93110       -0.79800
H         -0.57310       -0.03180        1.45990
H         -2.10030       -0.35030        0.65010
H         -1.54030        1.31200        0.83170
H         -6.16820       -1.09810       -2.90340
H        -11.01700       -3.08720       -3.95820
H         -8.81160       -6.58190       -1.16600
