91

C         -6.52860        2.33050        0.20230
C         -7.21460        1.38020        0.92170
C         -6.63250        0.21940        1.59520
O         -5.46810       -0.14070        1.59510
C         -7.74980       -0.44960        2.29300
C         -7.71330       -1.57710        3.08700
C         -8.91800       -1.99470        3.63310
F         -8.93320       -3.08680        4.41540
C        -10.10990       -1.32470        3.40270
C        -10.13090       -0.19340        2.60010
C         -8.94240        0.25020        2.03890
C         -8.64240        1.38830        1.16910
C         -9.57050        2.27210        0.67980
C        -10.95150        2.20720        0.96140
N        -12.08400        2.21650        1.14940
C         -9.30340        3.36130       -0.17560
N         -9.17180        4.26490       -0.87350
C         -5.17050        2.45050       -0.10080
C         -4.64450        3.54440       -0.81400
C         -5.42010        4.72370       -1.30200
C         -5.61010        5.75310       -0.18430
C         -3.27110        3.43030       -0.97030
C         -2.72460        2.25880       -0.41490
S         -3.92280        1.28280        0.34570
C         -1.34480        2.20070       -0.62110
C         -0.85600        3.32440       -1.30630
S         -2.07990        4.46930       -1.72970
C          0.53290        3.16690       -1.42570
C          1.56820        4.02650       -1.86320
N          1.46720        5.24850       -2.35980
S          2.95650        5.83600       -2.59570
N          3.79200        4.55130       -2.07660
C          2.93740        3.61380       -1.70170
C          3.21310        2.29650       -1.26440
C          4.39600        1.54890       -1.16880
S          6.10240        1.77800       -1.34070
C          6.33310        0.07200       -1.01750
C          7.44820       -0.73830       -0.95310
C          7.13220       -2.07390       -0.68610
S          5.39610       -2.30680       -0.50210
C          5.12970       -0.62780       -0.78740
C          4.02920        0.22710       -0.86690
N          2.66480        0.13710       -0.73980
C          1.98650       -1.12180       -0.97930
C          2.29340       -1.65700       -2.37730
C          2.15390        1.40190       -0.94780
C          0.83570        1.89850       -0.85910
N         -0.31400        1.33790       -0.34060
C         -0.40180        0.42820        0.78520
C         -0.67060        1.18420        2.08570
C          8.12030       -3.06170       -0.59610
C          8.01270       -4.41540       -0.39020
C          6.76050       -5.15690       -0.22870
O          5.62650       -4.71120       -0.19860
C          7.14010       -6.57890       -0.11150
C          6.31760       -7.67690        0.03620
C          6.93800       -8.91490        0.11400
F          6.17950      -10.01420        0.25640
C          8.31550       -9.06060        0.04850
C          9.12950       -7.94710       -0.09830
C          8.53980       -6.69380       -0.17880
C          9.11460       -5.35700       -0.33500
C         10.45500       -5.07840       -0.39930
C         11.02790       -3.79530       -0.52670
N         11.57700       -2.79120       -0.62650
C         11.47110       -6.05580       -0.33560
N         12.34760       -6.79570       -0.29060
H         -7.12550        3.14100       -0.19270
H         -6.79350       -2.10720        3.27530
H        -11.01650       -1.69420        3.85520
H        -11.06360        0.31830        2.43030
H         -6.39550        4.42100       -1.68570
H         -4.86040        5.18500       -2.11800
H         -6.16160        5.32190        0.64800
H         -4.64540        6.09850        0.17980
H         -6.16710        6.60580       -0.56160
H          8.45940       -0.40260       -1.09550
H          0.91200       -0.97010       -0.89930
H          2.31560       -1.84440       -0.22640
H          3.34950       -1.88530       -2.48570
H          1.72700       -2.56830       -2.54610
H          2.01190       -0.92470       -3.13130
H          0.54140       -0.10500        0.88760
H         -1.21190       -0.28320        0.59800
H         -1.63550        1.68150        2.05630
H         -0.67210        0.48330        2.91550
H          0.10480        1.92820        2.25670
H          9.12050       -2.66750       -0.72840
H          5.24520       -7.57780        0.08730
H          8.74290      -10.04880        0.11260
H         10.19780       -8.07490       -0.14910
