
  xtb     02012219153D
 energy: -176.450567472014 gnorm: 0.000293561712 xtb: 6.4.1 (unknown)
 91102  0     0  0            999 V2000
   -6.5286    2.3305    0.2023 C   0  0  0  0  0  0  0  0  0  0  0  0
   -7.2146    1.3802    0.9217 C   0  0  0  0  0  0  0  0  0  0  0  0
   -6.6325    0.2194    1.5952 C   0  0  0  0  0  0  0  0  0  0  0  0
   -5.4681   -0.1407    1.5951 O   0  0  0  0  0  0  0  0  0  0  0  0
   -7.7498   -0.4496    2.2930 C   0  0  0  0  0  0  0  0  0  0  0  0
   -7.7133   -1.5771    3.0870 C   0  0  0  0  0  0  0  0  0  0  0  0
   -8.9180   -1.9947    3.6331 C   0  0  0  0  0  0  0  0  0  0  0  0
   -8.9332   -3.0868    4.4154 F   0  0  0  0  0  0  0  0  0  0  0  0
  -10.1099   -1.3247    3.4027 C   0  0  0  0  0  0  0  0  0  0  0  0
  -10.1309   -0.1934    2.6001 C   0  0  0  0  0  0  0  0  0  0  0  0
   -8.9424    0.2502    2.0389 C   0  0  0  0  0  0  0  0  0  0  0  0
   -8.6424    1.3883    1.1691 C   0  0  0  0  0  0  0  0  0  0  0  0
   -9.5705    2.2721    0.6798 C   0  0  0  0  0  0  0  0  0  0  0  0
  -10.9515    2.2072    0.9614 C   0  0  0  0  0  0  0  0  0  0  0  0
  -12.0840    2.2165    1.1494 N   0  0  0  0  0  0  0  0  0  0  0  0
   -9.3034    3.3613   -0.1756 C   0  0  0  0  0  0  0  0  0  0  0  0
   -9.1718    4.2649   -0.8735 N   0  0  0  0  0  0  0  0  0  0  0  0
   -5.1705    2.4505   -0.1008 C   0  0  0  0  0  0  0  0  0  0  0  0
   -4.6445    3.5444   -0.8140 C   0  0  0  0  0  0  0  0  0  0  0  0
   -5.4201    4.7237   -1.3020 C   0  0  0  0  0  0  0  0  0  0  0  0
   -5.6101    5.7531   -0.1843 C   0  0  0  0  0  0  0  0  0  0  0  0
   -3.2711    3.4303   -0.9703 C   0  0  0  0  0  0  0  0  0  0  0  0
   -2.7246    2.2588   -0.4149 C   0  0  0  0  0  0  0  0  0  0  0  0
   -3.9228    1.2828    0.3457 S   0  0  0  0  0  0  0  0  0  0  0  0
   -1.3448    2.2007   -0.6211 C   0  0  0  0  0  0  0  0  0  0  0  0
   -0.8560    3.3244   -1.3063 C   0  0  0  0  0  0  0  0  0  0  0  0
   -2.0799    4.4693   -1.7297 S   0  0  0  0  0  0  0  0  0  0  0  0
    0.5329    3.1669   -1.4257 C   0  0  0  0  0  0  0  0  0  0  0  0
    1.5682    4.0265   -1.8632 C   0  0  0  0  0  0  0  0  0  0  0  0
    1.4672    5.2485   -2.3598 N   0  0  0  0  0  0  0  0  0  0  0  0
    2.9565    5.8360   -2.5957 S   0  0  0  0  0  0  0  0  0  0  0  0
    3.7920    4.5513   -2.0766 N   0  0  0  0  0  0  0  0  0  0  0  0
    2.9374    3.6138   -1.7017 C   0  0  0  0  0  0  0  0  0  0  0  0
    3.2131    2.2965   -1.2644 C   0  0  0  0  0  0  0  0  0  0  0  0
    4.3960    1.5489   -1.1688 C   0  0  0  0  0  0  0  0  0  0  0  0
    6.1024    1.7780   -1.3407 S   0  0  0  0  0  0  0  0  0  0  0  0
    6.3331    0.0720   -1.0175 C   0  0  0  0  0  0  0  0  0  0  0  0
    7.4482   -0.7383   -0.9531 C   0  0  0  0  0  0  0  0  0  0  0  0
    7.1322   -2.0739   -0.6861 C   0  0  0  0  0  0  0  0  0  0  0  0
    5.3961   -2.3068   -0.5021 S   0  0  0  0  0  0  0  0  0  0  0  0
    5.1297   -0.6278   -0.7874 C   0  0  0  0  0  0  0  0  0  0  0  0
    4.0292    0.2271   -0.8669 C   0  0  0  0  0  0  0  0  0  0  0  0
    2.6648    0.1371   -0.7398 N   0  0  0  0  0  0  0  0  0  0  0  0
    1.9865   -1.1218   -0.9793 C   0  0  0  0  0  0  0  0  0  0  0  0
    2.2934   -1.6570   -2.3773 C   0  0  0  0  0  0  0  0  0  0  0  0
    2.1539    1.4019   -0.9478 C   0  0  0  0  0  0  0  0  0  0  0  0
    0.8357    1.8985   -0.8591 C   0  0  0  0  0  0  0  0  0  0  0  0
   -0.3140    1.3379   -0.3406 N   0  0  0  0  0  0  0  0  0  0  0  0
   -0.4018    0.4282    0.7852 C   0  0  0  0  0  0  0  0  0  0  0  0
   -0.6706    1.1842    2.0857 C   0  0  0  0  0  0  0  0  0  0  0  0
    8.1203   -3.0617   -0.5961 C   0  0  0  0  0  0  0  0  0  0  0  0
    8.0127   -4.4154   -0.3902 C   0  0  0  0  0  0  0  0  0  0  0  0
    6.7605   -5.1569   -0.2287 C   0  0  0  0  0  0  0  0  0  0  0  0
    5.6265   -4.7112   -0.1986 O   0  0  0  0  0  0  0  0  0  0  0  0
    7.1401   -6.5789   -0.1115 C   0  0  0  0  0  0  0  0  0  0  0  0
    6.3176   -7.6769    0.0362 C   0  0  0  0  0  0  0  0  0  0  0  0
    6.9380   -8.9149    0.1140 C   0  0  0  0  0  0  0  0  0  0  0  0
    6.1795  -10.0142    0.2564 F   0  0  0  0  0  0  0  0  0  0  0  0
    8.3155   -9.0606    0.0485 C   0  0  0  0  0  0  0  0  0  0  0  0
    9.1295   -7.9471   -0.0983 C   0  0  0  0  0  0  0  0  0  0  0  0
    8.5398   -6.6938   -0.1788 C   0  0  0  0  0  0  0  0  0  0  0  0
    9.1146   -5.3570   -0.3350 C   0  0  0  0  0  0  0  0  0  0  0  0
   10.4550   -5.0784   -0.3993 C   0  0  0  0  0  0  0  0  0  0  0  0
   11.0279   -3.7953   -0.5267 C   0  0  0  0  0  0  0  0  0  0  0  0
   11.5770   -2.7912   -0.6265 N   0  0  0  0  0  0  0  0  0  0  0  0
   11.4711   -6.0558   -0.3356 C   0  0  0  0  0  0  0  0  0  0  0  0
   12.3476   -6.7957   -0.2906 N   0  0  0  0  0  0  0  0  0  0  0  0
   -7.1255    3.1410   -0.1927 H   0  0  0  0  0  0  0  0  0  0  0  0
   -6.7935   -2.1072    3.2753 H   0  0  0  0  0  0  0  0  0  0  0  0
  -11.0165   -1.6942    3.8552 H   0  0  0  0  0  0  0  0  0  0  0  0
  -11.0636    0.3183    2.4303 H   0  0  0  0  0  0  0  0  0  0  0  0
   -6.3955    4.4210   -1.6857 H   0  0  0  0  0  0  0  0  0  0  0  0
   -4.8604    5.1850   -2.1180 H   0  0  0  0  0  0  0  0  0  0  0  0
   -6.1616    5.3219    0.6480 H   0  0  0  0  0  0  0  0  0  0  0  0
   -4.6454    6.0985    0.1798 H   0  0  0  0  0  0  0  0  0  0  0  0
   -6.1671    6.6058   -0.5616 H   0  0  0  0  0  0  0  0  0  0  0  0
    8.4594   -0.4026   -1.0955 H   0  0  0  0  0  0  0  0  0  0  0  0
    0.9120   -0.9701   -0.8993 H   0  0  0  0  0  0  0  0  0  0  0  0
    2.3156   -1.8444   -0.2264 H   0  0  0  0  0  0  0  0  0  0  0  0
    3.3495   -1.8853   -2.4857 H   0  0  0  0  0  0  0  0  0  0  0  0
    1.7270   -2.5683   -2.5461 H   0  0  0  0  0  0  0  0  0  0  0  0
    2.0119   -0.9247   -3.1313 H   0  0  0  0  0  0  0  0  0  0  0  0
    0.5414   -0.1050    0.8876 H   0  0  0  0  0  0  0  0  0  0  0  0
   -1.2119   -0.2832    0.5980 H   0  0  0  0  0  0  0  0  0  0  0  0
   -1.6355    1.6815    2.0563 H   0  0  0  0  0  0  0  0  0  0  0  0
   -0.6721    0.4833    2.9155 H   0  0  0  0  0  0  0  0  0  0  0  0
    0.1048    1.9282    2.2567 H   0  0  0  0  0  0  0  0  0  0  0  0
    9.1205   -2.6675   -0.7284 H   0  0  0  0  0  0  0  0  0  0  0  0
    5.2452   -7.5778    0.0873 H   0  0  0  0  0  0  0  0  0  0  0  0
    8.7429  -10.0488    0.1126 H   0  0  0  0  0  0  0  0  0  0  0  0
   10.1978   -8.0749   -0.1491 H   0  0  0  0  0  0  0  0  0  0  0  0
  1  2  2  0  0  0  0
  2  3  1  0  0  0  0
  3  4  2  0  0  0  0
  3  5  1  0  0  0  0
  5  6  2  0  0  0  0
  6  7  1  0  0  0  0
  7  8  1  0  0  0  0
  7  9  2  0  0  0  0
  9 10  1  0  0  0  0
 10 11  2  0  0  0  0
 11 12  1  0  0  0  0
 12 13  2  0  0  0  0
 13 14  1  0  0  0  0
 14 15  3  0  0  0  0
 13 16  1  0  0  0  0
 16 17  3  0  0  0  0
  1 18  1  0  0  0  0
 18 19  2  0  0  0  0
 19 20  1  0  0  0  0
 20 21  1  0  0  0  0
 19 22  1  0  0  0  0
 22 23  2  0  0  0  0
 23 24  1  0  0  0  0
 23 25  1  0  0  0  0
 25 26  2  0  0  0  0
 26 27  1  0  0  0  0
 26 28  1  0  0  0  0
 28 29  1  0  0  0  0
 29 30  2  0  0  0  0
 30 31  1  0  0  0  0
 31 32  1  0  0  0  0
 32 33  2  0  0  0  0
 33 34  1  0  0  0  0
 34 35  1  0  0  0  0
 35 36  1  0  0  0  0
 36 37  1  0  0  0  0
 37 38  1  0  0  0  0
 38 39  2  0  0  0  0
 39 40  1  0  0  0  0
 40 41  1  0  0  0  0
 41 42  1  0  0  0  0
 42 43  1  0  0  0  0
 43 44  1  0  0  0  0
 44 45  1  0  0  0  0
 43 46  1  0  0  0  0
 46 47  1  0  0  0  0
 47 48  1  0  0  0  0
 48 49  1  0  0  0  0
 49 50  1  0  0  0  0
 39 51  1  0  0  0  0
 51 52  2  0  0  0  0
 52 53  1  0  0  0  0
 53 54  2  0  0  0  0
 53 55  1  0  0  0  0
 55 56  2  0  0  0  0
 56 57  1  0  0  0  0
 57 58  1  0  0  0  0
 57 59  2  0  0  0  0
 59 60  1  0  0  0  0
 60 61  2  0  0  0  0
 61 62  1  0  0  0  0
 62 63  2  0  0  0  0
 63 64  1  0  0  0  0
 64 65  3  0  0  0  0
 63 66  1  0  0  0  0
 66 67  3  0  0  0  0
 12  2  1  0  0  0  0
 24 18  1  0  0  0  0
 48 25  1  0  0  0  0
 62 52  1  0  0  0  0
 11  5  1  0  0  0  0
 27 22  1  0  0  0  0
 47 28  2  0  0  0  0
 61 55  1  0  0  0  0
 33 29  1  0  0  0  0
 46 34  2  0  0  0  0
 42 35  2  0  0  0  0
 41 37  2  0  0  0  0
  1 68  1  0  0  0  0
  6 69  1  0  0  0  0
  9 70  1  0  0  0  0
 10 71  1  0  0  0  0
 20 72  1  0  0  0  0
 20 73  1  0  0  0  0
 21 74  1  0  0  0  0
 21 75  1  0  0  0  0
 21 76  1  0  0  0  0
 38 77  1  0  0  0  0
 44 78  1  0  0  0  0
 44 79  1  0  0  0  0
 45 80  1  0  0  0  0
 45 81  1  0  0  0  0
 45 82  1  0  0  0  0
 49 83  1  0  0  0  0
 49 84  1  0  0  0  0
 50 85  1  0  0  0  0
 50 86  1  0  0  0  0
 50 87  1  0  0  0  0
 51 88  1  0  0  0  0
 56 89  1  0  0  0  0
 59 90  1  0  0  0  0
 60 91  1  0  0  0  0
M  END
