110

C          2.11190       -8.27380       -2.12280
C          2.49410       -7.96840       -3.40980
C          2.45710       -6.64570       -4.03090
O          2.09550       -5.59210       -3.53450
C          2.95190       -6.82760       -5.41080
C          3.10800       -5.87650       -6.39760
C          3.60770       -6.31680       -7.61420
F          3.77880       -5.42740       -8.60710
C          3.93920       -7.64310       -7.84420
C          3.77490       -8.58820       -6.84190
C          3.27640       -8.18010       -5.61350
C          2.99870       -8.91840       -4.38000
C          3.20440      -10.26380       -4.20590
C          3.70950      -11.12270       -5.20450
N          4.11260      -11.87760       -5.96980
C          2.95550      -10.99230       -3.02440
N          2.77830      -11.65650       -2.10310
C          1.65560       -7.45980       -1.08550
C          1.31490       -7.95700        0.18810
C          1.30390       -9.39700        0.58380
C          0.01890      -10.08370        0.11230
C          0.93580       -6.93480        1.04460
S          0.44020       -6.92360        2.72900
C          0.30620       -5.20190        2.64640
C          0.03690       -4.11770        3.49150
C         -0.16020       -4.07030        4.89330
C         -0.21540       -2.78200        5.53320
N         -0.32450       -2.81820        6.84650
Se        -0.37350       -4.50280        7.36440
N         -0.23500       -5.10150        5.71100
C         -0.20990       -1.62250        4.72000
C         -0.37530       -0.27180        5.05770
S         -0.54210        0.71660        6.46640
C         -0.72770        2.11600        5.42310
C         -0.94040        3.46230        5.69150
C         -0.98560        4.00830        7.08110
C          0.39470        4.51250        7.51140
C         -1.04400        4.21030        4.50640
S         -0.88310        3.20320        3.06630
C         -0.65950        1.80980        4.05400
C         -0.44500        0.44300        3.85610
N         -0.29150       -0.40650        2.79160
C         -0.13120       -1.68380        3.29820
C          0.13370       -2.93980        2.69250
N          0.50540       -3.30710        1.41760
C          0.60460       -4.67220        1.38320
C          0.97740       -5.65340        0.46340
S          1.47920       -5.70600       -1.18240
C          1.04760       -2.52340        0.33070
C          0.09220       -2.45490       -0.86050
C         -0.79000        0.03200        1.50530
C         -2.30850       -0.11780        1.43140
C         -1.23670        5.59710        4.49530
C         -1.38430        6.47550        3.45160
C         -1.43910        6.13090        2.02860
O         -1.29260        5.02980        1.52300
C         -1.72260        7.38240        1.30800
C         -1.90410        7.53630       -0.06470
C         -2.17100        8.82760       -0.45110
C         -2.25240        9.88810        0.46090
C         -2.07810        9.74880        1.81770
C         -1.80390        8.44220        2.23350
C         -1.57150        7.90820        3.57520
C         -1.51750        8.65490        4.72490
C         -1.69080       10.05380        4.77860
N         -1.82440       11.18740        4.90420
C         -1.26250        8.15900        6.02030
N         -1.05900        7.84190        7.10620
C         -2.54730       10.89940       -0.61880
C         -1.37840       11.81000       -1.05060
C         -1.80850       12.33310       -2.40220
C         -1.73330       11.32890       -3.26620
C         -1.25090       10.11010       -2.51320
C         -0.32760       10.78140       -1.48820
C         -2.45790        9.71630       -1.63560
H          2.17820       -9.31750       -1.84840
H          2.85520       -4.84160       -6.23120
H          4.32550       -7.92830       -8.81000
H          4.03690       -9.61510       -7.03480
H          1.35790       -9.45160        1.67280
H          2.16650       -9.92320        0.17190
H          0.03280      -11.12930        0.40580
H         -0.07220      -10.03130       -0.97010
H         -0.85080       -9.60640        0.55780
H         -1.29620        3.20480        7.75200
H         -1.70910        4.82050        7.16220
H          0.34740        4.88950        8.52880
H          0.72940        5.31860        6.86300
H          1.12200        3.70510        7.46950
H          1.31660       -1.53570        0.70800
H          1.97170       -3.01230        0.00330
H          0.46800       -1.74650       -1.59330
H         -0.90760       -2.15490       -0.55540
H          0.02360       -3.42900       -1.33660
H         -0.52040        1.08640        1.40140
H         -0.32960       -0.52290        0.69730
H         -2.78580        0.46270        2.21690
H         -2.66580        0.24230        0.47090
H         -2.59560       -1.16120        1.54740
H         -1.28060        6.02810        5.48620
H         -1.83790        6.69030       -0.73070
H         -2.15370       10.57450        2.50480
H         -3.49010       11.43440       -0.52270
H         -1.08010       12.54870       -0.31180
H         -2.16460       13.33200       -2.57320
H         -2.01420       11.32120       -4.30310
H         -0.83590        9.30030       -3.10740
H          0.53610       11.24970       -1.95720
H          0.00540       10.12000       -0.69040
H         -3.34210        9.46160       -2.21700
