
  xtb     02012219073D
 energy: -191.044374185120 gnorm: 0.000776436077 xtb: 6.4.1 (unknown)
 97108  0     0  0            999 V2000
   -3.5790    7.4813    0.8498 C   0  0  0  0  0  0  0  0  0  0  0  0
   -3.5938    7.7638    2.1858 C   0  0  0  0  0  0  0  0  0  0  0  0
   -3.5489    9.1758    2.6377 C   0  0  0  0  0  0  0  0  0  0  0  0
   -3.7207   10.1640    1.9617 O   0  0  0  0  0  0  0  0  0  0  0  0
   -3.1890    9.1071    4.0738 C   0  0  0  0  0  0  0  0  0  0  0  0
   -2.9093   10.1407    4.9441 C   0  0  0  0  0  0  0  0  0  0  0  0
   -2.5735    9.7905    6.2439 C   0  0  0  0  0  0  0  0  0  0  0  0
   -2.2929   10.7635    7.1263 F   0  0  0  0  0  0  0  0  0  0  0  0
   -2.5121    8.4718    6.6697 C   0  0  0  0  0  0  0  0  0  0  0  0
   -2.8041    7.4419    5.7880 C   0  0  0  0  0  0  0  0  0  0  0  0
   -3.1468    7.7613    4.4834 C   0  0  0  0  0  0  0  0  0  0  0  0
   -3.5453    6.9191    3.3567 C   0  0  0  0  0  0  0  0  0  0  0  0
   -4.0695    5.6539    3.4605 C   0  0  0  0  0  0  0  0  0  0  0  0
   -4.0734    4.8966    4.6477 C   0  0  0  0  0  0  0  0  0  0  0  0
   -4.0741    4.2286    5.5815 N   0  0  0  0  0  0  0  0  0  0  0  0
   -4.7504    5.0225    2.3988 C   0  0  0  0  0  0  0  0  0  0  0  0
   -5.3471    4.5063    1.5642 N   0  0  0  0  0  0  0  0  0  0  0  0
   -3.1816    6.3017    0.1882 C   0  0  0  0  0  0  0  0  0  0  0  0
   -3.4402    6.0003   -1.1451 C   0  0  0  0  0  0  0  0  0  0  0  0
   -4.2808    6.8341   -2.0570 C   0  0  0  0  0  0  0  0  0  0  0  0
   -3.4041    7.8001   -2.8593 C   0  0  0  0  0  0  0  0  0  0  0  0
   -2.8327    4.8166   -1.5765 C   0  0  0  0  0  0  0  0  0  0  0  0
   -2.8878    4.0301   -3.1399 S   0  0  0  0  0  0  0  0  0  0  0  0
   -1.8708    2.7809   -2.5239 C   0  0  0  0  0  0  0  0  0  0  0  0
   -1.2522    1.5991   -2.9579 C   0  0  0  0  0  0  0  0  0  0  0  0
   -1.1738    1.0080   -4.2379 C   0  0  0  0  0  0  0  0  0  0  0  0
   -0.3784   -0.1724   -4.4044 C   0  0  0  0  0  0  0  0  0  0  0  0
   -0.3450   -0.5869   -5.6612 N   0  0  0  0  0  0  0  0  0  0  0  0
   -1.2411    0.4197   -6.5570 S   0  0  0  0  0  0  0  0  0  0  0  0
   -1.7064    1.4233   -5.3766 N   0  0  0  0  0  0  0  0  0  0  0  0
    0.1901   -0.7776   -3.2616 C   0  0  0  0  0  0  0  0  0  0  0  0
    0.8486   -2.0044   -3.1098 C   0  0  0  0  0  0  0  0  0  0  0  0
    1.4062   -3.3122   -4.0823 S   0  0  0  0  0  0  0  0  0  0  0  0
    1.9110   -4.1559   -2.6335 C   0  0  0  0  0  0  0  0  0  0  0  0
    2.5579   -5.3906   -2.4875 C   0  0  0  0  0  0  0  0  0  0  0  0
    2.7494   -6.3465   -3.6175 C   0  0  0  0  0  0  0  0  0  0  0  0
    1.4425   -6.6479   -4.3520 C   0  0  0  0  0  0  0  0  0  0  0  0
    2.8687   -5.6848   -1.1619 C   0  0  0  0  0  0  0  0  0  0  0  0
    2.1958   -4.3721    0.0506 Se  0  0  0  0  0  2  0  0  0  0  0  0
    1.6442   -3.4307   -1.4569 C   0  0  0  0  0  0  0  0  0  0  0  0
    1.0432   -2.1995   -1.7371 C   0  0  0  0  0  0  0  0  0  0  0  0
    0.5575   -1.1231   -1.0387 N   0  0  0  0  0  0  0  0  0  0  0  0
    0.0419   -0.2222   -1.9571 C   0  0  0  0  0  0  0  0  0  0  0  0
   -0.5679    1.0529   -1.8333 C   0  0  0  0  0  0  0  0  0  0  0  0
   -0.7267    1.9184   -0.7618 N   0  0  0  0  0  0  0  0  0  0  0  0
   -1.5147    2.9592   -1.1823 C   0  0  0  0  0  0  0  0  0  0  0  0
   -2.0485    4.1293   -0.6371 C   0  0  0  0  0  0  0  0  0  0  0  0
   -2.0369    5.0104    1.0007 Se  0  0  0  0  0  2  0  0  0  0  0  0
    0.1236    2.1359    0.3862 C   0  0  0  0  0  0  0  0  0  0  0  0
    1.2509    3.1129    0.0567 C   0  0  0  0  0  0  0  0  0  0  0  0
    0.3236   -1.2462    0.3842 C   0  0  0  0  0  0  0  0  0  0  0  0
   -1.1496   -1.1049    0.7492 C   0  0  0  0  0  0  0  0  0  0  0  0
    3.5550   -6.7718   -0.5979 C   0  0  0  0  0  0  0  0  0  0  0  0
    4.6114   -7.4578   -1.1494 C   0  0  0  0  0  0  0  0  0  0  0  0
    5.4937   -6.9099   -2.1995 C   0  0  0  0  0  0  0  0  0  0  0  0
    5.3745   -5.8703   -2.8068 O   0  0  0  0  0  0  0  0  0  0  0  0
    6.6360   -7.8582   -2.2720 C   0  0  0  0  0  0  0  0  0  0  0  0
    6.4574   -8.8941   -1.3383 C   0  0  0  0  0  0  0  0  0  0  0  0
    7.3996   -9.8999   -1.2102 C   0  0  0  0  0  0  0  0  0  0  0  0
    8.5178   -9.8541   -2.0309 C   0  0  0  0  0  0  0  0  0  0  0  0
    9.4406  -10.8132   -1.9252 F   0  0  0  0  0  0  0  0  0  0  0  0
    8.7091   -8.8372   -2.9634 C   0  0  0  0  0  0  0  0  0  0  0  0
    9.7963   -8.8315   -3.7393 F   0  0  0  0  0  0  0  0  0  0  0  0
    7.7560   -7.8228   -3.0827 C   0  0  0  0  0  0  0  0  0  0  0  0
    7.9417   -6.8552   -3.9758 F   0  0  0  0  0  0  0  0  0  0  0  0
    5.1915   -8.6749   -0.6379 C   0  0  0  0  0  0  0  0  0  0  0  0
    4.6233   -9.5280    0.2738 C   0  0  0  0  0  0  0  0  0  0  0  0
    3.3483   -9.3431    0.8493 C   0  0  0  0  0  0  0  0  0  0  0  0
    2.3138   -9.2654    1.3415 N   0  0  0  0  0  0  0  0  0  0  0  0
    5.2251  -10.7187    0.7298 C   0  0  0  0  0  0  0  0  0  0  0  0
    5.6685  -11.6942    1.1412 N   0  0  0  0  0  0  0  0  0  0  0  0
   -3.8154    8.3272    0.2111 H   0  0  0  0  0  0  0  0  0  0  0  0
   -2.9521   11.1718    4.6317 H   0  0  0  0  0  0  0  0  0  0  0  0
   -2.2371    8.2620    7.6913 H   0  0  0  0  0  0  0  0  0  0  0  0
   -2.7506    6.4180    6.1212 H   0  0  0  0  0  0  0  0  0  0  0  0
   -5.0253    7.3901   -1.4878 H   0  0  0  0  0  0  0  0  0  0  0  0
   -4.8036    6.1699   -2.7483 H   0  0  0  0  0  0  0  0  0  0  0  0
   -2.6788    7.2485   -3.4528 H   0  0  0  0  0  0  0  0  0  0  0  0
   -4.0223    8.3911   -3.5295 H   0  0  0  0  0  0  0  0  0  0  0  0
   -2.8675    8.4753   -2.1965 H   0  0  0  0  0  0  0  0  0  0  0  0
    3.1598   -7.2816   -3.2351 H   0  0  0  0  0  0  0  0  0  0  0  0
    3.4781   -5.9203   -4.3124 H   0  0  0  0  0  0  0  0  0  0  0  0
    0.6953   -7.0224   -3.6552 H   0  0  0  0  0  0  0  0  0  0  0  0
    1.6213   -7.4091   -5.1070 H   0  0  0  0  0  0  0  0  0  0  0  0
    1.0484   -5.7648   -4.8455 H   0  0  0  0  0  0  0  0  0  0  0  0
   -0.5043    2.5482    1.1870 H   0  0  0  0  0  0  0  0  0  0  0  0
    0.5479    1.1979    0.7247 H   0  0  0  0  0  0  0  0  0  0  0  0
    0.8469    4.0801   -0.2357 H   0  0  0  0  0  0  0  0  0  0  0  0
    1.8833    3.2524    0.9289 H   0  0  0  0  0  0  0  0  0  0  0  0
    1.8581    2.7281   -0.7600 H   0  0  0  0  0  0  0  0  0  0  0  0
    0.6624   -2.2505    0.6657 H   0  0  0  0  0  0  0  0  0  0  0  0
    0.9466   -0.5432    0.9463 H   0  0  0  0  0  0  0  0  0  0  0  0
   -1.2742   -1.2511    1.8184 H   0  0  0  0  0  0  0  0  0  0  0  0
   -1.7346   -1.8575    0.2260 H   0  0  0  0  0  0  0  0  0  0  0  0
   -1.5379   -0.1254    0.4862 H   0  0  0  0  0  0  0  0  0  0  0  0
    3.2569   -7.0374    0.4117 H   0  0  0  0  0  0  0  0  0  0  0  0
    7.3048  -10.7081   -0.5041 H   0  0  0  0  0  0  0  0  0  0  0  0
  1  2  2  0  0  0  0
  2  3  1  0  0  0  0
  3  4  2  0  0  0  0
  3  5  1  0  0  0  0
  5  6  2  0  0  0  0
  6  7  1  0  0  0  0
  7  8  1  0  0  0  0
  7  9  2  0  0  0  0
  9 10  1  0  0  0  0
 10 11  2  0  0  0  0
 11 12  1  0  0  0  0
 12 13  2  0  0  0  0
 13 14  1  0  0  0  0
 14 15  3  0  0  0  0
 13 16  1  0  0  0  0
 16 17  3  0  0  0  0
  1 18  1  0  0  0  0
 18 19  2  0  0  0  0
 19 20  1  0  0  0  0
 20 21  1  0  0  0  0
 19 22  1  0  0  0  0
 22 23  1  0  0  0  0
 23 24  1  0  0  0  0
 24 25  1  0  0  0  0
 25 26  1  0  0  0  0
 26 27  1  0  0  0  0
 27 28  2  0  0  0  0
 28 29  1  0  0  0  0
 29 30  1  0  0  0  0
 27 31  1  0  0  0  0
 31 32  1  0  0  0  0
 32 33  1  0  0  0  0
 33 34  1  0  0  0  0
 34 35  1  0  0  0  0
 35 36  1  0  0  0  0
 36 37  1  0  0  0  0
 35 38  2  0  0  0  0
 38 39  1  0  0  0  0
 39 40  1  0  0  0  0
 40 41  1  0  0  0  0
 41 42  1  0  0  0  0
 42 43  1  0  0  0  0
 43 44  1  0  0  0  0
 44 45  1  0  0  0  0
 45 46  1  0  0  0  0
 46 47  1  0  0  0  0
 47 48  1  0  0  0  0
 45 49  1  0  0  0  0
 49 50  1  0  0  0  0
 42 51  1  0  0  0  0
 51 52  1  0  0  0  0
 38 53  1  0  0  0  0
 53 54  2  0  0  0  0
 54 55  1  0  0  0  0
 55 56  2  0  0  0  0
 55 57  1  0  0  0  0
 57 58  2  0  0  0  0
 58 59  1  0  0  0  0
 59 60  2  0  0  0  0
 60 61  1  0  0  0  0
 60 62  1  0  0  0  0
 62 63  1  0  0  0  0
 62 64  2  0  0  0  0
 64 65  1  0  0  0  0
 58 66  1  0  0  0  0
 66 67  2  0  0  0  0
 67 68  1  0  0  0  0
 68 69  3  0  0  0  0
 67 70  1  0  0  0  0
 70 71  3  0  0  0  0
 12  2  1  0  0  0  0
 48 18  1  0  0  0  0
 66 54  1  0  0  0  0
 11  5  1  0  0  0  0
 47 22  2  0  0  0  0
 64 57  1  0  0  0  0
 46 24  2  0  0  0  0
 44 25  2  0  0  0  0
 30 26  2  0  0  0  0
 43 31  2  0  0  0  0
 41 32  2  0  0  0  0
 40 34  2  0  0  0  0
  1 72  1  0  0  0  0
  6 73  1  0  0  0  0
  9 74  1  0  0  0  0
 10 75  1  0  0  0  0
 20 76  1  0  0  0  0
 20 77  1  0  0  0  0
 21 78  1  0  0  0  0
 21 79  1  0  0  0  0
 21 80  1  0  0  0  0
 36 81  1  0  0  0  0
 36 82  1  0  0  0  0
 37 83  1  0  0  0  0
 37 84  1  0  0  0  0
 37 85  1  0  0  0  0
 49 86  1  0  0  0  0
 49 87  1  0  0  0  0
 50 88  1  0  0  0  0
 50 89  1  0  0  0  0
 50 90  1  0  0  0  0
 51 91  1  0  0  0  0
 51 92  1  0  0  0  0
 52 93  1  0  0  0  0
 52 94  1  0  0  0  0
 52 95  1  0  0  0  0
 53 96  1  0  0  0  0
 59 97  1  0  0  0  0
M  END
