97

C         -7.31640       -1.99120       -3.60530
C         -8.68360       -1.94150       -3.58330
C         -9.47290       -1.23440       -2.55060
O         -9.05740       -0.58120       -1.61840
C        -10.87840       -1.63010       -2.79470
C        -12.00870       -1.23510       -2.10860
C        -13.21650       -1.76800       -2.53450
F        -14.34570       -1.40430       -1.90420
C        -13.30360       -2.66490       -3.58910
C        -12.15870       -3.05950       -4.26470
C        -10.93610       -2.53700       -3.86770
C         -9.58400       -2.74610       -4.38000
C         -9.24530       -3.49950       -5.47470
C         -7.94250       -3.60250       -6.00520
N         -6.91260       -3.71410       -6.50140
C        -10.16520       -4.25340       -6.23220
N        -10.86380       -4.89110       -6.88290
C         -6.41370       -1.07220       -3.02670
C         -6.44490        0.31480       -2.96440
C         -7.49630        1.18620       -3.57600
C         -8.17200        2.09660       -2.54960
C         -5.27290        0.86240       -2.41780
S         -4.81250        2.53820       -2.19630
C         -3.29310        2.02220       -1.56450
C         -2.08280        2.57240       -1.11920
C         -1.63770        3.91250       -1.09010
C         -0.27840        4.18130       -0.72620
N          0.02050        5.46870       -0.80140
S         -1.29830        6.27380       -1.28320
N         -2.30060        5.01070       -1.41730
C          0.53450        3.11030       -0.29400
C          1.83210        3.10030        0.23020
S          3.11980        4.20180        0.55540
C          4.02840        2.87860        1.27210
C          5.28850        2.89030        1.85050
C          6.11760        4.13440        1.87830
C          7.08430        4.16690        0.69080
C          5.70180        1.62930        2.32940
Se         4.37230        0.29450        2.02680
C          3.34940        1.64320        1.24580
C          2.10030        1.78760        0.63810
N          1.02010        0.98910        0.36760
C          0.04990        1.76770       -0.23160
C         -1.23500        1.48250       -0.76390
N         -1.91730        0.30120       -1.01670
C         -3.15210        0.63230       -1.51300
C         -4.27140       -0.03720       -2.01880
Se        -4.76810       -1.79210       -2.38410
C         -1.42270       -1.02870       -1.29310
C         -0.87590       -1.12460       -2.71580
C          0.95600       -0.32650        0.95930
C          1.74190       -1.35980        0.15210
C          6.94060        1.44270        2.93970
C          7.54470        0.31400        3.45640
C          6.97560       -1.02150        3.47370
O          5.87890       -1.37080        3.05210
C          7.97980       -1.89680        4.10770
C          7.91170       -3.25240        4.35410
C          8.99580       -3.86330        4.97430
Cl         8.97720       -5.54990        5.31160
C         10.10680       -3.09380        5.32430
F         11.14670       -3.68780        5.92140
C         10.18060       -1.73030        5.07910
C          9.10000       -1.12310        4.46130
C          8.85600        0.26610        4.06920
C          9.73040        1.30430        4.26740
C         10.99600        1.16560        4.87580
N         12.03410        1.12290        5.36330
C          9.50900        2.64930        3.90490
N          9.40800        3.76320        3.64080
H         -6.85030       -2.84500       -4.08820
H        -11.95730       -0.54210       -1.28410
H        -14.27010       -3.05060       -3.87280
H        -12.23560       -3.76240       -5.07780
H         -7.00970        1.80960       -4.33350
H         -8.24570        0.56970       -4.07380
H         -8.95740        2.67180       -3.03340
H         -8.61070        1.50180       -1.75390
H         -7.45380        2.78630       -2.11530
H          6.68210        4.21650        2.80820
H          5.44690        4.99370        1.81200
H          7.67350        5.07870        0.72220
H          7.76280        3.31740        0.72090
H          6.53280        4.13800       -0.24620
H         -2.27250       -1.71340       -1.17880
H         -0.66060       -1.32030       -0.58120
H         -0.51440       -2.13110       -2.90630
H         -1.65670       -0.89560       -3.43810
H         -0.05760       -0.42110       -2.85760
H         -0.09010       -0.60580        1.09620
H          1.40840       -0.25690        1.95800
H          1.55330       -2.35600        0.54230
H          1.47730       -1.33250       -0.90190
H          2.80980       -1.15960        0.23720
H          7.52480        2.35030        3.01350
H          7.03960       -3.82090        4.07320
H         11.06880       -1.19690        5.37600
