
  xtb     02012218583D
 energy: -182.653846511312 gnorm: 0.000460114077 xtb: 6.4.1 (unknown)
 97108  0     0  0            999 V2000
   -1.4103   -0.5990   -7.9142 C   0  0  0  0  0  0  0  0  0  0  0  0
   -0.6422    0.3264   -8.5911 C   0  0  0  0  0  0  0  0  0  0  0  0
    0.0994    1.4195   -7.9877 C   0  0  0  0  0  0  0  0  0  0  0  0
    0.1677    1.7092   -6.7985 O   0  0  0  0  0  0  0  0  0  0  0  0
    0.7604    2.1390   -9.0915 C   0  0  0  0  0  0  0  0  0  0  0  0
    1.5780    3.2484   -9.0308 C   0  0  0  0  0  0  0  0  0  0  0  0
    2.0712    3.7253  -10.2366 C   0  0  0  0  0  0  0  0  0  0  0  0
    2.8731    4.8033  -10.2296 F   0  0  0  0  0  0  0  0  0  0  0  0
    1.7671    3.1299  -11.4508 C   0  0  0  0  0  0  0  0  0  0  0  0
    0.9424    2.0145  -11.4954 C   0  0  0  0  0  0  0  0  0  0  0  0
    0.4333    1.5122  -10.3075 C   0  0  0  0  0  0  0  0  0  0  0  0
   -0.4440    0.3733  -10.0256 C   0  0  0  0  0  0  0  0  0  0  0  0
   -0.9579   -0.4768  -10.9713 C   0  0  0  0  0  0  0  0  0  0  0  0
   -1.7964   -1.5825  -10.7188 C   0  0  0  0  0  0  0  0  0  0  0  0
   -2.4794   -2.4990  -10.5994 N   0  0  0  0  0  0  0  0  0  0  0  0
   -0.7107   -0.3633  -12.3557 C   0  0  0  0  0  0  0  0  0  0  0  0
   -0.5531   -0.3296  -13.4924 N   0  0  0  0  0  0  0  0  0  0  0  0
   -1.6563   -0.7733   -6.5524 C   0  0  0  0  0  0  0  0  0  0  0  0
   -2.4673   -1.8209   -6.0675 C   0  0  0  0  0  0  0  0  0  0  0  0
   -3.1301   -2.8601   -6.9144 C   0  0  0  0  0  0  0  0  0  0  0  0
   -2.1584   -4.0007   -7.2313 C   0  0  0  0  0  0  0  0  0  0  0  0
   -2.5575   -1.8581   -4.6834 C   0  0  0  0  0  0  0  0  0  0  0  0
   -3.4370   -2.9711   -3.6429 S   0  0  0  0  0  0  0  0  0  0  0  0
   -2.8424   -2.1120   -2.2675 C   0  0  0  0  0  0  0  0  0  0  0  0
   -2.9310   -2.1401   -0.8690 C   0  0  0  0  0  0  0  0  0  0  0  0
   -3.7089   -2.9353    0.0025 C   0  0  0  0  0  0  0  0  0  0  0  0
   -3.6535   -2.6795    1.4128 C   0  0  0  0  0  0  0  0  0  0  0  0
   -4.4699   -3.4613    2.1006 N   0  0  0  0  0  0  0  0  0  0  0  0
   -5.2400   -4.4387    1.0647 S   0  0  0  0  0  0  0  0  0  0  0  0
   -4.5599   -3.9018   -0.3024 N   0  0  0  0  0  0  0  0  0  0  0  0
   -2.7259   -1.7299    1.8984 C   0  0  0  0  0  0  0  0  0  0  0  0
   -2.3161   -1.4249    3.2022 C   0  0  0  0  0  0  0  0  0  0  0  0
   -2.6845   -1.8670    4.8304 S   0  0  0  0  0  0  0  0  0  0  0  0
   -1.3286   -0.8873    5.3726 C   0  0  0  0  0  0  0  0  0  0  0  0
   -0.8418   -0.6871    6.6566 C   0  0  0  0  0  0  0  0  0  0  0  0
   -1.4695   -1.3595    7.8358 C   0  0  0  0  0  0  0  0  0  0  0  0
   -0.7671   -2.6859    8.1404 C   0  0  0  0  0  0  0  0  0  0  0  0
    0.3073    0.1290    6.7039 C   0  0  0  0  0  0  0  0  0  0  0  0
    0.8105    0.7330    4.9660 Se  0  0  0  0  0  2  0  0  0  0  0  0
   -0.6429   -0.2413    4.3253 C   0  0  0  0  0  0  0  0  0  0  0  0
   -1.2281   -0.5487    3.0954 C   0  0  0  0  0  0  0  0  0  0  0  0
   -0.9759   -0.2805    1.7768 N   0  0  0  0  0  0  0  0  0  0  0  0
   -1.8915   -0.9782    1.0168 C   0  0  0  0  0  0  0  0  0  0  0  0
   -2.0953   -1.0907   -0.3818 C   0  0  0  0  0  0  0  0  0  0  0  0
   -1.5620   -0.4146   -1.4648 N   0  0  0  0  0  0  0  0  0  0  0  0
   -2.0113   -1.0367   -2.6016 C   0  0  0  0  0  0  0  0  0  0  0  0
   -1.8473   -0.8682   -3.9771 C   0  0  0  0  0  0  0  0  0  0  0  0
   -0.9520    0.2878   -5.1284 Se  0  0  0  0  0  2  0  0  0  0  0  0
   -1.1155    0.9556   -1.5882 C   0  0  0  0  0  0  0  0  0  0  0  0
   -2.2876    1.8885   -1.8888 C   0  0  0  0  0  0  0  0  0  0  0  0
    0.2540    0.3821    1.4116 C   0  0  0  0  0  0  0  0  0  0  0  0
    0.1640    1.8970    1.5986 C   0  0  0  0  0  0  0  0  0  0  0  0
    0.9672    0.4105    7.9002 C   0  0  0  0  0  0  0  0  0  0  0  0
    2.1130    1.1333    8.1611 C   0  0  0  0  0  0  0  0  0  0  0  0
    2.9335    1.8145    7.1730 C   0  0  0  0  0  0  0  0  0  0  0  0
    2.7293    1.8978    5.9664 O   0  0  0  0  0  0  0  0  0  0  0  0
    4.0699    2.4017    7.9001 C   0  0  0  0  0  0  0  0  0  0  0  0
    5.1358    3.1290    7.4062 C   0  0  0  0  0  0  0  0  0  0  0  0
    6.0988    3.5756    8.2976 C   0  0  0  0  0  0  0  0  0  0  0  0
    5.9581    3.2805    9.6449 C   0  0  0  0  0  0  0  0  0  0  0  0
    6.8997    3.7191   10.4950 F   0  0  0  0  0  0  0  0  0  0  0  0
    4.8941    2.5527   10.1639 C   0  0  0  0  0  0  0  0  0  0  0  0
    3.9366    2.1075    9.2695 C   0  0  0  0  0  0  0  0  0  0  0  0
    2.7130    1.3235    9.4649 C   0  0  0  0  0  0  0  0  0  0  0  0
    2.2513    0.8762   10.6761 C   0  0  0  0  0  0  0  0  0  0  0  0
    1.0750    0.1259   10.8832 C   0  0  0  0  0  0  0  0  0  0  0  0
    0.1353   -0.4862   11.1341 N   0  0  0  0  0  0  0  0  0  0  0  0
    2.8990    1.1147   11.9070 C   0  0  0  0  0  0  0  0  0  0  0  0
    3.3736    1.2703   12.9403 N   0  0  0  0  0  0  0  0  0  0  0  0
   -1.9068   -1.3298   -8.5388 H   0  0  0  0  0  0  0  0  0  0  0  0
    1.8222    3.7212   -8.0931 H   0  0  0  0  0  0  0  0  0  0  0  0
    2.1793    3.5445  -12.3572 H   0  0  0  0  0  0  0  0  0  0  0  0
    0.7144    1.5628  -12.4464 H   0  0  0  0  0  0  0  0  0  0  0  0
   -3.5064   -2.4348   -7.8457 H   0  0  0  0  0  0  0  0  0  0  0  0
   -3.9789   -3.2634   -6.3580 H   0  0  0  0  0  0  0  0  0  0  0  0
   -1.2959   -3.6322   -7.7819 H   0  0  0  0  0  0  0  0  0  0  0  0
   -2.6579   -4.7502   -7.8381 H   0  0  0  0  0  0  0  0  0  0  0  0
   -1.8111   -4.4677   -6.3125 H   0  0  0  0  0  0  0  0  0  0  0  0
   -2.5161   -1.5608    7.5971 H   0  0  0  0  0  0  0  0  0  0  0  0
   -1.4404   -0.7216    8.7201 H   0  0  0  0  0  0  0  0  0  0  0  0
   -1.2381   -3.1630    8.9949 H   0  0  0  0  0  0  0  0  0  0  0  0
    0.2829   -2.5226    8.3726 H   0  0  0  0  0  0  0  0  0  0  0  0
   -0.8343   -3.3543    7.2851 H   0  0  0  0  0  0  0  0  0  0  0  0
   -0.3961    0.9918   -2.4168 H   0  0  0  0  0  0  0  0  0  0  0  0
   -0.6236    1.2833   -0.6815 H   0  0  0  0  0  0  0  0  0  0  0  0
   -1.9319    2.9129   -1.9523 H   0  0  0  0  0  0  0  0  0  0  0  0
   -2.7538    1.6277   -2.8368 H   0  0  0  0  0  0  0  0  0  0  0  0
   -3.0366    1.8225   -1.1020 H   0  0  0  0  0  0  0  0  0  0  0  0
    0.5235    0.1023    0.3922 H   0  0  0  0  0  0  0  0  0  0  0  0
    1.0414    0.0015    2.0768 H   0  0  0  0  0  0  0  0  0  0  0  0
   -0.7293    2.3080    1.1333 H   0  0  0  0  0  0  0  0  0  0  0  0
    0.1286    2.1373    2.6611 H   0  0  0  0  0  0  0  0  0  0  0  0
    1.0410    2.3756    1.1723 H   0  0  0  0  0  0  0  0  0  0  0  0
    0.4971   -0.0355    8.7665 H   0  0  0  0  0  0  0  0  0  0  0  0
    5.2077    3.3367    6.3502 H   0  0  0  0  0  0  0  0  0  0  0  0
    6.9529    4.1451    7.9672 H   0  0  0  0  0  0  0  0  0  0  0  0
    4.8509    2.3610   11.2231 H   0  0  0  0  0  0  0  0  0  0  0  0
  1  2  2  0  0  0  0
  2  3  1  0  0  0  0
  3  4  2  0  0  0  0
  3  5  1  0  0  0  0
  5  6  2  0  0  0  0
  6  7  1  0  0  0  0
  7  8  1  0  0  0  0
  7  9  2  0  0  0  0
  9 10  1  0  0  0  0
 10 11  2  0  0  0  0
 11 12  1  0  0  0  0
 12 13  2  0  0  0  0
 13 14  1  0  0  0  0
 14 15  3  0  0  0  0
 13 16  1  0  0  0  0
 16 17  3  0  0  0  0
  1 18  1  0  0  0  0
 18 19  2  0  0  0  0
 19 20  1  0  0  0  0
 20 21  1  0  0  0  0
 19 22  1  0  0  0  0
 22 23  1  0  0  0  0
 23 24  1  0  0  0  0
 24 25  1  0  0  0  0
 25 26  1  0  0  0  0
 26 27  1  0  0  0  0
 27 28  2  0  0  0  0
 28 29  1  0  0  0  0
 29 30  1  0  0  0  0
 27 31  1  0  0  0  0
 31 32  1  0  0  0  0
 32 33  1  0  0  0  0
 33 34  1  0  0  0  0
 34 35  1  0  0  0  0
 35 36  1  0  0  0  0
 36 37  1  0  0  0  0
 35 38  2  0  0  0  0
 38 39  1  0  0  0  0
 39 40  1  0  0  0  0
 40 41  1  0  0  0  0
 41 42  1  0  0  0  0
 42 43  1  0  0  0  0
 43 44  1  0  0  0  0
 44 45  1  0  0  0  0
 45 46  1  0  0  0  0
 46 47  1  0  0  0  0
 47 48  1  0  0  0  0
 45 49  1  0  0  0  0
 49 50  1  0  0  0  0
 42 51  1  0  0  0  0
 51 52  1  0  0  0  0
 38 53  1  0  0  0  0
 53 54  2  0  0  0  0
 54 55  1  0  0  0  0
 55 56  2  0  0  0  0
 55 57  1  0  0  0  0
 57 58  2  0  0  0  0
 58 59  1  0  0  0  0
 59 60  2  0  0  0  0
 60 61  1  0  0  0  0
 60 62  1  0  0  0  0
 62 63  2  0  0  0  0
 63 64  1  0  0  0  0
 64 65  2  0  0  0  0
 65 66  1  0  0  0  0
 66 67  3  0  0  0  0
 65 68  1  0  0  0  0
 68 69  3  0  0  0  0
 12  2  1  0  0  0  0
 48 18  1  0  0  0  0
 64 54  1  0  0  0  0
 11  5  1  0  0  0  0
 47 22  2  0  0  0  0
 63 57  1  0  0  0  0
 46 24  2  0  0  0  0
 44 25  2  0  0  0  0
 30 26  2  0  0  0  0
 43 31  2  0  0  0  0
 41 32  2  0  0  0  0
 40 34  2  0  0  0  0
  1 70  1  0  0  0  0
  6 71  1  0  0  0  0
  9 72  1  0  0  0  0
 10 73  1  0  0  0  0
 20 74  1  0  0  0  0
 20 75  1  0  0  0  0
 21 76  1  0  0  0  0
 21 77  1  0  0  0  0
 21 78  1  0  0  0  0
 36 79  1  0  0  0  0
 36 80  1  0  0  0  0
 37 81  1  0  0  0  0
 37 82  1  0  0  0  0
 37 83  1  0  0  0  0
 49 84  1  0  0  0  0
 49 85  1  0  0  0  0
 50 86  1  0  0  0  0
 50 87  1  0  0  0  0
 50 88  1  0  0  0  0
 51 89  1  0  0  0  0
 51 90  1  0  0  0  0
 52 91  1  0  0  0  0
 52 92  1  0  0  0  0
 52 93  1  0  0  0  0
 53 94  1  0  0  0  0
 58 95  1  0  0  0  0
 59 96  1  0  0  0  0
 62 97  1  0  0  0  0
M  END
