97

C         -3.57900        7.48130        0.84980
C         -3.59380        7.76380        2.18580
C         -3.54890        9.17580        2.63770
O         -3.72070       10.16400        1.96170
C         -3.18900        9.10710        4.07380
C         -2.90930       10.14070        4.94410
C         -2.57350        9.79050        6.24390
F         -2.29290       10.76350        7.12630
C         -2.51210        8.47180        6.66970
C         -2.80410        7.44190        5.78800
C         -3.14680        7.76130        4.48340
C         -3.54530        6.91910        3.35670
C         -4.06950        5.65390        3.46050
C         -4.07340        4.89660        4.64770
N         -4.07410        4.22860        5.58150
C         -4.75040        5.02250        2.39880
N         -5.34710        4.50630        1.56420
C         -3.18160        6.30170        0.18820
C         -3.44020        6.00030       -1.14510
C         -4.28080        6.83410       -2.05700
C         -3.40410        7.80010       -2.85930
C         -2.83270        4.81660       -1.57650
S         -2.88780        4.03010       -3.13990
C         -1.87080        2.78090       -2.52390
C         -1.25220        1.59910       -2.95790
C         -1.17380        1.00800       -4.23790
C         -0.37840       -0.17240       -4.40440
N         -0.34500       -0.58690       -5.66120
S         -1.24110        0.41970       -6.55700
N         -1.70640        1.42330       -5.37660
C          0.19010       -0.77760       -3.26160
C          0.84860       -2.00440       -3.10980
S          1.40620       -3.31220       -4.08230
C          1.91100       -4.15590       -2.63350
C          2.55790       -5.39060       -2.48750
C          2.74940       -6.34650       -3.61750
C          1.44250       -6.64790       -4.35200
C          2.86870       -5.68480       -1.16190
Se         2.19580       -4.37210        0.05060
C          1.64420       -3.43070       -1.45690
C          1.04320       -2.19950       -1.73710
N          0.55750       -1.12310       -1.03870
C          0.04190       -0.22220       -1.95710
C         -0.56790        1.05290       -1.83330
N         -0.72670        1.91840       -0.76180
C         -1.51470        2.95920       -1.18230
C         -2.04850        4.12930       -0.63710
Se        -2.03690        5.01040        1.00070
C          0.12360        2.13590        0.38620
C          1.25090        3.11290        0.05670
C          0.32360       -1.24620        0.38420
C         -1.14960       -1.10490        0.74920
C          3.55500       -6.77180       -0.59790
C          4.61140       -7.45780       -1.14940
C          5.49370       -6.90990       -2.19950
O          5.37450       -5.87030       -2.80680
C          6.63600       -7.85820       -2.27200
C          6.45740       -8.89410       -1.33830
C          7.39960       -9.89990       -1.21020
C          8.51780       -9.85410       -2.03090
F          9.44060      -10.81320       -1.92520
C          8.70910       -8.83720       -2.96340
F          9.79630       -8.83150       -3.73930
C          7.75600       -7.82280       -3.08270
F          7.94170       -6.85520       -3.97580
C          5.19150       -8.67490       -0.63790
C          4.62330       -9.52800        0.27380
C          3.34830       -9.34310        0.84930
N          2.31380       -9.26540        1.34150
C          5.22510      -10.71870        0.72980
N          5.66850      -11.69420        1.14120
H         -3.81540        8.32720        0.21110
H         -2.95210       11.17180        4.63170
H         -2.23710        8.26200        7.69130
H         -2.75060        6.41800        6.12120
H         -5.02530        7.39010       -1.48780
H         -4.80360        6.16990       -2.74830
H         -2.67880        7.24850       -3.45280
H         -4.02230        8.39110       -3.52950
H         -2.86750        8.47530       -2.19650
H          3.15980       -7.28160       -3.23510
H          3.47810       -5.92030       -4.31240
H          0.69530       -7.02240       -3.65520
H          1.62130       -7.40910       -5.10700
H          1.04840       -5.76480       -4.84550
H         -0.50430        2.54820        1.18700
H          0.54790        1.19790        0.72470
H          0.84690        4.08010       -0.23570
H          1.88330        3.25240        0.92890
H          1.85810        2.72810       -0.76000
H          0.66240       -2.25050        0.66570
H          0.94660       -0.54320        0.94630
H         -1.27420       -1.25110        1.81840
H         -1.73460       -1.85750        0.22600
H         -1.53790       -0.12540        0.48620
H          3.25690       -7.03740        0.41170
H          7.30480      -10.70810       -0.50410
