114

C         -6.70580        3.15410       -8.78080
C         -7.58330        4.20320       -8.68660
C         -8.09070        4.79920       -9.94790
O         -7.98210        4.34610      -11.06420
C         -8.70950        6.08490       -9.55020
C         -9.23320        7.07580      -10.35440
C         -9.72580        8.20440       -9.71530
F        -10.24390        9.19830      -10.45680
C         -9.69960        8.35000       -8.33680
C         -9.17870        7.34130       -7.53940
C         -8.68260        6.19950       -8.14910
C         -8.11110        4.97170       -7.58940
C         -8.28880        4.55230       -6.29300
C         -8.85700        5.34480       -5.27700
N         -9.27330        5.95210       -4.39550
C         -7.98840        3.25560       -5.83540
N         -7.78050        2.21040       -5.40700
C         -5.78120        2.63780       -7.86210
S         -4.98960        1.11140       -8.27970
C         -4.06050        1.18380       -6.84280
C         -3.08540        0.48800       -6.13980
S         -2.15200       -0.95980       -6.35790
C         -1.37110       -0.60130       -4.86280
C         -0.33020       -1.15820       -4.11260
C          0.56810       -2.19850       -4.43410
C          1.69850       -2.41100       -3.58150
N          2.50720       -3.35510       -4.03740
S          1.89040       -3.93250       -5.41840
N          0.57260       -2.99580       -5.49070
C          1.79220       -1.67180       -2.38260
C          2.72220       -1.75890       -1.33620
S          4.17840       -2.60100       -0.94930
C          4.18240       -1.83370        0.62370
C          5.02200       -1.95990        1.74090
C          6.31380       -2.70530        1.73660
C          7.19280       -2.33880        0.54210
C          4.55300       -1.19680        2.80300
S          3.12550       -0.25130        2.37430
C          3.09690       -0.96540        0.80690
C          2.27140       -0.91410       -0.32070
N          1.11750       -0.27460       -0.70780
C          0.80810       -0.71830       -1.99180
C         -0.19160       -0.36390       -2.94210
N         -1.09320        0.68050       -3.03160
C         -1.81400        0.55480       -4.20100
C         -2.79810        1.22620       -4.95950
N         -3.58830        2.35840       -4.94250
C         -4.34310        2.34780       -6.08970
C         -5.30090        3.16720       -6.66780
C         -3.56180        3.51930       -4.08730
C         -2.54080        4.54910       -4.57180
C         -1.24160        1.80730       -2.14970
C         -2.45600        1.64120       -1.23280
C          0.23850        0.16340        0.35830
C         -0.65960       -0.97970        0.82780
C          5.05210       -1.02960        4.11360
C          5.63690       -1.99570        4.88350
C          5.46420       -3.45310        4.67790
O          4.90500       -4.01350        3.75750
C          6.00420       -4.09150        5.89310
C          6.04650       -5.45720        6.16580
C          6.59940       -5.76720        7.38480
C          7.06710       -4.79090        8.27500
C          7.03170       -3.44080        8.01910
C          6.47890       -3.10380        6.77930
C          6.28760       -1.79530        6.16180
C          6.72920       -0.59530        6.65710
C          6.62740        0.63500        5.97460
N          6.60410        1.66550        5.46760
C          7.37500       -0.43180        7.89940
N          7.89680       -0.22680        8.90150
C          7.47410       -5.81290        9.30730
C          6.53260       -5.98470       10.51820
C          6.91110       -7.33590       11.08080
C          6.47490       -8.26150       10.23610
C          5.79370       -7.55160        9.08840
C          5.20750       -6.34600        9.83440
C          6.95840       -6.90150        8.31200
H         -6.67500        2.70110       -9.76800
H         -9.25960        6.97820      -11.42780
H        -10.08960        9.25400       -7.89630
H         -9.15880        7.46510       -6.46890
H          6.85450       -2.48990        2.65980
H          6.09590       -3.77680        1.72290
H          7.37710       -1.26660        0.52170
H          6.72840       -2.63070       -0.39530
H          8.14820       -2.85080        0.62420
H         -5.60800        4.12530       -6.29030
H         -3.35390        3.22420       -3.06110
H         -4.56420        3.95540       -4.10760
H         -1.54210        4.11790       -4.60640
H         -2.52990        5.40650       -3.90450
H         -2.79560        4.88930       -5.57260
H         -0.31570        1.93320       -1.58690
H         -1.35730        2.70230       -2.76590
H         -2.36010        0.75770       -0.60870
H         -3.36040        1.51690       -1.82440
H         -2.56950        2.51270       -0.59270
H         -0.36140        1.01680        0.06190
H          0.88380        0.48380        1.18040
H         -1.30290       -0.63960        1.63480
H         -1.27820       -1.34340        0.00930
H         -0.05570       -1.80740        1.19210
H          4.88570       -0.05160        4.55080
H          5.67420       -6.17570        5.45240
H          7.39450       -2.70070        8.71270
H          8.52670       -5.81510        9.58350
H          6.52730       -5.14920       11.21270
H          7.48680       -7.47250       11.97730
H          6.61350       -9.32560       10.28570
H          5.11490       -8.14360        8.48030
H          4.44130       -6.63810       10.55070
H          4.81750       -5.56710        9.18180
H          7.66870       -7.62790        7.92160
