
  xtb     02012216543D
 energy: -194.347716968705 gnorm: 0.000829639307 xtb: 6.4.1 (unknown)
100112  0     0  0            999 V2000
   -8.1029    2.5062   -2.1091 C   0  0  0  0  0  0  0  0  0  0  0  0
   -9.2673    2.6623   -1.4056 C   0  0  0  0  0  0  0  0  0  0  0  0
   -9.3318    2.9120    0.0510 C   0  0  0  0  0  0  0  0  0  0  0  0
   -8.4253    3.1996    0.8028 O   0  0  0  0  0  0  0  0  0  0  0  0
  -10.7306    2.6098    0.4330 C   0  0  0  0  0  0  0  0  0  0  0  0
  -11.2941    2.6342    1.6923 C   0  0  0  0  0  0  0  0  0  0  0  0
  -12.6322    2.2804    1.7853 C   0  0  0  0  0  0  0  0  0  0  0  0
  -13.2247    2.2913    2.9907 F   0  0  0  0  0  0  0  0  0  0  0  0
  -13.3833    1.9107    0.6794 C   0  0  0  0  0  0  0  0  0  0  0  0
  -12.8041    1.8893   -0.5804 C   0  0  0  0  0  0  0  0  0  0  0  0
  -11.4685    2.2426   -0.7061 C   0  0  0  0  0  0  0  0  0  0  0  0
  -10.5918    2.3104   -1.8715 C   0  0  0  0  0  0  0  0  0  0  0  0
  -10.9695    2.1577   -3.1798 C   0  0  0  0  0  0  0  0  0  0  0  0
  -12.2785    1.8355   -3.5926 C   0  0  0  0  0  0  0  0  0  0  0  0
  -13.3235    1.5636   -3.9819 N   0  0  0  0  0  0  0  0  0  0  0  0
  -10.1046    2.3449   -4.2789 C   0  0  0  0  0  0  0  0  0  0  0  0
   -9.4555    2.5037   -5.2123 N   0  0  0  0  0  0  0  0  0  0  0  0
   -6.8223    2.9423   -1.7123 C   0  0  0  0  0  0  0  0  0  0  0  0
   -6.4102    4.0930   -1.0480 C   0  0  0  0  0  0  0  0  0  0  0  0
   -7.2956    5.2503   -0.7320 C   0  0  0  0  0  0  0  0  0  0  0  0
   -6.7434    6.5668   -1.2763 C   0  0  0  0  0  0  0  0  0  0  0  0
   -5.0263    4.0736   -0.8245 C   0  0  0  0  0  0  0  0  0  0  0  0
   -3.9420    5.1602    0.0191 S   0  0  0  0  0  0  0  0  0  0  0  0
   -2.6427    4.0578   -0.2659 C   0  0  0  0  0  0  0  0  0  0  0  0
   -1.2889    3.9012    0.0573 C   0  0  0  0  0  0  0  0  0  0  0  0
   -0.4492    4.7131    0.8495 C   0  0  0  0  0  0  0  0  0  0  0  0
    0.8741    4.2551    1.1395 C   0  0  0  0  0  0  0  0  0  0  0  0
    1.5395    5.0886    1.9243 N   0  0  0  0  0  0  0  0  0  0  0  0
    0.5790    6.3459    2.2643 S   0  0  0  0  0  0  0  0  0  0  0  0
   -0.7225    5.8735    1.4261 N   0  0  0  0  0  0  0  0  0  0  0  0
    1.3120    3.0408    0.5691 C   0  0  0  0  0  0  0  0  0  0  0  0
    2.5512    2.3957    0.6709 C   0  0  0  0  0  0  0  0  0  0  0  0
    4.0670    2.5937    1.4797 S   0  0  0  0  0  0  0  0  0  0  0  0
    4.6237    1.1223    0.7262 C   0  0  0  0  0  0  0  0  0  0  0  0
    5.8019    0.3727    0.7978 C   0  0  0  0  0  0  0  0  0  0  0  0
    7.3079    0.5206    1.6074 S   0  0  0  0  0  0  0  0  0  0  0  0
    7.8288   -1.0403    0.9646 C   0  0  0  0  0  0  0  0  0  0  0  0
    6.8934   -1.6032    0.1028 C   0  0  0  0  0  0  0  0  0  0  0  0
    7.1126   -2.7958   -0.7727 C   0  0  0  0  0  0  0  0  0  0  0  0
    6.0313   -3.8620   -0.6000 C   0  0  0  0  0  0  0  0  0  0  0  0
    5.7563   -0.7922    0.0212 C   0  0  0  0  0  0  0  0  0  0  0  0
    4.2529   -0.9454   -0.8447 S   0  0  0  0  0  0  0  0  0  0  0  0
    3.6768    0.5281   -0.1198 C   0  0  0  0  0  0  0  0  0  0  0  0
    2.4843    1.2600   -0.1409 C   0  0  0  0  0  0  0  0  0  0  0  0
    1.2556    1.1845   -0.7364 N   0  0  0  0  0  0  0  0  0  0  0  0
    0.4925    2.2537   -0.2952 C   0  0  0  0  0  0  0  0  0  0  0  0
   -0.8571    2.6600   -0.5045 C   0  0  0  0  0  0  0  0  0  0  0  0
   -1.9477    2.0834   -1.1313 N   0  0  0  0  0  0  0  0  0  0  0  0
   -3.0166    2.9250   -0.9934 C   0  0  0  0  0  0  0  0  0  0  0  0
   -4.3763    2.9313   -1.3154 C   0  0  0  0  0  0  0  0  0  0  0  0
   -5.4719    1.8876   -2.1361 S   0  0  0  0  0  0  0  0  0  0  0  0
   -2.1586    0.8172   -1.7917 C   0  0  0  0  0  0  0  0  0  0  0  0
   -2.1171    0.9622   -3.3130 C   0  0  0  0  0  0  0  0  0  0  0  0
    1.0337    0.1597   -1.7296 C   0  0  0  0  0  0  0  0  0  0  0  0
    0.6988   -1.1896   -1.0920 C   0  0  0  0  0  0  0  0  0  0  0  0
    9.1227   -1.4811    1.3264 C   0  0  0  0  0  0  0  0  0  0  0  0
    9.4799   -2.7722    1.6046 C   0  0  0  0  0  0  0  0  0  0  0  0
    8.5198   -3.8114    2.0414 C   0  0  0  0  0  0  0  0  0  0  0  0
    7.3127   -3.7349    2.1019 O   0  0  0  0  0  0  0  0  0  0  0  0
    9.3559   -4.9298    2.5338 C   0  0  0  0  0  0  0  0  0  0  0  0
    8.9397   -6.1295    3.0739 C   0  0  0  0  0  0  0  0  0  0  0  0
    9.9075   -7.0374    3.4870 C   0  0  0  0  0  0  0  0  0  0  0  0
    9.4577   -8.5538    4.1619 Cl  0  0  0  0  0  0  0  0  0  0  0  0
   11.2582   -6.7075    3.3508 C   0  0  0  0  0  0  0  0  0  0  0  0
   12.1838   -7.5845    3.7561 F   0  0  0  0  0  0  0  0  0  0  0  0
   11.6835   -5.5023    2.8138 C   0  0  0  0  0  0  0  0  0  0  0  0
   10.7157   -4.6010    2.3988 C   0  0  0  0  0  0  0  0  0  0  0  0
   10.8226   -3.2740    1.8000 C   0  0  0  0  0  0  0  0  0  0  0  0
   11.9808   -2.6564    1.4061 C   0  0  0  0  0  0  0  0  0  0  0  0
   12.0272   -1.4206    0.7267 C   0  0  0  0  0  0  0  0  0  0  0  0
   12.1301   -0.4342    0.1485 N   0  0  0  0  0  0  0  0  0  0  0  0
   13.2680   -3.1998    1.5967 C   0  0  0  0  0  0  0  0  0  0  0  0
   14.3366   -3.5962    1.7309 N   0  0  0  0  0  0  0  0  0  0  0  0
   -8.1310    1.9172   -3.0191 H   0  0  0  0  0  0  0  0  0  0  0  0
  -10.7224    2.9148    2.5623 H   0  0  0  0  0  0  0  0  0  0  0  0
  -14.4181    1.6383    0.8144 H   0  0  0  0  0  0  0  0  0  0  0  0
  -13.3922    1.5930   -1.4335 H   0  0  0  0  0  0  0  0  0  0  0  0
   -8.2853    5.0715   -1.1553 H   0  0  0  0  0  0  0  0  0  0  0  0
   -7.4051    5.3151    0.3539 H   0  0  0  0  0  0  0  0  0  0  0  0
   -5.7987    6.8229   -0.8056 H   0  0  0  0  0  0  0  0  0  0  0  0
   -6.5911    6.4986   -2.3515 H   0  0  0  0  0  0  0  0  0  0  0  0
   -7.4519    7.3670   -1.0791 H   0  0  0  0  0  0  0  0  0  0  0  0
    8.0934   -3.2250   -0.5683 H   0  0  0  0  0  0  0  0  0  0  0  0
    7.1057   -2.4491   -1.8119 H   0  0  0  0  0  0  0  0  0  0  0  0
    5.9823   -4.1767    0.4382 H   0  0  0  0  0  0  0  0  0  0  0  0
    5.0585   -3.4766   -0.8951 H   0  0  0  0  0  0  0  0  0  0  0  0
    6.2641   -4.7240   -1.2200 H   0  0  0  0  0  0  0  0  0  0  0  0
   -3.1549    0.4667   -1.5027 H   0  0  0  0  0  0  0  0  0  0  0  0
   -1.4403    0.0876   -1.4330 H   0  0  0  0  0  0  0  0  0  0  0  0
   -2.2003   -0.0149   -3.7803 H   0  0  0  0  0  0  0  0  0  0  0  0
   -2.9481    1.5759   -3.6508 H   0  0  0  0  0  0  0  0  0  0  0  0
   -1.1944    1.4356   -3.6431 H   0  0  0  0  0  0  0  0  0  0  0  0
    1.9650    0.0535   -2.2963 H   0  0  0  0  0  0  0  0  0  0  0  0
    0.2656    0.4843   -2.4260 H   0  0  0  0  0  0  0  0  0  0  0  0
    1.5611   -1.5720   -0.5528 H   0  0  0  0  0  0  0  0  0  0  0  0
   -0.1240   -1.1054   -0.3850 H   0  0  0  0  0  0  0  0  0  0  0  0
    0.4317   -1.9064   -1.8635 H   0  0  0  0  0  0  0  0  0  0  0  0
    9.8633   -0.6996    1.4523 H   0  0  0  0  0  0  0  0  0  0  0  0
    7.8896   -6.3546    3.1706 H   0  0  0  0  0  0  0  0  0  0  0  0
   12.7409   -5.3054    2.7430 H   0  0  0  0  0  0  0  0  0  0  0  0
  1  2  2  0  0  0  0
  2  3  1  0  0  0  0
  3  4  2  0  0  0  0
  3  5  1  0  0  0  0
  5  6  2  0  0  0  0
  6  7  1  0  0  0  0
  7  8  1  0  0  0  0
  7  9  2  0  0  0  0
  9 10  1  0  0  0  0
 10 11  2  0  0  0  0
 11 12  1  0  0  0  0
 12 13  2  0  0  0  0
 13 14  1  0  0  0  0
 14 15  3  0  0  0  0
 13 16  1  0  0  0  0
 16 17  3  0  0  0  0
  1 18  1  0  0  0  0
 18 19  2  0  0  0  0
 19 20  1  0  0  0  0
 20 21  1  0  0  0  0
 19 22  1  0  0  0  0
 22 23  1  0  0  0  0
 23 24  1  0  0  0  0
 24 25  1  0  0  0  0
 25 26  1  0  0  0  0
 26 27  1  0  0  0  0
 27 28  2  0  0  0  0
 28 29  1  0  0  0  0
 29 30  1  0  0  0  0
 27 31  1  0  0  0  0
 31 32  1  0  0  0  0
 32 33  1  0  0  0  0
 33 34  1  0  0  0  0
 34 35  1  0  0  0  0
 35 36  1  0  0  0  0
 36 37  1  0  0  0  0
 37 38  2  0  0  0  0
 38 39  1  0  0  0  0
 39 40  1  0  0  0  0
 38 41  1  0  0  0  0
 41 42  1  0  0  0  0
 42 43  1  0  0  0  0
 43 44  1  0  0  0  0
 44 45  1  0  0  0  0
 45 46  1  0  0  0  0
 46 47  1  0  0  0  0
 47 48  1  0  0  0  0
 48 49  1  0  0  0  0
 49 50  1  0  0  0  0
 50 51  1  0  0  0  0
 48 52  1  0  0  0  0
 52 53  1  0  0  0  0
 45 54  1  0  0  0  0
 54 55  1  0  0  0  0
 37 56  1  0  0  0  0
 56 57  2  0  0  0  0
 57 58  1  0  0  0  0
 58 59  2  0  0  0  0
 58 60  1  0  0  0  0
 60 61  2  0  0  0  0
 61 62  1  0  0  0  0
 62 63  1  0  0  0  0
 62 64  2  0  0  0  0
 64 65  1  0  0  0  0
 64 66  1  0  0  0  0
 66 67  2  0  0  0  0
 67 68  1  0  0  0  0
 68 69  2  0  0  0  0
 69 70  1  0  0  0  0
 70 71  3  0  0  0  0
 69 72  1  0  0  0  0
 72 73  3  0  0  0  0
 12  2  1  0  0  0  0
 51 18  1  0  0  0  0
 68 57  1  0  0  0  0
 11  5  1  0  0  0  0
 50 22  2  0  0  0  0
 67 60  1  0  0  0  0
 49 24  2  0  0  0  0
 47 25  2  0  0  0  0
 30 26  2  0  0  0  0
 46 31  2  0  0  0  0
 44 32  2  0  0  0  0
 43 34  2  0  0  0  0
 41 35  2  0  0  0  0
  1 74  1  0  0  0  0
  6 75  1  0  0  0  0
  9 76  1  0  0  0  0
 10 77  1  0  0  0  0
 20 78  1  0  0  0  0
 20 79  1  0  0  0  0
 21 80  1  0  0  0  0
 21 81  1  0  0  0  0
 21 82  1  0  0  0  0
 39 83  1  0  0  0  0
 39 84  1  0  0  0  0
 40 85  1  0  0  0  0
 40 86  1  0  0  0  0
 40 87  1  0  0  0  0
 52 88  1  0  0  0  0
 52 89  1  0  0  0  0
 53 90  1  0  0  0  0
 53 91  1  0  0  0  0
 53 92  1  0  0  0  0
 54 93  1  0  0  0  0
 54 94  1  0  0  0  0
 55 95  1  0  0  0  0
 55 96  1  0  0  0  0
 55 97  1  0  0  0  0
 56 98  1  0  0  0  0
 61 99  1  0  0  0  0
 66100  1  0  0  0  0
M  END
