97

C         -1.41030       -0.59900       -7.91420
C         -0.64220        0.32640       -8.59110
C          0.09940        1.41950       -7.98770
O          0.16770        1.70920       -6.79850
C          0.76040        2.13900       -9.09150
C          1.57800        3.24840       -9.03080
C          2.07120        3.72530      -10.23660
F          2.87310        4.80330      -10.22960
C          1.76710        3.12990      -11.45080
C          0.94240        2.01450      -11.49540
C          0.43330        1.51220      -10.30750
C         -0.44400        0.37330      -10.02560
C         -0.95790       -0.47680      -10.97130
C         -1.79640       -1.58250      -10.71880
N         -2.47940       -2.49900      -10.59940
C         -0.71070       -0.36330      -12.35570
N         -0.55310       -0.32960      -13.49240
C         -1.65630       -0.77330       -6.55240
C         -2.46730       -1.82090       -6.06750
C         -3.13010       -2.86010       -6.91440
C         -2.15840       -4.00070       -7.23130
C         -2.55750       -1.85810       -4.68340
S         -3.43700       -2.97110       -3.64290
C         -2.84240       -2.11200       -2.26750
C         -2.93100       -2.14010       -0.86900
C         -3.70890       -2.93530        0.00250
C         -3.65350       -2.67950        1.41280
N         -4.46990       -3.46130        2.10060
S         -5.24000       -4.43870        1.06470
N         -4.55990       -3.90180       -0.30240
C         -2.72590       -1.72990        1.89840
C         -2.31610       -1.42490        3.20220
S         -2.68450       -1.86700        4.83040
C         -1.32860       -0.88730        5.37260
C         -0.84180       -0.68710        6.65660
C         -1.46950       -1.35950        7.83580
C         -0.76710       -2.68590        8.14040
C          0.30730        0.12900        6.70390
Se         0.81050        0.73300        4.96600
C         -0.64290       -0.24130        4.32530
C         -1.22810       -0.54870        3.09540
N         -0.97590       -0.28050        1.77680
C         -1.89150       -0.97820        1.01680
C         -2.09530       -1.09070       -0.38180
N         -1.56200       -0.41460       -1.46480
C         -2.01130       -1.03670       -2.60160
C         -1.84730       -0.86820       -3.97710
Se        -0.95200        0.28780       -5.12840
C         -1.11550        0.95560       -1.58820
C         -2.28760        1.88850       -1.88880
C          0.25400        0.38210        1.41160
C          0.16400        1.89700        1.59860
C          0.96720        0.41050        7.90020
C          2.11300        1.13330        8.16110
C          2.93350        1.81450        7.17300
O          2.72930        1.89780        5.96640
C          4.06990        2.40170        7.90010
C          5.13580        3.12900        7.40620
C          6.09880        3.57560        8.29760
C          5.95810        3.28050        9.64490
F          6.89970        3.71910       10.49500
C          4.89410        2.55270       10.16390
C          3.93660        2.10750        9.26950
C          2.71300        1.32350        9.46490
C          2.25130        0.87620       10.67610
C          1.07500        0.12590       10.88320
N          0.13530       -0.48620       11.13410
C          2.89900        1.11470       11.90700
N          3.37360        1.27030       12.94030
H         -1.90680       -1.32980       -8.53880
H          1.82220        3.72120       -8.09310
H          2.17930        3.54450      -12.35720
H          0.71440        1.56280      -12.44640
H         -3.50640       -2.43480       -7.84570
H         -3.97890       -3.26340       -6.35800
H         -1.29590       -3.63220       -7.78190
H         -2.65790       -4.75020       -7.83810
H         -1.81110       -4.46770       -6.31250
H         -2.51610       -1.56080        7.59710
H         -1.44040       -0.72160        8.72010
H         -1.23810       -3.16300        8.99490
H          0.28290       -2.52260        8.37260
H         -0.83430       -3.35430        7.28510
H         -0.39610        0.99180       -2.41680
H         -0.62360        1.28330       -0.68150
H         -1.93190        2.91290       -1.95230
H         -2.75380        1.62770       -2.83680
H         -3.03660        1.82250       -1.10200
H          0.52350        0.10230        0.39220
H          1.04140        0.00150        2.07680
H         -0.72930        2.30800        1.13330
H          0.12860        2.13730        2.66110
H          1.04100        2.37560        1.17230
H          0.49710       -0.03550        8.76650
H          5.20770        3.33670        6.35020
H          6.95290        4.14510        7.96720
H          4.85090        2.36100       11.22310
