95

C          5.03180       -3.36210        4.98360
C          6.35460       -3.36940        5.35900
C          7.35410       -2.36380        4.99150
O          7.18780       -1.34280        4.35050
C          8.63330       -2.83480        5.56440
C          9.87950       -2.25040        5.47480
C         10.92550       -2.91380        6.09920
F         12.16020       -2.38660        6.03760
C         10.74550       -4.10530        6.78480
C          9.48530       -4.67950        6.86790
C          8.41810       -4.04100        6.25340
C          7.00010       -4.39160        6.15510
C          6.42130       -5.49700        6.72700
C          5.05950       -5.85290        6.64660
N          3.97040       -6.22020        6.63280
C          7.12120       -6.45050        7.49530
N          7.62670       -7.26410        8.12860
C          4.31320       -2.47050        4.18140
S          4.93380       -0.99920        3.42520
C          3.40360       -0.73650        2.68870
C          2.74600        0.14390        1.83410
S          3.08040        1.64260        1.01530
C          1.48160        1.58360        0.36560
C          0.70480        2.33970       -0.52500
C          1.01480        3.47840       -1.30200
C          0.07310        3.91670       -2.29290
N          0.52440        4.94070       -2.99980
S          2.00210        5.32490       -2.46120
N          2.12510        4.19860       -1.30680
C         -1.18390        3.27750       -2.36740
C         -2.29970        3.49570       -3.18360
S         -2.71110        4.39160       -4.57750
C         -4.24110        3.51000       -4.67220
C         -4.46090        2.66650       -3.58720
C         -5.79870        2.04560       -3.32090
C         -6.60620        2.91900       -2.35340
C         -3.33180        2.64950       -2.74720
N         -2.87220        1.90700       -1.68270
C         -1.54180        2.22680       -1.48030
C         -0.53610        1.66570       -0.65690
N         -0.49930        0.49890        0.09960
C          0.72500        0.46310        0.74070
C          1.43560       -0.36070        1.62930
N          1.26710       -1.50490        2.37660
C          2.46090       -1.74670        3.01390
C          2.96890       -2.70800        3.86280
C          0.07020       -2.26430        2.64600
C          0.06220       -3.60620        1.91430
C         -1.16440       -0.74440       -0.24970
C         -1.16380       -1.01190       -1.75290
C         -3.74380        1.20880       -0.76480
C         -3.57890        1.70290        0.67060
C         -5.01180        3.75140       -5.83170
C         -5.78100        2.92470       -6.59680
C         -6.66040        3.55360       -7.62960
O         -6.70360        4.72690       -7.91600
C         -7.45780        2.44520       -8.18020
C         -8.47540        2.26840       -9.12880
C         -8.81050        0.94590       -9.23570
Cl        -9.99360        0.28080      -10.26400
S         -7.88370       -0.10260       -8.19100
C         -7.03890        1.26490       -7.58700
C         -5.95540        1.48470       -6.66130
C         -5.20150        0.45750       -6.14260
C         -5.56370       -0.88520       -6.38480
N         -5.84870       -1.98600       -6.54270
C         -4.01860        0.53450       -5.39030
N         -3.04300        0.46130       -4.78720
H          4.42920       -4.19070        5.33550
H         10.03290       -1.32500        4.94310
H         11.59630       -4.57790        7.24970
H          9.35980       -5.60610        7.40280
H         -6.36400        1.97310       -4.24790
H         -5.67960        1.03510       -2.92390
H         -7.55350        2.43920       -2.11920
H         -6.06860        3.09980       -1.42530
H         -6.81160        3.88220       -2.81460
H          2.43660       -3.56000        4.24640
H         -0.79820       -1.66180        2.37190
H          0.02520       -2.44570        3.72520
H         -0.85780       -4.14070        2.13370
H          0.90310       -4.21380        2.23730
H          0.13910       -3.47160        0.83760
H         -0.59560       -1.53890        0.23010
H         -2.17800       -0.76900        0.15890
H         -0.14320       -1.00170       -2.12890
H         -1.59140       -1.99330       -1.94310
H         -1.73520       -0.27680       -2.31100
H         -4.76570        1.40570       -1.08040
H         -3.58830        0.12940       -0.83210
H         -3.76750        2.77310        0.71990
H         -2.57770        1.51860        1.04840
H         -4.29340        1.19630        1.31450
H         -4.96070        4.76800       -6.21500
H         -8.93030        3.05590       -9.69930
