
  xtb     02022212463D
 energy: -204.292130073987 gnorm: 0.000567324054 xtb: 6.4.1 (unknown)
114129  0     0  0            999 V2000
   -6.7058    3.1541   -8.7808 C   0  0  0  0  0  0  0  0  0  0  0  0
   -7.5833    4.2032   -8.6866 C   0  0  0  0  0  0  0  0  0  0  0  0
   -8.0907    4.7992   -9.9479 C   0  0  0  0  0  0  0  0  0  0  0  0
   -7.9821    4.3461  -11.0642 O   0  0  0  0  0  0  0  0  0  0  0  0
   -8.7095    6.0849   -9.5502 C   0  0  0  0  0  0  0  0  0  0  0  0
   -9.2332    7.0758  -10.3544 C   0  0  0  0  0  0  0  0  0  0  0  0
   -9.7258    8.2044   -9.7153 C   0  0  0  0  0  0  0  0  0  0  0  0
  -10.2439    9.1983  -10.4568 F   0  0  0  0  0  0  0  0  0  0  0  0
   -9.6996    8.3500   -8.3368 C   0  0  0  0  0  0  0  0  0  0  0  0
   -9.1787    7.3413   -7.5394 C   0  0  0  0  0  0  0  0  0  0  0  0
   -8.6826    6.1995   -8.1491 C   0  0  0  0  0  0  0  0  0  0  0  0
   -8.1111    4.9717   -7.5894 C   0  0  0  0  0  0  0  0  0  0  0  0
   -8.2888    4.5523   -6.2930 C   0  0  0  0  0  0  0  0  0  0  0  0
   -8.8570    5.3448   -5.2770 C   0  0  0  0  0  0  0  0  0  0  0  0
   -9.2733    5.9521   -4.3955 N   0  0  0  0  0  0  0  0  0  0  0  0
   -7.9884    3.2556   -5.8354 C   0  0  0  0  0  0  0  0  0  0  0  0
   -7.7805    2.2104   -5.4070 N   0  0  0  0  0  0  0  0  0  0  0  0
   -5.7812    2.6378   -7.8621 C   0  0  0  0  0  0  0  0  0  0  0  0
   -4.9896    1.1114   -8.2797 S   0  0  0  0  0  0  0  0  0  0  0  0
   -4.0605    1.1838   -6.8428 C   0  0  0  0  0  0  0  0  0  0  0  0
   -3.0854    0.4880   -6.1398 C   0  0  0  0  0  0  0  0  0  0  0  0
   -2.1520   -0.9598   -6.3579 S   0  0  0  0  0  0  0  0  0  0  0  0
   -1.3711   -0.6013   -4.8628 C   0  0  0  0  0  0  0  0  0  0  0  0
   -0.3302   -1.1582   -4.1126 C   0  0  0  0  0  0  0  0  0  0  0  0
    0.5681   -2.1985   -4.4341 C   0  0  0  0  0  0  0  0  0  0  0  0
    1.6985   -2.4110   -3.5815 C   0  0  0  0  0  0  0  0  0  0  0  0
    2.5072   -3.3551   -4.0374 N   0  0  0  0  0  0  0  0  0  0  0  0
    1.8904   -3.9325   -5.4184 S   0  0  0  0  0  0  0  0  0  0  0  0
    0.5726   -2.9958   -5.4907 N   0  0  0  0  0  0  0  0  0  0  0  0
    1.7922   -1.6718   -2.3826 C   0  0  0  0  0  0  0  0  0  0  0  0
    2.7222   -1.7589   -1.3362 C   0  0  0  0  0  0  0  0  0  0  0  0
    4.1784   -2.6010   -0.9493 S   0  0  0  0  0  0  0  0  0  0  0  0
    4.1824   -1.8337    0.6237 C   0  0  0  0  0  0  0  0  0  0  0  0
    5.0220   -1.9599    1.7409 C   0  0  0  0  0  0  0  0  0  0  0  0
    6.3138   -2.7053    1.7366 C   0  0  0  0  0  0  0  0  0  0  0  0
    7.1928   -2.3388    0.5421 C   0  0  0  0  0  0  0  0  0  0  0  0
    4.5530   -1.1968    2.8030 C   0  0  0  0  0  0  0  0  0  0  0  0
    3.1255   -0.2513    2.3743 S   0  0  0  0  0  0  0  0  0  0  0  0
    3.0969   -0.9654    0.8069 C   0  0  0  0  0  0  0  0  0  0  0  0
    2.2714   -0.9141   -0.3207 C   0  0  0  0  0  0  0  0  0  0  0  0
    1.1175   -0.2746   -0.7078 N   0  0  0  0  0  0  0  0  0  0  0  0
    0.8081   -0.7183   -1.9918 C   0  0  0  0  0  0  0  0  0  0  0  0
   -0.1916   -0.3639   -2.9421 C   0  0  0  0  0  0  0  0  0  0  0  0
   -1.0932    0.6805   -3.0316 N   0  0  0  0  0  0  0  0  0  0  0  0
   -1.8140    0.5548   -4.2010 C   0  0  0  0  0  0  0  0  0  0  0  0
   -2.7981    1.2262   -4.9595 C   0  0  0  0  0  0  0  0  0  0  0  0
   -3.5883    2.3584   -4.9425 N   0  0  0  0  0  0  0  0  0  0  0  0
   -4.3431    2.3478   -6.0897 C   0  0  0  0  0  0  0  0  0  0  0  0
   -5.3009    3.1672   -6.6678 C   0  0  0  0  0  0  0  0  0  0  0  0
   -3.5618    3.5193   -4.0873 C   0  0  0  0  0  0  0  0  0  0  0  0
   -2.5408    4.5491   -4.5718 C   0  0  0  0  0  0  0  0  0  0  0  0
   -1.2416    1.8073   -2.1497 C   0  0  0  0  0  0  0  0  0  0  0  0
   -2.4560    1.6412   -1.2328 C   0  0  0  0  0  0  0  0  0  0  0  0
    0.2385    0.1634    0.3583 C   0  0  0  0  0  0  0  0  0  0  0  0
   -0.6596   -0.9797    0.8278 C   0  0  0  0  0  0  0  0  0  0  0  0
    5.0521   -1.0296    4.1136 C   0  0  0  0  0  0  0  0  0  0  0  0
    5.6369   -1.9957    4.8835 C   0  0  0  0  0  0  0  0  0  0  0  0
    5.4642   -3.4531    4.6779 C   0  0  0  0  0  0  0  0  0  0  0  0
    4.9050   -4.0135    3.7575 O   0  0  0  0  0  0  0  0  0  0  0  0
    6.0042   -4.0915    5.8931 C   0  0  0  0  0  0  0  0  0  0  0  0
    6.0465   -5.4572    6.1658 C   0  0  0  0  0  0  0  0  0  0  0  0
    6.5994   -5.7672    7.3848 C   0  0  0  0  0  0  0  0  0  0  0  0
    7.0671   -4.7909    8.2750 C   0  0  0  0  0  0  0  0  0  0  0  0
    7.0317   -3.4408    8.0191 C   0  0  0  0  0  0  0  0  0  0  0  0
    6.4789   -3.1038    6.7793 C   0  0  0  0  0  0  0  0  0  0  0  0
    6.2876   -1.7953    6.1618 C   0  0  0  0  0  0  0  0  0  0  0  0
    6.7292   -0.5953    6.6571 C   0  0  0  0  0  0  0  0  0  0  0  0
    6.6274    0.6350    5.9746 C   0  0  0  0  0  0  0  0  0  0  0  0
    6.6041    1.6655    5.4676 N   0  0  0  0  0  0  0  0  0  0  0  0
    7.3750   -0.4318    7.8994 C   0  0  0  0  0  0  0  0  0  0  0  0
    7.8968   -0.2268    8.9015 N   0  0  0  0  0  0  0  0  0  0  0  0
    7.4741   -5.8129    9.3073 C   0  0  0  0  0  0  0  0  0  0  0  0
    6.5326   -5.9847   10.5182 C   0  0  0  0  0  0  0  0  0  0  0  0
    6.9111   -7.3359   11.0808 C   0  0  0  0  0  0  0  0  0  0  0  0
    6.4749   -8.2615   10.2361 C   0  0  0  0  0  0  0  0  0  0  0  0
    5.7937   -7.5516    9.0884 C   0  0  0  0  0  0  0  0  0  0  0  0
    5.2075   -6.3460    9.8344 C   0  0  0  0  0  0  0  0  0  0  0  0
    6.9584   -6.9015    8.3120 C   0  0  0  0  0  0  0  0  0  0  0  0
   -6.6750    2.7011   -9.7680 H   0  0  0  0  0  0  0  0  0  0  0  0
   -9.2596    6.9782  -11.4278 H   0  0  0  0  0  0  0  0  0  0  0  0
  -10.0896    9.2540   -7.8963 H   0  0  0  0  0  0  0  0  0  0  0  0
   -9.1588    7.4651   -6.4689 H   0  0  0  0  0  0  0  0  0  0  0  0
    6.8545   -2.4899    2.6598 H   0  0  0  0  0  0  0  0  0  0  0  0
    6.0959   -3.7768    1.7229 H   0  0  0  0  0  0  0  0  0  0  0  0
    7.3771   -1.2666    0.5217 H   0  0  0  0  0  0  0  0  0  0  0  0
    6.7284   -2.6307   -0.3953 H   0  0  0  0  0  0  0  0  0  0  0  0
    8.1482   -2.8508    0.6242 H   0  0  0  0  0  0  0  0  0  0  0  0
   -5.6080    4.1253   -6.2903 H   0  0  0  0  0  0  0  0  0  0  0  0
   -3.3539    3.2242   -3.0611 H   0  0  0  0  0  0  0  0  0  0  0  0
   -4.5642    3.9554   -4.1076 H   0  0  0  0  0  0  0  0  0  0  0  0
   -1.5421    4.1179   -4.6064 H   0  0  0  0  0  0  0  0  0  0  0  0
   -2.5299    5.4065   -3.9045 H   0  0  0  0  0  0  0  0  0  0  0  0
   -2.7956    4.8893   -5.5726 H   0  0  0  0  0  0  0  0  0  0  0  0
   -0.3157    1.9332   -1.5869 H   0  0  0  0  0  0  0  0  0  0  0  0
   -1.3573    2.7023   -2.7659 H   0  0  0  0  0  0  0  0  0  0  0  0
   -2.3601    0.7577   -0.6087 H   0  0  0  0  0  0  0  0  0  0  0  0
   -3.3604    1.5169   -1.8244 H   0  0  0  0  0  0  0  0  0  0  0  0
   -2.5695    2.5127   -0.5927 H   0  0  0  0  0  0  0  0  0  0  0  0
   -0.3614    1.0168    0.0619 H   0  0  0  0  0  0  0  0  0  0  0  0
    0.8838    0.4838    1.1804 H   0  0  0  0  0  0  0  0  0  0  0  0
   -1.3029   -0.6396    1.6348 H   0  0  0  0  0  0  0  0  0  0  0  0
   -1.2782   -1.3434    0.0093 H   0  0  0  0  0  0  0  0  0  0  0  0
   -0.0557   -1.8074    1.1921 H   0  0  0  0  0  0  0  0  0  0  0  0
    4.8857   -0.0516    4.5508 H   0  0  0  0  0  0  0  0  0  0  0  0
    5.6742   -6.1757    5.4524 H   0  0  0  0  0  0  0  0  0  0  0  0
    7.3945   -2.7007    8.7127 H   0  0  0  0  0  0  0  0  0  0  0  0
    8.5267   -5.8151    9.5835 H   0  0  0  0  0  0  0  0  0  0  0  0
    6.5273   -5.1492   11.2127 H   0  0  0  0  0  0  0  0  0  0  0  0
    7.4868   -7.4725   11.9773 H   0  0  0  0  0  0  0  0  0  0  0  0
    6.6135   -9.3256   10.2857 H   0  0  0  0  0  0  0  0  0  0  0  0
    5.1149   -8.1436    8.4803 H   0  0  0  0  0  0  0  0  0  0  0  0
    4.4413   -6.6381   10.5507 H   0  0  0  0  0  0  0  0  0  0  0  0
    4.8175   -5.5671    9.1818 H   0  0  0  0  0  0  0  0  0  0  0  0
    7.6687   -7.6279    7.9216 H   0  0  0  0  0  0  0  0  0  0  0  0
  1  2  2  0  0  0  0
  2  3  1  0  0  0  0
  3  4  2  0  0  0  0
  3  5  1  0  0  0  0
  5  6  2  0  0  0  0
  6  7  1  0  0  0  0
  7  8  1  0  0  0  0
  7  9  2  0  0  0  0
  9 10  1  0  0  0  0
 10 11  2  0  0  0  0
 11 12  1  0  0  0  0
 12 13  2  0  0  0  0
 13 14  1  0  0  0  0
 14 15  3  0  0  0  0
 13 16  1  0  0  0  0
 16 17  3  0  0  0  0
  1 18  1  0  0  0  0
 18 19  1  0  0  0  0
 19 20  1  0  0  0  0
 20 21  1  0  0  0  0
 21 22  1  0  0  0  0
 22 23  1  0  0  0  0
 23 24  1  0  0  0  0
 24 25  1  0  0  0  0
 25 26  1  0  0  0  0
 26 27  2  0  0  0  0
 27 28  1  0  0  0  0
 28 29  1  0  0  0  0
 26 30  1  0  0  0  0
 30 31  1  0  0  0  0
 31 32  1  0  0  0  0
 32 33  1  0  0  0  0
 33 34  1  0  0  0  0
 34 35  1  0  0  0  0
 35 36  1  0  0  0  0
 34 37  2  0  0  0  0
 37 38  1  0  0  0  0
 38 39  1  0  0  0  0
 39 40  1  0  0  0  0
 40 41  1  0  0  0  0
 41 42  1  0  0  0  0
 42 43  1  0  0  0  0
 43 44  1  0  0  0  0
 44 45  1  0  0  0  0
 45 46  1  0  0  0  0
 46 47  1  0  0  0  0
 47 48  1  0  0  0  0
 48 49  1  0  0  0  0
 47 50  1  0  0  0  0
 50 51  1  0  0  0  0
 44 52  1  0  0  0  0
 52 53  1  0  0  0  0
 41 54  1  0  0  0  0
 54 55  1  0  0  0  0
 37 56  1  0  0  0  0
 56 57  2  0  0  0  0
 57 58  1  0  0  0  0
 58 59  2  0  0  0  0
 58 60  1  0  0  0  0
 60 61  2  0  0  0  0
 61 62  1  0  0  0  0
 62 63  2  0  0  0  0
 63 64  1  0  0  0  0
 64 65  2  0  0  0  0
 65 66  1  0  0  0  0
 66 67  2  0  0  0  0
 67 68  1  0  0  0  0
 68 69  3  0  0  0  0
 67 70  1  0  0  0  0
 70 71  3  0  0  0  0
 63 72  1  0  0  0  0
 72 73  1  0  0  0  0
 73 74  1  0  0  0  0
 74 75  2  0  0  0  0
 75 76  1  0  0  0  0
 76 77  1  0  0  0  0
 76 78  1  0  0  0  0
 12  2  1  0  0  0  0
 49 18  2  0  0  0  0
 66 57  1  0  0  0  0
 78 72  1  0  0  0  0
 11  5  1  0  0  0  0
 48 20  2  0  0  0  0
 65 60  1  0  0  0  0
 77 73  1  0  0  0  0
 46 21  2  0  0  0  0
 78 62  1  0  0  0  0
 45 23  2  0  0  0  0
 43 24  2  0  0  0  0
 29 25  2  0  0  0  0
 42 30  2  0  0  0  0
 40 31  2  0  0  0  0
 39 33  2  0  0  0  0
  1 79  1  0  0  0  0
  6 80  1  0  0  0  0
  9 81  1  0  0  0  0
 10 82  1  0  0  0  0
 35 83  1  0  0  0  0
 35 84  1  0  0  0  0
 36 85  1  0  0  0  0
 36 86  1  0  0  0  0
 36 87  1  0  0  0  0
 49 88  1  0  0  0  0
 50 89  1  0  0  0  0
 50 90  1  0  0  0  0
 51 91  1  0  0  0  0
 51 92  1  0  0  0  0
 51 93  1  0  0  0  0
 52 94  1  0  0  0  0
 52 95  1  0  0  0  0
 53 96  1  0  0  0  0
 53 97  1  0  0  0  0
 53 98  1  0  0  0  0
 54 99  1  0  0  0  0
 54100  1  0  0  0  0
 55101  1  0  0  0  0
 55102  1  0  0  0  0
 55103  1  0  0  0  0
 56104  1  0  0  0  0
 61105  1  0  0  0  0
 64106  1  0  0  0  0
 72107  1  0  0  0  0
 73108  1  0  0  0  0
 74109  1  0  0  0  0
 75110  1  0  0  0  0
 76111  1  0  0  0  0
 77112  1  0  0  0  0
 77113  1  0  0  0  0
 78114  1  0  0  0  0
M  END
