
  xtb     02012216233D
 energy: -190.313109133926 gnorm: 0.000239599855 xtb: 6.4.1 (unknown)
100112  0     0  0            999 V2000
    3.7082   -6.3445    4.5226 C   0  0  0  0  0  0  0  0  0  0  0  0
    3.1822   -6.2482    5.7909 C   0  0  0  0  0  0  0  0  0  0  0  0
    2.0727   -5.3900    6.2038 C   0  0  0  0  0  0  0  0  0  0  0  0
    1.4090   -4.6359    5.5128 O   0  0  0  0  0  0  0  0  0  0  0  0
    1.8979   -5.6164    7.6530 C   0  0  0  0  0  0  0  0  0  0  0  0
    0.9846   -5.0344    8.5076 C   0  0  0  0  0  0  0  0  0  0  0  0
    1.0373   -5.4261    9.8370 C   0  0  0  0  0  0  0  0  0  0  0  0
    0.1687   -4.8861   10.7088 F   0  0  0  0  0  0  0  0  0  0  0  0
    1.9554   -6.3553   10.3014 C   0  0  0  0  0  0  0  0  0  0  0  0
    2.8670   -6.9325    9.4292 C   0  0  0  0  0  0  0  0  0  0  0  0
    2.8403   -6.5620    8.0927 C   0  0  0  0  0  0  0  0  0  0  0  0
    3.6540   -6.9793    6.9495 C   0  0  0  0  0  0  0  0  0  0  0  0
    4.6725   -7.8969    7.0027 C   0  0  0  0  0  0  0  0  0  0  0  0
    5.4690   -8.3132    5.9159 C   0  0  0  0  0  0  0  0  0  0  0  0
    6.1621   -8.7053    5.0871 N   0  0  0  0  0  0  0  0  0  0  0  0
    5.0743   -8.5666    8.1777 C   0  0  0  0  0  0  0  0  0  0  0  0
    5.4541   -9.1461    9.0930 N   0  0  0  0  0  0  0  0  0  0  0  0
    3.3763   -5.6821    3.3396 C   0  0  0  0  0  0  0  0  0  0  0  0
    4.0767   -5.8713    2.1328 C   0  0  0  0  0  0  0  0  0  0  0  0
    5.2579   -6.7642    1.9387 C   0  0  0  0  0  0  0  0  0  0  0  0
    6.5496   -6.0515    2.3498 C   0  0  0  0  0  0  0  0  0  0  0  0
    3.5797   -5.0559    1.1268 C   0  0  0  0  0  0  0  0  0  0  0  0
    4.0718   -4.7998   -0.5383 S   0  0  0  0  0  0  0  0  0  0  0  0
    2.8297   -3.6061   -0.6880 C   0  0  0  0  0  0  0  0  0  0  0  0
    2.3704   -2.6645   -1.6186 C   0  0  0  0  0  0  0  0  0  0  0  0
    2.8868   -2.2746   -2.8749 C   0  0  0  0  0  0  0  0  0  0  0  0
    2.3400   -1.1153   -3.5181 C   0  0  0  0  0  0  0  0  0  0  0  0
    2.9693   -0.8177   -4.6439 N   0  0  0  0  0  0  0  0  0  0  0  0
    4.1432   -1.9065   -4.8791 S   0  0  0  0  0  0  0  0  0  0  0  0
    3.8974   -2.7978   -3.5507 N   0  0  0  0  0  0  0  0  0  0  0  0
    1.2120   -0.4864   -2.9459 C   0  0  0  0  0  0  0  0  0  0  0  0
    0.4128    0.5723   -3.4010 C   0  0  0  0  0  0  0  0  0  0  0  0
    0.3841    1.7226   -4.6918 S   0  0  0  0  0  0  0  0  0  0  0  0
   -1.1131    2.3503   -4.0560 C   0  0  0  0  0  0  0  0  0  0  0  0
   -1.9634    3.3996   -4.4183 C   0  0  0  0  0  0  0  0  0  0  0  0
   -1.9875    4.5938   -5.6509 S   0  0  0  0  0  0  0  0  0  0  0  0
   -3.4400    5.3145   -4.9492 C   0  0  0  0  0  0  0  0  0  0  0  0
   -3.9196    4.5984   -3.8584 C   0  0  0  0  0  0  0  0  0  0  0  0
   -5.2495    4.7933   -3.2015 C   0  0  0  0  0  0  0  0  0  0  0  0
   -5.1522    4.9332   -1.6831 C   0  0  0  0  0  0  0  0  0  0  0  0
   -3.0674    3.5269   -3.5664 C   0  0  0  0  0  0  0  0  0  0  0  0
   -3.0703    2.3181   -2.3129 S   0  0  0  0  0  0  0  0  0  0  0  0
   -1.5663    1.6794   -2.9116 C   0  0  0  0  0  0  0  0  0  0  0  0
   -0.6743    0.6729   -2.5243 C   0  0  0  0  0  0  0  0  0  0  0  0
   -0.5581   -0.2619   -1.5302 N   0  0  0  0  0  0  0  0  0  0  0  0
    0.6128   -0.9669   -1.7471 C   0  0  0  0  0  0  0  0  0  0  0  0
    1.2827   -1.9747   -1.0059 C   0  0  0  0  0  0  0  0  0  0  0  0
    1.1139   -2.4697    0.2755 N   0  0  0  0  0  0  0  0  0  0  0  0
    2.0627   -3.4397    0.4718 C   0  0  0  0  0  0  0  0  0  0  0  0
    2.4928   -4.2545    1.5212 C   0  0  0  0  0  0  0  0  0  0  0  0
    2.0774   -4.4968    3.1747 S   0  0  0  0  0  0  0  0  0  0  0  0
    0.5352   -1.8316    1.4387 C   0  0  0  0  0  0  0  0  0  0  0  0
    1.3460   -0.6027    1.8433 C   0  0  0  0  0  0  0  0  0  0  0  0
   -1.7067   -0.6067   -0.7218 C   0  0  0  0  0  0  0  0  0  0  0  0
   -1.9507    0.3936    0.4067 C   0  0  0  0  0  0  0  0  0  0  0  0
   -3.9528    6.4646   -5.5946 C   0  0  0  0  0  0  0  0  0  0  0  0
   -4.5000    7.5530   -4.9739 C   0  0  0  0  0  0  0  0  0  0  0  0
   -4.2444    7.9069   -3.5580 C   0  0  0  0  0  0  0  0  0  0  0  0
   -3.6228    7.2761   -2.7314 O   0  0  0  0  0  0  0  0  0  0  0  0
   -4.7840    9.2744   -3.3943 C   0  0  0  0  0  0  0  0  0  0  0  0
   -4.7840   10.0588   -2.2588 C   0  0  0  0  0  0  0  0  0  0  0  0
   -5.3501   11.3198   -2.3709 C   0  0  0  0  0  0  0  0  0  0  0  0
   -5.3822   12.1163   -1.2898 F   0  0  0  0  0  0  0  0  0  0  0  0
   -5.8858   11.7911   -3.5604 C   0  0  0  0  0  0  0  0  0  0  0  0
   -5.8732   10.9945   -4.6954 C   0  0  0  0  0  0  0  0  0  0  0  0
   -5.3203    9.7242   -4.6134 C   0  0  0  0  0  0  0  0  0  0  0  0
   -5.1701    8.6672   -5.6107 C   0  0  0  0  0  0  0  0  0  0  0  0
   -5.6501    8.6965   -6.8938 C   0  0  0  0  0  0  0  0  0  0  0  0
   -6.3102    9.8034   -7.4664 C   0  0  0  0  0  0  0  0  0  0  0  0
   -6.8468   10.6753   -7.9853 N   0  0  0  0  0  0  0  0  0  0  0  0
   -5.5739    7.6170   -7.7993 C   0  0  0  0  0  0  0  0  0  0  0  0
   -5.5689    6.7714   -8.5758 N   0  0  0  0  0  0  0  0  0  0  0  0
    4.5323   -7.0350    4.4076 H   0  0  0  0  0  0  0  0  0  0  0  0
    0.2656   -4.3102    8.1595 H   0  0  0  0  0  0  0  0  0  0  0  0
    1.9507   -6.6217   11.3465 H   0  0  0  0  0  0  0  0  0  0  0  0
    3.5747   -7.6530    9.8039 H   0  0  0  0  0  0  0  0  0  0  0  0
    5.3178   -7.0246    0.8801 H   0  0  0  0  0  0  0  0  0  0  0  0
    5.1543   -7.6859    2.5125 H   0  0  0  0  0  0  0  0  0  0  0  0
    7.3987   -6.7097    2.1907 H   0  0  0  0  0  0  0  0  0  0  0  0
    6.5198   -5.7763    3.4015 H   0  0  0  0  0  0  0  0  0  0  0  0
    6.6891   -5.1502    1.7574 H   0  0  0  0  0  0  0  0  0  0  0  0
   -5.7412    5.6693   -3.6247 H   0  0  0  0  0  0  0  0  0  0  0  0
   -5.8636    3.9171   -3.4377 H   0  0  0  0  0  0  0  0  0  0  0  0
   -4.4914    5.7560   -1.4273 H   0  0  0  0  0  0  0  0  0  0  0  0
   -4.7655    4.0215   -1.2348 H   0  0  0  0  0  0  0  0  0  0  0  0
   -6.1381    5.1299   -1.2696 H   0  0  0  0  0  0  0  0  0  0  0  0
   -0.5029   -1.5650    1.2648 H   0  0  0  0  0  0  0  0  0  0  0  0
    0.5597   -2.5681    2.2455 H   0  0  0  0  0  0  0  0  0  0  0  0
    2.3709   -0.8880    2.0684 H   0  0  0  0  0  0  0  0  0  0  0  0
    1.3631    0.1306    1.0392 H   0  0  0  0  0  0  0  0  0  0  0  0
    0.9128   -0.1484    2.7301 H   0  0  0  0  0  0  0  0  0  0  0  0
   -1.5778   -1.6240   -0.3495 H   0  0  0  0  0  0  0  0  0  0  0  0
   -2.5839   -0.6087   -1.3792 H   0  0  0  0  0  0  0  0  0  0  0  0
   -2.2213    1.3617   -0.0051 H   0  0  0  0  0  0  0  0  0  0  0  0
   -1.0677    0.5257    1.0244 H   0  0  0  0  0  0  0  0  0  0  0  0
   -2.7706    0.0477    1.0301 H   0  0  0  0  0  0  0  0  0  0  0  0
   -3.8235    6.4904   -6.6704 H   0  0  0  0  0  0  0  0  0  0  0  0
   -4.3675    9.7072   -1.3284 H   0  0  0  0  0  0  0  0  0  0  0  0
   -6.3083   12.7830   -3.5891 H   0  0  0  0  0  0  0  0  0  0  0  0
   -6.2850   11.3730   -5.6163 H   0  0  0  0  0  0  0  0  0  0  0  0
  1  2  2  0  0  0  0
  2  3  1  0  0  0  0
  3  4  2  0  0  0  0
  3  5  1  0  0  0  0
  5  6  2  0  0  0  0
  6  7  1  0  0  0  0
  7  8  1  0  0  0  0
  7  9  2  0  0  0  0
  9 10  1  0  0  0  0
 10 11  2  0  0  0  0
 11 12  1  0  0  0  0
 12 13  2  0  0  0  0
 13 14  1  0  0  0  0
 14 15  3  0  0  0  0
 13 16  1  0  0  0  0
 16 17  3  0  0  0  0
  1 18  1  0  0  0  0
 18 19  2  0  0  0  0
 19 20  1  0  0  0  0
 20 21  1  0  0  0  0
 19 22  1  0  0  0  0
 22 23  1  0  0  0  0
 23 24  1  0  0  0  0
 24 25  1  0  0  0  0
 25 26  1  0  0  0  0
 26 27  1  0  0  0  0
 27 28  2  0  0  0  0
 28 29  1  0  0  0  0
 29 30  1  0  0  0  0
 27 31  1  0  0  0  0
 31 32  1  0  0  0  0
 32 33  1  0  0  0  0
 33 34  1  0  0  0  0
 34 35  1  0  0  0  0
 35 36  1  0  0  0  0
 36 37  1  0  0  0  0
 37 38  2  0  0  0  0
 38 39  1  0  0  0  0
 39 40  1  0  0  0  0
 38 41  1  0  0  0  0
 41 42  1  0  0  0  0
 42 43  1  0  0  0  0
 43 44  1  0  0  0  0
 44 45  1  0  0  0  0
 45 46  1  0  0  0  0
 46 47  1  0  0  0  0
 47 48  1  0  0  0  0
 48 49  1  0  0  0  0
 49 50  1  0  0  0  0
 50 51  1  0  0  0  0
 48 52  1  0  0  0  0
 52 53  1  0  0  0  0
 45 54  1  0  0  0  0
 54 55  1  0  0  0  0
 37 56  1  0  0  0  0
 56 57  2  0  0  0  0
 57 58  1  0  0  0  0
 58 59  2  0  0  0  0
 58 60  1  0  0  0  0
 60 61  2  0  0  0  0
 61 62  1  0  0  0  0
 62 63  1  0  0  0  0
 62 64  2  0  0  0  0
 64 65  1  0  0  0  0
 65 66  2  0  0  0  0
 66 67  1  0  0  0  0
 67 68  2  0  0  0  0
 68 69  1  0  0  0  0
 69 70  3  0  0  0  0
 68 71  1  0  0  0  0
 71 72  3  0  0  0  0
 12  2  1  0  0  0  0
 51 18  1  0  0  0  0
 67 57  1  0  0  0  0
 11  5  1  0  0  0  0
 50 22  2  0  0  0  0
 66 60  1  0  0  0  0
 49 24  2  0  0  0  0
 47 25  2  0  0  0  0
 30 26  2  0  0  0  0
 46 31  2  0  0  0  0
 44 32  2  0  0  0  0
 43 34  2  0  0  0  0
 41 35  2  0  0  0  0
  1 73  1  0  0  0  0
  6 74  1  0  0  0  0
  9 75  1  0  0  0  0
 10 76  1  0  0  0  0
 20 77  1  0  0  0  0
 20 78  1  0  0  0  0
 21 79  1  0  0  0  0
 21 80  1  0  0  0  0
 21 81  1  0  0  0  0
 39 82  1  0  0  0  0
 39 83  1  0  0  0  0
 40 84  1  0  0  0  0
 40 85  1  0  0  0  0
 40 86  1  0  0  0  0
 52 87  1  0  0  0  0
 52 88  1  0  0  0  0
 53 89  1  0  0  0  0
 53 90  1  0  0  0  0
 53 91  1  0  0  0  0
 54 92  1  0  0  0  0
 54 93  1  0  0  0  0
 55 94  1  0  0  0  0
 55 95  1  0  0  0  0
 55 96  1  0  0  0  0
 56 97  1  0  0  0  0
 61 98  1  0  0  0  0
 64 99  1  0  0  0  0
 65100  1  0  0  0  0
M  END
