
  xtb     02012216363D
 energy: -180.706917540664 gnorm: 0.000444202545 xtb: 6.4.1 (unknown)
 95106  0     0  0            999 V2000
    5.0318   -3.3621    4.9836 C   0  0  0  0  0  0  0  0  0  0  0  0
    6.3546   -3.3694    5.3590 C   0  0  0  0  0  0  0  0  0  0  0  0
    7.3541   -2.3638    4.9915 C   0  0  0  0  0  0  0  0  0  0  0  0
    7.1878   -1.3428    4.3505 O   0  0  0  0  0  0  0  0  0  0  0  0
    8.6333   -2.8348    5.5644 C   0  0  0  0  0  0  0  0  0  0  0  0
    9.8795   -2.2504    5.4748 C   0  0  0  0  0  0  0  0  0  0  0  0
   10.9255   -2.9138    6.0992 C   0  0  0  0  0  0  0  0  0  0  0  0
   12.1602   -2.3866    6.0376 F   0  0  0  0  0  0  0  0  0  0  0  0
   10.7455   -4.1053    6.7848 C   0  0  0  0  0  0  0  0  0  0  0  0
    9.4853   -4.6795    6.8679 C   0  0  0  0  0  0  0  0  0  0  0  0
    8.4181   -4.0410    6.2534 C   0  0  0  0  0  0  0  0  0  0  0  0
    7.0001   -4.3916    6.1551 C   0  0  0  0  0  0  0  0  0  0  0  0
    6.4213   -5.4970    6.7270 C   0  0  0  0  0  0  0  0  0  0  0  0
    5.0595   -5.8529    6.6466 C   0  0  0  0  0  0  0  0  0  0  0  0
    3.9704   -6.2202    6.6328 N   0  0  0  0  0  0  0  0  0  0  0  0
    7.1212   -6.4505    7.4953 C   0  0  0  0  0  0  0  0  0  0  0  0
    7.6267   -7.2641    8.1286 N   0  0  0  0  0  0  0  0  0  0  0  0
    4.3132   -2.4705    4.1814 C   0  0  0  0  0  0  0  0  0  0  0  0
    4.9338   -0.9992    3.4252 S   0  0  0  0  0  0  0  0  0  0  0  0
    3.4036   -0.7365    2.6887 C   0  0  0  0  0  0  0  0  0  0  0  0
    2.7460    0.1439    1.8341 C   0  0  0  0  0  0  0  0  0  0  0  0
    3.0804    1.6426    1.0153 S   0  0  0  0  0  0  0  0  0  0  0  0
    1.4816    1.5836    0.3656 C   0  0  0  0  0  0  0  0  0  0  0  0
    0.7048    2.3397   -0.5250 C   0  0  0  0  0  0  0  0  0  0  0  0
    1.0148    3.4784   -1.3020 C   0  0  0  0  0  0  0  0  0  0  0  0
    0.0731    3.9167   -2.2929 C   0  0  0  0  0  0  0  0  0  0  0  0
    0.5244    4.9407   -2.9998 N   0  0  0  0  0  0  0  0  0  0  0  0
    2.0021    5.3249   -2.4612 S   0  0  0  0  0  0  0  0  0  0  0  0
    2.1251    4.1986   -1.3068 N   0  0  0  0  0  0  0  0  0  0  0  0
   -1.1839    3.2775   -2.3674 C   0  0  0  0  0  0  0  0  0  0  0  0
   -2.2997    3.4957   -3.1836 C   0  0  0  0  0  0  0  0  0  0  0  0
   -2.7111    4.3916   -4.5775 S   0  0  0  0  0  0  0  0  0  0  0  0
   -4.2411    3.5100   -4.6722 C   0  0  0  0  0  0  0  0  0  0  0  0
   -4.4609    2.6665   -3.5872 C   0  0  0  0  0  0  0  0  0  0  0  0
   -5.7987    2.0456   -3.3209 C   0  0  0  0  0  0  0  0  0  0  0  0
   -6.6062    2.9190   -2.3534 C   0  0  0  0  0  0  0  0  0  0  0  0
   -3.3318    2.6495   -2.7472 C   0  0  0  0  0  0  0  0  0  0  0  0
   -2.8722    1.9070   -1.6827 N   0  0  0  0  0  0  0  0  0  0  0  0
   -1.5418    2.2268   -1.4803 C   0  0  0  0  0  0  0  0  0  0  0  0
   -0.5361    1.6657   -0.6569 C   0  0  0  0  0  0  0  0  0  0  0  0
   -0.4993    0.4989    0.0996 N   0  0  0  0  0  0  0  0  0  0  0  0
    0.7250    0.4631    0.7407 C   0  0  0  0  0  0  0  0  0  0  0  0
    1.4356   -0.3607    1.6293 C   0  0  0  0  0  0  0  0  0  0  0  0
    1.2671   -1.5049    2.3766 N   0  0  0  0  0  0  0  0  0  0  0  0
    2.4609   -1.7467    3.0139 C   0  0  0  0  0  0  0  0  0  0  0  0
    2.9689   -2.7080    3.8628 C   0  0  0  0  0  0  0  0  0  0  0  0
    0.0702   -2.2643    2.6460 C   0  0  0  0  0  0  0  0  0  0  0  0
    0.0622   -3.6062    1.9143 C   0  0  0  0  0  0  0  0  0  0  0  0
   -1.1644   -0.7444   -0.2497 C   0  0  0  0  0  0  0  0  0  0  0  0
   -1.1638   -1.0119   -1.7529 C   0  0  0  0  0  0  0  0  0  0  0  0
   -3.7438    1.2088   -0.7648 C   0  0  0  0  0  0  0  0  0  0  0  0
   -3.5789    1.7029    0.6706 C   0  0  0  0  0  0  0  0  0  0  0  0
   -5.0118    3.7514   -5.8317 C   0  0  0  0  0  0  0  0  0  0  0  0
   -5.7810    2.9247   -6.5968 C   0  0  0  0  0  0  0  0  0  0  0  0
   -6.6604    3.5536   -7.6296 C   0  0  0  0  0  0  0  0  0  0  0  0
   -6.7036    4.7269   -7.9160 O   0  0  0  0  0  0  0  0  0  0  0  0
   -7.4578    2.4452   -8.1802 C   0  0  0  0  0  0  0  0  0  0  0  0
   -8.4754    2.2684   -9.1288 C   0  0  0  0  0  0  0  0  0  0  0  0
   -8.8105    0.9459   -9.2357 C   0  0  0  0  0  0  0  0  0  0  0  0
   -9.9936    0.2808  -10.2640 Cl  0  0  0  0  0  0  0  0  0  0  0  0
   -7.8837   -0.1026   -8.1910 S   0  0  0  0  0  0  0  0  0  0  0  0
   -7.0389    1.2649   -7.5870 C   0  0  0  0  0  0  0  0  0  0  0  0
   -5.9554    1.4847   -6.6613 C   0  0  0  0  0  0  0  0  0  0  0  0
   -5.2015    0.4575   -6.1426 C   0  0  0  0  0  0  0  0  0  0  0  0
   -5.5637   -0.8852   -6.3848 C   0  0  0  0  0  0  0  0  0  0  0  0
   -5.8487   -1.9860   -6.5427 N   0  0  0  0  0  0  0  0  0  0  0  0
   -4.0186    0.5345   -5.3903 C   0  0  0  0  0  0  0  0  0  0  0  0
   -3.0430    0.4613   -4.7872 N   0  0  0  0  0  0  0  0  0  0  0  0
    4.4292   -4.1907    5.3355 H   0  0  0  0  0  0  0  0  0  0  0  0
   10.0329   -1.3250    4.9431 H   0  0  0  0  0  0  0  0  0  0  0  0
   11.5963   -4.5779    7.2497 H   0  0  0  0  0  0  0  0  0  0  0  0
    9.3598   -5.6061    7.4028 H   0  0  0  0  0  0  0  0  0  0  0  0
   -6.3640    1.9731   -4.2479 H   0  0  0  0  0  0  0  0  0  0  0  0
   -5.6796    1.0351   -2.9239 H   0  0  0  0  0  0  0  0  0  0  0  0
   -7.5535    2.4392   -2.1192 H   0  0  0  0  0  0  0  0  0  0  0  0
   -6.0686    3.0998   -1.4253 H   0  0  0  0  0  0  0  0  0  0  0  0
   -6.8116    3.8822   -2.8146 H   0  0  0  0  0  0  0  0  0  0  0  0
    2.4366   -3.5600    4.2464 H   0  0  0  0  0  0  0  0  0  0  0  0
   -0.7982   -1.6618    2.3719 H   0  0  0  0  0  0  0  0  0  0  0  0
    0.0252   -2.4457    3.7252 H   0  0  0  0  0  0  0  0  0  0  0  0
   -0.8578   -4.1407    2.1337 H   0  0  0  0  0  0  0  0  0  0  0  0
    0.9031   -4.2138    2.2373 H   0  0  0  0  0  0  0  0  0  0  0  0
    0.1391   -3.4716    0.8376 H   0  0  0  0  0  0  0  0  0  0  0  0
   -0.5956   -1.5389    0.2301 H   0  0  0  0  0  0  0  0  0  0  0  0
   -2.1780   -0.7690    0.1589 H   0  0  0  0  0  0  0  0  0  0  0  0
   -0.1432   -1.0017   -2.1289 H   0  0  0  0  0  0  0  0  0  0  0  0
   -1.5914   -1.9933   -1.9431 H   0  0  0  0  0  0  0  0  0  0  0  0
   -1.7352   -0.2768   -2.3110 H   0  0  0  0  0  0  0  0  0  0  0  0
   -4.7657    1.4057   -1.0804 H   0  0  0  0  0  0  0  0  0  0  0  0
   -3.5883    0.1294   -0.8321 H   0  0  0  0  0  0  0  0  0  0  0  0
   -3.7675    2.7731    0.7199 H   0  0  0  0  0  0  0  0  0  0  0  0
   -2.5777    1.5186    1.0484 H   0  0  0  0  0  0  0  0  0  0  0  0
   -4.2934    1.1963    1.3145 H   0  0  0  0  0  0  0  0  0  0  0  0
   -4.9607    4.7680   -6.2150 H   0  0  0  0  0  0  0  0  0  0  0  0
   -8.9303    3.0559   -9.6993 H   0  0  0  0  0  0  0  0  0  0  0  0
  1  2  2  0  0  0  0
  2  3  1  0  0  0  0
  3  4  2  0  0  0  0
  3  5  1  0  0  0  0
  5  6  2  0  0  0  0
  6  7  1  0  0  0  0
  7  8  1  0  0  0  0
  7  9  2  0  0  0  0
  9 10  1  0  0  0  0
 10 11  2  0  0  0  0
 11 12  1  0  0  0  0
 12 13  2  0  0  0  0
 13 14  1  0  0  0  0
 14 15  3  0  0  0  0
 13 16  1  0  0  0  0
 16 17  3  0  0  0  0
  1 18  1  0  0  0  0
 18 19  1  0  0  0  0
 19 20  1  0  0  0  0
 20 21  1  0  0  0  0
 21 22  1  0  0  0  0
 22 23  1  0  0  0  0
 23 24  1  0  0  0  0
 24 25  1  0  0  0  0
 25 26  1  0  0  0  0
 26 27  2  0  0  0  0
 27 28  1  0  0  0  0
 28 29  1  0  0  0  0
 26 30  1  0  0  0  0
 30 31  1  0  0  0  0
 31 32  1  0  0  0  0
 32 33  1  0  0  0  0
 33 34  2  0  0  0  0
 34 35  1  0  0  0  0
 35 36  1  0  0  0  0
 34 37  1  0  0  0  0
 37 38  1  0  0  0  0
 38 39  1  0  0  0  0
 39 40  1  0  0  0  0
 40 41  1  0  0  0  0
 41 42  1  0  0  0  0
 42 43  1  0  0  0  0
 43 44  1  0  0  0  0
 44 45  1  0  0  0  0
 45 46  1  0  0  0  0
 44 47  1  0  0  0  0
 47 48  1  0  0  0  0
 41 49  1  0  0  0  0
 49 50  1  0  0  0  0
 38 51  1  0  0  0  0
 51 52  1  0  0  0  0
 33 53  1  0  0  0  0
 53 54  2  0  0  0  0
 54 55  1  0  0  0  0
 55 56  2  0  0  0  0
 55 57  1  0  0  0  0
 57 58  1  0  0  0  0
 58 59  2  0  0  0  0
 59 60  1  0  0  0  0
 59 61  1  0  0  0  0
 61 62  1  0  0  0  0
 62 63  1  0  0  0  0
 63 64  2  0  0  0  0
 64 65  1  0  0  0  0
 65 66  3  0  0  0  0
 64 67  1  0  0  0  0
 67 68  3  0  0  0  0
 12  2  1  0  0  0  0
 46 18  2  0  0  0  0
 63 54  1  0  0  0  0
 11  5  1  0  0  0  0
 45 20  2  0  0  0  0
 62 57  2  0  0  0  0
 43 21  2  0  0  0  0
 42 23  2  0  0  0  0
 40 24  2  0  0  0  0
 29 25  2  0  0  0  0
 39 30  2  0  0  0  0
 37 31  2  0  0  0  0
  1 69  1  0  0  0  0
  6 70  1  0  0  0  0
  9 71  1  0  0  0  0
 10 72  1  0  0  0  0
 35 73  1  0  0  0  0
 35 74  1  0  0  0  0
 36 75  1  0  0  0  0
 36 76  1  0  0  0  0
 36 77  1  0  0  0  0
 46 78  1  0  0  0  0
 47 79  1  0  0  0  0
 47 80  1  0  0  0  0
 48 81  1  0  0  0  0
 48 82  1  0  0  0  0
 48 83  1  0  0  0  0
 49 84  1  0  0  0  0
 49 85  1  0  0  0  0
 50 86  1  0  0  0  0
 50 87  1  0  0  0  0
 50 88  1  0  0  0  0
 51 89  1  0  0  0  0
 51 90  1  0  0  0  0
 52 91  1  0  0  0  0
 52 92  1  0  0  0  0
 52 93  1  0  0  0  0
 53 94  1  0  0  0  0
 58 95  1  0  0  0  0
M  END
