99

C          3.57080       -7.02330       -3.25210
C          4.76700       -6.36440       -3.33990
C          5.73620       -6.75250       -4.39020
O          5.69400       -7.73830       -5.09220
C          6.72860       -5.65300       -4.42420
C          7.78810       -5.47150       -5.28930
C          8.55380       -4.32850       -5.10990
F          9.59560       -4.10920       -5.92980
C          8.28500       -3.39870       -4.11660
C          7.22320       -3.59730       -3.24700
C          6.44060       -4.73130       -3.40060
C          5.30610       -5.23060       -2.62610
C          4.99100       -4.84630       -1.34680
C          4.11860       -5.57800       -0.51530
N          3.46040       -6.18140        0.20710
C          5.53330       -3.72250       -0.69630
N          5.89980       -2.79250       -0.13080
C          2.38700       -6.56300       -2.63630
C          1.30840       -7.25200       -2.06790
O          1.10880       -8.55400       -1.86540
C          1.97990       -9.54900       -2.37080
C          1.67650       -9.89040       -3.82560
C          0.35570       -6.36200       -1.52230
S         -1.10790       -6.63520       -0.61020
C         -1.26550       -4.92530       -0.40980
C         -2.05980       -4.00020        0.28680
C         -3.12530       -4.19520        1.19370
C         -3.63980       -3.06550        1.91200
N         -4.58490       -3.40340        2.77520
S         -4.81210       -5.00300        2.68680
N         -3.71270       -5.32810        1.54550
C         -3.15260       -1.77740        1.59750
C         -3.54360       -0.50780        2.04390
S         -4.62460        0.19870        3.19280
C         -4.11080        1.77920        2.64090
C         -4.44370        3.06910        3.06640
O         -5.31810        3.20790        4.06420
C         -5.26190        4.27530        5.00800
C         -5.57140        3.68650        6.37700
C         -3.77090        4.06040        2.30460
S         -2.65290        3.32720        1.14580
C         -3.16110        1.74620        1.61290
C         -2.82540        0.42920        1.28750
N         -1.99760       -0.21710        0.40900
C         -2.15380       -1.57470        0.59920
C         -1.51600       -2.70840        0.03110
N         -0.40660       -2.85030       -0.78900
C         -0.25550       -4.18900       -1.03920
C          0.67240       -5.01430       -1.67560
S          2.15040       -4.80930       -2.53470
C          0.77850       -2.02430       -0.90360
C          1.69340       -2.21070        0.30540
C         -1.39950        0.51170       -0.68760
C         -0.15990        1.29570       -0.25580
C         -4.04530        5.42550        2.36490
C         -3.47870        6.48920        1.69150
C         -2.33210        6.42850        0.78780
O         -1.70060        5.44640        0.43630
C         -2.05890        7.82140        0.37790
C         -1.07400        8.28880       -0.46700
C         -1.03980        9.65790       -0.68660
F         -0.09910       10.16230       -1.50320
C         -1.94210       10.52740       -0.09390
C         -2.92730       10.04120        0.75360
C         -2.98850        8.67650        0.99330
C         -3.89270        7.86970        1.81570
C         -4.93640        8.37370        2.55260
C         -5.25700        9.74460        2.64000
N         -5.57460       10.84100        2.76390
C         -5.84200        7.62140        3.32420
N         -6.62350        7.08230        3.97380
H          3.53710       -7.94600       -3.81980
H          8.01300       -6.18390       -6.06670
H          8.91220       -2.52550       -4.03070
H          7.01620       -2.87060       -2.47830
H          3.02330       -9.24350       -2.23420
H          1.78490      -10.41920       -1.73790
H          2.38060      -10.63740       -4.18020
H          1.74640       -9.01030       -4.46120
H          0.66800      -10.28790       -3.90760
H         -4.26620        4.73310        5.00390
H         -6.01380        5.03300        4.75490
H         -5.59350        4.48130        7.11650
H         -6.53910        3.19420        6.35380
H         -4.81620        2.95610        6.65640
H          0.51760       -0.97890       -1.01040
H          1.29770       -2.34240       -1.81240
H          1.18870       -1.89510        1.21620
H          1.97710       -3.25510        0.41490
H          2.59770       -1.62140        0.18080
H         -1.18890       -0.18850       -1.49760
H         -2.14680        1.22320       -1.05560
H         -0.45070        2.14100        0.36130
H          0.35560        1.68000       -1.13150
H          0.52580        0.67720        0.31810
H         -4.85850        5.68210        3.02750
H         -0.36630        7.62290       -0.93420
H         -1.86770       11.58340       -0.30040
H         -3.62170       10.72880        1.20670
