
  xtb     02012217093D
 energy: -286.871231544188 gnorm: 0.000450026006 xtb: 6.4.1 (unknown)
170188  0     0  0            999 V2000
    7.9291   -5.6674   -5.0317 C   0  0  0  0  0  0  0  0  0  0  0  0
    8.0180   -6.9470   -4.5676 C   0  0  0  0  0  0  0  0  0  0  0  0
    8.7381   -7.9708   -5.3657 C   0  0  0  0  0  0  0  0  0  0  0  0
    9.4736   -7.7796   -6.3062 O   0  0  0  0  0  0  0  0  0  0  0  0
    8.3112   -9.2698   -4.7953 C   0  0  0  0  0  0  0  0  0  0  0  0
    8.5961  -10.5435   -5.2436 C   0  0  0  0  0  0  0  0  0  0  0  0
    8.0410  -11.5965   -4.5314 C   0  0  0  0  0  0  0  0  0  0  0  0
    8.2906  -12.8548   -4.9308 F   0  0  0  0  0  0  0  0  0  0  0  0
    7.2316  -11.4015   -3.4219 C   0  0  0  0  0  0  0  0  0  0  0  0
    6.9600  -10.1169   -2.9759 C   0  0  0  0  0  0  0  0  0  0  0  0
    7.5058   -9.0439   -3.6637 C   0  0  0  0  0  0  0  0  0  0  0  0
    7.4422   -7.6042   -3.4149 C   0  0  0  0  0  0  0  0  0  0  0  0
    7.1661   -7.0281   -2.2018 C   0  0  0  0  0  0  0  0  0  0  0  0
    7.4310   -5.6762   -1.8958 C   0  0  0  0  0  0  0  0  0  0  0  0
    7.6950   -4.6044   -1.5803 N   0  0  0  0  0  0  0  0  0  0  0  0
    6.6943   -7.7438   -1.0852 C   0  0  0  0  0  0  0  0  0  0  0  0
    6.2996   -8.2822   -0.1512 N   0  0  0  0  0  0  0  0  0  0  0  0
    7.0046   -4.6626   -4.6819 C   0  0  0  0  0  0  0  0  0  0  0  0
    7.1550   -3.3042   -4.9110 C   0  0  0  0  0  0  0  0  0  0  0  0
    6.0843   -2.5680   -4.4245 C   0  0  0  0  0  0  0  0  0  0  0  0
    5.7620   -0.8631   -4.2840 S   0  0  0  0  0  0  0  0  0  0  0  0
    4.2979   -1.2326   -3.4447 C   0  0  0  0  0  0  0  0  0  0  0  0
    3.3169   -0.5170   -2.7173 C   0  0  0  0  0  0  0  0  0  0  0  0
    2.4522   -1.4068   -2.1013 C   0  0  0  0  0  0  0  0  0  0  0  0
    2.7604   -2.8268   -2.5307 C   0  0  0  0  0  0  0  0  0  0  0  0
    4.0375   -2.5938   -3.3142 C   0  0  0  0  0  0  0  0  0  0  0  0
    5.0587   -3.3554   -3.8626 C   0  0  0  0  0  0  0  0  0  0  0  0
    5.4478   -5.0292   -3.9412 S   0  0  0  0  0  0  0  0  0  0  0  0
    1.7257   -3.3464   -3.5186 C   0  0  0  0  0  0  0  0  0  0  0  0
    1.9586   -4.5408   -4.1922 C   0  0  0  0  0  0  0  0  0  0  0  0
    1.0500   -5.0240   -5.1139 C   0  0  0  0  0  0  0  0  0  0  0  0
   -0.1141   -4.3246   -5.4043 C   0  0  0  0  0  0  0  0  0  0  0  0
   -1.0828   -4.8288   -6.4341 C   0  0  0  0  0  0  0  0  0  0  0  0
   -0.7311   -4.2748   -7.8163 C   0  0  0  0  0  0  0  0  0  0  0  0
   -0.3290   -3.1178   -4.7547 C   0  0  0  0  0  0  0  0  0  0  0  0
    0.5765   -2.6318   -3.8279 C   0  0  0  0  0  0  0  0  0  0  0  0
    3.0711   -3.7532   -1.3669 C   0  0  0  0  0  0  0  0  0  0  0  0
    2.5378   -5.0225   -1.2277 C   0  0  0  0  0  0  0  0  0  0  0  0
    2.9361   -5.8465   -0.1868 C   0  0  0  0  0  0  0  0  0  0  0  0
    3.8678   -5.4244    0.7478 C   0  0  0  0  0  0  0  0  0  0  0  0
    4.3283   -6.2679    1.9063 C   0  0  0  0  0  0  0  0  0  0  0  0
    3.8183   -7.7025    1.9240 C   0  0  0  0  0  0  0  0  0  0  0  0
    4.3919   -4.1412    0.6079 C   0  0  0  0  0  0  0  0  0  0  0  0
    4.0072   -3.3217   -0.4309 C   0  0  0  0  0  0  0  0  0  0  0  0
    1.5119   -0.7548   -1.2696 C   0  0  0  0  0  0  0  0  0  0  0  0
    0.5173   -1.2671   -0.4207 C   0  0  0  0  0  0  0  0  0  0  0  0
    0.2872   -2.6899   -0.1735 C   0  0  0  0  0  0  0  0  0  0  0  0
   -0.4269   -3.6044   -0.8809 C   0  0  0  0  0  0  0  0  0  0  0  0
   -0.5364   -4.8483   -0.2207 C   0  0  0  0  0  0  0  0  0  0  0  0
    0.0849   -4.8784    0.9870 C   0  0  0  0  0  0  0  0  0  0  0  0
    0.1296   -5.9793    1.9886 C   0  0  0  0  0  0  0  0  0  0  0  0
   -0.9017   -5.7527    3.0963 C   0  0  0  0  0  0  0  0  0  0  0  0
    0.8282   -3.3562    1.3417 S   0  0  0  0  0  0  0  0  0  0  0  0
   -0.2546   -0.3511    0.2742 C   0  0  0  0  0  0  0  0  0  0  0  0
   -1.5847   -0.8428    1.3041 S   0  0  0  0  0  0  0  0  0  0  0  0
   -1.9187    0.8184    1.6234 C   0  0  0  0  0  0  0  0  0  0  0  0
   -2.9228    1.5294    2.3227 C   0  0  0  0  0  0  0  0  0  0  0  0
   -2.6888    2.8937    2.1720 C   0  0  0  0  0  0  0  0  0  0  0  0
   -1.3951    3.1324    1.4136 C   0  0  0  0  0  0  0  0  0  0  0  0
   -0.4077    3.6825    2.4339 C   0  0  0  0  0  0  0  0  0  0  0  0
    0.7090    2.9623    2.8361 C   0  0  0  0  0  0  0  0  0  0  0  0
    1.5675    3.4692    3.7959 C   0  0  0  0  0  0  0  0  0  0  0  0
    1.3357    4.7031    4.3863 C   0  0  0  0  0  0  0  0  0  0  0  0
    2.2485    5.2318    5.4540 C   0  0  0  0  0  0  0  0  0  0  0  0
    1.7764    4.7721    6.8349 C   0  0  0  0  0  0  0  0  0  0  0  0
    0.2029    5.4089    4.0023 C   0  0  0  0  0  0  0  0  0  0  0  0
   -0.6593    4.9047    3.0480 C   0  0  0  0  0  0  0  0  0  0  0  0
   -1.6576    4.0183    0.2092 C   0  0  0  0  0  0  0  0  0  0  0  0
   -1.1279    5.2889    0.0550 C   0  0  0  0  0  0  0  0  0  0  0  0
   -1.4662    6.0591   -1.0438 C   0  0  0  0  0  0  0  0  0  0  0  0
   -2.3231    5.5789   -2.0221 C   0  0  0  0  0  0  0  0  0  0  0  0
   -2.7223    6.4332   -3.1902 C   0  0  0  0  0  0  0  0  0  0  0  0
   -4.0425    7.1496   -2.8999 C   0  0  0  0  0  0  0  0  0  0  0  0
   -2.8406    4.2982   -1.8713 C   0  0  0  0  0  0  0  0  0  0  0  0
   -2.5186    3.5318   -0.7700 C   0  0  0  0  0  0  0  0  0  0  0  0
   -1.0514    1.7112    1.0162 C   0  0  0  0  0  0  0  0  0  0  0  0
   -0.0914    1.0633    0.2030 C   0  0  0  0  0  0  0  0  0  0  0  0
    0.9141    1.5752   -0.6346 C   0  0  0  0  0  0  0  0  0  0  0  0
    1.6798    0.6588   -1.3374 C   0  0  0  0  0  0  0  0  0  0  0  0
    3.0063    1.1440   -2.3755 S   0  0  0  0  0  0  0  0  0  0  0  0
    1.1725    2.9971   -0.8522 C   0  0  0  0  0  0  0  0  0  0  0  0
    1.8340    3.8970   -0.0776 C   0  0  0  0  0  0  0  0  0  0  0  0
    2.0060    5.1481   -0.7096 C   0  0  0  0  0  0  0  0  0  0  0  0
    1.4837    5.2002   -1.9627 C   0  0  0  0  0  0  0  0  0  0  0  0
    1.5195    6.3204   -2.9435 C   0  0  0  0  0  0  0  0  0  0  0  0
    2.6027    6.0891   -3.9995 C   0  0  0  0  0  0  0  0  0  0  0  0
    0.7628    3.6877   -2.3983 S   0  0  0  0  0  0  0  0  0  0  0  0
   -3.7045    3.6452    2.7494 C   0  0  0  0  0  0  0  0  0  0  0  0
   -4.7019    2.8387    3.3453 C   0  0  0  0  0  0  0  0  0  0  0  0
   -4.3618    1.1367    3.1928 S   0  0  0  0  0  0  0  0  0  0  0  0
   -5.7543    3.5432    3.9043 C   0  0  0  0  0  0  0  0  0  0  0  0
   -5.6072    4.9146    3.7459 C   0  0  0  0  0  0  0  0  0  0  0  0
   -4.1079    5.3090    2.8862 S   0  0  0  0  0  0  0  0  0  0  0  0
   -6.3845    6.0172    4.1350 C   0  0  0  0  0  0  0  0  0  0  0  0
   -7.6017    6.1114    4.7612 C   0  0  0  0  0  0  0  0  0  0  0  0
   -8.5224    5.0209    5.1524 C   0  0  0  0  0  0  0  0  0  0  0  0
   -8.3455    3.8225    5.0878 O   0  0  0  0  0  0  0  0  0  0  0  0
   -9.7439    5.6889    5.6473 C   0  0  0  0  0  0  0  0  0  0  0  0
  -10.9280    5.1326    6.1036 C   0  0  0  0  0  0  0  0  0  0  0  0
  -11.1441    3.4313    6.1668 Cl  0  0  0  0  0  0  0  0  0  0  0  0
  -11.9539    5.9813    6.5139 C   0  0  0  0  0  0  0  0  0  0  0  0
  -11.7830    7.3529    6.4604 C   0  0  0  0  0  0  0  0  0  0  0  0
  -10.5992    7.9231    6.0071 C   0  0  0  0  0  0  0  0  0  0  0  0
   -9.5749    7.0845    5.6014 C   0  0  0  0  0  0  0  0  0  0  0  0
   -8.2344    7.3747    5.0914 C   0  0  0  0  0  0  0  0  0  0  0  0
   -7.6919    8.6313    5.0020 C   0  0  0  0  0  0  0  0  0  0  0  0
   -8.3702    9.8183    5.3525 C   0  0  0  0  0  0  0  0  0  0  0  0
   -8.8518   10.8278    5.6120 N   0  0  0  0  0  0  0  0  0  0  0  0
   -6.3838    8.9555    4.5819 C   0  0  0  0  0  0  0  0  0  0  0  0
   -5.3405    9.3234    4.2714 N   0  0  0  0  0  0  0  0  0  0  0  0
    8.6243   -5.4129   -5.8261 H   0  0  0  0  0  0  0  0  0  0  0  0
    9.2219  -10.7137   -6.1050 H   0  0  0  0  0  0  0  0  0  0  0  0
    6.8210  -12.2599   -2.9141 H   0  0  0  0  0  0  0  0  0  0  0  0
    6.3257   -9.9707   -2.1168 H   0  0  0  0  0  0  0  0  0  0  0  0
    8.0345   -2.8827   -5.3622 H   0  0  0  0  0  0  0  0  0  0  0  0
    2.8591   -5.1031   -3.9953 H   0  0  0  0  0  0  0  0  0  0  0  0
    1.2512   -5.9594   -5.6163 H   0  0  0  0  0  0  0  0  0  0  0  0
   -1.0546   -5.9197   -6.4660 H   0  0  0  0  0  0  0  0  0  0  0  0
   -2.0964   -4.5199   -6.1708 H   0  0  0  0  0  0  0  0  0  0  0  0
    0.2718   -4.5828   -8.1034 H   0  0  0  0  0  0  0  0  0  0  0  0
   -1.4337   -4.6394   -8.5618 H   0  0  0  0  0  0  0  0  0  0  0  0
   -0.7655   -3.1876   -7.8082 H   0  0  0  0  0  0  0  0  0  0  0  0
   -1.2198   -2.5456   -4.9727 H   0  0  0  0  0  0  0  0  0  0  0  0
    0.3732   -1.6873   -3.3471 H   0  0  0  0  0  0  0  0  0  0  0  0
    1.7939   -5.3824   -1.9212 H   0  0  0  0  0  0  0  0  0  0  0  0
    2.5025   -6.8313   -0.1191 H   0  0  0  0  0  0  0  0  0  0  0  0
    4.0293   -5.7631    2.8314 H   0  0  0  0  0  0  0  0  0  0  0  0
    5.4216   -6.2881    1.8943 H   0  0  0  0  0  0  0  0  0  0  0  0
    4.1520   -8.2310    1.0353 H   0  0  0  0  0  0  0  0  0  0  0  0
    4.2184   -8.2187    2.7936 H   0  0  0  0  0  0  0  0  0  0  0  0
    2.7325   -7.7400    1.9776 H   0  0  0  0  0  0  0  0  0  0  0  0
    5.1202   -3.7858    1.3223 H   0  0  0  0  0  0  0  0  0  0  0  0
    4.4389   -2.3349   -0.5222 H   0  0  0  0  0  0  0  0  0  0  0  0
   -0.8710   -3.3983   -1.8377 H   0  0  0  0  0  0  0  0  0  0  0  0
   -1.0633   -5.6896   -0.6351 H   0  0  0  0  0  0  0  0  0  0  0  0
    1.1262   -6.0266    2.4316 H   0  0  0  0  0  0  0  0  0  0  0  0
   -0.0743   -6.9270    1.4853 H   0  0  0  0  0  0  0  0  0  0  0  0
   -1.9045   -5.7130    2.6776 H   0  0  0  0  0  0  0  0  0  0  0  0
   -0.8586   -6.5595    3.8236 H   0  0  0  0  0  0  0  0  0  0  0  0
   -0.7039   -4.8122    3.6052 H   0  0  0  0  0  0  0  0  0  0  0  0
    0.9223    1.9968    2.4029 H   0  0  0  0  0  0  0  0  0  0  0  0
    2.4336    2.8919    4.0873 H   0  0  0  0  0  0  0  0  0  0  0  0
    3.2653    4.8725    5.2834 H   0  0  0  0  0  0  0  0  0  0  0  0
    2.2606    6.3231    5.4234 H   0  0  0  0  0  0  0  0  0  0  0  0
    2.4378    5.1535    7.6091 H   0  0  0  0  0  0  0  0  0  0  0  0
    1.7674    3.6857    6.8894 H   0  0  0  0  0  0  0  0  0  0  0  0
    0.7689    5.1325    7.0296 H   0  0  0  0  0  0  0  0  0  0  0  0
   -0.0118    6.3651    4.4572 H   0  0  0  0  0  0  0  0  0  0  0  0
   -1.5385    5.4717    2.7822 H   0  0  0  0  0  0  0  0  0  0  0  0
   -0.4353    5.6859    0.7796 H   0  0  0  0  0  0  0  0  0  0  0  0
   -1.0473    7.0506   -1.1393 H   0  0  0  0  0  0  0  0  0  0  0  0
   -2.8370    5.8115   -4.0808 H   0  0  0  0  0  0  0  0  0  0  0  0
   -1.9484    7.1775   -3.3887 H   0  0  0  0  0  0  0  0  0  0  0  0
   -3.9422    7.7836   -2.0218 H   0  0  0  0  0  0  0  0  0  0  0  0
   -4.8325    6.4264   -2.7103 H   0  0  0  0  0  0  0  0  0  0  0  0
   -4.3336    7.7690   -3.7450 H   0  0  0  0  0  0  0  0  0  0  0  0
   -3.5042    3.8980   -2.6244 H   0  0  0  0  0  0  0  0  0  0  0  0
   -2.9375    2.5404   -0.6665 H   0  0  0  0  0  0  0  0  0  0  0  0
    2.1997    3.6745    0.9080 H   0  0  0  0  0  0  0  0  0  0  0  0
    2.5041    5.9792   -0.2422 H   0  0  0  0  0  0  0  0  0  0  0  0
    1.7191    7.2523   -2.4103 H   0  0  0  0  0  0  0  0  0  0  0  0
    0.5491    6.4036   -3.4378 H   0  0  0  0  0  0  0  0  0  0  0  0
    2.4074    5.1661   -4.5405 H   0  0  0  0  0  0  0  0  0  0  0  0
    2.6214    6.9128   -4.7088 H   0  0  0  0  0  0  0  0  0  0  0  0
    3.5796    6.0117   -3.5281 H   0  0  0  0  0  0  0  0  0  0  0  0
   -6.5990    3.1020    4.4000 H   0  0  0  0  0  0  0  0  0  0  0  0
   -5.9226    6.9608    3.8689 H   0  0  0  0  0  0  0  0  0  0  0  0
  -12.8790    5.5576    6.8710 H   0  0  0  0  0  0  0  0  0  0  0  0
  -12.5881    7.9973    6.7787 H   0  0  0  0  0  0  0  0  0  0  0  0
  -10.4997    8.9949    5.9755 H   0  0  0  0  0  0  0  0  0  0  0  0
  1  2  2  0  0  0  0
  2  3  1  0  0  0  0
  3  4  2  0  0  0  0
  3  5  1  0  0  0  0
  5  6  2  0  0  0  0
  6  7  1  0  0  0  0
  7  8  1  0  0  0  0
  7  9  2  0  0  0  0
  9 10  1  0  0  0  0
 10 11  2  0  0  0  0
 11 12  1  0  0  0  0
 12 13  2  0  0  0  0
 13 14  1  0  0  0  0
 14 15  3  0  0  0  0
 13 16  1  0  0  0  0
 16 17  3  0  0  0  0
  1 18  1  0  0  0  0
 18 19  2  0  0  0  0
 19 20  1  0  0  0  0
 20 21  1  0  0  0  0
 21 22  1  0  0  0  0
 22 23  1  0  0  0  0
 23 24  2  0  0  0  0
 24 25  1  0  0  0  0
 25 26  1  0  0  0  0
 26 27  1  0  0  0  0
 27 28  1  0  0  0  0
 25 29  1  0  0  0  0
 29 30  2  0  0  0  0
 30 31  1  0  0  0  0
 31 32  2  0  0  0  0
 32 33  1  0  0  0  0
 33 34  1  0  0  0  0
 32 35  1  0  0  0  0
 35 36  2  0  0  0  0
 25 37  1  0  0  0  0
 37 38  2  0  0  0  0
 38 39  1  0  0  0  0
 39 40  2  0  0  0  0
 40 41  1  0  0  0  0
 41 42  1  0  0  0  0
 40 43  1  0  0  0  0
 43 44  2  0  0  0  0
 24 45  1  0  0  0  0
 45 46  2  0  0  0  0
 46 47  1  0  0  0  0
 47 48  2  0  0  0  0
 48 49  1  0  0  0  0
 49 50  2  0  0  0  0
 50 51  1  0  0  0  0
 51 52  1  0  0  0  0
 50 53  1  0  0  0  0
 46 54  1  0  0  0  0
 54 55  1  0  0  0  0
 55 56  1  0  0  0  0
 56 57  1  0  0  0  0
 57 58  2  0  0  0  0
 58 59  1  0  0  0  0
 59 60  1  0  0  0  0
 60 61  2  0  0  0  0
 61 62  1  0  0  0  0
 62 63  2  0  0  0  0
 63 64  1  0  0  0  0
 64 65  1  0  0  0  0
 63 66  1  0  0  0  0
 66 67  2  0  0  0  0
 59 68  1  0  0  0  0
 68 69  2  0  0  0  0
 69 70  1  0  0  0  0
 70 71  2  0  0  0  0
 71 72  1  0  0  0  0
 72 73  1  0  0  0  0
 71 74  1  0  0  0  0
 74 75  2  0  0  0  0
 59 76  1  0  0  0  0
 76 77  1  0  0  0  0
 77 78  1  0  0  0  0
 78 79  2  0  0  0  0
 79 80  1  0  0  0  0
 78 81  1  0  0  0  0
 81 82  2  0  0  0  0
 82 83  1  0  0  0  0
 83 84  2  0  0  0  0
 84 85  1  0  0  0  0
 85 86  1  0  0  0  0
 84 87  1  0  0  0  0
 58 88  1  0  0  0  0
 88 89  2  0  0  0  0
 89 90  1  0  0  0  0
 89 91  1  0  0  0  0
 91 92  2  0  0  0  0
 92 93  1  0  0  0  0
 92 94  1  0  0  0  0
 94 95  2  0  0  0  0
 95 96  1  0  0  0  0
 96 97  2  0  0  0  0
 96 98  1  0  0  0  0
 98 99  2  0  0  0  0
 99100  1  0  0  0  0
 99101  1  0  0  0  0
101102  2  0  0  0  0
102103  1  0  0  0  0
103104  2  0  0  0  0
104105  1  0  0  0  0
105106  2  0  0  0  0
106107  1  0  0  0  0
107108  3  0  0  0  0
106109  1  0  0  0  0
109110  3  0  0  0  0
 12  2  1  0  0  0  0
 28 18  1  0  0  0  0
 36 29  1  0  0  0  0
 44 37  1  0  0  0  0
 79 45  1  0  0  0  0
 87 81  1  0  0  0  0
 93 88  1  0  0  0  0
105 95  1  0  0  0  0
 11  5  1  0  0  0  0
 27 20  2  0  0  0  0
 53 47  1  0  0  0  0
 77 54  2  0  0  0  0
104 98  1  0  0  0  0
 26 22  2  0  0  0  0
 76 56  2  0  0  0  0
 80 23  1  0  0  0  0
 90 57  1  0  0  0  0
 67 60  1  0  0  0  0
 75 68  1  0  0  0  0
  1111  1  0  0  0  0
  6112  1  0  0  0  0
  9113  1  0  0  0  0
 10114  1  0  0  0  0
 19115  1  0  0  0  0
 30116  1  0  0  0  0
 31117  1  0  0  0  0
 33118  1  0  0  0  0
 33119  1  0  0  0  0
 34120  1  0  0  0  0
 34121  1  0  0  0  0
 34122  1  0  0  0  0
 35123  1  0  0  0  0
 36124  1  0  0  0  0
 38125  1  0  0  0  0
 39126  1  0  0  0  0
 41127  1  0  0  0  0
 41128  1  0  0  0  0
 42129  1  0  0  0  0
 42130  1  0  0  0  0
 42131  1  0  0  0  0
 43132  1  0  0  0  0
 44133  1  0  0  0  0
 48134  1  0  0  0  0
 49135  1  0  0  0  0
 51136  1  0  0  0  0
 51137  1  0  0  0  0
 52138  1  0  0  0  0
 52139  1  0  0  0  0
 52140  1  0  0  0  0
 61141  1  0  0  0  0
 62142  1  0  0  0  0
 64143  1  0  0  0  0
 64144  1  0  0  0  0
 65145  1  0  0  0  0
 65146  1  0  0  0  0
 65147  1  0  0  0  0
 66148  1  0  0  0  0
 67149  1  0  0  0  0
 69150  1  0  0  0  0
 70151  1  0  0  0  0
 72152  1  0  0  0  0
 72153  1  0  0  0  0
 73154  1  0  0  0  0
 73155  1  0  0  0  0
 73156  1  0  0  0  0
 74157  1  0  0  0  0
 75158  1  0  0  0  0
 82159  1  0  0  0  0
 83160  1  0  0  0  0
 85161  1  0  0  0  0
 85162  1  0  0  0  0
 86163  1  0  0  0  0
 86164  1  0  0  0  0
 86165  1  0  0  0  0
 91166  1  0  0  0  0
 94167  1  0  0  0  0
101168  1  0  0  0  0
102169  1  0  0  0  0
103170  1  0  0  0  0
M  END
