
  xtb     01212213073D
 energy: -190.898321978281 gnorm: 0.000399225335 xtb: 6.4.1 (unknown)
 99110  0     0  0            999 V2000
    3.5708   -7.0233   -3.2521 C   0  0  0  0  0  0  0  0  0  0  0  0
    4.7670   -6.3644   -3.3399 C   0  0  0  0  0  0  0  0  0  0  0  0
    5.7362   -6.7525   -4.3902 C   0  0  0  0  0  0  0  0  0  0  0  0
    5.6940   -7.7383   -5.0922 O   0  0  0  0  0  0  0  0  0  0  0  0
    6.7286   -5.6530   -4.4242 C   0  0  0  0  0  0  0  0  0  0  0  0
    7.7881   -5.4715   -5.2893 C   0  0  0  0  0  0  0  0  0  0  0  0
    8.5538   -4.3285   -5.1099 C   0  0  0  0  0  0  0  0  0  0  0  0
    9.5956   -4.1092   -5.9298 F   0  0  0  0  0  0  0  0  0  0  0  0
    8.2850   -3.3987   -4.1166 C   0  0  0  0  0  0  0  0  0  0  0  0
    7.2232   -3.5973   -3.2470 C   0  0  0  0  0  0  0  0  0  0  0  0
    6.4406   -4.7313   -3.4006 C   0  0  0  0  0  0  0  0  0  0  0  0
    5.3061   -5.2306   -2.6261 C   0  0  0  0  0  0  0  0  0  0  0  0
    4.9910   -4.8463   -1.3468 C   0  0  0  0  0  0  0  0  0  0  0  0
    4.1186   -5.5780   -0.5153 C   0  0  0  0  0  0  0  0  0  0  0  0
    3.4604   -6.1814    0.2071 N   0  0  0  0  0  0  0  0  0  0  0  0
    5.5333   -3.7225   -0.6963 C   0  0  0  0  0  0  0  0  0  0  0  0
    5.8998   -2.7925   -0.1308 N   0  0  0  0  0  0  0  0  0  0  0  0
    2.3870   -6.5630   -2.6363 C   0  0  0  0  0  0  0  0  0  0  0  0
    1.3084   -7.2520   -2.0679 C   0  0  0  0  0  0  0  0  0  0  0  0
    1.1088   -8.5540   -1.8654 O   0  0  0  0  0  0  0  0  0  0  0  0
    1.9799   -9.5490   -2.3708 C   0  0  0  0  0  0  0  0  0  0  0  0
    1.6765   -9.8904   -3.8256 C   0  0  0  0  0  0  0  0  0  0  0  0
    0.3557   -6.3620   -1.5223 C   0  0  0  0  0  0  0  0  0  0  0  0
   -1.1079   -6.6352   -0.6102 S   0  0  0  0  0  0  0  0  0  0  0  0
   -1.2655   -4.9253   -0.4098 C   0  0  0  0  0  0  0  0  0  0  0  0
   -2.0598   -4.0002    0.2868 C   0  0  0  0  0  0  0  0  0  0  0  0
   -3.1253   -4.1952    1.1937 C   0  0  0  0  0  0  0  0  0  0  0  0
   -3.6398   -3.0655    1.9120 C   0  0  0  0  0  0  0  0  0  0  0  0
   -4.5849   -3.4034    2.7752 N   0  0  0  0  0  0  0  0  0  0  0  0
   -4.8121   -5.0030    2.6868 S   0  0  0  0  0  0  0  0  0  0  0  0
   -3.7127   -5.3281    1.5455 N   0  0  0  0  0  0  0  0  0  0  0  0
   -3.1526   -1.7774    1.5975 C   0  0  0  0  0  0  0  0  0  0  0  0
   -3.5436   -0.5078    2.0439 C   0  0  0  0  0  0  0  0  0  0  0  0
   -4.6246    0.1987    3.1928 S   0  0  0  0  0  0  0  0  0  0  0  0
   -4.1108    1.7792    2.6409 C   0  0  0  0  0  0  0  0  0  0  0  0
   -4.4437    3.0691    3.0664 C   0  0  0  0  0  0  0  0  0  0  0  0
   -5.3181    3.2079    4.0642 O   0  0  0  0  0  0  0  0  0  0  0  0
   -5.2619    4.2753    5.0080 C   0  0  0  0  0  0  0  0  0  0  0  0
   -5.5714    3.6865    6.3770 C   0  0  0  0  0  0  0  0  0  0  0  0
   -3.7709    4.0604    2.3046 C   0  0  0  0  0  0  0  0  0  0  0  0
   -2.6529    3.3272    1.1458 S   0  0  0  0  0  0  0  0  0  0  0  0
   -3.1611    1.7462    1.6129 C   0  0  0  0  0  0  0  0  0  0  0  0
   -2.8254    0.4292    1.2875 C   0  0  0  0  0  0  0  0  0  0  0  0
   -1.9976   -0.2171    0.4090 N   0  0  0  0  0  0  0  0  0  0  0  0
   -2.1538   -1.5747    0.5992 C   0  0  0  0  0  0  0  0  0  0  0  0
   -1.5160   -2.7084    0.0311 C   0  0  0  0  0  0  0  0  0  0  0  0
   -0.4066   -2.8503   -0.7890 N   0  0  0  0  0  0  0  0  0  0  0  0
   -0.2555   -4.1890   -1.0392 C   0  0  0  0  0  0  0  0  0  0  0  0
    0.6724   -5.0143   -1.6756 C   0  0  0  0  0  0  0  0  0  0  0  0
    2.1504   -4.8093   -2.5347 S   0  0  0  0  0  0  0  0  0  0  0  0
    0.7785   -2.0243   -0.9036 C   0  0  0  0  0  0  0  0  0  0  0  0
    1.6934   -2.2107    0.3054 C   0  0  0  0  0  0  0  0  0  0  0  0
   -1.3995    0.5117   -0.6876 C   0  0  0  0  0  0  0  0  0  0  0  0
   -0.1599    1.2957   -0.2558 C   0  0  0  0  0  0  0  0  0  0  0  0
   -4.0453    5.4255    2.3649 C   0  0  0  0  0  0  0  0  0  0  0  0
   -3.4787    6.4892    1.6915 C   0  0  0  0  0  0  0  0  0  0  0  0
   -2.3321    6.4285    0.7878 C   0  0  0  0  0  0  0  0  0  0  0  0
   -1.7006    5.4464    0.4363 O   0  0  0  0  0  0  0  0  0  0  0  0
   -2.0589    7.8214    0.3779 C   0  0  0  0  0  0  0  0  0  0  0  0
   -1.0740    8.2888   -0.4670 C   0  0  0  0  0  0  0  0  0  0  0  0
   -1.0398    9.6579   -0.6866 C   0  0  0  0  0  0  0  0  0  0  0  0
   -0.0991   10.1623   -1.5032 F   0  0  0  0  0  0  0  0  0  0  0  0
   -1.9421   10.5274   -0.0939 C   0  0  0  0  0  0  0  0  0  0  0  0
   -2.9273   10.0412    0.7536 C   0  0  0  0  0  0  0  0  0  0  0  0
   -2.9885    8.6765    0.9933 C   0  0  0  0  0  0  0  0  0  0  0  0
   -3.8927    7.8697    1.8157 C   0  0  0  0  0  0  0  0  0  0  0  0
   -4.9364    8.3737    2.5526 C   0  0  0  0  0  0  0  0  0  0  0  0
   -5.2570    9.7446    2.6400 C   0  0  0  0  0  0  0  0  0  0  0  0
   -5.5746   10.8410    2.7639 N   0  0  0  0  0  0  0  0  0  0  0  0
   -5.8420    7.6214    3.3242 C   0  0  0  0  0  0  0  0  0  0  0  0
   -6.6235    7.0823    3.9738 N   0  0  0  0  0  0  0  0  0  0  0  0
    3.5371   -7.9460   -3.8198 H   0  0  0  0  0  0  0  0  0  0  0  0
    8.0130   -6.1839   -6.0667 H   0  0  0  0  0  0  0  0  0  0  0  0
    8.9122   -2.5255   -4.0307 H   0  0  0  0  0  0  0  0  0  0  0  0
    7.0162   -2.8706   -2.4783 H   0  0  0  0  0  0  0  0  0  0  0  0
    3.0233   -9.2435   -2.2342 H   0  0  0  0  0  0  0  0  0  0  0  0
    1.7849  -10.4192   -1.7379 H   0  0  0  0  0  0  0  0  0  0  0  0
    2.3806  -10.6374   -4.1802 H   0  0  0  0  0  0  0  0  0  0  0  0
    1.7464   -9.0103   -4.4612 H   0  0  0  0  0  0  0  0  0  0  0  0
    0.6680  -10.2879   -3.9076 H   0  0  0  0  0  0  0  0  0  0  0  0
   -4.2662    4.7331    5.0039 H   0  0  0  0  0  0  0  0  0  0  0  0
   -6.0138    5.0330    4.7549 H   0  0  0  0  0  0  0  0  0  0  0  0
   -5.5935    4.4813    7.1165 H   0  0  0  0  0  0  0  0  0  0  0  0
   -6.5391    3.1942    6.3538 H   0  0  0  0  0  0  0  0  0  0  0  0
   -4.8162    2.9561    6.6564 H   0  0  0  0  0  0  0  0  0  0  0  0
    0.5176   -0.9789   -1.0104 H   0  0  0  0  0  0  0  0  0  0  0  0
    1.2977   -2.3424   -1.8124 H   0  0  0  0  0  0  0  0  0  0  0  0
    1.1887   -1.8951    1.2162 H   0  0  0  0  0  0  0  0  0  0  0  0
    1.9771   -3.2551    0.4149 H   0  0  0  0  0  0  0  0  0  0  0  0
    2.5977   -1.6214    0.1808 H   0  0  0  0  0  0  0  0  0  0  0  0
   -1.1889   -0.1885   -1.4976 H   0  0  0  0  0  0  0  0  0  0  0  0
   -2.1468    1.2232   -1.0556 H   0  0  0  0  0  0  0  0  0  0  0  0
   -0.4507    2.1410    0.3613 H   0  0  0  0  0  0  0  0  0  0  0  0
    0.3556    1.6800   -1.1315 H   0  0  0  0  0  0  0  0  0  0  0  0
    0.5258    0.6772    0.3181 H   0  0  0  0  0  0  0  0  0  0  0  0
   -4.8585    5.6821    3.0275 H   0  0  0  0  0  0  0  0  0  0  0  0
   -0.3663    7.6229   -0.9342 H   0  0  0  0  0  0  0  0  0  0  0  0
   -1.8677   11.5834   -0.3004 H   0  0  0  0  0  0  0  0  0  0  0  0
   -3.6217   10.7288    1.2067 H   0  0  0  0  0  0  0  0  0  0  0  0
  1  2  2  0  0  0  0
  2  3  1  0  0  0  0
  3  4  2  0  0  0  0
  3  5  1  0  0  0  0
  5  6  2  0  0  0  0
  6  7  1  0  0  0  0
  7  8  1  0  0  0  0
  7  9  2  0  0  0  0
  9 10  1  0  0  0  0
 10 11  2  0  0  0  0
 11 12  1  0  0  0  0
 12 13  2  0  0  0  0
 13 14  1  0  0  0  0
 14 15  3  0  0  0  0
 13 16  1  0  0  0  0
 16 17  3  0  0  0  0
  1 18  1  0  0  0  0
 18 19  2  0  0  0  0
 19 20  1  0  0  0  0
 20 21  1  0  0  0  0
 21 22  1  0  0  0  0
 19 23  1  0  0  0  0
 23 24  1  0  0  0  0
 24 25  1  0  0  0  0
 25 26  1  0  0  0  0
 26 27  1  0  0  0  0
 27 28  1  0  0  0  0
 28 29  2  0  0  0  0
 29 30  1  0  0  0  0
 30 31  1  0  0  0  0
 28 32  1  0  0  0  0
 32 33  1  0  0  0  0
 33 34  1  0  0  0  0
 34 35  1  0  0  0  0
 35 36  1  0  0  0  0
 36 37  1  0  0  0  0
 37 38  1  0  0  0  0
 38 39  1  0  0  0  0
 36 40  2  0  0  0  0
 40 41  1  0  0  0  0
 41 42  1  0  0  0  0
 42 43  1  0  0  0  0
 43 44  1  0  0  0  0
 44 45  1  0  0  0  0
 45 46  1  0  0  0  0
 46 47  1  0  0  0  0
 47 48  1  0  0  0  0
 48 49  1  0  0  0  0
 49 50  1  0  0  0  0
 47 51  1  0  0  0  0
 51 52  1  0  0  0  0
 44 53  1  0  0  0  0
 53 54  1  0  0  0  0
 40 55  1  0  0  0  0
 55 56  2  0  0  0  0
 56 57  1  0  0  0  0
 57 58  2  0  0  0  0
 57 59  1  0  0  0  0
 59 60  2  0  0  0  0
 60 61  1  0  0  0  0
 61 62  1  0  0  0  0
 61 63  2  0  0  0  0
 63 64  1  0  0  0  0
 64 65  2  0  0  0  0
 65 66  1  0  0  0  0
 66 67  2  0  0  0  0
 67 68  1  0  0  0  0
 68 69  3  0  0  0  0
 67 70  1  0  0  0  0
 70 71  3  0  0  0  0
 12  2  1  0  0  0  0
 50 18  1  0  0  0  0
 66 56  1  0  0  0  0
 11  5  1  0  0  0  0
 49 23  2  0  0  0  0
 65 59  1  0  0  0  0
 48 25  2  0  0  0  0
 46 26  2  0  0  0  0
 31 27  2  0  0  0  0
 45 32  2  0  0  0  0
 43 33  2  0  0  0  0
 42 35  2  0  0  0  0
  1 72  1  0  0  0  0
  6 73  1  0  0  0  0
  9 74  1  0  0  0  0
 10 75  1  0  0  0  0
 21 76  1  0  0  0  0
 21 77  1  0  0  0  0
 22 78  1  0  0  0  0
 22 79  1  0  0  0  0
 22 80  1  0  0  0  0
 38 81  1  0  0  0  0
 38 82  1  0  0  0  0
 39 83  1  0  0  0  0
 39 84  1  0  0  0  0
 39 85  1  0  0  0  0
 51 86  1  0  0  0  0
 51 87  1  0  0  0  0
 52 88  1  0  0  0  0
 52 89  1  0  0  0  0
 52 90  1  0  0  0  0
 53 91  1  0  0  0  0
 53 92  1  0  0  0  0
 54 93  1  0  0  0  0
 54 94  1  0  0  0  0
 54 95  1  0  0  0  0
 55 96  1  0  0  0  0
 60 97  1  0  0  0  0
 63 98  1  0  0  0  0
 64 99  1  0  0  0  0
M  END
