191

C          4.86210       -4.40200      -10.46000
C          6.05800       -4.15550      -11.06450
C          6.56820       -5.11850      -12.07550
O          5.95250       -6.01660      -12.60100
C          7.99740       -4.77390      -12.24880
C          8.95830       -5.43120      -12.99010
C         10.24250       -4.90850      -12.95350
F         11.21170       -5.51530      -13.65860
C         10.56820       -3.78350      -12.21020
C          9.59180       -3.12630      -11.47710
C          8.29640       -3.62120      -11.49940
C          7.06660       -3.13520      -10.87360
C          6.86110       -1.85350      -10.43430
C          5.59250       -1.33320      -10.10480
N          4.57990       -0.84690       -9.87080
C          7.87620       -0.87880      -10.35230
N          8.67160       -0.05750      -10.25080
C          4.35410       -3.87930       -9.24830
C          5.02640       -3.34240       -8.17990
C          4.19660       -2.97290       -7.10500
C          4.61140       -2.37760       -5.89940
O          5.92970       -2.14030       -5.61260
C          6.70270       -3.27880       -5.25700
C          6.32460       -3.83310       -3.88830
C          3.61750       -1.96970       -5.03450
S          3.92140       -1.17780       -3.50560
C          2.21880       -1.11200       -3.22600
C          1.40010       -0.62050       -2.16050
C          0.05920       -0.83980       -2.54370
C         -0.01230       -1.46970       -3.92910
C          1.45640       -1.65410       -4.23530
C          2.23480       -2.17150       -5.29720
C          1.82090       -2.85600       -6.46260
C          2.81660       -3.21880       -7.36080
S          2.63360       -3.96410       -8.93610
O          0.48650       -3.04670       -6.56340
C         -0.06430       -4.01590       -7.43330
C          0.24200       -5.44240       -6.99450
C         -0.79570       -2.75750       -3.82720
C         -0.14410       -3.96770       -3.63300
C         -0.86150       -5.14130       -3.49060
C         -2.24930       -5.14000       -3.53020
C         -3.02210       -6.42430       -3.44090
C         -3.16260       -7.06170       -4.82510
C         -2.89900       -3.92430       -3.69610
C         -2.18550       -2.74810       -3.83140
C         -0.55500       -0.46140       -4.93560
C         -1.34660       -0.83500       -6.01140
C         -1.77680        0.10610       -6.92900
C         -1.42900        1.44340       -6.80320
C         -1.86070        2.45320       -7.82690
C         -0.83010        2.54380       -8.95400
C         -0.62600        1.81230       -5.73210
C         -0.19230        0.87560       -4.81400
C         -0.97370       -0.47630       -1.71310
C         -0.63050        0.10680       -0.49740
C         -1.45040        0.59570        0.56600
C         -0.69890        1.10690        1.59540
C          0.77230        1.00790        1.25550
C          0.70920        0.33490       -0.11440
C          1.74080       -0.02440       -0.95020
C          1.33320        2.41540        1.10250
C          2.29730        2.94250        1.94740
C          2.76210        4.23340        1.76570
C          2.27600        5.03500        0.74230
C          2.75640        6.44800        0.57670
C          1.93440        7.40180        1.44620
C          1.29820        4.50930       -0.09230
C          0.83400        3.22030        0.08380
C          1.55530        0.11560        2.19640
C          0.91930       -0.65950        3.15580
C          1.64410       -1.49670        3.98430
C          3.02340       -1.59520        3.87400
C          3.80460       -2.53600        4.74550
C          3.92840       -3.90620        4.07630
C          3.65690       -0.83630        2.89900
C          2.93650        0.00400        2.07230
C         -1.48790        1.58110        2.67390
C         -1.05500        2.15420        3.89090
O          0.28680        2.27810        4.02680
C          0.83270        3.20670        4.94460
C          0.52880        4.65130        4.56720
C         -2.04040        2.46680        4.81890
C         -3.41910        2.27930        4.53220
C         -3.85890        1.76680        3.29690
O         -5.20270        1.72500        3.07940
C         -5.79730        0.46600        2.79440
C         -5.63910       -0.50950        3.95420
C         -2.87420        1.39280        2.39990
S         -3.15310        0.66660        0.82670
C         -4.26500        2.58860        5.61410
C         -3.59870        2.98770        6.74110
S         -1.86120        3.05530        6.45960
C         -4.07170        3.35680        8.02120
C         -5.24060        2.99500        8.62620
C         -6.15450        1.90030        8.21650
O         -6.17940        1.28110        7.17270
C         -7.01890        1.64830        9.38480
C         -7.97960        0.64560        9.50450
C         -8.62540        0.63200       10.71680
C         -8.33430        1.54470       11.74000
C         -7.38930        2.53720       11.63610
C         -6.72360        2.57190       10.40650
C         -5.66920        3.46190        9.93300
C         -5.22400        4.58840       10.57360
C         -4.27680        5.49520       10.05160
N         -3.53130        6.29100        9.69100
C         -5.68910        5.02580       11.83100
N         -6.02010        5.43630       12.85090
C         -9.35480        0.94450       12.67460
C        -10.68210        1.71590       12.83370
C        -11.63320        0.68470       13.39680
C        -11.90980       -0.18000       12.42910
C        -11.15060        0.25250       11.19550
C        -11.18370        1.77440       11.38500
C         -9.68020       -0.07220       11.53370
H          4.25040       -5.15610      -10.94620
H          8.72220       -6.30830      -13.57110
H         11.58700       -3.42920      -12.21260
H          9.85310       -2.25580      -10.89780
H          6.09590       -3.22910       -8.15290
H          7.73320       -2.91640       -5.25150
H          6.60300       -4.06600       -6.01630
H          5.30480       -4.21350       -3.90020
H          6.39420       -3.05000       -3.13760
H          6.99820       -4.64320       -3.62290
H          0.25310       -3.84720       -8.46780
H         -1.14140       -3.83700       -7.37210
H         -0.10190       -5.59040       -5.97360
H          1.30960       -5.64250       -7.03880
H         -0.27000       -6.14030       -7.65040
H          0.93500       -3.99710       -3.59460
H         -0.33440       -6.07380       -3.33950
H         -4.01560       -6.23080       -3.03190
H         -2.50830       -7.12090       -2.77500
H         -3.73550       -7.98390       -4.76290
H         -2.18310       -7.28970       -5.23990
H         -3.67180       -6.38170       -5.50470
H         -3.97950       -3.89620       -3.71420
H         -2.71740       -1.81590       -3.95250
H         -1.63010       -1.86640       -6.13840
H         -2.39520       -0.20710       -7.75860
H         -2.82780        2.16680       -8.24540
H         -1.96820        3.43340       -7.35780
H         -0.71830        1.57880       -9.44280
H         -1.13980        3.27630       -9.69590
H          0.13900        2.83800       -8.55770
H         -0.33460        2.84640       -5.61450
H          0.43610        1.19200       -3.99370
H         -2.00860       -0.62640       -1.97760
H          2.77660        0.14230       -0.70340
H          2.68810        2.34800        2.75720
H          3.51880        4.62290        2.43260
H          3.80790        6.51730        0.86330
H          2.66710        6.74790       -0.46920
H          0.88180        7.34710        1.17700
H          2.03250        7.13890        2.49720
H          2.27410        8.42620        1.31230
H          0.89820        5.11480       -0.89330
H          0.07530        2.83440       -0.58250
H         -0.15310       -0.61300        3.26710
H          1.12610       -2.08230        4.73090
H          4.80330       -2.13220        4.92460
H          3.30420       -2.65010        5.70930
H          2.94270       -4.33140        3.90120
H          4.43520       -3.81460        3.11820
H          4.49500       -4.58840        4.70600
H          4.73030       -0.89990        2.78740
H          3.46200        0.58910        1.33270
H          1.90840        3.02210        4.89200
H          0.50080        2.99410        5.96680
H          0.85720        4.84170        3.54800
H         -0.53710        4.85450        4.63340
H          1.05100        5.32020        5.24490
H         -5.38760        0.03700        1.87180
H         -6.85060        0.70530        2.63210
H         -6.20930       -1.41220        3.75420
H         -4.59180       -0.77720        4.08350
H         -5.99580       -0.05800        4.87730
H         -5.33290        2.51880        5.53970
H         -3.37530        3.95510        8.59770
H         -8.16650       -0.04130        8.69390
H         -7.16680        3.22360       12.43590
H         -8.96830        0.56360       13.61800
H        -10.60050        2.65460       13.37450
H        -11.95200        0.65910       14.42220
H        -12.50570       -1.07210       12.48480
H        -11.49720       -0.14230       10.24420
H        -12.19320        2.17590       11.31520
H        -10.52750        2.32030       10.70970
H         -9.50910       -1.13170       11.71590
