170

C          7.92910       -5.66740       -5.03170
C          8.01800       -6.94700       -4.56760
C          8.73810       -7.97080       -5.36570
O          9.47360       -7.77960       -6.30620
C          8.31120       -9.26980       -4.79530
C          8.59610      -10.54350       -5.24360
C          8.04100      -11.59650       -4.53140
F          8.29060      -12.85480       -4.93080
C          7.23160      -11.40150       -3.42190
C          6.96000      -10.11690       -2.97590
C          7.50580       -9.04390       -3.66370
C          7.44220       -7.60420       -3.41490
C          7.16610       -7.02810       -2.20180
C          7.43100       -5.67620       -1.89580
N          7.69500       -4.60440       -1.58030
C          6.69430       -7.74380       -1.08520
N          6.29960       -8.28220       -0.15120
C          7.00460       -4.66260       -4.68190
C          7.15500       -3.30420       -4.91100
C          6.08430       -2.56800       -4.42450
S          5.76200       -0.86310       -4.28400
C          4.29790       -1.23260       -3.44470
C          3.31690       -0.51700       -2.71730
C          2.45220       -1.40680       -2.10130
C          2.76040       -2.82680       -2.53070
C          4.03750       -2.59380       -3.31420
C          5.05870       -3.35540       -3.86260
S          5.44780       -5.02920       -3.94120
C          1.72570       -3.34640       -3.51860
C          1.95860       -4.54080       -4.19220
C          1.05000       -5.02400       -5.11390
C         -0.11410       -4.32460       -5.40430
C         -1.08280       -4.82880       -6.43410
C         -0.73110       -4.27480       -7.81630
C         -0.32900       -3.11780       -4.75470
C          0.57650       -2.63180       -3.82790
C          3.07110       -3.75320       -1.36690
C          2.53780       -5.02250       -1.22770
C          2.93610       -5.84650       -0.18680
C          3.86780       -5.42440        0.74780
C          4.32830       -6.26790        1.90630
C          3.81830       -7.70250        1.92400
C          4.39190       -4.14120        0.60790
C          4.00720       -3.32170       -0.43090
C          1.51190       -0.75480       -1.26960
C          0.51730       -1.26710       -0.42070
C          0.28720       -2.68990       -0.17350
C         -0.42690       -3.60440       -0.88090
C         -0.53640       -4.84830       -0.22070
C          0.08490       -4.87840        0.98700
C          0.12960       -5.97930        1.98860
C         -0.90170       -5.75270        3.09630
S          0.82820       -3.35620        1.34170
C         -0.25460       -0.35110        0.27420
S         -1.58470       -0.84280        1.30410
C         -1.91870        0.81840        1.62340
C         -2.92280        1.52940        2.32270
C         -2.68880        2.89370        2.17200
C         -1.39510        3.13240        1.41360
C         -0.40770        3.68250        2.43390
C          0.70900        2.96230        2.83610
C          1.56750        3.46920        3.79590
C          1.33570        4.70310        4.38630
C          2.24850        5.23180        5.45400
C          1.77640        4.77210        6.83490
C          0.20290        5.40890        4.00230
C         -0.65930        4.90470        3.04800
C         -1.65760        4.01830        0.20920
C         -1.12790        5.28890        0.05500
C         -1.46620        6.05910       -1.04380
C         -2.32310        5.57890       -2.02210
C         -2.72230        6.43320       -3.19020
C         -4.04250        7.14960       -2.89990
C         -2.84060        4.29820       -1.87130
C         -2.51860        3.53180       -0.77000
C         -1.05140        1.71120        1.01620
C         -0.09140        1.06330        0.20300
C          0.91410        1.57520       -0.63460
C          1.67980        0.65880       -1.33740
S          3.00630        1.14400       -2.37550
C          1.17250        2.99710       -0.85220
C          1.83400        3.89700       -0.07760
C          2.00600        5.14810       -0.70960
C          1.48370        5.20020       -1.96270
C          1.51950        6.32040       -2.94350
C          2.60270        6.08910       -3.99950
S          0.76280        3.68770       -2.39830
C         -3.70450        3.64520        2.74940
C         -4.70190        2.83870        3.34530
S         -4.36180        1.13670        3.19280
C         -5.75430        3.54320        3.90430
C         -5.60720        4.91460        3.74590
S         -4.10790        5.30900        2.88620
C         -6.38450        6.01720        4.13500
C         -7.60170        6.11140        4.76120
C         -8.52240        5.02090        5.15240
O         -8.34550        3.82250        5.08780
C         -9.74390        5.68890        5.64730
C        -10.92800        5.13260        6.10360
Cl       -11.14410        3.43130        6.16680
C        -11.95390        5.98130        6.51390
C        -11.78300        7.35290        6.46040
C        -10.59920        7.92310        6.00710
C         -9.57490        7.08450        5.60140
C         -8.23440        7.37470        5.09140
C         -7.69190        8.63130        5.00200
C         -8.37020        9.81830        5.35250
N         -8.85180       10.82780        5.61200
C         -6.38380        8.95550        4.58190
N         -5.34050        9.32340        4.27140
H          8.62430       -5.41290       -5.82610
H          9.22190      -10.71370       -6.10500
H          6.82100      -12.25990       -2.91410
H          6.32570       -9.97070       -2.11680
H          8.03450       -2.88270       -5.36220
H          2.85910       -5.10310       -3.99530
H          1.25120       -5.95940       -5.61630
H         -1.05460       -5.91970       -6.46600
H         -2.09640       -4.51990       -6.17080
H          0.27180       -4.58280       -8.10340
H         -1.43370       -4.63940       -8.56180
H         -0.76550       -3.18760       -7.80820
H         -1.21980       -2.54560       -4.97270
H          0.37320       -1.68730       -3.34710
H          1.79390       -5.38240       -1.92120
H          2.50250       -6.83130       -0.11910
H          4.02930       -5.76310        2.83140
H          5.42160       -6.28810        1.89430
H          4.15200       -8.23100        1.03530
H          4.21840       -8.21870        2.79360
H          2.73250       -7.74000        1.97760
H          5.12020       -3.78580        1.32230
H          4.43890       -2.33490       -0.52220
H         -0.87100       -3.39830       -1.83770
H         -1.06330       -5.68960       -0.63510
H          1.12620       -6.02660        2.43160
H         -0.07430       -6.92700        1.48530
H         -1.90450       -5.71300        2.67760
H         -0.85860       -6.55950        3.82360
H         -0.70390       -4.81220        3.60520
H          0.92230        1.99680        2.40290
H          2.43360        2.89190        4.08730
H          3.26530        4.87250        5.28340
H          2.26060        6.32310        5.42340
H          2.43780        5.15350        7.60910
H          1.76740        3.68570        6.88940
H          0.76890        5.13250        7.02960
H         -0.01180        6.36510        4.45720
H         -1.53850        5.47170        2.78220
H         -0.43530        5.68590        0.77960
H         -1.04730        7.05060       -1.13930
H         -2.83700        5.81150       -4.08080
H         -1.94840        7.17750       -3.38870
H         -3.94220        7.78360       -2.02180
H         -4.83250        6.42640       -2.71030
H         -4.33360        7.76900       -3.74500
H         -3.50420        3.89800       -2.62440
H         -2.93750        2.54040       -0.66650
H          2.19970        3.67450        0.90800
H          2.50410        5.97920       -0.24220
H          1.71910        7.25230       -2.41030
H          0.54910        6.40360       -3.43780
H          2.40740        5.16610       -4.54050
H          2.62140        6.91280       -4.70880
H          3.57960        6.01170       -3.52810
H         -6.59900        3.10200        4.40000
H         -5.92260        6.96080        3.86890
H        -12.87900        5.55760        6.87100
H        -12.58810        7.99730        6.77870
H        -10.49970        8.99490        5.97550
