91

C         -4.19450       -2.03820        4.31880
C         -4.53350       -2.06720        5.64710
C         -3.94710       -1.18790        6.68000
O         -3.19580       -0.24810        6.52610
C         -4.36580       -1.77350        7.97430
C         -4.06190       -1.33420        9.24630
C         -4.57280       -2.07520       10.30180
F         -4.30920       -1.68230       11.55950
C         -5.34620       -3.20990       10.10870
C         -5.64060       -3.64240        8.82430
C         -5.14890       -2.91850        7.74770
C         -5.28770       -3.11170        6.30630
C         -6.06220       -4.06200        5.69290
C         -6.78950       -5.05510        6.38060
N         -7.39490       -5.89050        6.88420
C         -6.25950       -4.15610        4.29920
N         -6.48400       -4.27680        3.17940
C         -3.59480       -0.97070        3.62470
C         -3.73830        0.40900        3.75380
C         -4.74280        1.07350        4.63260
C         -5.57880        2.11270        3.88790
C         -2.90540        1.08490        2.85230
S         -2.56810        2.78260        2.58570
C         -1.40810        2.34830        1.38310
C         -0.52620        2.96550        0.48360
C         -0.32490        4.32740        0.16760
C          0.57480        4.66650       -0.89660
N          0.62200        5.96990       -1.12230
S         -0.37520        6.70750       -0.08210
N         -0.90740        5.39190        0.69620
C          1.32400        3.63770       -1.50950
C          2.37330        3.68770       -2.43700
S          3.24440        4.85940       -3.36440
C          4.30340        3.57970       -3.92640
C          5.40220        3.58150       -4.77940
C          5.94170        4.83410       -5.39120
C          7.08930        5.40030       -4.55040
C          5.94070        2.29550       -4.92340
S          5.04930        1.09460       -3.99310
C          3.97840        2.31420       -3.41450
C          2.86610        2.38440       -2.56840
N          2.14650        1.53290       -1.77450
C          1.17600        2.27110       -1.12810
C          0.14970        1.92300       -0.21210
N         -0.34550        0.70340        0.22720
C         -1.28850        0.96840        1.18920
C         -2.14550        0.24570        2.02180
S         -2.49760       -1.41320        2.31260
C         -0.44430       -0.54920       -0.49350
C         -1.37690       -0.41330       -1.69530
C          2.65540        0.20780       -1.50310
C          2.33710       -0.77410       -2.62980
C          7.06590        2.01510       -5.71640
C          7.74130        0.85010       -5.97080
C          8.86310        0.92680       -6.82390
N          9.76930        1.02440       -7.52090
C          7.41710       -0.48110       -5.45650
O          6.47260       -0.74870       -4.73940
O          8.30270       -1.38980       -5.87240
C          8.09250       -2.74150       -5.47020
C          7.08060       -3.43820       -6.36880
H         -4.32620       -2.94620        3.74100
H         -3.45880       -0.45600        9.41210
H         -5.71160       -3.74930       10.96840
H         -6.23650       -4.52910        8.68410
H         -5.40380        0.31430        5.05480
H         -4.21450        1.54940        5.46390
H         -4.96900        2.94820        3.55720
H         -6.05740        1.66420        3.01980
H         -6.35270        2.49550        4.54820
H          6.28480        4.65130       -6.41080
H          5.13430        5.56800       -5.43070
H          7.45860        6.32020       -4.99590
H          6.74360        5.61780       -3.54270
H          7.91060        4.68990       -4.48750
H          0.53130       -0.89820       -0.81530
H         -0.84930       -1.28320        0.20770
H         -2.37090       -0.11380       -1.37110
H         -1.00080        0.33740       -2.38760
H         -1.45420       -1.36500       -2.21370
H          3.74440        0.28700       -1.41330
H          2.27150       -0.12500       -0.53780
H          2.62510       -1.77910       -2.33430
H          1.27960       -0.76620       -2.88050
H          2.90070       -0.50880       -3.52010
H          7.47660        2.88750       -6.21390
H          9.07540       -3.21020       -5.54650
H          7.75020       -2.75490       -4.42960
H          6.10560       -2.96660       -6.26950
H          7.39930       -3.37820       -7.40670
H          6.99760       -4.48240       -6.08160
