
  xtb     02012215533D
 energy: -216.309820285191 gnorm: 0.000274683446 xtb: 6.4.1 (unknown)
123137  0     0  0            999 V2000
   -4.2245   -1.7765    6.8378 C   0  0  0  0  0  0  0  0  0  0  0  0
   -4.4151   -1.2830    8.1037 C   0  0  0  0  0  0  0  0  0  0  0  0
   -3.4738   -0.5146    8.9439 C   0  0  0  0  0  0  0  0  0  0  0  0
   -2.2945   -0.2877    8.7666 O   0  0  0  0  0  0  0  0  0  0  0  0
   -4.2637   -0.0507   10.1052 C   0  0  0  0  0  0  0  0  0  0  0  0
   -3.8478    0.7545   11.1460 C   0  0  0  0  0  0  0  0  0  0  0  0
   -4.7933    1.0633   12.1118 C   0  0  0  0  0  0  0  0  0  0  0  0
   -4.4392    1.8482   13.1431 F   0  0  0  0  0  0  0  0  0  0  0  0
   -6.0970    0.5939   12.0505 C   0  0  0  0  0  0  0  0  0  0  0  0
   -6.4982   -0.2185   11.0008 C   0  0  0  0  0  0  0  0  0  0  0  0
   -5.5743   -0.5465   10.0181 C   0  0  0  0  0  0  0  0  0  0  0  0
   -5.6856   -1.3594    8.8080 C   0  0  0  0  0  0  0  0  0  0  0  0
   -6.7995   -2.0729    8.4486 C   0  0  0  0  0  0  0  0  0  0  0  0
   -6.9350   -2.9115    7.3212 C   0  0  0  0  0  0  0  0  0  0  0  0
   -7.1432   -3.6221    6.4428 N   0  0  0  0  0  0  0  0  0  0  0  0
   -8.0007   -2.0891    9.1898 C   0  0  0  0  0  0  0  0  0  0  0  0
   -9.0089   -2.1476    9.7358 N   0  0  0  0  0  0  0  0  0  0  0  0
   -3.1247   -1.7213    5.9661 C   0  0  0  0  0  0  0  0  0  0  0  0
   -1.8288   -1.2429    6.1059 C   0  0  0  0  0  0  0  0  0  0  0  0
   -1.1248   -1.2995    4.9149 C   0  0  0  0  0  0  0  0  0  0  0  0
    0.4638   -0.7605    4.4414 S   0  0  0  0  0  0  0  0  0  0  0  0
    0.1064   -1.2054    2.8081 C   0  0  0  0  0  0  0  0  0  0  0  0
    0.7411   -1.0036    1.5439 C   0  0  0  0  0  0  0  0  0  0  0  0
    1.9541   -0.3977    1.2212 C   0  0  0  0  0  0  0  0  0  0  0  0
    2.2172   -0.1845   -0.1107 C   0  0  0  0  0  0  0  0  0  0  0  0
    3.3999    0.5451   -0.7463 C   0  0  0  0  0  0  0  0  0  0  0  0
    3.6271    1.8767   -0.0530 C   0  0  0  0  0  0  0  0  0  0  0  0
    2.5353    2.7260    0.1008 C   0  0  0  0  0  0  0  0  0  0  0  0
    2.6760    3.9490    0.7290 C   0  0  0  0  0  0  0  0  0  0  0  0
    3.9133    4.3441    1.2111 C   0  0  0  0  0  0  0  0  0  0  0  0
    5.0051    3.5102    1.0522 C   0  0  0  0  0  0  0  0  0  0  0  0
    4.8655    2.2845    0.4218 C   0  0  0  0  0  0  0  0  0  0  0  0
    4.6176   -0.3670   -0.7209 C   0  0  0  0  0  0  0  0  0  0  0  0
    5.1273   -0.8098    0.4958 C   0  0  0  0  0  0  0  0  0  0  0  0
    6.2297   -1.6427    0.5405 C   0  0  0  0  0  0  0  0  0  0  0  0
    6.8441   -2.0505   -0.6314 C   0  0  0  0  0  0  0  0  0  0  0  0
    6.3436   -1.6182   -1.8456 C   0  0  0  0  0  0  0  0  0  0  0  0
    5.2386   -0.7846   -1.8907 C   0  0  0  0  0  0  0  0  0  0  0  0
    2.8781    0.7462   -2.1520 C   0  0  0  0  0  0  0  0  0  0  0  0
    1.6937    0.0459   -2.3237 C   0  0  0  0  0  0  0  0  0  0  0  0
    1.2687   -0.5454   -1.0956 C   0  0  0  0  0  0  0  0  0  0  0  0
    0.0925   -1.2202   -0.7812 C   0  0  0  0  0  0  0  0  0  0  0  0
   -0.1667   -1.4401    0.5508 C   0  0  0  0  0  0  0  0  0  0  0  0
   -1.4048   -2.0565    1.1801 C   0  0  0  0  0  0  0  0  0  0  0  0
   -1.4040   -3.5370    0.8351 C   0  0  0  0  0  0  0  0  0  0  0  0
   -1.9086   -3.9532   -0.3910 C   0  0  0  0  0  0  0  0  0  0  0  0
   -1.8829   -5.2905   -0.7408 C   0  0  0  0  0  0  0  0  0  0  0  0
   -1.3498   -6.2277    0.1280 C   0  0  0  0  0  0  0  0  0  0  0  0
   -0.8397   -5.8180    1.3469 C   0  0  0  0  0  0  0  0  0  0  0  0
   -0.8624   -4.4792    1.6977 C   0  0  0  0  0  0  0  0  0  0  0  0
   -2.7150   -1.3910    0.8041 C   0  0  0  0  0  0  0  0  0  0  0  0
   -3.9077   -2.0538    1.0706 C   0  0  0  0  0  0  0  0  0  0  0  0
   -5.1208   -1.4500    0.7959 C   0  0  0  0  0  0  0  0  0  0  0  0
   -5.1561   -0.1758    0.2553 C   0  0  0  0  0  0  0  0  0  0  0  0
   -3.9720    0.4938    0.0016 C   0  0  0  0  0  0  0  0  0  0  0  0
   -2.7562   -0.1064    0.2815 C   0  0  0  0  0  0  0  0  0  0  0  0
   -1.1437   -1.7798    2.6361 C   0  0  0  0  0  0  0  0  0  0  0  0
   -1.8562   -1.8313    3.8293 C   0  0  0  0  0  0  0  0  0  0  0  0
   -3.4332   -2.2979    4.3167 S   0  0  0  0  0  0  0  0  0  0  0  0
    0.9453    0.2292   -3.8741 S   0  0  0  0  0  0  0  0  0  0  0  0
    2.2322    1.2977   -4.3239 C   0  0  0  0  0  0  0  0  0  0  0  0
    2.6110    2.1047   -5.3935 C   0  0  0  0  0  0  0  0  0  0  0  0
    3.8208    2.7348   -5.0030 C   0  0  0  0  0  0  0  0  0  0  0  0
    4.1835    2.3195   -3.7455 N   0  0  0  0  0  0  0  0  0  0  0  0
    5.2995    2.8350   -2.9948 C   0  0  0  0  0  0  0  0  0  0  0  0
    5.0126    4.2341   -2.4552 C   0  0  0  0  0  0  0  0  0  0  0  0
    3.2058    1.4667   -3.3044 C   0  0  0  0  0  0  0  0  0  0  0  0
    4.3053    3.6105   -5.9597 C   0  0  0  0  0  0  0  0  0  0  0  0
    3.4666    3.6850   -7.0736 C   0  0  0  0  0  0  0  0  0  0  0  0
    2.0685    2.6190   -6.9415 S   0  0  0  0  0  0  0  0  0  0  0  0
    3.7176    4.5637   -8.1404 C   0  0  0  0  0  0  0  0  0  0  0  0
    2.9693    4.8492   -9.2453 C   0  0  0  0  0  0  0  0  0  0  0  0
    3.4868    6.0777  -10.3923 S   0  0  0  0  0  0  0  0  0  0  0  0
    2.0209    5.8867  -11.3251 C   0  0  0  0  0  0  0  0  0  0  0  0
    1.7962    6.6732  -12.4280 C   0  0  0  0  0  0  0  0  0  0  0  0
    2.7606    7.6337  -12.7971 C   0  0  0  0  0  0  0  0  0  0  0  0
    3.5395    8.4182  -13.1037 N   0  0  0  0  0  0  0  0  0  0  0  0
    0.6701    6.6417  -13.2670 C   0  0  0  0  0  0  0  0  0  0  0  0
   -0.2190    6.6689  -13.9942 N   0  0  0  0  0  0  0  0  0  0  0  0
    1.2220    4.9255  -10.7935 N   0  0  0  0  0  0  0  0  0  0  0  0
   -0.0405    4.4858  -11.3587 C   0  0  0  0  0  0  0  0  0  0  0  0
    0.1693    3.4882  -12.4913 C   0  0  0  0  0  0  0  0  0  0  0  0
    1.6951    4.2980   -9.6476 C   0  0  0  0  0  0  0  0  0  0  0  0
    1.0708    3.4134   -9.0922 O   0  0  0  0  0  0  0  0  0  0  0  0
   -5.0870   -2.2515    6.3852 H   0  0  0  0  0  0  0  0  0  0  0  0
   -2.8375    1.1269   11.2025 H   0  0  0  0  0  0  0  0  0  0  0  0
   -6.7916    0.8699   12.8281 H   0  0  0  0  0  0  0  0  0  0  0  0
   -7.5145   -0.5732   10.9651 H   0  0  0  0  0  0  0  0  0  0  0  0
   -1.4461   -0.8570    7.0325 H   0  0  0  0  0  0  0  0  0  0  0  0
    2.6119   -0.0583    2.0062 H   0  0  0  0  0  0  0  0  0  0  0  0
    1.5684    2.4197   -0.2727 H   0  0  0  0  0  0  0  0  0  0  0  0
    1.8178    4.5942    0.8445 H   0  0  0  0  0  0  0  0  0  0  0  0
    4.0240    5.2968    1.7064 H   0  0  0  0  0  0  0  0  0  0  0  0
    5.9745    3.8104    1.4217 H   0  0  0  0  0  0  0  0  0  0  0  0
    5.7301    1.6468    0.3094 H   0  0  0  0  0  0  0  0  0  0  0  0
    4.6667   -0.4950    1.4186 H   0  0  0  0  0  0  0  0  0  0  0  0
    6.6100   -1.9737    1.4955 H   0  0  0  0  0  0  0  0  0  0  0  0
    7.7052   -2.7007   -0.5971 H   0  0  0  0  0  0  0  0  0  0  0  0
    6.8118   -1.9298   -2.7676 H   0  0  0  0  0  0  0  0  0  0  0  0
    4.8635   -0.4664   -2.8516 H   0  0  0  0  0  0  0  0  0  0  0  0
   -0.6060   -1.4952   -1.5558 H   0  0  0  0  0  0  0  0  0  0  0  0
   -2.3368   -3.2287   -1.0679 H   0  0  0  0  0  0  0  0  0  0  0  0
   -2.2821   -5.6016   -1.6948 H   0  0  0  0  0  0  0  0  0  0  0  0
   -1.3328   -7.2724   -0.1439 H   0  0  0  0  0  0  0  0  0  0  0  0
   -0.4218   -6.5417    2.0310 H   0  0  0  0  0  0  0  0  0  0  0  0
   -0.4581   -4.1718    2.6512 H   0  0  0  0  0  0  0  0  0  0  0  0
   -3.8846   -3.0494    1.4894 H   0  0  0  0  0  0  0  0  0  0  0  0
   -6.0391   -1.9767    1.0070 H   0  0  0  0  0  0  0  0  0  0  0  0
   -6.1028    0.2950    0.0367 H   0  0  0  0  0  0  0  0  0  0  0  0
   -3.9912    1.4906   -0.4137 H   0  0  0  0  0  0  0  0  0  0  0  0
   -1.8376    0.4287    0.0898 H   0  0  0  0  0  0  0  0  0  0  0  0
    5.5014    2.1478   -2.1714 H   0  0  0  0  0  0  0  0  0  0  0  0
    6.1738    2.8596   -3.6532 H   0  0  0  0  0  0  0  0  0  0  0  0
    4.1407    4.2161   -1.8063 H   0  0  0  0  0  0  0  0  0  0  0  0
    4.8233    4.9251   -3.2729 H   0  0  0  0  0  0  0  0  0  0  0  0
    5.8629    4.5920   -1.8821 H   0  0  0  0  0  0  0  0  0  0  0  0
    5.2048    4.1937   -5.8776 H   0  0  0  0  0  0  0  0  0  0  0  0
    4.6415    5.1240   -8.0446 H   0  0  0  0  0  0  0  0  0  0  0  0
   -0.5806    4.0045  -10.5385 H   0  0  0  0  0  0  0  0  0  0  0  0
   -0.6030    5.3550  -11.7029 H   0  0  0  0  0  0  0  0  0  0  0  0
   -0.7967    3.1628  -12.8651 H   0  0  0  0  0  0  0  0  0  0  0  0
    0.7158    2.6201  -12.1295 H   0  0  0  0  0  0  0  0  0  0  0  0
    0.7192    3.9390  -13.3141 H   0  0  0  0  0  0  0  0  0  0  0  0
  1  2  2  0  0  0  0
  2  3  1  0  0  0  0
  3  4  2  0  0  0  0
  3  5  1  0  0  0  0
  5  6  2  0  0  0  0
  6  7  1  0  0  0  0
  7  8  1  0  0  0  0
  7  9  2  0  0  0  0
  9 10  1  0  0  0  0
 10 11  2  0  0  0  0
 11 12  1  0  0  0  0
 12 13  2  0  0  0  0
 13 14  1  0  0  0  0
 14 15  3  0  0  0  0
 13 16  1  0  0  0  0
 16 17  3  0  0  0  0
  1 18  1  0  0  0  0
 18 19  2  0  0  0  0
 19 20  1  0  0  0  0
 20 21  1  0  0  0  0
 21 22  1  0  0  0  0
 22 23  1  0  0  0  0
 23 24  2  0  0  0  0
 24 25  1  0  0  0  0
 25 26  1  0  0  0  0
 26 27  1  0  0  0  0
 27 28  2  0  0  0  0
 28 29  1  0  0  0  0
 29 30  2  0  0  0  0
 30 31  1  0  0  0  0
 31 32  2  0  0  0  0
 26 33  1  0  0  0  0
 33 34  2  0  0  0  0
 34 35  1  0  0  0  0
 35 36  2  0  0  0  0
 36 37  1  0  0  0  0
 37 38  2  0  0  0  0
 26 39  1  0  0  0  0
 39 40  2  0  0  0  0
 40 41  1  0  0  0  0
 41 42  1  0  0  0  0
 42 43  2  0  0  0  0
 43 44  1  0  0  0  0
 44 45  1  0  0  0  0
 45 46  2  0  0  0  0
 46 47  1  0  0  0  0
 47 48  2  0  0  0  0
 48 49  1  0  0  0  0
 49 50  2  0  0  0  0
 44 51  1  0  0  0  0
 51 52  2  0  0  0  0
 52 53  1  0  0  0  0
 53 54  2  0  0  0  0
 54 55  1  0  0  0  0
 55 56  2  0  0  0  0
 44 57  1  0  0  0  0
 57 58  1  0  0  0  0
 58 59  1  0  0  0  0
 40 60  1  0  0  0  0
 60 61  1  0  0  0  0
 61 62  1  0  0  0  0
 62 63  2  0  0  0  0
 63 64  1  0  0  0  0
 64 65  1  0  0  0  0
 65 66  1  0  0  0  0
 64 67  1  0  0  0  0
 63 68  1  0  0  0  0
 68 69  2  0  0  0  0
 69 70  1  0  0  0  0
 69 71  1  0  0  0  0
 71 72  2  0  0  0  0
 72 73  1  0  0  0  0
 73 74  1  0  0  0  0
 74 75  2  0  0  0  0
 75 76  1  0  0  0  0
 76 77  3  0  0  0  0
 75 78  1  0  0  0  0
 78 79  3  0  0  0  0
 74 80  1  0  0  0  0
 80 81  1  0  0  0  0
 81 82  1  0  0  0  0
 80 83  1  0  0  0  0
 83 84  2  0  0  0  0
 12  2  1  0  0  0  0
 59 18  1  0  0  0  0
 67 61  2  0  0  0  0
 83 72  1  0  0  0  0
 11  5  1  0  0  0  0
 58 20  2  0  0  0  0
 70 62  1  0  0  0  0
 57 22  2  0  0  0  0
 43 23  1  0  0  0  0
 50 45  1  0  0  0  0
 56 51  1  0  0  0  0
 41 25  2  0  0  0  0
 32 27  1  0  0  0  0
 38 33  1  0  0  0  0
 67 39  1  0  0  0  0
  1 85  1  0  0  0  0
  6 86  1  0  0  0  0
  9 87  1  0  0  0  0
 10 88  1  0  0  0  0
 19 89  1  0  0  0  0
 24 90  1  0  0  0  0
 28 91  1  0  0  0  0
 29 92  1  0  0  0  0
 30 93  1  0  0  0  0
 31 94  1  0  0  0  0
 32 95  1  0  0  0  0
 34 96  1  0  0  0  0
 35 97  1  0  0  0  0
 36 98  1  0  0  0  0
 37 99  1  0  0  0  0
 38100  1  0  0  0  0
 42101  1  0  0  0  0
 46102  1  0  0  0  0
 47103  1  0  0  0  0
 48104  1  0  0  0  0
 49105  1  0  0  0  0
 50106  1  0  0  0  0
 52107  1  0  0  0  0
 53108  1  0  0  0  0
 54109  1  0  0  0  0
 55110  1  0  0  0  0
 56111  1  0  0  0  0
 65112  1  0  0  0  0
 65113  1  0  0  0  0
 66114  1  0  0  0  0
 66115  1  0  0  0  0
 66116  1  0  0  0  0
 68117  1  0  0  0  0
 71118  1  0  0  0  0
 81119  1  0  0  0  0
 81120  1  0  0  0  0
 82121  1  0  0  0  0
 82122  1  0  0  0  0
 82123  1  0  0  0  0
M  END
