97

C          4.89850       -6.79330        1.89360
C          4.14110       -7.93940        1.96940
C          2.70760       -8.04650        1.70150
O          1.93570       -7.15830        1.38270
C          2.36180       -9.47000        1.89150
C          1.13370      -10.08120        1.74560
C          1.08560      -11.44770        1.97870
F         -0.08820      -12.08840        1.84760
C          2.20610      -12.17910        2.34130
C          3.43410      -11.54990        2.48500
C          3.51580      -10.18370        2.25890
C          4.64340       -9.25240        2.32080
C          5.92950       -9.59510        2.65360
C          6.33840      -10.90270        2.99070
N          6.74080      -11.93910        3.27670
C          7.03090       -8.71640        2.71310
N          7.97810       -8.06910        2.78370
C          4.55130       -5.48420        1.55490
C          5.48440       -4.43080        1.51960
C          6.92830       -4.52950        1.88770
C          7.11230       -4.41890        3.40400
C          4.88590       -3.23810        1.14140
S          5.52570       -1.62080        0.91170
C          3.94280       -1.09760        0.45510
C          3.28860        0.07610        0.06480
C          3.76920        1.39980       -0.04140
C          2.85020        2.44060       -0.38850
N          3.42160        3.63440       -0.41400
S          4.98560        3.46080       -0.03380
N          4.99280        1.85570        0.17590
C          1.51690        2.09350       -0.69830
C          0.46110        2.88390       -1.16740
S          0.13510        4.53660       -1.54600
C         -1.47270        4.07960       -2.06250
C         -2.56570        4.82280       -2.52520
C         -2.49870        6.27710       -2.86140
C         -1.33070        6.59510       -3.79540
C         -3.67040        4.00440       -2.74730
S         -3.30940        2.30430       -2.45290
C         -1.71750        2.70390       -1.93830
C         -0.61090        2.02260       -1.42290
N         -0.26530        0.73790       -1.10260
C          1.04380        0.74820       -0.64850
C          1.92180       -0.26410       -0.17270
N          1.76150       -1.61130        0.10250
C          2.97810       -2.11190        0.48240
C          3.50790       -3.34330        0.87770
S          2.92870       -4.94940        1.10760
C          0.56920       -2.38260        0.37950
C         -0.20770       -1.80200        1.55860
C         -1.09550       -0.35230       -1.56270
C         -0.46370       -1.07180       -2.75200
C         -4.97440        4.29490       -3.19700
C         -5.72790        5.42690       -3.06420
C         -6.89040        5.62420       -3.96740
O         -7.37200        4.81280       -4.72330
C         -7.29200        7.03690       -3.77630
C         -8.24990        7.75910       -4.45660
C         -8.41540        9.09120       -4.09990
Br        -9.71790       10.13850       -5.00340
C         -7.64970        9.67960       -3.10210
C         -6.69530        8.94270       -2.41670
C         -6.51550        7.60960       -2.75260
C         -5.62720        6.58390       -2.20590
C         -5.01390        6.64420       -0.97970
C         -4.38880        5.54330       -0.36260
N         -3.90650        4.66650        0.19990
C         -5.01340        7.78770       -0.15620
N         -4.96340        8.69900        0.54040
H          5.94800       -6.90790        2.12720
H          0.25460       -9.52480        1.46300
H          2.10980      -13.24020        2.50880
H          4.29670      -12.13050        2.76650
H          7.36060       -5.46840        1.53880
H          7.45980       -3.70750        1.40400
H          6.59110       -5.22460        3.91550
H          6.72420       -3.46890        3.76390
H          8.16810       -4.48170        3.65070
H         -2.38830        6.85500       -1.93790
H         -3.42690        6.58220       -3.34650
H         -1.36270        7.64560       -4.07290
H         -1.39830        5.99600       -4.70090
H         -0.37700        6.39620       -3.31570
H         -0.05080       -2.46770       -0.51230
H          0.90450       -3.39120        0.63260
H         -1.10660       -2.38670        1.73320
H          0.40420       -1.83450        2.45700
H         -0.48860       -0.76660        1.37850
H         -2.04480        0.09070       -1.87390
H         -1.31650       -1.03790       -0.74550
H         -0.35550       -0.38360       -3.58710
H         -1.09700       -1.89730       -3.06510
H          0.52190       -1.45800       -2.50190
H         -5.45660        3.50540       -3.76800
H         -8.84130        7.29900       -5.23280
H         -7.80040       10.72000       -2.85840
H         -6.10670        9.41730       -1.64860
