
  xtb     02012219263D
 energy: -191.212437575587 gnorm: 0.000497482452 xtb: 6.4.1 (unknown)
 97108  0     0  0            999 V2000
    5.5620    5.5120   -2.5578 C   0  0  0  0  0  0  0  0  0  0  0  0
    6.7997    4.9861   -2.2697 C   0  0  0  0  0  0  0  0  0  0  0  0
    7.0699    3.8297   -1.4156 C   0  0  0  0  0  0  0  0  0  0  0  0
    6.2655    3.1308   -0.8236 O   0  0  0  0  0  0  0  0  0  0  0  0
    8.5373    3.6641   -1.4039 C   0  0  0  0  0  0  0  0  0  0  0  0
    9.2873    2.7144   -0.7416 C   0  0  0  0  0  0  0  0  0  0  0  0
   10.6630    2.7815   -0.9047 C   0  0  0  0  0  0  0  0  0  0  0  0
   11.4363    1.8776   -0.2806 F   0  0  0  0  0  0  0  0  0  0  0  0
   11.2711    3.7489   -1.6901 C   0  0  0  0  0  0  0  0  0  0  0  0
   10.5033    4.6973   -2.3498 C   0  0  0  0  0  0  0  0  0  0  0  0
    9.1239    4.6570   -2.2078 C   0  0  0  0  0  0  0  0  0  0  0  0
    8.0626    5.4963   -2.7660 C   0  0  0  0  0  0  0  0  0  0  0  0
    8.2609    6.5551   -3.6151 C   0  0  0  0  0  0  0  0  0  0  0  0
    7.2520    7.3672   -4.1736 C   0  0  0  0  0  0  0  0  0  0  0  0
    6.4935    8.0726   -4.6713 N   0  0  0  0  0  0  0  0  0  0  0  0
    9.5283    6.9846   -4.0627 C   0  0  0  0  0  0  0  0  0  0  0  0
   10.5242    7.3881   -4.4668 N   0  0  0  0  0  0  0  0  0  0  0  0
    4.2807    5.1042   -2.1788 C   0  0  0  0  0  0  0  0  0  0  0  0
    3.1136    5.7777   -2.5873 C   0  0  0  0  0  0  0  0  0  0  0  0
    3.0674    7.0341   -3.3933 C   0  0  0  0  0  0  0  0  0  0  0  0
    3.2863    8.2611   -2.5035 C   0  0  0  0  0  0  0  0  0  0  0  0
    1.9745    5.1518   -2.1020 C   0  0  0  0  0  0  0  0  0  0  0  0
    0.2642    5.4989   -2.2818 S   0  0  0  0  0  0  0  0  0  0  0  0
   -0.0913    4.0943   -1.3376 C   0  0  0  0  0  0  0  0  0  0  0  0
   -1.2073    3.4000   -0.8445 C   0  0  0  0  0  0  0  0  0  0  0  0
   -2.5947    3.6769   -0.8325 C   0  0  0  0  0  0  0  0  0  0  0  0
   -3.4799    2.8023   -0.1087 C   0  0  0  0  0  0  0  0  0  0  0  0
   -4.7319    3.2300   -0.1244 N   0  0  0  0  0  0  0  0  0  0  0  0
   -4.7997    4.6020   -0.9787 S   0  0  0  0  0  0  0  0  0  0  0  0
   -3.2317    4.7091   -1.3612 N   0  0  0  0  0  0  0  0  0  0  0  0
   -2.9676    1.6047    0.4434 C   0  0  0  0  0  0  0  0  0  0  0  0
   -3.5740    0.4891    1.0438 C   0  0  0  0  0  0  0  0  0  0  0  0
   -5.1337   -0.0258    1.5753 S   0  0  0  0  0  0  0  0  0  0  0  0
   -4.4571   -1.5776    2.0244 C   0  0  0  0  0  0  0  0  0  0  0  0
   -5.0204   -2.7544    2.5300 C   0  0  0  0  0  0  0  0  0  0  0  0
   -6.4280   -2.8838    3.0013 C   0  0  0  0  0  0  0  0  0  0  0  0
   -6.8768   -1.7008    3.8566 C   0  0  0  0  0  0  0  0  0  0  0  0
   -4.0536   -3.7552    2.6539 C   0  0  0  0  0  0  0  0  0  0  0  0
   -2.4352   -3.1857    2.2291 S   0  0  0  0  0  0  0  0  0  0  0  0
   -3.0760   -1.6566    1.7740 C   0  0  0  0  0  0  0  0  0  0  0  0
   -2.5747   -0.4800    1.2190 C   0  0  0  0  0  0  0  0  0  0  0  0
   -1.3668   -0.0007    0.7741 N   0  0  0  0  0  0  0  0  0  0  0  0
   -1.5882    1.2869    0.3237 C   0  0  0  0  0  0  0  0  0  0  0  0
   -0.6935    2.2604   -0.1669 C   0  0  0  0  0  0  0  0  0  0  0  0
    0.6858    2.2978   -0.1773 N   0  0  0  0  0  0  0  0  0  0  0  0
    1.0512    3.4043   -0.9030 C   0  0  0  0  0  0  0  0  0  0  0  0
    2.2361    4.0043   -1.3320 C   0  0  0  0  0  0  0  0  0  0  0  0
    3.9221    3.6904   -1.1828 S   0  0  0  0  0  0  0  0  0  0  0  0
    1.5725    1.7569    0.8349 C   0  0  0  0  0  0  0  0  0  0  0  0
    1.9694    2.8283    1.8497 C   0  0  0  0  0  0  0  0  0  0  0  0
   -0.3532   -0.9198    0.2933 C   0  0  0  0  0  0  0  0  0  0  0  0
   -0.8850   -1.7761   -0.8555 C   0  0  0  0  0  0  0  0  0  0  0  0
   -4.1468   -5.0845    3.0956 C   0  0  0  0  0  0  0  0  0  0  0  0
   -5.2048   -5.9429    2.9122 C   0  0  0  0  0  0  0  0  0  0  0  0
   -6.2093   -5.7971    1.8409 C   0  0  0  0  0  0  0  0  0  0  0  0
   -6.3465   -4.8761    1.0681 O   0  0  0  0  0  0  0  0  0  0  0  0
   -6.9432   -7.0895    1.8256 C   0  0  0  0  0  0  0  0  0  0  0  0
   -6.4232   -7.9461    2.8119 C   0  0  0  0  0  0  0  0  0  0  0  0
   -6.9308   -9.2230    2.9783 C   0  0  0  0  0  0  0  0  0  0  0  0
   -7.9653   -9.6266    2.1458 C   0  0  0  0  0  0  0  0  0  0  0  0
   -8.4691  -10.8551    2.2846 F   0  0  0  0  0  0  0  0  0  0  0  0
   -8.4950   -8.7898    1.1663 C   0  0  0  0  0  0  0  0  0  0  0  0
   -9.4937   -9.2139    0.3875 F   0  0  0  0  0  0  0  0  0  0  0  0
   -7.9740   -7.5040    1.0020 C   0  0  0  0  0  0  0  0  0  0  0  0
   -8.4837   -6.7082    0.0665 F   0  0  0  0  0  0  0  0  0  0  0  0
   -5.3552   -7.2418    3.5214 C   0  0  0  0  0  0  0  0  0  0  0  0
   -4.6856   -7.7027    4.6259 C   0  0  0  0  0  0  0  0  0  0  0  0
   -3.7400   -6.9477    5.3522 C   0  0  0  0  0  0  0  0  0  0  0  0
   -2.9833   -6.3801    6.0025 N   0  0  0  0  0  0  0  0  0  0  0  0
   -4.8824   -8.9753    5.2000 C   0  0  0  0  0  0  0  0  0  0  0  0
   -4.9965  -10.0002    5.7039 N   0  0  0  0  0  0  0  0  0  0  0  0
    5.5597    6.3889   -3.1904 H   0  0  0  0  0  0  0  0  0  0  0  0
    8.8267    1.9568   -0.1280 H   0  0  0  0  0  0  0  0  0  0  0  0
   12.3459    3.7527   -1.7804 H   0  0  0  0  0  0  0  0  0  0  0  0
   10.9893    5.4433   -2.9563 H   0  0  0  0  0  0  0  0  0  0  0  0
    2.0825    7.1038   -3.8593 H   0  0  0  0  0  0  0  0  0  0  0  0
    3.8191    7.0222   -4.1839 H   0  0  0  0  0  0  0  0  0  0  0  0
    4.2596    8.2189   -2.0204 H   0  0  0  0  0  0  0  0  0  0  0  0
    3.2401    9.1638   -3.1057 H   0  0  0  0  0  0  0  0  0  0  0  0
    2.5186    8.3134   -1.7350 H   0  0  0  0  0  0  0  0  0  0  0  0
   -7.0781   -2.9750    2.1258 H   0  0  0  0  0  0  0  0  0  0  0  0
   -6.5253   -3.8055    3.5785 H   0  0  0  0  0  0  0  0  0  0  0  0
   -6.1845   -1.5422    4.6806 H   0  0  0  0  0  0  0  0  0  0  0  0
   -6.9367   -0.7883    3.2708 H   0  0  0  0  0  0  0  0  0  0  0  0
   -7.8613   -1.9056    4.2688 H   0  0  0  0  0  0  0  0  0  0  0  0
    2.4683    1.3646    0.3439 H   0  0  0  0  0  0  0  0  0  0  0  0
    1.0601    0.9563    1.3654 H   0  0  0  0  0  0  0  0  0  0  0  0
    1.0819    3.2662    2.3022 H   0  0  0  0  0  0  0  0  0  0  0  0
    2.5742    2.3776    2.6312 H   0  0  0  0  0  0  0  0  0  0  0  0
    2.5498    3.6163    1.3790 H   0  0  0  0  0  0  0  0  0  0  0  0
    0.5027   -0.3549   -0.0691 H   0  0  0  0  0  0  0  0  0  0  0  0
   -0.0449   -1.5604    1.1254 H   0  0  0  0  0  0  0  0  0  0  0  0
   -1.7120   -2.4011   -0.5308 H   0  0  0  0  0  0  0  0  0  0  0  0
   -0.0914   -2.4198   -1.2239 H   0  0  0  0  0  0  0  0  0  0  0  0
   -1.2265   -1.1411   -1.6702 H   0  0  0  0  0  0  0  0  0  0  0  0
   -3.2518   -5.4799    3.5627 H   0  0  0  0  0  0  0  0  0  0  0  0
   -6.5564   -9.9128    3.7164 H   0  0  0  0  0  0  0  0  0  0  0  0
  1  2  2  0  0  0  0
  2  3  1  0  0  0  0
  3  4  2  0  0  0  0
  3  5  1  0  0  0  0
  5  6  2  0  0  0  0
  6  7  1  0  0  0  0
  7  8  1  0  0  0  0
  7  9  2  0  0  0  0
  9 10  1  0  0  0  0
 10 11  2  0  0  0  0
 11 12  1  0  0  0  0
 12 13  2  0  0  0  0
 13 14  1  0  0  0  0
 14 15  3  0  0  0  0
 13 16  1  0  0  0  0
 16 17  3  0  0  0  0
  1 18  1  0  0  0  0
 18 19  2  0  0  0  0
 19 20  1  0  0  0  0
 20 21  1  0  0  0  0
 19 22  1  0  0  0  0
 22 23  1  0  0  0  0
 23 24  1  0  0  0  0
 24 25  1  0  0  0  0
 25 26  1  0  0  0  0
 26 27  1  0  0  0  0
 27 28  2  0  0  0  0
 28 29  1  0  0  0  0
 29 30  1  0  0  0  0
 27 31  1  0  0  0  0
 31 32  1  0  0  0  0
 32 33  1  0  0  0  0
 33 34  1  0  0  0  0
 34 35  1  0  0  0  0
 35 36  1  0  0  0  0
 36 37  1  0  0  0  0
 35 38  2  0  0  0  0
 38 39  1  0  0  0  0
 39 40  1  0  0  0  0
 40 41  1  0  0  0  0
 41 42  1  0  0  0  0
 42 43  1  0  0  0  0
 43 44  1  0  0  0  0
 44 45  1  0  0  0  0
 45 46  1  0  0  0  0
 46 47  1  0  0  0  0
 47 48  1  0  0  0  0
 45 49  1  0  0  0  0
 49 50  1  0  0  0  0
 42 51  1  0  0  0  0
 51 52  1  0  0  0  0
 38 53  1  0  0  0  0
 53 54  2  0  0  0  0
 54 55  1  0  0  0  0
 55 56  2  0  0  0  0
 55 57  1  0  0  0  0
 57 58  2  0  0  0  0
 58 59  1  0  0  0  0
 59 60  2  0  0  0  0
 60 61  1  0  0  0  0
 60 62  1  0  0  0  0
 62 63  1  0  0  0  0
 62 64  2  0  0  0  0
 64 65  1  0  0  0  0
 58 66  1  0  0  0  0
 66 67  2  0  0  0  0
 67 68  1  0  0  0  0
 68 69  3  0  0  0  0
 67 70  1  0  0  0  0
 70 71  3  0  0  0  0
 12  2  1  0  0  0  0
 48 18  1  0  0  0  0
 66 54  1  0  0  0  0
 11  5  1  0  0  0  0
 47 22  2  0  0  0  0
 64 57  1  0  0  0  0
 46 24  2  0  0  0  0
 44 25  2  0  0  0  0
 30 26  2  0  0  0  0
 43 31  2  0  0  0  0
 41 32  2  0  0  0  0
 40 34  2  0  0  0  0
  1 72  1  0  0  0  0
  6 73  1  0  0  0  0
  9 74  1  0  0  0  0
 10 75  1  0  0  0  0
 20 76  1  0  0  0  0
 20 77  1  0  0  0  0
 21 78  1  0  0  0  0
 21 79  1  0  0  0  0
 21 80  1  0  0  0  0
 36 81  1  0  0  0  0
 36 82  1  0  0  0  0
 37 83  1  0  0  0  0
 37 84  1  0  0  0  0
 37 85  1  0  0  0  0
 49 86  1  0  0  0  0
 49 87  1  0  0  0  0
 50 88  1  0  0  0  0
 50 89  1  0  0  0  0
 50 90  1  0  0  0  0
 51 91  1  0  0  0  0
 51 92  1  0  0  0  0
 52 93  1  0  0  0  0
 52 94  1  0  0  0  0
 52 95  1  0  0  0  0
 53 96  1  0  0  0  0
 59 97  1  0  0  0  0
M  END
