
  xtb     02012219433D
 energy: -194.398102248544 gnorm: 0.000304929697 xtb: 6.4.1 (unknown)
100111  0     0  0            999 V2000
    7.0789   -3.6821   -0.0906 C   0  0  0  0  0  0  0  0  0  0  0  0
    7.5876   -3.7184   -1.3680 C   0  0  0  0  0  0  0  0  0  0  0  0
    6.9326   -3.2120   -2.5735 C   0  0  0  0  0  0  0  0  0  0  0  0
    5.8302   -2.7003   -2.6690 O   0  0  0  0  0  0  0  0  0  0  0  0
    7.8801   -3.4452   -3.6821 C   0  0  0  0  0  0  0  0  0  0  0  0
    7.7309   -3.1323   -5.0174 C   0  0  0  0  0  0  0  0  0  0  0  0
    8.7868   -3.4579   -5.8557 C   0  0  0  0  0  0  0  0  0  0  0  0
    8.6894   -3.1721   -7.1648 F   0  0  0  0  0  0  0  0  0  0  0  0
    9.9424   -4.0676   -5.3917 C   0  0  0  0  0  0  0  0  0  0  0  0
   10.0766   -4.3780   -4.0463 C   0  0  0  0  0  0  0  0  0  0  0  0
    9.0376   -4.0662   -3.1816 C   0  0  0  0  0  0  0  0  0  0  0  0
    8.8788   -4.2621   -1.7398 C   0  0  0  0  0  0  0  0  0  0  0  0
    9.7972   -4.8694   -0.9219 C   0  0  0  0  0  0  0  0  0  0  0  0
    9.6564   -5.0809    0.4654 C   0  0  0  0  0  0  0  0  0  0  0  0
    9.6196   -5.2934    1.5943 N   0  0  0  0  0  0  0  0  0  0  0  0
   11.0332   -5.3857   -1.3654 C   0  0  0  0  0  0  0  0  0  0  0  0
   12.0525   -5.8271   -1.6553 N   0  0  0  0  0  0  0  0  0  0  0  0
    5.8633   -3.1998    0.3993 C   0  0  0  0  0  0  0  0  0  0  0  0
    5.5182   -3.2403    1.7631 C   0  0  0  0  0  0  0  0  0  0  0  0
    6.3914   -3.7322    2.8704 C   0  0  0  0  0  0  0  0  0  0  0  0
    7.3740   -2.6445    3.3132 C   0  0  0  0  0  0  0  0  0  0  0  0
    4.2549   -2.7099    1.9810 C   0  0  0  0  0  0  0  0  0  0  0  0
    3.2952   -2.5104    3.4361 S   0  0  0  0  0  0  0  0  0  0  0  0
    2.0276   -1.8442    2.4673 C   0  0  0  0  0  0  0  0  0  0  0  0
    0.7171   -1.3762    2.6153 C   0  0  0  0  0  0  0  0  0  0  0  0
   -0.1243   -1.3469    3.7495 C   0  0  0  0  0  0  0  0  0  0  0  0
   -1.4905   -0.9522    3.5844 C   0  0  0  0  0  0  0  0  0  0  0  0
   -2.1793   -1.0258    4.7125 N   0  0  0  0  0  0  0  0  0  0  0  0
   -1.1890   -1.5420    5.8841 S   0  0  0  0  0  0  0  0  0  0  0  0
    0.1551   -1.6948    4.9957 N   0  0  0  0  0  0  0  0  0  0  0  0
   -1.9216   -0.5077    2.3150 C   0  0  0  0  0  0  0  0  0  0  0  0
   -3.1580    0.0024    1.9003 C   0  0  0  0  0  0  0  0  0  0  0  0
   -4.7396    0.2767    2.5371 S   0  0  0  0  0  0  0  0  0  0  0  0
   -5.2217    0.9448    0.9926 C   0  0  0  0  0  0  0  0  0  0  0  0
   -6.4391    1.4552    0.5277 C   0  0  0  0  0  0  0  0  0  0  0  0
   -7.6945    1.3755    1.3345 C   0  0  0  0  0  0  0  0  0  0  0  0
   -7.6115    2.1946    2.6228 C   0  0  0  0  0  0  0  0  0  0  0  0
   -6.3377    1.8503   -0.8047 C   0  0  0  0  0  0  0  0  0  0  0  0
   -4.7329    1.5345   -1.4740 S   0  0  0  0  0  0  0  0  0  0  0  0
   -4.1870    0.9353    0.0439 C   0  0  0  0  0  0  0  0  0  0  0  0
   -3.0083    0.3974    0.5656 C   0  0  0  0  0  0  0  0  0  0  0  0
   -1.7375    0.1257    0.1350 N   0  0  0  0  0  0  0  0  0  0  0  0
   -1.0459   -0.4476    1.1904 C   0  0  0  0  0  0  0  0  0  0  0  0
    0.2633   -0.9850    1.3187 C   0  0  0  0  0  0  0  0  0  0  0  0
    1.2785   -1.2387    0.4137 N   0  0  0  0  0  0  0  0  0  0  0  0
    2.3360   -1.7666    1.1034 C   0  0  0  0  0  0  0  0  0  0  0  0
    3.6087   -2.2660    0.8132 C   0  0  0  0  0  0  0  0  0  0  0  0
    4.5826   -2.4929   -0.5894 S   0  0  0  0  0  0  0  0  0  0  0  0
    1.2535   -1.3441   -1.0284 C   0  0  0  0  0  0  0  0  0  0  0  0
    0.2746   -2.4196   -1.4925 C   0  0  0  0  0  0  0  0  0  0  0  0
   -1.2491    0.7589   -1.0706 C   0  0  0  0  0  0  0  0  0  0  0  0
   -0.2558    1.8736   -0.7521 C   0  0  0  0  0  0  0  0  0  0  0  0
   -7.3082    2.3088   -1.7173 C   0  0  0  0  0  0  0  0  0  0  0  0
   -8.3697    3.1331   -1.4464 C   0  0  0  0  0  0  0  0  0  0  0  0
   -8.4034    4.0931   -0.3221 C   0  0  0  0  0  0  0  0  0  0  0  0
   -7.5517    4.2845    0.5175 O   0  0  0  0  0  0  0  0  0  0  0  0
   -9.6276    4.9001   -0.5345 C   0  0  0  0  0  0  0  0  0  0  0  0
  -10.1267    5.9203    0.2482 C   0  0  0  0  0  0  0  0  0  0  0  0
  -11.3023    6.5358   -0.1697 C   0  0  0  0  0  0  0  0  0  0  0  0
  -11.8797    7.6649    0.6393 C   0  0  0  0  0  0  0  0  0  0  0  0
  -13.2199    7.7005    0.5938 F   0  0  0  0  0  0  0  0  0  0  0  0
  -11.4573    8.8647    0.1949 F   0  0  0  0  0  0  0  0  0  0  0  0
  -11.5410    7.6024    1.9339 F   0  0  0  0  0  0  0  0  0  0  0  0
  -11.9372    6.1514   -1.3461 C   0  0  0  0  0  0  0  0  0  0  0  0
  -11.4243    5.1293   -2.1318 C   0  0  0  0  0  0  0  0  0  0  0  0
  -10.2622    4.4947   -1.7206 C   0  0  0  0  0  0  0  0  0  0  0  0
   -9.4983    3.3930   -2.3087 C   0  0  0  0  0  0  0  0  0  0  0  0
   -9.8498    2.6837   -3.4286 C   0  0  0  0  0  0  0  0  0  0  0  0
   -9.1454    1.5646   -3.9206 C   0  0  0  0  0  0  0  0  0  0  0  0
   -8.6340    0.6367   -4.3633 N   0  0  0  0  0  0  0  0  0  0  0  0
  -10.9778    2.9676   -4.2258 C   0  0  0  0  0  0  0  0  0  0  0  0
  -11.8761    3.1533   -4.9158 N   0  0  0  0  0  0  0  0  0  0  0  0
    7.7167   -4.0900    0.6813 H   0  0  0  0  0  0  0  0  0  0  0  0
    6.8379   -2.6575   -5.3910 H   0  0  0  0  0  0  0  0  0  0  0  0
   10.7323   -4.2960   -6.0897 H   0  0  0  0  0  0  0  0  0  0  0  0
   10.9800   -4.8512   -3.6995 H   0  0  0  0  0  0  0  0  0  0  0  0
    6.9472   -4.6210    2.5680 H   0  0  0  0  0  0  0  0  0  0  0  0
    5.7524   -3.9992    3.7145 H   0  0  0  0  0  0  0  0  0  0  0  0
    7.9886   -3.0151    4.1284 H   0  0  0  0  0  0  0  0  0  0  0  0
    6.8350   -1.7634    3.6536 H   0  0  0  0  0  0  0  0  0  0  0  0
    8.0272   -2.3570    2.4926 H   0  0  0  0  0  0  0  0  0  0  0  0
   -8.5443    1.7056    0.7364 H   0  0  0  0  0  0  0  0  0  0  0  0
   -7.8501    0.3236    1.5958 H   0  0  0  0  0  0  0  0  0  0  0  0
   -7.4168    3.2374    2.3905 H   0  0  0  0  0  0  0  0  0  0  0  0
   -6.8149    1.8233    3.2617 H   0  0  0  0  0  0  0  0  0  0  0  0
   -8.5523    2.1236    3.1625 H   0  0  0  0  0  0  0  0  0  0  0  0
    2.2640   -1.6224   -1.3369 H   0  0  0  0  0  0  0  0  0  0  0  0
    1.0369   -0.3764   -1.4799 H   0  0  0  0  0  0  0  0  0  0  0  0
   -0.7349   -2.2160   -1.1424 H   0  0  0  0  0  0  0  0  0  0  0  0
    0.5790   -3.3887   -1.1041 H   0  0  0  0  0  0  0  0  0  0  0  0
    0.2689   -2.4703   -2.5777 H   0  0  0  0  0  0  0  0  0  0  0  0
   -0.8237    0.0200   -1.7493 H   0  0  0  0  0  0  0  0  0  0  0  0
   -2.1215    1.1867   -1.5705 H   0  0  0  0  0  0  0  0  0  0  0  0
    0.5941    1.4964   -0.1881 H   0  0  0  0  0  0  0  0  0  0  0  0
    0.1043    2.3229   -1.6734 H   0  0  0  0  0  0  0  0  0  0  0  0
   -0.7408    2.6447   -0.1580 H   0  0  0  0  0  0  0  0  0  0  0  0
   -7.1565    1.9930   -2.7433 H   0  0  0  0  0  0  0  0  0  0  0  0
   -9.6234    6.2165    1.1556 H   0  0  0  0  0  0  0  0  0  0  0  0
  -12.8439    6.6532   -1.6475 H   0  0  0  0  0  0  0  0  0  0  0  0
  -11.9309    4.8509   -3.0411 H   0  0  0  0  0  0  0  0  0  0  0  0
  1  2  2  0  0  0  0
  2  3  1  0  0  0  0
  3  4  2  0  0  0  0
  3  5  1  0  0  0  0
  5  6  2  0  0  0  0
  6  7  1  0  0  0  0
  7  8  1  0  0  0  0
  7  9  2  0  0  0  0
  9 10  1  0  0  0  0
 10 11  2  0  0  0  0
 11 12  1  0  0  0  0
 12 13  2  0  0  0  0
 13 14  1  0  0  0  0
 14 15  3  0  0  0  0
 13 16  1  0  0  0  0
 16 17  3  0  0  0  0
  1 18  1  0  0  0  0
 18 19  2  0  0  0  0
 19 20  1  0  0  0  0
 20 21  1  0  0  0  0
 19 22  1  0  0  0  0
 22 23  1  0  0  0  0
 23 24  1  0  0  0  0
 24 25  1  0  0  0  0
 25 26  1  0  0  0  0
 26 27  1  0  0  0  0
 27 28  2  0  0  0  0
 28 29  1  0  0  0  0
 29 30  1  0  0  0  0
 27 31  1  0  0  0  0
 31 32  1  0  0  0  0
 32 33  1  0  0  0  0
 33 34  1  0  0  0  0
 34 35  1  0  0  0  0
 35 36  1  0  0  0  0
 36 37  1  0  0  0  0
 35 38  2  0  0  0  0
 38 39  1  0  0  0  0
 39 40  1  0  0  0  0
 40 41  1  0  0  0  0
 41 42  1  0  0  0  0
 42 43  1  0  0  0  0
 43 44  1  0  0  0  0
 44 45  1  0  0  0  0
 45 46  1  0  0  0  0
 46 47  1  0  0  0  0
 47 48  1  0  0  0  0
 45 49  1  0  0  0  0
 49 50  1  0  0  0  0
 42 51  1  0  0  0  0
 51 52  1  0  0  0  0
 38 53  1  0  0  0  0
 53 54  2  0  0  0  0
 54 55  1  0  0  0  0
 55 56  2  0  0  0  0
 55 57  1  0  0  0  0
 57 58  2  0  0  0  0
 58 59  1  0  0  0  0
 59 60  1  0  0  0  0
 60 61  1  0  0  0  0
 60 62  1  0  0  0  0
 60 63  1  0  0  0  0
 59 64  2  0  0  0  0
 64 65  1  0  0  0  0
 65 66  2  0  0  0  0
 66 67  1  0  0  0  0
 67 68  2  0  0  0  0
 68 69  1  0  0  0  0
 69 70  3  0  0  0  0
 68 71  1  0  0  0  0
 71 72  3  0  0  0  0
 12  2  1  0  0  0  0
 48 18  1  0  0  0  0
 67 54  1  0  0  0  0
 11  5  1  0  0  0  0
 47 22  2  0  0  0  0
 66 57  1  0  0  0  0
 46 24  2  0  0  0  0
 44 25  2  0  0  0  0
 30 26  2  0  0  0  0
 43 31  2  0  0  0  0
 41 32  2  0  0  0  0
 40 34  2  0  0  0  0
  1 73  1  0  0  0  0
  6 74  1  0  0  0  0
  9 75  1  0  0  0  0
 10 76  1  0  0  0  0
 20 77  1  0  0  0  0
 20 78  1  0  0  0  0
 21 79  1  0  0  0  0
 21 80  1  0  0  0  0
 21 81  1  0  0  0  0
 36 82  1  0  0  0  0
 36 83  1  0  0  0  0
 37 84  1  0  0  0  0
 37 85  1  0  0  0  0
 37 86  1  0  0  0  0
 49 87  1  0  0  0  0
 49 88  1  0  0  0  0
 50 89  1  0  0  0  0
 50 90  1  0  0  0  0
 50 91  1  0  0  0  0
 51 92  1  0  0  0  0
 51 93  1  0  0  0  0
 52 94  1  0  0  0  0
 52 95  1  0  0  0  0
 52 96  1  0  0  0  0
 53 97  1  0  0  0  0
 58 98  1  0  0  0  0
 64 99  1  0  0  0  0
 65100  1  0  0  0  0
M  END
