
  xtb     02012218073D
 energy: -157.685063303860 gnorm: 0.000925060694 xtb: 6.4.1 (unknown)
 84 93  0     0  0            999 V2000
   -0.2009    0.7297    5.5168 C   0  0  0  0  0  0  0  0  0  0  0  0
   -1.1632    0.5241    6.4684 C   0  0  0  0  0  0  0  0  0  0  0  0
   -2.5538    0.1160    6.1700 C   0  0  0  0  0  0  0  0  0  0  0  0
   -3.0970    0.0446    5.0883 O   0  0  0  0  0  0  0  0  0  0  0  0
   -3.1198   -0.3140    7.4682 C   0  0  0  0  0  0  0  0  0  0  0  0
   -4.3801   -0.8147    7.7232 C   0  0  0  0  0  0  0  0  0  0  0  0
   -4.6622   -1.1571    9.0374 C   0  0  0  0  0  0  0  0  0  0  0  0
   -5.8779   -1.6433    9.3356 F   0  0  0  0  0  0  0  0  0  0  0  0
   -3.7336   -1.0175   10.0584 C   0  0  0  0  0  0  0  0  0  0  0  0
   -2.4691   -0.5170    9.7873 C   0  0  0  0  0  0  0  0  0  0  0  0
   -2.1585   -0.1608    8.4826 C   0  0  0  0  0  0  0  0  0  0  0  0
   -0.9398    0.3866    7.8931 C   0  0  0  0  0  0  0  0  0  0  0  0
    0.1802    0.7825    8.5755 C   0  0  0  0  0  0  0  0  0  0  0  0
    0.3463    0.6476    9.9695 C   0  0  0  0  0  0  0  0  0  0  0  0
    0.5384    0.5583   11.0976 N   0  0  0  0  0  0  0  0  0  0  0  0
    1.2951    1.4095    7.9790 C   0  0  0  0  0  0  0  0  0  0  0  0
    2.2230    1.9412    7.5610 N   0  0  0  0  0  0  0  0  0  0  0  0
   -0.4250    1.0039    4.1512 C   0  0  0  0  0  0  0  0  0  0  0  0
   -1.4031    1.7703    3.5245 C   0  0  0  0  0  0  0  0  0  0  0  0
   -2.4045    2.6125    4.2393 C   0  0  0  0  0  0  0  0  0  0  0  0
   -2.4402    4.0495    3.7228 C   0  0  0  0  0  0  0  0  0  0  0  0
   -1.2466    1.7367    2.1313 C   0  0  0  0  0  0  0  0  0  0  0  0
   -2.1787    2.4084    0.8110 S   0  0  0  0  0  0  0  0  0  0  0  0
   -1.1175    1.6395   -0.3138 C   0  0  0  0  0  0  0  0  0  0  0  0
   -0.9738    1.4763   -1.7018 C   0  0  0  0  0  0  0  0  0  0  0  0
   -1.7864    1.8318   -2.8035 C   0  0  0  0  0  0  0  0  0  0  0  0
   -1.4416    1.3485   -4.1145 C   0  0  0  0  0  0  0  0  0  0  0  0
   -2.3362    1.6906   -5.0275 N   0  0  0  0  0  0  0  0  0  0  0  0
   -3.5037    2.5511   -4.3107 S   0  0  0  0  0  0  0  0  0  0  0  0
   -2.9170    2.5194   -2.8039 N   0  0  0  0  0  0  0  0  0  0  0  0
   -0.2194    0.6602   -4.2958 C   0  0  0  0  0  0  0  0  0  0  0  0
    0.4530    0.1812   -5.4317 C   0  0  0  0  0  0  0  0  0  0  0  0
    0.1824   -0.0041   -7.1286 S   0  0  0  0  0  0  0  0  0  0  0  0
    1.7818   -0.6983   -7.2829 C   0  0  0  0  0  0  0  0  0  0  0  0
    2.4789   -1.2075   -8.3812 C   0  0  0  0  0  0  0  0  0  0  0  0
    1.8851   -1.1854   -9.7512 C   0  0  0  0  0  0  0  0  0  0  0  0
    2.2949    0.0846  -10.5024 C   0  0  0  0  0  0  0  0  0  0  0  0
    3.7410   -1.6677   -8.0005 C   0  0  0  0  0  0  0  0  0  0  0  0
    4.0307   -1.4673   -6.2662 S   0  0  0  0  0  0  0  0  0  0  0  0
    2.4753   -0.7626   -6.0657 C   0  0  0  0  0  0  0  0  0  0  0  0
    1.7144   -0.2649   -5.0081 C   0  0  0  0  0  0  0  0  0  0  0  0
    1.8427   -0.1001   -3.6510 N   0  0  0  0  0  0  0  0  0  0  0  0
    0.6505    0.4289   -3.1965 C   0  0  0  0  0  0  0  0  0  0  0  0
    0.1926    0.6875   -1.8875 C   0  0  0  0  0  0  0  0  0  0  0  0
    0.7094    0.3270   -0.6569 N   0  0  0  0  0  0  0  0  0  0  0  0
   -0.0854    0.9139    0.2966 C   0  0  0  0  0  0  0  0  0  0  0  0
   -0.1592    0.9678    1.6903 C   0  0  0  0  0  0  0  0  0  0  0  0
    0.7366    0.3226    3.0098 S   0  0  0  0  0  0  0  0  0  0  0  0
    1.4336   -0.8910   -0.3478 C   0  0  0  0  0  0  0  0  0  0  0  0
    0.4826   -1.9990    0.1035 C   0  0  0  0  0  0  0  0  0  0  0  0
    3.1504    0.0807   -3.0494 C   0  0  0  0  0  0  0  0  0  0  0  0
    3.9048    1.2388   -3.7012 C   0  0  0  0  0  0  0  0  0  0  0  0
    4.7547   -2.2510   -8.8048 C   0  0  0  0  0  0  0  0  0  0  0  0
    5.9703   -2.7432   -8.3647 C   0  0  0  0  0  0  0  0  0  0  0  0
    6.4235   -2.7674   -7.0343 C   0  0  0  0  0  0  0  0  0  0  0  0
    6.8585   -2.8224   -5.9722 N   0  0  0  0  0  0  0  0  0  0  0  0
    6.8937   -3.2953   -9.2797 C   0  0  0  0  0  0  0  0  0  0  0  0
    7.6626   -3.7478  -10.0001 N   0  0  0  0  0  0  0  0  0  0  0  0
    4.5756   -2.3588  -10.2101 C   0  0  0  0  0  0  0  0  0  0  0  0
    4.5153   -2.4700  -11.3489 N   0  0  0  0  0  0  0  0  0  0  0  0
    0.8377    0.6027    5.8004 H   0  0  0  0  0  0  0  0  0  0  0  0
   -5.1108   -0.9322    6.9391 H   0  0  0  0  0  0  0  0  0  0  0  0
   -4.0085   -1.3053   11.0609 H   0  0  0  0  0  0  0  0  0  0  0  0
   -1.7518   -0.4193   10.5854 H   0  0  0  0  0  0  0  0  0  0  0  0
   -2.1702    2.6173    5.3056 H   0  0  0  0  0  0  0  0  0  0  0  0
   -3.3895    2.1519    4.1203 H   0  0  0  0  0  0  0  0  0  0  0  0
   -2.7872    4.0918    2.6944 H   0  0  0  0  0  0  0  0  0  0  0  0
   -1.4504    4.4979    3.7765 H   0  0  0  0  0  0  0  0  0  0  0  0
   -3.1184    4.6377    4.3355 H   0  0  0  0  0  0  0  0  0  0  0  0
    0.7978   -1.1974   -9.6446 H   0  0  0  0  0  0  0  0  0  0  0  0
    2.1847   -2.0632  -10.3224 H   0  0  0  0  0  0  0  0  0  0  0  0
    1.9858    0.9681   -9.9485 H   0  0  0  0  0  0  0  0  0  0  0  0
    1.8198    0.1009  -11.4788 H   0  0  0  0  0  0  0  0  0  0  0  0
    3.3721    0.1186  -10.6463 H   0  0  0  0  0  0  0  0  0  0  0  0
    2.1549   -0.6719    0.4456 H   0  0  0  0  0  0  0  0  0  0  0  0
    1.9608   -1.2334   -1.2355 H   0  0  0  0  0  0  0  0  0  0  0  0
   -0.2513   -2.2040   -0.6731 H   0  0  0  0  0  0  0  0  0  0  0  0
   -0.0415   -1.7206    1.0132 H   0  0  0  0  0  0  0  0  0  0  0  0
    1.0493   -2.9054    0.2967 H   0  0  0  0  0  0  0  0  0  0  0  0
    3.7226   -0.8457   -3.1629 H   0  0  0  0  0  0  0  0  0  0  0  0
    3.0255    0.3076   -1.9923 H   0  0  0  0  0  0  0  0  0  0  0  0
    4.8533    1.3823   -3.1919 H   0  0  0  0  0  0  0  0  0  0  0  0
    4.1069    1.0377   -4.7493 H   0  0  0  0  0  0  0  0  0  0  0  0
    3.3244    2.1562   -3.6262 H   0  0  0  0  0  0  0  0  0  0  0  0
  1  2  2  0  0  0  0
  2  3  1  0  0  0  0
  3  4  2  0  0  0  0
  3  5  1  0  0  0  0
  5  6  2  0  0  0  0
  6  7  1  0  0  0  0
  7  8  1  0  0  0  0
  7  9  2  0  0  0  0
  9 10  1  0  0  0  0
 10 11  2  0  0  0  0
 11 12  1  0  0  0  0
 12 13  2  0  0  0  0
 13 14  1  0  0  0  0
 14 15  3  0  0  0  0
 13 16  1  0  0  0  0
 16 17  3  0  0  0  0
  1 18  1  0  0  0  0
 18 19  2  0  0  0  0
 19 20  1  0  0  0  0
 20 21  1  0  0  0  0
 19 22  1  0  0  0  0
 22 23  1  0  0  0  0
 23 24  1  0  0  0  0
 24 25  1  0  0  0  0
 25 26  1  0  0  0  0
 26 27  1  0  0  0  0
 27 28  2  0  0  0  0
 28 29  1  0  0  0  0
 29 30  1  0  0  0  0
 27 31  1  0  0  0  0
 31 32  1  0  0  0  0
 32 33  1  0  0  0  0
 33 34  1  0  0  0  0
 34 35  1  0  0  0  0
 35 36  1  0  0  0  0
 36 37  1  0  0  0  0
 35 38  2  0  0  0  0
 38 39  1  0  0  0  0
 39 40  1  0  0  0  0
 40 41  1  0  0  0  0
 41 42  1  0  0  0  0
 42 43  1  0  0  0  0
 43 44  1  0  0  0  0
 44 45  1  0  0  0  0
 45 46  1  0  0  0  0
 46 47  1  0  0  0  0
 47 48  1  0  0  0  0
 45 49  1  0  0  0  0
 49 50  1  0  0  0  0
 42 51  1  0  0  0  0
 51 52  1  0  0  0  0
 38 53  1  0  0  0  0
 53 54  2  0  0  0  0
 54 55  1  0  0  0  0
 55 56  3  0  0  0  0
 54 57  1  0  0  0  0
 57 58  3  0  0  0  0
 53 59  1  0  0  0  0
 59 60  3  0  0  0  0
 12  2  1  0  0  0  0
 48 18  1  0  0  0  0
 11  5  1  0  0  0  0
 47 22  2  0  0  0  0
 46 24  2  0  0  0  0
 44 25  2  0  0  0  0
 30 26  2  0  0  0  0
 43 31  2  0  0  0  0
 41 32  2  0  0  0  0
 40 34  2  0  0  0  0
  1 61  1  0  0  0  0
  6 62  1  0  0  0  0
  9 63  1  0  0  0  0
 10 64  1  0  0  0  0
 20 65  1  0  0  0  0
 20 66  1  0  0  0  0
 21 67  1  0  0  0  0
 21 68  1  0  0  0  0
 21 69  1  0  0  0  0
 36 70  1  0  0  0  0
 36 71  1  0  0  0  0
 37 72  1  0  0  0  0
 37 73  1  0  0  0  0
 37 74  1  0  0  0  0
 49 75  1  0  0  0  0
 49 76  1  0  0  0  0
 50 77  1  0  0  0  0
 50 78  1  0  0  0  0
 50 79  1  0  0  0  0
 51 80  1  0  0  0  0
 51 81  1  0  0  0  0
 52 82  1  0  0  0  0
 52 83  1  0  0  0  0
 52 84  1  0  0  0  0
M  END
