97

C          5.56200        5.51200       -2.55780
C          6.79970        4.98610       -2.26970
C          7.06990        3.82970       -1.41560
O          6.26550        3.13080       -0.82360
C          8.53730        3.66410       -1.40390
C          9.28730        2.71440       -0.74160
C         10.66300        2.78150       -0.90470
F         11.43630        1.87760       -0.28060
C         11.27110        3.74890       -1.69010
C         10.50330        4.69730       -2.34980
C          9.12390        4.65700       -2.20780
C          8.06260        5.49630       -2.76600
C          8.26090        6.55510       -3.61510
C          7.25200        7.36720       -4.17360
N          6.49350        8.07260       -4.67130
C          9.52830        6.98460       -4.06270
N         10.52420        7.38810       -4.46680
C          4.28070        5.10420       -2.17880
C          3.11360        5.77770       -2.58730
C          3.06740        7.03410       -3.39330
C          3.28630        8.26110       -2.50350
C          1.97450        5.15180       -2.10200
S          0.26420        5.49890       -2.28180
C         -0.09130        4.09430       -1.33760
C         -1.20730        3.40000       -0.84450
C         -2.59470        3.67690       -0.83250
C         -3.47990        2.80230       -0.10870
N         -4.73190        3.23000       -0.12440
S         -4.79970        4.60200       -0.97870
N         -3.23170        4.70910       -1.36120
C         -2.96760        1.60470        0.44340
C         -3.57400        0.48910        1.04380
S         -5.13370       -0.02580        1.57530
C         -4.45710       -1.57760        2.02440
C         -5.02040       -2.75440        2.53000
C         -6.42800       -2.88380        3.00130
C         -6.87680       -1.70080        3.85660
C         -4.05360       -3.75520        2.65390
S         -2.43520       -3.18570        2.22910
C         -3.07600       -1.65660        1.77400
C         -2.57470       -0.48000        1.21900
N         -1.36680       -0.00070        0.77410
C         -1.58820        1.28690        0.32370
C         -0.69350        2.26040       -0.16690
N          0.68580        2.29780       -0.17730
C          1.05120        3.40430       -0.90300
C          2.23610        4.00430       -1.33200
S          3.92210        3.69040       -1.18280
C          1.57250        1.75690        0.83490
C          1.96940        2.82830        1.84970
C         -0.35320       -0.91980        0.29330
C         -0.88500       -1.77610       -0.85550
C         -4.14680       -5.08450        3.09560
C         -5.20480       -5.94290        2.91220
C         -6.20930       -5.79710        1.84090
O         -6.34650       -4.87610        1.06810
C         -6.94320       -7.08950        1.82560
C         -6.42320       -7.94610        2.81190
C         -6.93080       -9.22300        2.97830
C         -7.96530       -9.62660        2.14580
F         -8.46910      -10.85510        2.28460
C         -8.49500       -8.78980        1.16630
F         -9.49370       -9.21390        0.38750
C         -7.97400       -7.50400        1.00200
F         -8.48370       -6.70820        0.06650
C         -5.35520       -7.24180        3.52140
C         -4.68560       -7.70270        4.62590
C         -3.74000       -6.94770        5.35220
N         -2.98330       -6.38010        6.00250
C         -4.88240       -8.97530        5.20000
N         -4.99650      -10.00020        5.70390
H          5.55970        6.38890       -3.19040
H          8.82670        1.95680       -0.12800
H         12.34590        3.75270       -1.78040
H         10.98930        5.44330       -2.95630
H          2.08250        7.10380       -3.85930
H          3.81910        7.02220       -4.18390
H          4.25960        8.21890       -2.02040
H          3.24010        9.16380       -3.10570
H          2.51860        8.31340       -1.73500
H         -7.07810       -2.97500        2.12580
H         -6.52530       -3.80550        3.57850
H         -6.18450       -1.54220        4.68060
H         -6.93670       -0.78830        3.27080
H         -7.86130       -1.90560        4.26880
H          2.46830        1.36460        0.34390
H          1.06010        0.95630        1.36540
H          1.08190        3.26620        2.30220
H          2.57420        2.37760        2.63120
H          2.54980        3.61630        1.37900
H          0.50270       -0.35490       -0.06910
H         -0.04490       -1.56040        1.12540
H         -1.71200       -2.40110       -0.53080
H         -0.09140       -2.41980       -1.22390
H         -1.22650       -1.14110       -1.67020
H         -3.25180       -5.47990        3.56270
H         -6.55640       -9.91280        3.71640
