99

C         -8.51140       -0.55270       -0.40520
C         -8.86870        0.73620       -0.67680
C        -10.08080        1.00730       -1.48780
O        -10.95260        0.22250       -1.78290
C         -9.95370        2.42390       -1.90350
C        -10.75860        3.14700       -2.76000
C        -10.39630        4.46510       -2.99580
F        -11.14980        5.20780       -3.82370
C         -9.28160        5.04850       -2.41160
C         -8.48530        4.31430       -1.54560
C         -8.82360        2.99470       -1.28870
C         -8.22210        1.99920       -0.40360
C         -7.41630        2.27680        0.67070
C         -6.84370        3.53790        0.92380
N         -6.32270        4.53510        1.15420
C         -7.14300        1.34000        1.68940
N         -6.94800        0.62290        2.56470
C         -7.24850       -1.07080       -0.05570
C         -6.98940       -2.32070        0.49650
C         -8.02420       -3.32900        0.87170
C         -8.26500       -4.30170       -0.28630
C         -5.61890       -2.53250        0.66170
S         -4.70770       -3.86360        1.33670
C         -3.25190       -2.98610        1.03020
C         -1.87330       -3.11640        1.23860
C         -1.13830       -4.12260        1.90360
C          0.27100       -3.94380        2.08080
N          0.82510       -4.93340        2.76350
S         -0.32980       -6.00090        3.14660
N         -1.58110       -5.24110        2.45590
C          0.89300       -2.81980        1.49370
C          2.24450       -2.46900        1.40840
S          3.78070       -3.04190        1.95830
C          4.54400       -1.73200        1.07220
C          5.87120       -1.37520        0.90260
C          6.98490       -2.10520        1.58230
C          7.37910       -1.40620        2.88650
C          6.00270       -0.24030        0.07420
S          4.43680        0.35170       -0.48160
C          3.63530       -0.89920        0.39430
C          2.32030       -1.32670        0.60220
N          1.06410       -0.94330        0.21790
C          0.15960       -1.84030        0.75620
C         -1.25740       -1.94060        0.71640
N         -2.25550       -1.11020        0.23030
C         -3.45540       -1.73830        0.42790
C         -4.81070       -1.47490        0.22040
S         -5.76280       -0.18540       -0.41190
C         -2.24330        0.31110       -0.04060
C         -1.82390        1.11170        1.18930
C          0.91470        0.02440       -0.84580
C          0.45010       -0.63720       -2.14080
C          7.24620        0.31140       -0.23510
C          7.65550        1.38420       -1.01240
C          6.69810        2.20290       -1.74420
O          5.48370        2.01320       -1.69770
N          7.17670        3.21950       -2.52910
C          6.20110        4.02280       -3.25860
C          5.63460        5.13030       -2.37980
C          8.51590        3.57500       -2.66130
O          8.84530        4.50530       -3.36550
C          9.44850        2.74550       -1.90240
C          9.04970        1.70030       -1.11580
C         10.07830        0.90430       -0.37100
C         10.81000        3.09410       -2.03350
N         11.91820        3.37220       -2.13500
H         -9.29440       -1.28600       -0.57040
H        -11.62930        2.71030       -3.22230
H         -9.04700        6.07640       -2.63900
H         -7.61780        4.77050       -1.09680
H         -7.66470       -3.88670        1.73850
H         -8.95600       -2.83350        1.14300
H         -8.62320       -3.77190       -1.16620
H         -9.00790       -5.04120       -0.00060
H         -7.34330       -4.81770       -0.54430
H          6.63680       -3.11380        1.81340
H          7.85380       -2.19130        0.92750
H          6.52840       -1.37000        3.56210
H          7.70950       -0.38720        2.69770
H          8.18420       -1.95040        3.37330
H         -3.26640        0.58280       -0.31230
H         -1.61500        0.53370       -0.90250
H         -2.52820        0.94160        2.00040
H         -1.81870        2.17280        0.95580
H         -0.83350        0.82010        1.53150
H          1.90140        0.46640       -1.00300
H          0.24760        0.83020       -0.53980
H         -0.49340       -1.16070       -2.00310
H          1.19240       -1.35860       -2.47410
H          0.32760        0.11390       -2.91630
H          8.05440       -0.22870        0.23850
H          6.72010        4.44810       -4.11910
H          5.40380        3.35450       -3.59010
H          6.43430        5.78330       -2.03800
H          4.92200        5.71980       -2.94960
H          5.12710        4.70340       -1.51770
H          9.89050        0.93660        0.70180
H         10.06830       -0.13610       -0.69490
H         11.07050        1.30780       -0.55610
