
  xtb     02012217493D
 energy: -182.779414205120 gnorm: 0.000843279141 xtb: 6.4.1 (unknown)
 97108  0     0  0            999 V2000
   -2.9754    6.6225    3.1022 C   0  0  0  0  0  0  0  0  0  0  0  0
   -3.3462    6.2730    4.3801 C   0  0  0  0  0  0  0  0  0  0  0  0
   -3.2401    4.9424    4.9773 C   0  0  0  0  0  0  0  0  0  0  0  0
   -2.8006    3.9251    4.4692 O   0  0  0  0  0  0  0  0  0  0  0  0
   -3.7751    5.0666    6.3487 C   0  0  0  0  0  0  0  0  0  0  0  0
   -3.8948    4.0888    7.3145 C   0  0  0  0  0  0  0  0  0  0  0  0
   -4.4350    4.4773    8.5314 C   0  0  0  0  0  0  0  0  0  0  0  0
   -4.5712    3.5607    9.5044 F   0  0  0  0  0  0  0  0  0  0  0  0
   -4.8407    5.7791    8.7822 C   0  0  0  0  0  0  0  0  0  0  0  0
   -4.7134    6.7515    7.8010 C   0  0  0  0  0  0  0  0  0  0  0  0
   -4.1756    6.3952    6.5730 C   0  0  0  0  0  0  0  0  0  0  0  0
   -3.9136    7.1748    5.3621 C   0  0  0  0  0  0  0  0  0  0  0  0
   -4.1587    8.5173    5.2222 C   0  0  0  0  0  0  0  0  0  0  0  0
   -3.9024    9.2896    4.0704 C   0  0  0  0  0  0  0  0  0  0  0  0
   -3.7215    9.9901    3.1773 N   0  0  0  0  0  0  0  0  0  0  0  0
   -4.7074    9.3324    6.2349 C   0  0  0  0  0  0  0  0  0  0  0  0
   -5.1492   10.0548    7.0100 N   0  0  0  0  0  0  0  0  0  0  0  0
   -2.4089    5.8694    2.0722 C   0  0  0  0  0  0  0  0  0  0  0  0
   -2.0884    6.4149    0.8146 C   0  0  0  0  0  0  0  0  0  0  0  0
   -2.3606    7.8160    0.3753 C   0  0  0  0  0  0  0  0  0  0  0  0
   -3.8064    7.9600   -0.1088 C   0  0  0  0  0  0  0  0  0  0  0  0
   -1.5228    5.4623   -0.0199 C   0  0  0  0  0  0  0  0  0  0  0  0
   -0.9082    5.5483   -1.6608 S   0  0  0  0  0  0  0  0  0  0  0  0
   -0.4813    3.8769   -1.5522 C   0  0  0  0  0  0  0  0  0  0  0  0
    0.1531    2.8942   -2.3229 C   0  0  0  0  0  0  0  0  0  0  0  0
    0.8153    2.9789   -3.5682 C   0  0  0  0  0  0  0  0  0  0  0  0
    1.5289    1.8335   -4.0514 C   0  0  0  0  0  0  0  0  0  0  0  0
    2.1575    2.0728   -5.1913 N   0  0  0  0  0  0  0  0  0  0  0  0
    1.8713    3.6063   -5.6227 S   0  0  0  0  0  0  0  0  0  0  0  0
    0.9354    4.0249   -4.3702 N   0  0  0  0  0  0  0  0  0  0  0  0
    1.4319    0.6198   -3.3353 C   0  0  0  0  0  0  0  0  0  0  0  0
    1.8809   -0.6700   -3.6485 C   0  0  0  0  0  0  0  0  0  0  0  0
    2.7957   -1.4720   -4.8728 S   0  0  0  0  0  0  0  0  0  0  0  0
    2.4668   -3.0044   -4.0932 C   0  0  0  0  0  0  0  0  0  0  0  0
    2.8609   -4.3194   -4.3754 C   0  0  0  0  0  0  0  0  0  0  0  0
    3.5899   -4.7375   -5.6068 C   0  0  0  0  0  0  0  0  0  0  0  0
    3.0216   -4.1068   -6.8763 C   0  0  0  0  0  0  0  0  0  0  0  0
    2.3705   -5.2015   -3.4153 C   0  0  0  0  0  0  0  0  0  0  0  0
    1.3555   -4.3963   -2.2170 S   0  0  0  0  0  0  0  0  0  0  0  0
    1.6768   -2.8680   -2.9402 C   0  0  0  0  0  0  0  0  0  0  0  0
    1.3554   -1.5333   -2.6798 C   0  0  0  0  0  0  0  0  0  0  0  0
    0.6248   -0.8193   -1.7673 N   0  0  0  0  0  0  0  0  0  0  0  0
    0.6756    0.5127   -2.1317 C   0  0  0  0  0  0  0  0  0  0  0  0
    0.1447    1.6945   -1.5515 C   0  0  0  0  0  0  0  0  0  0  0  0
   -0.4452    1.9630   -0.3276 N   0  0  0  0  0  0  0  0  0  0  0  0
   -0.8122    3.2845   -0.3272 C   0  0  0  0  0  0  0  0  0  0  0  0
   -1.3981    4.1878    0.5631 C   0  0  0  0  0  0  0  0  0  0  0  0
   -1.9923    4.1565    2.1795 S   0  0  0  0  0  0  0  0  0  0  0  0
   -0.2547    1.3066    0.9490 C   0  0  0  0  0  0  0  0  0  0  0  0
    1.1877    1.4568    1.4270 C   0  0  0  0  0  0  0  0  0  0  0  0
   -0.2731   -1.5100   -0.8693 C   0  0  0  0  0  0  0  0  0  0  0  0
    0.4517   -2.0824    0.3475 C   0  0  0  0  0  0  0  0  0  0  0  0
    2.4994   -6.5983   -3.2883 C   0  0  0  0  0  0  0  0  0  0  0  0
    3.6010   -7.3502   -3.6031 C   0  0  0  0  0  0  0  0  0  0  0  0
    4.9780   -6.8189   -3.6866 C   0  0  0  0  0  0  0  0  0  0  0  0
    5.3383   -5.6620   -3.6374 O   0  0  0  0  0  0  0  0  0  0  0  0
    5.8541   -8.0125   -3.7174 C   0  0  0  0  0  0  0  0  0  0  0  0
    7.2323   -8.0570   -3.7639 C   0  0  0  0  0  0  0  0  0  0  0  0
    7.8168   -9.3149   -3.7734 C   0  0  0  0  0  0  0  0  0  0  0  0
    9.1560   -9.4087   -3.8240 F   0  0  0  0  0  0  0  0  0  0  0  0
    7.0703  -10.4830   -3.7316 C   0  0  0  0  0  0  0  0  0  0  0  0
    5.6858  -10.4236   -3.6803 C   0  0  0  0  0  0  0  0  0  0  0  0
    5.0716   -9.1796   -3.6739 C   0  0  0  0  0  0  0  0  0  0  0  0
    3.6631   -8.7962   -3.6293 C   0  0  0  0  0  0  0  0  0  0  0  0
    2.5920   -9.6486   -3.6949 C   0  0  0  0  0  0  0  0  0  0  0  0
    2.6999  -11.0538   -3.7406 C   0  0  0  0  0  0  0  0  0  0  0  0
    2.7264  -12.2010   -3.7703 N   0  0  0  0  0  0  0  0  0  0  0  0
    1.2457   -9.2319   -3.7622 C   0  0  0  0  0  0  0  0  0  0  0  0
    0.1331   -8.9612   -3.8452 N   0  0  0  0  0  0  0  0  0  0  0  0
   -3.1422    7.6559    2.8314 H   0  0  0  0  0  0  0  0  0  0  0  0
   -3.5837    3.0726    7.1326 H   0  0  0  0  0  0  0  0  0  0  0  0
   -5.2548    6.0237    9.7476 H   0  0  0  0  0  0  0  0  0  0  0  0
   -5.0331    7.7589    8.0090 H   0  0  0  0  0  0  0  0  0  0  0  0
   -2.1769    8.5259    1.1829 H   0  0  0  0  0  0  0  0  0  0  0  0
   -1.6843    8.0525   -0.4486 H   0  0  0  0  0  0  0  0  0  0  0  0
   -3.9839    8.9800   -0.4370 H   0  0  0  0  0  0  0  0  0  0  0  0
   -3.9955    7.2862   -0.9411 H   0  0  0  0  0  0  0  0  0  0  0  0
   -4.5058    7.7291    0.6913 H   0  0  0  0  0  0  0  0  0  0  0  0
    3.5449   -5.8250   -5.6929 H   0  0  0  0  0  0  0  0  0  0  0  0
    4.6425   -4.4611   -5.4949 H   0  0  0  0  0  0  0  0  0  0  0  0
    1.9550   -4.3060   -6.9559 H   0  0  0  0  0  0  0  0  0  0  0  0
    3.1775   -3.0322   -6.8893 H   0  0  0  0  0  0  0  0  0  0  0  0
    3.5170   -4.5330   -7.7449 H   0  0  0  0  0  0  0  0  0  0  0  0
   -0.5301    0.2576    0.8992 H   0  0  0  0  0  0  0  0  0  0  0  0
   -0.9287    1.7958    1.6564 H   0  0  0  0  0  0  0  0  0  0  0  0
    1.4451    2.5095    1.5188 H   0  0  0  0  0  0  0  0  0  0  0  0
    1.8776    0.9954    0.7228 H   0  0  0  0  0  0  0  0  0  0  0  0
    1.3058    0.9870    2.3994 H   0  0  0  0  0  0  0  0  0  0  0  0
   -0.7213   -2.3399   -1.4277 H   0  0  0  0  0  0  0  0  0  0  0  0
   -1.0807   -0.8325   -0.5899 H   0  0  0  0  0  0  0  0  0  0  0  0
    1.1500   -2.8536    0.0340 H   0  0  0  0  0  0  0  0  0  0  0  0
   -0.2689   -2.5307    1.0257 H   0  0  0  0  0  0  0  0  0  0  0  0
    1.0093   -1.3169    0.8791 H   0  0  0  0  0  0  0  0  0  0  0  0
    1.6535   -7.1000   -2.8317 H   0  0  0  0  0  0  0  0  0  0  0  0
    7.8263   -7.1577   -3.7938 H   0  0  0  0  0  0  0  0  0  0  0  0
    7.5808  -11.4331   -3.7372 H   0  0  0  0  0  0  0  0  0  0  0  0
    5.1139  -11.3361   -3.6405 H   0  0  0  0  0  0  0  0  0  0  0  0
  1  2  2  0  0  0  0
  2  3  1  0  0  0  0
  3  4  2  0  0  0  0
  3  5  1  0  0  0  0
  5  6  2  0  0  0  0
  6  7  1  0  0  0  0
  7  8  1  0  0  0  0
  7  9  2  0  0  0  0
  9 10  1  0  0  0  0
 10 11  2  0  0  0  0
 11 12  1  0  0  0  0
 12 13  2  0  0  0  0
 13 14  1  0  0  0  0
 14 15  3  0  0  0  0
 13 16  1  0  0  0  0
 16 17  3  0  0  0  0
  1 18  1  0  0  0  0
 18 19  2  0  0  0  0
 19 20  1  0  0  0  0
 20 21  1  0  0  0  0
 19 22  1  0  0  0  0
 22 23  1  0  0  0  0
 23 24  1  0  0  0  0
 24 25  1  0  0  0  0
 25 26  1  0  0  0  0
 26 27  1  0  0  0  0
 27 28  2  0  0  0  0
 28 29  1  0  0  0  0
 29 30  1  0  0  0  0
 27 31  1  0  0  0  0
 31 32  1  0  0  0  0
 32 33  1  0  0  0  0
 33 34  1  0  0  0  0
 34 35  1  0  0  0  0
 35 36  1  0  0  0  0
 36 37  1  0  0  0  0
 35 38  2  0  0  0  0
 38 39  1  0  0  0  0
 39 40  1  0  0  0  0
 40 41  1  0  0  0  0
 41 42  1  0  0  0  0
 42 43  1  0  0  0  0
 43 44  1  0  0  0  0
 44 45  1  0  0  0  0
 45 46  1  0  0  0  0
 46 47  1  0  0  0  0
 47 48  1  0  0  0  0
 45 49  1  0  0  0  0
 49 50  1  0  0  0  0
 42 51  1  0  0  0  0
 51 52  1  0  0  0  0
 38 53  1  0  0  0  0
 53 54  2  0  0  0  0
 54 55  1  0  0  0  0
 55 56  2  0  0  0  0
 55 57  1  0  0  0  0
 57 58  2  0  0  0  0
 58 59  1  0  0  0  0
 59 60  1  0  0  0  0
 59 61  2  0  0  0  0
 61 62  1  0  0  0  0
 62 63  2  0  0  0  0
 63 64  1  0  0  0  0
 64 65  2  0  0  0  0
 65 66  1  0  0  0  0
 66 67  3  0  0  0  0
 65 68  1  0  0  0  0
 68 69  3  0  0  0  0
 12  2  1  0  0  0  0
 48 18  1  0  0  0  0
 64 54  1  0  0  0  0
 11  5  1  0  0  0  0
 47 22  2  0  0  0  0
 63 57  1  0  0  0  0
 46 24  2  0  0  0  0
 44 25  2  0  0  0  0
 30 26  2  0  0  0  0
 43 31  2  0  0  0  0
 41 32  2  0  0  0  0
 40 34  2  0  0  0  0
  1 70  1  0  0  0  0
  6 71  1  0  0  0  0
  9 72  1  0  0  0  0
 10 73  1  0  0  0  0
 20 74  1  0  0  0  0
 20 75  1  0  0  0  0
 21 76  1  0  0  0  0
 21 77  1  0  0  0  0
 21 78  1  0  0  0  0
 36 79  1  0  0  0  0
 36 80  1  0  0  0  0
 37 81  1  0  0  0  0
 37 82  1  0  0  0  0
 37 83  1  0  0  0  0
 49 84  1  0  0  0  0
 49 85  1  0  0  0  0
 50 86  1  0  0  0  0
 50 87  1  0  0  0  0
 50 88  1  0  0  0  0
 51 89  1  0  0  0  0
 51 90  1  0  0  0  0
 52 91  1  0  0  0  0
 52 92  1  0  0  0  0
 52 93  1  0  0  0  0
 53 94  1  0  0  0  0
 58 95  1  0  0  0  0
 61 96  1  0  0  0  0
 62 97  1  0  0  0  0
M  END
