103

C         -6.62970        4.18460        2.70360
C         -7.90660        4.58610        2.41030
C         -8.44300        4.72850        1.03990
O         -7.84060        4.66280       -0.01050
C         -9.90990        4.84460        1.20690
C        -10.87220        4.96680        0.22590
C        -12.19040        5.04640        0.65010
F        -13.16210        5.17220       -0.26890
C        -12.54550        4.99970        1.98990
C        -11.56820        4.87250        2.96540
C        -10.23990        4.79570        2.57260
C         -9.00810        4.66520        3.34620
C         -8.90490        4.70620        4.71200
C        -10.00650        4.80810        5.58630
N        -10.86570        4.88000        6.34420
C         -7.68380        4.68760        5.41890
N         -6.72430        4.71180        6.04910
C         -5.51000        4.25500        1.85160
C         -5.13480        5.20950        0.90980
C         -5.85250        6.49630        0.68260
C         -4.92060        7.70580        0.71490
C         -3.92570        4.85680        0.29430
S         -2.99120        5.58610       -0.99450
C         -1.87220        4.27460       -0.90330
C         -0.71330        3.82130       -1.54700
C         -0.03000        4.33200       -2.67210
C          1.06720        3.58540       -3.20990
N          1.58060        4.14780       -4.29290
S          0.75540        5.50510       -4.60450
N         -0.28960        5.42570       -3.37150
C          1.48760        2.41600       -2.53950
C          2.56350        1.55560       -2.79530
S          3.82340        1.34560       -3.96120
C          4.39280       -0.03970       -3.05560
C          5.44750       -0.93100       -3.26440
C          6.35730       -0.86350       -4.44660
C          5.84150       -1.75710       -5.57740
C          5.48860       -1.90670       -2.27130
S          4.22130       -1.68520       -1.06520
C          3.63010       -0.30280       -1.90820
C          2.58330        0.61230       -1.76290
N          1.55250        0.84420       -0.89290
C          0.84860        1.94560       -1.35440
C         -0.32840        2.60570       -0.90820
N         -1.25590        2.32760        0.08260
C         -2.18920        3.32930        0.07770
C         -3.36360        3.65850        0.76100
S         -4.31020        2.97160        2.02410
C         -1.54230        1.09390        0.78030
C         -1.89090       -0.03060       -0.19160
C          1.58760        0.23640        0.41980
C          1.93480        1.25850        1.49910
C          6.38710       -2.98430       -2.18950
C          6.41360       -3.98110       -1.26650
S          5.33390       -4.19100        0.09450
C          6.16510       -5.65980        0.56980
C          5.76180       -6.34300        1.68800
C          6.37270       -7.48410        2.23380
N          6.83890       -8.39740        2.75050
C          4.65080       -5.86660        2.41390
N          3.74310       -5.47880        2.99880
N          7.18490       -5.95460       -0.27580
C          7.95720       -7.17780       -0.22420
C          7.13130       -8.40540       -0.52570
C          7.53470       -9.63620       -0.02520
C          6.80140      -10.77550       -0.29810
C          5.65410      -10.69680       -1.06970
C          5.25110       -9.47490       -1.57690
C          5.98920       -8.33460       -1.31070
C          7.38620       -5.06380       -1.32470
O          8.25780       -5.20090       -2.15420
H         -6.45430        3.69950        3.65730
H        -10.61230        5.00110       -0.81990
H        -13.58790        5.06100        2.25970
H        -11.85370        4.82950        4.00360
H         -6.62220        6.61380        1.44780
H         -6.35780        6.44300       -0.28620
H         -4.21660        7.68610       -0.11170
H         -4.36260        7.73080        1.64850
H         -5.50800        8.61730        0.64050
H          7.36620       -1.17020       -4.16700
H          6.39400        0.17050       -4.79470
H          6.49990       -1.68430       -6.43860
H          5.80060       -2.79560       -5.25710
H          4.84330       -1.44680       -5.87680
H         -0.71440        0.82140        1.43410
H         -2.40380        1.29340        1.42210
H         -2.07990       -0.94900        0.35740
H         -2.78630        0.22770       -0.75210
H         -1.08520       -0.20330       -0.90140
H          0.64990       -0.27580        0.63410
H          2.36690       -0.52880        0.38690
H          1.21830        2.07650        1.51540
H          2.92090        1.67700        1.31070
H          1.94450        0.77760        2.47330
H          7.14910       -3.05150       -2.95640
H          8.43760       -7.27370        0.75360
H          8.73600       -7.05830       -0.98830
H          8.41990       -9.69700        0.58920
H          7.12220      -11.72590        0.09990
H          5.07580      -11.58490       -1.27500
H          4.35950       -9.40460       -2.18210
H          5.66730       -7.38890       -1.72500
