
  xtb     02012218183D
 energy: -186.834281666447 gnorm: 0.000971757288 xtb: 6.4.1 (unknown)
 97108  0     0  0            999 V2000
    4.5776    4.8296   -4.0494 C   0  0  0  0  0  0  0  0  0  0  0  0
    5.4911    3.9846   -4.6357 C   0  0  0  0  0  0  0  0  0  0  0  0
    5.4912    2.5237   -4.5589 C   0  0  0  0  0  0  0  0  0  0  0  0
    4.6808    1.8022   -4.0035 O   0  0  0  0  0  0  0  0  0  0  0  0
    6.6911    2.0759   -5.2950 C   0  0  0  0  0  0  0  0  0  0  0  0
    7.1435    0.7880   -5.4952 C   0  0  0  0  0  0  0  0  0  0  0  0
    8.3162    0.6450   -6.2218 C   0  0  0  0  0  0  0  0  0  0  0  0
    8.7986   -0.5898   -6.4411 F   0  0  0  0  0  0  0  0  0  0  0  0
    9.0124    1.7313   -6.7294 C   0  0  0  0  0  0  0  0  0  0  0  0
    8.5438    3.0203   -6.5213 C   0  0  0  0  0  0  0  0  0  0  0  0
    7.3730    3.1974   -5.7986 C   0  0  0  0  0  0  0  0  0  0  0  0
    6.6392    4.4042   -5.4143 C   0  0  0  0  0  0  0  0  0  0  0  0
    6.9978    5.6844   -5.7527 C   0  0  0  0  0  0  0  0  0  0  0  0
    8.1378    6.0117   -6.5170 C   0  0  0  0  0  0  0  0  0  0  0  0
    9.0482    6.3514   -7.1285 N   0  0  0  0  0  0  0  0  0  0  0  0
    6.2969    6.8588   -5.4072 C   0  0  0  0  0  0  0  0  0  0  0  0
    5.7829    7.8606   -5.1772 N   0  0  0  0  0  0  0  0  0  0  0  0
    3.4546    4.5647   -3.2622 C   0  0  0  0  0  0  0  0  0  0  0  0
    2.6432    5.5818   -2.7237 C   0  0  0  0  0  0  0  0  0  0  0  0
    2.8051    7.0474   -2.9604 C   0  0  0  0  0  0  0  0  0  0  0  0
    2.1553    7.4574   -4.2851 C   0  0  0  0  0  0  0  0  0  0  0  0
    1.6067    5.0530   -1.9684 C   0  0  0  0  0  0  0  0  0  0  0  0
    0.3086    5.7985   -1.0534 S   0  0  0  0  0  0  0  0  0  0  0  0
   -0.2337    4.2223   -0.5926 C   0  0  0  0  0  0  0  0  0  0  0  0
   -1.2590    3.6295    0.1608 C   0  0  0  0  0  0  0  0  0  0  0  0
   -2.4118    4.1426    0.8013 C   0  0  0  0  0  0  0  0  0  0  0  0
   -3.3690    3.2272    1.3660 C   0  0  0  0  0  0  0  0  0  0  0  0
   -4.4282    3.8489    1.8578 N   0  0  0  0  0  0  0  0  0  0  0  0
   -4.2406    5.4417    1.6424 S   0  0  0  0  0  0  0  0  0  0  0  0
   -2.7995    5.4029    0.9078 N   0  0  0  0  0  0  0  0  0  0  0  0
   -3.0657    1.8455    1.4030 C   0  0  0  0  0  0  0  0  0  0  0  0
   -3.6995    0.7367    1.9850 C   0  0  0  0  0  0  0  0  0  0  0  0
   -5.1725    0.3518    2.8054 S   0  0  0  0  0  0  0  0  0  0  0  0
   -4.6252   -1.3090    2.9501 C   0  0  0  0  0  0  0  0  0  0  0  0
   -5.2020   -2.4404    3.5066 C   0  0  0  0  0  0  0  0  0  0  0  0
   -6.5639   -2.4386    4.1195 C   0  0  0  0  0  0  0  0  0  0  0  0
   -7.6187   -2.8807    3.1009 C   0  0  0  0  0  0  0  0  0  0  0  0
   -4.3688   -3.5668    3.3561 C   0  0  0  0  0  0  0  0  0  0  0  0
   -2.8609   -3.1749    2.5235 S   0  0  0  0  0  0  0  0  0  0  0  0
   -3.3550   -1.5317    2.3868 C   0  0  0  0  0  0  0  0  0  0  0  0
   -2.8350   -0.3597    1.8372 C   0  0  0  0  0  0  0  0  0  0  0  0
   -1.6971    0.0243    1.1719 N   0  0  0  0  0  0  0  0  0  0  0  0
   -1.8413    1.3617    0.8655 C   0  0  0  0  0  0  0  0  0  0  0  0
   -1.0295    2.2275    0.1036 C   0  0  0  0  0  0  0  0  0  0  0  0
    0.0530    1.9682   -0.7121 N   0  0  0  0  0  0  0  0  0  0  0  0
    0.5449    3.1819   -1.1233 C   0  0  0  0  0  0  0  0  0  0  0  0
    1.5979    3.6477   -1.9122 C   0  0  0  0  0  0  0  0  0  0  0  0
    2.8940    2.9526   -2.8071 S   0  0  0  0  0  0  0  0  0  0  0  0
    0.2666    0.7824   -1.5194 C   0  0  0  0  0  0  0  0  0  0  0  0
   -0.2521    0.9845   -2.9426 C   0  0  0  0  0  0  0  0  0  0  0  0
   -0.4505   -0.6874    1.3788 C   0  0  0  0  0  0  0  0  0  0  0  0
   -0.0875   -0.7446    2.8622 C   0  0  0  0  0  0  0  0  0  0  0  0
   -4.7214   -4.8356    3.8180 C   0  0  0  0  0  0  0  0  0  0  0  0
   -4.0690   -6.0448    3.7301 C   0  0  0  0  0  0  0  0  0  0  0  0
   -2.7826   -6.2881    3.0783 C   0  0  0  0  0  0  0  0  0  0  0  0
   -2.0458   -5.4773    2.5449 O   0  0  0  0  0  0  0  0  0  0  0  0
   -2.5349   -7.7407    3.1940 C   0  0  0  0  0  0  0  0  0  0  0  0
   -1.4620   -8.4671    2.7202 C   0  0  0  0  0  0  0  0  0  0  0  0
   -1.4461   -9.8387    2.9445 C   0  0  0  0  0  0  0  0  0  0  0  0
   -0.1403  -10.8056    2.3803 Cl  0  0  0  0  0  0  0  0  0  0  0  0
   -2.5052  -10.4304    3.6358 C   0  0  0  0  0  0  0  0  0  0  0  0
   -2.4851  -11.7519    3.8469 F   0  0  0  0  0  0  0  0  0  0  0  0
   -3.5852   -9.7047    4.1158 C   0  0  0  0  0  0  0  0  0  0  0  0
   -3.5994   -8.3374    3.8908 C   0  0  0  0  0  0  0  0  0  0  0  0
   -4.5667   -7.3009    4.2523 C   0  0  0  0  0  0  0  0  0  0  0  0
   -5.7171   -7.5154    4.9690 C   0  0  0  0  0  0  0  0  0  0  0  0
   -6.6540   -6.5293    5.3423 C   0  0  0  0  0  0  0  0  0  0  0  0
   -7.4599   -5.7871    5.6896 N   0  0  0  0  0  0  0  0  0  0  0  0
   -6.1241   -8.7790    5.4472 C   0  0  0  0  0  0  0  0  0  0  0  0
   -6.5136   -9.7753    5.8636 N   0  0  0  0  0  0  0  0  0  0  0  0
    4.7479    5.8858   -4.2060 H   0  0  0  0  0  0  0  0  0  0  0  0
    6.6126   -0.0654   -5.1047 H   0  0  0  0  0  0  0  0  0  0  0  0
    9.9206    1.5600   -7.2854 H   0  0  0  0  0  0  0  0  0  0  0  0
    9.0953    3.8551   -6.9205 H   0  0  0  0  0  0  0  0  0  0  0  0
    2.3152    7.5807   -2.1433 H   0  0  0  0  0  0  0  0  0  0  0  0
    3.8581    7.3317   -2.9714 H   0  0  0  0  0  0  0  0  0  0  0  0
    1.0952    7.2148   -4.2776 H   0  0  0  0  0  0  0  0  0  0  0  0
    2.2686    8.5272   -4.4339 H   0  0  0  0  0  0  0  0  0  0  0  0
    2.6248    6.9429   -5.1201 H   0  0  0  0  0  0  0  0  0  0  0  0
   -6.7896   -1.4215    4.4458 H   0  0  0  0  0  0  0  0  0  0  0  0
   -6.6043   -3.0940    4.9907 H   0  0  0  0  0  0  0  0  0  0  0  0
   -7.6219   -2.2102    2.2446 H   0  0  0  0  0  0  0  0  0  0  0  0
   -7.4177   -3.8905    2.7508 H   0  0  0  0  0  0  0  0  0  0  0  0
   -8.6024   -2.8651    3.5609 H   0  0  0  0  0  0  0  0  0  0  0  0
   -0.2691   -0.0543   -1.0758 H   0  0  0  0  0  0  0  0  0  0  0  0
    1.3388    0.5655   -1.5444 H   0  0  0  0  0  0  0  0  0  0  0  0
   -0.1331    0.0619   -3.5034 H   0  0  0  0  0  0  0  0  0  0  0  0
   -1.3072    1.2501   -2.9249 H   0  0  0  0  0  0  0  0  0  0  0  0
    0.2997    1.7689   -3.4521 H   0  0  0  0  0  0  0  0  0  0  0  0
    0.3476   -0.1679    0.8518 H   0  0  0  0  0  0  0  0  0  0  0  0
   -0.5564   -1.7031    0.9854 H   0  0  0  0  0  0  0  0  0  0  0  0
    0.8804   -1.2240    2.9771 H   0  0  0  0  0  0  0  0  0  0  0  0
   -0.8214   -1.3157    3.4233 H   0  0  0  0  0  0  0  0  0  0  0  0
   -0.0317    0.2604    3.2758 H   0  0  0  0  0  0  0  0  0  0  0  0
   -5.6799   -4.8560    4.3179 H   0  0  0  0  0  0  0  0  0  0  0  0
   -0.6591   -7.9809    2.1896 H   0  0  0  0  0  0  0  0  0  0  0  0
   -4.3686  -10.2259    4.6411 H   0  0  0  0  0  0  0  0  0  0  0  0
  1  2  2  0  0  0  0
  2  3  1  0  0  0  0
  3  4  2  0  0  0  0
  3  5  1  0  0  0  0
  5  6  2  0  0  0  0
  6  7  1  0  0  0  0
  7  8  1  0  0  0  0
  7  9  2  0  0  0  0
  9 10  1  0  0  0  0
 10 11  2  0  0  0  0
 11 12  1  0  0  0  0
 12 13  2  0  0  0  0
 13 14  1  0  0  0  0
 14 15  3  0  0  0  0
 13 16  1  0  0  0  0
 16 17  3  0  0  0  0
  1 18  1  0  0  0  0
 18 19  2  0  0  0  0
 19 20  1  0  0  0  0
 20 21  1  0  0  0  0
 19 22  1  0  0  0  0
 22 23  1  0  0  0  0
 23 24  1  0  0  0  0
 24 25  1  0  0  0  0
 25 26  1  0  0  0  0
 26 27  1  0  0  0  0
 27 28  2  0  0  0  0
 28 29  1  0  0  0  0
 29 30  1  0  0  0  0
 27 31  1  0  0  0  0
 31 32  1  0  0  0  0
 32 33  1  0  0  0  0
 33 34  1  0  0  0  0
 34 35  1  0  0  0  0
 35 36  1  0  0  0  0
 36 37  1  0  0  0  0
 35 38  2  0  0  0  0
 38 39  1  0  0  0  0
 39 40  1  0  0  0  0
 40 41  1  0  0  0  0
 41 42  1  0  0  0  0
 42 43  1  0  0  0  0
 43 44  1  0  0  0  0
 44 45  1  0  0  0  0
 45 46  1  0  0  0  0
 46 47  1  0  0  0  0
 47 48  1  0  0  0  0
 45 49  1  0  0  0  0
 49 50  1  0  0  0  0
 42 51  1  0  0  0  0
 51 52  1  0  0  0  0
 38 53  1  0  0  0  0
 53 54  2  0  0  0  0
 54 55  1  0  0  0  0
 55 56  2  0  0  0  0
 55 57  1  0  0  0  0
 57 58  2  0  0  0  0
 58 59  1  0  0  0  0
 59 60  1  0  0  0  0
 59 61  2  0  0  0  0
 61 62  1  0  0  0  0
 61 63  1  0  0  0  0
 63 64  2  0  0  0  0
 64 65  1  0  0  0  0
 65 66  2  0  0  0  0
 66 67  1  0  0  0  0
 67 68  3  0  0  0  0
 66 69  1  0  0  0  0
 69 70  3  0  0  0  0
 12  2  1  0  0  0  0
 48 18  1  0  0  0  0
 65 54  1  0  0  0  0
 11  5  1  0  0  0  0
 47 22  2  0  0  0  0
 64 57  1  0  0  0  0
 46 24  2  0  0  0  0
 44 25  2  0  0  0  0
 30 26  2  0  0  0  0
 43 31  2  0  0  0  0
 41 32  2  0  0  0  0
 40 34  2  0  0  0  0
  1 71  1  0  0  0  0
  6 72  1  0  0  0  0
  9 73  1  0  0  0  0
 10 74  1  0  0  0  0
 20 75  1  0  0  0  0
 20 76  1  0  0  0  0
 21 77  1  0  0  0  0
 21 78  1  0  0  0  0
 21 79  1  0  0  0  0
 36 80  1  0  0  0  0
 36 81  1  0  0  0  0
 37 82  1  0  0  0  0
 37 83  1  0  0  0  0
 37 84  1  0  0  0  0
 49 85  1  0  0  0  0
 49 86  1  0  0  0  0
 50 87  1  0  0  0  0
 50 88  1  0  0  0  0
 50 89  1  0  0  0  0
 51 90  1  0  0  0  0
 51 91  1  0  0  0  0
 52 92  1  0  0  0  0
 52 93  1  0  0  0  0
 52 94  1  0  0  0  0
 53 95  1  0  0  0  0
 58 96  1  0  0  0  0
 63 97  1  0  0  0  0
M  END
