
  xtb     02022202033D
 energy: -182.776061749848 gnorm: 0.000564978513 xtb: 6.4.1 (unknown)
 97108  0     0  0            999 V2000
    2.3963    0.5094   -7.2479 C   0  0  0  0  0  0  0  0  0  0  0  0
    3.5458    0.7461   -7.9550 C   0  0  0  0  0  0  0  0  0  0  0  0
    4.7600    1.3726   -7.3885 C   0  0  0  0  0  0  0  0  0  0  0  0
    4.8974    1.8931   -6.3021 O   0  0  0  0  0  0  0  0  0  0  0  0
    5.8272    1.1215   -8.3839 C   0  0  0  0  0  0  0  0  0  0  0  0
    7.1574    1.4810   -8.3150 C   0  0  0  0  0  0  0  0  0  0  0  0
    7.9601    1.1144   -9.3852 C   0  0  0  0  0  0  0  0  0  0  0  0
    9.2612    1.4482   -9.3662 F   0  0  0  0  0  0  0  0  0  0  0  0
    7.4699    0.4134  -10.4770 C   0  0  0  0  0  0  0  0  0  0  0  0
    6.1314    0.0549  -10.5313 C   0  0  0  0  0  0  0  0  0  0  0  0
    5.3019    0.4125   -9.4783 C   0  0  0  0  0  0  0  0  0  0  0  0
    3.8766    0.1901   -9.2499 C   0  0  0  0  0  0  0  0  0  0  0  0
    2.9939   -0.3640  -10.1399 C   0  0  0  0  0  0  0  0  0  0  0  0
    1.6024   -0.4594   -9.9269 C   0  0  0  0  0  0  0  0  0  0  0  0
    0.4614   -0.5426   -9.8275 N   0  0  0  0  0  0  0  0  0  0  0  0
    3.3599   -0.8793  -11.4004 C   0  0  0  0  0  0  0  0  0  0  0  0
    3.6009   -1.3209  -12.4322 N   0  0  0  0  0  0  0  0  0  0  0  0
    1.9963    1.1532   -6.0601 C   0  0  0  0  0  0  0  0  0  0  0  0
    2.1515    2.4708   -5.6373 C   0  0  0  0  0  0  0  0  0  0  0  0
    2.6837    3.5756   -6.4855 C   0  0  0  0  0  0  0  0  0  0  0  0
    1.7354    4.7722   -6.5426 C   0  0  0  0  0  0  0  0  0  0  0  0
    1.6143    2.6501   -4.3555 C   0  0  0  0  0  0  0  0  0  0  0  0
    1.5763    4.0159   -3.2615 S   0  0  0  0  0  0  0  0  0  0  0  0
    0.8006    3.0288   -2.0758 C   0  0  0  0  0  0  0  0  0  0  0  0
    0.2965    3.1340   -0.7688 C   0  0  0  0  0  0  0  0  0  0  0  0
    0.1182    4.2252    0.1132 C   0  0  0  0  0  0  0  0  0  0  0  0
   -0.5777    4.0170    1.3560 C   0  0  0  0  0  0  0  0  0  0  0  0
   -0.7345    5.1401    2.0377 N   0  0  0  0  0  0  0  0  0  0  0  0
   -0.0616    6.3512    1.2021 S   0  0  0  0  0  0  0  0  0  0  0  0
    0.4550    5.4919   -0.0679 N   0  0  0  0  0  0  0  0  0  0  0  0
   -0.9351    2.7018    1.7349 C   0  0  0  0  0  0  0  0  0  0  0  0
   -1.4717    2.1551    2.9109 C   0  0  0  0  0  0  0  0  0  0  0  0
   -2.1063    2.6862    4.4295 S   0  0  0  0  0  0  0  0  0  0  0  0
   -2.3367    1.0081    4.8869 C   0  0  0  0  0  0  0  0  0  0  0  0
   -2.8322    0.4109    6.0362 C   0  0  0  0  0  0  0  0  0  0  0  0
   -3.3460    1.1941    7.1996 C   0  0  0  0  0  0  0  0  0  0  0  0
   -4.8653    1.3646    7.1125 C   0  0  0  0  0  0  0  0  0  0  0  0
   -2.8332   -0.9932    5.9234 C   0  0  0  0  0  0  0  0  0  0  0  0
   -2.1966   -1.5389    4.3690 S   0  0  0  0  0  0  0  0  0  0  0  0
   -1.9347    0.0953    3.8948 C   0  0  0  0  0  0  0  0  0  0  0  0
   -1.4428    0.7592    2.7698 C   0  0  0  0  0  0  0  0  0  0  0  0
   -0.9251    0.4204    1.5440 N   0  0  0  0  0  0  0  0  0  0  0  0
   -0.6420    1.5995    0.8855 C   0  0  0  0  0  0  0  0  0  0  0  0
   -0.1812    1.8414   -0.4259 C   0  0  0  0  0  0  0  0  0  0  0  0
   -0.0427    0.9936   -1.5085 N   0  0  0  0  0  0  0  0  0  0  0  0
    0.5690    1.7142   -2.5049 C   0  0  0  0  0  0  0  0  0  0  0  0
    1.0310    1.4986   -3.8047 C   0  0  0  0  0  0  0  0  0  0  0  0
    1.0973    0.1722   -4.8987 S   0  0  0  0  0  0  0  0  0  0  0  0
   -0.8927   -0.1367   -1.8292 C   0  0  0  0  0  0  0  0  0  0  0  0
   -1.9835    0.2546   -2.8255 C   0  0  0  0  0  0  0  0  0  0  0  0
   -0.2650   -0.8580    1.3604 C   0  0  0  0  0  0  0  0  0  0  0  0
    0.8758   -1.0379    2.3611 C   0  0  0  0  0  0  0  0  0  0  0  0
   -3.2877   -1.8316    6.9434 C   0  0  0  0  0  0  0  0  0  0  0  0
   -3.4067   -3.2007    7.0056 C   0  0  0  0  0  0  0  0  0  0  0  0
   -3.0858   -4.1423    5.9299 C   0  0  0  0  0  0  0  0  0  0  0  0
   -2.6093   -3.8868    4.8395 O   0  0  0  0  0  0  0  0  0  0  0  0
   -3.4569   -5.4779    6.4402 C   0  0  0  0  0  0  0  0  0  0  0  0
   -3.3972   -6.7198    5.8359 C   0  0  0  0  0  0  0  0  0  0  0  0
   -2.9379   -6.8576    4.5874 F   0  0  0  0  0  0  0  0  0  0  0  0
   -3.8219   -7.8488    6.5257 C   0  0  0  0  0  0  0  0  0  0  0  0
   -4.3021   -7.7188    7.8168 C   0  0  0  0  0  0  0  0  0  0  0  0
   -4.3691   -6.4811    8.4461 C   0  0  0  0  0  0  0  0  0  0  0  0
   -3.9443   -5.3588    7.7551 C   0  0  0  0  0  0  0  0  0  0  0  0
   -3.9019   -3.9459    8.1413 C   0  0  0  0  0  0  0  0  0  0  0  0
   -4.2536   -3.4573    9.3745 C   0  0  0  0  0  0  0  0  0  0  0  0
   -4.2095   -2.1036    9.7679 C   0  0  0  0  0  0  0  0  0  0  0  0
   -4.2020   -1.0266   10.1690 N   0  0  0  0  0  0  0  0  0  0  0  0
   -4.7038   -4.2536   10.4482 C   0  0  0  0  0  0  0  0  0  0  0  0
   -5.0750   -4.8355   11.3656 N   0  0  0  0  0  0  0  0  0  0  0  0
    1.7521   -0.2989   -7.5753 H   0  0  0  0  0  0  0  0  0  0  0  0
    7.5534    2.0232   -7.4713 H   0  0  0  0  0  0  0  0  0  0  0  0
    8.1429    0.1509  -11.2779 H   0  0  0  0  0  0  0  0  0  0  0  0
    5.7611   -0.4960  -11.3802 H   0  0  0  0  0  0  0  0  0  0  0  0
    3.6512    3.8876   -6.0825 H   0  0  0  0  0  0  0  0  0  0  0  0
    2.8519    3.2016   -7.4968 H   0  0  0  0  0  0  0  0  0  0  0  0
    0.7522    4.4607   -6.8892 H   0  0  0  0  0  0  0  0  0  0  0  0
    2.1262    5.5120   -7.2363 H   0  0  0  0  0  0  0  0  0  0  0  0
    1.6296    5.2403   -5.5683 H   0  0  0  0  0  0  0  0  0  0  0  0
   -2.8762    2.1794    7.1808 H   0  0  0  0  0  0  0  0  0  0  0  0
   -3.0889    0.7113    8.1436 H   0  0  0  0  0  0  0  0  0  0  0  0
   -5.2189    1.9460    7.9590 H   0  0  0  0  0  0  0  0  0  0  0  0
   -5.1357    1.8821    6.1950 H   0  0  0  0  0  0  0  0  0  0  0  0
   -5.3634    0.3980    7.1257 H   0  0  0  0  0  0  0  0  0  0  0  0
   -0.2735   -0.9348   -2.2509 H   0  0  0  0  0  0  0  0  0  0  0  0
   -1.3733   -0.4881   -0.9182 H   0  0  0  0  0  0  0  0  0  0  0  0
   -2.5716    1.0816   -2.4332 H   0  0  0  0  0  0  0  0  0  0  0  0
   -1.5577    0.5496   -3.7801 H   0  0  0  0  0  0  0  0  0  0  0  0
   -2.6414   -0.5938   -2.9909 H   0  0  0  0  0  0  0  0  0  0  0  0
   -1.0030   -1.6546    1.4946 H   0  0  0  0  0  0  0  0  0  0  0  0
    0.1507   -0.9056    0.3561 H   0  0  0  0  0  0  0  0  0  0  0  0
    0.5026   -1.0511    3.3808 H   0  0  0  0  0  0  0  0  0  0  0  0
    1.3780   -1.9814    2.1682 H   0  0  0  0  0  0  0  0  0  0  0  0
    1.5970   -0.2293    2.2605 H   0  0  0  0  0  0  0  0  0  0  0  0
   -3.6091   -1.2937    7.8246 H   0  0  0  0  0  0  0  0  0  0  0  0
   -3.7718   -8.8111    6.0413 H   0  0  0  0  0  0  0  0  0  0  0  0
   -4.6333   -8.5977    8.3479 H   0  0  0  0  0  0  0  0  0  0  0  0
   -4.7496   -6.4136    9.4513 H   0  0  0  0  0  0  0  0  0  0  0  0
  1  2  2  0  0  0  0
  2  3  1  0  0  0  0
  3  4  2  0  0  0  0
  3  5  1  0  0  0  0
  5  6  2  0  0  0  0
  6  7  1  0  0  0  0
  7  8  1  0  0  0  0
  7  9  2  0  0  0  0
  9 10  1  0  0  0  0
 10 11  2  0  0  0  0
 11 12  1  0  0  0  0
 12 13  2  0  0  0  0
 13 14  1  0  0  0  0
 14 15  3  0  0  0  0
 13 16  1  0  0  0  0
 16 17  3  0  0  0  0
  1 18  1  0  0  0  0
 18 19  2  0  0  0  0
 19 20  1  0  0  0  0
 20 21  1  0  0  0  0
 19 22  1  0  0  0  0
 22 23  1  0  0  0  0
 23 24  1  0  0  0  0
 24 25  1  0  0  0  0
 25 26  1  0  0  0  0
 26 27  1  0  0  0  0
 27 28  2  0  0  0  0
 28 29  1  0  0  0  0
 29 30  1  0  0  0  0
 27 31  1  0  0  0  0
 31 32  1  0  0  0  0
 32 33  1  0  0  0  0
 33 34  1  0  0  0  0
 34 35  1  0  0  0  0
 35 36  1  0  0  0  0
 36 37  1  0  0  0  0
 35 38  2  0  0  0  0
 38 39  1  0  0  0  0
 39 40  1  0  0  0  0
 40 41  1  0  0  0  0
 41 42  1  0  0  0  0
 42 43  1  0  0  0  0
 43 44  1  0  0  0  0
 44 45  1  0  0  0  0
 45 46  1  0  0  0  0
 46 47  1  0  0  0  0
 47 48  1  0  0  0  0
 45 49  1  0  0  0  0
 49 50  1  0  0  0  0
 42 51  1  0  0  0  0
 51 52  1  0  0  0  0
 38 53  1  0  0  0  0
 53 54  2  0  0  0  0
 54 55  1  0  0  0  0
 55 56  2  0  0  0  0
 55 57  1  0  0  0  0
 57 58  2  0  0  0  0
 58 59  1  0  0  0  0
 58 60  1  0  0  0  0
 60 61  2  0  0  0  0
 61 62  1  0  0  0  0
 62 63  2  0  0  0  0
 63 64  1  0  0  0  0
 64 65  2  0  0  0  0
 65 66  1  0  0  0  0
 66 67  3  0  0  0  0
 65 68  1  0  0  0  0
 68 69  3  0  0  0  0
 12  2  1  0  0  0  0
 48 18  1  0  0  0  0
 64 54  1  0  0  0  0
 11  5  1  0  0  0  0
 47 22  2  0  0  0  0
 63 57  1  0  0  0  0
 46 24  2  0  0  0  0
 44 25  2  0  0  0  0
 30 26  2  0  0  0  0
 43 31  2  0  0  0  0
 41 32  2  0  0  0  0
 40 34  2  0  0  0  0
  1 70  1  0  0  0  0
  6 71  1  0  0  0  0
  9 72  1  0  0  0  0
 10 73  1  0  0  0  0
 20 74  1  0  0  0  0
 20 75  1  0  0  0  0
 21 76  1  0  0  0  0
 21 77  1  0  0  0  0
 21 78  1  0  0  0  0
 36 79  1  0  0  0  0
 36 80  1  0  0  0  0
 37 81  1  0  0  0  0
 37 82  1  0  0  0  0
 37 83  1  0  0  0  0
 49 84  1  0  0  0  0
 49 85  1  0  0  0  0
 50 86  1  0  0  0  0
 50 87  1  0  0  0  0
 50 88  1  0  0  0  0
 51 89  1  0  0  0  0
 51 90  1  0  0  0  0
 52 91  1  0  0  0  0
 52 92  1  0  0  0  0
 52 93  1  0  0  0  0
 53 94  1  0  0  0  0
 60 95  1  0  0  0  0
 61 96  1  0  0  0  0
 62 97  1  0  0  0  0
M  END
