97

C          4.57760        4.82960       -4.04940
C          5.49110        3.98460       -4.63570
C          5.49120        2.52370       -4.55890
O          4.68080        1.80220       -4.00350
C          6.69110        2.07590       -5.29500
C          7.14350        0.78800       -5.49520
C          8.31620        0.64500       -6.22180
F          8.79860       -0.58980       -6.44110
C          9.01240        1.73130       -6.72940
C          8.54380        3.02030       -6.52130
C          7.37300        3.19740       -5.79860
C          6.63920        4.40420       -5.41430
C          6.99780        5.68440       -5.75270
C          8.13780        6.01170       -6.51700
N          9.04820        6.35140       -7.12850
C          6.29690        6.85880       -5.40720
N          5.78290        7.86060       -5.17720
C          3.45460        4.56470       -3.26220
C          2.64320        5.58180       -2.72370
C          2.80510        7.04740       -2.96040
C          2.15530        7.45740       -4.28510
C          1.60670        5.05300       -1.96840
S          0.30860        5.79850       -1.05340
C         -0.23370        4.22230       -0.59260
C         -1.25900        3.62950        0.16080
C         -2.41180        4.14260        0.80130
C         -3.36900        3.22720        1.36600
N         -4.42820        3.84890        1.85780
S         -4.24060        5.44170        1.64240
N         -2.79950        5.40290        0.90780
C         -3.06570        1.84550        1.40300
C         -3.69950        0.73670        1.98500
S         -5.17250        0.35180        2.80540
C         -4.62520       -1.30900        2.95010
C         -5.20200       -2.44040        3.50660
C         -6.56390       -2.43860        4.11950
C         -7.61870       -2.88070        3.10090
C         -4.36880       -3.56680        3.35610
S         -2.86090       -3.17490        2.52350
C         -3.35500       -1.53170        2.38680
C         -2.83500       -0.35970        1.83720
N         -1.69710        0.02430        1.17190
C         -1.84130        1.36170        0.86550
C         -1.02950        2.22750        0.10360
N          0.05300        1.96820       -0.71210
C          0.54490        3.18190       -1.12330
C          1.59790        3.64770       -1.91220
S          2.89400        2.95260       -2.80710
C          0.26660        0.78240       -1.51940
C         -0.25210        0.98450       -2.94260
C         -0.45050       -0.68740        1.37880
C         -0.08750       -0.74460        2.86220
C         -4.72140       -4.83560        3.81800
C         -4.06900       -6.04480        3.73010
C         -2.78260       -6.28810        3.07830
O         -2.04580       -5.47730        2.54490
C         -2.53490       -7.74070        3.19400
C         -1.46200       -8.46710        2.72020
C         -1.44610       -9.83870        2.94450
Cl        -0.14030      -10.80560        2.38030
C         -2.50520      -10.43040        3.63580
F         -2.48510      -11.75190        3.84690
C         -3.58520       -9.70470        4.11580
C         -3.59940       -8.33740        3.89080
C         -4.56670       -7.30090        4.25230
C         -5.71710       -7.51540        4.96900
C         -6.65400       -6.52930        5.34230
N         -7.45990       -5.78710        5.68960
C         -6.12410       -8.77900        5.44720
N         -6.51360       -9.77530        5.86360
H          4.74790        5.88580       -4.20600
H          6.61260       -0.06540       -5.10470
H          9.92060        1.56000       -7.28540
H          9.09530        3.85510       -6.92050
H          2.31520        7.58070       -2.14330
H          3.85810        7.33170       -2.97140
H          1.09520        7.21480       -4.27760
H          2.26860        8.52720       -4.43390
H          2.62480        6.94290       -5.12010
H         -6.78960       -1.42150        4.44580
H         -6.60430       -3.09400        4.99070
H         -7.62190       -2.21020        2.24460
H         -7.41770       -3.89050        2.75080
H         -8.60240       -2.86510        3.56090
H         -0.26910       -0.05430       -1.07580
H          1.33880        0.56550       -1.54440
H         -0.13310        0.06190       -3.50340
H         -1.30720        1.25010       -2.92490
H          0.29970        1.76890       -3.45210
H          0.34760       -0.16790        0.85180
H         -0.55640       -1.70310        0.98540
H          0.88040       -1.22400        2.97710
H         -0.82140       -1.31570        3.42330
H         -0.03170        0.26040        3.27580
H         -5.67990       -4.85600        4.31790
H         -0.65910       -7.98090        2.18960
H         -4.36860      -10.22590        4.64110
