
  xtb     02012218543D
 energy: -185.953896883487 gnorm: 0.000926604075 xtb: 6.4.1 (unknown)
100111  0     0  0            999 V2000
    5.5491   -5.8727    0.2650 C   0  0  0  0  0  0  0  0  0  0  0  0
    6.6599   -5.3457   -0.3527 C   0  0  0  0  0  0  0  0  0  0  0  0
    6.7947   -3.9862   -0.8752 C   0  0  0  0  0  0  0  0  0  0  0  0
    5.9570   -3.1007   -0.8862 O   0  0  0  0  0  0  0  0  0  0  0  0
    8.1736   -3.8829   -1.3949 C   0  0  0  0  0  0  0  0  0  0  0  0
    8.7921   -2.7955   -1.9762 C   0  0  0  0  0  0  0  0  0  0  0  0
   10.1092   -2.9668   -2.3758 C   0  0  0  0  0  0  0  0  0  0  0  0
   10.7546   -1.9360   -2.9466 F   0  0  0  0  0  0  0  0  0  0  0  0
   10.7862   -4.1650   -2.2075 C   0  0  0  0  0  0  0  0  0  0  0  0
   10.1505   -5.2498   -1.6214 C   0  0  0  0  0  0  0  0  0  0  0  0
    8.8329   -5.1106   -1.2101 C   0  0  0  0  0  0  0  0  0  0  0  0
    7.9090   -6.0476   -0.5689 C   0  0  0  0  0  0  0  0  0  0  0  0
    8.2035   -7.3491   -0.2505 C   0  0  0  0  0  0  0  0  0  0  0  0
    9.4509   -7.9612   -0.4952 C   0  0  0  0  0  0  0  0  0  0  0  0
   10.4375   -8.5236   -0.6638 N   0  0  0  0  0  0  0  0  0  0  0  0
    7.3259   -8.2716    0.3559 C   0  0  0  0  0  0  0  0  0  0  0  0
    6.6766   -9.0845    0.8446 N   0  0  0  0  0  0  0  0  0  0  0  0
    4.3008   -5.3121    0.5425 C   0  0  0  0  0  0  0  0  0  0  0  0
    3.2783   -6.0124    1.2101 C   0  0  0  0  0  0  0  0  0  0  0  0
    3.3453   -7.4337    1.6639 C   0  0  0  0  0  0  0  0  0  0  0  0
    3.0152   -8.3887    0.5134 C   0  0  0  0  0  0  0  0  0  0  0  0
    2.1434   -5.2288    1.3607 C   0  0  0  0  0  0  0  0  0  0  0  0
    0.5874   -5.5372    2.1102 S   0  0  0  0  0  0  0  0  0  0  0  0
    0.1097   -3.9253    1.7047 C   0  0  0  0  0  0  0  0  0  0  0  0
   -0.9841   -3.0689    1.8773 C   0  0  0  0  0  0  0  0  0  0  0  0
   -2.1867   -3.2417    2.5982 C   0  0  0  0  0  0  0  0  0  0  0  0
   -3.0843   -2.1322    2.7212 C   0  0  0  0  0  0  0  0  0  0  0  0
   -4.1402   -2.4152    3.4676 N   0  0  0  0  0  0  0  0  0  0  0  0
   -4.0166   -3.9490    3.9694 S   0  0  0  0  0  0  0  0  0  0  0  0
   -2.6105   -4.3106    3.2539 N   0  0  0  0  0  0  0  0  0  0  0  0
   -2.7897   -0.9370    2.0282 C   0  0  0  0  0  0  0  0  0  0  0  0
   -3.5282    0.2454    1.8888 C   0  0  0  0  0  0  0  0  0  0  0  0
   -4.9956    0.9499    2.4696 S   0  0  0  0  0  0  0  0  0  0  0  0
   -4.6768    2.3610    1.4863 C   0  0  0  0  0  0  0  0  0  0  0  0
   -5.3770    3.5558    1.2987 C   0  0  0  0  0  0  0  0  0  0  0  0
   -6.6773    3.8563    1.9678 C   0  0  0  0  0  0  0  0  0  0  0  0
   -7.8438    3.2995    1.1470 C   0  0  0  0  0  0  0  0  0  0  0  0
   -4.7133    4.4020    0.4175 C   0  0  0  0  0  0  0  0  0  0  0  0
   -3.2249    3.6793   -0.1976 S   0  0  0  0  0  0  0  0  0  0  0  0
   -3.4887    2.2642    0.7489 C   0  0  0  0  0  0  0  0  0  0  0  0
   -2.8285    1.0569    0.9872 C   0  0  0  0  0  0  0  0  0  0  0  0
   -1.6760    0.4352    0.5917 N   0  0  0  0  0  0  0  0  0  0  0  0
   -1.6171   -0.7933    1.2294 C   0  0  0  0  0  0  0  0  0  0  0  0
   -0.6500   -1.8336    1.2440 C   0  0  0  0  0  0  0  0  0  0  0  0
    0.6319   -1.9414    0.7355 N   0  0  0  0  0  0  0  0  0  0  0  0
    1.0918   -3.1989    1.0194 C   0  0  0  0  0  0  0  0  0  0  0  0
    2.2639   -3.9341    0.8242 C   0  0  0  0  0  0  0  0  0  0  0  0
    3.8124   -3.6692    0.1176 S   0  0  0  0  0  0  0  0  0  0  0  0
    1.5731   -0.9169    0.3377 C   0  0  0  0  0  0  0  0  0  0  0  0
    1.8159    0.0857    1.4627 C   0  0  0  0  0  0  0  0  0  0  0  0
   -0.9699    0.9205   -0.5733 C   0  0  0  0  0  0  0  0  0  0  0  0
   -1.1439   -0.0188   -1.7641 C   0  0  0  0  0  0  0  0  0  0  0  0
   -5.1753    5.6443   -0.0649 C   0  0  0  0  0  0  0  0  0  0  0  0
   -4.4875    6.6191   -0.7247 C   0  0  0  0  0  0  0  0  0  0  0  0
   -5.2175    7.5836   -1.5876 C   0  0  0  0  0  0  0  0  0  0  0  0
   -6.4117    7.7773   -1.6139 O   0  0  0  0  0  0  0  0  0  0  0  0
   -4.1764    8.1960   -2.4409 C   0  0  0  0  0  0  0  0  0  0  0  0
   -4.3272    9.0722   -3.4980 C   0  0  0  0  0  0  0  0  0  0  0  0
   -3.2032    9.5086   -4.1911 C   0  0  0  0  0  0  0  0  0  0  0  0
   -3.2923   10.4546   -5.3433 C   0  0  0  0  0  0  0  0  0  0  0  0
   -1.9592    9.0295   -3.7746 C   0  0  0  0  0  0  0  0  0  0  0  0
   -0.8685    9.4351   -4.4514 F   0  0  0  0  0  0  0  0  0  0  0  0
   -1.7769    8.1610   -2.7109 C   0  0  0  0  0  0  0  0  0  0  0  0
   -2.9093    7.7397   -2.0348 C   0  0  0  0  0  0  0  0  0  0  0  0
   -3.0727    6.8787   -0.8672 C   0  0  0  0  0  0  0  0  0  0  0  0
   -2.1074    6.6200    0.0714 C   0  0  0  0  0  0  0  0  0  0  0  0
   -2.3998    6.0672    1.3358 C   0  0  0  0  0  0  0  0  0  0  0  0
   -2.6209    5.6729    2.3910 N   0  0  0  0  0  0  0  0  0  0  0  0
   -0.7483    6.9519   -0.0866 C   0  0  0  0  0  0  0  0  0  0  0  0
    0.3736    7.1752   -0.1824 N   0  0  0  0  0  0  0  0  0  0  0  0
    5.6423   -6.8945    0.6063 H   0  0  0  0  0  0  0  0  0  0  0  0
    8.2780   -1.8575   -2.1126 H   0  0  0  0  0  0  0  0  0  0  0  0
   11.8105   -4.2408   -2.5367 H   0  0  0  0  0  0  0  0  0  0  0  0
   10.6888   -6.1743   -1.4957 H   0  0  0  0  0  0  0  0  0  0  0  0
    2.6128   -7.5710    2.4618 H   0  0  0  0  0  0  0  0  0  0  0  0
    4.3325   -7.6740    2.0610 H   0  0  0  0  0  0  0  0  0  0  0  0
    3.7306   -8.2775   -0.2979 H   0  0  0  0  0  0  0  0  0  0  0  0
    2.0180   -8.1876    0.1289 H   0  0  0  0  0  0  0  0  0  0  0  0
    3.0541   -9.4150    0.8663 H   0  0  0  0  0  0  0  0  0  0  0  0
   -6.6755    3.3845    2.9522 H   0  0  0  0  0  0  0  0  0  0  0  0
   -6.7945    4.9316    2.1015 H   0  0  0  0  0  0  0  0  0  0  0  0
   -7.7429    2.2232    1.0290 H   0  0  0  0  0  0  0  0  0  0  0  0
   -8.7837    3.5062    1.6513 H   0  0  0  0  0  0  0  0  0  0  0  0
   -7.8724    3.7551    0.1597 H   0  0  0  0  0  0  0  0  0  0  0  0
    2.5095   -1.4296    0.1056 H   0  0  0  0  0  0  0  0  0  0  0  0
    1.2431   -0.4259   -0.5776 H   0  0  0  0  0  0  0  0  0  0  0  0
    0.8926    0.5717    1.7696 H   0  0  0  0  0  0  0  0  0  0  0  0
    2.2345   -0.4230    2.3279 H   0  0  0  0  0  0  0  0  0  0  0  0
    2.5209    0.8445    1.1349 H   0  0  0  0  0  0  0  0  0  0  0  0
    0.0817    1.0914   -0.3435 H   0  0  0  0  0  0  0  0  0  0  0  0
   -1.4049    1.8931   -0.8161 H   0  0  0  0  0  0  0  0  0  0  0  0
   -0.5910    0.3612   -2.6187 H   0  0  0  0  0  0  0  0  0  0  0  0
   -2.1954   -0.0857   -2.0343 H   0  0  0  0  0  0  0  0  0  0  0  0
   -0.7897   -1.0205   -1.5322 H   0  0  0  0  0  0  0  0  0  0  0  0
   -6.2454    5.8103    0.0074 H   0  0  0  0  0  0  0  0  0  0  0  0
   -5.3127    9.4120   -3.7777 H   0  0  0  0  0  0  0  0  0  0  0  0
   -2.7343   11.3648   -5.1256 H   0  0  0  0  0  0  0  0  0  0  0  0
   -4.3261   10.7129   -5.5526 H   0  0  0  0  0  0  0  0  0  0  0  0
   -2.8477   10.0079   -6.2321 H   0  0  0  0  0  0  0  0  0  0  0  0
   -0.7828    7.8353   -2.4509 H   0  0  0  0  0  0  0  0  0  0  0  0
  1  2  2  0  0  0  0
  2  3  1  0  0  0  0
  3  4  2  0  0  0  0
  3  5  1  0  0  0  0
  5  6  2  0  0  0  0
  6  7  1  0  0  0  0
  7  8  1  0  0  0  0
  7  9  2  0  0  0  0
  9 10  1  0  0  0  0
 10 11  2  0  0  0  0
 11 12  1  0  0  0  0
 12 13  2  0  0  0  0
 13 14  1  0  0  0  0
 14 15  3  0  0  0  0
 13 16  1  0  0  0  0
 16 17  3  0  0  0  0
  1 18  1  0  0  0  0
 18 19  2  0  0  0  0
 19 20  1  0  0  0  0
 20 21  1  0  0  0  0
 19 22  1  0  0  0  0
 22 23  1  0  0  0  0
 23 24  1  0  0  0  0
 24 25  1  0  0  0  0
 25 26  1  0  0  0  0
 26 27  1  0  0  0  0
 27 28  2  0  0  0  0
 28 29  1  0  0  0  0
 29 30  1  0  0  0  0
 27 31  1  0  0  0  0
 31 32  1  0  0  0  0
 32 33  1  0  0  0  0
 33 34  1  0  0  0  0
 34 35  1  0  0  0  0
 35 36  1  0  0  0  0
 36 37  1  0  0  0  0
 35 38  2  0  0  0  0
 38 39  1  0  0  0  0
 39 40  1  0  0  0  0
 40 41  1  0  0  0  0
 41 42  1  0  0  0  0
 42 43  1  0  0  0  0
 43 44  1  0  0  0  0
 44 45  1  0  0  0  0
 45 46  1  0  0  0  0
 46 47  1  0  0  0  0
 47 48  1  0  0  0  0
 45 49  1  0  0  0  0
 49 50  1  0  0  0  0
 42 51  1  0  0  0  0
 51 52  1  0  0  0  0
 38 53  1  0  0  0  0
 53 54  2  0  0  0  0
 54 55  1  0  0  0  0
 55 56  2  0  0  0  0
 55 57  1  0  0  0  0
 57 58  2  0  0  0  0
 58 59  1  0  0  0  0
 59 60  1  0  0  0  0
 59 61  2  0  0  0  0
 61 62  1  0  0  0  0
 61 63  1  0  0  0  0
 63 64  2  0  0  0  0
 64 65  1  0  0  0  0
 65 66  2  0  0  0  0
 66 67  1  0  0  0  0
 67 68  3  0  0  0  0
 66 69  1  0  0  0  0
 69 70  3  0  0  0  0
 12  2  1  0  0  0  0
 48 18  1  0  0  0  0
 65 54  1  0  0  0  0
 11  5  1  0  0  0  0
 47 22  2  0  0  0  0
 64 57  1  0  0  0  0
 46 24  2  0  0  0  0
 44 25  2  0  0  0  0
 30 26  2  0  0  0  0
 43 31  2  0  0  0  0
 41 32  2  0  0  0  0
 40 34  2  0  0  0  0
  1 71  1  0  0  0  0
  6 72  1  0  0  0  0
  9 73  1  0  0  0  0
 10 74  1  0  0  0  0
 20 75  1  0  0  0  0
 20 76  1  0  0  0  0
 21 77  1  0  0  0  0
 21 78  1  0  0  0  0
 21 79  1  0  0  0  0
 36 80  1  0  0  0  0
 36 81  1  0  0  0  0
 37 82  1  0  0  0  0
 37 83  1  0  0  0  0
 37 84  1  0  0  0  0
 49 85  1  0  0  0  0
 49 86  1  0  0  0  0
 50 87  1  0  0  0  0
 50 88  1  0  0  0  0
 50 89  1  0  0  0  0
 51 90  1  0  0  0  0
 51 91  1  0  0  0  0
 52 92  1  0  0  0  0
 52 93  1  0  0  0  0
 52 94  1  0  0  0  0
 53 95  1  0  0  0  0
 58 96  1  0  0  0  0
 60 97  1  0  0  0  0
 60 98  1  0  0  0  0
 60 99  1  0  0  0  0
 63100  1  0  0  0  0
M  END
