
  xtb     02012218263D
 energy: -182.131903616608 gnorm: 0.000633318417 xtb: 6.4.1 (unknown)
 97108  0     0  0            999 V2000
    4.8985   -6.7933    1.8936 C   0  0  0  0  0  0  0  0  0  0  0  0
    4.1411   -7.9394    1.9694 C   0  0  0  0  0  0  0  0  0  0  0  0
    2.7076   -8.0465    1.7015 C   0  0  0  0  0  0  0  0  0  0  0  0
    1.9357   -7.1583    1.3827 O   0  0  0  0  0  0  0  0  0  0  0  0
    2.3618   -9.4700    1.8915 C   0  0  0  0  0  0  0  0  0  0  0  0
    1.1337  -10.0812    1.7456 C   0  0  0  0  0  0  0  0  0  0  0  0
    1.0856  -11.4477    1.9787 C   0  0  0  0  0  0  0  0  0  0  0  0
   -0.0882  -12.0884    1.8476 F   0  0  0  0  0  0  0  0  0  0  0  0
    2.2061  -12.1791    2.3413 C   0  0  0  0  0  0  0  0  0  0  0  0
    3.4341  -11.5499    2.4850 C   0  0  0  0  0  0  0  0  0  0  0  0
    3.5158  -10.1837    2.2589 C   0  0  0  0  0  0  0  0  0  0  0  0
    4.6434   -9.2524    2.3208 C   0  0  0  0  0  0  0  0  0  0  0  0
    5.9295   -9.5951    2.6536 C   0  0  0  0  0  0  0  0  0  0  0  0
    6.3384  -10.9027    2.9907 C   0  0  0  0  0  0  0  0  0  0  0  0
    6.7408  -11.9391    3.2767 N   0  0  0  0  0  0  0  0  0  0  0  0
    7.0309   -8.7164    2.7131 C   0  0  0  0  0  0  0  0  0  0  0  0
    7.9781   -8.0691    2.7837 N   0  0  0  0  0  0  0  0  0  0  0  0
    4.5513   -5.4842    1.5549 C   0  0  0  0  0  0  0  0  0  0  0  0
    5.4844   -4.4308    1.5196 C   0  0  0  0  0  0  0  0  0  0  0  0
    6.9283   -4.5295    1.8877 C   0  0  0  0  0  0  0  0  0  0  0  0
    7.1123   -4.4189    3.4040 C   0  0  0  0  0  0  0  0  0  0  0  0
    4.8859   -3.2381    1.1414 C   0  0  0  0  0  0  0  0  0  0  0  0
    5.5257   -1.6208    0.9117 S   0  0  0  0  0  0  0  0  0  0  0  0
    3.9428   -1.0976    0.4551 C   0  0  0  0  0  0  0  0  0  0  0  0
    3.2886    0.0761    0.0648 C   0  0  0  0  0  0  0  0  0  0  0  0
    3.7692    1.3998   -0.0414 C   0  0  0  0  0  0  0  0  0  0  0  0
    2.8502    2.4406   -0.3885 C   0  0  0  0  0  0  0  0  0  0  0  0
    3.4216    3.6344   -0.4140 N   0  0  0  0  0  0  0  0  0  0  0  0
    4.9856    3.4608   -0.0338 S   0  0  0  0  0  0  0  0  0  0  0  0
    4.9928    1.8557    0.1759 N   0  0  0  0  0  0  0  0  0  0  0  0
    1.5169    2.0935   -0.6983 C   0  0  0  0  0  0  0  0  0  0  0  0
    0.4611    2.8839   -1.1674 C   0  0  0  0  0  0  0  0  0  0  0  0
    0.1351    4.5366   -1.5460 S   0  0  0  0  0  0  0  0  0  0  0  0
   -1.4727    4.0796   -2.0625 C   0  0  0  0  0  0  0  0  0  0  0  0
   -2.5657    4.8228   -2.5252 C   0  0  0  0  0  0  0  0  0  0  0  0
   -2.4987    6.2771   -2.8614 C   0  0  0  0  0  0  0  0  0  0  0  0
   -1.3307    6.5951   -3.7954 C   0  0  0  0  0  0  0  0  0  0  0  0
   -3.6704    4.0044   -2.7473 C   0  0  0  0  0  0  0  0  0  0  0  0
   -3.3094    2.3043   -2.4529 S   0  0  0  0  0  0  0  0  0  0  0  0
   -1.7175    2.7039   -1.9383 C   0  0  0  0  0  0  0  0  0  0  0  0
   -0.6109    2.0226   -1.4229 C   0  0  0  0  0  0  0  0  0  0  0  0
   -0.2653    0.7379   -1.1026 N   0  0  0  0  0  0  0  0  0  0  0  0
    1.0438    0.7482   -0.6485 C   0  0  0  0  0  0  0  0  0  0  0  0
    1.9218   -0.2641   -0.1727 C   0  0  0  0  0  0  0  0  0  0  0  0
    1.7615   -1.6113    0.1025 N   0  0  0  0  0  0  0  0  0  0  0  0
    2.9781   -2.1119    0.4824 C   0  0  0  0  0  0  0  0  0  0  0  0
    3.5079   -3.3433    0.8777 C   0  0  0  0  0  0  0  0  0  0  0  0
    2.9287   -4.9494    1.1076 S   0  0  0  0  0  0  0  0  0  0  0  0
    0.5692   -2.3826    0.3795 C   0  0  0  0  0  0  0  0  0  0  0  0
   -0.2077   -1.8020    1.5586 C   0  0  0  0  0  0  0  0  0  0  0  0
   -1.0955   -0.3523   -1.5627 C   0  0  0  0  0  0  0  0  0  0  0  0
   -0.4637   -1.0718   -2.7520 C   0  0  0  0  0  0  0  0  0  0  0  0
   -4.9744    4.2949   -3.1970 C   0  0  0  0  0  0  0  0  0  0  0  0
   -5.7279    5.4269   -3.0642 C   0  0  0  0  0  0  0  0  0  0  0  0
   -6.8904    5.6242   -3.9674 C   0  0  0  0  0  0  0  0  0  0  0  0
   -7.3720    4.8128   -4.7233 O   0  0  0  0  0  0  0  0  0  0  0  0
   -7.2920    7.0369   -3.7763 C   0  0  0  0  0  0  0  0  0  0  0  0
   -8.2499    7.7591   -4.4566 C   0  0  0  0  0  0  0  0  0  0  0  0
   -8.4154    9.0912   -4.0999 C   0  0  0  0  0  0  0  0  0  0  0  0
   -9.7179   10.1385   -5.0034 Br  0  0  0  0  0  0  0  0  0  0  0  0
   -7.6497    9.6796   -3.1021 C   0  0  0  0  0  0  0  0  0  0  0  0
   -6.6953    8.9427   -2.4167 C   0  0  0  0  0  0  0  0  0  0  0  0
   -6.5155    7.6096   -2.7526 C   0  0  0  0  0  0  0  0  0  0  0  0
   -5.6272    6.5839   -2.2059 C   0  0  0  0  0  0  0  0  0  0  0  0
   -5.0139    6.6442   -0.9797 C   0  0  0  0  0  0  0  0  0  0  0  0
   -4.3888    5.5433   -0.3626 C   0  0  0  0  0  0  0  0  0  0  0  0
   -3.9065    4.6665    0.1999 N   0  0  0  0  0  0  0  0  0  0  0  0
   -5.0134    7.7877   -0.1562 C   0  0  0  0  0  0  0  0  0  0  0  0
   -4.9634    8.6990    0.5404 N   0  0  0  0  0  0  0  0  0  0  0  0
    5.9480   -6.9079    2.1272 H   0  0  0  0  0  0  0  0  0  0  0  0
    0.2546   -9.5248    1.4630 H   0  0  0  0  0  0  0  0  0  0  0  0
    2.1098  -13.2402    2.5088 H   0  0  0  0  0  0  0  0  0  0  0  0
    4.2967  -12.1305    2.7665 H   0  0  0  0  0  0  0  0  0  0  0  0
    7.3606   -5.4684    1.5388 H   0  0  0  0  0  0  0  0  0  0  0  0
    7.4598   -3.7075    1.4040 H   0  0  0  0  0  0  0  0  0  0  0  0
    6.5911   -5.2246    3.9155 H   0  0  0  0  0  0  0  0  0  0  0  0
    6.7242   -3.4689    3.7639 H   0  0  0  0  0  0  0  0  0  0  0  0
    8.1681   -4.4817    3.6507 H   0  0  0  0  0  0  0  0  0  0  0  0
   -2.3883    6.8550   -1.9379 H   0  0  0  0  0  0  0  0  0  0  0  0
   -3.4269    6.5822   -3.3465 H   0  0  0  0  0  0  0  0  0  0  0  0
   -1.3627    7.6456   -4.0729 H   0  0  0  0  0  0  0  0  0  0  0  0
   -1.3983    5.9960   -4.7009 H   0  0  0  0  0  0  0  0  0  0  0  0
   -0.3770    6.3962   -3.3157 H   0  0  0  0  0  0  0  0  0  0  0  0
   -0.0508   -2.4677   -0.5123 H   0  0  0  0  0  0  0  0  0  0  0  0
    0.9045   -3.3912    0.6326 H   0  0  0  0  0  0  0  0  0  0  0  0
   -1.1066   -2.3867    1.7332 H   0  0  0  0  0  0  0  0  0  0  0  0
    0.4042   -1.8345    2.4570 H   0  0  0  0  0  0  0  0  0  0  0  0
   -0.4886   -0.7666    1.3785 H   0  0  0  0  0  0  0  0  0  0  0  0
   -2.0448    0.0907   -1.8739 H   0  0  0  0  0  0  0  0  0  0  0  0
   -1.3165   -1.0379   -0.7455 H   0  0  0  0  0  0  0  0  0  0  0  0
   -0.3555   -0.3836   -3.5871 H   0  0  0  0  0  0  0  0  0  0  0  0
   -1.0970   -1.8973   -3.0651 H   0  0  0  0  0  0  0  0  0  0  0  0
    0.5219   -1.4580   -2.5019 H   0  0  0  0  0  0  0  0  0  0  0  0
   -5.4566    3.5054   -3.7680 H   0  0  0  0  0  0  0  0  0  0  0  0
   -8.8413    7.2990   -5.2328 H   0  0  0  0  0  0  0  0  0  0  0  0
   -7.8004   10.7200   -2.8584 H   0  0  0  0  0  0  0  0  0  0  0  0
   -6.1067    9.4173   -1.6486 H   0  0  0  0  0  0  0  0  0  0  0  0
  1  2  2  0  0  0  0
  2  3  1  0  0  0  0
  3  4  2  0  0  0  0
  3  5  1  0  0  0  0
  5  6  2  0  0  0  0
  6  7  1  0  0  0  0
  7  8  1  0  0  0  0
  7  9  2  0  0  0  0
  9 10  1  0  0  0  0
 10 11  2  0  0  0  0
 11 12  1  0  0  0  0
 12 13  2  0  0  0  0
 13 14  1  0  0  0  0
 14 15  3  0  0  0  0
 13 16  1  0  0  0  0
 16 17  3  0  0  0  0
  1 18  1  0  0  0  0
 18 19  2  0  0  0  0
 19 20  1  0  0  0  0
 20 21  1  0  0  0  0
 19 22  1  0  0  0  0
 22 23  1  0  0  0  0
 23 24  1  0  0  0  0
 24 25  1  0  0  0  0
 25 26  1  0  0  0  0
 26 27  1  0  0  0  0
 27 28  2  0  0  0  0
 28 29  1  0  0  0  0
 29 30  1  0  0  0  0
 27 31  1  0  0  0  0
 31 32  1  0  0  0  0
 32 33  1  0  0  0  0
 33 34  1  0  0  0  0
 34 35  1  0  0  0  0
 35 36  1  0  0  0  0
 36 37  1  0  0  0  0
 35 38  2  0  0  0  0
 38 39  1  0  0  0  0
 39 40  1  0  0  0  0
 40 41  1  0  0  0  0
 41 42  1  0  0  0  0
 42 43  1  0  0  0  0
 43 44  1  0  0  0  0
 44 45  1  0  0  0  0
 45 46  1  0  0  0  0
 46 47  1  0  0  0  0
 47 48  1  0  0  0  0
 45 49  1  0  0  0  0
 49 50  1  0  0  0  0
 42 51  1  0  0  0  0
 51 52  1  0  0  0  0
 38 53  1  0  0  0  0
 53 54  2  0  0  0  0
 54 55  1  0  0  0  0
 55 56  2  0  0  0  0
 55 57  1  0  0  0  0
 57 58  2  0  0  0  0
 58 59  1  0  0  0  0
 59 60  1  0  0  0  0
 59 61  2  0  0  0  0
 61 62  1  0  0  0  0
 62 63  2  0  0  0  0
 63 64  1  0  0  0  0
 64 65  2  0  0  0  0
 65 66  1  0  0  0  0
 66 67  3  0  0  0  0
 65 68  1  0  0  0  0
 68 69  3  0  0  0  0
 12  2  1  0  0  0  0
 48 18  1  0  0  0  0
 64 54  1  0  0  0  0
 11  5  1  0  0  0  0
 47 22  2  0  0  0  0
 63 57  1  0  0  0  0
 46 24  2  0  0  0  0
 44 25  2  0  0  0  0
 30 26  2  0  0  0  0
 43 31  2  0  0  0  0
 41 32  2  0  0  0  0
 40 34  2  0  0  0  0
  1 70  1  0  0  0  0
  6 71  1  0  0  0  0
  9 72  1  0  0  0  0
 10 73  1  0  0  0  0
 20 74  1  0  0  0  0
 20 75  1  0  0  0  0
 21 76  1  0  0  0  0
 21 77  1  0  0  0  0
 21 78  1  0  0  0  0
 36 79  1  0  0  0  0
 36 80  1  0  0  0  0
 37 81  1  0  0  0  0
 37 82  1  0  0  0  0
 37 83  1  0  0  0  0
 49 84  1  0  0  0  0
 49 85  1  0  0  0  0
 50 86  1  0  0  0  0
 50 87  1  0  0  0  0
 50 88  1  0  0  0  0
 51 89  1  0  0  0  0
 51 90  1  0  0  0  0
 52 91  1  0  0  0  0
 52 92  1  0  0  0  0
 52 93  1  0  0  0  0
 53 94  1  0  0  0  0
 58 95  1  0  0  0  0
 61 96  1  0  0  0  0
 62 97  1  0  0  0  0
M  END
