
  xtb     02012215553D
 energy: -184.355504997473 gnorm: 0.000550150984 xtb: 6.4.1 (unknown)
 90100  0     0  0            999 V2000
   -0.3681    0.9686    6.4404 C   0  0  0  0  0  0  0  0  0  0  0  0
    0.6121    0.9062    7.3954 C   0  0  0  0  0  0  0  0  0  0  0  0
    2.0191    0.5489    7.1702 C   0  0  0  0  0  0  0  0  0  0  0  0
    2.5579    0.2545    6.1192 O   0  0  0  0  0  0  0  0  0  0  0  0
    2.6777    0.6296    8.4874 C   0  0  0  0  0  0  0  0  0  0  0  0
    3.9985    0.3785    8.7994 C   0  0  0  0  0  0  0  0  0  0  0  0
    4.3650    0.5316   10.1281 C   0  0  0  0  0  0  0  0  0  0  0  0
    5.6384    0.2999   10.4819 F   0  0  0  0  0  0  0  0  0  0  0  0
    3.4613    0.9171   11.1076 C   0  0  0  0  0  0  0  0  0  0  0  0
    2.1369    1.1638   10.7790 C   0  0  0  0  0  0  0  0  0  0  0  0
    1.7375    1.0190    9.4576 C   0  0  0  0  0  0  0  0  0  0  0  0
    0.4384    1.1979    8.8098 C   0  0  0  0  0  0  0  0  0  0  0  0
   -0.7156    1.5665    9.4477 C   0  0  0  0  0  0  0  0  0  0  0  0
   -1.9812    1.7346    8.8454 C   0  0  0  0  0  0  0  0  0  0  0  0
   -3.0448    1.8918    8.4418 N   0  0  0  0  0  0  0  0  0  0  0  0
   -0.8050    1.8349   10.8314 C   0  0  0  0  0  0  0  0  0  0  0  0
   -0.9512    2.0678   11.9456 N   0  0  0  0  0  0  0  0  0  0  0  0
   -0.3150    0.6935    5.0628 C   0  0  0  0  0  0  0  0  0  0  0  0
   -1.4331    0.8154    4.2354 C   0  0  0  0  0  0  0  0  0  0  0  0
   -1.1492    0.4788    2.9223 C   0  0  0  0  0  0  0  0  0  0  0  0
   -2.0711    0.4654    1.4441 S   0  0  0  0  0  0  0  0  0  0  0  0
   -0.6477   -0.0375    0.5502 C   0  0  0  0  0  0  0  0  0  0  0  0
   -0.5978   -0.2497   -0.8204 C   0  0  0  0  0  0  0  0  0  0  0  0
   -1.7617   -0.1177   -1.6797 C   0  0  0  0  0  0  0  0  0  0  0  0
   -2.2285   -1.0320   -2.5801 C   0  0  0  0  0  0  0  0  0  0  0  0
   -3.3726   -0.5754   -3.2670 C   0  0  0  0  0  0  0  0  0  0  0  0
   -4.1668   -1.5259   -4.4620 Cl  0  0  0  0  0  0  0  0  0  0  0  0
   -3.7890    0.6735   -2.9030 C   0  0  0  0  0  0  0  0  0  0  0  0
   -4.9454    1.4505   -3.4303 C   0  0  0  0  0  0  0  0  0  0  0  0
   -4.6902    1.9562   -4.8517 C   0  0  0  0  0  0  0  0  0  0  0  0
   -2.7466    1.3147   -1.6831 S   0  0  0  0  0  0  0  0  0  0  0  0
    0.6528   -0.6020   -1.3619 C   0  0  0  0  0  0  0  0  0  0  0  0
    1.7884   -0.7751   -0.5276 C   0  0  0  0  0  0  0  0  0  0  0  0
    1.7201   -0.6252    0.8473 C   0  0  0  0  0  0  0  0  0  0  0  0
    2.8445   -0.8498    1.7452 C   0  0  0  0  0  0  0  0  0  0  0  0
    4.2524    0.1666    1.7265 S   0  0  0  0  0  0  0  0  0  0  0  0
    4.9235   -0.6400    3.1001 C   0  0  0  0  0  0  0  0  0  0  0  0
    6.1684   -0.1560    3.7552 C   0  0  0  0  0  0  0  0  0  0  0  0
    5.8312    0.9631    4.7452 C   0  0  0  0  0  0  0  0  0  0  0  0
    4.0933   -1.6406    3.5134 C   0  0  0  0  0  0  0  0  0  0  0  0
    2.9116   -1.7658    2.7520 C   0  0  0  0  0  0  0  0  0  0  0  0
    4.4301   -2.6497    4.8599 Cl  0  0  0  0  0  0  0  0  0  0  0  0
    0.4855   -0.2246    1.3818 C   0  0  0  0  0  0  0  0  0  0  0  0
    0.1785    0.0852    2.7286 C   0  0  0  0  0  0  0  0  0  0  0  0
    1.0982    0.1474    4.1745 S   0  0  0  0  0  0  0  0  0  0  0  0
    3.2446   -1.1755   -1.4154 S   0  0  0  0  0  0  0  0  0  0  0  0
    2.3712   -1.0623   -2.9119 C   0  0  0  0  0  0  0  0  0  0  0  0
    2.7366   -1.1843   -4.2529 C   0  0  0  0  0  0  0  0  0  0  0  0
    1.6743   -0.9392   -5.1000 C   0  0  0  0  0  0  0  0  0  0  0  0
    0.1896   -0.6278   -4.2110 S   0  0  0  0  0  0  0  0  0  0  0  0
    1.0217   -0.7716   -2.7163 C   0  0  0  0  0  0  0  0  0  0  0  0
    1.6703   -1.0089   -6.5163 C   0  0  0  0  0  0  0  0  0  0  0  0
    0.7610   -0.4620   -7.3655 C   0  0  0  0  0  0  0  0  0  0  0  0
    0.5773   -1.0140   -8.7356 C   0  0  0  0  0  0  0  0  0  0  0  0
    1.3293   -1.7414   -9.3366 O   0  0  0  0  0  0  0  0  0  0  0  0
   -0.7584   -0.5288   -9.1586 C   0  0  0  0  0  0  0  0  0  0  0  0
   -1.4772   -0.8618  -10.2892 C   0  0  0  0  0  0  0  0  0  0  0  0
   -2.7370   -0.2992  -10.4605 C   0  0  0  0  0  0  0  0  0  0  0  0
   -3.6836   -0.6742  -11.8450 Cl  0  0  0  0  0  0  0  0  0  0  0  0
   -3.2359    0.5791   -9.4935 C   0  0  0  0  0  0  0  0  0  0  0  0
   -4.4547    1.1031   -9.6598 F   0  0  0  0  0  0  0  0  0  0  0  0
   -2.5166    0.9298   -8.3621 C   0  0  0  0  0  0  0  0  0  0  0  0
   -1.2620    0.3664   -8.1961 C   0  0  0  0  0  0  0  0  0  0  0  0
   -0.2586    0.5487   -7.1540 C   0  0  0  0  0  0  0  0  0  0  0  0
   -0.1554    1.6339   -6.3267 C   0  0  0  0  0  0  0  0  0  0  0  0
    0.9905    1.8978   -5.5445 C   0  0  0  0  0  0  0  0  0  0  0  0
    1.9246    2.1639   -4.9338 N   0  0  0  0  0  0  0  0  0  0  0  0
   -1.1413    2.6324   -6.2097 C   0  0  0  0  0  0  0  0  0  0  0  0
   -1.9274    3.4542   -6.0540 N   0  0  0  0  0  0  0  0  0  0  0  0
   -1.3542    1.2715    6.7711 H   0  0  0  0  0  0  0  0  0  0  0  0
    4.7114    0.0751    8.0493 H   0  0  0  0  0  0  0  0  0  0  0  0
    3.8032    1.0210   12.1253 H   0  0  0  0  0  0  0  0  0  0  0  0
    1.4466    1.4615   11.5504 H   0  0  0  0  0  0  0  0  0  0  0  0
   -2.3936    1.1376    4.5945 H   0  0  0  0  0  0  0  0  0  0  0  0
   -1.8054   -2.0098   -2.7201 H   0  0  0  0  0  0  0  0  0  0  0  0
   -5.1408    2.2957   -2.7692 H   0  0  0  0  0  0  0  0  0  0  0  0
   -5.8275    0.8039   -3.4351 H   0  0  0  0  0  0  0  0  0  0  0  0
   -3.8276    2.6180   -4.8765 H   0  0  0  0  0  0  0  0  0  0  0  0
   -4.5097    1.1189   -5.5215 H   0  0  0  0  0  0  0  0  0  0  0  0
   -5.5577    2.5038   -5.2098 H   0  0  0  0  0  0  0  0  0  0  0  0
    6.6317   -0.9899    4.2865 H   0  0  0  0  0  0  0  0  0  0  0  0
    6.8695    0.2130    3.0046 H   0  0  0  0  0  0  0  0  0  0  0  0
    5.4639    1.8376    4.2131 H   0  0  0  0  0  0  0  0  0  0  0  0
    5.0533    0.6313    5.4288 H   0  0  0  0  0  0  0  0  0  0  0  0
    6.7138    1.2439    5.3141 H   0  0  0  0  0  0  0  0  0  0  0  0
    2.1555   -2.5050    2.9430 H   0  0  0  0  0  0  0  0  0  0  0  0
    3.7313   -1.3983   -4.5976 H   0  0  0  0  0  0  0  0  0  0  0  0
    2.4255   -1.6434   -6.9686 H   0  0  0  0  0  0  0  0  0  0  0  0
   -1.0698   -1.5419  -11.0201 H   0  0  0  0  0  0  0  0  0  0  0  0
   -2.9526    1.6114   -7.6492 H   0  0  0  0  0  0  0  0  0  0  0  0
  1  2  2  0  0  0  0
  2  3  1  0  0  0  0
  3  4  2  0  0  0  0
  3  5  1  0  0  0  0
  5  6  2  0  0  0  0
  6  7  1  0  0  0  0
  7  8  1  0  0  0  0
  7  9  2  0  0  0  0
  9 10  1  0  0  0  0
 10 11  2  0  0  0  0
 11 12  1  0  0  0  0
 12 13  2  0  0  0  0
 13 14  1  0  0  0  0
 14 15  3  0  0  0  0
 13 16  1  0  0  0  0
 16 17  3  0  0  0  0
  1 18  1  0  0  0  0
 18 19  2  0  0  0  0
 19 20  1  0  0  0  0
 20 21  1  0  0  0  0
 21 22  1  0  0  0  0
 22 23  2  0  0  0  0
 23 24  1  0  0  0  0
 24 25  2  0  0  0  0
 25 26  1  0  0  0  0
 26 27  1  0  0  0  0
 26 28  2  0  0  0  0
 28 29  1  0  0  0  0
 29 30  1  0  0  0  0
 28 31  1  0  0  0  0
 23 32  1  0  0  0  0
 32 33  2  0  0  0  0
 33 34  1  0  0  0  0
 34 35  1  0  0  0  0
 35 36  1  0  0  0  0
 36 37  1  0  0  0  0
 37 38  1  0  0  0  0
 38 39  1  0  0  0  0
 37 40  2  0  0  0  0
 40 41  1  0  0  0  0
 40 42  1  0  0  0  0
 34 43  2  0  0  0  0
 43 44  1  0  0  0  0
 44 45  1  0  0  0  0
 33 46  1  0  0  0  0
 46 47  1  0  0  0  0
 47 48  1  0  0  0  0
 48 49  2  0  0  0  0
 49 50  1  0  0  0  0
 50 51  1  0  0  0  0
 49 52  1  0  0  0  0
 52 53  2  0  0  0  0
 53 54  1  0  0  0  0
 54 55  2  0  0  0  0
 54 56  1  0  0  0  0
 56 57  2  0  0  0  0
 57 58  1  0  0  0  0
 58 59  1  0  0  0  0
 58 60  2  0  0  0  0
 60 61  1  0  0  0  0
 60 62  1  0  0  0  0
 62 63  2  0  0  0  0
 63 64  1  0  0  0  0
 64 65  2  0  0  0  0
 65 66  1  0  0  0  0
 66 67  3  0  0  0  0
 65 68  1  0  0  0  0
 68 69  3  0  0  0  0
 12  2  1  0  0  0  0
 45 18  1  0  0  0  0
 51 47  2  0  0  0  0
 64 53  1  0  0  0  0
 11  5  1  0  0  0  0
 44 20  2  0  0  0  0
 63 56  1  0  0  0  0
 43 22  1  0  0  0  0
 31 24  1  0  0  0  0
 51 32  1  0  0  0  0
 41 35  2  0  0  0  0
  1 70  1  0  0  0  0
  6 71  1  0  0  0  0
  9 72  1  0  0  0  0
 10 73  1  0  0  0  0
 19 74  1  0  0  0  0
 25 75  1  0  0  0  0
 29 76  1  0  0  0  0
 29 77  1  0  0  0  0
 30 78  1  0  0  0  0
 30 79  1  0  0  0  0
 30 80  1  0  0  0  0
 38 81  1  0  0  0  0
 38 82  1  0  0  0  0
 39 83  1  0  0  0  0
 39 84  1  0  0  0  0
 39 85  1  0  0  0  0
 41 86  1  0  0  0  0
 48 87  1  0  0  0  0
 52 88  1  0  0  0  0
 57 89  1  0  0  0  0
 62 90  1  0  0  0  0
M  END
