90

C          3.76630        3.39300       -4.85220
C          4.67550        4.33190       -4.44190
C          4.91670        4.75530       -3.05580
O          4.32660        4.40300       -2.05140
C          6.04740        5.70170       -3.10940
C          6.66220        6.35970       -2.06360
C          7.71590        7.20050       -2.38910
F          8.34830        7.85980       -1.40620
C          8.14250        7.38450       -3.69620
C          7.51360        6.71800       -4.73680
C          6.45660        5.86720       -4.44440
C          5.61070        5.03870       -5.30260
C          5.69470        4.97590       -6.66770
C          4.87020        4.20420       -7.51490
N          4.24440        3.61400       -8.27570
C          6.63240        5.69830       -7.43800
N          7.36630        6.25130       -8.12510
C          2.82210        2.65760       -4.11470
C          2.00550        1.69140       -4.70530
C          1.15130        1.10040       -3.78950
S         -0.02920       -0.17810       -3.88000
C         -0.31880       -0.04160       -2.15450
C         -1.15030       -0.88010       -1.42480
C         -1.87360       -1.95730       -2.08040
C         -2.69580       -1.87150       -3.16470
C         -3.21110       -3.12900       -3.54940
Cl        -4.30480       -3.31280       -4.86440
C         -2.76760       -4.17580       -2.79380
C         -3.15510       -5.61010       -2.86840
C         -4.30920       -5.90780       -1.90660
S         -1.68960       -3.60920       -1.56770
C         -1.23110       -0.64840       -0.03940
C         -0.47050        0.38920        0.56430
C          0.35810        1.22420       -0.16710
C          1.11830        2.32030        0.41450
S          2.38110        2.05440        1.57650
C          2.80240        3.73090        1.58820
C          3.98830        4.22920        2.33530
C          5.25310        4.02330        1.49640
C          1.98580        4.42980        0.74770
C          1.02920        3.63820        0.07760
Cl         2.11710        6.12280        0.49530
C          0.44190        0.98840       -1.54820
C          1.28120        1.62020       -2.49750
S          2.49660        2.82670       -2.39730
S         -0.73130        0.53080        2.29000
C         -1.88530       -0.76600        2.22660
C         -2.68430       -1.36840        3.19210
C         -3.48520       -2.35780        2.64680
S         -3.22050       -2.52390        0.90970
C         -2.03860       -1.28410        0.93550
C         -4.41080       -3.26970        3.19320
C         -4.87690       -3.45140        4.46500
C         -4.63120       -2.61950        5.66550
O         -3.88290       -1.67550        5.79820
C         -5.51900       -3.16690        6.71370
C         -5.68840       -2.70790        8.00440
C         -6.59450       -3.39520        8.79740
F         -6.79500       -2.98780       10.06030
C         -7.30610       -4.49180        8.33160
C         -7.12350       -4.94280        7.03370
C         -6.22070       -4.27720        6.21510
C         -5.80720       -4.51020        4.83380
C         -6.19060       -5.57910        4.06750
C         -5.73880       -5.88040        2.76370
N         -5.41370       -6.21840        1.71500
C         -7.09190       -6.57680        4.49980
N         -7.81930       -7.41800        4.78300
H          3.75610        3.15110       -5.90810
H          6.34090        6.22890       -1.04260
H          8.96800        8.05110       -3.89010
H          7.85610        6.86980       -5.74680
H          2.05530        1.44310       -5.74990
H         -2.95520       -0.94990       -3.65230
H         -2.29800       -6.23540       -2.61220
H         -3.46150       -5.83930       -3.89100
H         -4.59600       -6.95290       -1.98080
H         -4.01770       -5.70210       -0.87980
H         -5.17190       -5.29320       -2.15110
H          4.08440        3.70080        3.28540
H          3.85130        5.29310        2.53910
H          5.45310        2.96160        1.37150
H          6.10840        4.48640        1.98170
H          5.11810        4.46120        0.51010
H          0.30650        4.03400       -0.61220
H         -2.69390       -1.10770        4.23400
H         -4.81100       -3.94330        2.44450
H         -5.14190       -1.85610        8.37660
H         -8.00070       -4.98570        8.99260
H         -7.68490       -5.79330        6.68450
