90

C         -0.36810        0.96860        6.44040
C          0.61210        0.90620        7.39540
C          2.01910        0.54890        7.17020
O          2.55790        0.25450        6.11920
C          2.67770        0.62960        8.48740
C          3.99850        0.37850        8.79940
C          4.36500        0.53160       10.12810
F          5.63840        0.29990       10.48190
C          3.46130        0.91710       11.10760
C          2.13690        1.16380       10.77900
C          1.73750        1.01900        9.45760
C          0.43840        1.19790        8.80980
C         -0.71560        1.56650        9.44770
C         -1.98120        1.73460        8.84540
N         -3.04480        1.89180        8.44180
C         -0.80500        1.83490       10.83140
N         -0.95120        2.06780       11.94560
C         -0.31500        0.69350        5.06280
C         -1.43310        0.81540        4.23540
C         -1.14920        0.47880        2.92230
S         -2.07110        0.46540        1.44410
C         -0.64770       -0.03750        0.55020
C         -0.59780       -0.24970       -0.82040
C         -1.76170       -0.11770       -1.67970
C         -2.22850       -1.03200       -2.58010
C         -3.37260       -0.57540       -3.26700
Cl        -4.16680       -1.52590       -4.46200
C         -3.78900        0.67350       -2.90300
C         -4.94540        1.45050       -3.43030
C         -4.69020        1.95620       -4.85170
S         -2.74660        1.31470       -1.68310
C          0.65280       -0.60200       -1.36190
C          1.78840       -0.77510       -0.52760
C          1.72010       -0.62520        0.84730
C          2.84450       -0.84980        1.74520
S          4.25240        0.16660        1.72650
C          4.92350       -0.64000        3.10010
C          6.16840       -0.15600        3.75520
C          5.83120        0.96310        4.74520
C          4.09330       -1.64060        3.51340
C          2.91160       -1.76580        2.75200
Cl         4.43010       -2.64970        4.85990
C          0.48550       -0.22460        1.38180
C          0.17850        0.08520        2.72860
S          1.09820        0.14740        4.17450
S          3.24460       -1.17550       -1.41540
C          2.37120       -1.06230       -2.91190
C          2.73660       -1.18430       -4.25290
C          1.67430       -0.93920       -5.10000
S          0.18960       -0.62780       -4.21100
C          1.02170       -0.77160       -2.71630
C          1.67030       -1.00890       -6.51630
C          0.76100       -0.46200       -7.36550
C          0.57730       -1.01400       -8.73560
O          1.32930       -1.74140       -9.33660
C         -0.75840       -0.52880       -9.15860
C         -1.47720       -0.86180      -10.28920
C         -2.73700       -0.29920      -10.46050
Cl        -3.68360       -0.67420      -11.84500
C         -3.23590        0.57910       -9.49350
F         -4.45470        1.10310       -9.65980
C         -2.51660        0.92980       -8.36210
C         -1.26200        0.36640       -8.19610
C         -0.25860        0.54870       -7.15400
C         -0.15540        1.63390       -6.32670
C          0.99050        1.89780       -5.54450
N          1.92460        2.16390       -4.93380
C         -1.14130        2.63240       -6.20970
N         -1.92740        3.45420       -6.05400
H         -1.35420        1.27150        6.77110
H          4.71140        0.07510        8.04930
H          3.80320        1.02100       12.12530
H          1.44660        1.46150       11.55040
H         -2.39360        1.13760        4.59450
H         -1.80540       -2.00980       -2.72010
H         -5.14080        2.29570       -2.76920
H         -5.82750        0.80390       -3.43510
H         -3.82760        2.61800       -4.87650
H         -4.50970        1.11890       -5.52150
H         -5.55770        2.50380       -5.20980
H          6.63170       -0.98990        4.28650
H          6.86950        0.21300        3.00460
H          5.46390        1.83760        4.21310
H          5.05330        0.63130        5.42880
H          6.71380        1.24390        5.31410
H          2.15550       -2.50500        2.94300
H          3.73130       -1.39830       -4.59760
H          2.42550       -1.64340       -6.96860
H         -1.06980       -1.54190      -11.02010
H         -2.95260        1.61140       -7.64920
