
  xtb     02012219153D
 energy: -178.226394754301 gnorm: 0.000615085339 xtb: 6.4.1 (unknown)
104114  0     0  0            999 V2000
   -3.8577   -6.9119   -2.1565 C   0  0  0  0  0  0  0  0  0  0  0  0
   -3.5717   -7.9258   -1.2731 C   0  0  0  0  0  0  0  0  0  0  0  0
   -2.6240   -7.8516   -0.1594 C   0  0  0  0  0  0  0  0  0  0  0  0
   -1.9145   -6.9141    0.1601 O   0  0  0  0  0  0  0  0  0  0  0  0
   -2.6938   -9.1607    0.5225 C   0  0  0  0  0  0  0  0  0  0  0  0
   -1.9998   -9.5850    1.6367 C   0  0  0  0  0  0  0  0  0  0  0  0
   -2.2598  -10.8730    2.0805 C   0  0  0  0  0  0  0  0  0  0  0  0
   -1.6089  -11.3319    3.1629 F   0  0  0  0  0  0  0  0  0  0  0  0
   -3.1694  -11.7068    1.4483 C   0  0  0  0  0  0  0  0  0  0  0  0
   -3.8586  -11.2663    0.3280 C   0  0  0  0  0  0  0  0  0  0  0  0
   -3.6202   -9.9830   -0.1419 C   0  0  0  0  0  0  0  0  0  0  0  0
   -4.1767   -9.2428   -1.2755 C   0  0  0  0  0  0  0  0  0  0  0  0
   -5.0956   -9.7391   -2.1643 C   0  0  0  0  0  0  0  0  0  0  0  0
   -5.6351   -9.0494   -3.2701 C   0  0  0  0  0  0  0  0  0  0  0  0
   -6.1209   -8.5655   -4.1922 N   0  0  0  0  0  0  0  0  0  0  0  0
   -5.6388  -11.0397   -2.0987 C   0  0  0  0  0  0  0  0  0  0  0  0
   -6.1194  -12.0823   -2.1058 N   0  0  0  0  0  0  0  0  0  0  0  0
   -3.3594   -5.6086   -2.2425 C   0  0  0  0  0  0  0  0  0  0  0  0
   -3.8153   -4.7019   -3.2134 C   0  0  0  0  0  0  0  0  0  0  0  0
   -3.2053   -3.4712   -3.1250 C   0  0  0  0  0  0  0  0  0  0  0  0
   -3.3103   -2.1324   -3.8101 C   0  0  0  0  0  0  0  0  0  0  0  0
   -2.8503   -2.1818   -5.2799 C   0  0  0  0  0  0  0  0  0  0  0  0
   -3.7151   -3.0371   -6.1965 C   0  0  0  0  0  0  0  0  0  0  0  0
   -4.7583   -1.6278   -3.6219 C   0  0  0  0  0  0  0  0  0  0  0  0
   -5.0779   -0.2660   -4.2236 C   0  0  0  0  0  0  0  0  0  0  0  0
   -2.3048   -1.3264   -3.0044 C   0  0  0  0  0  0  0  0  0  0  0  0
   -1.7280   -2.0988   -1.9904 C   0  0  0  0  0  0  0  0  0  0  0  0
   -2.2876   -3.4100   -2.0706 C   0  0  0  0  0  0  0  0  0  0  0  0
   -2.1504   -4.8741   -1.2015 S   0  0  0  0  0  0  0  0  0  0  0  0
   -0.7640   -1.5660   -1.1034 C   0  0  0  0  0  0  0  0  0  0  0  0
   -0.1829   -2.3207   -0.0680 C   0  0  0  0  0  0  0  0  0  0  0  0
    0.7497   -1.7733    0.7815 C   0  0  0  0  0  0  0  0  0  0  0  0
    1.1283   -0.4439    0.6191 C   0  0  0  0  0  0  0  0  0  0  0  0
    2.1119    0.3628    1.4426 C   0  0  0  0  0  0  0  0  0  0  0  0
    3.5785   -0.0496    1.1677 C   0  0  0  0  0  0  0  0  0  0  0  0
    3.9430   -1.4830    1.5286 C   0  0  0  0  0  0  0  0  0  0  0  0
    1.7845    0.3318    2.9428 C   0  0  0  0  0  0  0  0  0  0  0  0
    0.3884    0.8641    3.2457 C   0  0  0  0  0  0  0  0  0  0  0  0
    1.9224    1.7318    0.8480 C   0  0  0  0  0  0  0  0  0  0  0  0
    2.4188    2.9981    1.0870 C   0  0  0  0  0  0  0  0  0  0  0  0
    1.9124    3.9430    0.1971 C   0  0  0  0  0  0  0  0  0  0  0  0
    0.8073    3.1926   -0.9640 S   0  0  0  0  0  0  0  0  0  0  0  0
    1.0382    1.6690   -0.2300 C   0  0  0  0  0  0  0  0  0  0  0  0
    0.5401    0.3385   -0.3822 C   0  0  0  0  0  0  0  0  0  0  0  0
   -0.4043   -0.2006   -1.2861 C   0  0  0  0  0  0  0  0  0  0  0  0
   -0.9751    0.5448   -2.3338 C   0  0  0  0  0  0  0  0  0  0  0  0
   -1.9001   -0.0070   -3.1890 C   0  0  0  0  0  0  0  0  0  0  0  0
    2.0907    5.3279    0.0615 C   0  0  0  0  0  0  0  0  0  0  0  0
    2.8323    6.2352    0.7784 C   0  0  0  0  0  0  0  0  0  0  0  0
    3.7174    5.9933    1.9377 C   0  0  0  0  0  0  0  0  0  0  0  0
    3.9861    4.9450    2.4925 O   0  0  0  0  0  0  0  0  0  0  0  0
    4.2514    7.3124    2.3212 C   0  0  0  0  0  0  0  0  0  0  0  0
    5.1063    7.6126    3.3417 C   0  0  0  0  0  0  0  0  0  0  0  0
    5.4946    8.9555    3.5411 C   0  0  0  0  0  0  0  0  0  0  0  0
    6.3692    9.3257    4.5829 C   0  0  0  0  0  0  0  0  0  0  0  0
    6.7350   10.6304    4.7647 C   0  0  0  0  0  0  0  0  0  0  0  0
    6.2267   11.6042    3.8944 C   0  0  0  0  0  0  0  0  0  0  0  0
    6.5985   12.8831    4.0891 F   0  0  0  0  0  0  0  0  0  0  0  0
    5.3764   11.2993    2.8684 C   0  0  0  0  0  0  0  0  0  0  0  0
    4.9873    9.9604    2.6675 C   0  0  0  0  0  0  0  0  0  0  0  0
    4.1039    9.6160    1.6177 C   0  0  0  0  0  0  0  0  0  0  0  0
    3.7364    8.3074    1.4473 C   0  0  0  0  0  0  0  0  0  0  0  0
    2.8509    7.6586    0.4828 C   0  0  0  0  0  0  0  0  0  0  0  0
    2.1661    8.3215   -0.5049 C   0  0  0  0  0  0  0  0  0  0  0  0
    2.2399    9.7146   -0.7176 C   0  0  0  0  0  0  0  0  0  0  0  0
    2.2450   10.8387   -0.9521 N   0  0  0  0  0  0  0  0  0  0  0  0
    1.2894    7.7589   -1.4560 C   0  0  0  0  0  0  0  0  0  0  0  0
    0.5574    7.4027   -2.2675 N   0  0  0  0  0  0  0  0  0  0  0  0
   -4.5987   -7.1293   -2.9162 H   0  0  0  0  0  0  0  0  0  0  0  0
   -1.2907   -8.9463    2.1385 H   0  0  0  0  0  0  0  0  0  0  0  0
   -3.3327  -12.6988    1.8389 H   0  0  0  0  0  0  0  0  0  0  0  0
   -4.5631  -11.9243   -0.1529 H   0  0  0  0  0  0  0  0  0  0  0  0
   -4.5734   -4.9817   -3.9232 H   0  0  0  0  0  0  0  0  0  0  0  0
   -1.8280   -2.5694   -5.2926 H   0  0  0  0  0  0  0  0  0  0  0  0
   -2.8153   -1.1616   -5.6642 H   0  0  0  0  0  0  0  0  0  0  0  0
   -3.7052   -4.0767   -5.8818 H   0  0  0  0  0  0  0  0  0  0  0  0
   -4.7428   -2.6856   -6.2157 H   0  0  0  0  0  0  0  0  0  0  0  0
   -3.3234   -2.9892   -7.2101 H   0  0  0  0  0  0  0  0  0  0  0  0
   -4.9564   -1.5940   -2.5472 H   0  0  0  0  0  0  0  0  0  0  0  0
   -5.4278   -2.3748   -4.0515 H   0  0  0  0  0  0  0  0  0  0  0  0
   -4.8696   -0.2423   -5.2897 H   0  0  0  0  0  0  0  0  0  0  0  0
   -6.1360   -0.0549   -4.0836 H   0  0  0  0  0  0  0  0  0  0  0  0
   -4.5131    0.5218   -3.7339 H   0  0  0  0  0  0  0  0  0  0  0  0
   -0.4882   -3.3483    0.0592 H   0  0  0  0  0  0  0  0  0  0  0  0
    1.1640   -2.3688    1.5796 H   0  0  0  0  0  0  0  0  0  0  0  0
    4.2184    0.6370    1.7260 H   0  0  0  0  0  0  0  0  0  0  0  0
    3.7769    0.1044    0.1037 H   0  0  0  0  0  0  0  0  0  0  0  0
    3.3926   -2.1916    0.9158 H   0  0  0  0  0  0  0  0  0  0  0  0
    5.0049   -1.6362    1.3491 H   0  0  0  0  0  0  0  0  0  0  0  0
    3.7473   -1.6919    2.5768 H   0  0  0  0  0  0  0  0  0  0  0  0
    1.8596   -0.6944    3.3035 H   0  0  0  0  0  0  0  0  0  0  0  0
    2.5258    0.9338    3.4715 H   0  0  0  0  0  0  0  0  0  0  0  0
    0.2973    1.9049    2.9435 H   0  0  0  0  0  0  0  0  0  0  0  0
   -0.3677    0.2855    2.7189 H   0  0  0  0  0  0  0  0  0  0  0  0
    0.1887    0.8002    4.3126 H   0  0  0  0  0  0  0  0  0  0  0  0
    3.1078    3.2639    1.8669 H   0  0  0  0  0  0  0  0  0  0  0  0
   -0.6665    1.5711   -2.4674 H   0  0  0  0  0  0  0  0  0  0  0  0
   -2.2977    0.5846   -3.9983 H   0  0  0  0  0  0  0  0  0  0  0  0
    1.5211    5.7406   -0.7626 H   0  0  0  0  0  0  0  0  0  0  0  0
    5.4796    6.8336    3.9898 H   0  0  0  0  0  0  0  0  0  0  0  0
    6.7475    8.5571    5.2402 H   0  0  0  0  0  0  0  0  0  0  0  0
    7.4019   10.9310    5.5572 H   0  0  0  0  0  0  0  0  0  0  0  0
    5.0043   12.0755    2.2180 H   0  0  0  0  0  0  0  0  0  0  0  0
    3.7411   10.4031    0.9773 H   0  0  0  0  0  0  0  0  0  0  0  0
  1  2  2  0  0  0  0
  2  3  1  0  0  0  0
  3  4  2  0  0  0  0
  3  5  1  0  0  0  0
  5  6  2  0  0  0  0
  6  7  1  0  0  0  0
  7  8  1  0  0  0  0
  7  9  2  0  0  0  0
  9 10  1  0  0  0  0
 10 11  2  0  0  0  0
 11 12  1  0  0  0  0
 12 13  2  0  0  0  0
 13 14  1  0  0  0  0
 14 15  3  0  0  0  0
 13 16  1  0  0  0  0
 16 17  3  0  0  0  0
  1 18  1  0  0  0  0
 18 19  2  0  0  0  0
 19 20  1  0  0  0  0
 20 21  1  0  0  0  0
 21 22  1  0  0  0  0
 22 23  1  0  0  0  0
 21 24  1  0  0  0  0
 24 25  1  0  0  0  0
 21 26  1  0  0  0  0
 26 27  2  0  0  0  0
 27 28  1  0  0  0  0
 28 29  1  0  0  0  0
 27 30  1  0  0  0  0
 30 31  2  0  0  0  0
 31 32  1  0  0  0  0
 32 33  2  0  0  0  0
 33 34  1  0  0  0  0
 34 35  1  0  0  0  0
 35 36  1  0  0  0  0
 34 37  1  0  0  0  0
 37 38  1  0  0  0  0
 34 39  1  0  0  0  0
 39 40  1  0  0  0  0
 40 41  2  0  0  0  0
 41 42  1  0  0  0  0
 42 43  1  0  0  0  0
 43 44  1  0  0  0  0
 44 45  2  0  0  0  0
 45 46  1  0  0  0  0
 46 47  2  0  0  0  0
 41 48  1  0  0  0  0
 48 49  2  0  0  0  0
 49 50  1  0  0  0  0
 50 51  2  0  0  0  0
 50 52  1  0  0  0  0
 52 53  2  0  0  0  0
 53 54  1  0  0  0  0
 54 55  2  0  0  0  0
 55 56  1  0  0  0  0
 56 57  2  0  0  0  0
 57 58  1  0  0  0  0
 57 59  1  0  0  0  0
 59 60  2  0  0  0  0
 60 61  1  0  0  0  0
 61 62  2  0  0  0  0
 62 63  1  0  0  0  0
 63 64  2  0  0  0  0
 64 65  1  0  0  0  0
 65 66  3  0  0  0  0
 64 67  1  0  0  0  0
 67 68  3  0  0  0  0
 12  2  1  0  0  0  0
 29 18  1  0  0  0  0
 45 30  1  0  0  0  0
 63 49  1  0  0  0  0
 11  5  1  0  0  0  0
 28 20  2  0  0  0  0
 44 33  1  0  0  0  0
 62 52  1  0  0  0  0
 47 26  1  0  0  0  0
 60 54  1  0  0  0  0
 43 39  2  0  0  0  0
  1 69  1  0  0  0  0
  6 70  1  0  0  0  0
  9 71  1  0  0  0  0
 10 72  1  0  0  0  0
 19 73  1  0  0  0  0
 22 74  1  0  0  0  0
 22 75  1  0  0  0  0
 23 76  1  0  0  0  0
 23 77  1  0  0  0  0
 23 78  1  0  0  0  0
 24 79  1  0  0  0  0
 24 80  1  0  0  0  0
 25 81  1  0  0  0  0
 25 82  1  0  0  0  0
 25 83  1  0  0  0  0
 31 84  1  0  0  0  0
 32 85  1  0  0  0  0
 35 86  1  0  0  0  0
 35 87  1  0  0  0  0
 36 88  1  0  0  0  0
 36 89  1  0  0  0  0
 36 90  1  0  0  0  0
 37 91  1  0  0  0  0
 37 92  1  0  0  0  0
 38 93  1  0  0  0  0
 38 94  1  0  0  0  0
 38 95  1  0  0  0  0
 40 96  1  0  0  0  0
 46 97  1  0  0  0  0
 47 98  1  0  0  0  0
 48 99  1  0  0  0  0
 53100  1  0  0  0  0
 55101  1  0  0  0  0
 56102  1  0  0  0  0
 59103  1  0  0  0  0
 61104  1  0  0  0  0
M  END
