113

C          1.66160       -3.67430       -7.30830
C          2.93380       -3.16570       -7.42750
C          3.66180       -2.40410       -6.41110
O          3.26170       -2.04420       -5.31630
C          5.00120       -2.14890       -6.97360
C          6.06690       -1.48780       -6.39630
C          7.25680       -1.36200       -7.10480
C          8.45300       -0.66540       -6.54380
C          7.30630       -1.91930       -8.38360
F          8.45450       -1.80340       -9.07720
C          6.25070       -2.58550       -8.98570
C          5.07460       -2.70220       -8.26280
C          3.79350       -3.33160       -8.58120
C          3.49170       -3.94560       -9.77060
C          2.25810       -4.54170      -10.10290
N          1.28670       -5.04630      -10.45350
C          4.39260       -4.05930      -10.85030
N          5.07340       -4.18860      -11.76550
C          0.73870       -3.60100       -6.26310
C         -0.51270       -4.24160       -6.29940
C         -1.01920       -5.11130       -7.40320
C         -0.49250       -6.54040       -7.25370
C         -1.23300       -4.02780       -5.13330
Se        -2.93000       -4.64610       -4.54500
C         -2.55110       -3.67200       -3.00720
C         -3.12680       -3.41380       -1.75940
C         -4.29120       -3.95270       -1.17150
C         -4.58300       -3.63320        0.19140
N         -5.66450       -4.25000        0.63930
S         -6.26640       -5.15840       -0.56210
N         -5.16560       -4.79550       -1.69690
C         -3.77030       -2.68770        0.85270
C         -3.93290       -2.08320        2.10270
Se        -5.07510       -2.18680        3.56720
C         -4.06220       -0.72320        4.22940
C         -4.15960        0.03250        5.39030
C         -5.15660       -0.27720        6.45880
C         -4.54400       -1.18360        7.52890
C         -3.19210        1.04970        5.43100
S         -2.17250        1.04370        3.99360
C         -3.02870       -0.31620        3.36800
C         -2.95560       -1.08340        2.19870
N         -2.18940       -1.07740        1.06340
C         -2.64940       -2.07080        0.22390
C         -2.24740       -2.54080       -1.05670
N         -1.14140       -2.31260       -1.85730
C         -1.31950       -3.00460       -3.02950
C         -0.57490       -3.20960       -4.19660
S          0.97980       -2.71790       -4.75590
C          0.20530       -1.93450       -1.48670
C          0.92710       -3.09690       -0.80800
C         -1.28210        0.01930        0.81560
C          0.05150       -0.16190        1.53950
C         -3.06690        1.94390        6.50010
C         -2.22290        3.01020        6.68620
C         -1.24600        3.52380        5.72280
O         -0.93990        3.04150        4.64410
C         -0.70130        4.76200        6.30430
C          0.22020        5.62930        5.72140
C          0.52390        6.72410        6.49460
C         -0.04840        6.94180        7.75460
C         -0.95860        6.09430        8.34090
C         -1.27970        4.97150        7.57240
C         -2.20070        3.87060        7.85210
C         -2.87910        3.68660        9.03070
C         -3.73410        2.60550        9.32820
N         -4.43640        1.75620        9.65470
C         -2.79690        4.54940       10.14340
N         -2.78050        5.20170       11.08830
C          0.70340        8.23270        7.96270
C          1.92320        8.17760        8.90650
C          2.71510        9.41330        8.54440
C          3.25720        9.20970        7.35050
C          2.84120        7.83260        6.88570
C          2.78840        7.10350        8.23440
C          1.34160        7.99060        6.55710
H          1.30210       -4.24400       -8.15420
H          5.96990       -1.07660       -5.40300
H          8.74820        0.15760       -7.19370
H          8.24490       -0.27890       -5.55040
H          9.29650       -1.35300       -6.48990
H          6.37770       -2.98560       -9.97780
H         -0.73660       -4.71800       -8.38070
H         -2.11210       -5.12760       -7.34290
H         -0.88770       -7.16480       -8.04990
H          0.59350       -6.55850       -7.30770
H         -0.80080       -6.95590       -6.29630
H         -5.99810       -0.79800        5.99020
H         -5.53520        0.63320        6.92530
H         -3.71320       -0.68730        8.02420
H         -4.18400       -2.10620        7.07830
H         -5.29190       -1.42720        8.27790
H          0.20310       -1.06730       -0.83640
H          0.72800       -1.66690       -2.40820
H          0.40440       -3.39630        0.09880
H          1.94070       -2.80200       -0.55180
H          0.97530       -3.95310       -1.47650
H         -1.75780        0.93040        1.19410
H         -1.15980        0.13880       -0.26220
H          0.74220        0.62090        1.23910
H          0.49560       -1.13050        1.32520
H         -0.09920       -0.08590        2.61270
H         -3.77310        1.75490        7.29710
H          0.63060        5.42720        4.74440
H         -1.39660        6.28320        9.30640
H          0.09050        9.11960        8.11130
H          1.68030        8.04130        9.95660
H          2.75210       10.30050        9.14880
H          3.83720        9.89310        6.75840
H          3.43620        7.38280        6.09520
H          2.32140        6.12130        8.19010
H          3.77100        7.01910        8.69540
H          1.15260        8.71620        5.76800
