
  xtb     02112201573D
 energy: -185.081144824080 gnorm: 0.000307213572 xtb: 6.4.1 (unknown)
 88 99  0     0  0            999 V2000
    1.0588    2.2252    6.4215 C   0  0  0  0  0  0  0  0  0  0  0  0
    1.8056    2.2177    7.5684 C   0  0  0  0  0  0  0  0  0  0  0  0
    3.2559    1.9512    7.7107 C   0  0  0  0  0  0  0  0  0  0  0  0
    4.1159    1.9419    6.8554 O   0  0  0  0  0  0  0  0  0  0  0  0
    3.4595    1.6552    9.1439 C   0  0  0  0  0  0  0  0  0  0  0  0
    4.6173    1.2437    9.7746 C   0  0  0  0  0  0  0  0  0  0  0  0
    4.5975    0.9926   11.1419 C   0  0  0  0  0  0  0  0  0  0  0  0
    5.8058    0.5324   11.8888 C   0  0  0  0  0  0  0  0  0  0  0  0
    3.3878    1.1796   11.8148 C   0  0  0  0  0  0  0  0  0  0  0  0
    3.3583    0.9321   13.1373 F   0  0  0  0  0  0  0  0  0  0  0  0
    2.2150    1.5977   11.2076 C   0  0  0  0  0  0  0  0  0  0  0  0
    2.2554    1.8367    9.8431 C   0  0  0  0  0  0  0  0  0  0  0  0
    1.2268    2.2618    8.9005 C   0  0  0  0  0  0  0  0  0  0  0  0
   -0.0266    2.7025    9.2347 C   0  0  0  0  0  0  0  0  0  0  0  0
   -0.9771    3.2155    8.3264 C   0  0  0  0  0  0  0  0  0  0  0  0
   -1.7922    3.6617    7.6512 N   0  0  0  0  0  0  0  0  0  0  0  0
   -0.5166    2.7478   10.5571 C   0  0  0  0  0  0  0  0  0  0  0  0
   -0.9723    2.8018   11.6090 N   0  0  0  0  0  0  0  0  0  0  0  0
    1.4476    2.2102    5.0690 C   0  0  0  0  0  0  0  0  0  0  0  0
    2.6595    2.4713    4.4540 C   0  0  0  0  0  0  0  0  0  0  0  0
    2.6366    2.3500    3.0694 C   0  0  0  0  0  0  0  0  0  0  0  0
    3.9085    2.5709    1.8869 S   0  0  0  0  0  0  0  0  0  0  0  0
    2.8009    2.1221    0.6397 C   0  0  0  0  0  0  0  0  0  0  0  0
    2.7780    1.9368   -0.7516 C   0  0  0  0  0  0  0  0  0  0  0  0
    3.7393    2.1934   -1.7557 C   0  0  0  0  0  0  0  0  0  0  0  0
    3.3977    1.9421   -3.1275 C   0  0  0  0  0  0  0  0  0  0  0  0
    4.3707    2.2776   -3.9589 N   0  0  0  0  0  0  0  0  0  0  0  0
    5.6105    2.8561   -3.0946 S   0  0  0  0  0  0  0  0  0  0  0  0
    4.9551    2.6987   -1.6237 N   0  0  0  0  0  0  0  0  0  0  0  0
    2.1676    1.3091   -3.4212 C   0  0  0  0  0  0  0  0  0  0  0  0
    1.6878    0.7167   -4.5956 C   0  0  0  0  0  0  0  0  0  0  0  0
    0.5126    0.0282   -4.2593 C   0  0  0  0  0  0  0  0  0  0  0  0
    0.2316    0.2129   -2.9309 N   0  0  0  0  0  0  0  0  0  0  0  0
   -0.7528   -0.6232   -2.2830 C   0  0  0  0  0  0  0  0  0  0  0  0
   -2.1811   -0.1631   -2.5736 C   0  0  0  0  0  0  0  0  0  0  0  0
    1.2259    1.0030   -2.3940 C   0  0  0  0  0  0  0  0  0  0  0  0
    1.4765    1.4592   -1.0773 C   0  0  0  0  0  0  0  0  0  0  0  0
    0.7093    1.4322    0.0751 N   0  0  0  0  0  0  0  0  0  0  0  0
    1.5168    1.8223    1.1132 C   0  0  0  0  0  0  0  0  0  0  0  0
    1.4047    1.9720    2.4968 C   0  0  0  0  0  0  0  0  0  0  0  0
    0.0874    1.7877    3.7949 Se  0  0  0  0  0  2  0  0  0  0  0  0
   -0.7223    1.5865    0.2142 C   0  0  0  0  0  0  0  0  0  0  0  0
   -1.1054    3.0572    0.3743 C   0  0  0  0  0  0  0  0  0  0  0  0
   -0.0008   -0.7320   -5.3111 C   0  0  0  0  0  0  0  0  0  0  0  0
    0.8037   -0.5825   -6.4646 C   0  0  0  0  0  0  0  0  0  0  0  0
    2.1676    0.4990   -6.2417 S   0  0  0  0  0  0  0  0  0  0  0  0
    0.4238   -1.3323   -7.5580 C   0  0  0  0  0  0  0  0  0  0  0  0
   -0.6918   -2.1547   -7.3584 C   0  0  0  0  0  0  0  0  0  0  0  0
   -1.3849   -1.9489   -5.6005 Se  0  0  0  0  0  2  0  0  0  0  0  0
   -1.1476   -3.0044   -8.3696 C   0  0  0  0  0  0  0  0  0  0  0  0
   -2.1584   -3.9402   -8.3645 C   0  0  0  0  0  0  0  0  0  0  0  0
   -3.0047   -4.2544   -7.2286 C   0  0  0  0  0  0  0  0  0  0  0  0
   -3.0454   -3.6727   -6.1519 O   0  0  0  0  0  0  0  0  0  0  0  0
   -3.7925   -5.4415   -7.6095 C   0  0  0  0  0  0  0  0  0  0  0  0
   -4.6628   -6.1894   -6.8366 C   0  0  0  0  0  0  0  0  0  0  0  0
   -5.0965   -5.7021   -5.2608 Cl  0  0  0  0  0  0  0  0  0  0  0  0
   -5.1761   -7.3762   -7.3794 C   0  0  0  0  0  0  0  0  0  0  0  0
   -6.2797   -8.3188   -6.4762 Cl  0  0  0  0  0  0  0  0  0  0  0  0
   -4.7511   -7.8113   -8.6333 C   0  0  0  0  0  0  0  0  0  0  0  0
   -5.3095   -9.3135   -9.2296 Cl  0  0  0  0  0  0  0  0  0  0  0  0
   -3.8605   -7.0495   -9.4101 C   0  0  0  0  0  0  0  0  0  0  0  0
   -3.2489   -7.7424  -10.8542 Cl  0  0  0  0  0  0  0  0  0  0  0  0
   -3.4395   -5.8192   -8.9231 C   0  0  0  0  0  0  0  0  0  0  0  0
   -2.5597   -4.7877   -9.4735 C   0  0  0  0  0  0  0  0  0  0  0  0
   -2.3295   -4.5352  -10.8003 C   0  0  0  0  0  0  0  0  0  0  0  0
   -3.0310   -5.1063  -11.8850 C   0  0  0  0  0  0  0  0  0  0  0  0
   -3.6110   -5.4216  -12.8235 N   0  0  0  0  0  0  0  0  0  0  0  0
   -1.4646   -3.5292  -11.2860 C   0  0  0  0  0  0  0  0  0  0  0  0
   -0.7676   -2.7520  -11.7643 N   0  0  0  0  0  0  0  0  0  0  0  0
   -0.0182    2.1882    6.5597 H   0  0  0  0  0  0  0  0  0  0  0  0
    5.5238    1.1165    9.2027 H   0  0  0  0  0  0  0  0  0  0  0  0
    5.6144   -0.4362   12.3498 H   0  0  0  0  0  0  0  0  0  0  0  0
    6.0412    1.2308   12.6911 H   0  0  0  0  0  0  0  0  0  0  0  0
    6.6618    0.4482   11.2259 H   0  0  0  0  0  0  0  0  0  0  0  0
    1.3230    1.7117   11.8011 H   0  0  0  0  0  0  0  0  0  0  0  0
    3.5406    2.7362    5.0100 H   0  0  0  0  0  0  0  0  0  0  0  0
   -0.6344   -1.6406   -2.6807 H   0  0  0  0  0  0  0  0  0  0  0  0
   -0.5423   -0.6597   -1.2134 H   0  0  0  0  0  0  0  0  0  0  0  0
   -2.8800   -0.7265   -1.9622 H   0  0  0  0  0  0  0  0  0  0  0  0
   -2.3129    0.8988   -2.3769 H   0  0  0  0  0  0  0  0  0  0  0  0
   -2.4248   -0.3413   -3.6209 H   0  0  0  0  0  0  0  0  0  0  0  0
   -1.2235    1.1884   -0.6602 H   0  0  0  0  0  0  0  0  0  0  0  0
   -1.0377    1.0229    1.1012 H   0  0  0  0  0  0  0  0  0  0  0  0
   -0.7616    3.6324   -0.4829 H   0  0  0  0  0  0  0  0  0  0  0  0
   -2.1857    3.1467    0.4465 H   0  0  0  0  0  0  0  0  0  0  0  0
   -0.6647    3.4789    1.2752 H   0  0  0  0  0  0  0  0  0  0  0  0
    0.9465   -1.3093   -8.4993 H   0  0  0  0  0  0  0  0  0  0  0  0
   -0.5697   -2.9261   -9.2835 H   0  0  0  0  0  0  0  0  0  0  0  0
  1  2  2  0  0  0  0
  2  3  1  0  0  0  0
  3  4  2  0  0  0  0
  3  5  1  0  0  0  0
  5  6  2  0  0  0  0
  6  7  1  0  0  0  0
  7  8  1  0  0  0  0
  7  9  2  0  0  0  0
  9 10  1  0  0  0  0
  9 11  1  0  0  0  0
 11 12  2  0  0  0  0
 12 13  1  0  0  0  0
 13 14  2  0  0  0  0
 14 15  1  0  0  0  0
 15 16  3  0  0  0  0
 14 17  1  0  0  0  0
 17 18  3  0  0  0  0
  1 19  1  0  0  0  0
 19 20  2  0  0  0  0
 20 21  1  0  0  0  0
 21 22  1  0  0  0  0
 22 23  1  0  0  0  0
 23 24  1  0  0  0  0
 24 25  1  0  0  0  0
 25 26  1  0  0  0  0
 26 27  2  0  0  0  0
 27 28  1  0  0  0  0
 28 29  1  0  0  0  0
 26 30  1  0  0  0  0
 30 31  1  0  0  0  0
 31 32  2  0  0  0  0
 32 33  1  0  0  0  0
 33 34  1  0  0  0  0
 34 35  1  0  0  0  0
 33 36  1  0  0  0  0
 36 37  1  0  0  0  0
 37 38  1  0  0  0  0
 38 39  1  0  0  0  0
 39 40  1  0  0  0  0
 40 41  1  0  0  0  0
 38 42  1  0  0  0  0
 42 43  1  0  0  0  0
 32 44  1  0  0  0  0
 44 45  2  0  0  0  0
 45 46  1  0  0  0  0
 45 47  1  0  0  0  0
 47 48  2  0  0  0  0
 48 49  1  0  0  0  0
 48 50  1  0  0  0  0
 50 51  2  0  0  0  0
 51 52  1  0  0  0  0
 52 53  2  0  0  0  0
 52 54  1  0  0  0  0
 54 55  2  0  0  0  0
 55 56  1  0  0  0  0
 55 57  1  0  0  0  0
 57 58  1  0  0  0  0
 57 59  2  0  0  0  0
 59 60  1  0  0  0  0
 59 61  1  0  0  0  0
 61 62  1  0  0  0  0
 61 63  2  0  0  0  0
 63 64  1  0  0  0  0
 64 65  2  0  0  0  0
 65 66  1  0  0  0  0
 66 67  3  0  0  0  0
 65 68  1  0  0  0  0
 68 69  3  0  0  0  0
 13  2  1  0  0  0  0
 41 19  1  0  0  0  0
 49 44  1  0  0  0  0
 64 51  1  0  0  0  0
 12  5  1  0  0  0  0
 40 21  2  0  0  0  0
 63 54  1  0  0  0  0
 39 23  2  0  0  0  0
 37 24  2  0  0  0  0
 29 25  2  0  0  0  0
 36 30  2  0  0  0  0
 46 31  1  0  0  0  0
  1 70  1  0  0  0  0
  6 71  1  0  0  0  0
  8 72  1  0  0  0  0
  8 73  1  0  0  0  0
  8 74  1  0  0  0  0
 11 75  1  0  0  0  0
 20 76  1  0  0  0  0
 34 77  1  0  0  0  0
 34 78  1  0  0  0  0
 35 79  1  0  0  0  0
 35 80  1  0  0  0  0
 35 81  1  0  0  0  0
 42 82  1  0  0  0  0
 42 83  1  0  0  0  0
 43 84  1  0  0  0  0
 43 85  1  0  0  0  0
 43 86  1  0  0  0  0
 47 87  1  0  0  0  0
 50 88  1  0  0  0  0
M  END
