110

C          0.27340       -7.84100        1.15790
C         -0.27370       -8.27450        2.33640
C         -1.48300       -7.69680        2.96500
O         -2.02850       -6.64140        2.71610
C         -1.95500       -8.73070        3.91200
C         -3.09410       -8.72350        4.69300
C         -3.36870       -9.81290        5.51270
C         -4.58460       -9.87730        6.37780
C         -2.46170      -10.87440        5.50300
F         -2.72410      -11.93440        6.29030
C         -1.31200      -10.90780        4.73090
C         -1.05980       -9.81390        3.91950
C          0.02720       -9.52960        2.99030
C          1.17950      -10.25490        2.83950
C          2.26020       -9.85040        2.02740
N          3.18550       -9.55400        1.41580
C          1.44920      -11.45670        3.52500
N          1.71380      -12.43980        4.05530
C          0.08330       -6.57960        0.55870
S          0.04140       -6.54050       -1.20930
C         -0.23520       -4.85650       -1.15380
C         -0.43120       -3.78440       -2.03540
C         -0.59550       -3.73900       -3.43760
C         -0.84850       -2.47360       -4.06490
N         -1.03320       -2.58490       -5.37060
S         -0.89720       -4.14580       -5.77740
N         -0.59560       -4.74050       -4.30270
C         -0.79310       -1.30010       -3.27920
C         -0.78410        0.05290       -3.64020
S         -0.94460        1.02990       -5.05860
C         -0.57630        2.44310       -4.08650
C         -0.41270        3.78330       -4.41370
C         -0.65250        4.31130       -5.79040
C         -2.06450        4.89030       -5.91450
C         -0.03830        4.54200       -3.29260
S          0.08470        3.55680       -1.83380
C         -0.36110        2.15340       -2.72900
C         -0.49880        0.78420       -2.47930
N         -0.38580       -0.06200       -1.41110
C         -0.56520       -1.35220       -1.87200
C         -0.51740       -2.61610       -1.23250
N         -0.45280       -2.98180        0.10570
C         -0.25210       -4.34810        0.15380
C         -0.03940       -5.32070        1.14540
C          0.28680       -5.05890        2.58210
C          1.45510       -4.08070        2.71670
C         -1.13010       -2.30580        1.19840
C         -2.51900       -1.81840        0.79570
C          0.15550        0.41140       -0.15730
C          1.53060       -0.18440        0.12930
C          0.22690        5.91550       -3.35310
C          0.70740        6.77820       -2.40080
C          1.12960        6.42590       -1.04230
O          0.98280        5.35800       -0.47030
C          1.79120        7.62020       -0.49170
C          2.42110        7.73500        0.74570
C          2.98730        8.96660        0.97170
C          2.92560       10.01010        0.03870
C          2.29850        9.91300       -1.18110
C          1.72070        8.66550       -1.43450
C          0.99810        8.18310       -2.61050
C          0.63470        8.94990       -3.68810
C         -0.11810        8.50350       -4.79400
N         -0.73750        8.22280       -5.72040
C          0.93690       10.32010       -3.83180
N          1.14780       11.43300       -4.02050
C          3.72250       10.94620        0.91270
C          5.20360       11.15040        0.52920
C          5.83190       11.69830        1.79020
C          5.89060       10.71030        2.67390
C          5.30290        9.47790        2.02500
C          5.73740        9.71260        0.57250
C          3.79130        9.78270        1.95320
H          0.84300       -8.55190        0.57000
H         -3.76230       -7.87640        4.66100
H         -5.17020       -8.96680        6.29120
H         -5.20300      -10.72730        6.09040
H         -4.29940      -10.02300        7.41900
H         -0.66620      -11.76940        4.77470
H         -0.54240        3.48400       -6.49460
H          0.07800        5.07910       -6.04910
H         -2.19470        5.73770       -5.24620
H         -2.23410        5.22980       -6.93210
H         -2.80610        4.13350       -5.66950
H          0.56700       -5.99980        3.05610
H         -0.59300       -4.68630        3.11230
H          1.67780       -3.91590        3.76790
H          1.23460       -3.12210        2.25680
H          2.34060       -4.49380        2.23890
H         -1.24240       -3.03820        1.99680
H         -0.52260       -1.48410        1.58480
H         -3.12070       -2.65760        0.45380
H         -2.47420       -1.08210       -0.00240
H         -3.00990       -1.36940        1.65530
H         -0.54350        0.21180        0.65700
H          0.24540        1.49660       -0.24700
H          2.22730        0.09660       -0.65670
H          1.49150       -1.26970        0.17760
H          1.90570        0.19770        1.07480
H          0.05390        6.34040       -4.33280
H          2.44390        6.90560        1.43520
H          2.26140       10.72560       -1.88690
H          3.22470       11.87130        1.19650
H          5.36320       11.71740       -0.38380
H          6.10900       12.72740        1.92400
H          6.22660       10.74910        3.69360
H          5.55420        8.52100        2.47490
H          5.26810        9.04260       -0.14560
H          6.81900        9.67180        0.45500
H          3.33980        9.93170        2.93230
