
  xtb     02112201153D
 energy: -193.404833703501 gnorm: 0.000593676959 xtb: 6.4.1 (unknown)
107121  0     0  0            999 V2000
   -0.2918   -8.2167   -2.8525 C   0  0  0  0  0  0  0  0  0  0  0  0
   -0.6960   -7.7850   -4.0815 C   0  0  0  0  0  0  0  0  0  0  0  0
   -0.3042   -8.5454   -5.2958 C   0  0  0  0  0  0  0  0  0  0  0  0
    0.1491   -9.6667   -5.3385 O   0  0  0  0  0  0  0  0  0  0  0  0
   -0.5276   -7.6103   -6.4200 C   0  0  0  0  0  0  0  0  0  0  0  0
   -0.2140   -7.7701   -7.7555 C   0  0  0  0  0  0  0  0  0  0  0  0
   -0.4875   -6.7414   -8.6506 C   0  0  0  0  0  0  0  0  0  0  0  0
   -0.1739   -6.8454  -10.1072 C   0  0  0  0  0  0  0  0  0  0  0  0
   -1.0759   -5.5810   -8.1434 C   0  0  0  0  0  0  0  0  0  0  0  0
   -1.3296   -4.5753   -9.0018 F   0  0  0  0  0  0  0  0  0  0  0  0
   -1.4128   -5.3980   -6.8121 C   0  0  0  0  0  0  0  0  0  0  0  0
   -1.1310   -6.4345   -5.9385 C   0  0  0  0  0  0  0  0  0  0  0  0
   -1.3853   -6.5891   -4.5092 C   0  0  0  0  0  0  0  0  0  0  0  0
   -2.3297   -5.9023   -3.7906 C   0  0  0  0  0  0  0  0  0  0  0  0
   -2.7684   -6.3168   -2.5157 C   0  0  0  0  0  0  0  0  0  0  0  0
   -3.1843   -6.6630   -1.5032 N   0  0  0  0  0  0  0  0  0  0  0  0
   -3.0188   -4.7735   -4.2730 C   0  0  0  0  0  0  0  0  0  0  0  0
   -3.5834   -3.8313   -4.6074 N   0  0  0  0  0  0  0  0  0  0  0  0
   -0.1377   -7.4820   -1.6592 C   0  0  0  0  0  0  0  0  0  0  0  0
    0.0475   -8.0017   -0.3826 C   0  0  0  0  0  0  0  0  0  0  0  0
    0.0369   -9.4528   -0.0323 C   0  0  0  0  0  0  0  0  0  0  0  0
    1.4586  -10.0209   -0.0691 C   0  0  0  0  0  0  0  0  0  0  0  0
    0.2647   -6.9896    0.5558 C   0  0  0  0  0  0  0  0  0  0  0  0
    0.2680   -5.6943    0.0199 C   0  0  0  0  0  0  0  0  0  0  0  0
   -0.0044   -5.7217   -1.6806 S   0  0  0  0  0  0  0  0  0  0  0  0
    0.4809   -4.7272    1.0041 C   0  0  0  0  0  0  0  0  0  0  0  0
    0.6517   -5.2974    2.2716 C   0  0  0  0  0  0  0  0  0  0  0  0
    0.5397   -7.0218    2.2830 S   0  0  0  0  0  0  0  0  0  0  0  0
    0.8892   -4.2424    3.1626 C   0  0  0  0  0  0  0  0  0  0  0  0
    1.2374   -4.2527    4.5313 C   0  0  0  0  0  0  0  0  0  0  0  0
    1.3700   -5.2903    5.3426 N   0  0  0  0  0  0  0  0  0  0  0  0
    1.8562   -4.7505    6.7890 S   0  0  0  0  0  0  0  0  0  0  0  0
    1.9152   -3.1723    6.4361 N   0  0  0  0  0  0  0  0  0  0  0  0
    1.5544   -3.0114    5.1727 C   0  0  0  0  0  0  0  0  0  0  0  0
    1.4044   -1.8104    4.4448 C   0  0  0  0  0  0  0  0  0  0  0  0
    1.5412   -0.4745    4.8459 C   0  0  0  0  0  0  0  0  0  0  0  0
    2.0188    0.4344    6.2377 S   0  0  0  0  0  0  0  0  0  0  0  0
    1.6798    1.9076    5.3604 C   0  0  0  0  0  0  0  0  0  0  0  0
    1.7627    3.2570    5.6915 C   0  0  0  0  0  0  0  0  0  0  0  0
    1.3989    4.0862    4.6469 C   0  0  0  0  0  0  0  0  0  0  0  0
    0.8882    3.1614    3.2388 S   0  0  0  0  0  0  0  0  0  0  0  0
    1.2157    1.6801    4.0553 C   0  0  0  0  0  0  0  0  0  0  0  0
    1.1458    0.3166    3.7607 C   0  0  0  0  0  0  0  0  0  0  0  0
    0.8022   -0.4762    2.7002 N   0  0  0  0  0  0  0  0  0  0  0  0
    0.0530    0.0924    1.6015 C   0  0  0  0  0  0  0  0  0  0  0  0
   -1.4024   -0.3684    1.6177 C   0  0  0  0  0  0  0  0  0  0  0  0
    0.9656   -1.7962    3.0880 C   0  0  0  0  0  0  0  0  0  0  0  0
    0.8124   -3.0341    2.4087 C   0  0  0  0  0  0  0  0  0  0  0  0
    0.5707   -3.3646    1.0856 N   0  0  0  0  0  0  0  0  0  0  0  0
    0.7472   -2.5905   -0.1230 C   0  0  0  0  0  0  0  0  0  0  0  0
    2.1743   -2.0630   -0.2473 C   0  0  0  0  0  0  0  0  0  0  0  0
    1.3132    5.4970    4.6962 C   0  0  0  0  0  0  0  0  0  0  0  0
    1.1655    6.3845    3.6773 C   0  0  0  0  0  0  0  0  0  0  0  0
    0.5889    7.7318    3.9419 C   0  0  0  0  0  0  0  0  0  0  0  0
    0.4838    8.2766    5.0168 O   0  0  0  0  0  0  0  0  0  0  0  0
    0.1149    8.2100    2.6280 C   0  0  0  0  0  0  0  0  0  0  0  0
   -0.6390    9.3522    2.3672 C   0  0  0  0  0  0  0  0  0  0  0  0
   -0.9709    9.5144    1.0434 C   0  0  0  0  0  0  0  0  0  0  0  0
   -0.5829    8.6100    0.0449 C   0  0  0  0  0  0  0  0  0  0  0  0
    0.1727    7.4869    0.2833 C   0  0  0  0  0  0  0  0  0  0  0  0
    0.5183    7.3037    1.6237 C   0  0  0  0  0  0  0  0  0  0  0  0
    1.3222    6.2559    2.2444 C   0  0  0  0  0  0  0  0  0  0  0  0
    2.2639    5.4888    1.6100 C   0  0  0  0  0  0  0  0  0  0  0  0
    2.4411    5.4437    0.2139 C   0  0  0  0  0  0  0  0  0  0  0  0
    2.6100    5.3442   -0.9175 N   0  0  0  0  0  0  0  0  0  0  0  0
    3.2214    4.7222    2.3075 C   0  0  0  0  0  0  0  0  0  0  0  0
    4.0443    4.1287    2.8444 N   0  0  0  0  0  0  0  0  0  0  0  0
   -1.2927    9.3796   -1.0398 C   0  0  0  0  0  0  0  0  0  0  0  0
   -2.6500    8.8271   -1.5423 C   0  0  0  0  0  0  0  0  0  0  0  0
   -3.2415    8.0367   -0.4017 C   0  0  0  0  0  0  0  0  0  0  0  0
   -3.6056    8.8961    0.5408 C   0  0  0  0  0  0  0  0  0  0  0  0
   -3.2662   10.2833    0.0545 C   0  0  0  0  0  0  0  0  0  0  0  0
   -3.4989   10.1054   -1.4543 C   0  0  0  0  0  0  0  0  0  0  0  0
   -1.7208   10.3899    0.0707 C   0  0  0  0  0  0  0  0  0  0  0  0
    0.0533   -9.2452   -2.8218 H   0  0  0  0  0  0  0  0  0  0  0  0
    0.2390   -8.6892   -8.0949 H   0  0  0  0  0  0  0  0  0  0  0  0
    0.4858   -6.0324  -10.4088 H   0  0  0  0  0  0  0  0  0  0  0  0
   -1.0869   -6.7556  -10.6950 H   0  0  0  0  0  0  0  0  0  0  0  0
    0.3027   -7.7946  -10.3335 H   0  0  0  0  0  0  0  0  0  0  0  0
   -1.8640   -4.4711   -6.4974 H   0  0  0  0  0  0  0  0  0  0  0  0
   -0.6037  -10.0043   -0.7202 H   0  0  0  0  0  0  0  0  0  0  0  0
   -0.3656   -9.5614    0.9767 H   0  0  0  0  0  0  0  0  0  0  0  0
    1.4452  -11.0721    0.2055 H   0  0  0  0  0  0  0  0  0  0  0  0
    1.8849   -9.9279   -1.0655 H   0  0  0  0  0  0  0  0  0  0  0  0
    2.0966   -9.4876    0.6316 H   0  0  0  0  0  0  0  0  0  0  0  0
    2.0983    3.6308    6.6413 H   0  0  0  0  0  0  0  0  0  0  0  0
    0.0877    1.1769    1.7320 H   0  0  0  0  0  0  0  0  0  0  0  0
    0.5368   -0.1275    0.6499 H   0  0  0  0  0  0  0  0  0  0  0  0
   -1.4757   -1.4521    1.5661 H   0  0  0  0  0  0  0  0  0  0  0  0
   -1.9358    0.0605    0.7738 H   0  0  0  0  0  0  0  0  0  0  0  0
   -1.8857   -0.0404    2.5351 H   0  0  0  0  0  0  0  0  0  0  0  0
    0.5400   -3.2663   -0.9564 H   0  0  0  0  0  0  0  0  0  0  0  0
    0.0124   -1.7873   -0.1762 H   0  0  0  0  0  0  0  0  0  0  0  0
    2.8742   -2.8939   -0.3007 H   0  0  0  0  0  0  0  0  0  0  0  0
    2.4448   -1.4475    0.6074 H   0  0  0  0  0  0  0  0  0  0  0  0
    2.2723   -1.4703   -1.1527 H   0  0  0  0  0  0  0  0  0  0  0  0
    1.2647    5.9218    5.6942 H   0  0  0  0  0  0  0  0  0  0  0  0
   -0.9190   10.0259    3.1618 H   0  0  0  0  0  0  0  0  0  0  0  0
    0.4640    6.7922   -0.4879 H   0  0  0  0  0  0  0  0  0  0  0  0
   -0.6684    9.7465   -1.8518 H   0  0  0  0  0  0  0  0  0  0  0  0
   -2.6032    8.3217   -2.5032 H   0  0  0  0  0  0  0  0  0  0  0  0
   -3.2814    6.9634   -0.3733 H   0  0  0  0  0  0  0  0  0  0  0  0
   -4.0097    8.6839    1.5133 H   0  0  0  0  0  0  0  0  0  0  0  0
   -3.7807   11.1040    0.5472 H   0  0  0  0  0  0  0  0  0  0  0  0
   -4.5455    9.9334   -1.7012 H   0  0  0  0  0  0  0  0  0  0  0  0
   -3.1096   10.9271   -2.0536 H   0  0  0  0  0  0  0  0  0  0  0  0
   -1.3740   11.4178   -0.0143 H   0  0  0  0  0  0  0  0  0  0  0  0
  1  2  2  0  0  0  0
  2  3  1  0  0  0  0
  3  4  2  0  0  0  0
  3  5  1  0  0  0  0
  5  6  2  0  0  0  0
  6  7  1  0  0  0  0
  7  8  1  0  0  0  0
  7  9  2  0  0  0  0
  9 10  1  0  0  0  0
  9 11  1  0  0  0  0
 11 12  2  0  0  0  0
 12 13  1  0  0  0  0
 13 14  2  0  0  0  0
 14 15  1  0  0  0  0
 15 16  3  0  0  0  0
 14 17  1  0  0  0  0
 17 18  3  0  0  0  0
  1 19  1  0  0  0  0
 19 20  2  0  0  0  0
 20 21  1  0  0  0  0
 21 22  1  0  0  0  0
 20 23  1  0  0  0  0
 23 24  2  0  0  0  0
 24 25  1  0  0  0  0
 24 26  1  0  0  0  0
 26 27  2  0  0  0  0
 27 28  1  0  0  0  0
 27 29  1  0  0  0  0
 29 30  1  0  0  0  0
 30 31  2  0  0  0  0
 31 32  1  0  0  0  0
 32 33  1  0  0  0  0
 33 34  2  0  0  0  0
 34 35  1  0  0  0  0
 35 36  1  0  0  0  0
 36 37  1  0  0  0  0
 37 38  1  0  0  0  0
 38 39  1  0  0  0  0
 39 40  2  0  0  0  0
 40 41  1  0  0  0  0
 41 42  1  0  0  0  0
 42 43  1  0  0  0  0
 43 44  1  0  0  0  0
 44 45  1  0  0  0  0
 45 46  1  0  0  0  0
 44 47  1  0  0  0  0
 47 48  1  0  0  0  0
 48 49  1  0  0  0  0
 49 50  1  0  0  0  0
 50 51  1  0  0  0  0
 40 52  1  0  0  0  0
 52 53  2  0  0  0  0
 53 54  1  0  0  0  0
 54 55  2  0  0  0  0
 54 56  1  0  0  0  0
 56 57  2  0  0  0  0
 57 58  1  0  0  0  0
 58 59  2  0  0  0  0
 59 60  1  0  0  0  0
 60 61  2  0  0  0  0
 61 62  1  0  0  0  0
 62 63  2  0  0  0  0
 63 64  1  0  0  0  0
 64 65  3  0  0  0  0
 63 66  1  0  0  0  0
 66 67  3  0  0  0  0
 59 68  1  0  0  0  0
 68 69  1  0  0  0  0
 69 70  1  0  0  0  0
 70 71  2  0  0  0  0
 71 72  1  0  0  0  0
 72 73  1  0  0  0  0
 72 74  1  0  0  0  0
 13  2  1  0  0  0  0
 25 19  1  0  0  0  0
 49 26  1  0  0  0  0
 62 53  1  0  0  0  0
 74 68  1  0  0  0  0
 12  5  1  0  0  0  0
 28 23  1  0  0  0  0
 48 29  2  0  0  0  0
 61 56  1  0  0  0  0
 73 69  1  0  0  0  0
 34 30  1  0  0  0  0
 47 35  2  0  0  0  0
 74 58  1  0  0  0  0
 43 36  2  0  0  0  0
 42 38  2  0  0  0  0
  1 75  1  0  0  0  0
  6 76  1  0  0  0  0
  8 77  1  0  0  0  0
  8 78  1  0  0  0  0
  8 79  1  0  0  0  0
 11 80  1  0  0  0  0
 21 81  1  0  0  0  0
 21 82  1  0  0  0  0
 22 83  1  0  0  0  0
 22 84  1  0  0  0  0
 22 85  1  0  0  0  0
 39 86  1  0  0  0  0
 45 87  1  0  0  0  0
 45 88  1  0  0  0  0
 46 89  1  0  0  0  0
 46 90  1  0  0  0  0
 46 91  1  0  0  0  0
 50 92  1  0  0  0  0
 50 93  1  0  0  0  0
 51 94  1  0  0  0  0
 51 95  1  0  0  0  0
 51 96  1  0  0  0  0
 52 97  1  0  0  0  0
 57 98  1  0  0  0  0
 60 99  1  0  0  0  0
 68100  1  0  0  0  0
 69101  1  0  0  0  0
 70102  1  0  0  0  0
 71103  1  0  0  0  0
 72104  1  0  0  0  0
 73105  1  0  0  0  0
 73106  1  0  0  0  0
 74107  1  0  0  0  0
M  END
