107

C         -3.18890        8.29930       -2.11820
C         -4.48810        8.58090       -2.45370
C         -5.67150        7.70140       -2.33280
O         -5.81300        6.69130       -1.67260
C         -6.69090        8.29120       -3.22530
C         -7.93470        7.78750       -3.55200
C         -8.74390        8.48850       -4.43880
C        -10.09430        7.99910       -4.84850
C         -8.24810        9.68820       -4.95360
F         -9.02280       10.36990       -5.81820
C         -7.00810       10.21870       -4.63680
C         -6.21510        9.50050       -3.75620
C         -4.87790        9.74710       -3.22700
C         -4.16710       10.90870       -3.37250
C         -2.92850       11.18570       -2.75490
N         -1.93650       11.49730       -2.26760
C         -4.61710       12.01510       -4.12310
N         -4.92800       12.94240       -4.72380
C         -2.65070        7.21740       -1.40040
S         -0.90610        6.94290       -1.58790
C         -1.01010        5.55310       -0.58690
C         -0.25650        4.49480       -0.09620
S          1.35080        3.88190       -0.25670
C          0.89460        2.49940        0.71720
C          1.75720        1.43700        0.93200
O          3.02940        1.47470        0.41760
C          3.93190        2.34230        1.10460
C          5.12800        2.59450        0.20530
C          1.27260        0.32990        1.64030
C         -0.01360        0.42060        2.25880
C         -0.86930        1.49960        2.06290
O         -2.07430        1.72000        2.64370
C         -2.88550        0.69060        3.18430
C         -3.42430       -0.26100        2.12320
C         -0.43650        2.53350        1.20070
C         -1.10580        3.68880        0.69370
N         -2.36760        4.22380        0.67510
C         -2.32360        5.35560       -0.09510
C         -3.24180        6.29150       -0.55420
C         -3.58750        3.78960        1.31230
C         -3.72910        4.38910        2.70830
S         -0.37200       -0.99170        3.26100
C          1.07480       -1.75820        2.72130
C          1.68120       -3.00470        2.80200
S          1.48210       -4.56940        3.47870
C          2.89700       -5.14740        2.57310
C          3.50470       -4.13750        1.84300
C          2.82670       -2.93140        1.97170
N          2.92940       -1.67860        1.42790
C          3.99870       -1.33220        0.52140
C          5.31970       -1.16570        1.26920
C          1.86030       -0.94910        1.87670
C          3.19020       -6.51660        2.69590
C          3.95870       -7.33280        1.90650
C          4.54240       -7.03100        0.58080
O          4.73700       -5.95170        0.05710
C          4.83690       -8.34270       -0.02760
C          5.27400       -8.61190       -1.29200
C          5.45800       -9.95640       -1.68450
C          5.89200      -10.29250       -2.98290
C          6.05380      -11.59790       -3.35570
C          5.78320      -12.60750       -2.42230
F          5.94670      -13.88650       -2.80790
C          5.36250      -12.33660       -1.15000
C          5.18870      -10.99760       -0.74930
C          4.74770      -10.68630        0.55840
C          4.57370       -9.37570        0.91370
C          4.11840       -8.75530        2.15300
C          3.95320       -9.39970        3.35100
C          3.63380       -8.76900        4.57230
N          3.40510       -8.32400        5.60600
C          4.14260      -10.78570        3.52870
N          4.27540      -11.90800        3.73080
H         -2.43540        8.96730       -2.52050
H         -8.26600        6.85420       -3.12250
H        -10.13710        7.87870       -5.93050
H        -10.85750        8.72650       -4.57390
H        -10.32130        7.04850       -4.37480
H         -6.70020       11.14910       -5.08440
H          3.43640        3.28810        1.35000
H          4.24110        1.86370        2.04520
H          4.80160        3.07680       -0.71180
H          5.61400        1.65650       -0.04710
H          5.83810        3.23930        0.71460
H         -2.35930        0.14120        3.96990
H         -3.71000        1.23950        3.64870
H         -2.61280       -0.77580        1.61560
H         -4.00700        0.28280        1.38270
H         -4.06190       -1.00150        2.59640
H         -4.28670        6.31980       -0.31200
H         -4.41550        4.11610        0.67790
H         -3.59160        2.70310        1.36490
H         -3.69230        5.47490        2.65920
H         -4.67920        4.09260        3.14360
H         -2.92370        4.03700        3.34700
H          4.37850       -4.30630        1.24340
H          3.73350       -0.41040        0.00600
H          4.09030       -2.14080       -0.21060
H          5.58360       -2.08220        1.79140
H          6.11240       -0.92900        0.56510
H          5.24830       -0.36210        1.99780
H          2.65080       -7.00160        3.50220
H          5.46910       -7.80920       -1.98760
H          6.09350       -9.49690       -3.68450
H          6.38220      -11.87220       -4.34570
H          5.16450      -13.13980       -0.45740
H          4.54600      -11.49580        1.24140
