
  xtb     01262217073D
 energy: -352.920809624986 gnorm: 0.000345271890 xtb: 6.4.1 (unknown)
221244  0     0  0            999 V2000
    1.7505   11.0044    4.2547 C   0  0  0  0  0  0  0  0  0  0  0  0
    1.9773   11.3871    5.5570 C   0  0  0  0  0  0  0  0  0  0  0  0
    2.4202   10.5079    6.6408 C   0  0  0  0  0  0  0  0  0  0  0  0
    2.6956    9.3219    6.5751 O   0  0  0  0  0  0  0  0  0  0  0  0
    2.4697   11.3467    7.8535 C   0  0  0  0  0  0  0  0  0  0  0  0
    2.8126   10.9825    9.1400 C   0  0  0  0  0  0  0  0  0  0  0  0
    2.7879   11.9389   10.1495 C   0  0  0  0  0  0  0  0  0  0  0  0
    3.1398   11.6177   11.5652 C   0  0  0  0  0  0  0  0  0  0  0  0
    2.4148   13.2365    9.7968 C   0  0  0  0  0  0  0  0  0  0  0  0
    2.3891   14.1707   10.7671 F   0  0  0  0  0  0  0  0  0  0  0  0
    2.0670   13.6270    8.5133 C   0  0  0  0  0  0  0  0  0  0  0  0
    2.0937   12.6590    7.5226 C   0  0  0  0  0  0  0  0  0  0  0  0
    1.7878   12.7177    6.0930 C   0  0  0  0  0  0  0  0  0  0  0  0
    1.3965   13.8472    5.4189 C   0  0  0  0  0  0  0  0  0  0  0  0
    1.1125   13.9314    4.0408 C   0  0  0  0  0  0  0  0  0  0  0  0
    0.8689   14.0920    2.9290 N   0  0  0  0  0  0  0  0  0  0  0  0
    1.2233   15.1082    6.0264 C   0  0  0  0  0  0  0  0  0  0  0  0
    1.0606   16.1607    6.4555 N   0  0  0  0  0  0  0  0  0  0  0  0
    1.8735    9.7579    3.6379 C   0  0  0  0  0  0  0  0  0  0  0  0
    2.4103    8.2570    4.3900 S   0  0  0  0  0  0  0  0  0  0  0  0
    2.1878    7.4386    2.9056 C   0  0  0  0  0  0  0  0  0  0  0  0
    2.2912    6.1231    2.4075 C   0  0  0  0  0  0  0  0  0  0  0  0
    1.8894    6.1039    1.0720 C   0  0  0  0  0  0  0  0  0  0  0  0
    1.5064    7.4842    0.5971 C   0  0  0  0  0  0  0  0  0  0  0  0
    1.7253    8.2723    1.8691 C   0  0  0  0  0  0  0  0  0  0  0  0
    1.5486    9.5684    2.2827 C   0  0  0  0  0  0  0  0  0  0  0  0
    0.0470    7.5865    0.1894 C   0  0  0  0  0  0  0  0  0  0  0  0
   -0.8873    6.6464    0.6005 C   0  0  0  0  0  0  0  0  0  0  0  0
   -2.2114    6.7619    0.2211 C   0  0  0  0  0  0  0  0  0  0  0  0
   -2.6395    7.8223   -0.5659 C   0  0  0  0  0  0  0  0  0  0  0  0
   -4.0676    7.9041   -1.0224 C   0  0  0  0  0  0  0  0  0  0  0  0
   -4.2835    7.0320   -2.2613 C   0  0  0  0  0  0  0  0  0  0  0  0
   -1.7052    8.7744   -0.9527 C   0  0  0  0  0  0  0  0  0  0  0  0
   -0.3797    8.6627   -0.5777 C   0  0  0  0  0  0  0  0  0  0  0  0
    2.4310    7.8693   -0.5436 C   0  0  0  0  0  0  0  0  0  0  0  0
    2.1905    7.3526   -1.8110 C   0  0  0  0  0  0  0  0  0  0  0  0
    3.0361    7.6516   -2.8611 C   0  0  0  0  0  0  0  0  0  0  0  0
    4.1436    8.4693   -2.6741 C   0  0  0  0  0  0  0  0  0  0  0  0
    5.0297    8.8383   -3.8285 C   0  0  0  0  0  0  0  0  0  0  0  0
    4.5078   10.1015   -4.5165 C   0  0  0  0  0  0  0  0  0  0  0  0
    4.3823    8.9759   -1.4042 C   0  0  0  0  0  0  0  0  0  0  0  0
    3.5417    8.6761   -0.3472 C   0  0  0  0  0  0  0  0  0  0  0  0
    1.8982    4.8163    0.5521 C   0  0  0  0  0  0  0  0  0  0  0  0
    1.4154    4.1029   -0.9570 S   0  0  0  0  0  0  0  0  0  0  0  0
    1.6954    2.5339   -0.2815 C   0  0  0  0  0  0  0  0  0  0  0  0
    1.4388    1.1945   -0.7065 C   0  0  0  0  0  0  0  0  0  0  0  0
    0.8877    0.7024   -1.8860 C   0  0  0  0  0  0  0  0  0  0  0  0
    0.6220   -0.6451   -1.9383 C   0  0  0  0  0  0  0  0  0  0  0  0
   -0.0520   -1.4201   -3.0582 C   0  0  0  0  0  0  0  0  0  0  0  0
   -1.3439   -0.7179   -3.4233 C   0  0  0  0  0  0  0  0  0  0  0  0
   -2.5240   -0.9936   -2.7478 C   0  0  0  0  0  0  0  0  0  0  0  0
   -3.6820   -0.2992   -3.0461 C   0  0  0  0  0  0  0  0  0  0  0  0
   -3.6898    0.6916   -4.0179 C   0  0  0  0  0  0  0  0  0  0  0  0
   -4.9313    1.4867   -4.3027 C   0  0  0  0  0  0  0  0  0  0  0  0
   -4.9494    2.7644   -3.4606 C   0  0  0  0  0  0  0  0  0  0  0  0
   -2.5038    0.9694   -4.6856 C   0  0  0  0  0  0  0  0  0  0  0  0
   -1.3450    0.2766   -4.3934 C   0  0  0  0  0  0  0  0  0  0  0  0
    0.8385   -1.6397   -4.2690 C   0  0  0  0  0  0  0  0  0  0  0  0
    0.2856   -2.1865   -5.4211 C   0  0  0  0  0  0  0  0  0  0  0  0
    1.0761   -2.4454   -6.5234 C   0  0  0  0  0  0  0  0  0  0  0  0
    2.4383   -2.1713   -6.5039 C   0  0  0  0  0  0  0  0  0  0  0  0
    3.2864   -2.4074   -7.7201 C   0  0  0  0  0  0  0  0  0  0  0  0
    3.2839   -1.1704   -8.6207 C   0  0  0  0  0  0  0  0  0  0  0  0
    2.9853   -1.6308   -5.3486 C   0  0  0  0  0  0  0  0  0  0  0  0
    2.1990   -1.3723   -4.2400 C   0  0  0  0  0  0  0  0  0  0  0  0
   -0.2424   -2.7585   -2.3960 C   0  0  0  0  0  0  0  0  0  0  0  0
    0.3514   -2.7706   -1.1458 C   0  0  0  0  0  0  0  0  0  0  0  0
    0.8858   -1.4828   -0.8292 C   0  0  0  0  0  0  0  0  0  0  0  0
    1.4868   -0.9989    0.3303 C   0  0  0  0  0  0  0  0  0  0  0  0
    1.7671    0.3466    0.3773 C   0  0  0  0  0  0  0  0  0  0  0  0
    2.3409    1.1478    1.5351 C   0  0  0  0  0  0  0  0  0  0  0  0
    1.5549    0.8492    2.7954 C   0  0  0  0  0  0  0  0  0  0  0  0
    1.9260   -0.2126    3.6107 C   0  0  0  0  0  0  0  0  0  0  0  0
    1.1930   -0.5180    4.7413 C   0  0  0  0  0  0  0  0  0  0  0  0
    0.0712    0.2244    5.0871 C   0  0  0  0  0  0  0  0  0  0  0  0
   -0.6899   -0.0756    6.3460 C   0  0  0  0  0  0  0  0  0  0  0  0
   -0.0916    0.6920    7.5265 C   0  0  0  0  0  0  0  0  0  0  0  0
   -0.3006    1.2784    4.2641 C   0  0  0  0  0  0  0  0  0  0  0  0
    0.4254    1.5833    3.1276 C   0  0  0  0  0  0  0  0  0  0  0  0
    3.8313    0.9330    1.7404 C   0  0  0  0  0  0  0  0  0  0  0  0
    4.6109    0.2405    0.8263 C   0  0  0  0  0  0  0  0  0  0  0  0
    5.9725    0.1041    1.0315 C   0  0  0  0  0  0  0  0  0  0  0  0
    6.5880    0.6589    2.1447 C   0  0  0  0  0  0  0  0  0  0  0  0
    8.0724    0.5458    2.3402 C   0  0  0  0  0  0  0  0  0  0  0  0
    8.7897    1.7276    1.6845 C   0  0  0  0  0  0  0  0  0  0  0  0
    5.8032    1.3631    3.0499 C   0  0  0  0  0  0  0  0  0  0  0  0
    4.4435    1.4998    2.8522 C   0  0  0  0  0  0  0  0  0  0  0  0
    2.1611    2.5525    1.0215 C   0  0  0  0  0  0  0  0  0  0  0  0
    2.2924    3.8525    1.5049 C   0  0  0  0  0  0  0  0  0  0  0  0
    2.6978    4.5596    3.0388 S   0  0  0  0  0  0  0  0  0  0  0  0
    0.1702   -4.2673   -0.2929 S   0  0  0  0  0  0  0  0  0  0  0  0
   -0.7498   -4.8957   -1.6269 C   0  0  0  0  0  0  0  0  0  0  0  0
   -1.4640   -6.0648   -1.8631 C   0  0  0  0  0  0  0  0  0  0  0  0
   -2.0989   -6.0327   -3.1045 C   0  0  0  0  0  0  0  0  0  0  0  0
   -1.8308   -4.5710   -3.9972 S   0  0  0  0  0  0  0  0  0  0  0  0
   -0.8644   -3.9705   -2.6858 C   0  0  0  0  0  0  0  0  0  0  0  0
   -2.8391   -7.2218   -3.2701 C   0  0  0  0  0  0  0  0  0  0  0  0
   -3.8943   -7.9190   -4.4148 S   0  0  0  0  0  0  0  0  0  0  0  0
   -4.1438   -9.3148   -3.3517 C   0  0  0  0  0  0  0  0  0  0  0  0
   -3.4034   -9.1950   -2.1770 C   0  0  0  0  0  0  0  0  0  0  0  0
   -2.6682   -8.0290   -2.1336 C   0  0  0  0  0  0  0  0  0  0  0  0
   -1.7512   -7.3563   -1.1381 C   0  0  0  0  0  0  0  0  0  0  0  0
   -0.4306   -8.0754   -0.9212 C   0  0  0  0  0  0  0  0  0  0  0  0
    0.3824   -7.6848    0.1356 C   0  0  0  0  0  0  0  0  0  0  0  0
    1.6058   -8.2925    0.3383 C   0  0  0  0  0  0  0  0  0  0  0  0
    2.0484   -9.3034   -0.5058 C   0  0  0  0  0  0  0  0  0  0  0  0
    3.3954   -9.9358   -0.3052 C   0  0  0  0  0  0  0  0  0  0  0  0
    4.4715   -9.1508   -1.0581 C   0  0  0  0  0  0  0  0  0  0  0  0
    1.2358   -9.6808   -1.5657 C   0  0  0  0  0  0  0  0  0  0  0  0
    0.0109   -9.0733   -1.7766 C   0  0  0  0  0  0  0  0  0  0  0  0
   -2.4925   -7.1824    0.1751 C   0  0  0  0  0  0  0  0  0  0  0  0
   -2.6279   -8.2791    1.0177 C   0  0  0  0  0  0  0  0  0  0  0  0
   -3.3104   -8.1626    2.2123 C   0  0  0  0  0  0  0  0  0  0  0  0
   -3.8715   -6.9514    2.5984 C   0  0  0  0  0  0  0  0  0  0  0  0
   -4.6405   -6.8340    3.8827 C   0  0  0  0  0  0  0  0  0  0  0  0
   -6.1238   -7.1248    3.6457 C   0  0  0  0  0  0  0  0  0  0  0  0
   -3.7451   -5.8644    1.7454 C   0  0  0  0  0  0  0  0  0  0  0  0
   -3.0689   -5.9767    0.5438 C   0  0  0  0  0  0  0  0  0  0  0  0
   -5.0218  -10.2997   -3.8282 C   0  0  0  0  0  0  0  0  0  0  0  0
   -5.5007  -11.4518   -3.2587 C   0  0  0  0  0  0  0  0  0  0  0  0
   -5.2555  -12.0015   -1.9012 C   0  0  0  0  0  0  0  0  0  0  0  0
   -4.5274  -11.5848   -1.0228 O   0  0  0  0  0  0  0  0  0  0  0  0
   -6.1002  -13.2014   -1.8171 C   0  0  0  0  0  0  0  0  0  0  0  0
   -6.7709  -13.3776   -3.0178 C   0  0  0  0  0  0  0  0  0  0  0  0
   -7.7979  -14.7659   -3.0475 S   0  0  0  0  0  0  0  0  0  0  0  0
   -7.3315  -15.1281   -1.4143 C   0  0  0  0  0  0  0  0  0  0  0  0
   -7.6719  -16.1464   -0.5048 C   0  0  0  0  0  0  0  0  0  0  0  0
   -7.0219  -15.9808    0.6778 C   0  0  0  0  0  0  0  0  0  0  0  0
   -5.9838  -14.5968    0.7257 S   0  0  0  0  0  0  0  0  0  0  0  0
   -6.4182  -14.2027   -0.8928 C   0  0  0  0  0  0  0  0  0  0  0  0
   -6.4321  -12.3375   -3.9482 C   0  0  0  0  0  0  0  0  0  0  0  0
   -6.9250  -12.2678   -5.2296 C   0  0  0  0  0  0  0  0  0  0  0  0
   -7.8280  -13.2423   -5.7028 C   0  0  0  0  0  0  0  0  0  0  0  0
   -8.5646  -14.0273   -6.1018 N   0  0  0  0  0  0  0  0  0  0  0  0
   -6.6239  -11.2976   -6.2027 C   0  0  0  0  0  0  0  0  0  0  0  0
   -6.4314  -10.5525   -7.0563 N   0  0  0  0  0  0  0  0  0  0  0  0
    1.4060   11.7768    3.5776 H   0  0  0  0  0  0  0  0  0  0  0  0
    3.0945    9.9624    9.3524 H   0  0  0  0  0  0  0  0  0  0  0  0
    2.2977   11.8384   12.2205 H   0  0  0  0  0  0  0  0  0  0  0  0
    3.9757   12.2341   11.8943 H   0  0  0  0  0  0  0  0  0  0  0  0
    3.4067   10.5701   11.6689 H   0  0  0  0  0  0  0  0  0  0  0  0
    1.7904   14.6523    8.3320 H   0  0  0  0  0  0  0  0  0  0  0  0
    1.1972   10.3760    1.6651 H   0  0  0  0  0  0  0  0  0  0  0  0
   -0.5849    5.8149    1.2201 H   0  0  0  0  0  0  0  0  0  0  0  0
   -2.9234    6.0153    0.5434 H   0  0  0  0  0  0  0  0  0  0  0  0
   -4.3229    8.9383   -1.2596 H   0  0  0  0  0  0  0  0  0  0  0  0
   -4.7304    7.5626   -0.2243 H   0  0  0  0  0  0  0  0  0  0  0  0
   -4.0484    5.9932   -2.0404 H   0  0  0  0  0  0  0  0  0  0  0  0
   -5.3177    7.0909   -2.5921 H   0  0  0  0  0  0  0  0  0  0  0  0
   -3.6396    7.3634   -3.0729 H   0  0  0  0  0  0  0  0  0  0  0  0
   -2.0180    9.6149   -1.5555 H   0  0  0  0  0  0  0  0  0  0  0  0
    0.3335    9.4105   -0.8925 H   0  0  0  0  0  0  0  0  0  0  0  0
    1.3310    6.7188   -1.9755 H   0  0  0  0  0  0  0  0  0  0  0  0
    2.8338    7.2419   -3.8403 H   0  0  0  0  0  0  0  0  0  0  0  0
    5.0571    8.0200   -4.5508 H   0  0  0  0  0  0  0  0  0  0  0  0
    6.0467    9.0161   -3.4734 H   0  0  0  0  0  0  0  0  0  0  0  0
    5.1489   10.3729   -5.3519 H   0  0  0  0  0  0  0  0  0  0  0  0
    4.4823   10.9314   -3.8139 H   0  0  0  0  0  0  0  0  0  0  0  0
    3.4992    9.9391   -4.8902 H   0  0  0  0  0  0  0  0  0  0  0  0
    5.2395    9.6120   -1.2359 H   0  0  0  0  0  0  0  0  0  0  0  0
    3.7533    9.0778    0.6326 H   0  0  0  0  0  0  0  0  0  0  0  0
    0.6517    1.3632   -2.7059 H   0  0  0  0  0  0  0  0  0  0  0  0
   -2.5410   -1.7534   -1.9797 H   0  0  0  0  0  0  0  0  0  0  0  0
   -4.5933   -0.5314   -2.5133 H   0  0  0  0  0  0  0  0  0  0  0  0
   -5.8158    0.8900   -4.0721 H   0  0  0  0  0  0  0  0  0  0  0  0
   -4.9653    1.7538   -5.3608 H   0  0  0  0  0  0  0  0  0  0  0  0
   -5.8455    3.3447   -3.6678 H   0  0  0  0  0  0  0  0  0  0  0  0
   -4.9310    2.5184   -2.4011 H   0  0  0  0  0  0  0  0  0  0  0  0
   -4.0791    3.3776   -3.6842 H   0  0  0  0  0  0  0  0  0  0  0  0
   -2.4876    1.7380   -5.4453 H   0  0  0  0  0  0  0  0  0  0  0  0
   -0.4344    0.5038   -4.9291 H   0  0  0  0  0  0  0  0  0  0  0  0
   -0.7725   -2.4033   -5.4546 H   0  0  0  0  0  0  0  0  0  0  0  0
    0.6295   -2.8704   -7.4107 H   0  0  0  0  0  0  0  0  0  0  0  0
    4.3118   -2.6313   -7.4193 H   0  0  0  0  0  0  0  0  0  0  0  0
    2.9000   -3.2609   -8.2806 H   0  0  0  0  0  0  0  0  0  0  0  0
    3.8975   -1.3400   -9.5024 H   0  0  0  0  0  0  0  0  0  0  0  0
    2.2707   -0.9386   -8.9416 H   0  0  0  0  0  0  0  0  0  0  0  0
    3.6776   -0.3105   -8.0832 H   0  0  0  0  0  0  0  0  0  0  0  0
    4.0432   -1.4121   -5.3112 H   0  0  0  0  0  0  0  0  0  0  0  0
    2.6497   -0.9575   -3.3503 H   0  0  0  0  0  0  0  0  0  0  0  0
    1.6895   -1.6536    1.1639 H   0  0  0  0  0  0  0  0  0  0  0  0
    2.8009   -0.7971    3.3642 H   0  0  0  0  0  0  0  0  0  0  0  0
    1.4966   -1.3469    5.3649 H   0  0  0  0  0  0  0  0  0  0  0  0
   -1.7364    0.2109    6.2236 H   0  0  0  0  0  0  0  0  0  0  0  0
   -0.6507   -1.1465    6.5560 H   0  0  0  0  0  0  0  0  0  0  0  0
   -0.6438    0.4787    8.4387 H   0  0  0  0  0  0  0  0  0  0  0  0
   -0.1292    1.7628    7.3392 H   0  0  0  0  0  0  0  0  0  0  0  0
    0.9479    0.4078    7.6745 H   0  0  0  0  0  0  0  0  0  0  0  0
   -1.1722    1.8672    4.5122 H   0  0  0  0  0  0  0  0  0  0  0  0
    0.1066    2.3997    2.4959 H   0  0  0  0  0  0  0  0  0  0  0  0
    4.1562   -0.2003   -0.0488 H   0  0  0  0  0  0  0  0  0  0  0  0
    6.5646   -0.4453    0.3132 H   0  0  0  0  0  0  0  0  0  0  0  0
    8.3051    0.5315    3.4069 H   0  0  0  0  0  0  0  0  0  0  0  0
    8.4345   -0.3847    1.8985 H   0  0  0  0  0  0  0  0  0  0  0  0
    9.8650    1.6458    1.8250 H   0  0  0  0  0  0  0  0  0  0  0  0
    8.4521    2.6647    2.1214 H   0  0  0  0  0  0  0  0  0  0  0  0
    8.5792    1.7531    0.6176 H   0  0  0  0  0  0  0  0  0  0  0  0
    6.2618    1.8077    3.9214 H   0  0  0  0  0  0  0  0  0  0  0  0
    3.8472    2.0442    3.5703 H   0  0  0  0  0  0  0  0  0  0  0  0
   -3.4294   -9.9443   -1.4080 H   0  0  0  0  0  0  0  0  0  0  0  0
    0.0494   -6.9065    0.8069 H   0  0  0  0  0  0  0  0  0  0  0  0
    2.2242   -7.9798    1.1674 H   0  0  0  0  0  0  0  0  0  0  0  0
    3.6410   -9.9530    0.7585 H   0  0  0  0  0  0  0  0  0  0  0  0
    3.3795  -10.9648   -0.6694 H   0  0  0  0  0  0  0  0  0  0  0  0
    4.2514   -9.1337   -2.1232 H   0  0  0  0  0  0  0  0  0  0  0  0
    5.4479   -9.6069   -0.9121 H   0  0  0  0  0  0  0  0  0  0  0  0
    4.5098   -8.1240   -0.7011 H   0  0  0  0  0  0  0  0  0  0  0  0
    1.5619  -10.4634   -2.2358 H   0  0  0  0  0  0  0  0  0  0  0  0
   -0.6034   -9.3861   -2.6080 H   0  0  0  0  0  0  0  0  0  0  0  0
   -2.1894   -9.2254    0.7384 H   0  0  0  0  0  0  0  0  0  0  0  0
   -3.4057   -9.0247    2.8563 H   0  0  0  0  0  0  0  0  0  0  0  0
   -4.2479   -7.5425    4.6148 H   0  0  0  0  0  0  0  0  0  0  0  0
   -4.5314   -5.8262    4.2889 H   0  0  0  0  0  0  0  0  0  0  0  0
   -6.5381   -6.4180    2.9300 H   0  0  0  0  0  0  0  0  0  0  0  0
   -6.2524   -8.1286    3.2474 H   0  0  0  0  0  0  0  0  0  0  0  0
   -6.6813   -7.0448    4.5761 H   0  0  0  0  0  0  0  0  0  0  0  0
   -4.1784   -4.9139    2.0235 H   0  0  0  0  0  0  0  0  0  0  0  0
   -2.9916   -5.1151   -0.1029 H   0  0  0  0  0  0  0  0  0  0  0  0
   -5.3924  -10.0869   -4.8245 H   0  0  0  0  0  0  0  0  0  0  0  0
   -8.3550  -16.9476   -0.7165 H   0  0  0  0  0  0  0  0  0  0  0  0
   -7.0886  -16.6014    1.5494 H   0  0  0  0  0  0  0  0  0  0  0  0
  1  2  2  0  0  0  0
  2  3  1  0  0  0  0
  3  4  2  0  0  0  0
  3  5  1  0  0  0  0
  5  6  2  0  0  0  0
  6  7  1  0  0  0  0
  7  8  1  0  0  0  0
  7  9  2  0  0  0  0
  9 10  1  0  0  0  0
  9 11  1  0  0  0  0
 11 12  2  0  0  0  0
 12 13  1  0  0  0  0
 13 14  2  0  0  0  0
 14 15  1  0  0  0  0
 15 16  3  0  0  0  0
 14 17  1  0  0  0  0
 17 18  3  0  0  0  0
  1 19  1  0  0  0  0
 19 20  1  0  0  0  0
 20 21  1  0  0  0  0
 21 22  1  0  0  0  0
 22 23  2  0  0  0  0
 23 24  1  0  0  0  0
 24 25  1  0  0  0  0
 25 26  1  0  0  0  0
 24 27  1  0  0  0  0
 27 28  2  0  0  0  0
 28 29  1  0  0  0  0
 29 30  2  0  0  0  0
 30 31  1  0  0  0  0
 31 32  1  0  0  0  0
 30 33  1  0  0  0  0
 33 34  2  0  0  0  0
 24 35  1  0  0  0  0
 35 36  2  0  0  0  0
 36 37  1  0  0  0  0
 37 38  2  0  0  0  0
 38 39  1  0  0  0  0
 39 40  1  0  0  0  0
 38 41  1  0  0  0  0
 41 42  2  0  0  0  0
 23 43  1  0  0  0  0
 43 44  1  0  0  0  0
 44 45  1  0  0  0  0
 45 46  1  0  0  0  0
 46 47  2  0  0  0  0
 47 48  1  0  0  0  0
 48 49  1  0  0  0  0
 49 50  1  0  0  0  0
 50 51  2  0  0  0  0
 51 52  1  0  0  0  0
 52 53  2  0  0  0  0
 53 54  1  0  0  0  0
 54 55  1  0  0  0  0
 53 56  1  0  0  0  0
 56 57  2  0  0  0  0
 49 58  1  0  0  0  0
 58 59  2  0  0  0  0
 59 60  1  0  0  0  0
 60 61  2  0  0  0  0
 61 62  1  0  0  0  0
 62 63  1  0  0  0  0
 61 64  1  0  0  0  0
 64 65  2  0  0  0  0
 49 66  1  0  0  0  0
 66 67  2  0  0  0  0
 67 68  1  0  0  0  0
 68 69  1  0  0  0  0
 69 70  2  0  0  0  0
 70 71  1  0  0  0  0
 71 72  1  0  0  0  0
 72 73  2  0  0  0  0
 73 74  1  0  0  0  0
 74 75  2  0  0  0  0
 75 76  1  0  0  0  0
 76 77  1  0  0  0  0
 75 78  1  0  0  0  0
 78 79  2  0  0  0  0
 71 80  1  0  0  0  0
 80 81  2  0  0  0  0
 81 82  1  0  0  0  0
 82 83  2  0  0  0  0
 83 84  1  0  0  0  0
 84 85  1  0  0  0  0
 83 86  1  0  0  0  0
 86 87  2  0  0  0  0
 71 88  1  0  0  0  0
 88 89  1  0  0  0  0
 89 90  1  0  0  0  0
 67 91  1  0  0  0  0
 91 92  1  0  0  0  0
 92 93  1  0  0  0  0
 93 94  2  0  0  0  0
 94 95  1  0  0  0  0
 95 96  1  0  0  0  0
 94 97  1  0  0  0  0
 97 98  1  0  0  0  0
 98 99  1  0  0  0  0
 99100  2  0  0  0  0
100101  1  0  0  0  0
101102  1  0  0  0  0
102103  1  0  0  0  0
103104  2  0  0  0  0
104105  1  0  0  0  0
105106  2  0  0  0  0
106107  1  0  0  0  0
107108  1  0  0  0  0
106109  1  0  0  0  0
109110  2  0  0  0  0
102111  1  0  0  0  0
111112  2  0  0  0  0
112113  1  0  0  0  0
113114  2  0  0  0  0
114115  1  0  0  0  0
115116  1  0  0  0  0
114117  1  0  0  0  0
117118  2  0  0  0  0
 99119  1  0  0  0  0
119120  2  0  0  0  0
120121  1  0  0  0  0
121122  2  0  0  0  0
121123  1  0  0  0  0
123124  2  0  0  0  0
124125  1  0  0  0  0
125126  1  0  0  0  0
126127  1  0  0  0  0
127128  2  0  0  0  0
128129  1  0  0  0  0
129130  1  0  0  0  0
124131  1  0  0  0  0
131132  2  0  0  0  0
132133  1  0  0  0  0
133134  3  0  0  0  0
132135  1  0  0  0  0
135136  3  0  0  0  0
 13  2  1  0  0  0  0
 26 19  2  0  0  0  0
 34 27  1  0  0  0  0
 42 35  1  0  0  0  0
 89 43  2  0  0  0  0
 96 92  2  0  0  0  0
101 97  2  0  0  0  0
110103  1  0  0  0  0
118111  1  0  0  0  0
131120  1  0  0  0  0
 12  5  1  0  0  0  0
 25 21  2  0  0  0  0
 88 45  2  0  0  0  0
102 93  1  0  0  0  0
130123  1  0  0  0  0
 90 22  1  0  0  0  0
130126  2  0  0  0  0
 70 46  1  0  0  0  0
 79 72  1  0  0  0  0
 87 80  1  0  0  0  0
 68 48  2  0  0  0  0
 57 50  1  0  0  0  0
 65 58  1  0  0  0  0
 96 66  1  0  0  0  0
  1137  1  0  0  0  0
  6138  1  0  0  0  0
  8139  1  0  0  0  0
  8140  1  0  0  0  0
  8141  1  0  0  0  0
 11142  1  0  0  0  0
 26143  1  0  0  0  0
 28144  1  0  0  0  0
 29145  1  0  0  0  0
 31146  1  0  0  0  0
 31147  1  0  0  0  0
 32148  1  0  0  0  0
 32149  1  0  0  0  0
 32150  1  0  0  0  0
 33151  1  0  0  0  0
 34152  1  0  0  0  0
 36153  1  0  0  0  0
 37154  1  0  0  0  0
 39155  1  0  0  0  0
 39156  1  0  0  0  0
 40157  1  0  0  0  0
 40158  1  0  0  0  0
 40159  1  0  0  0  0
 41160  1  0  0  0  0
 42161  1  0  0  0  0
 47162  1  0  0  0  0
 51163  1  0  0  0  0
 52164  1  0  0  0  0
 54165  1  0  0  0  0
 54166  1  0  0  0  0
 55167  1  0  0  0  0
 55168  1  0  0  0  0
 55169  1  0  0  0  0
 56170  1  0  0  0  0
 57171  1  0  0  0  0
 59172  1  0  0  0  0
 60173  1  0  0  0  0
 62174  1  0  0  0  0
 62175  1  0  0  0  0
 63176  1  0  0  0  0
 63177  1  0  0  0  0
 63178  1  0  0  0  0
 64179  1  0  0  0  0
 65180  1  0  0  0  0
 69181  1  0  0  0  0
 73182  1  0  0  0  0
 74183  1  0  0  0  0
 76184  1  0  0  0  0
 76185  1  0  0  0  0
 77186  1  0  0  0  0
 77187  1  0  0  0  0
 77188  1  0  0  0  0
 78189  1  0  0  0  0
 79190  1  0  0  0  0
 81191  1  0  0  0  0
 82192  1  0  0  0  0
 84193  1  0  0  0  0
 84194  1  0  0  0  0
 85195  1  0  0  0  0
 85196  1  0  0  0  0
 85197  1  0  0  0  0
 86198  1  0  0  0  0
 87199  1  0  0  0  0
100200  1  0  0  0  0
104201  1  0  0  0  0
105202  1  0  0  0  0
107203  1  0  0  0  0
107204  1  0  0  0  0
108205  1  0  0  0  0
108206  1  0  0  0  0
108207  1  0  0  0  0
109208  1  0  0  0  0
110209  1  0  0  0  0
112210  1  0  0  0  0
113211  1  0  0  0  0
115212  1  0  0  0  0
115213  1  0  0  0  0
116214  1  0  0  0  0
116215  1  0  0  0  0
116216  1  0  0  0  0
117217  1  0  0  0  0
118218  1  0  0  0  0
119219  1  0  0  0  0
127220  1  0  0  0  0
128221  1  0  0  0  0
M  END
