119

C          1.38780        6.99380       -7.18340
C          2.22250        7.16870       -8.24630
C          2.41940        8.54300       -8.78410
O          1.75690        9.52260       -8.53090
C          3.62090        8.45460       -9.63900
C          4.30030        9.46960      -10.28390
C          5.43920        9.16880      -11.02300
C          6.22050       10.21480      -11.74830
C          5.84260        7.83280      -11.07290
F          6.95350        7.53490      -11.77240
C          5.17460        6.79410      -10.44490
C          4.04100        7.11500       -9.71650
C          3.09860        6.27840       -8.97520
C          2.93490        4.93000       -9.15810
C          1.84690        4.19210       -8.64950
N          0.96100        3.55200       -8.29900
C          3.78950        4.13440       -9.94800
N          4.46530        3.43630      -10.55930
C          1.31080        5.92020       -6.26910
S         -0.11470        5.77480       -5.25510
C          0.53590        4.38470       -4.46750
C         -0.08350        3.61890       -3.47410
S         -1.66580        3.94670       -2.79820
C         -1.49820        2.57960       -1.76480
C         -2.22900        1.89640       -0.77650
C         -3.54770        2.02110       -0.28220
C         -4.04280        1.04240        0.65210
N         -5.31190        1.24570        0.96660
S         -5.83970        2.55180        0.17040
N         -4.46930        2.91190       -0.61100
C         -3.15410        0.07100        1.16770
C         -3.26460       -0.89520        2.18290
S         -4.45970       -1.54240        3.23970
C         -3.24270       -2.56890        3.97190
C         -3.47780       -3.46160        5.02310
C         -2.45170       -4.25640        5.57950
C         -1.16470       -4.13310        4.99750
N         -0.01610       -4.75690        5.26080
N          0.83130       -4.25850        4.40130
C          2.21150       -4.64830        4.38750
C          3.06180       -3.63400        5.14670
N          0.36280       -3.35030        3.58050
C         -0.92400       -3.22800        3.92240
C         -1.96160       -2.41410        3.40350
C         -1.99340       -1.44550        2.38220
N         -1.09600       -0.87150        1.51380
C         -1.80130        0.03370        0.74390
C         -1.39330        0.83650       -0.34210
N         -0.22720        0.82600       -1.08450
C         -0.28700        1.90130       -1.93880
C          0.54380        2.48770       -2.91280
C          1.84420        2.17230       -3.37890
C          2.47710        2.96140       -4.38330
C          1.82300        4.08000       -4.95450
C          2.24260        4.94870       -5.96530
N          3.67880        2.43080       -4.61430
N          3.74290        1.40630       -3.80580
C          4.91310        0.58100       -3.72260
C          5.86240        1.10040       -2.64660
N          2.69720        1.19840       -3.04440
C          0.51020       -0.36680       -1.45680
C         -0.01900       -0.94220       -2.77050
C          0.30290       -0.75020        1.87490
C          0.46250        0.07170        3.15420
C         -2.88690       -5.05820        6.63740
C         -4.23190       -4.90880        6.91300
S         -4.98120       -3.74520        5.81610
C         -5.09410       -5.51910        7.84650
C         -4.83810       -6.33010        8.91870
C         -3.53020       -6.66620        9.52860
O         -2.41280       -6.44720        9.11050
C         -3.85030       -7.32710       10.81060
C         -2.97460       -7.77340       11.78100
C         -3.47670       -8.36580       12.93370
C         -2.59240       -8.86790       14.02750
C         -4.86420       -8.47910       13.04730
F         -5.36000       -9.04640       14.16310
C         -5.76290       -8.04380       12.08760
C         -5.24130       -7.45570       10.94570
C         -5.88130       -6.90080        9.75710
C         -7.21860       -6.98580        9.47300
C         -7.84380       -6.55500        8.28280
N         -8.43490       -6.25700        7.34410
C         -8.16990       -7.57190       10.33550
N         -8.99380       -8.02930       10.99070
H          0.73840        7.83910       -6.97550
H          3.94360       10.48560      -10.21020
H          6.18280       10.03220      -12.82200
H          7.26760       10.17800      -11.45060
H          5.82400       11.20480      -11.54370
H          5.55450        5.78920      -10.53120
H          2.27110       -5.63070        4.85830
H          2.53410       -4.71110        3.34570
H          4.10500       -3.93540        5.12320
H          2.73800       -3.57380        6.18270
H          2.96850       -2.65120        4.69080
H          3.21550        4.88390       -6.41770
H          5.39590        0.60210       -4.70100
H          4.58640       -0.43400       -3.48720
H          5.36930        1.10040       -1.67740
H          6.17590        2.11450       -2.88150
H          6.74200        0.46570       -2.59310
H          0.39380       -1.11930       -0.67910
H          1.56290       -0.09760       -1.57540
H          0.13180       -0.24070       -3.58620
H         -1.08200       -1.15990       -2.68870
H          0.50910       -1.86240       -3.00410
H          0.70410       -1.75430        2.03500
H          0.84120       -0.24840        1.07370
H          0.01250        1.05490        3.03230
H          1.51830        0.19660        3.37810
H         -0.01310       -0.42770        3.99380
H         -2.23920       -5.71900        7.18260
H         -6.13590       -5.26820        7.68140
H         -1.91100       -7.65780       11.63730
H         -1.54610       -8.72340       13.77580
H         -2.81160       -8.34350       14.95710
H         -2.77560       -9.92710       14.20340
H         -6.81910       -8.16860       12.25910
