104

C         -1.14460       -9.60220        1.74990
C         -1.84940      -10.64220        1.23390
C         -1.95000      -11.92900        1.98780
O         -1.29660      -12.24970        2.95440
C         -3.03340      -12.66370        1.31920
C         -3.72800      -13.87550        1.47520
C         -4.64840      -14.04230        0.48330
S         -4.68510      -12.74900       -0.66180
C         -3.45070      -11.94190        0.20770
C         -2.66690      -10.74820        0.03570
C         -2.54110      -10.04960       -1.13820
C         -1.53440       -9.09580       -1.38110
N         -0.68290       -8.36830       -1.63500
C         -3.36220      -10.33640       -2.24690
N         -4.03440      -10.56370       -3.14890
C         -1.24510       -8.22550        1.42400
S         -2.77780       -7.55770        0.85710
C         -2.06260       -6.00860        0.76580
C         -2.40140       -4.70530        0.36230
C         -3.61240       -4.08460       -0.02030
C         -3.62570       -2.66580       -0.27220
N         -4.83990       -2.21710       -0.54860
S         -5.87320       -3.46100       -0.50710
N         -4.81570       -4.62470       -0.12960
C         -2.40400       -1.95370       -0.27410
C         -2.05150       -0.64120       -0.63430
S         -2.80860        0.83130       -1.12700
C         -1.23190        1.57140       -1.31280
C         -0.81290        2.85830       -1.68460
C         -1.71480        3.92990       -2.19550
C         -2.77590        3.41320       -3.16340
C          0.57420        2.96300       -1.63030
S          1.35070        1.43920       -1.19320
C         -0.18610        0.69090       -1.00000
C         -0.65220       -0.56720       -0.61180
N         -0.12070       -1.77210       -0.22310
C         -1.18410       -2.62200        0.01160
C         -1.21200       -3.94910        0.48210
N         -0.19900       -4.72970        1.02380
C         -0.72060       -6.00560        1.17440
C         -0.24590       -7.26860        1.55950
C          1.15680       -7.62520        1.95060
C          1.36620       -7.60990        3.46700
C          0.71550       -4.18730        2.01380
C          0.01410       -4.01360        3.36180
C          1.20410       -2.16800       -0.65940
C          1.30280       -2.17400       -2.18430
C          1.44110        4.03030       -1.94820
C          1.21440        5.36620       -1.76230
C          0.24510        5.93650       -0.80030
O         -0.54130        5.33700       -0.09510
C          0.51310        7.38730       -0.77640
C         -0.15810        8.34560       -0.01970
C          0.29840        9.62800       -0.20830
C          1.34990        9.93620       -1.08190
C          2.02670        9.00040       -1.82680
C          1.57650        7.68780       -1.65080
C          2.02990        6.44870       -2.27560
C          3.00170        6.34250       -3.23720
C          3.35210        5.14930       -3.90320
N          3.67700        4.22760       -4.50690
C          3.77770        7.42000       -3.71200
N          4.45180        8.24640       -4.13800
C          1.27480       11.41250       -0.78000
C          2.35340       11.98240        0.16460
C          1.75820       13.28450        0.65010
C          0.76610       12.99010        1.48050
C          0.67350       11.48380        1.57010
C          2.15580       11.11880        1.41720
C          0.10470       11.06810        0.19660
H         -0.47810       -9.86300        2.56600
H         -3.55330      -14.58010        2.26690
H         -5.31820      -14.86830        0.34430
H         -2.19700        4.41200       -1.33950
H         -1.10870        4.68950       -2.69470
H         -3.49410        2.77300       -2.65970
H         -3.31380        4.25450       -3.59330
H         -2.31410        2.85050       -3.97190
H          1.85080       -6.93200        1.47270
H          1.38120       -8.62250        1.56970
H          1.21570       -6.61440        3.87590
H          2.37860       -7.92810        3.70280
H          0.67120       -8.28730        3.95690
H          1.56610       -4.86300        2.11030
H          1.07410       -3.21300        1.68570
H         -0.40670       -4.95640        3.70370
H         -0.79540       -3.29220        3.27110
H          0.72050       -3.65230        4.10440
H          1.93200       -1.46620       -0.24030
H          1.41250       -3.17390       -0.29920
H          1.13670       -1.18030       -2.59090
H          0.56430       -2.85340       -2.60440
H          2.29260       -2.50680       -2.48280
H          2.40510        3.72810       -2.34150
H         -0.96700        8.06460        0.63640
H          2.83510        9.25310       -2.49230
H          1.06920       12.05870       -1.63120
H          3.35220       12.02910       -0.26050
H          2.07310       14.25270        0.30760
H          0.08670       13.66300        1.97000
H          0.14250       11.07600        2.42600
H          2.75410       11.46860        2.25690
H          2.33750       10.05760        1.25750
H         -0.87950       11.48900       -0.00060
