
  xtb     02012222053D
 energy: -210.126853086833 gnorm: 0.000422379394 xtb: 6.4.1 (unknown)
114127  0     0  0            999 V2000
   -4.1215    3.0347   -5.7694 C   0  0  0  0  0  0  0  0  0  0  0  0
   -4.4277    4.0806   -6.5913 C   0  0  0  0  0  0  0  0  0  0  0  0
   -3.6192    5.3191   -6.7639 C   0  0  0  0  0  0  0  0  0  0  0  0
   -2.5457    5.5685   -6.2604 O   0  0  0  0  0  0  0  0  0  0  0  0
   -4.3274    6.0940   -7.7930 C   0  0  0  0  0  0  0  0  0  0  0  0
   -4.1938    7.3294   -8.4465 C   0  0  0  0  0  0  0  0  0  0  0  0
   -5.1845    7.5040   -9.3680 C   0  0  0  0  0  0  0  0  0  0  0  0
   -6.2873    6.1792   -9.4688 S   0  0  0  0  0  0  0  0  0  0  0  0
   -5.4125    5.3576   -8.2448 C   0  0  0  0  0  0  0  0  0  0  0  0
   -5.5221    4.1057   -7.5488 C   0  0  0  0  0  0  0  0  0  0  0  0
   -6.5276    3.1887   -7.7278 C   0  0  0  0  0  0  0  0  0  0  0  0
   -6.6880    2.0015   -6.9904 C   0  0  0  0  0  0  0  0  0  0  0  0
   -6.8786    1.0320   -6.4046 N   0  0  0  0  0  0  0  0  0  0  0  0
   -7.5288    3.3976   -8.6987 C   0  0  0  0  0  0  0  0  0  0  0  0
   -8.3447    3.5617   -9.4887 N   0  0  0  0  0  0  0  0  0  0  0  0
   -3.2680    3.0538   -4.6424 C   0  0  0  0  0  0  0  0  0  0  0  0
   -2.9929    4.0700   -3.7338 C   0  0  0  0  0  0  0  0  0  0  0  0
   -3.5531    5.4250   -3.7536 C   0  0  0  0  0  0  0  0  0  0  0  0
   -2.6540    6.4882   -3.7938 C   0  0  0  0  0  0  0  0  0  0  0  0
   -3.1061    7.7911   -3.8733 C   0  0  0  0  0  0  0  0  0  0  0  0
   -4.4659    8.0421   -3.9048 C   0  0  0  0  0  0  0  0  0  0  0  0
   -5.3606    6.9903   -3.8150 C   0  0  0  0  0  0  0  0  0  0  0  0
   -4.9296    5.6728   -3.7322 C   0  0  0  0  0  0  0  0  0  0  0  0
   -5.9401    4.5833   -3.4972 C   0  0  0  0  0  0  0  0  0  0  0  0
   -5.9210    4.1547   -2.0283 C   0  0  0  0  0  0  0  0  0  0  0  0
   -2.1273    3.6260   -2.7234 C   0  0  0  0  0  0  0  0  0  0  0  0
   -1.4502    4.4302   -1.3266 S   0  0  0  0  0  0  0  0  0  0  0  0
   -0.6731    2.9477   -0.8889 C   0  0  0  0  0  0  0  0  0  0  0  0
    0.1334    2.4361    0.1367 C   0  0  0  0  0  0  0  0  0  0  0  0
    0.5904    3.0370    1.3300 C   0  0  0  0  0  0  0  0  0  0  0  0
    1.3018    2.2338    2.2782 C   0  0  0  0  0  0  0  0  0  0  0  0
    1.6259    2.9072    3.3710 N   0  0  0  0  0  0  0  0  0  0  0  0
    1.0845    4.4245    3.2162 S   0  0  0  0  0  0  0  0  0  0  0  0
    0.4149    4.2802    1.7500 N   0  0  0  0  0  0  0  0  0  0  0  0
    1.6054    0.8957    1.9445 C   0  0  0  0  0  0  0  0  0  0  0  0
    2.3501   -0.0684    2.6360 C   0  0  0  0  0  0  0  0  0  0  0  0
    3.1670   -0.2524    4.1483 S   0  0  0  0  0  0  0  0  0  0  0  0
    3.6390   -1.8639    3.6607 C   0  0  0  0  0  0  0  0  0  0  0  0
    4.3667   -2.8676    4.3039 C   0  0  0  0  0  0  0  0  0  0  0  0
    4.9948   -2.7052    5.6207 C   0  0  0  0  0  0  0  0  0  0  0  0
    4.6235   -3.4713    6.7298 C   0  0  0  0  0  0  0  0  0  0  0  0
    3.4678   -4.4281    6.6800 C   0  0  0  0  0  0  0  0  0  0  0  0
    2.1467   -3.6629    6.7840 C   0  0  0  0  0  0  0  0  0  0  0  0
    5.2849   -3.2496    7.9311 C   0  0  0  0  0  0  0  0  0  0  0  0
    6.2862   -2.3023    8.0418 C   0  0  0  0  0  0  0  0  0  0  0  0
    6.6337   -1.5344    6.9437 C   0  0  0  0  0  0  0  0  0  0  0  0
    5.9846   -1.7328    5.7411 C   0  0  0  0  0  0  0  0  0  0  0  0
    4.4605   -4.0187    3.5208 C   0  0  0  0  0  0  0  0  0  0  0  0
    3.6566   -3.8211    1.9633 S   0  0  0  0  0  0  0  0  0  0  0  0
    3.1744   -2.2203    2.3851 C   0  0  0  0  0  0  0  0  0  0  0  0
    2.4342   -1.1906    1.8018 C   0  0  0  0  0  0  0  0  0  0  0  0
    1.7503   -0.9633    0.6379 N   0  0  0  0  0  0  0  0  0  0  0  0
    1.2160    0.3136    0.7019 C   0  0  0  0  0  0  0  0  0  0  0  0
    0.3846    1.0663   -0.1710 C   0  0  0  0  0  0  0  0  0  0  0  0
   -0.2820    0.7604   -1.3470 N   0  0  0  0  0  0  0  0  0  0  0  0
   -0.9238    1.8916   -1.7717 C   0  0  0  0  0  0  0  0  0  0  0  0
   -1.7652    2.2761   -2.8214 C   0  0  0  0  0  0  0  0  0  0  0  0
   -2.5072    1.5294   -4.1864 S   0  0  0  0  0  0  0  0  0  0  0  0
   -0.6559   -0.5187   -1.9091 C   0  0  0  0  0  0  0  0  0  0  0  0
   -1.4987   -1.3352   -0.9327 C   0  0  0  0  0  0  0  0  0  0  0  0
    1.9819   -1.8275   -0.4984 C   0  0  0  0  0  0  0  0  0  0  0  0
    2.8278   -1.1339   -1.5633 C   0  0  0  0  0  0  0  0  0  0  0  0
    5.2310   -5.1489    3.8447 C   0  0  0  0  0  0  0  0  0  0  0  0
    5.3004   -6.3672    3.2292 C   0  0  0  0  0  0  0  0  0  0  0  0
    6.5145   -7.2020    3.3970 C   0  0  0  0  0  0  0  0  0  0  0  0
    7.3897   -7.0658    4.2203 O   0  0  0  0  0  0  0  0  0  0  0  0
    6.4462   -8.1960    2.2991 C   0  0  0  0  0  0  0  0  0  0  0  0
    7.3802   -9.1388    1.9234 C   0  0  0  0  0  0  0  0  0  0  0  0
    7.0986   -9.9459    0.8272 C   0  0  0  0  0  0  0  0  0  0  0  0
    8.2392  -11.1290    0.3273 Cl  0  0  0  0  0  0  0  0  0  0  0  0
    5.8947   -9.7983    0.1303 C   0  0  0  0  0  0  0  0  0  0  0  0
    5.5692  -10.7928   -1.2315 Cl  0  0  0  0  0  0  0  0  0  0  0  0
    4.9485   -8.8560    0.5194 C   0  0  0  0  0  0  0  0  0  0  0  0
    5.2283   -8.0516    1.6098 C   0  0  0  0  0  0  0  0  0  0  0  0
    4.4352   -7.0211    2.2765 C   0  0  0  0  0  0  0  0  0  0  0  0
    3.0697   -6.9062    2.2111 C   0  0  0  0  0  0  0  0  0  0  0  0
    2.3259   -6.1532    3.1428 C   0  0  0  0  0  0  0  0  0  0  0  0
    1.6952   -5.6035    3.9291 N   0  0  0  0  0  0  0  0  0  0  0  0
    2.2624   -7.5947    1.2861 C   0  0  0  0  0  0  0  0  0  0  0  0
    1.5624   -8.1005    0.5295 N   0  0  0  0  0  0  0  0  0  0  0  0
   -4.5705    2.0705   -5.9832 H   0  0  0  0  0  0  0  0  0  0  0  0
   -3.4200    8.0458   -8.2428 H   0  0  0  0  0  0  0  0  0  0  0  0
   -5.3404    8.3495  -10.0093 H   0  0  0  0  0  0  0  0  0  0  0  0
   -1.5956    6.2804   -3.7932 H   0  0  0  0  0  0  0  0  0  0  0  0
   -2.3982    8.6047   -3.9152 H   0  0  0  0  0  0  0  0  0  0  0  0
   -4.8326    9.0550   -3.9820 H   0  0  0  0  0  0  0  0  0  0  0  0
   -6.4222    7.1939   -3.8021 H   0  0  0  0  0  0  0  0  0  0  0  0
   -6.9352    4.9558   -3.7483 H   0  0  0  0  0  0  0  0  0  0  0  0
   -5.7455    3.7125   -4.1241 H   0  0  0  0  0  0  0  0  0  0  0  0
   -4.9452    3.7561   -1.7593 H   0  0  0  0  0  0  0  0  0  0  0  0
   -6.1312    5.0047   -1.3831 H   0  0  0  0  0  0  0  0  0  0  0  0
   -6.6700    3.3870   -1.8501 H   0  0  0  0  0  0  0  0  0  0  0  0
    3.5434   -5.1317    7.5107 H   0  0  0  0  0  0  0  0  0  0  0  0
    3.4662   -5.0014    5.7529 H   0  0  0  0  0  0  0  0  0  0  0  0
    2.0494   -2.9607    5.9596 H   0  0  0  0  0  0  0  0  0  0  0  0
    2.0996   -3.1067    7.7178 H   0  0  0  0  0  0  0  0  0  0  0  0
    1.3121   -4.3567    6.7410 H   0  0  0  0  0  0  0  0  0  0  0  0
    5.0046   -3.8337    8.7958 H   0  0  0  0  0  0  0  0  0  0  0  0
    6.7890   -2.1571    8.9862 H   0  0  0  0  0  0  0  0  0  0  0  0
    7.4054   -0.7839    7.0224 H   0  0  0  0  0  0  0  0  0  0  0  0
    6.2509   -1.1432    4.8757 H   0  0  0  0  0  0  0  0  0  0  0  0
    0.2269   -1.0662   -2.2387 H   0  0  0  0  0  0  0  0  0  0  0  0
   -1.2493   -0.3033   -2.8010 H   0  0  0  0  0  0  0  0  0  0  0  0
   -0.9713   -1.5013    0.0038 H   0  0  0  0  0  0  0  0  0  0  0  0
   -1.7472   -2.2971   -1.3725 H   0  0  0  0  0  0  0  0  0  0  0  0
   -2.4237   -0.8081   -0.7110 H   0  0  0  0  0  0  0  0  0  0  0  0
    2.5231   -2.6983   -0.1203 H   0  0  0  0  0  0  0  0  0  0  0  0
    1.0389   -2.1925   -0.9045 H   0  0  0  0  0  0  0  0  0  0  0  0
    3.8023   -0.8767   -1.1542 H   0  0  0  0  0  0  0  0  0  0  0  0
    2.3542   -0.2180   -1.9089 H   0  0  0  0  0  0  0  0  0  0  0  0
    2.9736   -1.7976   -2.4111 H   0  0  0  0  0  0  0  0  0  0  0  0
    5.9477   -4.9955    4.6473 H   0  0  0  0  0  0  0  0  0  0  0  0
    8.3047   -9.2463    2.4683 H   0  0  0  0  0  0  0  0  0  0  0  0
    4.0299   -8.7653   -0.0375 H   0  0  0  0  0  0  0  0  0  0  0  0
  1  2  2  0  0  0  0
  2  3  1  0  0  0  0
  3  4  2  0  0  0  0
  3  5  1  0  0  0  0
  5  6  1  0  0  0  0
  6  7  2  0  0  0  0
  7  8  1  0  0  0  0
  8  9  1  0  0  0  0
  9 10  1  0  0  0  0
 10 11  2  0  0  0  0
 11 12  1  0  0  0  0
 12 13  3  0  0  0  0
 11 14  1  0  0  0  0
 14 15  3  0  0  0  0
  1 16  1  0  0  0  0
 16 17  2  0  0  0  0
 17 18  1  0  0  0  0
 18 19  2  0  0  0  0
 19 20  1  0  0  0  0
 20 21  2  0  0  0  0
 21 22  1  0  0  0  0
 22 23  2  0  0  0  0
 23 24  1  0  0  0  0
 24 25  1  0  0  0  0
 17 26  1  0  0  0  0
 26 27  1  0  0  0  0
 27 28  1  0  0  0  0
 28 29  1  0  0  0  0
 29 30  1  0  0  0  0
 30 31  1  0  0  0  0
 31 32  2  0  0  0  0
 32 33  1  0  0  0  0
 33 34  1  0  0  0  0
 31 35  1  0  0  0  0
 35 36  1  0  0  0  0
 36 37  1  0  0  0  0
 37 38  1  0  0  0  0
 38 39  1  0  0  0  0
 39 40  1  0  0  0  0
 40 41  2  0  0  0  0
 41 42  1  0  0  0  0
 42 43  1  0  0  0  0
 41 44  1  0  0  0  0
 44 45  2  0  0  0  0
 45 46  1  0  0  0  0
 46 47  2  0  0  0  0
 39 48  2  0  0  0  0
 48 49  1  0  0  0  0
 49 50  1  0  0  0  0
 50 51  1  0  0  0  0
 51 52  1  0  0  0  0
 52 53  1  0  0  0  0
 53 54  1  0  0  0  0
 54 55  1  0  0  0  0
 55 56  1  0  0  0  0
 56 57  1  0  0  0  0
 57 58  1  0  0  0  0
 55 59  1  0  0  0  0
 59 60  1  0  0  0  0
 52 61  1  0  0  0  0
 61 62  1  0  0  0  0
 48 63  1  0  0  0  0
 63 64  2  0  0  0  0
 64 65  1  0  0  0  0
 65 66  2  0  0  0  0
 65 67  1  0  0  0  0
 67 68  2  0  0  0  0
 68 69  1  0  0  0  0
 69 70  1  0  0  0  0
 69 71  2  0  0  0  0
 71 72  1  0  0  0  0
 71 73  1  0  0  0  0
 73 74  2  0  0  0  0
 74 75  1  0  0  0  0
 75 76  2  0  0  0  0
 76 77  1  0  0  0  0
 77 78  3  0  0  0  0
 76 79  1  0  0  0  0
 79 80  3  0  0  0  0
 10  2  1  0  0  0  0
 58 16  1  0  0  0  0
 75 64  1  0  0  0  0
  9  5  2  0  0  0  0
 23 18  1  0  0  0  0
 57 26  2  0  0  0  0
 74 67  1  0  0  0  0
 56 28  2  0  0  0  0
 54 29  2  0  0  0  0
 34 30  2  0  0  0  0
 53 35  2  0  0  0  0
 51 36  2  0  0  0  0
 50 38  2  0  0  0  0
 47 40  1  0  0  0  0
  1 81  1  0  0  0  0
  6 82  1  0  0  0  0
  7 83  1  0  0  0  0
 19 84  1  0  0  0  0
 20 85  1  0  0  0  0
 21 86  1  0  0  0  0
 22 87  1  0  0  0  0
 24 88  1  0  0  0  0
 24 89  1  0  0  0  0
 25 90  1  0  0  0  0
 25 91  1  0  0  0  0
 25 92  1  0  0  0  0
 42 93  1  0  0  0  0
 42 94  1  0  0  0  0
 43 95  1  0  0  0  0
 43 96  1  0  0  0  0
 43 97  1  0  0  0  0
 44 98  1  0  0  0  0
 45 99  1  0  0  0  0
 46100  1  0  0  0  0
 47101  1  0  0  0  0
 59102  1  0  0  0  0
 59103  1  0  0  0  0
 60104  1  0  0  0  0
 60105  1  0  0  0  0
 60106  1  0  0  0  0
 61107  1  0  0  0  0
 61108  1  0  0  0  0
 62109  1  0  0  0  0
 62110  1  0  0  0  0
 62111  1  0  0  0  0
 63112  1  0  0  0  0
 68113  1  0  0  0  0
 73114  1  0  0  0  0
M  END
