
  xtb     01262217103D
 energy: -181.215727056570 gnorm: 0.000795487080 xtb: 6.4.1 (unknown)
106117  0     0  0            999 V2000
    0.7553    2.2470    8.4676 C   0  0  0  0  0  0  0  0  0  0  0  0
    1.8196    2.4207    9.3091 C   0  0  0  0  0  0  0  0  0  0  0  0
    3.2877    2.3597    9.0622 C   0  0  0  0  0  0  0  0  0  0  0  0
    3.8852    2.1364    8.0281 O   0  0  0  0  0  0  0  0  0  0  0  0
    3.9135    2.6221   10.3667 C   0  0  0  0  0  0  0  0  0  0  0  0
    5.2118    2.7204   10.8944 C   0  0  0  0  0  0  0  0  0  0  0  0
    5.1744    2.9924   12.2299 C   0  0  0  0  0  0  0  0  0  0  0  0
    3.5762    3.1333   12.8707 S   0  0  0  0  0  0  0  0  0  0  0  0
    2.9251    2.8210   11.3150 C   0  0  0  0  0  0  0  0  0  0  0  0
    1.6181    2.7091   10.7302 C   0  0  0  0  0  0  0  0  0  0  0  0
    0.4538    2.8640   11.4419 C   0  0  0  0  0  0  0  0  0  0  0  0
   -0.8664    2.7734   10.9623 C   0  0  0  0  0  0  0  0  0  0  0  0
   -1.9773    2.7193   10.6711 N   0  0  0  0  0  0  0  0  0  0  0  0
    0.4973    3.1498   12.8231 C   0  0  0  0  0  0  0  0  0  0  0  0
    0.5199    3.3837   13.9467 N   0  0  0  0  0  0  0  0  0  0  0  0
    0.6046    1.9853    7.0742 C   0  0  0  0  0  0  0  0  0  0  0  0
   -0.7281    1.8334    6.6046 C   0  0  0  0  0  0  0  0  0  0  0  0
   -1.0213    1.5930    5.2904 C   0  0  0  0  0  0  0  0  0  0  0  0
    0.0239    1.4942    4.3624 C   0  0  0  0  0  0  0  0  0  0  0  0
    0.1494    1.2595    2.9800 C   0  0  0  0  0  0  0  0  0  0  0  0
    1.5207    1.2235    2.6803 C   0  0  0  0  0  0  0  0  0  0  0  0
    2.2602    1.4699    3.7941 N   0  0  0  0  0  0  0  0  0  0  0  0
    1.3748    1.6266    4.8365 C   0  0  0  0  0  0  0  0  0  0  0  0
    1.6602    1.8737    6.1608 C   0  0  0  0  0  0  0  0  0  0  0  0
    3.6967    1.4191    3.8884 C   0  0  0  0  0  0  0  0  0  0  0  0
    4.1745    0.0692    4.4192 C   0  0  0  0  0  0  0  0  0  0  0  0
    1.6485    0.8834    1.3259 C   0  0  0  0  0  0  0  0  0  0  0  0
    2.7531    0.5292    0.5236 C   0  0  0  0  0  0  0  0  0  0  0  0
    2.5394   -0.0280   -0.7668 C   0  0  0  0  0  0  0  0  0  0  0  0
    3.7330   -0.3522   -1.2707 N   0  0  0  0  0  0  0  0  0  0  0  0
    4.5834   -0.0053   -0.3328 N   0  0  0  0  0  0  0  0  0  0  0  0
    5.9995   -0.1447   -0.5069 C   0  0  0  0  0  0  0  0  0  0  0  0
    6.5934    1.1107   -1.1402 C   0  0  0  0  0  0  0  0  0  0  0  0
    4.0688    0.5241    0.7521 N   0  0  0  0  0  0  0  0  0  0  0  0
    1.2331   -0.0995   -1.2897 C   0  0  0  0  0  0  0  0  0  0  0  0
    0.1323    0.4084   -0.5407 C   0  0  0  0  0  0  0  0  0  0  0  0
    0.3203    0.7661    0.8172 C   0  0  0  0  0  0  0  0  0  0  0  0
   -0.5809    0.9968    1.8432 N   0  0  0  0  0  0  0  0  0  0  0  0
   -1.9808    0.6488    1.9329 C   0  0  0  0  0  0  0  0  0  0  0  0
   -2.8690    1.8695    2.1767 C   0  0  0  0  0  0  0  0  0  0  0  0
   -1.0201    0.3521   -1.3142 N   0  0  0  0  0  0  0  0  0  0  0  0
   -2.1126    1.2990   -1.2623 C   0  0  0  0  0  0  0  0  0  0  0  0
   -2.0010    2.3520   -2.3653 C   0  0  0  0  0  0  0  0  0  0  0  0
   -0.6690   -0.2386   -2.5099 C   0  0  0  0  0  0  0  0  0  0  0  0
    0.7018   -0.5326   -2.5150 C   0  0  0  0  0  0  0  0  0  0  0  0
    1.0628   -1.1066   -3.6946 N   0  0  0  0  0  0  0  0  0  0  0  0
    2.3619   -1.6442   -4.0080 C   0  0  0  0  0  0  0  0  0  0  0  0
    2.4250   -3.1478   -3.7457 C   0  0  0  0  0  0  0  0  0  0  0  0
   -0.0819   -1.2143   -4.4537 C   0  0  0  0  0  0  0  0  0  0  0  0
   -1.2018   -0.6640   -3.7402 C   0  0  0  0  0  0  0  0  0  0  0  0
   -2.4639   -0.6776   -4.3442 C   0  0  0  0  0  0  0  0  0  0  0  0
   -2.6097   -1.2087   -5.5988 C   0  0  0  0  0  0  0  0  0  0  0  0
   -1.5124   -1.7455   -6.3120 C   0  0  0  0  0  0  0  0  0  0  0  0
   -0.2373   -1.7387   -5.7152 C   0  0  0  0  0  0  0  0  0  0  0  0
   -1.5725   -2.3125   -7.6197 C   0  0  0  0  0  0  0  0  0  0  0  0
   -2.5564   -2.5469   -8.5383 C   0  0  0  0  0  0  0  0  0  0  0  0
   -4.0241   -2.2877   -8.4973 C   0  0  0  0  0  0  0  0  0  0  0  0
   -4.6888   -1.7829   -7.6170 O   0  0  0  0  0  0  0  0  0  0  0  0
   -4.5403   -2.7821   -9.7837 C   0  0  0  0  0  0  0  0  0  0  0  0
   -5.7797   -2.8753  -10.4383 C   0  0  0  0  0  0  0  0  0  0  0  0
   -5.6385   -3.4467  -11.6684 C   0  0  0  0  0  0  0  0  0  0  0  0
   -4.0123   -3.8816  -12.0554 S   0  0  0  0  0  0  0  0  0  0  0  0
   -3.4913   -3.2856  -10.5337 C   0  0  0  0  0  0  0  0  0  0  0  0
   -2.2471   -3.1688   -9.8268 C   0  0  0  0  0  0  0  0  0  0  0  0
   -1.0410   -3.5848  -10.3365 C   0  0  0  0  0  0  0  0  0  0  0  0
    0.2226   -3.5095   -9.7218 C   0  0  0  0  0  0  0  0  0  0  0  0
    1.2949   -3.4904   -9.3072 N   0  0  0  0  0  0  0  0  0  0  0  0
   -0.9721   -4.1674  -11.6197 C   0  0  0  0  0  0  0  0  0  0  0  0
   -0.8977   -4.6408  -12.6627 N   0  0  0  0  0  0  0  0  0  0  0  0
   -0.2051    2.3278    8.9647 H   0  0  0  0  0  0  0  0  0  0  0  0
    6.1139    2.5984   10.3240 H   0  0  0  0  0  0  0  0  0  0  0  0
    6.0055    3.1225   12.8953 H   0  0  0  0  0  0  0  0  0  0  0  0
   -1.5353    1.9081    7.3185 H   0  0  0  0  0  0  0  0  0  0  0  0
   -2.0486    1.4707    4.9830 H   0  0  0  0  0  0  0  0  0  0  0  0
    2.6773    1.9750    6.4954 H   0  0  0  0  0  0  0  0  0  0  0  0
    4.0365    2.2212    4.5492 H   0  0  0  0  0  0  0  0  0  0  0  0
    4.0959    1.5773    2.8841 H   0  0  0  0  0  0  0  0  0  0  0  0
    3.8451   -0.7286    3.7577 H   0  0  0  0  0  0  0  0  0  0  0  0
    5.2594    0.0569    4.4677 H   0  0  0  0  0  0  0  0  0  0  0  0
    3.7795   -0.1118    5.4156 H   0  0  0  0  0  0  0  0  0  0  0  0
    6.1682   -1.0119   -1.1486 H   0  0  0  0  0  0  0  0  0  0  0  0
    6.4363   -0.3176    0.4788 H   0  0  0  0  0  0  0  0  0  0  0  0
    6.1411    1.2900   -2.1125 H   0  0  0  0  0  0  0  0  0  0  0  0
    7.6650    0.9888   -1.2689 H   0  0  0  0  0  0  0  0  0  0  0  0
    6.4117    1.9732   -0.5036 H   0  0  0  0  0  0  0  0  0  0  0  0
   -2.2789    0.1128    1.0314 H   0  0  0  0  0  0  0  0  0  0  0  0
   -2.0959   -0.0375    2.7809 H   0  0  0  0  0  0  0  0  0  0  0  0
   -2.5399    2.4001    3.0653 H   0  0  0  0  0  0  0  0  0  0  0  0
   -2.8398    2.5708    1.3467 H   0  0  0  0  0  0  0  0  0  0  0  0
   -3.8975    1.5494    2.3195 H   0  0  0  0  0  0  0  0  0  0  0  0
   -3.0617    0.7603   -1.3561 H   0  0  0  0  0  0  0  0  0  0  0  0
   -2.0775    1.8088   -0.3046 H   0  0  0  0  0  0  0  0  0  0  0  0
   -1.0539    2.8812   -2.2819 H   0  0  0  0  0  0  0  0  0  0  0  0
   -2.8114    3.0695   -2.2663 H   0  0  0  0  0  0  0  0  0  0  0  0
   -2.0577    1.8976   -3.3502 H   0  0  0  0  0  0  0  0  0  0  0  0
    2.5857   -1.4349   -5.0580 H   0  0  0  0  0  0  0  0  0  0  0  0
    3.0891   -1.1298   -3.3747 H   0  0  0  0  0  0  0  0  0  0  0  0
    2.2348   -3.3507   -2.6944 H   0  0  0  0  0  0  0  0  0  0  0  0
    1.6827   -3.6740   -4.3415 H   0  0  0  0  0  0  0  0  0  0  0  0
    3.4104   -3.5267   -4.0011 H   0  0  0  0  0  0  0  0  0  0  0  0
   -3.3212   -0.2786   -3.8227 H   0  0  0  0  0  0  0  0  0  0  0  0
   -3.5824   -1.2212   -6.0578 H   0  0  0  0  0  0  0  0  0  0  0  0
    0.6070   -2.1465   -6.2514 H   0  0  0  0  0  0  0  0  0  0  0  0
   -0.5928   -2.6352   -7.9544 H   0  0  0  0  0  0  0  0  0  0  0  0
   -6.7143   -2.5422  -10.0267 H   0  0  0  0  0  0  0  0  0  0  0  0
   -6.4067   -3.6457  -12.3901 H   0  0  0  0  0  0  0  0  0  0  0  0
  1  2  2  0  0  0  0
  2  3  1  0  0  0  0
  3  4  2  0  0  0  0
  3  5  1  0  0  0  0
  5  6  1  0  0  0  0
  6  7  2  0  0  0  0
  7  8  1  0  0  0  0
  8  9  1  0  0  0  0
  9 10  1  0  0  0  0
 10 11  2  0  0  0  0
 11 12  1  0  0  0  0
 12 13  3  0  0  0  0
 11 14  1  0  0  0  0
 14 15  3  0  0  0  0
  1 16  1  0  0  0  0
 16 17  2  0  0  0  0
 17 18  1  0  0  0  0
 18 19  2  0  0  0  0
 19 20  1  0  0  0  0
 20 21  2  0  0  0  0
 21 22  1  0  0  0  0
 22 23  1  0  0  0  0
 23 24  2  0  0  0  0
 22 25  1  0  0  0  0
 25 26  1  0  0  0  0
 21 27  1  0  0  0  0
 27 28  1  0  0  0  0
 28 29  1  0  0  0  0
 29 30  2  0  0  0  0
 30 31  1  0  0  0  0
 31 32  1  0  0  0  0
 32 33  1  0  0  0  0
 31 34  1  0  0  0  0
 29 35  1  0  0  0  0
 35 36  2  0  0  0  0
 36 37  1  0  0  0  0
 37 38  1  0  0  0  0
 38 39  1  0  0  0  0
 39 40  1  0  0  0  0
 36 41  1  0  0  0  0
 41 42  1  0  0  0  0
 42 43  1  0  0  0  0
 41 44  1  0  0  0  0
 44 45  2  0  0  0  0
 45 46  1  0  0  0  0
 46 47  1  0  0  0  0
 47 48  1  0  0  0  0
 46 49  1  0  0  0  0
 49 50  2  0  0  0  0
 50 51  1  0  0  0  0
 51 52  2  0  0  0  0
 52 53  1  0  0  0  0
 53 54  2  0  0  0  0
 53 55  1  0  0  0  0
 55 56  2  0  0  0  0
 56 57  1  0  0  0  0
 57 58  2  0  0  0  0
 57 59  1  0  0  0  0
 59 60  1  0  0  0  0
 60 61  2  0  0  0  0
 61 62  1  0  0  0  0
 62 63  1  0  0  0  0
 63 64  1  0  0  0  0
 64 65  2  0  0  0  0
 65 66  1  0  0  0  0
 66 67  3  0  0  0  0
 65 68  1  0  0  0  0
 68 69  3  0  0  0  0
 10  2  1  0  0  0  0
 24 16  1  0  0  0  0
 37 27  2  0  0  0  0
 50 44  1  0  0  0  0
 64 56  1  0  0  0  0
  9  5  2  0  0  0  0
 23 19  1  0  0  0  0
 34 28  2  0  0  0  0
 45 35  1  0  0  0  0
 54 49  1  0  0  0  0
 63 59  2  0  0  0  0
 38 20  1  0  0  0  0
  1 70  1  0  0  0  0
  6 71  1  0  0  0  0
  7 72  1  0  0  0  0
 17 73  1  0  0  0  0
 18 74  1  0  0  0  0
 24 75  1  0  0  0  0
 25 76  1  0  0  0  0
 25 77  1  0  0  0  0
 26 78  1  0  0  0  0
 26 79  1  0  0  0  0
 26 80  1  0  0  0  0
 32 81  1  0  0  0  0
 32 82  1  0  0  0  0
 33 83  1  0  0  0  0
 33 84  1  0  0  0  0
 33 85  1  0  0  0  0
 39 86  1  0  0  0  0
 39 87  1  0  0  0  0
 40 88  1  0  0  0  0
 40 89  1  0  0  0  0
 40 90  1  0  0  0  0
 42 91  1  0  0  0  0
 42 92  1  0  0  0  0
 43 93  1  0  0  0  0
 43 94  1  0  0  0  0
 43 95  1  0  0  0  0
 47 96  1  0  0  0  0
 47 97  1  0  0  0  0
 48 98  1  0  0  0  0
 48 99  1  0  0  0  0
 48100  1  0  0  0  0
 51101  1  0  0  0  0
 52102  1  0  0  0  0
 54103  1  0  0  0  0
 55104  1  0  0  0  0
 60105  1  0  0  0  0
 61106  1  0  0  0  0
M  END
