
  xtb     02112207083D
 energy: -201.303005928671 gnorm: 0.000332136820 xtb: 6.4.1 (unknown)
122136  0     0  0            999 V2000
    0.6280   -8.0771    4.8288 C   0  0  0  0  0  0  0  0  0  0  0  0
    1.4067   -8.9510    5.5356 C   0  0  0  0  0  0  0  0  0  0  0  0
    2.8803   -9.1753    5.5381 C   0  0  0  0  0  0  0  0  0  0  0  0
    3.7394   -8.6462    4.8642 O   0  0  0  0  0  0  0  0  0  0  0  0
    3.1121  -10.2172    6.5514 C   0  0  0  0  0  0  0  0  0  0  0  0
    4.2063  -10.9083    7.0974 C   0  0  0  0  0  0  0  0  0  0  0  0
    3.7952  -11.7991    8.0445 C   0  0  0  0  0  0  0  0  0  0  0  0
    2.0854  -11.8190    8.2905 S   0  0  0  0  0  0  0  0  0  0  0  0
    1.8995  -10.6014    7.0965 C   0  0  0  0  0  0  0  0  0  0  0  0
    0.8136   -9.8654    6.5119 C   0  0  0  0  0  0  0  0  0  0  0  0
   -0.5018  -10.0412    6.8693 C   0  0  0  0  0  0  0  0  0  0  0  0
   -1.6270   -9.3663    6.3616 C   0  0  0  0  0  0  0  0  0  0  0  0
   -2.6041   -8.8700    6.0129 N   0  0  0  0  0  0  0  0  0  0  0  0
   -0.8501  -10.9861    7.8573 C   0  0  0  0  0  0  0  0  0  0  0  0
   -1.1480  -11.7516    8.6593 N   0  0  0  0  0  0  0  0  0  0  0  0
    0.8699   -7.0417    3.8788 C   0  0  0  0  0  0  0  0  0  0  0  0
    2.1353   -6.6896    3.3551 C   0  0  0  0  0  0  0  0  0  0  0  0
    2.2922   -5.6407    2.4883 C   0  0  0  0  0  0  0  0  0  0  0  0
    1.1816   -4.8777    2.1088 C   0  0  0  0  0  0  0  0  0  0  0  0
    0.9433   -3.7394    1.3154 C   0  0  0  0  0  0  0  0  0  0  0  0
   -0.4299   -3.4657    1.3654 C   0  0  0  0  0  0  0  0  0  0  0  0
   -1.0755   -4.3916    2.1255 N   0  0  0  0  0  0  0  0  0  0  0  0
   -0.1137   -5.2491    2.6130 C   0  0  0  0  0  0  0  0  0  0  0  0
   -0.2635   -6.3123    3.4717 C   0  0  0  0  0  0  0  0  0  0  0  0
   -2.4737   -4.3777    2.4694 C   0  0  0  0  0  0  0  0  0  0  0  0
   -2.7128   -3.7039    3.8192 C   0  0  0  0  0  0  0  0  0  0  0  0
   -0.6477   -2.2771    0.6532 C   0  0  0  0  0  0  0  0  0  0  0  0
   -1.7775   -1.4459    0.5132 C   0  0  0  0  0  0  0  0  0  0  0  0
   -1.6330   -0.1607   -0.0735 C   0  0  0  0  0  0  0  0  0  0  0  0
   -2.8173    0.4526   -0.0030 N   0  0  0  0  0  0  0  0  0  0  0  0
   -3.5993   -0.4248    0.5832 N   0  0  0  0  0  0  0  0  0  0  0  0
   -4.9928   -0.1682    0.7999 C   0  0  0  0  0  0  0  0  0  0  0  0
   -5.7941   -0.4309   -0.4724 C   0  0  0  0  0  0  0  0  0  0  0  0
   -3.0464   -1.5693    0.9110 N   0  0  0  0  0  0  0  0  0  0  0  0
   -0.4023    0.2075   -0.6523 C   0  0  0  0  0  0  0  0  0  0  0  0
    0.7065   -0.6945   -0.6432 C   0  0  0  0  0  0  0  0  0  0  0  0
    0.6226   -1.8741    0.1437 C   0  0  0  0  0  0  0  0  0  0  0  0
    1.5885   -2.7860    0.5573 N   0  0  0  0  0  0  0  0  0  0  0  0
    2.9848   -2.5185    0.8290 C   0  0  0  0  0  0  0  0  0  0  0  0
    3.1433   -1.4026    1.8603 C   0  0  0  0  0  0  0  0  0  0  0  0
    1.7122   -0.1685   -1.4348 N   0  0  0  0  0  0  0  0  0  0  0  0
    2.8643   -0.8046   -2.0260 C   0  0  0  0  0  0  0  0  0  0  0  0
    4.1748   -0.2005   -1.5210 C   0  0  0  0  0  0  0  0  0  0  0  0
    1.2831    1.0517   -1.8979 C   0  0  0  0  0  0  0  0  0  0  0  0
    0.0000    1.3171   -1.4066 C   0  0  0  0  0  0  0  0  0  0  0  0
   -0.4273    2.5436   -1.8220 N   0  0  0  0  0  0  0  0  0  0  0  0
   -1.7119    3.1304   -1.5451 C   0  0  0  0  0  0  0  0  0  0  0  0
   -2.6510    3.0093   -2.7440 C   0  0  0  0  0  0  0  0  0  0  0  0
    0.5789    3.0772   -2.5895 C   0  0  0  0  0  0  0  0  0  0  0  0
    1.6707    2.1487   -2.6975 C   0  0  0  0  0  0  0  0  0  0  0  0
    2.7640    2.4808   -3.5013 C   0  0  0  0  0  0  0  0  0  0  0  0
    2.8041    3.7120   -4.1054 C   0  0  0  0  0  0  0  0  0  0  0  0
    1.7978    4.6731   -3.8858 C   0  0  0  0  0  0  0  0  0  0  0  0
    0.6577    4.3322   -3.1547 C   0  0  0  0  0  0  0  0  0  0  0  0
    1.9622    6.0022   -4.4076 C   0  0  0  0  0  0  0  0  0  0  0  0
    1.5465    7.1552   -3.8282 C   0  0  0  0  0  0  0  0  0  0  0  0
    1.4434    8.4126   -4.6145 C   0  0  0  0  0  0  0  0  0  0  0  0
    1.9036    8.6204   -5.7152 O   0  0  0  0  0  0  0  0  0  0  0  0
    0.6196    9.3223   -3.7929 C   0  0  0  0  0  0  0  0  0  0  0  0
    0.1518   10.5865   -4.1457 C   0  0  0  0  0  0  0  0  0  0  0  0
   -0.6092   11.1944   -3.1764 C   0  0  0  0  0  0  0  0  0  0  0  0
   -0.8911   10.5907   -1.9432 C   0  0  0  0  0  0  0  0  0  0  0  0
   -0.4331    9.3480   -1.5782 C   0  0  0  0  0  0  0  0  0  0  0  0
    0.3480    8.7145   -2.5487 C   0  0  0  0  0  0  0  0  0  0  0  0
    1.0442    7.4320   -2.4951 C   0  0  0  0  0  0  0  0  0  0  0  0
    1.3724    6.7606   -1.3466 C   0  0  0  0  0  0  0  0  0  0  0  0
    0.8901    7.0963   -0.0662 C   0  0  0  0  0  0  0  0  0  0  0  0
    0.5019    7.2947    0.9966 N   0  0  0  0  0  0  0  0  0  0  0  0
    2.2995    5.6985   -1.2753 C   0  0  0  0  0  0  0  0  0  0  0  0
    3.0989    4.8914   -1.1087 N   0  0  0  0  0  0  0  0  0  0  0  0
   -1.7124   11.7616   -1.4661 C   0  0  0  0  0  0  0  0  0  0  0  0
   -3.2545   11.6234   -1.4939 C   0  0  0  0  0  0  0  0  0  0  0  0
   -3.5755   10.6247   -2.5778 C   0  0  0  0  0  0  0  0  0  0  0  0
   -3.3094   11.1948   -3.7454 C   0  0  0  0  0  0  0  0  0  0  0  0
   -2.8045   12.5898   -3.4722 C   0  0  0  0  0  0  0  0  0  0  0  0
   -3.6193   12.9312   -2.2142 C   0  0  0  0  0  0  0  0  0  0  0  0
   -1.3993   12.4346   -2.8395 C   0  0  0  0  0  0  0  0  0  0  0  0
   -0.4281   -8.1637    5.0598 H   0  0  0  0  0  0  0  0  0  0  0  0
    5.2299  -10.7556    6.8097 H   0  0  0  0  0  0  0  0  0  0  0  0
    4.4038  -12.4618    8.6283 H   0  0  0  0  0  0  0  0  0  0  0  0
    2.9969   -7.2603    3.6525 H   0  0  0  0  0  0  0  0  0  0  0  0
    3.2762   -5.4094    2.1084 H   0  0  0  0  0  0  0  0  0  0  0  0
   -1.2380   -6.5810    3.8525 H   0  0  0  0  0  0  0  0  0  0  0  0
   -2.8430   -5.4071    2.4886 H   0  0  0  0  0  0  0  0  0  0  0  0
   -2.9974   -3.8190    1.6905 H   0  0  0  0  0  0  0  0  0  0  0  0
   -2.3899   -2.6666    3.7759 H   0  0  0  0  0  0  0  0  0  0  0  0
   -2.1600   -4.2105    4.6068 H   0  0  0  0  0  0  0  0  0  0  0  0
   -3.7710   -3.7295    4.0625 H   0  0  0  0  0  0  0  0  0  0  0  0
   -5.3211   -0.8272    1.6056 H   0  0  0  0  0  0  0  0  0  0  0  0
   -5.0992    0.8756    1.1042 H   0  0  0  0  0  0  0  0  0  0  0  0
   -5.4377    0.2102   -1.2751 H   0  0  0  0  0  0  0  0  0  0  0  0
   -6.8461   -0.2245   -0.2977 H   0  0  0  0  0  0  0  0  0  0  0  0
   -5.6862   -1.4689   -0.7778 H   0  0  0  0  0  0  0  0  0  0  0  0
    3.5255   -2.2758   -0.0821 H   0  0  0  0  0  0  0  0  0  0  0  0
    3.4050   -3.4436    1.2250 H   0  0  0  0  0  0  0  0  0  0  0  0
    2.7148   -0.4734    1.4907 H   0  0  0  0  0  0  0  0  0  0  0  0
    2.6333   -1.6729    2.7825 H   0  0  0  0  0  0  0  0  0  0  0  0
    4.1956   -1.2428    2.0810 H   0  0  0  0  0  0  0  0  0  0  0  0
    2.8025   -0.6509   -3.1104 H   0  0  0  0  0  0  0  0  0  0  0  0
    2.8109   -1.8800   -1.8487 H   0  0  0  0  0  0  0  0  0  0  0  0
    4.1914    0.8669   -1.7222 H   0  0  0  0  0  0  0  0  0  0  0  0
    4.2931   -0.3328   -0.4500 H   0  0  0  0  0  0  0  0  0  0  0  0
    5.0157   -0.6669   -2.0283 H   0  0  0  0  0  0  0  0  0  0  0  0
   -2.1397    2.5935   -0.6956 H   0  0  0  0  0  0  0  0  0  0  0  0
   -1.5749    4.1821   -1.2731 H   0  0  0  0  0  0  0  0  0  0  0  0
   -3.6070    3.4720   -2.5149 H   0  0  0  0  0  0  0  0  0  0  0  0
   -2.2258    3.4953   -3.6194 H   0  0  0  0  0  0  0  0  0  0  0  0
   -2.8177    1.9604   -2.9758 H   0  0  0  0  0  0  0  0  0  0  0  0
    3.5717    1.7819   -3.6537 H   0  0  0  0  0  0  0  0  0  0  0  0
    3.6538    3.9870   -4.7116 H   0  0  0  0  0  0  0  0  0  0  0  0
   -0.1511    5.0414   -3.0544 H   0  0  0  0  0  0  0  0  0  0  0  0
    2.4393    6.1034   -5.3768 H   0  0  0  0  0  0  0  0  0  0  0  0
    0.3930   11.0184   -5.1043 H   0  0  0  0  0  0  0  0  0  0  0  0
   -0.6595    8.8912   -0.6288 H   0  0  0  0  0  0  0  0  0  0  0  0
   -1.3563   12.2547   -0.5637 H   0  0  0  0  0  0  0  0  0  0  0  0
   -3.7090   11.4420   -0.5235 H   0  0  0  0  0  0  0  0  0  0  0  0
   -3.8981    9.6176   -2.3878 H   0  0  0  0  0  0  0  0  0  0  0  0
   -3.3646   10.7590   -4.7259 H   0  0  0  0  0  0  0  0  0  0  0  0
   -2.8510   13.2883   -4.3035 H   0  0  0  0  0  0  0  0  0  0  0  0
   -3.2670   13.8232   -1.6980 H   0  0  0  0  0  0  0  0  0  0  0  0
   -4.6862   13.0189   -2.4140 H   0  0  0  0  0  0  0  0  0  0  0  0
   -0.8419   13.3692   -2.8334 H   0  0  0  0  0  0  0  0  0  0  0  0
  1  2  2  0  0  0  0
  2  3  1  0  0  0  0
  3  4  2  0  0  0  0
  3  5  1  0  0  0  0
  5  6  1  0  0  0  0
  6  7  2  0  0  0  0
  7  8  1  0  0  0  0
  8  9  1  0  0  0  0
  9 10  1  0  0  0  0
 10 11  2  0  0  0  0
 11 12  1  0  0  0  0
 12 13  3  0  0  0  0
 11 14  1  0  0  0  0
 14 15  3  0  0  0  0
  1 16  1  0  0  0  0
 16 17  2  0  0  0  0
 17 18  1  0  0  0  0
 18 19  2  0  0  0  0
 19 20  1  0  0  0  0
 20 21  2  0  0  0  0
 21 22  1  0  0  0  0
 22 23  1  0  0  0  0
 23 24  2  0  0  0  0
 22 25  1  0  0  0  0
 25 26  1  0  0  0  0
 21 27  1  0  0  0  0
 27 28  1  0  0  0  0
 28 29  1  0  0  0  0
 29 30  2  0  0  0  0
 30 31  1  0  0  0  0
 31 32  1  0  0  0  0
 32 33  1  0  0  0  0
 31 34  1  0  0  0  0
 29 35  1  0  0  0  0
 35 36  2  0  0  0  0
 36 37  1  0  0  0  0
 37 38  1  0  0  0  0
 38 39  1  0  0  0  0
 39 40  1  0  0  0  0
 36 41  1  0  0  0  0
 41 42  1  0  0  0  0
 42 43  1  0  0  0  0
 41 44  1  0  0  0  0
 44 45  2  0  0  0  0
 45 46  1  0  0  0  0
 46 47  1  0  0  0  0
 47 48  1  0  0  0  0
 46 49  1  0  0  0  0
 49 50  2  0  0  0  0
 50 51  1  0  0  0  0
 51 52  2  0  0  0  0
 52 53  1  0  0  0  0
 53 54  2  0  0  0  0
 53 55  1  0  0  0  0
 55 56  2  0  0  0  0
 56 57  1  0  0  0  0
 57 58  2  0  0  0  0
 57 59  1  0  0  0  0
 59 60  2  0  0  0  0
 60 61  1  0  0  0  0
 61 62  2  0  0  0  0
 62 63  1  0  0  0  0
 63 64  2  0  0  0  0
 64 65  1  0  0  0  0
 65 66  2  0  0  0  0
 66 67  1  0  0  0  0
 67 68  3  0  0  0  0
 66 69  1  0  0  0  0
 69 70  3  0  0  0  0
 62 71  1  0  0  0  0
 71 72  1  0  0  0  0
 72 73  1  0  0  0  0
 73 74  2  0  0  0  0
 74 75  1  0  0  0  0
 75 76  1  0  0  0  0
 75 77  1  0  0  0  0
 10  2  1  0  0  0  0
 24 16  1  0  0  0  0
 37 27  2  0  0  0  0
 50 44  1  0  0  0  0
 65 56  1  0  0  0  0
 77 71  1  0  0  0  0
  9  5  2  0  0  0  0
 23 19  1  0  0  0  0
 34 28  2  0  0  0  0
 45 35  1  0  0  0  0
 54 49  1  0  0  0  0
 64 59  1  0  0  0  0
 76 72  1  0  0  0  0
 38 20  1  0  0  0  0
 77 61  1  0  0  0  0
  1 78  1  0  0  0  0
  6 79  1  0  0  0  0
  7 80  1  0  0  0  0
 17 81  1  0  0  0  0
 18 82  1  0  0  0  0
 24 83  1  0  0  0  0
 25 84  1  0  0  0  0
 25 85  1  0  0  0  0
 26 86  1  0  0  0  0
 26 87  1  0  0  0  0
 26 88  1  0  0  0  0
 32 89  1  0  0  0  0
 32 90  1  0  0  0  0
 33 91  1  0  0  0  0
 33 92  1  0  0  0  0
 33 93  1  0  0  0  0
 39 94  1  0  0  0  0
 39 95  1  0  0  0  0
 40 96  1  0  0  0  0
 40 97  1  0  0  0  0
 40 98  1  0  0  0  0
 42 99  1  0  0  0  0
 42100  1  0  0  0  0
 43101  1  0  0  0  0
 43102  1  0  0  0  0
 43103  1  0  0  0  0
 47104  1  0  0  0  0
 47105  1  0  0  0  0
 48106  1  0  0  0  0
 48107  1  0  0  0  0
 48108  1  0  0  0  0
 51109  1  0  0  0  0
 52110  1  0  0  0  0
 54111  1  0  0  0  0
 55112  1  0  0  0  0
 60113  1  0  0  0  0
 63114  1  0  0  0  0
 71115  1  0  0  0  0
 72116  1  0  0  0  0
 73117  1  0  0  0  0
 74118  1  0  0  0  0
 75119  1  0  0  0  0
 76120  1  0  0  0  0
 76121  1  0  0  0  0
 77122  1  0  0  0  0
M  END
