
  xtb     02102223473D
 energy: -190.146733533802 gnorm: 0.000231348800 xtb: 6.4.1 (unknown)
107121  0     0  0            999 V2000
    9.2169   -0.0484   -1.2851 C   0  0  0  0  0  0  0  0  0  0  0  0
    9.2502    1.0867   -2.0542 C   0  0  0  0  0  0  0  0  0  0  0  0
    8.1414    2.0275   -2.2974 C   0  0  0  0  0  0  0  0  0  0  0  0
    6.9986    1.9504   -1.8818 O   0  0  0  0  0  0  0  0  0  0  0  0
    8.7012    3.0811   -3.1545 C   0  0  0  0  0  0  0  0  0  0  0  0
    8.2741    4.2691   -3.7703 C   0  0  0  0  0  0  0  0  0  0  0  0
    9.2895    4.8430   -4.4773 C   0  0  0  0  0  0  0  0  0  0  0  0
   10.7729    3.9607   -4.4127 S   0  0  0  0  0  0  0  0  0  0  0  0
   10.0311    2.7848   -3.4115 C   0  0  0  0  0  0  0  0  0  0  0  0
   10.4272    1.5627   -2.7628 C   0  0  0  0  0  0  0  0  0  0  0  0
   11.6823    1.0106   -2.8445 C   0  0  0  0  0  0  0  0  0  0  0  0
   12.1039   -0.1812   -2.2283 C   0  0  0  0  0  0  0  0  0  0  0  0
   12.5069   -1.1459   -1.7509 N   0  0  0  0  0  0  0  0  0  0  0  0
   12.6930    1.6386   -3.6015 C   0  0  0  0  0  0  0  0  0  0  0  0
   13.5203    2.1451   -4.2148 N   0  0  0  0  0  0  0  0  0  0  0  0
    8.1787   -0.6293   -0.5489 C   0  0  0  0  0  0  0  0  0  0  0  0
    8.3356   -1.7949    0.2186 C   0  0  0  0  0  0  0  0  0  0  0  0
    9.6094   -2.5513    0.4097 C   0  0  0  0  0  0  0  0  0  0  0  0
   10.4587   -1.9152    1.5124 C   0  0  0  0  0  0  0  0  0  0  0  0
    7.1545   -2.1544    0.8547 C   0  0  0  0  0  0  0  0  0  0  0  0
    6.7101   -3.5823    2.0271 Se  0  0  0  0  0  2  0  0  0  0  0  0
    5.0101   -2.8273    2.0137 C   0  0  0  0  0  0  0  0  0  0  0  0
    3.7579   -3.0430    2.5939 C   0  0  0  0  0  0  0  0  0  0  0  0
    3.3693   -4.0202    3.5339 C   0  0  0  0  0  0  0  0  0  0  0  0
    2.0347   -3.9904    4.0390 C   0  0  0  0  0  0  0  0  0  0  0  0
    1.8046   -4.9388    4.9330 N   0  0  0  0  0  0  0  0  0  0  0  0
    3.1670   -5.7994    5.1205 S   0  0  0  0  0  0  0  0  0  0  0  0
    4.0966   -4.9898    4.0654 N   0  0  0  0  0  0  0  0  0  0  0  0
    1.1401   -3.0281    3.5260 C   0  0  0  0  0  0  0  0  0  0  0  0
   -0.2232   -2.8662    3.7852 C   0  0  0  0  0  0  0  0  0  0  0  0
   -1.5530   -3.6287    4.8407 Se  0  0  0  0  0  2  0  0  0  0  0  0
   -2.7041   -2.3976    3.9610 C   0  0  0  0  0  0  0  0  0  0  0  0
   -4.0715   -2.1688    4.0383 C   0  0  0  0  0  0  0  0  0  0  0  0
   -4.9508   -2.8972    5.0015 C   0  0  0  0  0  0  0  0  0  0  0  0
   -5.1562   -2.0769    6.2771 C   0  0  0  0  0  0  0  0  0  0  0  0
   -4.4816   -1.1584    3.1517 C   0  0  0  0  0  0  0  0  0  0  0  0
   -3.1275   -0.4990    2.2368 S   0  0  0  0  0  0  0  0  0  0  0  0
   -2.0424   -1.5768    3.0316 C   0  0  0  0  0  0  0  0  0  0  0  0
   -0.6696   -1.8379    2.9474 C   0  0  0  0  0  0  0  0  0  0  0  0
    0.3730   -1.3654    2.1977 N   0  0  0  0  0  0  0  0  0  0  0  0
    1.5141   -2.0643    2.5404 C   0  0  0  0  0  0  0  0  0  0  0  0
    2.8743   -2.0299    2.1127 C   0  0  0  0  0  0  0  0  0  0  0  0
    3.6115   -1.2004    1.2896 N   0  0  0  0  0  0  0  0  0  0  0  0
    4.8908   -1.6821    1.2179 C   0  0  0  0  0  0  0  0  0  0  0  0
    6.0759   -1.2956    0.5806 C   0  0  0  0  0  0  0  0  0  0  0  0
    6.5334   -0.0053   -0.4670 S   0  0  0  0  0  0  0  0  0  0  0  0
    3.2975    0.0308    0.6029 C   0  0  0  0  0  0  0  0  0  0  0  0
    3.0053   -0.2054   -0.8790 C   0  0  0  0  0  0  0  0  0  0  0  0
    0.1103   -0.3300    1.2264 C   0  0  0  0  0  0  0  0  0  0  0  0
    0.0888    1.0555    1.8719 C   0  0  0  0  0  0  0  0  0  0  0  0
   -5.8152   -0.7625    3.0060 C   0  0  0  0  0  0  0  0  0  0  0  0
   -6.3921    0.1613    2.1692 C   0  0  0  0  0  0  0  0  0  0  0  0
   -5.6960    0.9983    1.1903 C   0  0  0  0  0  0  0  0  0  0  0  0
   -4.4946    1.0591    0.9807 O   0  0  0  0  0  0  0  0  0  0  0  0
   -6.7343    1.7666    0.4851 C   0  0  0  0  0  0  0  0  0  0  0  0
   -6.5429    2.6779   -0.5509 C   0  0  0  0  0  0  0  0  0  0  0  0
   -7.7064    3.2280   -1.0319 C   0  0  0  0  0  0  0  0  0  0  0  0
   -8.9670    2.8985   -0.5172 C   0  0  0  0  0  0  0  0  0  0  0  0
   -9.1681    2.0068    0.5101 C   0  0  0  0  0  0  0  0  0  0  0  0
   -7.9971    1.4314    1.0127 C   0  0  0  0  0  0  0  0  0  0  0  0
   -7.8100    0.4471    2.0790 C   0  0  0  0  0  0  0  0  0  0  0  0
   -8.8159   -0.0890    2.8437 C   0  0  0  0  0  0  0  0  0  0  0  0
   -8.6526   -1.0260    3.8846 C   0  0  0  0  0  0  0  0  0  0  0  0
   -8.6099   -1.7856    4.7464 N   0  0  0  0  0  0  0  0  0  0  0  0
  -10.1829    0.2289    2.7039 C   0  0  0  0  0  0  0  0  0  0  0  0
  -11.3118    0.4333    2.6516 N   0  0  0  0  0  0  0  0  0  0  0  0
   -9.6870    3.8090   -1.4809 C   0  0  0  0  0  0  0  0  0  0  0  0
  -10.3786    3.1306   -2.6825 C   0  0  0  0  0  0  0  0  0  0  0  0
  -10.5670    4.2560   -3.6741 C   0  0  0  0  0  0  0  0  0  0  0  0
   -9.3730    4.5690   -4.1610 C   0  0  0  0  0  0  0  0  0  0  0  0
   -8.3575    3.6604   -3.5065 C   0  0  0  0  0  0  0  0  0  0  0  0
   -9.2057    2.3928   -3.3412 C   0  0  0  0  0  0  0  0  0  0  0  0
   -8.2807    4.1771   -2.0540 C   0  0  0  0  0  0  0  0  0  0  0  0
   10.1466   -0.5984   -1.2218 H   0  0  0  0  0  0  0  0  0  0  0  0
    7.2819    4.6738   -3.6952 H   0  0  0  0  0  0  0  0  0  0  0  0
    9.2584    5.7514   -5.0466 H   0  0  0  0  0  0  0  0  0  0  0  0
    9.3518   -3.5736    0.7041 H   0  0  0  0  0  0  0  0  0  0  0  0
   10.1863   -2.5967   -0.5152 H   0  0  0  0  0  0  0  0  0  0  0  0
    9.9052   -1.8971    2.4491 H   0  0  0  0  0  0  0  0  0  0  0  0
   10.7310   -0.8958    1.2490 H   0  0  0  0  0  0  0  0  0  0  0  0
   11.3697   -2.4893    1.6547 H   0  0  0  0  0  0  0  0  0  0  0  0
   -5.9203   -3.1285    4.5581 H   0  0  0  0  0  0  0  0  0  0  0  0
   -4.4576   -3.8400    5.2592 H   0  0  0  0  0  0  0  0  0  0  0  0
   -5.6484   -1.1336    6.0529 H   0  0  0  0  0  0  0  0  0  0  0  0
   -5.7770   -2.6303    6.9757 H   0  0  0  0  0  0  0  0  0  0  0  0
   -4.1978   -1.8676    6.7479 H   0  0  0  0  0  0  0  0  0  0  0  0
    4.1769    0.6779    0.6815 H   0  0  0  0  0  0  0  0  0  0  0  0
    2.4761    0.5324    1.1063 H   0  0  0  0  0  0  0  0  0  0  0  0
    2.2416   -0.9681   -1.0203 H   0  0  0  0  0  0  0  0  0  0  0  0
    3.9076   -0.5345   -1.3870 H   0  0  0  0  0  0  0  0  0  0  0  0
    2.6736    0.7202   -1.3405 H   0  0  0  0  0  0  0  0  0  0  0  0
   -0.8790   -0.5283    0.8024 H   0  0  0  0  0  0  0  0  0  0  0  0
    0.8318   -0.3920    0.4175 H   0  0  0  0  0  0  0  0  0  0  0  0
   -0.7566    1.1346    2.5500 H   0  0  0  0  0  0  0  0  0  0  0  0
    0.9973    1.2458    2.4406 H   0  0  0  0  0  0  0  0  0  0  0  0
   -0.0171    1.8176    1.1053 H   0  0  0  0  0  0  0  0  0  0  0  0
   -6.4915   -1.2987    3.6573 H   0  0  0  0  0  0  0  0  0  0  0  0
   -5.5526    2.9028   -0.9150 H   0  0  0  0  0  0  0  0  0  0  0  0
  -10.1455    1.7692    0.8948 H   0  0  0  0  0  0  0  0  0  0  0  0
  -10.2895    4.5960   -1.0316 H   0  0  0  0  0  0  0  0  0  0  0  0
  -11.2599    2.5474   -2.4303 H   0  0  0  0  0  0  0  0  0  0  0  0
  -11.5104    4.7300   -3.8715 H   0  0  0  0  0  0  0  0  0  0  0  0
   -9.1197    5.3567   -4.8462 H   0  0  0  0  0  0  0  0  0  0  0  0
   -7.3974    3.5596   -4.0057 H   0  0  0  0  0  0  0  0  0  0  0  0
   -8.7492    1.6320   -2.7107 H   0  0  0  0  0  0  0  0  0  0  0  0
   -9.4812    1.9544   -4.2989 H   0  0  0  0  0  0  0  0  0  0  0  0
   -7.9448    5.2102   -1.9864 H   0  0  0  0  0  0  0  0  0  0  0  0
  1  2  2  0  0  0  0
  2  3  1  0  0  0  0
  3  4  2  0  0  0  0
  3  5  1  0  0  0  0
  5  6  1  0  0  0  0
  6  7  2  0  0  0  0
  7  8  1  0  0  0  0
  8  9  1  0  0  0  0
  9 10  1  0  0  0  0
 10 11  2  0  0  0  0
 11 12  1  0  0  0  0
 12 13  3  0  0  0  0
 11 14  1  0  0  0  0
 14 15  3  0  0  0  0
  1 16  1  0  0  0  0
 16 17  2  0  0  0  0
 17 18  1  0  0  0  0
 18 19  1  0  0  0  0
 17 20  1  0  0  0  0
 20 21  1  0  0  0  0
 21 22  1  0  0  0  0
 22 23  1  0  0  0  0
 23 24  1  0  0  0  0
 24 25  1  0  0  0  0
 25 26  2  0  0  0  0
 26 27  1  0  0  0  0
 27 28  1  0  0  0  0
 25 29  1  0  0  0  0
 29 30  1  0  0  0  0
 30 31  1  0  0  0  0
 31 32  1  0  0  0  0
 32 33  1  0  0  0  0
 33 34  1  0  0  0  0
 34 35  1  0  0  0  0
 33 36  2  0  0  0  0
 36 37  1  0  0  0  0
 37 38  1  0  0  0  0
 38 39  1  0  0  0  0
 39 40  1  0  0  0  0
 40 41  1  0  0  0  0
 41 42  1  0  0  0  0
 42 43  1  0  0  0  0
 43 44  1  0  0  0  0
 44 45  1  0  0  0  0
 45 46  1  0  0  0  0
 43 47  1  0  0  0  0
 47 48  1  0  0  0  0
 40 49  1  0  0  0  0
 49 50  1  0  0  0  0
 36 51  1  0  0  0  0
 51 52  2  0  0  0  0
 52 53  1  0  0  0  0
 53 54  2  0  0  0  0
 53 55  1  0  0  0  0
 55 56  2  0  0  0  0
 56 57  1  0  0  0  0
 57 58  2  0  0  0  0
 58 59  1  0  0  0  0
 59 60  2  0  0  0  0
 60 61  1  0  0  0  0
 61 62  2  0  0  0  0
 62 63  1  0  0  0  0
 63 64  3  0  0  0  0
 62 65  1  0  0  0  0
 65 66  3  0  0  0  0
 58 67  1  0  0  0  0
 67 68  1  0  0  0  0
 68 69  1  0  0  0  0
 69 70  2  0  0  0  0
 70 71  1  0  0  0  0
 71 72  1  0  0  0  0
 71 73  1  0  0  0  0
 10  2  1  0  0  0  0
 46 16  1  0  0  0  0
 61 52  1  0  0  0  0
 73 67  1  0  0  0  0
  9  5  2  0  0  0  0
 45 20  2  0  0  0  0
 60 55  1  0  0  0  0
 72 68  1  0  0  0  0
 44 22  2  0  0  0  0
 73 57  1  0  0  0  0
 42 23  2  0  0  0  0
 28 24  2  0  0  0  0
 41 29  2  0  0  0  0
 39 30  2  0  0  0  0
 38 32  2  0  0  0  0
  1 74  1  0  0  0  0
  6 75  1  0  0  0  0
  7 76  1  0  0  0  0
 18 77  1  0  0  0  0
 18 78  1  0  0  0  0
 19 79  1  0  0  0  0
 19 80  1  0  0  0  0
 19 81  1  0  0  0  0
 34 82  1  0  0  0  0
 34 83  1  0  0  0  0
 35 84  1  0  0  0  0
 35 85  1  0  0  0  0
 35 86  1  0  0  0  0
 47 87  1  0  0  0  0
 47 88  1  0  0  0  0
 48 89  1  0  0  0  0
 48 90  1  0  0  0  0
 48 91  1  0  0  0  0
 49 92  1  0  0  0  0
 49 93  1  0  0  0  0
 50 94  1  0  0  0  0
 50 95  1  0  0  0  0
 50 96  1  0  0  0  0
 51 97  1  0  0  0  0
 56 98  1  0  0  0  0
 59 99  1  0  0  0  0
 67100  1  0  0  0  0
 68101  1  0  0  0  0
 69102  1  0  0  0  0
 70103  1  0  0  0  0
 71104  1  0  0  0  0
 72105  1  0  0  0  0
 72106  1  0  0  0  0
 73107  1  0  0  0  0
M  END
