66

C          1.11840       -0.18900       -4.91220
C          0.63890       -1.20910       -5.67530
C         -0.38050       -2.21050       -5.27200
O         -0.97020       -2.26730       -4.21200
C         -0.51780       -3.10960       -6.42140
C         -1.25440       -4.25320       -6.77160
C         -0.94400       -4.66380       -8.03470
S          0.23800       -3.68030       -8.82130
C          0.33450       -2.68240       -7.43190
C          1.06910       -1.51230       -7.03860
C          1.97280       -0.85360       -7.83080
C          2.69920        0.30050       -7.47970
N          3.31770        1.24190       -7.25750
C          2.25180       -1.31470       -9.13590
N          2.48160       -1.68680      -10.19620
C          0.79280        0.20410       -3.59290
S         -0.39550       -0.53500       -2.54110
C         -0.03420        0.60870       -1.29620
C         -0.61940        0.69060       -0.02960
C         -0.21270        1.68670        0.88760
C          0.80720        2.61260        0.51290
C          1.36260        3.66900        1.26280
C          2.33110        4.35540        0.57960
C          3.15020        5.50330        0.96510
O          3.90430        6.02060        0.16940
C          3.03030        5.97010        2.39940
C          3.79830        5.02090        3.32190
S          2.58470        3.72090       -1.02450
C          1.38040        2.51750       -0.76100
C          0.97260        1.52320       -1.68120
C          1.42160        1.27710       -2.98120
C         -0.92100        1.59520        2.08360
C         -1.85550        0.56490        2.10750
S         -1.86170       -0.33070        0.60270
C         -2.66240        0.33670        3.23840
C         -3.63920       -0.59420        3.46470
C         -4.09090       -1.61790        2.50980
O         -3.66530       -1.83160        1.39280
C         -5.18370       -2.34680        3.18610
C         -5.94160       -3.39260        2.70000
C         -6.93240       -3.92330        3.51740
Cl        -7.91430       -5.22600        2.97710
C         -7.12740       -3.38440        4.79230
F         -8.08500       -3.89650        5.57270
C         -6.36780       -2.33570        5.28680
C         -5.37830       -1.80920        4.47030
C         -4.42100       -0.72570        4.68280
C         -4.29830        0.00350        5.83580
C         -5.09820       -0.19220        6.98330
N         -5.71240       -0.29680        7.94680
C         -3.36830        1.04010        6.06520
N         -2.64440        1.88970        6.33600
H          1.87830        0.44100       -5.36020
H         -1.96660       -4.73970       -6.13150
H         -1.34650       -5.50410       -8.56590
H          1.05080        3.90920        2.26260
H          1.98130        6.01710        2.69360
H          3.46300        6.96920        2.46480
H          4.84590        4.98510        3.03230
H          3.73630        5.37070        4.34940
H          3.39290        4.01300        3.27160
H          2.18330        1.86250       -3.46550
H         -0.77550        2.25170        2.92320
H         -2.45870        1.03290        4.04320
H         -5.76660       -3.78430        1.71070
H         -6.57270       -1.96900        6.27930
