
  xtb     02012215073D
 energy: -126.289093769941 gnorm: 0.000994470796 xtb: 6.4.1 (unknown)
 63 70  0     0  0            999 V2000
    1.2008   -4.8006    1.3224 C   0  0  0  0  0  0  0  0  0  0  0  0
    2.2914   -5.5522    1.6391 C   0  0  0  0  0  0  0  0  0  0  0  0
    3.7417   -5.1916    1.5762 C   0  0  0  0  0  0  0  0  0  0  0  0
    4.2406   -4.1278    1.2824 O   0  0  0  0  0  0  0  0  0  0  0  0
    4.4566   -6.4180    1.9494 C   0  0  0  0  0  0  0  0  0  0  0  0
    5.7889   -6.8391    2.0942 C   0  0  0  0  0  0  0  0  0  0  0  0
    5.8463   -8.1458    2.4806 C   0  0  0  0  0  0  0  0  0  0  0  0
    4.2992   -8.8870    2.6782 S   0  0  0  0  0  0  0  0  0  0  0  0
    3.5373   -7.4178    2.2314 C   0  0  0  0  0  0  0  0  0  0  0  0
    2.1905   -6.9465    2.0776 C   0  0  0  0  0  0  0  0  0  0  0  0
    1.0761   -7.7057    2.3250 C   0  0  0  0  0  0  0  0  0  0  0  0
   -0.2684   -7.2977    2.2264 C   0  0  0  0  0  0  0  0  0  0  0  0
   -1.3871   -7.0426    2.1779 N   0  0  0  0  0  0  0  0  0  0  0  0
    1.2058   -9.0496    2.7394 C   0  0  0  0  0  0  0  0  0  0  0  0
    1.2986  -10.1439    3.0711 N   0  0  0  0  0  0  0  0  0  0  0  0
    1.0725   -3.4631    0.8725 C   0  0  0  0  0  0  0  0  0  0  0  0
   -0.5704   -2.9378    0.5078 S   0  0  0  0  0  0  0  0  0  0  0  0
   -0.0094   -1.3721    0.0593 C   0  0  0  0  0  0  0  0  0  0  0  0
   -0.7728   -0.2948   -0.3943 C   0  0  0  0  0  0  0  0  0  0  0  0
   -0.1541    0.9307   -0.7229 C   0  0  0  0  0  0  0  0  0  0  0  0
    1.2591    1.0618   -0.5832 C   0  0  0  0  0  0  0  0  0  0  0  0
    2.0743    2.1827   -0.8414 C   0  0  0  0  0  0  0  0  0  0  0  0
    3.3994    1.9457   -0.5908 C   0  0  0  0  0  0  0  0  0  0  0  0
    4.5661    2.8214   -0.7166 C   0  0  0  0  0  0  0  0  0  0  0  0
    5.6762    2.4205   -0.4466 O   0  0  0  0  0  0  0  0  0  0  0  0
    4.2832    4.2309   -1.1950 C   0  0  0  0  0  0  0  0  0  0  0  0
    5.5541    5.0658   -1.2636 C   0  0  0  0  0  0  0  0  0  0  0  0
    3.6889    0.3216   -0.0266 S   0  0  0  0  0  0  0  0  0  0  0  0
    2.0064   -0.0337   -0.1286 C   0  0  0  0  0  0  0  0  0  0  0  0
    1.3931   -1.2653    0.1967 C   0  0  0  0  0  0  0  0  0  0  0  0
    1.9828   -2.4533    0.6551 C   0  0  0  0  0  0  0  0  0  0  0  0
   -1.0923    1.8691   -1.1579 C   0  0  0  0  0  0  0  0  0  0  0  0
   -2.3969    1.3964   -1.1681 C   0  0  0  0  0  0  0  0  0  0  0  0
   -2.4867   -0.2633   -0.6249 S   0  0  0  0  0  0  0  0  0  0  0  0
   -3.4771    2.2099   -1.5777 C   0  0  0  0  0  0  0  0  0  0  0  0
   -4.8106    1.9403   -1.6491 C   0  0  0  0  0  0  0  0  0  0  0  0
   -5.4742    0.6609   -1.2948 C   0  0  0  0  0  0  0  0  0  0  0  0
   -4.9409   -0.3551   -0.8971 O   0  0  0  0  0  0  0  0  0  0  0  0
   -6.9041    0.8869   -1.5279 C   0  0  0  0  0  0  0  0  0  0  0  0
   -8.1073    0.1707   -1.4163 C   0  0  0  0  0  0  0  0  0  0  0  0
   -9.1682    0.9417   -1.7916 C   0  0  0  0  0  0  0  0  0  0  0  0
   -8.7347    2.5392   -2.2850 S   0  0  0  0  0  0  0  0  0  0  0  0
   -7.0849    2.1857   -1.9867 C   0  0  0  0  0  0  0  0  0  0  0  0
   -5.8342    2.8858   -2.0866 C   0  0  0  0  0  0  0  0  0  0  0  0
   -5.6941    4.1812   -2.5148 C   0  0  0  0  0  0  0  0  0  0  0  0
   -4.4841    4.8915   -2.6277 C   0  0  0  0  0  0  0  0  0  0  0  0
   -3.5344    5.5270   -2.7454 N   0  0  0  0  0  0  0  0  0  0  0  0
   -6.8243    4.9372   -2.8955 C   0  0  0  0  0  0  0  0  0  0  0  0
   -7.7381    5.5575   -3.2056 N   0  0  0  0  0  0  0  0  0  0  0  0
    0.2426   -5.2998    1.4131 H   0  0  0  0  0  0  0  0  0  0  0  0
    6.6471   -6.2161    1.9239 H   0  0  0  0  0  0  0  0  0  0  0  0
    6.7235   -8.7344    2.6672 H   0  0  0  0  0  0  0  0  0  0  0  0
    1.6926    3.1221   -1.1970 H   0  0  0  0  0  0  0  0  0  0  0  0
    3.8136    4.1681   -2.1798 H   0  0  0  0  0  0  0  0  0  0  0  0
    3.5626    4.6867   -0.5117 H   0  0  0  0  0  0  0  0  0  0  0  0
    6.2666    4.6092   -1.9456 H   0  0  0  0  0  0  0  0  0  0  0  0
    6.0182    5.1230   -0.2823 H   0  0  0  0  0  0  0  0  0  0  0  0
    5.3302    6.0722   -1.6077 H   0  0  0  0  0  0  0  0  0  0  0  0
    3.0392   -2.5666    0.8184 H   0  0  0  0  0  0  0  0  0  0  0  0
   -0.8457    2.8711   -1.4616 H   0  0  0  0  0  0  0  0  0  0  0  0
   -3.1648    3.2048   -1.8745 H   0  0  0  0  0  0  0  0  0  0  0  0
   -8.1831   -0.8471   -1.0805 H   0  0  0  0  0  0  0  0  0  0  0  0
  -10.2041    0.6635   -1.8091 H   0  0  0  0  0  0  0  0  0  0  0  0
  1  2  2  0  0  0  0
  2  3  1  0  0  0  0
  3  4  2  0  0  0  0
  3  5  1  0  0  0  0
  5  6  1  0  0  0  0
  6  7  2  0  0  0  0
  7  8  1  0  0  0  0
  8  9  1  0  0  0  0
  9 10  1  0  0  0  0
 10 11  2  0  0  0  0
 11 12  1  0  0  0  0
 12 13  3  0  0  0  0
 11 14  1  0  0  0  0
 14 15  3  0  0  0  0
  1 16  1  0  0  0  0
 16 17  1  0  0  0  0
 17 18  1  0  0  0  0
 18 19  2  0  0  0  0
 19 20  1  0  0  0  0
 20 21  2  0  0  0  0
 21 22  1  0  0  0  0
 22 23  2  0  0  0  0
 23 24  1  0  0  0  0
 24 25  2  0  0  0  0
 24 26  1  0  0  0  0
 26 27  1  0  0  0  0
 23 28  1  0  0  0  0
 28 29  1  0  0  0  0
 29 30  2  0  0  0  0
 30 31  1  0  0  0  0
 20 32  1  0  0  0  0
 32 33  2  0  0  0  0
 33 34  1  0  0  0  0
 33 35  1  0  0  0  0
 35 36  2  0  0  0  0
 36 37  1  0  0  0  0
 37 38  2  0  0  0  0
 37 39  1  0  0  0  0
 39 40  1  0  0  0  0
 40 41  2  0  0  0  0
 41 42  1  0  0  0  0
 42 43  1  0  0  0  0
 43 44  1  0  0  0  0
 44 45  2  0  0  0  0
 45 46  1  0  0  0  0
 46 47  3  0  0  0  0
 45 48  1  0  0  0  0
 48 49  3  0  0  0  0
 10  2  1  0  0  0  0
 31 16  2  0  0  0  0
 44 36  1  0  0  0  0
  9  5  2  0  0  0  0
 30 18  1  0  0  0  0
 43 39  2  0  0  0  0
 34 19  1  0  0  0  0
 29 21  1  0  0  0  0
  1 50  1  0  0  0  0
  6 51  1  0  0  0  0
  7 52  1  0  0  0  0
 22 53  1  0  0  0  0
 26 54  1  0  0  0  0
 26 55  1  0  0  0  0
 27 56  1  0  0  0  0
 27 57  1  0  0  0  0
 27 58  1  0  0  0  0
 31 59  1  0  0  0  0
 32 60  1  0  0  0  0
 35 61  1  0  0  0  0
 40 62  1  0  0  0  0
 41 63  1  0  0  0  0
M  END
