127

C          2.12410       -2.78900       -8.20500
C          2.30000       -3.75970       -9.15000
C          2.18650       -5.22790       -8.93000
O          1.84690       -5.79640       -7.91460
C          2.43920       -5.83000      -10.24800
C          2.52810       -7.11360      -10.81010
C          2.77140       -7.04390      -12.15040
S          2.88670       -5.43090      -12.75680
C          2.60740       -4.81790      -11.18000
C          2.51340       -3.52030      -10.56810
C          2.65980       -2.32810      -11.23310
C          2.88100       -2.30340      -12.62570
N          3.05850       -2.27540      -13.75920
C          2.61880       -1.04980      -10.64770
N          2.60570        0.01990      -10.22900
C          2.11930       -2.94260       -6.80170
C          2.76600       -3.85560       -5.97080
C          3.76570       -4.82000       -6.41520
C          4.73250       -4.45750       -7.35140
C          5.65150       -5.38390       -7.79800
C          5.63440       -6.69230       -7.32550
C          6.65290       -7.68800       -7.79850
C          7.90080       -7.63480       -6.91420
C          4.68960       -7.03910       -6.36870
C          3.76690       -6.11830       -5.91250
C          2.42230       -3.65030       -4.62610
S          2.88330       -4.47120       -3.15280
C          1.90520       -3.36170       -2.25700
C          1.48700       -3.14220       -0.93650
C          1.68200       -3.90030        0.23940
C          0.98580       -3.51670        1.43380
N          1.20500       -4.35210        2.43670
S          2.20520       -5.51740        1.92510
N          2.39660       -5.00240        0.40200
C          0.23800       -2.31810        1.43390
C         -0.40510       -1.63210        2.47440
S         -0.75290       -1.82740        4.15810
C         -1.46760       -0.22570        4.16400
C         -2.07540        0.53650        5.15960
C         -2.28830        0.07450        6.52710
C         -3.52740        0.22110        7.15050
C         -3.71160       -0.21200        8.44700
C         -2.67180       -0.79960        9.15770
C         -2.88900       -1.28790       10.55890
C         -3.47000       -2.70380       10.54780
C         -1.44660       -0.96950        8.52420
C         -1.25370       -0.54490        7.22540
C         -2.47040        1.79940        4.67420
S         -2.14880        1.97800        2.95130
C         -1.43530        0.40800        2.91190
C         -0.83810       -0.41020        1.94840
N         -0.53090       -0.33240        0.61450
C          0.12770       -1.50130        0.27070
C          0.64490       -1.99290       -0.95620
N          0.51400       -1.57130       -2.26550
C          1.27730       -2.39410       -3.05010
C          1.56340       -2.56380       -4.40800
S          1.16470       -1.77520       -5.88750
C         -0.47750       -0.71480       -2.87570
C          0.13150        0.57490       -3.42370
C         -0.45140        0.98080        0.01020
C          0.95370        1.56100        0.15550
C         -2.93390        2.81550        5.51660
C         -3.34010        4.09600        5.23030
C         -3.43460        4.69420        3.89760
O         -3.16370        4.17420        2.82640
C         -3.92080        6.06970        4.09130
C         -4.16350        7.01980        3.10170
C         -4.59930        8.23000        3.58480
C         -4.78200        8.47560        4.95180
C         -4.55230        7.54440        5.93710
C         -4.10570        6.30530        5.46830
C         -3.75620        5.08750        6.20100
C         -3.81950        4.94100        7.56400
C         -4.23480        5.95150        8.45630
N         -4.55900        6.72010        9.24570
C         -3.49490        3.78020        8.29700
N         -3.25640        2.89240        8.98710
C         -5.21920        9.90050        4.71920
C         -4.17360       10.99810        5.00960
C         -4.69300       12.20050        4.25500
C         -4.52320       11.96830        2.95970
C         -3.88590       10.60500        2.81700
C         -3.02190       10.58390        4.08450
C         -5.01770        9.62580        3.19430
H          1.93520       -1.77790       -8.54890
H          2.42560       -8.02890      -10.25730
H          2.89370       -7.85860      -12.83720
H          4.76620       -3.44200       -7.72030
H          6.39400       -5.09030       -8.52700
H          6.93370       -7.46900       -8.83090
H          6.23060       -8.69420       -7.76410
H          8.34370       -6.64180       -6.94400
H          8.64000       -8.35560       -7.25590
H          7.64270       -7.86270       -5.88260
H          4.66850       -8.04810       -5.98310
H          3.01790       -6.41260       -5.19450
H         -4.35320        0.65400        6.60380
H         -4.67450       -0.08410        8.91900
H         -1.94160       -1.29180       11.10100
H         -3.57780       -0.61840       11.07700
H         -4.42480       -2.71830       10.02670
H         -2.79320       -3.38690       10.03910
H         -3.62370       -3.05940       11.56390
H         -0.62960       -1.43240        9.05870
H         -0.28990       -0.66550        6.75300
H         -1.27030       -0.52430       -2.15130
H         -0.92350       -1.26980       -3.70900
H          0.79290        0.34890       -4.25570
H          0.70810        1.09810       -2.66610
H         -0.65710        1.22970       -3.78400
H         -0.74180        0.95320       -1.03500
H         -1.16700        1.61380        0.54040
H          1.22060        1.64020        1.20680
H          1.68580        0.92400       -0.33770
H          0.99190        2.55300       -0.28600
H         -2.94240        2.52870        6.56100
H         -4.01070        6.78580        2.05970
H         -4.70390        7.75120        6.98300
H         -6.21490       10.15660        5.07600
H         -3.94470       11.14130        6.06200
H         -5.16560       13.04400        4.72280
H         -4.82580       12.57890        2.12930
H         -3.39450       10.39120        1.87160
H         -2.22950       11.32990        4.05480
H         -2.59570        9.60930        4.31510
H         -5.88020        9.69680        2.53420
