
  xtb     02012218123D
 energy: -180.381985358698 gnorm: 0.000725824982 xtb: 6.4.1 (unknown)
 94105  0     0  0            999 V2000
    4.7520    4.6838   -5.2865 C   0  0  0  0  0  0  0  0  0  0  0  0
    5.8118    5.3263   -4.6944 C   0  0  0  0  0  0  0  0  0  0  0  0
    6.0140    5.5353   -3.2586 C   0  0  0  0  0  0  0  0  0  0  0  0
    5.2665    5.1900   -2.3521 O   0  0  0  0  0  0  0  0  0  0  0  0
    7.2873    6.2496   -3.1299 C   0  0  0  0  0  0  0  0  0  0  0  0
    8.1061    6.7679   -2.1130 C   0  0  0  0  0  0  0  0  0  0  0  0
    9.2200    7.3547   -2.6372 C   0  0  0  0  0  0  0  0  0  0  0  0
    9.2981    7.2923   -4.3616 S   0  0  0  0  0  0  0  0  0  0  0  0
    7.8033    6.4583   -4.4014 C   0  0  0  0  0  0  0  0  0  0  0  0
    6.9340    5.9119   -5.4112 C   0  0  0  0  0  0  0  0  0  0  0  0
    7.1788    5.9650   -6.7610 C   0  0  0  0  0  0  0  0  0  0  0  0
    8.3465    6.5845   -7.2533 C   0  0  0  0  0  0  0  0  0  0  0  0
    9.2952    7.0886   -7.6562 N   0  0  0  0  0  0  0  0  0  0  0  0
    6.3522    5.4411   -7.7717 C   0  0  0  0  0  0  0  0  0  0  0  0
    5.7196    5.0354   -8.6411 N   0  0  0  0  0  0  0  0  0  0  0  0
    3.6294    4.0529   -4.7385 C   0  0  0  0  0  0  0  0  0  0  0  0
    2.6647    3.4164   -5.5404 C   0  0  0  0  0  0  0  0  0  0  0  0
    2.7149    3.3101   -7.0316 C   0  0  0  0  0  0  0  0  0  0  0  0
    3.5875    2.1276   -7.4621 C   0  0  0  0  0  0  0  0  0  0  0  0
    1.6484    2.8104   -4.8107 C   0  0  0  0  0  0  0  0  0  0  0  0
    0.2538    1.8978   -5.3706 S   0  0  0  0  0  0  0  0  0  0  0  0
   -0.2172    1.6614   -3.7262 C   0  0  0  0  0  0  0  0  0  0  0  0
   -1.2333    1.0420   -2.9840 C   0  0  0  0  0  0  0  0  0  0  0  0
   -2.4189    0.3870   -3.3848 C   0  0  0  0  0  0  0  0  0  0  0  0
   -3.3151   -0.1052   -2.3783 C   0  0  0  0  0  0  0  0  0  0  0  0
   -4.4058   -0.6488   -2.8946 N   0  0  0  0  0  0  0  0  0  0  0  0
   -4.3124   -0.5541   -4.5078 S   0  0  0  0  0  0  0  0  0  0  0  0
   -2.8758    0.1837   -4.6103 N   0  0  0  0  0  0  0  0  0  0  0  0
   -2.9228   -0.0341   -1.0228 C   0  0  0  0  0  0  0  0  0  0  0  0
   -3.4772   -0.6110    0.1285 C   0  0  0  0  0  0  0  0  0  0  0  0
   -4.8374   -1.5680    0.5837 S   0  0  0  0  0  0  0  0  0  0  0  0
   -4.1840   -1.7027    2.2027 C   0  0  0  0  0  0  0  0  0  0  0  0
   -4.6451   -2.4416    3.3022 C   0  0  0  0  0  0  0  0  0  0  0  0
   -5.9858   -3.0971    3.3289 C   0  0  0  0  0  0  0  0  0  0  0  0
   -7.1105   -2.0934    3.0701 C   0  0  0  0  0  0  0  0  0  0  0  0
   -3.7873   -2.3788    4.3929 C   0  0  0  0  0  0  0  0  0  0  0  0
   -2.3199   -1.1979    4.0972 Se  0  0  0  0  0  2  0  0  0  0  0  0
   -2.9755   -1.0031    2.3656 C   0  0  0  0  0  0  0  0  0  0  0  0
   -2.5801   -0.3791    1.1780 C   0  0  0  0  0  0  0  0  0  0  0  0
   -1.5082    0.3419    0.7206 N   0  0  0  0  0  0  0  0  0  0  0  0
   -1.6990    0.5792   -0.6277 C   0  0  0  0  0  0  0  0  0  0  0  0
   -0.9150    1.2388   -1.6075 C   0  0  0  0  0  0  0  0  0  0  0  0
    0.2322    2.0091   -1.5265 N   0  0  0  0  0  0  0  0  0  0  0  0
    0.6562    2.2538   -2.8082 C   0  0  0  0  0  0  0  0  0  0  0  0
    1.7229    2.9242   -3.4114 C   0  0  0  0  0  0  0  0  0  0  0  0
    3.2179    3.9007   -2.8820 Se  0  0  0  0  0  2  0  0  0  0  0  0
    0.6714    2.9176   -0.4903 C   0  0  0  0  0  0  0  0  0  0  0  0
    0.0865    4.3139   -0.6995 C   0  0  0  0  0  0  0  0  0  0  0  0
   -0.3166    0.4429    1.5305 C   0  0  0  0  0  0  0  0  0  0  0  0
   -0.4459    1.5183    2.6097 C   0  0  0  0  0  0  0  0  0  0  0  0
   -3.8316   -3.0372    5.6359 C   0  0  0  0  0  0  0  0  0  0  0  0
   -4.2427   -4.3267    5.8579 C   0  0  0  0  0  0  0  0  0  0  0  0
   -4.3033   -5.3691    4.8113 C   0  0  0  0  0  0  0  0  0  0  0  0
   -4.1828   -5.2379    3.6123 O   0  0  0  0  0  0  0  0  0  0  0  0
   -4.4278   -6.6492    5.5482 C   0  0  0  0  0  0  0  0  0  0  0  0
   -4.4798   -7.9273    5.0313 C   0  0  0  0  0  0  0  0  0  0  0  0
   -4.5850   -8.9929    5.9178 C   0  0  0  0  0  0  0  0  0  0  0  0
   -4.6579  -10.6113    5.3397 Cl  0  0  0  0  0  0  0  0  0  0  0  0
   -4.6295   -8.7404    7.2907 C   0  0  0  0  0  0  0  0  0  0  0  0
   -4.7231   -9.7723    8.1382 F   0  0  0  0  0  0  0  0  0  0  0  0
   -4.5760   -7.4590    7.8172 C   0  0  0  0  0  0  0  0  0  0  0  0
   -4.4738   -6.3992    6.9303 C   0  0  0  0  0  0  0  0  0  0  0  0
   -4.3936   -4.9581    7.1498 C   0  0  0  0  0  0  0  0  0  0  0  0
   -4.5246   -4.3164    8.3542 C   0  0  0  0  0  0  0  0  0  0  0  0
   -4.6903   -4.9796    9.5873 C   0  0  0  0  0  0  0  0  0  0  0  0
   -4.8173   -5.4692   10.6176 N   0  0  0  0  0  0  0  0  0  0  0  0
   -4.5476   -2.9142    8.5071 C   0  0  0  0  0  0  0  0  0  0  0  0
   -4.5978   -1.7823    8.6939 N   0  0  0  0  0  0  0  0  0  0  0  0
    4.7866    4.6422   -6.3679 H   0  0  0  0  0  0  0  0  0  0  0  0
    7.8865    6.7105   -1.0630 H   0  0  0  0  0  0  0  0  0  0  0  0
   10.0199    7.8318   -2.1054 H   0  0  0  0  0  0  0  0  0  0  0  0
    3.0968    4.2268   -7.4831 H   0  0  0  0  0  0  0  0  0  0  0  0
    1.6980    3.1503   -7.3967 H   0  0  0  0  0  0  0  0  0  0  0  0
    3.6033    2.0580   -8.5459 H   0  0  0  0  0  0  0  0  0  0  0  0
    4.6090    2.2529   -7.1105 H   0  0  0  0  0  0  0  0  0  0  0  0
    3.1920    1.1989   -7.0571 H   0  0  0  0  0  0  0  0  0  0  0  0
   -6.0042   -3.8813    2.5682 H   0  0  0  0  0  0  0  0  0  0  0  0
   -6.1458   -3.5656    4.3001 H   0  0  0  0  0  0  0  0  0  0  0  0
   -8.0709   -2.5967    3.1463 H   0  0  0  0  0  0  0  0  0  0  0  0
   -7.0802   -1.2945    3.8084 H   0  0  0  0  0  0  0  0  0  0  0  0
   -7.0304   -1.6561    2.0792 H   0  0  0  0  0  0  0  0  0  0  0  0
    0.3737    2.5537    0.4848 H   0  0  0  0  0  0  0  0  0  0  0  0
    1.7671    2.9684   -0.5373 H   0  0  0  0  0  0  0  0  0  0  0  0
    0.4265    4.7375   -1.6423 H   0  0  0  0  0  0  0  0  0  0  0  0
   -1.0011    4.2720   -0.7077 H   0  0  0  0  0  0  0  0  0  0  0  0
    0.4082    4.9683    0.1057 H   0  0  0  0  0  0  0  0  0  0  0  0
   -0.1713   -0.5270    2.0248 H   0  0  0  0  0  0  0  0  0  0  0  0
    0.5439    0.6107    0.8817 H   0  0  0  0  0  0  0  0  0  0  0  0
   -1.1793    1.2120    3.3555 H   0  0  0  0  0  0  0  0  0  0  0  0
    0.5094    1.6595    3.1074 H   0  0  0  0  0  0  0  0  0  0  0  0
   -0.7746    2.4686    2.1947 H   0  0  0  0  0  0  0  0  0  0  0  0
   -3.4110   -2.4877    6.4727 H   0  0  0  0  0  0  0  0  0  0  0  0
   -4.4403   -8.0917    3.9664 H   0  0  0  0  0  0  0  0  0  0  0  0
   -4.6081   -7.3309    8.8870 H   0  0  0  0  0  0  0  0  0  0  0  0
  1  2  2  0  0  0  0
  2  3  1  0  0  0  0
  3  4  2  0  0  0  0
  3  5  1  0  0  0  0
  5  6  1  0  0  0  0
  6  7  2  0  0  0  0
  7  8  1  0  0  0  0
  8  9  1  0  0  0  0
  9 10  1  0  0  0  0
 10 11  2  0  0  0  0
 11 12  1  0  0  0  0
 12 13  3  0  0  0  0
 11 14  1  0  0  0  0
 14 15  3  0  0  0  0
  1 16  1  0  0  0  0
 16 17  2  0  0  0  0
 17 18  1  0  0  0  0
 18 19  1  0  0  0  0
 17 20  1  0  0  0  0
 20 21  1  0  0  0  0
 21 22  1  0  0  0  0
 22 23  1  0  0  0  0
 23 24  1  0  0  0  0
 24 25  1  0  0  0  0
 25 26  2  0  0  0  0
 26 27  1  0  0  0  0
 27 28  1  0  0  0  0
 25 29  1  0  0  0  0
 29 30  1  0  0  0  0
 30 31  1  0  0  0  0
 31 32  1  0  0  0  0
 32 33  1  0  0  0  0
 33 34  1  0  0  0  0
 34 35  1  0  0  0  0
 33 36  2  0  0  0  0
 36 37  1  0  0  0  0
 37 38  1  0  0  0  0
 38 39  1  0  0  0  0
 39 40  1  0  0  0  0
 40 41  1  0  0  0  0
 41 42  1  0  0  0  0
 42 43  1  0  0  0  0
 43 44  1  0  0  0  0
 44 45  1  0  0  0  0
 45 46  1  0  0  0  0
 43 47  1  0  0  0  0
 47 48  1  0  0  0  0
 40 49  1  0  0  0  0
 49 50  1  0  0  0  0
 36 51  1  0  0  0  0
 51 52  2  0  0  0  0
 52 53  1  0  0  0  0
 53 54  2  0  0  0  0
 53 55  1  0  0  0  0
 55 56  2  0  0  0  0
 56 57  1  0  0  0  0
 57 58  1  0  0  0  0
 57 59  2  0  0  0  0
 59 60  1  0  0  0  0
 59 61  1  0  0  0  0
 61 62  2  0  0  0  0
 62 63  1  0  0  0  0
 63 64  2  0  0  0  0
 64 65  1  0  0  0  0
 65 66  3  0  0  0  0
 64 67  1  0  0  0  0
 67 68  3  0  0  0  0
 10  2  1  0  0  0  0
 46 16  1  0  0  0  0
 63 52  1  0  0  0  0
  9  5  2  0  0  0  0
 45 20  2  0  0  0  0
 62 55  1  0  0  0  0
 44 22  2  0  0  0  0
 42 23  2  0  0  0  0
 28 24  2  0  0  0  0
 41 29  2  0  0  0  0
 39 30  2  0  0  0  0
 38 32  2  0  0  0  0
  1 69  1  0  0  0  0
  6 70  1  0  0  0  0
  7 71  1  0  0  0  0
 18 72  1  0  0  0  0
 18 73  1  0  0  0  0
 19 74  1  0  0  0  0
 19 75  1  0  0  0  0
 19 76  1  0  0  0  0
 34 77  1  0  0  0  0
 34 78  1  0  0  0  0
 35 79  1  0  0  0  0
 35 80  1  0  0  0  0
 35 81  1  0  0  0  0
 47 82  1  0  0  0  0
 47 83  1  0  0  0  0
 48 84  1  0  0  0  0
 48 85  1  0  0  0  0
 48 86  1  0  0  0  0
 49 87  1  0  0  0  0
 49 88  1  0  0  0  0
 50 89  1  0  0  0  0
 50 90  1  0  0  0  0
 50 91  1  0  0  0  0
 51 92  1  0  0  0  0
 56 93  1  0  0  0  0
 61 94  1  0  0  0  0
M  END
