94

C          4.75200        4.68380       -5.28650
C          5.81180        5.32630       -4.69440
C          6.01400        5.53530       -3.25860
O          5.26650        5.19000       -2.35210
C          7.28730        6.24960       -3.12990
C          8.10610        6.76790       -2.11300
C          9.22000        7.35470       -2.63720
S          9.29810        7.29230       -4.36160
C          7.80330        6.45830       -4.40140
C          6.93400        5.91190       -5.41120
C          7.17880        5.96500       -6.76100
C          8.34650        6.58450       -7.25330
N          9.29520        7.08860       -7.65620
C          6.35220        5.44110       -7.77170
N          5.71960        5.03540       -8.64110
C          3.62940        4.05290       -4.73850
C          2.66470        3.41640       -5.54040
C          2.71490        3.31010       -7.03160
C          3.58750        2.12760       -7.46210
C          1.64840        2.81040       -4.81070
S          0.25380        1.89780       -5.37060
C         -0.21720        1.66140       -3.72620
C         -1.23330        1.04200       -2.98400
C         -2.41890        0.38700       -3.38480
C         -3.31510       -0.10520       -2.37830
N         -4.40580       -0.64880       -2.89460
S         -4.31240       -0.55410       -4.50780
N         -2.87580        0.18370       -4.61030
C         -2.92280       -0.03410       -1.02280
C         -3.47720       -0.61100        0.12850
S         -4.83740       -1.56800        0.58370
C         -4.18400       -1.70270        2.20270
C         -4.64510       -2.44160        3.30220
C         -5.98580       -3.09710        3.32890
C         -7.11050       -2.09340        3.07010
C         -3.78730       -2.37880        4.39290
Se        -2.31990       -1.19790        4.09720
C         -2.97550       -1.00310        2.36560
C         -2.58010       -0.37910        1.17800
N         -1.50820        0.34190        0.72060
C         -1.69900        0.57920       -0.62770
C         -0.91500        1.23880       -1.60750
N          0.23220        2.00910       -1.52650
C          0.65620        2.25380       -2.80820
C          1.72290        2.92420       -3.41140
Se         3.21790        3.90070       -2.88200
C          0.67140        2.91760       -0.49030
C          0.08650        4.31390       -0.69950
C         -0.31660        0.44290        1.53050
C         -0.44590        1.51830        2.60970
C         -3.83160       -3.03720        5.63590
C         -4.24270       -4.32670        5.85790
C         -4.30330       -5.36910        4.81130
O         -4.18280       -5.23790        3.61230
C         -4.42780       -6.64920        5.54820
C         -4.47980       -7.92730        5.03130
C         -4.58500       -8.99290        5.91780
Cl        -4.65790      -10.61130        5.33970
C         -4.62950       -8.74040        7.29070
F         -4.72310       -9.77230        8.13820
C         -4.57600       -7.45900        7.81720
C         -4.47380       -6.39920        6.93030
C         -4.39360       -4.95810        7.14980
C         -4.52460       -4.31640        8.35420
C         -4.69030       -4.97960        9.58730
N         -4.81730       -5.46920       10.61760
C         -4.54760       -2.91420        8.50710
N         -4.59780       -1.78230        8.69390
H          4.78660        4.64220       -6.36790
H          7.88650        6.71050       -1.06300
H         10.01990        7.83180       -2.10540
H          3.09680        4.22680       -7.48310
H          1.69800        3.15030       -7.39670
H          3.60330        2.05800       -8.54590
H          4.60900        2.25290       -7.11050
H          3.19200        1.19890       -7.05710
H         -6.00420       -3.88130        2.56820
H         -6.14580       -3.56560        4.30010
H         -8.07090       -2.59670        3.14630
H         -7.08020       -1.29450        3.80840
H         -7.03040       -1.65610        2.07920
H          0.37370        2.55370        0.48480
H          1.76710        2.96840       -0.53730
H          0.42650        4.73750       -1.64230
H         -1.00110        4.27200       -0.70770
H          0.40820        4.96830        0.10570
H         -0.17130       -0.52700        2.02480
H          0.54390        0.61070        0.88170
H         -1.17930        1.21200        3.35550
H          0.50940        1.65950        3.10740
H         -0.77460        2.46860        2.19470
H         -3.41100       -2.48770        6.47270
H         -4.44030       -8.09170        3.96640
H         -4.60810       -7.33090        8.88700
