94

C          4.06710       -1.32960        6.57360
C          5.04710       -0.90610        7.42170
C          5.61430        0.47220        7.47250
O          5.26340        1.43820        6.83010
C          6.76910        0.37110        8.37810
C          7.76550        1.21530        8.89460
C          8.61560        0.52560        9.70860
S          8.23410       -1.15160        9.85950
C          6.89650       -0.94160        8.80850
C          5.86600       -1.77550        8.25610
C          5.69810       -3.10930        8.52850
C          6.60060       -3.78990        9.37240
N          7.33380       -4.34810       10.05610
C          4.65520       -3.91810        8.03980
N          3.82450       -4.62510        7.68030
C          3.16200       -0.52690        5.84000
C          2.50690        0.65360        6.16430
C          2.55950        1.30620        7.50440
C          1.17520        1.64870        8.05110
C          1.68970        1.08010        5.10430
S          0.67720        2.48920        4.87190
C          0.28230        1.92670        3.28770
C         -0.53360        2.28480        2.20420
C         -1.47500        3.32780        2.06040
C         -2.29580        3.36200        0.88560
N         -3.17540        4.35100        0.91150
S         -2.98320        5.17170        2.29300
N         -1.77220        4.29610        2.91300
C         -2.04890        2.42770       -0.14420
C         -2.59120        2.31190       -1.43100
S         -3.80750        3.05240       -2.40610
C         -3.35100        2.01180       -3.73780
C         -3.86250        1.84420       -5.03020
C         -4.89260        2.72520       -5.65070
C         -4.60420        4.20990       -5.43710
C         -3.18920        0.82550       -5.70330
S         -1.86220        0.15400       -4.75080
C         -2.29080        1.14800       -3.41310
C         -1.86820        1.31160       -2.09230
N         -0.91790        0.79210       -1.25250
C         -1.02490        1.44130       -0.03750
C         -0.34970        1.29000        1.20170
N          0.53260        0.33450        1.68610
C          0.90040        0.71960        2.94990
C          1.69910        0.23160        3.98880
S          2.69600       -1.14610        4.25520
C          0.63880       -1.06800        1.34230
C         -0.64320       -1.81590        1.70170
C          0.16150       -0.00240       -1.79440
C         -0.24670       -1.45670       -2.02350
C         -3.36330        0.28800       -6.99080
C         -4.55270        0.11730       -7.65430
C         -5.87110        0.04010       -6.99370
O         -6.14080        0.24330       -5.82900
C         -6.79710       -0.47030       -8.03180
C         -8.14440       -0.74580       -7.91150
C         -8.80240       -1.23660       -9.02800
F        -10.11040       -1.51330       -8.95800
C         -8.11530       -1.44720      -10.22370
F         -8.77510       -1.92940      -11.28300
C         -6.76080       -1.17330      -10.34370
C         -6.09770       -0.67810       -9.23210
C         -4.70130       -0.29450       -9.03240
C         -3.73250       -0.25230      -10.00090
C         -2.42260        0.23040       -9.79600
N         -1.34810        0.62520       -9.70540
C         -3.93340       -0.65550      -11.33720
N         -4.03990       -0.97430      -12.43460
H          3.98700       -2.39440        6.38410
H          7.84620        2.26530        8.68280
H          9.46230        0.90820       10.24430
H          3.16140        2.21590        7.42290
H          3.06800        0.63870        8.20290
H          1.26920        2.02180        9.06770
H          0.69100        2.41370        7.45140
H          0.54190        0.76420        8.06590
H         -5.86660        2.47200       -5.22200
H         -4.94050        2.51720       -6.72120
H         -3.60930        4.46000       -5.79910
H         -4.67140        4.47940       -4.38730
H         -5.33000        4.80240       -5.98810
H          1.47360       -1.46980        1.92190
H          0.87310       -1.20010        0.29050
H         -1.49250       -1.40510        1.15930
H         -0.84340       -1.72910        2.76710
H         -0.54020       -2.86890        1.45460
H          0.43960        0.43570       -2.75980
H          1.02670        0.08660       -1.13620
H          0.61460       -2.03190       -2.35170
H         -0.65060       -1.90670       -1.12140
H         -1.00720       -1.51090       -2.79760
H         -2.46270       -0.09540       -7.45720
H         -8.67160       -0.58550       -6.98470
H         -6.27260       -1.35870      -11.28640
