
  xtb     02022200153D
 energy: -176.485072040992 gnorm: 0.000507953050 xtb: 6.4.1 (unknown)
 94105  0     0  0            999 V2000
   -6.9429   -4.0535   -0.8474 C   0  0  0  0  0  0  0  0  0  0  0  0
   -6.8157   -5.3355   -0.3810 C   0  0  0  0  0  0  0  0  0  0  0  0
   -5.6412   -5.9243    0.2903 C   0  0  0  0  0  0  0  0  0  0  0  0
   -4.5834   -5.3771    0.5457 O   0  0  0  0  0  0  0  0  0  0  0  0
   -6.0142   -7.3135    0.5865 C   0  0  0  0  0  0  0  0  0  0  0  0
   -5.4419   -8.4475    1.1859 C   0  0  0  0  0  0  0  0  0  0  0  0
   -6.3108   -9.4988    1.1668 C   0  0  0  0  0  0  0  0  0  0  0  0
   -7.8291   -9.1385    0.4270 S   0  0  0  0  0  0  0  0  0  0  0  0
   -7.3042   -7.5354    0.1278 C   0  0  0  0  0  0  0  0  0  0  0  0
   -7.8525   -6.3517   -0.4791 C   0  0  0  0  0  0  0  0  0  0  0  0
   -9.1094   -6.2686   -1.0260 C   0  0  0  0  0  0  0  0  0  0  0  0
   -9.6778   -5.1303   -1.6257 C   0  0  0  0  0  0  0  0  0  0  0  0
  -10.1945   -4.2339   -2.1259 N   0  0  0  0  0  0  0  0  0  0  0  0
   -9.9670   -7.3884   -1.0226 C   0  0  0  0  0  0  0  0  0  0  0  0
  -10.6686   -8.2965   -1.0237 N   0  0  0  0  0  0  0  0  0  0  0  0
   -6.0467   -2.9775   -0.8391 C   0  0  0  0  0  0  0  0  0  0  0  0
   -6.3627   -1.7139   -1.3640 C   0  0  0  0  0  0  0  0  0  0  0  0
   -7.6803   -1.3112   -1.9411 C   0  0  0  0  0  0  0  0  0  0  0  0
   -8.6637   -0.9201   -0.8347 C   0  0  0  0  0  0  0  0  0  0  0  0
   -5.2960   -0.8327   -1.2360 C   0  0  0  0  0  0  0  0  0  0  0  0
   -5.0937    0.8495   -1.6897 S   0  0  0  0  0  0  0  0  0  0  0  0
   -3.4787    0.7864   -1.0762 C   0  0  0  0  0  0  0  0  0  0  0  0
   -2.3746    1.6328   -0.9060 C   0  0  0  0  0  0  0  0  0  0  0  0
   -2.2258    3.0175   -1.1419 C   0  0  0  0  0  0  0  0  0  0  0  0
   -0.9982    3.6559   -0.7682 C   0  0  0  0  0  0  0  0  0  0  0  0
   -1.0164    4.9601   -0.9937 N   0  0  0  0  0  0  0  0  0  0  0  0
   -2.4546    5.3505   -1.6262 S   0  0  0  0  0  0  0  0  0  0  0  0
   -3.1091    3.8705   -1.6364 N   0  0  0  0  0  0  0  0  0  0  0  0
    0.0659    2.8574   -0.2939 C   0  0  0  0  0  0  0  0  0  0  0  0
    1.4038    3.1783   -0.0286 C   0  0  0  0  0  0  0  0  0  0  0  0
    2.4425    4.5574   -0.0216 S   0  0  0  0  0  0  0  0  0  0  0  0
    3.8055    3.5141    0.3298 C   0  0  0  0  0  0  0  0  0  0  0  0
    5.1683    3.7611    0.5432 C   0  0  0  0  0  0  0  0  0  0  0  0
    5.8331    5.0828    0.3628 C   0  0  0  0  0  0  0  0  0  0  0  0
    5.3343    5.8500   -0.8587 C   0  0  0  0  0  0  0  0  0  0  0  0
    5.8499    2.5774    0.8261 C   0  0  0  0  0  0  0  0  0  0  0  0
    4.7991    1.1610    0.7488 S   0  0  0  0  0  0  0  0  0  0  0  0
    3.4367    2.1625    0.4327 C   0  0  0  0  0  0  0  0  0  0  0  0
    2.0663    1.9751    0.2394 C   0  0  0  0  0  0  0  0  0  0  0  0
    1.1820    0.9321    0.1736 N   0  0  0  0  0  0  0  0  0  0  0  0
   -0.0628    1.4460   -0.1318 C   0  0  0  0  0  0  0  0  0  0  0  0
   -1.3373    0.8485   -0.3203 C   0  0  0  0  0  0  0  0  0  0  0  0
   -1.8242   -0.4313   -0.1036 N   0  0  0  0  0  0  0  0  0  0  0  0
   -3.1185   -0.4619   -0.5572 C   0  0  0  0  0  0  0  0  0  0  0  0
   -4.1572   -1.3943   -0.6346 C   0  0  0  0  0  0  0  0  0  0  0  0
   -4.4058   -3.0416   -0.1953 S   0  0  0  0  0  0  0  0  0  0  0  0
   -1.4423   -1.4141    0.8893 C   0  0  0  0  0  0  0  0  0  0  0  0
   -1.8415   -0.9539    2.2899 C   0  0  0  0  0  0  0  0  0  0  0  0
    1.6789   -0.4239    0.1574 C   0  0  0  0  0  0  0  0  0  0  0  0
    1.9801   -0.9367    1.5653 C   0  0  0  0  0  0  0  0  0  0  0  0
    7.2123    2.3219    1.0662 C   0  0  0  0  0  0  0  0  0  0  0  0
    8.1104    3.1310    1.7141 C   0  0  0  0  0  0  0  0  0  0  0  0
    7.7473    4.1810    2.6868 C   0  0  0  0  0  0  0  0  0  0  0  0
    6.6389    4.5768    2.9817 O   0  0  0  0  0  0  0  0  0  0  0  0
    9.0208    4.5686    3.3366 C   0  0  0  0  0  0  0  0  0  0  0  0
    9.2207    5.5004    4.3342 C   0  0  0  0  0  0  0  0  0  0  0  0
   10.5224    5.6648    4.7843 C   0  0  0  0  0  0  0  0  0  0  0  0
   10.7671    6.5659    5.7505 F   0  0  0  0  0  0  0  0  0  0  0  0
   11.5841    4.9319    4.2755 C   0  0  0  0  0  0  0  0  0  0  0  0
   11.3683    3.9955    3.2755 C   0  0  0  0  0  0  0  0  0  0  0  0
   10.0779    3.8129    2.8002 C   0  0  0  0  0  0  0  0  0  0  0  0
    9.5422    2.9267    1.7701 C   0  0  0  0  0  0  0  0  0  0  0  0
   10.2764    2.1188    0.9410 C   0  0  0  0  0  0  0  0  0  0  0  0
   11.6760    1.9670    1.0198 C   0  0  0  0  0  0  0  0  0  0  0  0
   12.8116    1.8008    1.0418 N   0  0  0  0  0  0  0  0  0  0  0  0
    9.7372    1.3617   -0.1204 C   0  0  0  0  0  0  0  0  0  0  0  0
    9.3715    0.7413   -1.0148 N   0  0  0  0  0  0  0  0  0  0  0  0
   -7.8935   -3.8145   -1.3056 H   0  0  0  0  0  0  0  0  0  0  0  0
   -4.4530   -8.4844    1.6036 H   0  0  0  0  0  0  0  0  0  0  0  0
   -6.1499  -10.4873    1.5504 H   0  0  0  0  0  0  0  0  0  0  0  0
   -7.5177   -0.4509   -2.5934 H   0  0  0  0  0  0  0  0  0  0  0  0
   -8.1094   -2.1167   -2.5388 H   0  0  0  0  0  0  0  0  0  0  0  0
   -8.2689   -0.0898   -0.2539 H   0  0  0  0  0  0  0  0  0  0  0  0
   -9.6110   -0.6208   -1.2738 H   0  0  0  0  0  0  0  0  0  0  0  0
   -8.8441   -1.7581   -0.1655 H   0  0  0  0  0  0  0  0  0  0  0  0
    5.6664    5.6773    1.2667 H   0  0  0  0  0  0  0  0  0  0  0  0
    6.9104    4.9238    0.2755 H   0  0  0  0  0  0  0  0  0  0  0  0
    5.4057    5.2340   -1.7525 H   0  0  0  0  0  0  0  0  0  0  0  0
    4.3028    6.1662   -0.7349 H   0  0  0  0  0  0  0  0  0  0  0  0
    5.9462    6.7370   -1.0023 H   0  0  0  0  0  0  0  0  0  0  0  0
   -0.3785   -1.6197    0.8549 H   0  0  0  0  0  0  0  0  0  0  0  0
   -1.9743   -2.3359    0.6401 H   0  0  0  0  0  0  0  0  0  0  0  0
   -2.9158   -0.7948    2.3431 H   0  0  0  0  0  0  0  0  0  0  0  0
   -1.5683   -1.7117    3.0188 H   0  0  0  0  0  0  0  0  0  0  0  0
   -1.3421   -0.0207    2.5442 H   0  0  0  0  0  0  0  0  0  0  0  0
    2.6106   -0.4244   -0.4195 H   0  0  0  0  0  0  0  0  0  0  0  0
    0.9674   -1.0565   -0.3745 H   0  0  0  0  0  0  0  0  0  0  0  0
    2.8060   -0.3751    1.9935 H   0  0  0  0  0  0  0  0  0  0  0  0
    2.2645   -1.9844    1.5245 H   0  0  0  0  0  0  0  0  0  0  0  0
    1.1211   -0.8275    2.2222 H   0  0  0  0  0  0  0  0  0  0  0  0
    7.5561    1.3454    0.7434 H   0  0  0  0  0  0  0  0  0  0  0  0
    8.4051    6.0752    4.7428 H   0  0  0  0  0  0  0  0  0  0  0  0
   12.5744    5.0989    4.6688 H   0  0  0  0  0  0  0  0  0  0  0  0
   12.1980    3.4255    2.8910 H   0  0  0  0  0  0  0  0  0  0  0  0
  1  2  2  0  0  0  0
  2  3  1  0  0  0  0
  3  4  2  0  0  0  0
  3  5  1  0  0  0  0
  5  6  1  0  0  0  0
  6  7  2  0  0  0  0
  7  8  1  0  0  0  0
  8  9  1  0  0  0  0
  9 10  1  0  0  0  0
 10 11  2  0  0  0  0
 11 12  1  0  0  0  0
 12 13  3  0  0  0  0
 11 14  1  0  0  0  0
 14 15  3  0  0  0  0
  1 16  1  0  0  0  0
 16 17  2  0  0  0  0
 17 18  1  0  0  0  0
 18 19  1  0  0  0  0
 17 20  1  0  0  0  0
 20 21  1  0  0  0  0
 21 22  1  0  0  0  0
 22 23  1  0  0  0  0
 23 24  1  0  0  0  0
 24 25  1  0  0  0  0
 25 26  2  0  0  0  0
 26 27  1  0  0  0  0
 27 28  1  0  0  0  0
 25 29  1  0  0  0  0
 29 30  1  0  0  0  0
 30 31  1  0  0  0  0
 31 32  1  0  0  0  0
 32 33  1  0  0  0  0
 33 34  1  0  0  0  0
 34 35  1  0  0  0  0
 33 36  2  0  0  0  0
 36 37  1  0  0  0  0
 37 38  1  0  0  0  0
 38 39  1  0  0  0  0
 39 40  1  0  0  0  0
 40 41  1  0  0  0  0
 41 42  1  0  0  0  0
 42 43  1  0  0  0  0
 43 44  1  0  0  0  0
 44 45  1  0  0  0  0
 45 46  1  0  0  0  0
 43 47  1  0  0  0  0
 47 48  1  0  0  0  0
 40 49  1  0  0  0  0
 49 50  1  0  0  0  0
 36 51  1  0  0  0  0
 51 52  2  0  0  0  0
 52 53  1  0  0  0  0
 53 54  2  0  0  0  0
 53 55  1  0  0  0  0
 55 56  2  0  0  0  0
 56 57  1  0  0  0  0
 57 58  1  0  0  0  0
 57 59  2  0  0  0  0
 59 60  1  0  0  0  0
 60 61  2  0  0  0  0
 61 62  1  0  0  0  0
 62 63  2  0  0  0  0
 63 64  1  0  0  0  0
 64 65  3  0  0  0  0
 63 66  1  0  0  0  0
 66 67  3  0  0  0  0
 10  2  1  0  0  0  0
 46 16  1  0  0  0  0
 62 52  1  0  0  0  0
  9  5  2  0  0  0  0
 45 20  2  0  0  0  0
 61 55  1  0  0  0  0
 44 22  2  0  0  0  0
 42 23  2  0  0  0  0
 28 24  2  0  0  0  0
 41 29  2  0  0  0  0
 39 30  2  0  0  0  0
 38 32  2  0  0  0  0
  1 68  1  0  0  0  0
  6 69  1  0  0  0  0
  7 70  1  0  0  0  0
 18 71  1  0  0  0  0
 18 72  1  0  0  0  0
 19 73  1  0  0  0  0
 19 74  1  0  0  0  0
 19 75  1  0  0  0  0
 34 76  1  0  0  0  0
 34 77  1  0  0  0  0
 35 78  1  0  0  0  0
 35 79  1  0  0  0  0
 35 80  1  0  0  0  0
 47 81  1  0  0  0  0
 47 82  1  0  0  0  0
 48 83  1  0  0  0  0
 48 84  1  0  0  0  0
 48 85  1  0  0  0  0
 49 86  1  0  0  0  0
 49 87  1  0  0  0  0
 50 88  1  0  0  0  0
 50 89  1  0  0  0  0
 50 90  1  0  0  0  0
 51 91  1  0  0  0  0
 56 92  1  0  0  0  0
 59 93  1  0  0  0  0
 60 94  1  0  0  0  0
M  END
