
  xtb     02012216093D
 energy: -236.378586229797 gnorm: 0.000367172618 xtb: 6.4.1 (unknown)
145159  0     0  0            999 V2000
    3.8346   -4.6210    5.7308 C   0  0  0  0  0  0  0  0  0  0  0  0
    3.9469   -4.9139    7.0635 C   0  0  0  0  0  0  0  0  0  0  0  0
    2.9482   -4.7470    8.1549 C   0  0  0  0  0  0  0  0  0  0  0  0
    1.8010   -4.3570    8.0829 O   0  0  0  0  0  0  0  0  0  0  0  0
    3.6452   -5.1637    9.3809 C   0  0  0  0  0  0  0  0  0  0  0  0
    3.3647   -5.2644   10.7537 C   0  0  0  0  0  0  0  0  0  0  0  0
    4.4463   -5.7351   11.4379 C   0  0  0  0  0  0  0  0  0  0  0  0
    5.8164   -6.0652   10.4392 S   0  0  0  0  0  0  0  0  0  0  0  0
    4.9325   -5.5612    9.0594 C   0  0  0  0  0  0  0  0  0  0  0  0
    5.1768   -5.4386    7.6484 C   0  0  0  0  0  0  0  0  0  0  0  0
    6.3656   -5.7697    7.0463 C   0  0  0  0  0  0  0  0  0  0  0  0
    7.4419   -6.2592    7.8164 C   0  0  0  0  0  0  0  0  0  0  0  0
    8.3240   -6.6573    8.4333 N   0  0  0  0  0  0  0  0  0  0  0  0
    6.6777   -5.6826    5.6769 C   0  0  0  0  0  0  0  0  0  0  0  0
    7.0135   -5.6440    4.5786 N   0  0  0  0  0  0  0  0  0  0  0  0
    2.7826   -4.0794    4.9717 C   0  0  0  0  0  0  0  0  0  0  0  0
    3.1510   -3.7558    3.2716 S   0  0  0  0  0  0  0  0  0  0  0  0
    1.5902   -3.1054    3.0454 C   0  0  0  0  0  0  0  0  0  0  0  0
    0.8779   -2.4640    1.9881 C   0  0  0  0  0  0  0  0  0  0  0  0
   -0.3903   -2.1074    2.5026 C   0  0  0  0  0  0  0  0  0  0  0  0
   -0.5515   -2.5818    3.9369 C   0  0  0  0  0  0  0  0  0  0  0  0
   -1.5495   -3.7173    4.0943 C   0  0  0  0  0  0  0  0  0  0  0  0
   -2.0880   -4.3848    3.0049 C   0  0  0  0  0  0  0  0  0  0  0  0
   -2.9682   -5.4357    3.1959 C   0  0  0  0  0  0  0  0  0  0  0  0
   -3.3251   -5.8475    4.4719 C   0  0  0  0  0  0  0  0  0  0  0  0
   -4.2465   -7.0154    4.6758 C   0  0  0  0  0  0  0  0  0  0  0  0
   -3.4456   -8.3141    4.7889 C   0  0  0  0  0  0  0  0  0  0  0  0
   -2.7701   -5.1832    5.5592 C   0  0  0  0  0  0  0  0  0  0  0  0
   -1.8927   -4.1331    5.3757 C   0  0  0  0  0  0  0  0  0  0  0  0
   -0.9232   -1.3945    4.8030 C   0  0  0  0  0  0  0  0  0  0  0  0
   -2.2580   -1.0374    4.9500 C   0  0  0  0  0  0  0  0  0  0  0  0
   -2.6087    0.0761    5.6885 C   0  0  0  0  0  0  0  0  0  0  0  0
   -1.6393    0.8622    6.2982 C   0  0  0  0  0  0  0  0  0  0  0  0
   -2.0234    2.0982    7.0591 C   0  0  0  0  0  0  0  0  0  0  0  0
   -2.1133    3.2984    6.1142 C   0  0  0  0  0  0  0  0  0  0  0  0
   -0.3072    0.5046    6.1427 C   0  0  0  0  0  0  0  0  0  0  0  0
    0.0497   -0.6071    5.4014 C   0  0  0  0  0  0  0  0  0  0  0  0
    0.8190   -3.1499    4.2057 C   0  0  0  0  0  0  0  0  0  0  0  0
    1.4808   -3.7025    5.2876 C   0  0  0  0  0  0  0  0  0  0  0  0
   -1.2587   -1.3454    1.7566 C   0  0  0  0  0  0  0  0  0  0  0  0
   -0.8440   -0.9745    0.4811 C   0  0  0  0  0  0  0  0  0  0  0  0
   -1.4260   -0.0683   -0.4565 C   0  0  0  0  0  0  0  0  0  0  0  0
   -0.6115    0.0873   -1.5661 C   0  0  0  0  0  0  0  0  0  0  0  0
    0.5681   -0.8547   -1.4808 C   0  0  0  0  0  0  0  0  0  0  0  0
    0.3906   -1.3981   -0.0646 C   0  0  0  0  0  0  0  0  0  0  0  0
    1.2724   -2.1297    0.6936 C   0  0  0  0  0  0  0  0  0  0  0  0
    0.4331   -2.0134   -2.4586 C   0  0  0  0  0  0  0  0  0  0  0  0
    1.3578   -3.0527   -2.4362 C   0  0  0  0  0  0  0  0  0  0  0  0
    1.2445   -4.1215   -3.3035 C   0  0  0  0  0  0  0  0  0  0  0  0
    0.2018   -4.1928   -4.2186 C   0  0  0  0  0  0  0  0  0  0  0  0
    0.1054   -5.3318   -5.1911 C   0  0  0  0  0  0  0  0  0  0  0  0
    0.8544   -4.9959   -6.4824 C   0  0  0  0  0  0  0  0  0  0  0  0
   -0.7199   -3.1565   -4.2396 C   0  0  0  0  0  0  0  0  0  0  0  0
   -0.6097   -2.0838   -3.3725 C   0  0  0  0  0  0  0  0  0  0  0  0
    1.8791   -0.1013   -1.6103 C   0  0  0  0  0  0  0  0  0  0  0  0
    2.1692    0.8781   -0.6660 C   0  0  0  0  0  0  0  0  0  0  0  0
    3.3426    1.6032   -0.7392 C   0  0  0  0  0  0  0  0  0  0  0  0
    4.2619    1.3706   -1.7552 C   0  0  0  0  0  0  0  0  0  0  0  0
    5.5174    2.1857   -1.8627 C   0  0  0  0  0  0  0  0  0  0  0  0
    5.2923    3.3965   -2.7709 C   0  0  0  0  0  0  0  0  0  0  0  0
    3.9647    0.3985   -2.6997 C   0  0  0  0  0  0  0  0  0  0  0  0
    2.7889   -0.3278   -2.6332 C   0  0  0  0  0  0  0  0  0  0  0  0
   -1.1078    1.0791   -2.4189 C   0  0  0  0  0  0  0  0  0  0  0  0
   -2.3105    1.6468   -1.9186 C   0  0  0  0  0  0  0  0  0  0  0  0
   -2.8241    0.9543   -0.4154 S   0  0  0  0  0  0  0  0  0  0  0  0
   -2.6877    2.6437   -2.8125 C   0  0  0  0  0  0  0  0  0  0  0  0
   -3.8882    3.8463   -3.0641 S   0  0  0  0  0  0  0  0  0  0  0  0
   -3.0449    4.4028   -4.5139 C   0  0  0  0  0  0  0  0  0  0  0  0
   -1.9091    3.6541   -4.7870 C   0  0  0  0  0  0  0  0  0  0  0  0
   -1.7049    2.6624   -3.8343 C   0  0  0  0  0  0  0  0  0  0  0  0
   -0.7692    1.6897   -3.5961 N   0  0  0  0  0  0  0  0  0  0  0  0
    0.4172    1.4753   -4.3858 C   0  0  0  0  0  0  0  0  0  0  0  0
    1.4791    2.5336   -4.1004 C   0  0  0  0  0  0  0  0  0  0  0  0
   -3.5636    5.5296   -5.1784 C   0  0  0  0  0  0  0  0  0  0  0  0
   -3.0008    6.2404   -6.1907 C   0  0  0  0  0  0  0  0  0  0  0  0
   -1.4550    5.9499   -6.9641 S   0  0  0  0  0  0  0  0  0  0  0  0
   -1.6401    7.3777   -7.9573 C   0  0  0  0  0  0  0  0  0  0  0  0
   -0.7035    7.7191   -8.8993 C   0  0  0  0  0  0  0  0  0  0  0  0
   -0.8196    8.7959   -9.7956 C   0  0  0  0  0  0  0  0  0  0  0  0
   -0.8589    9.6412  -10.5719 N   0  0  0  0  0  0  0  0  0  0  0  0
    0.4606    6.9376   -9.0319 C   0  0  0  0  0  0  0  0  0  0  0  0
    1.4088    6.2982   -9.1264 N   0  0  0  0  0  0  0  0  0  0  0  0
   -2.8021    8.0243   -7.6875 N   0  0  0  0  0  0  0  0  0  0  0  0
   -3.1436    9.2849   -8.2615 C   0  0  0  0  0  0  0  0  0  0  0  0
   -4.2167    9.3705   -9.1329 C   0  0  0  0  0  0  0  0  0  0  0  0
   -4.5541   10.6013   -9.6666 C   0  0  0  0  0  0  0  0  0  0  0  0
   -3.8276   11.7299   -9.3285 C   0  0  0  0  0  0  0  0  0  0  0  0
   -2.7659   11.6369   -8.4446 C   0  0  0  0  0  0  0  0  0  0  0  0
   -2.4215   10.4136   -7.9015 C   0  0  0  0  0  0  0  0  0  0  0  0
   -3.6326    7.4388   -6.7323 C   0  0  0  0  0  0  0  0  0  0  0  0
   -4.7040    7.8953   -6.4096 O   0  0  0  0  0  0  0  0  0  0  0  0
    4.7215   -4.8138    5.1377 H   0  0  0  0  0  0  0  0  0  0  0  0
    2.4253   -5.0049   11.2053 H   0  0  0  0  0  0  0  0  0  0  0  0
    4.5267   -5.9138   12.4924 H   0  0  0  0  0  0  0  0  0  0  0  0
   -1.8260   -4.0848    2.0006 H   0  0  0  0  0  0  0  0  0  0  0  0
   -3.3847   -5.9409    2.3359 H   0  0  0  0  0  0  0  0  0  0  0  0
   -4.8290   -6.8721    5.5882 H   0  0  0  0  0  0  0  0  0  0  0  0
   -4.9398   -7.0920    3.8357 H   0  0  0  0  0  0  0  0  0  0  0  0
   -4.1118   -9.1610    4.9363 H   0  0  0  0  0  0  0  0  0  0  0  0
   -2.7577   -8.2620    5.6298 H   0  0  0  0  0  0  0  0  0  0  0  0
   -2.8659   -8.4808    3.8836 H   0  0  0  0  0  0  0  0  0  0  0  0
   -3.0298   -5.4912    6.5617 H   0  0  0  0  0  0  0  0  0  0  0  0
   -1.4760   -3.6241    6.2321 H   0  0  0  0  0  0  0  0  0  0  0  0
   -3.0282   -1.6425    4.4934 H   0  0  0  0  0  0  0  0  0  0  0  0
   -3.6520    0.3372    5.7958 H   0  0  0  0  0  0  0  0  0  0  0  0
   -1.2811    2.3036    7.8329 H   0  0  0  0  0  0  0  0  0  0  0  0
   -2.9905    1.9492    7.5436 H   0  0  0  0  0  0  0  0  0  0  0  0
   -2.8567    3.1165    5.3412 H   0  0  0  0  0  0  0  0  0  0  0  0
   -1.1543    3.4716    5.6310 H   0  0  0  0  0  0  0  0  0  0  0  0
   -2.3937    4.1949    6.6622 H   0  0  0  0  0  0  0  0  0  0  0  0
    0.4633    1.1022    6.6087 H   0  0  0  0  0  0  0  0  0  0  0  0
    1.0935   -0.8638    5.2935 H   0  0  0  0  0  0  0  0  0  0  0  0
    1.0744   -3.8233    6.2740 H   0  0  0  0  0  0  0  0  0  0  0  0
   -2.2087   -1.0140    2.1463 H   0  0  0  0  0  0  0  0  0  0  0  0
    2.2550   -2.4027    0.3423 H   0  0  0  0  0  0  0  0  0  0  0  0
    2.1829   -3.0247   -1.7422 H   0  0  0  0  0  0  0  0  0  0  0  0
    1.9769   -4.9152   -3.2661 H   0  0  0  0  0  0  0  0  0  0  0  0
    0.5357   -6.2327   -4.7495 H   0  0  0  0  0  0  0  0  0  0  0  0
   -0.9423   -5.5317   -5.4246 H   0  0  0  0  0  0  0  0  0  0  0  0
    1.9034   -4.7999   -6.2716 H   0  0  0  0  0  0  0  0  0  0  0  0
    0.4278   -4.1104   -6.9486 H   0  0  0  0  0  0  0  0  0  0  0  0
    0.7904   -5.8230   -7.1852 H   0  0  0  0  0  0  0  0  0  0  0  0
   -1.5418   -3.1870   -4.9407 H   0  0  0  0  0  0  0  0  0  0  0  0
   -1.3526   -1.3016   -3.4159 H   0  0  0  0  0  0  0  0  0  0  0  0
    1.4681    1.0688    0.1346 H   0  0  0  0  0  0  0  0  0  0  0  0
    3.5501    2.3578    0.0060 H   0  0  0  0  0  0  0  0  0  0  0  0
    6.3217    1.5730   -2.2744 H   0  0  0  0  0  0  0  0  0  0  0  0
    5.8218    2.5295   -0.8725 H   0  0  0  0  0  0  0  0  0  0  0  0
    6.1996    3.9912   -2.8418 H   0  0  0  0  0  0  0  0  0  0  0  0
    4.4957    4.0238   -2.3770 H   0  0  0  0  0  0  0  0  0  0  0  0
    5.0103    3.0744   -3.7708 H   0  0  0  0  0  0  0  0  0  0  0  0
    4.6637    0.2015   -3.4998 H   0  0  0  0  0  0  0  0  0  0  0  0
    2.5908   -1.0779   -3.3848 H   0  0  0  0  0  0  0  0  0  0  0  0
   -1.2775    3.8256   -5.6385 H   0  0  0  0  0  0  0  0  0  0  0  0
    0.8027    0.4814   -4.1528 H   0  0  0  0  0  0  0  0  0  0  0  0
    0.1347    1.5049   -5.4427 H   0  0  0  0  0  0  0  0  0  0  0  0
    1.1051    3.5248   -4.3448 H   0  0  0  0  0  0  0  0  0  0  0  0
    1.7600    2.5127   -3.0504 H   0  0  0  0  0  0  0  0  0  0  0  0
    2.3633    2.3373   -4.6991 H   0  0  0  0  0  0  0  0  0  0  0  0
   -4.5143    5.9135   -4.8270 H   0  0  0  0  0  0  0  0  0  0  0  0
   -4.7764    8.4831   -9.3857 H   0  0  0  0  0  0  0  0  0  0  0  0
   -5.3854   10.6754  -10.3507 H   0  0  0  0  0  0  0  0  0  0  0  0
   -4.0908   12.6867   -9.7528 H   0  0  0  0  0  0  0  0  0  0  0  0
   -2.2032   12.5173   -8.1753 H   0  0  0  0  0  0  0  0  0  0  0  0
   -1.5974   10.3302   -7.2076 H   0  0  0  0  0  0  0  0  0  0  0  0
  1  2  2  0  0  0  0
  2  3  1  0  0  0  0
  3  4  2  0  0  0  0
  3  5  1  0  0  0  0
  5  6  1  0  0  0  0
  6  7  2  0  0  0  0
  7  8  1  0  0  0  0
  8  9  1  0  0  0  0
  9 10  1  0  0  0  0
 10 11  2  0  0  0  0
 11 12  1  0  0  0  0
 12 13  3  0  0  0  0
 11 14  1  0  0  0  0
 14 15  3  0  0  0  0
  1 16  1  0  0  0  0
 16 17  1  0  0  0  0
 17 18  1  0  0  0  0
 18 19  1  0  0  0  0
 19 20  2  0  0  0  0
 20 21  1  0  0  0  0
 21 22  1  0  0  0  0
 22 23  2  0  0  0  0
 23 24  1  0  0  0  0
 24 25  2  0  0  0  0
 25 26  1  0  0  0  0
 26 27  1  0  0  0  0
 25 28  1  0  0  0  0
 28 29  2  0  0  0  0
 21 30  1  0  0  0  0
 30 31  2  0  0  0  0
 31 32  1  0  0  0  0
 32 33  2  0  0  0  0
 33 34  1  0  0  0  0
 34 35  1  0  0  0  0
 33 36  1  0  0  0  0
 36 37  2  0  0  0  0
 21 38  1  0  0  0  0
 38 39  1  0  0  0  0
 20 40  1  0  0  0  0
 40 41  2  0  0  0  0
 41 42  1  0  0  0  0
 42 43  2  0  0  0  0
 43 44  1  0  0  0  0
 44 45  1  0  0  0  0
 45 46  2  0  0  0  0
 44 47  1  0  0  0  0
 47 48  2  0  0  0  0
 48 49  1  0  0  0  0
 49 50  2  0  0  0  0
 50 51  1  0  0  0  0
 51 52  1  0  0  0  0
 50 53  1  0  0  0  0
 53 54  2  0  0  0  0
 44 55  1  0  0  0  0
 55 56  2  0  0  0  0
 56 57  1  0  0  0  0
 57 58  2  0  0  0  0
 58 59  1  0  0  0  0
 59 60  1  0  0  0  0
 58 61  1  0  0  0  0
 61 62  2  0  0  0  0
 43 63  1  0  0  0  0
 63 64  2  0  0  0  0
 64 65  1  0  0  0  0
 64 66  1  0  0  0  0
 66 67  1  0  0  0  0
 67 68  1  0  0  0  0
 68 69  2  0  0  0  0
 69 70  1  0  0  0  0
 70 71  1  0  0  0  0
 71 72  1  0  0  0  0
 72 73  1  0  0  0  0
 68 74  1  0  0  0  0
 74 75  2  0  0  0  0
 75 76  1  0  0  0  0
 76 77  1  0  0  0  0
 77 78  2  0  0  0  0
 78 79  1  0  0  0  0
 79 80  3  0  0  0  0
 78 81  1  0  0  0  0
 81 82  3  0  0  0  0
 77 83  1  0  0  0  0
 83 84  1  0  0  0  0
 84 85  2  0  0  0  0
 85 86  1  0  0  0  0
 86 87  2  0  0  0  0
 87 88  1  0  0  0  0
 88 89  2  0  0  0  0
 83 90  1  0  0  0  0
 90 91  2  0  0  0  0
 10  2  1  0  0  0  0
 39 16  2  0  0  0  0
 45 41  1  0  0  0  0
 54 47  1  0  0  0  0
 62 55  1  0  0  0  0
 71 63  1  0  0  0  0
 90 75  1  0  0  0  0
  9  5  2  0  0  0  0
 38 18  2  0  0  0  0
 65 42  1  0  0  0  0
 70 66  2  0  0  0  0
 89 84  1  0  0  0  0
 46 19  1  0  0  0  0
 29 22  1  0  0  0  0
 37 30  1  0  0  0  0
  1 92  1  0  0  0  0
  6 93  1  0  0  0  0
  7 94  1  0  0  0  0
 23 95  1  0  0  0  0
 24 96  1  0  0  0  0
 26 97  1  0  0  0  0
 26 98  1  0  0  0  0
 27 99  1  0  0  0  0
 27100  1  0  0  0  0
 27101  1  0  0  0  0
 28102  1  0  0  0  0
 29103  1  0  0  0  0
 31104  1  0  0  0  0
 32105  1  0  0  0  0
 34106  1  0  0  0  0
 34107  1  0  0  0  0
 35108  1  0  0  0  0
 35109  1  0  0  0  0
 35110  1  0  0  0  0
 36111  1  0  0  0  0
 37112  1  0  0  0  0
 39113  1  0  0  0  0
 40114  1  0  0  0  0
 46115  1  0  0  0  0
 48116  1  0  0  0  0
 49117  1  0  0  0  0
 51118  1  0  0  0  0
 51119  1  0  0  0  0
 52120  1  0  0  0  0
 52121  1  0  0  0  0
 52122  1  0  0  0  0
 53123  1  0  0  0  0
 54124  1  0  0  0  0
 56125  1  0  0  0  0
 57126  1  0  0  0  0
 59127  1  0  0  0  0
 59128  1  0  0  0  0
 60129  1  0  0  0  0
 60130  1  0  0  0  0
 60131  1  0  0  0  0
 61132  1  0  0  0  0
 62133  1  0  0  0  0
 69134  1  0  0  0  0
 72135  1  0  0  0  0
 72136  1  0  0  0  0
 73137  1  0  0  0  0
 73138  1  0  0  0  0
 73139  1  0  0  0  0
 74140  1  0  0  0  0
 85141  1  0  0  0  0
 86142  1  0  0  0  0
 87143  1  0  0  0  0
 88144  1  0  0  0  0
 89145  1  0  0  0  0
M  END
