
  xtb     02012215343D
 energy: -234.793576741094 gnorm: 0.000216883051 xtb: 6.4.1 (unknown)
143158  0     0  0            999 V2000
  -10.0373    2.6020    0.1443 C   0  0  0  0  0  0  0  0  0  0  0  0
  -11.1126    1.8967   -0.3048 C   0  0  0  0  0  0  0  0  0  0  0  0
  -12.2147    2.6122   -1.0142 C   0  0  0  0  0  0  0  0  0  0  0  0
  -12.4122    3.8062   -1.0282 O   0  0  0  0  0  0  0  0  0  0  0  0
  -12.9463    1.5490   -1.7212 C   0  0  0  0  0  0  0  0  0  0  0  0
  -14.0149    1.4373   -2.6271 C   0  0  0  0  0  0  0  0  0  0  0  0
  -14.2672    0.1316   -2.9267 C   0  0  0  0  0  0  0  0  0  0  0  0
  -13.2309   -0.9855   -2.1111 S   0  0  0  0  0  0  0  0  0  0  0  0
  -12.4153    0.3183   -1.3590 C   0  0  0  0  0  0  0  0  0  0  0  0
  -11.3698    0.4710   -0.3811 C   0  0  0  0  0  0  0  0  0  0  0  0
  -10.9379   -0.5114    0.4746 C   0  0  0  0  0  0  0  0  0  0  0  0
  -10.1824   -0.2520    1.6340 C   0  0  0  0  0  0  0  0  0  0  0  0
   -9.6297   -0.0586    2.6215 N   0  0  0  0  0  0  0  0  0  0  0  0
  -11.3379   -1.8510    0.3066 C   0  0  0  0  0  0  0  0  0  0  0  0
  -11.6543   -2.9448    0.1622 N   0  0  0  0  0  0  0  0  0  0  0  0
   -8.7156    2.1803    0.3944 C   0  0  0  0  0  0  0  0  0  0  0  0
   -8.0722    0.6527   -0.2176 S   0  0  0  0  0  0  0  0  0  0  0  0
   -6.5021    1.0764    0.3347 C   0  0  0  0  0  0  0  0  0  0  0  0
   -5.1920    0.6132    0.3499 C   0  0  0  0  0  0  0  0  0  0  0  0
   -4.2778   -0.7652   -0.1633 S   0  0  0  0  0  0  0  0  0  0  0  0
   -2.8458    0.0330    0.3939 C   0  0  0  0  0  0  0  0  0  0  0  0
   -1.4568   -0.2925    0.3247 C   0  0  0  0  0  0  0  0  0  0  0  0
   -0.8102   -1.4318   -0.1468 C   0  0  0  0  0  0  0  0  0  0  0  0
    0.5642   -1.4104   -0.1615 C   0  0  0  0  0  0  0  0  0  0  0  0
    1.5171   -2.4905   -0.6437 C   0  0  0  0  0  0  0  0  0  0  0  0
    1.6659   -3.6357    0.3476 C   0  0  0  0  0  0  0  0  0  0  0  0
    2.3757   -4.7673   -0.0361 C   0  0  0  0  0  0  0  0  0  0  0  0
    2.5835   -5.8005    0.8564 C   0  0  0  0  0  0  0  0  0  0  0  0
    2.0960   -5.7294    2.1555 C   0  0  0  0  0  0  0  0  0  0  0  0
    2.2846   -6.8717    3.1114 C   0  0  0  0  0  0  0  0  0  0  0  0
    1.1161   -7.8540    3.0070 C   0  0  0  0  0  0  0  0  0  0  0  0
    1.3923   -4.5946    2.5338 C   0  0  0  0  0  0  0  0  0  0  0  0
    1.1828   -3.5552    1.6451 C   0  0  0  0  0  0  0  0  0  0  0  0
    1.0996   -2.9853   -2.0113 C   0  0  0  0  0  0  0  0  0  0  0  0
    0.1780   -4.0191   -2.1222 C   0  0  0  0  0  0  0  0  0  0  0  0
   -0.2326   -4.4619   -3.3646 C   0  0  0  0  0  0  0  0  0  0  0  0
    0.2642   -3.8864   -4.5271 C   0  0  0  0  0  0  0  0  0  0  0  0
   -0.2109   -4.3491   -5.8741 C   0  0  0  0  0  0  0  0  0  0  0  0
   -1.4714   -3.5864   -6.2867 C   0  0  0  0  0  0  0  0  0  0  0  0
    1.1718   -2.8428   -4.4103 C   0  0  0  0  0  0  0  0  0  0  0  0
    1.5824   -2.3927   -3.1690 C   0  0  0  0  0  0  0  0  0  0  0  0
    2.8230   -1.7417   -0.6180 C   0  0  0  0  0  0  0  0  0  0  0  0
    2.6539   -0.4930   -0.0467 C   0  0  0  0  0  0  0  0  0  0  0  0
    1.2746   -0.2593    0.2521 C   0  0  0  0  0  0  0  0  0  0  0  0
    0.6281    0.8539    0.7817 C   0  0  0  0  0  0  0  0  0  0  0  0
   -0.7458    0.8197    0.8265 C   0  0  0  0  0  0  0  0  0  0  0  0
   -1.7052    1.9065    1.3067 C   0  0  0  0  0  0  0  0  0  0  0  0
   -1.3881    3.1586    0.5145 C   0  0  0  0  0  0  0  0  0  0  0  0
   -2.0930    3.4747   -0.6396 C   0  0  0  0  0  0  0  0  0  0  0  0
   -1.7554    4.5858   -1.3924 C   0  0  0  0  0  0  0  0  0  0  0  0
   -0.7025    5.4090   -1.0195 C   0  0  0  0  0  0  0  0  0  0  0  0
   -0.3124    6.5919   -1.8569 C   0  0  0  0  0  0  0  0  0  0  0  0
    0.7345    6.1863   -2.8964 C   0  0  0  0  0  0  0  0  0  0  0  0
    0.0176    5.0763    0.1206 C   0  0  0  0  0  0  0  0  0  0  0  0
   -0.3139    3.9663    0.8734 C   0  0  0  0  0  0  0  0  0  0  0  0
   -1.6289    2.0700    2.8166 C   0  0  0  0  0  0  0  0  0  0  0  0
   -1.7306    3.3042    3.4456 C   0  0  0  0  0  0  0  0  0  0  0  0
   -1.7072    3.3941    4.8266 C   0  0  0  0  0  0  0  0  0  0  0  0
   -1.5862    2.2605    5.6176 C   0  0  0  0  0  0  0  0  0  0  0  0
   -1.6040    2.3604    7.1151 C   0  0  0  0  0  0  0  0  0  0  0  0
   -3.0402    2.2891    7.6384 C   0  0  0  0  0  0  0  0  0  0  0  0
   -1.4966    1.0268    4.9855 C   0  0  0  0  0  0  0  0  0  0  0  0
   -1.5199    0.9317    3.6078 C   0  0  0  0  0  0  0  0  0  0  0  0
   -3.0411    1.2869    0.9506 C   0  0  0  0  0  0  0  0  0  0  0  0
   -4.4015    1.6227    0.9653 C   0  0  0  0  0  0  0  0  0  0  0  0
   -5.2115    2.6565    1.3523 N   0  0  0  0  0  0  0  0  0  0  0  0
   -6.4883    2.3465    0.9604 C   0  0  0  0  0  0  0  0  0  0  0  0
   -7.7317    2.9653    0.9799 C   0  0  0  0  0  0  0  0  0  0  0  0
   -4.8533    3.8436    2.0864 C   0  0  0  0  0  0  0  0  0  0  0  0
   -4.6615    5.0520    1.1733 C   0  0  0  0  0  0  0  0  0  0  0  0
    4.1039    0.4509    0.0235 S   0  0  0  0  0  0  0  0  0  0  0  0
    4.9622   -0.8473   -0.7458 C   0  0  0  0  0  0  0  0  0  0  0  0
    4.1440   -1.9595   -1.0044 C   0  0  0  0  0  0  0  0  0  0  0  0
    4.9908   -3.2505   -1.8041 S   0  0  0  0  0  0  0  0  0  0  0  0
    6.4403   -2.2818   -1.8252 C   0  0  0  0  0  0  0  0  0  0  0  0
    7.7140   -2.4752   -2.3456 C   0  0  0  0  0  0  0  0  0  0  0  0
    8.5274   -1.3688   -2.1605 C   0  0  0  0  0  0  0  0  0  0  0  0
    7.6983   -0.0775   -1.3015 S   0  0  0  0  0  0  0  0  0  0  0  0
    6.2644   -1.0280   -1.2197 C   0  0  0  0  0  0  0  0  0  0  0  0
    9.8505   -1.2435   -2.6307 C   0  0  0  0  0  0  0  0  0  0  0  0
   10.6701   -0.1657   -2.5627 C   0  0  0  0  0  0  0  0  0  0  0  0
   10.3305    1.3920   -1.8441 S   0  0  0  0  0  0  0  0  0  0  0  0
   11.9370    2.0250   -2.3368 C   0  0  0  0  0  0  0  0  0  0  0  0
   12.3149    3.1363   -2.1069 O   0  0  0  0  0  0  0  0  0  0  0  0
   12.6246    1.0428   -2.9861 N   0  0  0  0  0  0  0  0  0  0  0  0
   13.9453    1.3028   -3.5357 C   0  0  0  0  0  0  0  0  0  0  0  0
   13.8481    1.9283   -4.9210 C   0  0  0  0  0  0  0  0  0  0  0  0
   12.0091   -0.1868   -3.1529 C   0  0  0  0  0  0  0  0  0  0  0  0
   12.5289   -1.1258   -3.7110 O   0  0  0  0  0  0  0  0  0  0  0  0
  -10.1977    3.6742    0.2150 H   0  0  0  0  0  0  0  0  0  0  0  0
  -14.5631    2.2693   -3.0287 H   0  0  0  0  0  0  0  0  0  0  0  0
  -15.0199   -0.2555   -3.5855 H   0  0  0  0  0  0  0  0  0  0  0  0
   -1.3735   -2.2813   -0.5005 H   0  0  0  0  0  0  0  0  0  0  0  0
    2.7633   -4.8389   -1.0422 H   0  0  0  0  0  0  0  0  0  0  0  0
    3.1378   -6.6727    0.5408 H   0  0  0  0  0  0  0  0  0  0  0  0
    3.2156   -7.3946    2.8840 H   0  0  0  0  0  0  0  0  0  0  0  0
    2.3458   -6.4930    4.1337 H   0  0  0  0  0  0  0  0  0  0  0  0
    0.1794   -7.3539    3.2429 H   0  0  0  0  0  0  0  0  0  0  0  0
    1.2519   -8.6821    3.6986 H   0  0  0  0  0  0  0  0  0  0  0  0
    1.0462   -8.2521    1.9972 H   0  0  0  0  0  0  0  0  0  0  0  0
    1.0066   -4.5175    3.5405 H   0  0  0  0  0  0  0  0  0  0  0  0
    0.6400   -2.6788    1.9674 H   0  0  0  0  0  0  0  0  0  0  0  0
   -0.2095   -4.4893   -1.2297 H   0  0  0  0  0  0  0  0  0  0  0  0
   -0.9457   -5.2711   -3.4328 H   0  0  0  0  0  0  0  0  0  0  0  0
   -0.4324   -5.4178   -5.8409 H   0  0  0  0  0  0  0  0  0  0  0  0
    0.5700   -4.1847   -6.6193 H   0  0  0  0  0  0  0  0  0  0  0  0
   -1.2677   -2.5191   -6.3377 H   0  0  0  0  0  0  0  0  0  0  0  0
   -2.2657   -3.7478   -5.5614 H   0  0  0  0  0  0  0  0  0  0  0  0
   -1.8173   -3.9218   -7.2617 H   0  0  0  0  0  0  0  0  0  0  0  0
    1.5665   -2.3768   -5.3021 H   0  0  0  0  0  0  0  0  0  0  0  0
    2.2857   -1.5750   -3.1042 H   0  0  0  0  0  0  0  0  0  0  0  0
    1.1964    1.7070    1.1164 H   0  0  0  0  0  0  0  0  0  0  0  0
   -2.9114    2.8477   -0.9622 H   0  0  0  0  0  0  0  0  0  0  0  0
   -2.3230    4.8151   -2.2832 H   0  0  0  0  0  0  0  0  0  0  0  0
   -1.1912    6.9910   -2.3673 H   0  0  0  0  0  0  0  0  0  0  0  0
    0.0994    7.3770   -1.2195 H   0  0  0  0  0  0  0  0  0  0  0  0
    1.0191    7.0424   -3.5034 H   0  0  0  0  0  0  0  0  0  0  0  0
    1.6236    5.7965   -2.4060 H   0  0  0  0  0  0  0  0  0  0  0  0
    0.3382    5.4124   -3.5500 H   0  0  0  0  0  0  0  0  0  0  0  0
    0.8508    5.6942    0.4237 H   0  0  0  0  0  0  0  0  0  0  0  0
    0.2659    3.7328    1.7542 H   0  0  0  0  0  0  0  0  0  0  0  0
   -1.8118    4.2102    2.8622 H   0  0  0  0  0  0  0  0  0  0  0  0
   -1.7818    4.3657    5.2943 H   0  0  0  0  0  0  0  0  0  0  0  0
   -1.1531    3.3040    7.4290 H   0  0  0  0  0  0  0  0  0  0  0  0
   -1.0230    1.5433    7.5468 H   0  0  0  0  0  0  0  0  0  0  0  0
   -3.0527    2.3557    8.7236 H   0  0  0  0  0  0  0  0  0  0  0  0
   -3.5050    1.3514    7.3423 H   0  0  0  0  0  0  0  0  0  0  0  0
   -3.6324    3.1068    7.2335 H   0  0  0  0  0  0  0  0  0  0  0  0
   -1.4055    0.1288    5.5794 H   0  0  0  0  0  0  0  0  0  0  0  0
   -1.4511   -0.0392    3.1390 H   0  0  0  0  0  0  0  0  0  0  0  0
   -7.9439    3.9320    1.3994 H   0  0  0  0  0  0  0  0  0  0  0  0
   -5.6537    4.0450    2.8053 H   0  0  0  0  0  0  0  0  0  0  0  0
   -3.9370    3.6340    2.6403 H   0  0  0  0  0  0  0  0  0  0  0  0
   -5.5655    5.2423    0.5997 H   0  0  0  0  0  0  0  0  0  0  0  0
   -3.8395    4.8809    0.4825 H   0  0  0  0  0  0  0  0  0  0  0  0
   -4.4367    5.9311    1.7710 H   0  0  0  0  0  0  0  0  0  0  0  0
    8.0399   -3.3658   -2.8504 H   0  0  0  0  0  0  0  0  0  0  0  0
   10.2645   -2.1106   -3.1329 H   0  0  0  0  0  0  0  0  0  0  0  0
   14.4569    0.3389   -3.5845 H   0  0  0  0  0  0  0  0  0  0  0  0
   14.4664    1.9724   -2.8481 H   0  0  0  0  0  0  0  0  0  0  0  0
   13.3162    1.2632   -5.5975 H   0  0  0  0  0  0  0  0  0  0  0  0
   14.8456    2.1019   -5.3141 H   0  0  0  0  0  0  0  0  0  0  0  0
   13.3221    2.8789   -4.8688 H   0  0  0  0  0  0  0  0  0  0  0  0
  1  2  2  0  0  0  0
  2  3  1  0  0  0  0
  3  4  2  0  0  0  0
  3  5  1  0  0  0  0
  5  6  1  0  0  0  0
  6  7  2  0  0  0  0
  7  8  1  0  0  0  0
  8  9  1  0  0  0  0
  9 10  1  0  0  0  0
 10 11  2  0  0  0  0
 11 12  1  0  0  0  0
 12 13  3  0  0  0  0
 11 14  1  0  0  0  0
 14 15  3  0  0  0  0
  1 16  1  0  0  0  0
 16 17  1  0  0  0  0
 17 18  1  0  0  0  0
 18 19  1  0  0  0  0
 19 20  1  0  0  0  0
 20 21  1  0  0  0  0
 21 22  1  0  0  0  0
 22 23  2  0  0  0  0
 23 24  1  0  0  0  0
 24 25  1  0  0  0  0
 25 26  1  0  0  0  0
 26 27  2  0  0  0  0
 27 28  1  0  0  0  0
 28 29  2  0  0  0  0
 29 30  1  0  0  0  0
 30 31  1  0  0  0  0
 29 32  1  0  0  0  0
 32 33  2  0  0  0  0
 25 34  1  0  0  0  0
 34 35  2  0  0  0  0
 35 36  1  0  0  0  0
 36 37  2  0  0  0  0
 37 38  1  0  0  0  0
 38 39  1  0  0  0  0
 37 40  1  0  0  0  0
 40 41  2  0  0  0  0
 25 42  1  0  0  0  0
 42 43  2  0  0  0  0
 43 44  1  0  0  0  0
 44 45  1  0  0  0  0
 45 46  2  0  0  0  0
 46 47  1  0  0  0  0
 47 48  1  0  0  0  0
 48 49  2  0  0  0  0
 49 50  1  0  0  0  0
 50 51  2  0  0  0  0
 51 52  1  0  0  0  0
 52 53  1  0  0  0  0
 51 54  1  0  0  0  0
 54 55  2  0  0  0  0
 47 56  1  0  0  0  0
 56 57  2  0  0  0  0
 57 58  1  0  0  0  0
 58 59  2  0  0  0  0
 59 60  1  0  0  0  0
 60 61  1  0  0  0  0
 59 62  1  0  0  0  0
 62 63  2  0  0  0  0
 47 64  1  0  0  0  0
 64 65  1  0  0  0  0
 65 66  1  0  0  0  0
 66 67  1  0  0  0  0
 67 68  1  0  0  0  0
 66 69  1  0  0  0  0
 69 70  1  0  0  0  0
 43 71  1  0  0  0  0
 71 72  1  0  0  0  0
 72 73  2  0  0  0  0
 73 74  1  0  0  0  0
 74 75  1  0  0  0  0
 75 76  1  0  0  0  0
 76 77  2  0  0  0  0
 77 78  1  0  0  0  0
 78 79  1  0  0  0  0
 77 80  1  0  0  0  0
 80 81  2  0  0  0  0
 81 82  1  0  0  0  0
 82 83  1  0  0  0  0
 83 84  2  0  0  0  0
 83 85  1  0  0  0  0
 85 86  1  0  0  0  0
 86 87  1  0  0  0  0
 85 88  1  0  0  0  0
 88 89  2  0  0  0  0
 10  2  1  0  0  0  0
 68 16  2  0  0  0  0
 79 72  1  0  0  0  0
 88 81  1  0  0  0  0
  9  5  2  0  0  0  0
 67 18  2  0  0  0  0
 79 75  2  0  0  0  0
 65 19  2  0  0  0  0
 64 21  2  0  0  0  0
 46 22  1  0  0  0  0
 55 48  1  0  0  0  0
 63 56  1  0  0  0  0
 44 24  2  0  0  0  0
 33 26  1  0  0  0  0
 41 34  1  0  0  0  0
 73 42  1  0  0  0  0
  1 90  1  0  0  0  0
  6 91  1  0  0  0  0
  7 92  1  0  0  0  0
 23 93  1  0  0  0  0
 27 94  1  0  0  0  0
 28 95  1  0  0  0  0
 30 96  1  0  0  0  0
 30 97  1  0  0  0  0
 31 98  1  0  0  0  0
 31 99  1  0  0  0  0
 31100  1  0  0  0  0
 32101  1  0  0  0  0
 33102  1  0  0  0  0
 35103  1  0  0  0  0
 36104  1  0  0  0  0
 38105  1  0  0  0  0
 38106  1  0  0  0  0
 39107  1  0  0  0  0
 39108  1  0  0  0  0
 39109  1  0  0  0  0
 40110  1  0  0  0  0
 41111  1  0  0  0  0
 45112  1  0  0  0  0
 49113  1  0  0  0  0
 50114  1  0  0  0  0
 52115  1  0  0  0  0
 52116  1  0  0  0  0
 53117  1  0  0  0  0
 53118  1  0  0  0  0
 53119  1  0  0  0  0
 54120  1  0  0  0  0
 55121  1  0  0  0  0
 57122  1  0  0  0  0
 58123  1  0  0  0  0
 60124  1  0  0  0  0
 60125  1  0  0  0  0
 61126  1  0  0  0  0
 61127  1  0  0  0  0
 61128  1  0  0  0  0
 62129  1  0  0  0  0
 63130  1  0  0  0  0
 68131  1  0  0  0  0
 69132  1  0  0  0  0
 69133  1  0  0  0  0
 70134  1  0  0  0  0
 70135  1  0  0  0  0
 70136  1  0  0  0  0
 76137  1  0  0  0  0
 80138  1  0  0  0  0
 86139  1  0  0  0  0
 86140  1  0  0  0  0
 87141  1  0  0  0  0
 87142  1  0  0  0  0
 87143  1  0  0  0  0
M  END
