107

C          7.39290        1.80660       -3.07490
C          7.24930        1.95600       -4.42950
C          6.02120        2.33410       -5.16780
O          4.87190        2.37050       -4.77020
C          6.47700        2.72860       -6.51150
C          5.73430        3.22230       -7.56440
C          6.37080        3.54370       -8.75860
C          5.57650        4.07790       -9.90750
C          7.75810        3.36610       -8.87480
C          8.45580        3.71800      -10.14990
C          8.49940        2.86440       -7.80830
C          7.86370        2.54120       -6.62180
C          8.36250        2.00550       -5.36100
C          9.63650        1.55240       -5.13580
C         10.67190        1.61320       -6.09090
N         11.55570        1.64080       -6.82350
C         10.08010        0.92380       -3.95330
N         10.51060        0.37850       -3.03850
C          6.40180        1.70600       -2.08000
Se         6.89440        2.12900       -0.26950
C          5.12020        1.83540        0.13240
C          4.22740        1.91280        1.21020
C          4.39790        2.38000        2.53110
C          3.25520        2.46470        3.39490
N          3.55540        2.98120        4.57580
S          5.13710        3.32570        4.60120
N          5.50310        2.82980        3.10230
C          2.01990        1.94500        2.94220
C          0.80340        1.72550        3.60080
S          0.08790        2.03610        5.14280
C         -1.33980        1.16560        4.61690
C         -2.54510        0.89050        5.24880
C         -2.83750        1.30750        6.65310
C         -2.55210        0.16440        7.63100
C         -3.39770        0.14260        4.41970
S         -2.66460       -0.20560        2.85450
C         -1.24570        0.66330        3.30710
C         -0.01930        1.00080        2.72570
N          0.63520        0.79660        1.53840
C          1.87970        1.38790        1.63800
C          2.95480        1.50840        0.72350
N          3.05900        1.24930       -0.62930
C          4.37210        1.43520       -0.99100
C          5.06880        1.34920       -2.19290
C          2.01040        1.36390       -1.62210
C          2.10490        2.67760       -2.39900
C          0.18750       -0.22190        0.61090
C         -1.03970        0.20630       -0.19330
C         -4.68880       -0.23880        4.80160
C         -5.64390       -0.96900        4.14020
C         -5.49570       -1.60980        2.83110
O         -4.53600       -1.55150        2.07900
C         -6.74270       -2.35320        2.58870
C         -7.04530       -3.14620        1.48480
C         -8.29060       -3.72490        1.53710
C         -9.16860       -3.53240        2.61170
C         -8.88080       -2.75410        3.70800
C         -7.62090       -2.15080        3.67270
C         -6.97110       -1.26760        4.64050
C         -7.55050       -0.78960        5.78900
C         -8.86530       -1.08690        6.20440
N         -9.92380       -1.27770        6.60660
C         -6.94480        0.08230        6.71710
N         -6.52720        0.79150        7.51970
C        -10.23650       -4.40300        1.99880
C        -11.44560       -3.70000        1.33370
C        -10.96050       -2.34300        0.88750
C        -10.13000       -2.52450       -0.13050
C        -10.03790       -4.00780       -0.39080
C        -11.46490       -4.43770       -0.01470
C         -9.25830       -4.61700        0.80090
H          8.40740        1.82990       -2.68880
H          4.66830        3.35360       -7.45150
H          5.93240        5.06770      -10.19160
H          5.67750        3.43030      -10.77790
H          4.52380        4.14890       -9.64760
H          9.52060        3.51640      -10.07490
H          8.31630        4.77320      -10.38330
H          8.04990        3.14130      -10.98030
H          9.56470        2.74190       -7.92020
H         -3.87590        1.62550        6.75980
H         -2.19390        2.15470        6.89800
H         -2.76100        0.48780        8.64670
H         -3.17560       -0.69840        7.40810
H         -1.50870       -0.13590        7.56730
H          4.64020        1.02050       -3.12060
H          1.05280        1.33890       -1.11340
H          2.07850        0.51670       -2.31190
H          2.99680        2.71740       -3.01710
H          1.23600        2.77260       -3.04500
H          2.11930        3.51950       -1.70970
H          1.02140       -0.48870       -0.03950
H         -0.07750       -1.11070        1.19470
H         -1.21990       -0.51240       -0.98760
H         -1.91860        0.23540        0.44360
H         -0.91130        1.19190       -0.63500
H         -4.95950        0.10960        5.78870
H         -6.33660       -3.27080        0.68100
H         -9.56690       -2.62220        4.52760
H        -10.53150       -5.27530        2.57870
H        -12.35670       -3.71310        1.92560
H        -11.21870       -1.42370        1.37970
H         -9.55490       -1.78680       -0.65890
H         -9.66810       -4.30160       -1.36970
H        -11.58190       -5.51620        0.08230
H        -12.21660       -4.04600       -0.69830
H         -8.91490       -5.62960        0.59800
