
  xtb     02112203183D
 energy: -184.744090789904 gnorm: 0.000350377391 xtb: 6.4.1 (unknown)
107120  0     0  0            999 V2000
    7.3929    1.8066   -3.0749 C   0  0  0  0  0  0  0  0  0  0  0  0
    7.2493    1.9560   -4.4295 C   0  0  0  0  0  0  0  0  0  0  0  0
    6.0212    2.3341   -5.1678 C   0  0  0  0  0  0  0  0  0  0  0  0
    4.8719    2.3705   -4.7702 O   0  0  0  0  0  0  0  0  0  0  0  0
    6.4770    2.7286   -6.5115 C   0  0  0  0  0  0  0  0  0  0  0  0
    5.7343    3.2223   -7.5644 C   0  0  0  0  0  0  0  0  0  0  0  0
    6.3708    3.5437   -8.7586 C   0  0  0  0  0  0  0  0  0  0  0  0
    5.5765    4.0779   -9.9075 C   0  0  0  0  0  0  0  0  0  0  0  0
    7.7581    3.3661   -8.8748 C   0  0  0  0  0  0  0  0  0  0  0  0
    8.4558    3.7180  -10.1499 C   0  0  0  0  0  0  0  0  0  0  0  0
    8.4994    2.8644   -7.8083 C   0  0  0  0  0  0  0  0  0  0  0  0
    7.8637    2.5412   -6.6218 C   0  0  0  0  0  0  0  0  0  0  0  0
    8.3625    2.0055   -5.3610 C   0  0  0  0  0  0  0  0  0  0  0  0
    9.6365    1.5524   -5.1358 C   0  0  0  0  0  0  0  0  0  0  0  0
   10.6719    1.6132   -6.0909 C   0  0  0  0  0  0  0  0  0  0  0  0
   11.5557    1.6408   -6.8235 N   0  0  0  0  0  0  0  0  0  0  0  0
   10.0801    0.9238   -3.9533 C   0  0  0  0  0  0  0  0  0  0  0  0
   10.5106    0.3785   -3.0385 N   0  0  0  0  0  0  0  0  0  0  0  0
    6.4018    1.7060   -2.0800 C   0  0  0  0  0  0  0  0  0  0  0  0
    6.8944    2.1290   -0.2695 Se  0  0  0  0  0  2  0  0  0  0  0  0
    5.1202    1.8354    0.1324 C   0  0  0  0  0  0  0  0  0  0  0  0
    4.2274    1.9128    1.2102 C   0  0  0  0  0  0  0  0  0  0  0  0
    4.3979    2.3800    2.5311 C   0  0  0  0  0  0  0  0  0  0  0  0
    3.2552    2.4647    3.3949 C   0  0  0  0  0  0  0  0  0  0  0  0
    3.5554    2.9812    4.5758 N   0  0  0  0  0  0  0  0  0  0  0  0
    5.1371    3.3257    4.6012 S   0  0  0  0  0  0  0  0  0  0  0  0
    5.5031    2.8298    3.1023 N   0  0  0  0  0  0  0  0  0  0  0  0
    2.0199    1.9450    2.9422 C   0  0  0  0  0  0  0  0  0  0  0  0
    0.8034    1.7255    3.6008 C   0  0  0  0  0  0  0  0  0  0  0  0
    0.0879    2.0361    5.1428 S   0  0  0  0  0  0  0  0  0  0  0  0
   -1.3398    1.1656    4.6169 C   0  0  0  0  0  0  0  0  0  0  0  0
   -2.5451    0.8905    5.2488 C   0  0  0  0  0  0  0  0  0  0  0  0
   -2.8375    1.3075    6.6531 C   0  0  0  0  0  0  0  0  0  0  0  0
   -2.5521    0.1644    7.6310 C   0  0  0  0  0  0  0  0  0  0  0  0
   -3.3977    0.1426    4.4197 C   0  0  0  0  0  0  0  0  0  0  0  0
   -2.6646   -0.2056    2.8545 S   0  0  0  0  0  0  0  0  0  0  0  0
   -1.2457    0.6633    3.3071 C   0  0  0  0  0  0  0  0  0  0  0  0
   -0.0193    1.0008    2.7257 C   0  0  0  0  0  0  0  0  0  0  0  0
    0.6352    0.7966    1.5384 N   0  0  0  0  0  0  0  0  0  0  0  0
    1.8797    1.3879    1.6380 C   0  0  0  0  0  0  0  0  0  0  0  0
    2.9548    1.5084    0.7235 C   0  0  0  0  0  0  0  0  0  0  0  0
    3.0590    1.2493   -0.6293 N   0  0  0  0  0  0  0  0  0  0  0  0
    4.3721    1.4352   -0.9910 C   0  0  0  0  0  0  0  0  0  0  0  0
    5.0688    1.3492   -2.1929 C   0  0  0  0  0  0  0  0  0  0  0  0
    2.0104    1.3639   -1.6221 C   0  0  0  0  0  0  0  0  0  0  0  0
    2.1049    2.6776   -2.3990 C   0  0  0  0  0  0  0  0  0  0  0  0
    0.1875   -0.2219    0.6109 C   0  0  0  0  0  0  0  0  0  0  0  0
   -1.0397    0.2063   -0.1933 C   0  0  0  0  0  0  0  0  0  0  0  0
   -4.6888   -0.2388    4.8016 C   0  0  0  0  0  0  0  0  0  0  0  0
   -5.6439   -0.9690    4.1402 C   0  0  0  0  0  0  0  0  0  0  0  0
   -5.4957   -1.6098    2.8311 C   0  0  0  0  0  0  0  0  0  0  0  0
   -4.5360   -1.5515    2.0790 O   0  0  0  0  0  0  0  0  0  0  0  0
   -6.7427   -2.3532    2.5887 C   0  0  0  0  0  0  0  0  0  0  0  0
   -7.0453   -3.1462    1.4848 C   0  0  0  0  0  0  0  0  0  0  0  0
   -8.2906   -3.7249    1.5371 C   0  0  0  0  0  0  0  0  0  0  0  0
   -9.1686   -3.5324    2.6117 C   0  0  0  0  0  0  0  0  0  0  0  0
   -8.8808   -2.7541    3.7080 C   0  0  0  0  0  0  0  0  0  0  0  0
   -7.6209   -2.1508    3.6727 C   0  0  0  0  0  0  0  0  0  0  0  0
   -6.9711   -1.2676    4.6405 C   0  0  0  0  0  0  0  0  0  0  0  0
   -7.5505   -0.7896    5.7890 C   0  0  0  0  0  0  0  0  0  0  0  0
   -8.8653   -1.0869    6.2044 C   0  0  0  0  0  0  0  0  0  0  0  0
   -9.9238   -1.2777    6.6066 N   0  0  0  0  0  0  0  0  0  0  0  0
   -6.9448    0.0823    6.7171 C   0  0  0  0  0  0  0  0  0  0  0  0
   -6.5272    0.7915    7.5197 N   0  0  0  0  0  0  0  0  0  0  0  0
  -10.2365   -4.4030    1.9988 C   0  0  0  0  0  0  0  0  0  0  0  0
  -11.4456   -3.7000    1.3337 C   0  0  0  0  0  0  0  0  0  0  0  0
  -10.9605   -2.3430    0.8875 C   0  0  0  0  0  0  0  0  0  0  0  0
  -10.1300   -2.5245   -0.1305 C   0  0  0  0  0  0  0  0  0  0  0  0
  -10.0379   -4.0078   -0.3908 C   0  0  0  0  0  0  0  0  0  0  0  0
  -11.4649   -4.4377   -0.0147 C   0  0  0  0  0  0  0  0  0  0  0  0
   -9.2583   -4.6170    0.8009 C   0  0  0  0  0  0  0  0  0  0  0  0
    8.4074    1.8299   -2.6888 H   0  0  0  0  0  0  0  0  0  0  0  0
    4.6683    3.3536   -7.4515 H   0  0  0  0  0  0  0  0  0  0  0  0
    5.9324    5.0677  -10.1916 H   0  0  0  0  0  0  0  0  0  0  0  0
    5.6775    3.4303  -10.7779 H   0  0  0  0  0  0  0  0  0  0  0  0
    4.5238    4.1489   -9.6476 H   0  0  0  0  0  0  0  0  0  0  0  0
    9.5206    3.5164  -10.0749 H   0  0  0  0  0  0  0  0  0  0  0  0
    8.3163    4.7732  -10.3833 H   0  0  0  0  0  0  0  0  0  0  0  0
    8.0499    3.1413  -10.9803 H   0  0  0  0  0  0  0  0  0  0  0  0
    9.5647    2.7419   -7.9202 H   0  0  0  0  0  0  0  0  0  0  0  0
   -3.8759    1.6255    6.7598 H   0  0  0  0  0  0  0  0  0  0  0  0
   -2.1939    2.1547    6.8980 H   0  0  0  0  0  0  0  0  0  0  0  0
   -2.7610    0.4878    8.6467 H   0  0  0  0  0  0  0  0  0  0  0  0
   -3.1756   -0.6984    7.4081 H   0  0  0  0  0  0  0  0  0  0  0  0
   -1.5087   -0.1359    7.5673 H   0  0  0  0  0  0  0  0  0  0  0  0
    4.6402    1.0205   -3.1206 H   0  0  0  0  0  0  0  0  0  0  0  0
    1.0528    1.3389   -1.1134 H   0  0  0  0  0  0  0  0  0  0  0  0
    2.0785    0.5167   -2.3119 H   0  0  0  0  0  0  0  0  0  0  0  0
    2.9968    2.7174   -3.0171 H   0  0  0  0  0  0  0  0  0  0  0  0
    1.2360    2.7726   -3.0450 H   0  0  0  0  0  0  0  0  0  0  0  0
    2.1193    3.5195   -1.7097 H   0  0  0  0  0  0  0  0  0  0  0  0
    1.0214   -0.4887   -0.0395 H   0  0  0  0  0  0  0  0  0  0  0  0
   -0.0775   -1.1107    1.1947 H   0  0  0  0  0  0  0  0  0  0  0  0
   -1.2199   -0.5124   -0.9876 H   0  0  0  0  0  0  0  0  0  0  0  0
   -1.9186    0.2354    0.4436 H   0  0  0  0  0  0  0  0  0  0  0  0
   -0.9113    1.1919   -0.6350 H   0  0  0  0  0  0  0  0  0  0  0  0
   -4.9595    0.1096    5.7887 H   0  0  0  0  0  0  0  0  0  0  0  0
   -6.3366   -3.2708    0.6810 H   0  0  0  0  0  0  0  0  0  0  0  0
   -9.5669   -2.6222    4.5276 H   0  0  0  0  0  0  0  0  0  0  0  0
  -10.5315   -5.2753    2.5787 H   0  0  0  0  0  0  0  0  0  0  0  0
  -12.3567   -3.7131    1.9256 H   0  0  0  0  0  0  0  0  0  0  0  0
  -11.2187   -1.4237    1.3797 H   0  0  0  0  0  0  0  0  0  0  0  0
   -9.5549   -1.7868   -0.6589 H   0  0  0  0  0  0  0  0  0  0  0  0
   -9.6681   -4.3016   -1.3697 H   0  0  0  0  0  0  0  0  0  0  0  0
  -11.5819   -5.5162    0.0823 H   0  0  0  0  0  0  0  0  0  0  0  0
  -12.2166   -4.0460   -0.6983 H   0  0  0  0  0  0  0  0  0  0  0  0
   -8.9149   -5.6296    0.5980 H   0  0  0  0  0  0  0  0  0  0  0  0
  1  2  2  0  0  0  0
  2  3  1  0  0  0  0
  3  4  2  0  0  0  0
  3  5  1  0  0  0  0
  5  6  2  0  0  0  0
  6  7  1  0  0  0  0
  7  8  1  0  0  0  0
  7  9  2  0  0  0  0
  9 10  1  0  0  0  0
  9 11  1  0  0  0  0
 11 12  2  0  0  0  0
 12 13  1  0  0  0  0
 13 14  2  0  0  0  0
 14 15  1  0  0  0  0
 15 16  3  0  0  0  0
 14 17  1  0  0  0  0
 17 18  3  0  0  0  0
  1 19  1  0  0  0  0
 19 20  1  0  0  0  0
 20 21  1  0  0  0  0
 21 22  1  0  0  0  0
 22 23  1  0  0  0  0
 23 24  1  0  0  0  0
 24 25  2  0  0  0  0
 25 26  1  0  0  0  0
 26 27  1  0  0  0  0
 24 28  1  0  0  0  0
 28 29  1  0  0  0  0
 29 30  1  0  0  0  0
 30 31  1  0  0  0  0
 31 32  1  0  0  0  0
 32 33  1  0  0  0  0
 33 34  1  0  0  0  0
 32 35  2  0  0  0  0
 35 36  1  0  0  0  0
 36 37  1  0  0  0  0
 37 38  1  0  0  0  0
 38 39  1  0  0  0  0
 39 40  1  0  0  0  0
 40 41  1  0  0  0  0
 41 42  1  0  0  0  0
 42 43  1  0  0  0  0
 43 44  1  0  0  0  0
 42 45  1  0  0  0  0
 45 46  1  0  0  0  0
 39 47  1  0  0  0  0
 47 48  1  0  0  0  0
 35 49  1  0  0  0  0
 49 50  2  0  0  0  0
 50 51  1  0  0  0  0
 51 52  2  0  0  0  0
 51 53  1  0  0  0  0
 53 54  2  0  0  0  0
 54 55  1  0  0  0  0
 55 56  2  0  0  0  0
 56 57  1  0  0  0  0
 57 58  2  0  0  0  0
 58 59  1  0  0  0  0
 59 60  2  0  0  0  0
 60 61  1  0  0  0  0
 61 62  3  0  0  0  0
 60 63  1  0  0  0  0
 63 64  3  0  0  0  0
 56 65  1  0  0  0  0
 65 66  1  0  0  0  0
 66 67  1  0  0  0  0
 67 68  2  0  0  0  0
 68 69  1  0  0  0  0
 69 70  1  0  0  0  0
 69 71  1  0  0  0  0
 13  2  1  0  0  0  0
 44 19  2  0  0  0  0
 59 50  1  0  0  0  0
 71 65  1  0  0  0  0
 12  5  1  0  0  0  0
 43 21  2  0  0  0  0
 58 53  1  0  0  0  0
 70 66  1  0  0  0  0
 41 22  2  0  0  0  0
 71 55  1  0  0  0  0
 27 23  2  0  0  0  0
 40 28  2  0  0  0  0
 38 29  2  0  0  0  0
 37 31  2  0  0  0  0
  1 72  1  0  0  0  0
  6 73  1  0  0  0  0
  8 74  1  0  0  0  0
  8 75  1  0  0  0  0
  8 76  1  0  0  0  0
 10 77  1  0  0  0  0
 10 78  1  0  0  0  0
 10 79  1  0  0  0  0
 11 80  1  0  0  0  0
 33 81  1  0  0  0  0
 33 82  1  0  0  0  0
 34 83  1  0  0  0  0
 34 84  1  0  0  0  0
 34 85  1  0  0  0  0
 44 86  1  0  0  0  0
 45 87  1  0  0  0  0
 45 88  1  0  0  0  0
 46 89  1  0  0  0  0
 46 90  1  0  0  0  0
 46 91  1  0  0  0  0
 47 92  1  0  0  0  0
 47 93  1  0  0  0  0
 48 94  1  0  0  0  0
 48 95  1  0  0  0  0
 48 96  1  0  0  0  0
 49 97  1  0  0  0  0
 54 98  1  0  0  0  0
 57 99  1  0  0  0  0
 65100  1  0  0  0  0
 66101  1  0  0  0  0
 67102  1  0  0  0  0
 68103  1  0  0  0  0
 69104  1  0  0  0  0
 70105  1  0  0  0  0
 70106  1  0  0  0  0
 71107  1  0  0  0  0
M  END
