136

C         -8.08740       -1.11970        1.40730
C         -9.14330       -1.23580        2.26920
C         -9.61310       -0.19260        3.21020
O         -9.29160        0.97760        3.22460
C        -10.67030       -0.83240        4.01010
C        -11.35570       -0.34010        5.10030
C        -12.31320       -1.13560        5.72150
C        -13.04760       -0.62260        6.91870
C        -12.58180       -2.41830        5.21940
C        -13.61240       -3.28210        5.87490
C        -11.89280       -2.90270        4.11130
C        -10.92950       -2.11580        3.50250
C        -10.03620       -2.37210        2.37680
C        -10.01610       -3.51880        1.62350
C        -10.91400       -4.59230        1.79480
N        -11.61410       -5.49920        1.87470
C         -9.11410       -3.79780        0.57710
N         -8.40590       -4.10710       -0.27350
C         -6.98030       -0.25070        1.50910
C         -6.38370        0.34780        2.61750
C         -6.83160        0.25670        4.01090
C         -7.14260        1.44650        4.66390
C         -7.63020        1.43370        5.95650
C         -7.80650        0.22710        6.60910
C         -7.45100       -0.95260        5.97960
C         -6.95350       -0.96290        4.68340
C         -6.44860       -2.25340        4.09890
C         -4.92550       -2.32510        4.23300
C         -5.21370        1.02860        2.25860
S         -4.03040        1.89860        3.20770
C         -3.07090        2.09570        1.78130
C         -1.82150        2.62030        1.40670
C         -0.84730        3.38780        2.08550
C          0.33410        3.80840        1.37730
N          1.12270        4.56620        2.12200
S          0.44930        4.73420        3.58350
N         -0.87810        3.84460        3.32700
C          0.56570        3.31710        0.07150
C          1.69830        3.32450       -0.76150
S          3.31340        3.94540       -0.76660
C          3.64020        3.01420       -2.20940
C          4.80890        2.80500       -2.95730
C          6.08190        3.47150       -2.66230
C          6.78310        4.22460       -3.61100
C          6.21680        4.54710       -4.96660
C          5.05600        5.53570       -4.84580
C          8.00150        4.77760       -3.23860
C          8.52040        4.60500       -1.96770
C          7.80030        3.89540       -1.02360
C          6.58430        3.33930       -1.36950
C          4.58180        1.91110       -3.99660
S          2.89380        1.41670       -4.10560
C          2.52450        2.30830       -2.67770
C          1.41650        2.48090       -1.84390
N          0.14180        1.98090       -1.73900
C         -0.39440        2.49190       -0.57090
C         -1.65130        2.28880        0.03690
N         -2.79300        1.67010       -0.43650
C         -3.64400        1.53100        0.63290
C         -4.87300        0.92520        0.90290
S         -6.03500       -0.00470        0.03640
C         -3.30470        1.74720       -1.79100
C         -4.40810        2.79830       -1.90710
C         -0.16840        0.70410       -2.35150
C          0.64820       -0.42210       -1.71850
C          5.49880        1.37460       -4.93160
C          6.78150        1.00780       -4.63610
C          7.24280        0.65020       -3.27430
O          6.63760        0.76690       -2.22980
C          8.53540       -0.03280       -3.46330
C          9.31650       -0.61940       -2.47020
C         10.45350       -1.23020       -2.94130
C         10.78850       -1.26300       -4.30180
C         10.02480       -0.69260       -5.29250
C          8.86410       -0.06200       -4.83320
C          7.81100        0.62290       -5.57540
C          7.83000        0.94140       -6.90890
C          8.86540        0.59170       -7.79850
N          9.67310        0.33140       -8.57200
C          6.82900        1.70240       -7.54710
N          6.05840        2.33840       -8.11360
C         12.05010       -2.05240       -4.05330
C         13.37820       -1.26750       -4.09630
C         14.35020       -2.16240       -3.36160
C         14.03280       -2.13170       -2.07360
C         12.84090       -1.21540       -1.91600
C         13.14190       -0.19700       -3.02300
C         11.67610       -2.01520       -2.53670
H         -8.04700       -1.79240        0.55810
H        -11.13110        0.65000        5.46780
H        -14.11960       -0.59170        6.72640
H        -12.71170        0.37830        7.17530
H        -12.88680       -1.27540        7.77620
H        -14.58520       -2.79190        5.86580
H        -13.69930       -4.23550        5.36120
H        -13.34860       -3.47010        6.91530
H        -12.11880       -3.89110        3.74430
H         -7.02920        2.38030        4.13580
H         -7.87800        2.36280        6.44670
H         -8.20510        0.20200        7.61270
H         -7.55640       -1.89110        6.50590
H         -6.71610       -2.34880        3.04640
H         -6.89700       -3.09280        4.63440
H         -4.45710       -1.50560        3.69220
H         -4.63310       -2.25430        5.27830
H         -4.55410       -3.26400        3.82910
H          6.99950        4.99090       -5.58490
H          5.86930        3.64870       -5.47800
H          4.67670        5.78890       -5.83270
H          4.24430        5.10640       -4.26240
H          5.38500        6.44770       -4.35250
H          8.55230        5.36150       -3.96270
H          9.47680        5.03760       -1.71320
H          8.18220        3.77430       -0.02130
H          6.02530        2.76800       -0.64560
H         -3.69740        0.76690       -2.08090
H         -2.48980        2.03140       -2.45620
H         -4.04200        3.76650       -1.57210
H         -4.71950        2.88250       -2.94440
H         -5.27320        2.52560       -1.30970
H          0.06110        0.77900       -3.41860
H         -1.22390        0.47890       -2.22560
H          0.38540       -1.36800       -2.18340
H          0.43710       -0.48470       -0.65300
H          1.71340       -0.25520       -1.85270
H          5.11030        1.18180       -5.92590
H          9.01610       -0.57940       -1.43490
H         10.28340       -0.74000       -6.33750
H         12.11030       -3.01820       -4.55140
H         13.67500       -0.92940       -5.08530
H         15.10780       -2.75030       -3.84560
H         14.47210       -2.68870       -1.26690
H         12.64820       -0.83000       -0.91840
H         12.31550        0.47670       -3.24240
H         14.03970        0.38280       -2.81560
H         11.48550       -2.95650       -2.02420
