
  xtb     02112202543D
 energy: -184.045618444619 gnorm: 0.000184527973 xtb: 6.4.1 (unknown)
 91102  0     0  0            999 V2000
   -2.0580    7.5573    2.5263 C   0  0  0  0  0  0  0  0  0  0  0  0
   -3.4310    7.5393    2.5020 C   0  0  0  0  0  0  0  0  0  0  0  0
   -4.2533    6.4100    2.0801 C   0  0  0  0  0  0  0  0  0  0  0  0
   -3.8599    5.3363    1.6346 O   0  0  0  0  0  0  0  0  0  0  0  0
   -5.6489    6.8054    2.2921 C   0  0  0  0  0  0  0  0  0  0  0  0
   -6.8070    6.0872    2.0744 C   0  0  0  0  0  0  0  0  0  0  0  0
   -8.0363    6.6695    2.3664 C   0  0  0  0  0  0  0  0  0  0  0  0
   -9.2985    5.9011    2.1397 C   0  0  0  0  0  0  0  0  0  0  0  0
   -8.0811    7.9764    2.8753 C   0  0  0  0  0  0  0  0  0  0  0  0
   -9.3954    8.6120    3.1971 C   0  0  0  0  0  0  0  0  0  0  0  0
   -6.9066    8.6953    3.0882 C   0  0  0  0  0  0  0  0  0  0  0  0
   -5.6835    8.1165    2.7990 C   0  0  0  0  0  0  0  0  0  0  0  0
   -4.3141    8.6119    2.9239 C   0  0  0  0  0  0  0  0  0  0  0  0
   -3.9611    9.8635    3.3553 C   0  0  0  0  0  0  0  0  0  0  0  0
   -2.6446   10.3575    3.4671 C   0  0  0  0  0  0  0  0  0  0  0  0
   -1.6077   10.8379    3.5853 N   0  0  0  0  0  0  0  0  0  0  0  0
   -4.8876   10.8530    3.7471 C   0  0  0  0  0  0  0  0  0  0  0  0
   -5.5867   11.7009    4.0795 N   0  0  0  0  0  0  0  0  0  0  0  0
   -1.1271    6.5642    2.1894 C   0  0  0  0  0  0  0  0  0  0  0  0
    0.2436    6.7806    2.3528 C   0  0  0  0  0  0  0  0  0  0  0  0
    1.0510    5.7052    2.0328 C   0  0  0  0  0  0  0  0  0  0  0  0
    2.7932    5.5103    2.1386 S   0  0  0  0  0  0  0  0  0  0  0  0
    2.6135    3.8804    1.5889 C   0  0  0  0  0  0  0  0  0  0  0  0
    3.3886    2.7349    1.3768 C   0  0  0  0  0  0  0  0  0  0  0  0
    4.7629    2.5075    1.6114 C   0  0  0  0  0  0  0  0  0  0  0  0
    5.2808    1.1835    1.4475 C   0  0  0  0  0  0  0  0  0  0  0  0
    6.5671    1.1010    1.7476 N   0  0  0  0  0  0  0  0  0  0  0  0
    7.0831    2.5690    2.1950 S   0  0  0  0  0  0  0  0  0  0  0  0
    5.6835    3.3639    2.0246 N   0  0  0  0  0  0  0  0  0  0  0  0
    4.4195    0.1690    0.9735 C   0  0  0  0  0  0  0  0  0  0  0  0
    4.6818   -1.1690    0.6645 C   0  0  0  0  0  0  0  0  0  0  0  0
    3.5002   -1.7052    0.1369 C   0  0  0  0  0  0  0  0  0  0  0  0
    2.5226   -0.7466    0.1219 N   0  0  0  0  0  0  0  0  0  0  0  0
    1.2797   -1.0439   -0.5495 C   0  0  0  0  0  0  0  0  0  0  0  0
    0.3368   -1.8708    0.3250 C   0  0  0  0  0  0  0  0  0  0  0  0
    3.0463    0.4155    0.6552 C   0  0  0  0  0  0  0  0  0  0  0  0
    2.5037    1.6986    0.9407 C   0  0  0  0  0  0  0  0  0  0  0  0
    1.2234    2.2188    0.9273 N   0  0  0  0  0  0  0  0  0  0  0  0
    1.2873    3.5280    1.3157 C   0  0  0  0  0  0  0  0  0  0  0  0
    0.3763    4.5561    1.5716 C   0  0  0  0  0  0  0  0  0  0  0  0
   -1.4716    4.8181    1.5306 Se  0  0  0  0  0  2  0  0  0  0  0  0
   -0.0785    1.6349    0.7148 C   0  0  0  0  0  0  0  0  0  0  0  0
   -0.6462    1.9980   -0.6569 C   0  0  0  0  0  0  0  0  0  0  0  0
    3.6239   -3.0395   -0.2513 C   0  0  0  0  0  0  0  0  0  0  0  0
    4.9324   -3.5084    0.0133 C   0  0  0  0  0  0  0  0  0  0  0  0
    5.9886   -2.2986    0.7216 S   0  0  0  0  0  0  0  0  0  0  0  0
    5.1688   -4.8278   -0.3089 C   0  0  0  0  0  0  0  0  0  0  0  0
    4.0805   -5.5100   -0.8678 C   0  0  0  0  0  0  0  0  0  0  0  0
    2.5687   -4.3682   -1.0259 Se  0  0  0  0  0  2  0  0  0  0  0  0
    4.1712   -6.8638   -1.1967 C   0  0  0  0  0  0  0  0  0  0  0  0
    3.2472   -7.7096   -1.7722 C   0  0  0  0  0  0  0  0  0  0  0  0
    1.9371   -7.3185   -2.2558 C   0  0  0  0  0  0  0  0  0  0  0  0
    1.3917   -6.2301   -2.1236 O   0  0  0  0  0  0  0  0  0  0  0  0
    1.3925   -8.4858   -2.9761 C   0  0  0  0  0  0  0  0  0  0  0  0
    0.2253   -8.5853   -3.7120 C   0  0  0  0  0  0  0  0  0  0  0  0
   -0.9058   -7.3096   -3.7633 Cl  0  0  0  0  0  0  0  0  0  0  0  0
   -0.0043   -9.7668   -4.4316 C   0  0  0  0  0  0  0  0  0  0  0  0
   -1.4468   -9.9501   -5.3309 Cl  0  0  0  0  0  0  0  0  0  0  0  0
    0.9610  -10.7717   -4.4512 C   0  0  0  0  0  0  0  0  0  0  0  0
    0.7031  -12.1600   -5.4158 Cl  0  0  0  0  0  0  0  0  0  0  0  0
    2.1488  -10.6602   -3.7074 C   0  0  0  0  0  0  0  0  0  0  0  0
    3.3593  -11.8544   -3.9274 Cl  0  0  0  0  0  0  0  0  0  0  0  0
    2.3287   -9.5397   -2.9080 C   0  0  0  0  0  0  0  0  0  0  0  0
    3.4065   -9.1329   -2.0059 C   0  0  0  0  0  0  0  0  0  0  0  0
    4.2550   -9.9642   -1.3225 C   0  0  0  0  0  0  0  0  0  0  0  0
    5.2692   -9.5215   -0.4442 C   0  0  0  0  0  0  0  0  0  0  0  0
    6.1227   -9.2463    0.2728 N   0  0  0  0  0  0  0  0  0  0  0  0
    4.1451  -11.3694   -1.2372 C   0  0  0  0  0  0  0  0  0  0  0  0
    4.0780  -12.4926   -1.0123 N   0  0  0  0  0  0  0  0  0  0  0  0
   -1.5915    8.4696    2.8812 H   0  0  0  0  0  0  0  0  0  0  0  0
   -6.7481    5.0824    1.6833 H   0  0  0  0  0  0  0  0  0  0  0  0
   -9.0819    4.9120    1.7458 H   0  0  0  0  0  0  0  0  0  0  0  0
   -9.9437    6.4236    1.4342 H   0  0  0  0  0  0  0  0  0  0  0  0
   -9.8525    5.7913    3.0715 H   0  0  0  0  0  0  0  0  0  0  0  0
  -10.0239    8.6620    2.3086 H   0  0  0  0  0  0  0  0  0  0  0  0
   -9.9300    8.0270    3.9448 H   0  0  0  0  0  0  0  0  0  0  0  0
   -9.2541    9.6189    3.5797 H   0  0  0  0  0  0  0  0  0  0  0  0
   -6.9707    9.6971    3.4810 H   0  0  0  0  0  0  0  0  0  0  0  0
    0.6280    7.7183    2.7175 H   0  0  0  0  0  0  0  0  0  0  0  0
    1.5274   -1.6374   -1.4406 H   0  0  0  0  0  0  0  0  0  0  0  0
    0.8175   -0.1204   -0.8879 H   0  0  0  0  0  0  0  0  0  0  0  0
    0.7332   -2.8775    0.4545 H   0  0  0  0  0  0  0  0  0  0  0  0
   -0.6355   -1.9480   -0.1532 H   0  0  0  0  0  0  0  0  0  0  0  0
    0.2146   -1.4319    1.3131 H   0  0  0  0  0  0  0  0  0  0  0  0
   -0.7474    2.0482    1.4827 H   0  0  0  0  0  0  0  0  0  0  0  0
   -0.0309    0.5609    0.8641 H   0  0  0  0  0  0  0  0  0  0  0  0
   -0.8602    3.0653   -0.7000 H   0  0  0  0  0  0  0  0  0  0  0  0
    0.0546    1.7635   -1.4559 H   0  0  0  0  0  0  0  0  0  0  0  0
   -1.5731    1.4580   -0.8271 H   0  0  0  0  0  0  0  0  0  0  0  0
    6.1136   -5.3162   -0.1396 H   0  0  0  0  0  0  0  0  0  0  0  0
    5.1411   -7.2938   -0.9729 H   0  0  0  0  0  0  0  0  0  0  0  0
  1  2  2  0  0  0  0
  2  3  1  0  0  0  0
  3  4  2  0  0  0  0
  3  5  1  0  0  0  0
  5  6  2  0  0  0  0
  6  7  1  0  0  0  0
  7  8  1  0  0  0  0
  7  9  2  0  0  0  0
  9 10  1  0  0  0  0
  9 11  1  0  0  0  0
 11 12  2  0  0  0  0
 12 13  1  0  0  0  0
 13 14  2  0  0  0  0
 14 15  1  0  0  0  0
 15 16  3  0  0  0  0
 14 17  1  0  0  0  0
 17 18  3  0  0  0  0
  1 19  1  0  0  0  0
 19 20  2  0  0  0  0
 20 21  1  0  0  0  0
 21 22  1  0  0  0  0
 22 23  1  0  0  0  0
 23 24  1  0  0  0  0
 24 25  1  0  0  0  0
 25 26  1  0  0  0  0
 26 27  2  0  0  0  0
 27 28  1  0  0  0  0
 28 29  1  0  0  0  0
 26 30  1  0  0  0  0
 30 31  1  0  0  0  0
 31 32  2  0  0  0  0
 32 33  1  0  0  0  0
 33 34  1  0  0  0  0
 34 35  1  0  0  0  0
 33 36  1  0  0  0  0
 36 37  1  0  0  0  0
 37 38  1  0  0  0  0
 38 39  1  0  0  0  0
 39 40  1  0  0  0  0
 40 41  1  0  0  0  0
 38 42  1  0  0  0  0
 42 43  1  0  0  0  0
 32 44  1  0  0  0  0
 44 45  2  0  0  0  0
 45 46  1  0  0  0  0
 45 47  1  0  0  0  0
 47 48  2  0  0  0  0
 48 49  1  0  0  0  0
 48 50  1  0  0  0  0
 50 51  2  0  0  0  0
 51 52  1  0  0  0  0
 52 53  2  0  0  0  0
 52 54  1  0  0  0  0
 54 55  2  0  0  0  0
 55 56  1  0  0  0  0
 55 57  1  0  0  0  0
 57 58  1  0  0  0  0
 57 59  2  0  0  0  0
 59 60  1  0  0  0  0
 59 61  1  0  0  0  0
 61 62  1  0  0  0  0
 61 63  2  0  0  0  0
 63 64  1  0  0  0  0
 64 65  2  0  0  0  0
 65 66  1  0  0  0  0
 66 67  3  0  0  0  0
 65 68  1  0  0  0  0
 68 69  3  0  0  0  0
 13  2  1  0  0  0  0
 41 19  1  0  0  0  0
 49 44  1  0  0  0  0
 64 51  1  0  0  0  0
 12  5  1  0  0  0  0
 40 21  2  0  0  0  0
 63 54  1  0  0  0  0
 39 23  2  0  0  0  0
 37 24  2  0  0  0  0
 29 25  2  0  0  0  0
 36 30  2  0  0  0  0
 46 31  1  0  0  0  0
  1 70  1  0  0  0  0
  6 71  1  0  0  0  0
  8 72  1  0  0  0  0
  8 73  1  0  0  0  0
  8 74  1  0  0  0  0
 10 75  1  0  0  0  0
 10 76  1  0  0  0  0
 10 77  1  0  0  0  0
 11 78  1  0  0  0  0
 20 79  1  0  0  0  0
 34 80  1  0  0  0  0
 34 81  1  0  0  0  0
 35 82  1  0  0  0  0
 35 83  1  0  0  0  0
 35 84  1  0  0  0  0
 42 85  1  0  0  0  0
 42 86  1  0  0  0  0
 43 87  1  0  0  0  0
 43 88  1  0  0  0  0
 43 89  1  0  0  0  0
 47 90  1  0  0  0  0
 50 91  1  0  0  0  0
M  END
