
  xtb     02012221083D
 energy: -214.680264383208 gnorm: 0.000649718691 xtb: 6.4.1 (unknown)
123136  0     0  0            999 V2000
    7.2271    0.7023   -1.8628 C   0  0  0  0  0  0  0  0  0  0  0  0
    7.5975   -0.3875   -2.6057 C   0  0  0  0  0  0  0  0  0  0  0  0
    6.6883   -1.3440   -3.2477 C   0  0  0  0  0  0  0  0  0  0  0  0
    5.4775   -1.4189   -3.1172 O   0  0  0  0  0  0  0  0  0  0  0  0
    7.5342   -2.1920   -4.1013 C   0  0  0  0  0  0  0  0  0  0  0  0
    7.1669   -3.2080   -4.9590 C   0  0  0  0  0  0  0  0  0  0  0  0
    8.1461   -3.8715   -5.6916 C   0  0  0  0  0  0  0  0  0  0  0  0
    7.7598   -4.9681   -6.6318 C   0  0  0  0  0  0  0  0  0  0  0  0
    9.4916   -3.5013   -5.5456 C   0  0  0  0  0  0  0  0  0  0  0  0
   10.5532   -4.2041   -6.3300 C   0  0  0  0  0  0  0  0  0  0  0  0
    9.8540   -2.4774   -4.6738 C   0  0  0  0  0  0  0  0  0  0  0  0
    8.8796   -1.8156   -3.9473 C   0  0  0  0  0  0  0  0  0  0  0  0
    8.9564   -0.7231   -2.9813 C   0  0  0  0  0  0  0  0  0  0  0  0
   10.1100   -0.1668   -2.4907 C   0  0  0  0  0  0  0  0  0  0  0  0
   10.1829    0.8267   -1.4918 C   0  0  0  0  0  0  0  0  0  0  0  0
   10.3314    1.6161   -0.6700 N   0  0  0  0  0  0  0  0  0  0  0  0
   11.4025   -0.5528   -2.9017 C   0  0  0  0  0  0  0  0  0  0  0  0
   12.4787   -0.8206   -3.1999 N   0  0  0  0  0  0  0  0  0  0  0  0
    5.9607    1.1223   -1.4364 C   0  0  0  0  0  0  0  0  0  0  0  0
    5.7847    2.3216   -0.7267 C   0  0  0  0  0  0  0  0  0  0  0  0
    6.8831    3.2665   -0.4741 C   0  0  0  0  0  0  0  0  0  0  0  0
    7.4092    3.9732   -1.5519 C   0  0  0  0  0  0  0  0  0  0  0  0
    8.4467    4.8661   -1.3680 C   0  0  0  0  0  0  0  0  0  0  0  0
    8.9723    5.0517   -0.1013 C   0  0  0  0  0  0  0  0  0  0  0  0
    8.4566    4.3450    0.9688 C   0  0  0  0  0  0  0  0  0  0  0  0
    7.4095    3.4483    0.8061 C   0  0  0  0  0  0  0  0  0  0  0  0
    6.9337    2.6313    1.9731 C   0  0  0  0  0  0  0  0  0  0  0  0
    7.6023    1.2544    1.9657 C   0  0  0  0  0  0  0  0  0  0  0  0
    4.4586    2.5048   -0.3532 C   0  0  0  0  0  0  0  0  0  0  0  0
    3.6224    3.7999    0.4823 S   0  0  0  0  0  0  0  0  0  0  0  0
    2.1422    2.9207    0.2982 C   0  0  0  0  0  0  0  0  0  0  0  0
    0.7776    3.0623    0.5984 C   0  0  0  0  0  0  0  0  0  0  0  0
   -0.0006    4.1364    1.0914 C   0  0  0  0  0  0  0  0  0  0  0  0
   -1.4352    4.0100    1.1205 C   0  0  0  0  0  0  0  0  0  0  0  0
   -2.0295    5.1213    1.5218 N   0  0  0  0  0  0  0  0  0  0  0  0
   -0.8931    6.2283    1.8449 S   0  0  0  0  0  0  0  0  0  0  0  0
    0.4054    5.3331    1.4822 N   0  0  0  0  0  0  0  0  0  0  0  0
   -2.0243    2.7594    0.8177 C   0  0  0  0  0  0  0  0  0  0  0  0
   -3.3339    2.2649    0.9205 C   0  0  0  0  0  0  0  0  0  0  0  0
   -4.9257    2.8431    1.2769 S   0  0  0  0  0  0  0  0  0  0  0  0
   -5.5191    1.2005    1.1248 C   0  0  0  0  0  0  0  0  0  0  0  0
   -6.7817    0.6431    1.2539 C   0  0  0  0  0  0  0  0  0  0  0  0
   -7.9889    1.4089    1.5983 C   0  0  0  0  0  0  0  0  0  0  0  0
   -9.0085    1.6348    0.6707 C   0  0  0  0  0  0  0  0  0  0  0  0
   -8.8838    1.1949   -0.7601 C   0  0  0  0  0  0  0  0  0  0  0  0
   -8.1398    2.2579   -1.5717 C   0  0  0  0  0  0  0  0  0  0  0  0
  -10.1208    2.3607    1.0747 C   0  0  0  0  0  0  0  0  0  0  0  0
  -10.2288    2.8520    2.3621 C   0  0  0  0  0  0  0  0  0  0  0  0
   -9.2065    2.6394    3.2710 C   0  0  0  0  0  0  0  0  0  0  0  0
   -8.0894    1.9236    2.8874 C   0  0  0  0  0  0  0  0  0  0  0  0
   -6.7553   -0.7532    1.0688 C   0  0  0  0  0  0  0  0  0  0  0  0
   -5.1358   -1.3438    0.6966 S   0  0  0  0  0  0  0  0  0  0  0  0
   -4.5188    0.2626    0.8041 C   0  0  0  0  0  0  0  0  0  0  0  0
   -3.2748    0.8825    0.6802 C   0  0  0  0  0  0  0  0  0  0  0  0
   -1.9839    0.5093    0.3969 N   0  0  0  0  0  0  0  0  0  0  0  0
   -1.2133    1.6526    0.4466 C   0  0  0  0  0  0  0  0  0  0  0  0
    0.1530    1.8620    0.1641 C   0  0  0  0  0  0  0  0  0  0  0  0
    1.0849    1.0518   -0.4517 N   0  0  0  0  0  0  0  0  0  0  0  0
    2.2950    1.6931   -0.3639 C   0  0  0  0  0  0  0  0  0  0  0  0
    3.6154    1.4529   -0.7520 C   0  0  0  0  0  0  0  0  0  0  0  0
    4.4569    0.2300   -1.6306 S   0  0  0  0  0  0  0  0  0  0  0  0
    0.8322    0.0976   -1.5135 C   0  0  0  0  0  0  0  0  0  0  0  0
    1.0480    0.7312   -2.8873 C   0  0  0  0  0  0  0  0  0  0  0  0
   -1.5405   -0.8453    0.6636 C   0  0  0  0  0  0  0  0  0  0  0  0
   -1.7323   -1.2072    2.1357 C   0  0  0  0  0  0  0  0  0  0  0  0
   -7.9072   -1.5305    1.2063 C   0  0  0  0  0  0  0  0  0  0  0  0
   -8.0832   -2.8927    1.1336 C   0  0  0  0  0  0  0  0  0  0  0  0
   -7.0186   -3.8838    0.9599 C   0  0  0  0  0  0  0  0  0  0  0  0
   -5.8417   -3.6751    0.7301 O   0  0  0  0  0  0  0  0  0  0  0  0
   -7.6662   -5.2010    1.1324 C   0  0  0  0  0  0  0  0  0  0  0  0
   -7.1318   -6.4758    1.1173 C   0  0  0  0  0  0  0  0  0  0  0  0
   -5.8252   -6.6738    0.9097 F   0  0  0  0  0  0  0  0  0  0  0  0
   -7.9546   -7.5766    1.3229 C   0  0  0  0  0  0  0  0  0  0  0  0
   -9.3074   -7.3860    1.5422 C   0  0  0  0  0  0  0  0  0  0  0  0
   -9.8684   -6.1143    1.5584 C   0  0  0  0  0  0  0  0  0  0  0  0
   -9.0449   -5.0207    1.3519 C   0  0  0  0  0  0  0  0  0  0  0  0
   -9.3383   -3.5858    1.3079 C   0  0  0  0  0  0  0  0  0  0  0  0
  -10.5931   -3.0338    1.3653 C   0  0  0  0  0  0  0  0  0  0  0  0
  -10.8978   -1.6652    1.2110 C   0  0  0  0  0  0  0  0  0  0  0  0
  -11.2424   -0.5786    1.0668 N   0  0  0  0  0  0  0  0  0  0  0  0
  -11.7788   -3.7761    1.5444 C   0  0  0  0  0  0  0  0  0  0  0  0
  -12.7802   -4.3185    1.6909 N   0  0  0  0  0  0  0  0  0  0  0  0
    8.0177    1.3772   -1.5558 H   0  0  0  0  0  0  0  0  0  0  0  0
    6.1254   -3.4763   -5.0558 H   0  0  0  0  0  0  0  0  0  0  0  0
    8.2588   -5.8985   -6.3631 H   0  0  0  0  0  0  0  0  0  0  0  0
    8.0554   -4.7195   -7.6507 H   0  0  0  0  0  0  0  0  0  0  0  0
    6.6857   -5.1313   -6.6122 H   0  0  0  0  0  0  0  0  0  0  0  0
   10.3727   -4.0979   -7.3992 H   0  0  0  0  0  0  0  0  0  0  0  0
   11.5344   -3.7979   -6.1009 H   0  0  0  0  0  0  0  0  0  0  0  0
   10.5557   -5.2694   -6.1015 H   0  0  0  0  0  0  0  0  0  0  0  0
   10.8944   -2.2097   -4.5822 H   0  0  0  0  0  0  0  0  0  0  0  0
    6.9908    3.8182   -2.5368 H   0  0  0  0  0  0  0  0  0  0  0  0
    8.8463    5.4089   -2.2113 H   0  0  0  0  0  0  0  0  0  0  0  0
    9.7892    5.7408    0.0506 H   0  0  0  0  0  0  0  0  0  0  0  0
    8.8785    4.4825    1.9537 H   0  0  0  0  0  0  0  0  0  0  0  0
    5.8499    2.5092    1.9418 H   0  0  0  0  0  0  0  0  0  0  0  0
    7.1886    3.1473    2.9004 H   0  0  0  0  0  0  0  0  0  0  0  0
    8.6835    1.3619    1.9191 H   0  0  0  0  0  0  0  0  0  0  0  0
    7.3423    0.7018    2.8657 H   0  0  0  0  0  0  0  0  0  0  0  0
    7.2827    0.6761    1.1015 H   0  0  0  0  0  0  0  0  0  0  0  0
   -9.8805    1.0473   -1.1781 H   0  0  0  0  0  0  0  0  0  0  0  0
   -8.3447    0.2491   -0.8317 H   0  0  0  0  0  0  0  0  0  0  0  0
   -8.0519    1.9494   -2.6109 H   0  0  0  0  0  0  0  0  0  0  0  0
   -8.6727    3.2050   -1.5333 H   0  0  0  0  0  0  0  0  0  0  0  0
   -7.1406    2.4128   -1.1697 H   0  0  0  0  0  0  0  0  0  0  0  0
  -10.9168    2.5321    0.3662 H   0  0  0  0  0  0  0  0  0  0  0  0
  -11.1087    3.4041    2.6562 H   0  0  0  0  0  0  0  0  0  0  0  0
   -9.2783    3.0265    4.2763 H   0  0  0  0  0  0  0  0  0  0  0  0
   -7.2873    1.7452    3.5892 H   0  0  0  0  0  0  0  0  0  0  0  0
    1.5104   -0.7519   -1.3887 H   0  0  0  0  0  0  0  0  0  0  0  0
   -0.2000   -0.2420   -1.4508 H   0  0  0  0  0  0  0  0  0  0  0  0
    0.7923    0.0117   -3.6598 H   0  0  0  0  0  0  0  0  0  0  0  0
    2.0846    1.0247   -3.0230 H   0  0  0  0  0  0  0  0  0  0  0  0
    0.4148    1.6087   -3.0012 H   0  0  0  0  0  0  0  0  0  0  0  0
   -2.1188   -1.5302    0.0364 H   0  0  0  0  0  0  0  0  0  0  0  0
   -0.4826   -0.9315    0.4240 H   0  0  0  0  0  0  0  0  0  0  0  0
   -2.7834   -1.1874    2.4084 H   0  0  0  0  0  0  0  0  0  0  0  0
   -1.3518   -2.2089    2.3133 H   0  0  0  0  0  0  0  0  0  0  0  0
   -1.1905   -0.5079    2.7694 H   0  0  0  0  0  0  0  0  0  0  0  0
   -8.7880   -0.9394    1.4314 H   0  0  0  0  0  0  0  0  0  0  0  0
   -7.5236   -8.5652    1.3098 H   0  0  0  0  0  0  0  0  0  0  0  0
   -9.9419   -8.2434    1.7050 H   0  0  0  0  0  0  0  0  0  0  0  0
  -10.9245   -5.9985    1.7345 H   0  0  0  0  0  0  0  0  0  0  0  0
  1  2  2  0  0  0  0
  2  3  1  0  0  0  0
  3  4  2  0  0  0  0
  3  5  1  0  0  0  0
  5  6  2  0  0  0  0
  6  7  1  0  0  0  0
  7  8  1  0  0  0  0
  7  9  2  0  0  0  0
  9 10  1  0  0  0  0
  9 11  1  0  0  0  0
 11 12  2  0  0  0  0
 12 13  1  0  0  0  0
 13 14  2  0  0  0  0
 14 15  1  0  0  0  0
 15 16  3  0  0  0  0
 14 17  1  0  0  0  0
 17 18  3  0  0  0  0
  1 19  1  0  0  0  0
 19 20  2  0  0  0  0
 20 21  1  0  0  0  0
 21 22  2  0  0  0  0
 22 23  1  0  0  0  0
 23 24  2  0  0  0  0
 24 25  1  0  0  0  0
 25 26  2  0  0  0  0
 26 27  1  0  0  0  0
 27 28  1  0  0  0  0
 20 29  1  0  0  0  0
 29 30  1  0  0  0  0
 30 31  1  0  0  0  0
 31 32  1  0  0  0  0
 32 33  1  0  0  0  0
 33 34  1  0  0  0  0
 34 35  2  0  0  0  0
 35 36  1  0  0  0  0
 36 37  1  0  0  0  0
 34 38  1  0  0  0  0
 38 39  1  0  0  0  0
 39 40  1  0  0  0  0
 40 41  1  0  0  0  0
 41 42  1  0  0  0  0
 42 43  1  0  0  0  0
 43 44  2  0  0  0  0
 44 45  1  0  0  0  0
 45 46  1  0  0  0  0
 44 47  1  0  0  0  0
 47 48  2  0  0  0  0
 48 49  1  0  0  0  0
 49 50  2  0  0  0  0
 42 51  2  0  0  0  0
 51 52  1  0  0  0  0
 52 53  1  0  0  0  0
 53 54  1  0  0  0  0
 54 55  1  0  0  0  0
 55 56  1  0  0  0  0
 56 57  1  0  0  0  0
 57 58  1  0  0  0  0
 58 59  1  0  0  0  0
 59 60  1  0  0  0  0
 60 61  1  0  0  0  0
 58 62  1  0  0  0  0
 62 63  1  0  0  0  0
 55 64  1  0  0  0  0
 64 65  1  0  0  0  0
 51 66  1  0  0  0  0
 66 67  2  0  0  0  0
 67 68  1  0  0  0  0
 68 69  2  0  0  0  0
 68 70  1  0  0  0  0
 70 71  2  0  0  0  0
 71 72  1  0  0  0  0
 71 73  1  0  0  0  0
 73 74  2  0  0  0  0
 74 75  1  0  0  0  0
 75 76  2  0  0  0  0
 76 77  1  0  0  0  0
 77 78  2  0  0  0  0
 78 79  1  0  0  0  0
 79 80  3  0  0  0  0
 78 81  1  0  0  0  0
 81 82  3  0  0  0  0
 13  2  1  0  0  0  0
 61 19  1  0  0  0  0
 77 67  1  0  0  0  0
 12  5  1  0  0  0  0
 26 21  1  0  0  0  0
 60 29  2  0  0  0  0
 76 70  1  0  0  0  0
 59 31  2  0  0  0  0
 57 32  2  0  0  0  0
 37 33  2  0  0  0  0
 56 38  2  0  0  0  0
 54 39  2  0  0  0  0
 53 41  2  0  0  0  0
 50 43  1  0  0  0  0
  1 83  1  0  0  0  0
  6 84  1  0  0  0  0
  8 85  1  0  0  0  0
  8 86  1  0  0  0  0
  8 87  1  0  0  0  0
 10 88  1  0  0  0  0
 10 89  1  0  0  0  0
 10 90  1  0  0  0  0
 11 91  1  0  0  0  0
 22 92  1  0  0  0  0
 23 93  1  0  0  0  0
 24 94  1  0  0  0  0
 25 95  1  0  0  0  0
 27 96  1  0  0  0  0
 27 97  1  0  0  0  0
 28 98  1  0  0  0  0
 28 99  1  0  0  0  0
 28100  1  0  0  0  0
 45101  1  0  0  0  0
 45102  1  0  0  0  0
 46103  1  0  0  0  0
 46104  1  0  0  0  0
 46105  1  0  0  0  0
 47106  1  0  0  0  0
 48107  1  0  0  0  0
 49108  1  0  0  0  0
 50109  1  0  0  0  0
 62110  1  0  0  0  0
 62111  1  0  0  0  0
 63112  1  0  0  0  0
 63113  1  0  0  0  0
 63114  1  0  0  0  0
 64115  1  0  0  0  0
 64116  1  0  0  0  0
 65117  1  0  0  0  0
 65118  1  0  0  0  0
 65119  1  0  0  0  0
 66120  1  0  0  0  0
 73121  1  0  0  0  0
 74122  1  0  0  0  0
 75123  1  0  0  0  0
M  END
