116

C          5.91810        4.15910        4.95260
C          5.98720        3.01700        5.69150
C          6.22320        3.10010        7.15850
O          6.61360        4.06610        7.77590
C          5.81670        1.78270        7.68320
C          5.72390        1.34950        8.99010
C          5.29150        0.05340        9.25350
C          5.19320       -0.42670       10.66630
C          4.94930       -0.79680        8.19040
C          4.47170       -2.18750        8.46320
C          5.05400       -0.35740        6.87360
C          5.49030        0.92910        6.61410
C          5.74410        1.63070        5.36090
C          5.99080        1.03410        4.15070
C          6.55930        1.72090        3.05820
N          7.07020        2.23820        2.16940
C          5.78420       -0.33380        3.89290
N          5.59860       -1.43470        3.62310
C          5.29700        4.37490        3.70330
C          5.45970        5.47570        2.87240
C          6.38970        6.61820        3.11710
C          5.65440        7.76110        3.82070
C          4.63030        5.40700        1.74910
Se         4.40710        6.54200        0.25130
C          3.16680        5.27680       -0.31010
C          2.36330        5.01360       -1.42530
C          2.26850        5.69730       -2.65580
C          1.49270        5.11410       -3.70670
N          1.53940        5.81910       -4.82570
S          2.48260        7.11340       -4.57270
N          2.86570        6.81930       -3.02440
C          0.75650        3.94120       -3.43550
C         -0.15330        3.24290       -4.23730
Se        -0.82760        3.30530       -5.96980
C         -1.88510        1.82710       -5.41720
C         -2.83270        1.05350       -6.07460
C         -3.17550        1.26470       -7.51310
C         -2.33230        0.35480       -8.40950
C         -3.34910        0.04590       -5.24300
S         -2.64030        0.09830       -3.63030
C         -1.66230        1.44370       -4.08350
C         -0.69850        2.22930       -3.43980
N         -0.13550        2.26260       -2.18840
C          0.77610        3.30450       -2.16180
C          1.68670        3.78480       -1.18210
N          2.11230        3.30020        0.03980
C          2.99980        4.19980        0.56990
C          3.80960        4.27180        1.70840
S          4.06760        3.27200        3.08910
C          2.02290        1.97010        0.59840
C          1.09520        1.91230        1.81100
C         -0.86180        1.65360       -1.09470
C         -1.86110        2.64040       -0.49410
C         -4.30450       -0.88170       -5.67090
C         -4.89470       -1.93370       -5.01500
C         -4.64310       -2.34590       -3.63240
O         -3.89700       -1.81980       -2.82190
C         -5.48020       -3.53300       -3.39290
C         -5.56410       -4.27660       -2.21780
C         -6.43680       -5.33580       -2.28840
C         -7.16930       -5.63470       -3.44450
C         -7.09290       -4.91110       -4.61100
C         -6.21320       -3.82560       -4.56040
C         -5.87320       -2.83800       -5.58470
C         -6.40820       -2.79530       -6.84810
C         -7.36380       -3.70660       -7.34350
N         -8.14040       -4.40570       -7.82020
C         -6.10240       -1.84490       -7.84370
N         -5.91430       -1.11150       -8.70890
C         -7.85050       -6.81840       -2.80400
C         -9.31000       -6.60850       -2.34830
C         -9.54320       -7.72510       -1.35640
C         -8.84940       -7.44310       -0.26100
C         -8.13600       -6.13080       -0.49400
C         -9.16740       -5.42440       -1.38320
C         -7.03350       -6.48520       -1.51450
H          6.31280        5.04400        5.44170
H          5.99090        2.01760        9.79530
H          4.17100       -0.72210       10.90070
H          5.49710        0.35260       11.35970
H          5.83020       -1.29720       10.82020
H          3.57270       -2.17060        9.07860
H          4.24950       -2.70740        7.53540
H          5.22990       -2.75240        9.00440
H          4.78310       -1.02280        6.06870
H          6.75640        6.97190        2.14890
H          7.24390        6.29700        3.71280
H          5.27490        7.43700        4.78730
H          4.81550        8.09650        3.21330
H          6.32820        8.59950        3.97530
H         -2.95720        2.30860       -7.76050
H         -4.23450        1.08270       -7.70140
H         -2.57750        0.53340       -9.45250
H         -2.52430       -0.69170       -8.18470
H         -1.27350        0.55530       -8.25810
H          3.03040        1.67830        0.91590
H          1.72020        1.27740       -0.18800
H          1.00050        0.88470        2.15090
H          0.10790        2.30200        1.57920
H          1.50960        2.50330        2.62340
H         -1.39640        0.79440       -1.50620
H         -0.18590        1.28960       -0.32830
H         -2.41290        2.16420        0.31160
H         -1.34780        3.51730       -0.10340
H         -2.56930        2.96670       -1.25200
H         -4.60980       -0.73360       -6.69740
H         -4.97710       -4.01220       -1.35210
H         -7.66100       -5.16020       -5.49120
H         -7.68990       -7.77900       -3.28950
H        -10.02970       -6.51290       -3.15670
H        -10.12470       -8.60320       -1.56750
H         -8.73550       -8.03880        0.62570
H         -7.78720       -5.60030        0.38800
H        -10.09360       -5.21320       -0.85130
H         -8.80030       -4.51250       -1.85060
H         -6.32760       -7.22410       -1.13970
