
  xtb     02112205273D
 energy: -198.548017291459 gnorm: 0.000543676063 xtb: 6.4.1 (unknown)
116130  0     0  0            999 V2000
    5.9181    4.1591    4.9526 C   0  0  0  0  0  0  0  0  0  0  0  0
    5.9872    3.0170    5.6915 C   0  0  0  0  0  0  0  0  0  0  0  0
    6.2232    3.1001    7.1585 C   0  0  0  0  0  0  0  0  0  0  0  0
    6.6136    4.0661    7.7759 O   0  0  0  0  0  0  0  0  0  0  0  0
    5.8167    1.7827    7.6832 C   0  0  0  0  0  0  0  0  0  0  0  0
    5.7239    1.3495    8.9901 C   0  0  0  0  0  0  0  0  0  0  0  0
    5.2915    0.0534    9.2535 C   0  0  0  0  0  0  0  0  0  0  0  0
    5.1932   -0.4267   10.6663 C   0  0  0  0  0  0  0  0  0  0  0  0
    4.9493   -0.7968    8.1904 C   0  0  0  0  0  0  0  0  0  0  0  0
    4.4717   -2.1875    8.4632 C   0  0  0  0  0  0  0  0  0  0  0  0
    5.0540   -0.3574    6.8736 C   0  0  0  0  0  0  0  0  0  0  0  0
    5.4903    0.9291    6.6141 C   0  0  0  0  0  0  0  0  0  0  0  0
    5.7441    1.6307    5.3609 C   0  0  0  0  0  0  0  0  0  0  0  0
    5.9908    1.0341    4.1507 C   0  0  0  0  0  0  0  0  0  0  0  0
    6.5593    1.7209    3.0582 C   0  0  0  0  0  0  0  0  0  0  0  0
    7.0702    2.2382    2.1694 N   0  0  0  0  0  0  0  0  0  0  0  0
    5.7842   -0.3338    3.8929 C   0  0  0  0  0  0  0  0  0  0  0  0
    5.5986   -1.4347    3.6231 N   0  0  0  0  0  0  0  0  0  0  0  0
    5.2970    4.3749    3.7033 C   0  0  0  0  0  0  0  0  0  0  0  0
    5.4597    5.4757    2.8724 C   0  0  0  0  0  0  0  0  0  0  0  0
    6.3897    6.6182    3.1171 C   0  0  0  0  0  0  0  0  0  0  0  0
    5.6544    7.7611    3.8207 C   0  0  0  0  0  0  0  0  0  0  0  0
    4.6303    5.4070    1.7491 C   0  0  0  0  0  0  0  0  0  0  0  0
    4.4071    6.5420    0.2513 Se  0  0  0  0  0  2  0  0  0  0  0  0
    3.1668    5.2768   -0.3101 C   0  0  0  0  0  0  0  0  0  0  0  0
    2.3633    5.0136   -1.4253 C   0  0  0  0  0  0  0  0  0  0  0  0
    2.2685    5.6973   -2.6558 C   0  0  0  0  0  0  0  0  0  0  0  0
    1.4927    5.1141   -3.7067 C   0  0  0  0  0  0  0  0  0  0  0  0
    1.5394    5.8191   -4.8257 N   0  0  0  0  0  0  0  0  0  0  0  0
    2.4826    7.1134   -4.5727 S   0  0  0  0  0  0  0  0  0  0  0  0
    2.8657    6.8193   -3.0244 N   0  0  0  0  0  0  0  0  0  0  0  0
    0.7565    3.9412   -3.4355 C   0  0  0  0  0  0  0  0  0  0  0  0
   -0.1533    3.2429   -4.2373 C   0  0  0  0  0  0  0  0  0  0  0  0
   -0.8276    3.3053   -5.9698 Se  0  0  0  0  0  2  0  0  0  0  0  0
   -1.8851    1.8271   -5.4172 C   0  0  0  0  0  0  0  0  0  0  0  0
   -2.8327    1.0535   -6.0746 C   0  0  0  0  0  0  0  0  0  0  0  0
   -3.1755    1.2647   -7.5131 C   0  0  0  0  0  0  0  0  0  0  0  0
   -2.3323    0.3548   -8.4095 C   0  0  0  0  0  0  0  0  0  0  0  0
   -3.3491    0.0459   -5.2430 C   0  0  0  0  0  0  0  0  0  0  0  0
   -2.6403    0.0983   -3.6303 S   0  0  0  0  0  0  0  0  0  0  0  0
   -1.6623    1.4437   -4.0835 C   0  0  0  0  0  0  0  0  0  0  0  0
   -0.6985    2.2293   -3.4398 C   0  0  0  0  0  0  0  0  0  0  0  0
   -0.1355    2.2626   -2.1884 N   0  0  0  0  0  0  0  0  0  0  0  0
    0.7761    3.3045   -2.1618 C   0  0  0  0  0  0  0  0  0  0  0  0
    1.6867    3.7848   -1.1821 C   0  0  0  0  0  0  0  0  0  0  0  0
    2.1123    3.3002    0.0398 N   0  0  0  0  0  0  0  0  0  0  0  0
    2.9998    4.1998    0.5699 C   0  0  0  0  0  0  0  0  0  0  0  0
    3.8096    4.2718    1.7084 C   0  0  0  0  0  0  0  0  0  0  0  0
    4.0676    3.2720    3.0891 S   0  0  0  0  0  0  0  0  0  0  0  0
    2.0229    1.9701    0.5984 C   0  0  0  0  0  0  0  0  0  0  0  0
    1.0952    1.9123    1.8110 C   0  0  0  0  0  0  0  0  0  0  0  0
   -0.8618    1.6536   -1.0947 C   0  0  0  0  0  0  0  0  0  0  0  0
   -1.8611    2.6404   -0.4941 C   0  0  0  0  0  0  0  0  0  0  0  0
   -4.3045   -0.8817   -5.6709 C   0  0  0  0  0  0  0  0  0  0  0  0
   -4.8947   -1.9337   -5.0150 C   0  0  0  0  0  0  0  0  0  0  0  0
   -4.6431   -2.3459   -3.6324 C   0  0  0  0  0  0  0  0  0  0  0  0
   -3.8970   -1.8198   -2.8219 O   0  0  0  0  0  0  0  0  0  0  0  0
   -5.4802   -3.5330   -3.3929 C   0  0  0  0  0  0  0  0  0  0  0  0
   -5.5641   -4.2766   -2.2178 C   0  0  0  0  0  0  0  0  0  0  0  0
   -6.4368   -5.3358   -2.2884 C   0  0  0  0  0  0  0  0  0  0  0  0
   -7.1693   -5.6347   -3.4445 C   0  0  0  0  0  0  0  0  0  0  0  0
   -7.0929   -4.9111   -4.6110 C   0  0  0  0  0  0  0  0  0  0  0  0
   -6.2132   -3.8256   -4.5604 C   0  0  0  0  0  0  0  0  0  0  0  0
   -5.8732   -2.8380   -5.5847 C   0  0  0  0  0  0  0  0  0  0  0  0
   -6.4082   -2.7953   -6.8481 C   0  0  0  0  0  0  0  0  0  0  0  0
   -7.3638   -3.7066   -7.3435 C   0  0  0  0  0  0  0  0  0  0  0  0
   -8.1404   -4.4057   -7.8202 N   0  0  0  0  0  0  0  0  0  0  0  0
   -6.1024   -1.8449   -7.8437 C   0  0  0  0  0  0  0  0  0  0  0  0
   -5.9143   -1.1115   -8.7089 N   0  0  0  0  0  0  0  0  0  0  0  0
   -7.8505   -6.8184   -2.8040 C   0  0  0  0  0  0  0  0  0  0  0  0
   -9.3100   -6.6085   -2.3483 C   0  0  0  0  0  0  0  0  0  0  0  0
   -9.5432   -7.7251   -1.3564 C   0  0  0  0  0  0  0  0  0  0  0  0
   -8.8494   -7.4431   -0.2610 C   0  0  0  0  0  0  0  0  0  0  0  0
   -8.1360   -6.1308   -0.4940 C   0  0  0  0  0  0  0  0  0  0  0  0
   -9.1674   -5.4244   -1.3832 C   0  0  0  0  0  0  0  0  0  0  0  0
   -7.0335   -6.4852   -1.5145 C   0  0  0  0  0  0  0  0  0  0  0  0
    6.3128    5.0440    5.4417 H   0  0  0  0  0  0  0  0  0  0  0  0
    5.9909    2.0176    9.7953 H   0  0  0  0  0  0  0  0  0  0  0  0
    4.1710   -0.7221   10.9007 H   0  0  0  0  0  0  0  0  0  0  0  0
    5.4971    0.3526   11.3597 H   0  0  0  0  0  0  0  0  0  0  0  0
    5.8302   -1.2972   10.8202 H   0  0  0  0  0  0  0  0  0  0  0  0
    3.5727   -2.1706    9.0786 H   0  0  0  0  0  0  0  0  0  0  0  0
    4.2495   -2.7074    7.5354 H   0  0  0  0  0  0  0  0  0  0  0  0
    5.2299   -2.7524    9.0044 H   0  0  0  0  0  0  0  0  0  0  0  0
    4.7831   -1.0228    6.0687 H   0  0  0  0  0  0  0  0  0  0  0  0
    6.7564    6.9719    2.1489 H   0  0  0  0  0  0  0  0  0  0  0  0
    7.2439    6.2970    3.7128 H   0  0  0  0  0  0  0  0  0  0  0  0
    5.2749    7.4370    4.7873 H   0  0  0  0  0  0  0  0  0  0  0  0
    4.8155    8.0965    3.2133 H   0  0  0  0  0  0  0  0  0  0  0  0
    6.3282    8.5995    3.9753 H   0  0  0  0  0  0  0  0  0  0  0  0
   -2.9572    2.3086   -7.7605 H   0  0  0  0  0  0  0  0  0  0  0  0
   -4.2345    1.0827   -7.7014 H   0  0  0  0  0  0  0  0  0  0  0  0
   -2.5775    0.5334   -9.4525 H   0  0  0  0  0  0  0  0  0  0  0  0
   -2.5243   -0.6917   -8.1847 H   0  0  0  0  0  0  0  0  0  0  0  0
   -1.2735    0.5553   -8.2581 H   0  0  0  0  0  0  0  0  0  0  0  0
    3.0304    1.6783    0.9159 H   0  0  0  0  0  0  0  0  0  0  0  0
    1.7202    1.2774   -0.1880 H   0  0  0  0  0  0  0  0  0  0  0  0
    1.0005    0.8847    2.1509 H   0  0  0  0  0  0  0  0  0  0  0  0
    0.1079    2.3020    1.5792 H   0  0  0  0  0  0  0  0  0  0  0  0
    1.5096    2.5033    2.6234 H   0  0  0  0  0  0  0  0  0  0  0  0
   -1.3964    0.7944   -1.5062 H   0  0  0  0  0  0  0  0  0  0  0  0
   -0.1859    1.2896   -0.3283 H   0  0  0  0  0  0  0  0  0  0  0  0
   -2.4129    2.1642    0.3116 H   0  0  0  0  0  0  0  0  0  0  0  0
   -1.3478    3.5173   -0.1034 H   0  0  0  0  0  0  0  0  0  0  0  0
   -2.5693    2.9667   -1.2520 H   0  0  0  0  0  0  0  0  0  0  0  0
   -4.6098   -0.7336   -6.6974 H   0  0  0  0  0  0  0  0  0  0  0  0
   -4.9771   -4.0122   -1.3521 H   0  0  0  0  0  0  0  0  0  0  0  0
   -7.6610   -5.1602   -5.4912 H   0  0  0  0  0  0  0  0  0  0  0  0
   -7.6899   -7.7790   -3.2895 H   0  0  0  0  0  0  0  0  0  0  0  0
  -10.0297   -6.5129   -3.1567 H   0  0  0  0  0  0  0  0  0  0  0  0
  -10.1247   -8.6032   -1.5675 H   0  0  0  0  0  0  0  0  0  0  0  0
   -8.7355   -8.0388    0.6257 H   0  0  0  0  0  0  0  0  0  0  0  0
   -7.7872   -5.6003    0.3880 H   0  0  0  0  0  0  0  0  0  0  0  0
  -10.0936   -5.2132   -0.8513 H   0  0  0  0  0  0  0  0  0  0  0  0
   -8.8003   -4.5125   -1.8506 H   0  0  0  0  0  0  0  0  0  0  0  0
   -6.3276   -7.2241   -1.1397 H   0  0  0  0  0  0  0  0  0  0  0  0
  1  2  2  0  0  0  0
  2  3  1  0  0  0  0
  3  4  2  0  0  0  0
  3  5  1  0  0  0  0
  5  6  2  0  0  0  0
  6  7  1  0  0  0  0
  7  8  1  0  0  0  0
  7  9  2  0  0  0  0
  9 10  1  0  0  0  0
  9 11  1  0  0  0  0
 11 12  2  0  0  0  0
 12 13  1  0  0  0  0
 13 14  2  0  0  0  0
 14 15  1  0  0  0  0
 15 16  3  0  0  0  0
 14 17  1  0  0  0  0
 17 18  3  0  0  0  0
  1 19  1  0  0  0  0
 19 20  2  0  0  0  0
 20 21  1  0  0  0  0
 21 22  1  0  0  0  0
 20 23  1  0  0  0  0
 23 24  1  0  0  0  0
 24 25  1  0  0  0  0
 25 26  1  0  0  0  0
 26 27  1  0  0  0  0
 27 28  1  0  0  0  0
 28 29  2  0  0  0  0
 29 30  1  0  0  0  0
 30 31  1  0  0  0  0
 28 32  1  0  0  0  0
 32 33  1  0  0  0  0
 33 34  1  0  0  0  0
 34 35  1  0  0  0  0
 35 36  1  0  0  0  0
 36 37  1  0  0  0  0
 37 38  1  0  0  0  0
 36 39  2  0  0  0  0
 39 40  1  0  0  0  0
 40 41  1  0  0  0  0
 41 42  1  0  0  0  0
 42 43  1  0  0  0  0
 43 44  1  0  0  0  0
 44 45  1  0  0  0  0
 45 46  1  0  0  0  0
 46 47  1  0  0  0  0
 47 48  1  0  0  0  0
 48 49  1  0  0  0  0
 46 50  1  0  0  0  0
 50 51  1  0  0  0  0
 43 52  1  0  0  0  0
 52 53  1  0  0  0  0
 39 54  1  0  0  0  0
 54 55  2  0  0  0  0
 55 56  1  0  0  0  0
 56 57  2  0  0  0  0
 56 58  1  0  0  0  0
 58 59  2  0  0  0  0
 59 60  1  0  0  0  0
 60 61  2  0  0  0  0
 61 62  1  0  0  0  0
 62 63  2  0  0  0  0
 63 64  1  0  0  0  0
 64 65  2  0  0  0  0
 65 66  1  0  0  0  0
 66 67  3  0  0  0  0
 65 68  1  0  0  0  0
 68 69  3  0  0  0  0
 61 70  1  0  0  0  0
 70 71  1  0  0  0  0
 71 72  1  0  0  0  0
 72 73  2  0  0  0  0
 73 74  1  0  0  0  0
 74 75  1  0  0  0  0
 74 76  1  0  0  0  0
 13  2  1  0  0  0  0
 49 19  1  0  0  0  0
 64 55  1  0  0  0  0
 76 70  1  0  0  0  0
 12  5  1  0  0  0  0
 48 23  2  0  0  0  0
 63 58  1  0  0  0  0
 75 71  1  0  0  0  0
 47 25  2  0  0  0  0
 76 60  1  0  0  0  0
 45 26  2  0  0  0  0
 31 27  2  0  0  0  0
 44 32  2  0  0  0  0
 42 33  2  0  0  0  0
 41 35  2  0  0  0  0
  1 77  1  0  0  0  0
  6 78  1  0  0  0  0
  8 79  1  0  0  0  0
  8 80  1  0  0  0  0
  8 81  1  0  0  0  0
 10 82  1  0  0  0  0
 10 83  1  0  0  0  0
 10 84  1  0  0  0  0
 11 85  1  0  0  0  0
 21 86  1  0  0  0  0
 21 87  1  0  0  0  0
 22 88  1  0  0  0  0
 22 89  1  0  0  0  0
 22 90  1  0  0  0  0
 37 91  1  0  0  0  0
 37 92  1  0  0  0  0
 38 93  1  0  0  0  0
 38 94  1  0  0  0  0
 38 95  1  0  0  0  0
 50 96  1  0  0  0  0
 50 97  1  0  0  0  0
 51 98  1  0  0  0  0
 51 99  1  0  0  0  0
 51100  1  0  0  0  0
 52101  1  0  0  0  0
 52102  1  0  0  0  0
 53103  1  0  0  0  0
 53104  1  0  0  0  0
 53105  1  0  0  0  0
 54106  1  0  0  0  0
 59107  1  0  0  0  0
 62108  1  0  0  0  0
 70109  1  0  0  0  0
 71110  1  0  0  0  0
 72111  1  0  0  0  0
 73112  1  0  0  0  0
 74113  1  0  0  0  0
 75114  1  0  0  0  0
 75115  1  0  0  0  0
 76116  1  0  0  0  0
M  END
