104

C          2.50560        4.02920        7.34080
C          2.94330        4.26770        8.61580
C          3.72610        3.38170        9.51110
O          4.24980        2.31470        9.25870
C          3.73710        4.05300       10.82160
C          4.30000        3.62320       12.00550
C          4.18770        4.41540       13.14300
C          4.78890        3.95950       14.43390
C          3.50280        5.63850       13.07080
C          3.37010        6.49880       14.28690
C          2.94030        6.06470       11.87180
C          3.05640        5.27750       10.73800
C          2.59320        5.46400        9.36750
C          1.98820        6.59990        8.89180
C          1.60820        6.84870        7.55670
N          1.28550        7.15050        6.49540
C          1.68060        7.72060        9.69170
N          1.39560        8.66430       10.28090
C          2.73090        2.96490        6.44740
C          3.55130        1.85250        6.50530
C          3.49410        1.03670        5.38160
S          4.35550       -0.44320        5.01990
C          3.53800       -0.51920        3.50130
C          3.50840       -1.31980        2.35300
C          4.28690       -2.44770        2.01380
C          4.11560       -3.03760        0.72180
N          4.93250       -4.05880        0.51750
S          5.83930       -4.26060        1.84390
N          5.22320       -3.05270        2.72780
C          3.11490       -2.52380       -0.13150
C          2.66720       -2.98990       -1.37200
C          1.57630       -2.19370       -1.73690
N          1.34960       -1.24910       -0.77240
C          0.19140       -0.40010       -0.91140
C          0.44700        0.75470       -1.87990
C          2.29020       -1.41200        0.22820
C          2.54920       -0.74920        1.46160
N          2.05380        0.39790        2.05750
C          2.64060        0.53310        3.28750
C          2.61500        1.43880        4.35330
Se         1.76360        3.03330        4.79970
C          1.21160        1.46430        1.57220
C         -0.19810        1.39130        2.15960
C          0.97280       -2.59870       -2.93120
C          1.64790       -3.71740       -3.46390
S          3.01360       -4.25210       -2.49980
C          1.12380       -4.23170       -4.63380
C         -0.01070       -3.57470       -5.11660
Se        -0.48260       -2.11370       -3.99910
C         -0.66850       -4.03450       -6.26480
C         -1.80790       -3.58330       -6.88530
C         -2.59910       -2.43450       -6.46470
O         -2.36430       -1.68240       -5.52350
C         -3.74150       -2.34370       -7.38360
C         -4.77360       -1.40710       -7.36210
C         -5.71780       -1.59280       -8.34380
C         -5.64570       -2.64010       -9.27140
C         -4.63210       -3.56860       -9.30630
C         -3.65420       -3.39200       -8.32390
C         -2.44500       -4.16890       -8.04880
C         -2.01420       -5.24680       -8.77800
C         -2.67840       -5.76360       -9.91070
N         -3.16500       -6.23640      -10.83700
C         -0.84840       -6.00040       -8.52640
N          0.07740       -6.66810       -8.40010
C         -6.92630       -2.23270       -9.95480
C         -6.78360       -1.49710      -11.30370
C         -8.12040       -0.81580      -11.48650
C         -8.18790        0.18010      -10.61220
C         -6.89730        0.18940       -9.82430
C         -5.92340       -0.28950      -10.90870
C         -7.00520       -1.06050       -8.92450
H          1.84330        4.78550        6.92930
H          4.82090        2.67810       12.03570
H          4.01860        3.85030       15.19670
H          5.29160        3.00470       14.30830
H          5.51150        4.68850       14.79990
H          2.85180        5.96290       15.08090
H          2.81570        7.40480       14.06020
H          4.35210        6.77800       14.66600
H          2.41640        7.00650       11.84640
H          4.17200        1.64580        7.36000
H         -0.61600       -1.02080       -1.32430
H         -0.13040       -0.05000        0.06480
H          0.56910        0.37010       -2.89180
H          1.34900        1.30480       -1.61860
H         -0.39920        1.43580       -1.87440
H          1.67050        2.40980        1.89140
H          1.20050        1.45670        0.48580
H         -0.16910        1.59990        3.22800
H         -0.83570        2.13060        1.68380
H         -0.63720        0.40460        2.02710
H          1.54160       -5.08580       -5.13980
H         -0.18910       -4.90150       -6.70520
H         -4.79600       -0.62420       -6.62030
H         -4.59860       -4.36860      -10.02630
H         -7.71970       -2.97780       -9.95730
H         -6.43220       -2.11640      -12.12430
H         -8.87640       -1.15220      -12.17170
H         -9.01210        0.84200      -10.42150
H         -6.65120        1.10900       -9.30020
H         -4.93550       -0.55150      -10.53420
H         -5.82620        0.42900      -11.72090
H         -7.85290       -1.02170       -8.24290
