107

C          5.00770        3.08070       -6.01050
C          6.07660        2.47150       -6.61910
C          6.68530        1.15310       -6.33430
O          6.40430        0.34720       -5.46490
C          7.74290        0.97330       -7.34180
C          8.59210       -0.10010       -7.51750
C          9.52410       -0.07270       -8.54900
C         10.45020       -1.22940       -8.75140
C          9.58570        1.04450       -9.39570
C         10.57970        1.08670      -10.51240
C          8.72640        2.12380       -9.20820
C          7.80050        2.09710       -8.17880
C          6.79440        3.05980       -7.74020
C          6.61090        4.29830       -8.30050
C          5.68800        5.28650       -7.89760
N          4.98340        6.15950       -7.64720
C          7.35940        4.78750       -9.39210
N          7.92080        5.25710      -10.27710
C          4.18470        2.68680       -4.94310
S          2.86220        3.80190       -4.53210
C          2.34180        2.74310       -3.28850
C          1.35670        2.59450       -2.31870
S         -0.03620        3.48150       -1.77970
C         -0.30820        2.22220       -0.63330
C         -1.27660        1.93150        0.33090
C         -2.47960        2.61360        0.60810
C         -3.38990        2.02910        1.54010
N         -4.50280        2.73360        1.67350
S         -4.40490        4.02740        0.70650
N         -2.94110        3.73610        0.07830
C         -2.99940        0.85080        2.20960
C         -3.67020        0.15280        3.21880
S         -5.16360        0.24510        4.03520
C         -4.67110       -1.12630        5.02610
C         -3.39380       -1.62920        4.69740
C         -2.83910       -2.84940        5.37180
C         -3.48750       -4.12380        4.81960
C         -2.83240       -0.88870        3.65090
N         -1.66330       -0.84520        2.90830
C         -1.74790        0.20470        1.99900
C         -0.89950        0.71270        0.96570
N          0.26010        0.27240        0.33870
C          0.62540        1.17810       -0.63500
C          1.59780        1.36720       -1.64350
N          2.72550        0.77790       -2.18370
C          3.16530        1.59700       -3.19700
C          4.19530        1.56550       -4.12480
C          3.24480       -0.56450       -2.06900
C          2.46760       -1.54300       -2.94970
C          1.06680       -0.89600        0.57290
C          2.32400       -0.55380        1.37720
C         -0.49260       -1.58880        3.30810
C         -0.48370       -3.02440        2.77150
C         -5.45340       -1.65730        6.06270
C         -6.71250       -1.34740        6.50450
C         -7.64190       -0.33500        5.95880
O         -7.44820        0.43050        5.03410
C         -8.85740       -0.44600        6.77240
C         -8.67600       -1.42610        7.72640
S        -10.04020       -1.65380        8.75310
C        -10.89770       -0.39410        7.88310
C        -12.18590        0.04440        8.14490
C        -12.70700        1.05150        7.35730
C        -11.96000        1.61830        6.32240
C        -10.68050        1.18900        6.05480
C        -10.13130        0.17060        6.83700
C         -7.36590       -2.01670        7.61720
C         -6.89270       -3.00900        8.44210
C         -7.69160       -3.53500        9.47860
N         -8.32580       -3.97880       10.32600
C         -5.62070       -3.60500        8.37810
N         -4.59860       -4.13200        8.38160
H          4.71990        4.04070       -6.42190
H          8.52390       -0.94900       -6.85330
H         10.26480       -2.00450       -8.01270
H         10.31840       -1.65640       -9.74510
H         11.48810       -0.90880       -8.66670
H         10.41870        0.25670      -11.19970
H         11.59440        1.00070      -10.12500
H         10.49740        2.01750      -11.06660
H          8.79610        2.96750       -9.87520
H         -1.76200       -2.90790        5.23680
H         -3.01590       -2.80120        6.44780
H         -3.35290       -4.19230        3.74180
H         -4.55470       -4.13110        5.02360
H         -3.04410       -4.99880        5.28790
H          4.92940        0.79010       -4.23950
H          3.24070       -0.88630       -1.02880
H          4.28520       -0.52890       -2.40070
H          2.56220       -1.25680       -3.99410
H          1.40980       -1.54510       -2.69250
H          2.86180       -2.54820       -2.82800
H          1.34770       -1.30000       -0.40200
H          0.47350       -1.65550        1.06710
H          2.92170        0.18760        0.85190
H          2.92380       -1.44650        1.53600
H          2.07000       -0.12940        2.34640
H          0.38900       -1.04000        2.98780
H         -0.46320       -1.60590        4.40180
H         -0.79060       -3.05790        1.72790
H          0.51260       -3.44990        2.86370
H         -1.17350       -3.65090        3.32630
H         -4.97100       -2.45350        6.61190
H        -12.76110       -0.39440        8.94520
H        -13.70890        1.40680        7.54510
H        -12.39740        2.40470        5.72620
H        -10.08970        1.61600        5.25960
