
  xtb     01262218213D
 energy: -187.188949616624 gnorm: 0.000561103185 xtb: 6.4.1 (unknown)
110121  0     0  0            999 V2000
   -2.0299   -5.6301    6.3554 C   0  0  0  0  0  0  0  0  0  0  0  0
   -2.0372   -6.9780    6.0970 C   0  0  0  0  0  0  0  0  0  0  0  0
   -1.8767   -7.6826    4.8055 C   0  0  0  0  0  0  0  0  0  0  0  0
   -1.5960   -7.2282    3.7109 O   0  0  0  0  0  0  0  0  0  0  0  0
   -2.1371   -9.1034    5.0901 C   0  0  0  0  0  0  0  0  0  0  0  0
   -2.1492  -10.1704    4.2152 C   0  0  0  0  0  0  0  0  0  0  0  0
   -2.4261  -11.4455    4.6959 C   0  0  0  0  0  0  0  0  0  0  0  0
   -2.4406  -12.6111    3.7590 C   0  0  0  0  0  0  0  0  0  0  0  0
   -2.6914  -11.6279    6.0616 C   0  0  0  0  0  0  0  0  0  0  0  0
   -2.9954  -12.9927    6.5923 C   0  0  0  0  0  0  0  0  0  0  0  0
   -2.6744  -10.5454    6.9370 C   0  0  0  0  0  0  0  0  0  0  0  0
   -2.3948   -9.2767    6.4579 C   0  0  0  0  0  0  0  0  0  0  0  0
   -2.2943   -7.9799    7.1201 C   0  0  0  0  0  0  0  0  0  0  0  0
   -2.3724   -7.7899    8.4762 C   0  0  0  0  0  0  0  0  0  0  0  0
   -2.1943   -6.5747    9.1705 C   0  0  0  0  0  0  0  0  0  0  0  0
   -2.0512   -5.6459    9.8318 N   0  0  0  0  0  0  0  0  0  0  0  0
   -2.6121   -8.8261    9.4032 C   0  0  0  0  0  0  0  0  0  0  0  0
   -2.8059   -9.6146   10.2155 N   0  0  0  0  0  0  0  0  0  0  0  0
   -1.7720   -4.5205    5.5345 C   0  0  0  0  0  0  0  0  0  0  0  0
   -1.9158   -2.9285    6.3122 S   0  0  0  0  0  0  0  0  0  0  0  0
   -1.4433   -2.1589    4.8545 C   0  0  0  0  0  0  0  0  0  0  0  0
   -1.1792   -0.9030    4.3153 C   0  0  0  0  0  0  0  0  0  0  0  0
   -1.1432    0.7575    4.8344 S   0  0  0  0  0  0  0  0  0  0  0  0
   -0.5944    1.1899    3.2529 C   0  0  0  0  0  0  0  0  0  0  0  0
   -0.2179    2.3653    2.5783 C   0  0  0  0  0  0  0  0  0  0  0  0
   -0.2467    3.7394    2.9107 C   0  0  0  0  0  0  0  0  0  0  0  0
    0.1042    4.7159    1.9089 C   0  0  0  0  0  0  0  0  0  0  0  0
   -0.0361    5.9565    2.3488 N   0  0  0  0  0  0  0  0  0  0  0  0
   -0.5509    5.9082    3.8810 S   0  0  0  0  0  0  0  0  0  0  0  0
   -0.6213    4.3018    4.0488 N   0  0  0  0  0  0  0  0  0  0  0  0
    0.5928    4.2775    0.6570 C   0  0  0  0  0  0  0  0  0  0  0  0
    1.1256    4.9323   -0.4694 C   0  0  0  0  0  0  0  0  0  0  0  0
    1.4189    6.5186   -1.0312 S   0  0  0  0  0  0  0  0  0  0  0  0
    2.0507    5.8654   -2.5462 C   0  0  0  0  0  0  0  0  0  0  0  0
    2.0706    4.4749   -2.5791 C   0  0  0  0  0  0  0  0  0  0  0  0
    2.6351    3.6480   -3.6925 C   0  0  0  0  0  0  0  0  0  0  0  0
    1.5749    2.7483   -4.3309 C   0  0  0  0  0  0  0  0  0  0  0  0
    1.5701    3.9561   -1.3732 C   0  0  0  0  0  0  0  0  0  0  0  0
    1.3505    2.6951   -0.8332 N   0  0  0  0  0  0  0  0  0  0  0  0
    0.7124    2.8953    0.3840 C   0  0  0  0  0  0  0  0  0  0  0  0
    0.1782    1.9569    1.2843 C   0  0  0  0  0  0  0  0  0  0  0  0
   -0.0051    0.5904    1.1382 N   0  0  0  0  0  0  0  0  0  0  0  0
   -0.4642    0.1169    2.3557 C   0  0  0  0  0  0  0  0  0  0  0  0
   -0.7887   -1.1050    2.9667 C   0  0  0  0  0  0  0  0  0  0  0  0
   -0.8254   -2.4478    2.6744 N   0  0  0  0  0  0  0  0  0  0  0  0
   -1.1999   -3.1006    3.8228 C   0  0  0  0  0  0  0  0  0  0  0  0
   -1.3822   -4.4200    4.2061 C   0  0  0  0  0  0  0  0  0  0  0  0
   -0.3219   -3.1201    1.5031 C   0  0  0  0  0  0  0  0  0  0  0  0
    1.2028   -3.0574    1.4350 C   0  0  0  0  0  0  0  0  0  0  0  0
   -0.4085    0.0083   -0.1290 C   0  0  0  0  0  0  0  0  0  0  0  0
   -1.9237   -0.1801   -0.1986 C   0  0  0  0  0  0  0  0  0  0  0  0
    2.3356    1.6373   -0.9851 C   0  0  0  0  0  0  0  0  0  0  0  0
    3.6931    2.0643   -0.4263 C   0  0  0  0  0  0  0  0  0  0  0  0
    2.5768    6.8044   -3.4721 C   0  0  0  0  0  0  0  0  0  0  0  0
    2.4344    6.7798   -4.8285 C   0  0  0  0  0  0  0  0  0  0  0  0
    1.3170    6.1015   -5.5320 C   0  0  0  0  0  0  0  0  0  0  0  0
    0.4556    5.3990   -5.0457 O   0  0  0  0  0  0  0  0  0  0  0  0
    1.3837    6.5834   -6.9223 C   0  0  0  0  0  0  0  0  0  0  0  0
    0.5597    6.2777   -7.9861 C   0  0  0  0  0  0  0  0  0  0  0  0
    0.7978    6.8614   -9.2261 C   0  0  0  0  0  0  0  0  0  0  0  0
   -0.0820    6.5282  -10.3884 C   0  0  0  0  0  0  0  0  0  0  0  0
    1.8640    7.7616   -9.3769 C   0  0  0  0  0  0  0  0  0  0  0  0
    2.1258    8.4002  -10.7036 C   0  0  0  0  0  0  0  0  0  0  0  0
    2.6862    8.0712   -8.2970 C   0  0  0  0  0  0  0  0  0  0  0  0
    2.4534    7.4830   -7.0656 C   0  0  0  0  0  0  0  0  0  0  0  0
    3.1419    7.6036   -5.7867 C   0  0  0  0  0  0  0  0  0  0  0  0
    4.3106    8.2819   -5.5552 C   0  0  0  0  0  0  0  0  0  0  0  0
    5.0123    8.2569   -4.3322 C   0  0  0  0  0  0  0  0  0  0  0  0
    5.6516    8.2452   -3.3781 N   0  0  0  0  0  0  0  0  0  0  0  0
    4.9817    9.0503   -6.5273 C   0  0  0  0  0  0  0  0  0  0  0  0
    5.5676    9.6912   -7.2787 N   0  0  0  0  0  0  0  0  0  0  0  0
   -2.2670   -5.3471    7.3741 H   0  0  0  0  0  0  0  0  0  0  0  0
   -1.9434  -10.0049    3.1680 H   0  0  0  0  0  0  0  0  0  0  0  0
   -3.4166  -13.0956    3.7648 H   0  0  0  0  0  0  0  0  0  0  0  0
   -2.2172  -12.2922    2.7444 H   0  0  0  0  0  0  0  0  0  0  0  0
   -1.7032  -13.3544    4.0607 H   0  0  0  0  0  0  0  0  0  0  0  0
   -2.1660  -13.6721    6.3983 H   0  0  0  0  0  0  0  0  0  0  0  0
   -3.8788  -13.4047    6.1056 H   0  0  0  0  0  0  0  0  0  0  0  0
   -3.1727  -12.9588    7.6636 H   0  0  0  0  0  0  0  0  0  0  0  0
   -2.8845  -10.7142    7.9806 H   0  0  0  0  0  0  0  0  0  0  0  0
    3.0554    4.3048   -4.4549 H   0  0  0  0  0  0  0  0  0  0  0  0
    3.4513    3.0327   -3.3011 H   0  0  0  0  0  0  0  0  0  0  0  0
    1.1139    2.0960   -3.5938 H   0  0  0  0  0  0  0  0  0  0  0  0
    0.7928    3.3594   -4.7704 H   0  0  0  0  0  0  0  0  0  0  0  0
    2.0253    2.1377   -5.1102 H   0  0  0  0  0  0  0  0  0  0  0  0
   -1.2484   -5.2881    3.5882 H   0  0  0  0  0  0  0  0  0  0  0  0
   -0.7670   -2.6779    0.6083 H   0  0  0  0  0  0  0  0  0  0  0  0
   -0.6483   -4.1601    1.5631 H   0  0  0  0  0  0  0  0  0  0  0  0
    1.5573   -3.5458    0.5313 H   0  0  0  0  0  0  0  0  0  0  0  0
    1.6352   -3.5620    2.2954 H   0  0  0  0  0  0  0  0  0  0  0  0
    1.5452   -2.0246    1.4371 H   0  0  0  0  0  0  0  0  0  0  0  0
   -0.1127    0.6925   -0.9243 H   0  0  0  0  0  0  0  0  0  0  0  0
    0.1063   -0.9451   -0.2774 H   0  0  0  0  0  0  0  0  0  0  0  0
   -2.2784   -0.8376    0.5913 H   0  0  0  0  0  0  0  0  0  0  0  0
   -2.4215    0.7811   -0.0912 H   0  0  0  0  0  0  0  0  0  0  0  0
   -2.1970   -0.6068   -1.1601 H   0  0  0  0  0  0  0  0  0  0  0  0
    1.9955    0.7607   -0.4352 H   0  0  0  0  0  0  0  0  0  0  0  0
    2.4276    1.3777   -2.0409 H   0  0  0  0  0  0  0  0  0  0  0  0
    4.4117    1.2576   -0.5450 H   0  0  0  0  0  0  0  0  0  0  0  0
    4.0674    2.9450   -0.9424 H   0  0  0  0  0  0  0  0  0  0  0  0
    3.6048    2.3000    0.6323 H   0  0  0  0  0  0  0  0  0  0  0  0
    3.1045    7.6399   -3.0251 H   0  0  0  0  0  0  0  0  0  0  0  0
   -0.2577    5.5857   -7.8477 H   0  0  0  0  0  0  0  0  0  0  0  0
    0.5013    6.0912  -11.1984 H   0  0  0  0  0  0  0  0  0  0  0  0
   -0.5604    7.4269  -10.7763 H   0  0  0  0  0  0  0  0  0  0  0  0
   -0.8547    5.8223  -10.0964 H   0  0  0  0  0  0  0  0  0  0  0  0
    1.2610    8.9787  -11.0271 H   0  0  0  0  0  0  0  0  0  0  0  0
    2.3164    7.6418  -11.4622 H   0  0  0  0  0  0  0  0  0  0  0  0
    2.9859    9.0616  -10.6500 H   0  0  0  0  0  0  0  0  0  0  0  0
    3.4936    8.7731   -8.4333 H   0  0  0  0  0  0  0  0  0  0  0  0
  1  2  2  0  0  0  0
  2  3  1  0  0  0  0
  3  4  2  0  0  0  0
  3  5  1  0  0  0  0
  5  6  2  0  0  0  0
  6  7  1  0  0  0  0
  7  8  1  0  0  0  0
  7  9  2  0  0  0  0
  9 10  1  0  0  0  0
  9 11  1  0  0  0  0
 11 12  2  0  0  0  0
 12 13  1  0  0  0  0
 13 14  2  0  0  0  0
 14 15  1  0  0  0  0
 15 16  3  0  0  0  0
 14 17  1  0  0  0  0
 17 18  3  0  0  0  0
  1 19  1  0  0  0  0
 19 20  1  0  0  0  0
 20 21  1  0  0  0  0
 21 22  1  0  0  0  0
 22 23  1  0  0  0  0
 23 24  1  0  0  0  0
 24 25  1  0  0  0  0
 25 26  1  0  0  0  0
 26 27  1  0  0  0  0
 27 28  2  0  0  0  0
 28 29  1  0  0  0  0
 29 30  1  0  0  0  0
 27 31  1  0  0  0  0
 31 32  1  0  0  0  0
 32 33  1  0  0  0  0
 33 34  1  0  0  0  0
 34 35  2  0  0  0  0
 35 36  1  0  0  0  0
 36 37  1  0  0  0  0
 35 38  1  0  0  0  0
 38 39  1  0  0  0  0
 39 40  1  0  0  0  0
 40 41  1  0  0  0  0
 41 42  1  0  0  0  0
 42 43  1  0  0  0  0
 43 44  1  0  0  0  0
 44 45  1  0  0  0  0
 45 46  1  0  0  0  0
 46 47  1  0  0  0  0
 45 48  1  0  0  0  0
 48 49  1  0  0  0  0
 42 50  1  0  0  0  0
 50 51  1  0  0  0  0
 39 52  1  0  0  0  0
 52 53  1  0  0  0  0
 34 54  1  0  0  0  0
 54 55  2  0  0  0  0
 55 56  1  0  0  0  0
 56 57  2  0  0  0  0
 56 58  1  0  0  0  0
 58 59  2  0  0  0  0
 59 60  1  0  0  0  0
 60 61  1  0  0  0  0
 60 62  2  0  0  0  0
 62 63  1  0  0  0  0
 62 64  1  0  0  0  0
 64 65  2  0  0  0  0
 65 66  1  0  0  0  0
 66 67  2  0  0  0  0
 67 68  1  0  0  0  0
 68 69  3  0  0  0  0
 67 70  1  0  0  0  0
 70 71  3  0  0  0  0
 13  2  1  0  0  0  0
 47 19  2  0  0  0  0
 66 55  1  0  0  0  0
 12  5  1  0  0  0  0
 46 21  2  0  0  0  0
 65 58  1  0  0  0  0
 44 22  2  0  0  0  0
 43 24  2  0  0  0  0
 41 25  2  0  0  0  0
 30 26  2  0  0  0  0
 40 31  2  0  0  0  0
 38 32  2  0  0  0  0
  1 72  1  0  0  0  0
  6 73  1  0  0  0  0
  8 74  1  0  0  0  0
  8 75  1  0  0  0  0
  8 76  1  0  0  0  0
 10 77  1  0  0  0  0
 10 78  1  0  0  0  0
 10 79  1  0  0  0  0
 11 80  1  0  0  0  0
 36 81  1  0  0  0  0
 36 82  1  0  0  0  0
 37 83  1  0  0  0  0
 37 84  1  0  0  0  0
 37 85  1  0  0  0  0
 47 86  1  0  0  0  0
 48 87  1  0  0  0  0
 48 88  1  0  0  0  0
 49 89  1  0  0  0  0
 49 90  1  0  0  0  0
 49 91  1  0  0  0  0
 50 92  1  0  0  0  0
 50 93  1  0  0  0  0
 51 94  1  0  0  0  0
 51 95  1  0  0  0  0
 51 96  1  0  0  0  0
 52 97  1  0  0  0  0
 52 98  1  0  0  0  0
 53 99  1  0  0  0  0
 53100  1  0  0  0  0
 53101  1  0  0  0  0
 54102  1  0  0  0  0
 59103  1  0  0  0  0
 61104  1  0  0  0  0
 61105  1  0  0  0  0
 61106  1  0  0  0  0
 63107  1  0  0  0  0
 63108  1  0  0  0  0
 63109  1  0  0  0  0
 64110  1  0  0  0  0
M  END
