
  xtb     01272209293D
 energy: -189.806648721979 gnorm: 0.000235233470 xtb: 6.4.1 (unknown)
124134  0     0  0            999 V2000
   -4.5380    6.7490   -2.4805 C   0  0  0  0  0  0  0  0  0  0  0  0
   -5.0426    7.1639   -3.6846 C   0  0  0  0  0  0  0  0  0  0  0  0
   -5.3045    6.3643   -4.9048 C   0  0  0  0  0  0  0  0  0  0  0  0
   -5.3425    5.1566   -5.0358 O   0  0  0  0  0  0  0  0  0  0  0  0
   -5.5099    7.3468   -5.9829 C   0  0  0  0  0  0  0  0  0  0  0  0
   -5.7078    7.1200   -7.3294 C   0  0  0  0  0  0  0  0  0  0  0  0
   -5.8652    8.2022   -8.1885 C   0  0  0  0  0  0  0  0  0  0  0  0
   -6.0751    7.9701   -9.6508 C   0  0  0  0  0  0  0  0  0  0  0  0
   -5.8225    9.5073   -7.6741 C   0  0  0  0  0  0  0  0  0  0  0  0
   -5.9832   10.6799   -8.5885 C   0  0  0  0  0  0  0  0  0  0  0  0
   -5.6281    9.7262   -6.3130 C   0  0  0  0  0  0  0  0  0  0  0  0
   -5.4712    8.6477   -5.4588 C   0  0  0  0  0  0  0  0  0  0  0  0
   -5.2548    8.5636   -4.0190 C   0  0  0  0  0  0  0  0  0  0  0  0
   -5.3132    9.6225   -3.1501 C   0  0  0  0  0  0  0  0  0  0  0  0
   -5.2114    9.5480   -1.7450 C   0  0  0  0  0  0  0  0  0  0  0  0
   -5.1620    9.5794   -0.5975 N   0  0  0  0  0  0  0  0  0  0  0  0
   -5.5331   10.9566   -3.5515 C   0  0  0  0  0  0  0  0  0  0  0  0
   -5.7013   12.0628   -3.8102 N   0  0  0  0  0  0  0  0  0  0  0  0
   -4.2375    5.4639   -1.9954 C   0  0  0  0  0  0  0  0  0  0  0  0
   -3.3097    5.3956   -0.4911 S   0  0  0  0  0  0  0  0  0  0  0  0
   -3.2750    3.6910   -0.5756 C   0  0  0  0  0  0  0  0  0  0  0  0
   -2.6522    2.6238    0.1432 C   0  0  0  0  0  0  0  0  0  0  0  0
   -2.9697    1.4257   -0.5408 C   0  0  0  0  0  0  0  0  0  0  0  0
   -3.9145    1.6933   -1.6970 C   0  0  0  0  0  0  0  0  0  0  0  0
   -3.9653    3.1981   -1.6794 C   0  0  0  0  0  0  0  0  0  0  0  0
   -4.5148    4.1877   -2.4744 C   0  0  0  0  0  0  0  0  0  0  0  0
   -5.3440    1.1836   -1.3949 C   0  0  0  0  0  0  0  0  0  0  0  0
   -5.4745   -0.3201   -1.1946 C   0  0  0  0  0  0  0  0  0  0  0  0
   -3.3879    1.1501   -3.0327 C   0  0  0  0  0  0  0  0  0  0  0  0
   -2.0304    1.7349   -3.4056 C   0  0  0  0  0  0  0  0  0  0  0  0
   -2.3730    0.2429   -0.1687 C   0  0  0  0  0  0  0  0  0  0  0  0
   -1.4924    0.2700    0.9093 C   0  0  0  0  0  0  0  0  0  0  0  0
   -0.6291   -0.7761    1.4114 C   0  0  0  0  0  0  0  0  0  0  0  0
    0.1536   -0.2467    2.4533 C   0  0  0  0  0  0  0  0  0  0  0  0
   -0.2490    1.1826    2.7451 C   0  0  0  0  0  0  0  0  0  0  0  0
   -0.9417    1.1880    4.1292 C   0  0  0  0  0  0  0  0  0  0  0  0
   -1.5884    2.5061    4.5330 C   0  0  0  0  0  0  0  0  0  0  0  0
    0.9498    2.1411    2.7087 C   0  0  0  0  0  0  0  0  0  0  0  0
    1.7146    2.0645    1.3921 C   0  0  0  0  0  0  0  0  0  0  0  0
   -1.2373    1.4506    1.6338 C   0  0  0  0  0  0  0  0  0  0  0  0
   -1.8026    2.6455    1.2456 C   0  0  0  0  0  0  0  0  0  0  0  0
    1.1173   -1.0116    3.0705 C   0  0  0  0  0  0  0  0  0  0  0  0
    1.3091   -2.3038    2.5901 C   0  0  0  0  0  0  0  0  0  0  0  0
    2.2327   -3.3194    2.9863 C   0  0  0  0  0  0  0  0  0  0  0  0
    2.0602   -4.4651    2.2145 C   0  0  0  0  0  0  0  0  0  0  0  0
    0.9765   -4.2494    1.1910 C   0  0  0  0  0  0  0  0  0  0  0  0
    0.5349   -2.8379    1.5314 C   0  0  0  0  0  0  0  0  0  0  0  0
   -0.4637   -2.0827    0.9596 C   0  0  0  0  0  0  0  0  0  0  0  0
   -0.1663   -5.2657    1.3365 C   0  0  0  0  0  0  0  0  0  0  0  0
   -0.7473   -5.2909    2.7456 C   0  0  0  0  0  0  0  0  0  0  0  0
    1.6507   -4.3394   -0.1986 C   0  0  0  0  0  0  0  0  0  0  0  0
    0.7684   -4.0145   -1.3963 C   0  0  0  0  0  0  0  0  0  0  0  0
    2.9571   -5.4738    2.5167 C   0  0  0  0  0  0  0  0  0  0  0  0
    3.8349   -5.1127    3.5344 C   0  0  0  0  0  0  0  0  0  0  0  0
    3.4928   -3.4804    4.1253 S   0  0  0  0  0  0  0  0  0  0  0  0
    4.9127   -5.7756    4.1455 C   0  0  0  0  0  0  0  0  0  0  0  0
    5.5534   -6.9468    3.8336 C   0  0  0  0  0  0  0  0  0  0  0  0
    5.3587   -7.8251    2.6584 C   0  0  0  0  0  0  0  0  0  0  0  0
    4.4712   -7.8108    1.8282 O   0  0  0  0  0  0  0  0  0  0  0  0
    6.4982   -8.7634    2.6707 C   0  0  0  0  0  0  0  0  0  0  0  0
    6.8123   -9.7364    1.7453 C   0  0  0  0  0  0  0  0  0  0  0  0
    7.9523  -10.5123    1.9429 C   0  0  0  0  0  0  0  0  0  0  0  0
    8.3395  -11.5582    0.9464 C   0  0  0  0  0  0  0  0  0  0  0  0
    8.7384  -10.2804    3.0695 C   0  0  0  0  0  0  0  0  0  0  0  0
    8.4248   -9.3069    4.0062 C   0  0  0  0  0  0  0  0  0  0  0  0
    7.2892   -8.5362    3.8084 C   0  0  0  0  0  0  0  0  0  0  0  0
    6.6905   -7.4559    4.5848 C   0  0  0  0  0  0  0  0  0  0  0  0
    7.1117   -7.0548    5.8264 C   0  0  0  0  0  0  0  0  0  0  0  0
    8.2256   -7.6044    6.4953 C   0  0  0  0  0  0  0  0  0  0  0  0
    9.1216   -7.9998    7.0947 N   0  0  0  0  0  0  0  0  0  0  0  0
    6.4961   -6.0808    6.6407 C   0  0  0  0  0  0  0  0  0  0  0  0
    6.0532   -5.3209    7.3802 N   0  0  0  0  0  0  0  0  0  0  0  0
   -4.2694    7.5364   -1.7850 H   0  0  0  0  0  0  0  0  0  0  0  0
   -5.7357    6.1067   -7.7018 H   0  0  0  0  0  0  0  0  0  0  0  0
   -5.2911    8.4544  -10.2322 H   0  0  0  0  0  0  0  0  0  0  0  0
   -7.0285    8.3881   -9.9724 H   0  0  0  0  0  0  0  0  0  0  0  0
   -6.0685    6.9071   -9.8761 H   0  0  0  0  0  0  0  0  0  0  0  0
   -6.9370   10.6292   -9.1123 H   0  0  0  0  0  0  0  0  0  0  0  0
   -5.9418   11.6117   -8.0314 H   0  0  0  0  0  0  0  0  0  0  0  0
   -5.1949   10.6886   -9.3408 H   0  0  0  0  0  0  0  0  0  0  0  0
   -5.5945   10.7388   -5.9444 H   0  0  0  0  0  0  0  0  0  0  0  0
   -5.0734    4.0249   -3.3767 H   0  0  0  0  0  0  0  0  0  0  0  0
   -5.6967    1.6888   -0.4918 H   0  0  0  0  0  0  0  0  0  0  0  0
   -5.9863    1.4956   -2.2212 H   0  0  0  0  0  0  0  0  0  0  0  0
   -5.1539   -0.8674   -2.0771 H   0  0  0  0  0  0  0  0  0  0  0  0
   -4.8894   -0.6496   -0.3401 H   0  0  0  0  0  0  0  0  0  0  0  0
   -6.5168   -0.5678   -1.0062 H   0  0  0  0  0  0  0  0  0  0  0  0
   -3.3030    0.0647   -2.9696 H   0  0  0  0  0  0  0  0  0  0  0  0
   -4.1118    1.3901   -3.8136 H   0  0  0  0  0  0  0  0  0  0  0  0
   -2.0970    2.8131   -3.5306 H   0  0  0  0  0  0  0  0  0  0  0  0
   -1.6828    1.3042   -4.3416 H   0  0  0  0  0  0  0  0  0  0  0  0
   -1.2935    1.5222   -2.6334 H   0  0  0  0  0  0  0  0  0  0  0  0
   -2.5420   -0.6727   -0.7139 H   0  0  0  0  0  0  0  0  0  0  0  0
   -0.1952    0.9100    4.8764 H   0  0  0  0  0  0  0  0  0  0  0  0
   -1.7083    0.4084    4.1230 H   0  0  0  0  0  0  0  0  0  0  0  0
   -0.8600    3.3115    4.5693 H   0  0  0  0  0  0  0  0  0  0  0  0
   -2.3816    2.7777    3.8415 H   0  0  0  0  0  0  0  0  0  0  0  0
   -2.0248    2.4034    5.5241 H   0  0  0  0  0  0  0  0  0  0  0  0
    1.6210    1.8968    3.5344 H   0  0  0  0  0  0  0  0  0  0  0  0
    0.5966    3.1622    2.8548 H   0  0  0  0  0  0  0  0  0  0  0  0
    2.1081    1.0631    1.2316 H   0  0  0  0  0  0  0  0  0  0  0  0
    1.0647    2.3149    0.5562 H   0  0  0  0  0  0  0  0  0  0  0  0
    2.5472    2.7638    1.4015 H   0  0  0  0  0  0  0  0  0  0  0  0
   -1.5755    3.5800    1.7348 H   0  0  0  0  0  0  0  0  0  0  0  0
    1.7223   -0.6350    3.8813 H   0  0  0  0  0  0  0  0  0  0  0  0
   -1.0993   -2.4767    0.1825 H   0  0  0  0  0  0  0  0  0  0  0  0
    0.2155   -6.2562    1.0818 H   0  0  0  0  0  0  0  0  0  0  0  0
   -0.9586   -5.0140    0.6305 H   0  0  0  0  0  0  0  0  0  0  0  0
   -1.1270   -4.3094    3.0224 H   0  0  0  0  0  0  0  0  0  0  0  0
   -1.5660   -6.0045    2.7996 H   0  0  0  0  0  0  0  0  0  0  0  0
    0.0089   -5.5831    3.4704 H   0  0  0  0  0  0  0  0  0  0  0  0
    2.0383   -5.3549   -0.3044 H   0  0  0  0  0  0  0  0  0  0  0  0
    2.5061   -3.6585   -0.2006 H   0  0  0  0  0  0  0  0  0  0  0  0
    0.4579   -2.9735   -1.3809 H   0  0  0  0  0  0  0  0  0  0  0  0
    1.3336   -4.1822   -2.3107 H   0  0  0  0  0  0  0  0  0  0  0  0
   -0.1126   -4.6500   -1.4258 H   0  0  0  0  0  0  0  0  0  0  0  0
    3.0041   -6.4332    2.0369 H   0  0  0  0  0  0  0  0  0  0  0  0
    5.3249   -5.2239    4.9828 H   0  0  0  0  0  0  0  0  0  0  0  0
    6.1772   -9.8845    0.8845 H   0  0  0  0  0  0  0  0  0  0  0  0
    7.4607  -11.9726    0.4583 H   0  0  0  0  0  0  0  0  0  0  0  0
    8.9738  -11.1164    0.1770 H   0  0  0  0  0  0  0  0  0  0  0  0
    8.8974  -12.3620    1.4205 H   0  0  0  0  0  0  0  0  0  0  0  0
    9.6244  -10.8802    3.2199 H   0  0  0  0  0  0  0  0  0  0  0  0
    9.0650   -9.1625    4.8608 H   0  0  0  0  0  0  0  0  0  0  0  0
  1  2  2  0  0  0  0
  2  3  1  0  0  0  0
  3  4  2  0  0  0  0
  3  5  1  0  0  0  0
  5  6  2  0  0  0  0
  6  7  1  0  0  0  0
  7  8  1  0  0  0  0
  7  9  2  0  0  0  0
  9 10  1  0  0  0  0
  9 11  1  0  0  0  0
 11 12  2  0  0  0  0
 12 13  1  0  0  0  0
 13 14  2  0  0  0  0
 14 15  1  0  0  0  0
 15 16  3  0  0  0  0
 14 17  1  0  0  0  0
 17 18  3  0  0  0  0
  1 19  1  0  0  0  0
 19 20  1  0  0  0  0
 20 21  1  0  0  0  0
 21 22  1  0  0  0  0
 22 23  2  0  0  0  0
 23 24  1  0  0  0  0
 24 25  1  0  0  0  0
 25 26  1  0  0  0  0
 24 27  1  0  0  0  0
 27 28  1  0  0  0  0
 24 29  1  0  0  0  0
 29 30  1  0  0  0  0
 23 31  1  0  0  0  0
 31 32  2  0  0  0  0
 32 33  1  0  0  0  0
 33 34  2  0  0  0  0
 34 35  1  0  0  0  0
 35 36  1  0  0  0  0
 36 37  1  0  0  0  0
 35 38  1  0  0  0  0
 38 39  1  0  0  0  0
 35 40  1  0  0  0  0
 40 41  2  0  0  0  0
 34 42  1  0  0  0  0
 42 43  2  0  0  0  0
 43 44  1  0  0  0  0
 44 45  2  0  0  0  0
 45 46  1  0  0  0  0
 46 47  1  0  0  0  0
 47 48  2  0  0  0  0
 46 49  1  0  0  0  0
 49 50  1  0  0  0  0
 46 51  1  0  0  0  0
 51 52  1  0  0  0  0
 45 53  1  0  0  0  0
 53 54  2  0  0  0  0
 54 55  1  0  0  0  0
 54 56  1  0  0  0  0
 56 57  2  0  0  0  0
 57 58  1  0  0  0  0
 58 59  2  0  0  0  0
 58 60  1  0  0  0  0
 60 61  2  0  0  0  0
 61 62  1  0  0  0  0
 62 63  1  0  0  0  0
 62 64  2  0  0  0  0
 64 65  1  0  0  0  0
 65 66  2  0  0  0  0
 66 67  1  0  0  0  0
 67 68  2  0  0  0  0
 68 69  1  0  0  0  0
 69 70  3  0  0  0  0
 68 71  1  0  0  0  0
 71 72  3  0  0  0  0
 13  2  1  0  0  0  0
 26 19  2  0  0  0  0
 40 32  1  0  0  0  0
 47 43  1  0  0  0  0
 67 57  1  0  0  0  0
 12  5  1  0  0  0  0
 25 21  2  0  0  0  0
 48 33  1  0  0  0  0
 66 60  1  0  0  0  0
 41 22  1  0  0  0  0
 55 44  1  0  0  0  0
  1 73  1  0  0  0  0
  6 74  1  0  0  0  0
  8 75  1  0  0  0  0
  8 76  1  0  0  0  0
  8 77  1  0  0  0  0
 10 78  1  0  0  0  0
 10 79  1  0  0  0  0
 10 80  1  0  0  0  0
 11 81  1  0  0  0  0
 26 82  1  0  0  0  0
 27 83  1  0  0  0  0
 27 84  1  0  0  0  0
 28 85  1  0  0  0  0
 28 86  1  0  0  0  0
 28 87  1  0  0  0  0
 29 88  1  0  0  0  0
 29 89  1  0  0  0  0
 30 90  1  0  0  0  0
 30 91  1  0  0  0  0
 30 92  1  0  0  0  0
 31 93  1  0  0  0  0
 36 94  1  0  0  0  0
 36 95  1  0  0  0  0
 37 96  1  0  0  0  0
 37 97  1  0  0  0  0
 37 98  1  0  0  0  0
 38 99  1  0  0  0  0
 38100  1  0  0  0  0
 39101  1  0  0  0  0
 39102  1  0  0  0  0
 39103  1  0  0  0  0
 41104  1  0  0  0  0
 42105  1  0  0  0  0
 48106  1  0  0  0  0
 49107  1  0  0  0  0
 49108  1  0  0  0  0
 50109  1  0  0  0  0
 50110  1  0  0  0  0
 50111  1  0  0  0  0
 51112  1  0  0  0  0
 51113  1  0  0  0  0
 52114  1  0  0  0  0
 52115  1  0  0  0  0
 52116  1  0  0  0  0
 53117  1  0  0  0  0
 56118  1  0  0  0  0
 61119  1  0  0  0  0
 63120  1  0  0  0  0
 63121  1  0  0  0  0
 63122  1  0  0  0  0
 64123  1  0  0  0  0
 65124  1  0  0  0  0
M  END
