178

C         -1.83000       -5.01490        8.12730
C         -1.55620       -4.23090        9.20660
C         -1.98740       -4.64470       10.56920
O         -2.39640       -5.73570       10.89960
C         -1.85650       -3.42960       11.39530
C         -2.21850       -3.21920       12.71030
C         -2.00820       -1.97080       13.28790
C         -2.38820       -1.73590       14.71500
C         -1.43910       -0.93790       12.52690
C         -1.21820        0.41080       13.13450
C         -1.06990       -1.15800       11.20300
C         -1.27070       -2.40260       10.63390
C         -0.93570       -2.92810        9.31500
C          0.02570       -2.41400        8.48250
C          0.55030       -3.10350        7.37040
N          1.04620       -3.64860        6.48930
C          0.67080       -1.18090        8.69790
N          1.21610       -0.17690        8.81450
C         -1.86700       -4.63940        6.76590
C         -1.65960       -5.47010        5.67210
C         -1.70230       -4.78380        4.46990
C         -1.51780       -5.11980        3.00290
C         -0.16930       -5.84910        2.86240
C          0.08990       -6.54640        1.53780
C         -2.74570       -6.00150        2.64630
C         -3.20940       -5.98250        1.19890
C         -1.59880       -3.72830        2.37600
C         -1.37150       -3.04640        1.16910
C         -0.78580       -3.27230       -0.22270
C         -1.71250       -4.12730       -1.07530
C         -1.39950       -5.39200       -1.55310
C         -2.30570       -6.10030       -2.32430
C         -3.55050       -5.57610       -2.63630
C         -4.55010       -6.37470       -3.42040
C         -5.40180       -7.22600       -2.47630
C         -3.86710       -4.31360       -2.15160
C         -2.96430       -3.60190       -1.38770
C          0.67770       -3.67420       -0.19100
C          1.43930       -3.48370        0.95610
C          2.78670       -3.79100        0.97270
C          3.42280       -4.27780       -0.16050
C          4.89310       -4.57970       -0.15160
C          5.69520       -3.33810       -0.54660
C          2.67390       -4.41710       -1.32090
C          1.32620       -4.11120       -1.34190
C         -0.80410       -1.85640       -0.80000
C         -1.37390       -0.94900        0.11560
C         -1.67600       -1.68930        1.29240
S         -2.20340       -1.19170        2.85070
C         -2.00200       -2.81770        3.36930
C         -2.02970       -3.44140        4.62940
S         -2.23160       -2.99110        6.26760
C         -1.53990        0.40270       -0.17710
C         -1.08490        0.83680       -1.39850
C         -1.09790        2.25470       -1.96410
C         -2.52730        2.72830       -2.15070
C         -3.47310        1.82100       -2.61840
C         -4.78290        2.20720       -2.82570
C         -5.19130        3.50940       -2.56780
C         -6.60150        3.94210       -2.84400
C         -6.72940        4.43300       -4.28770
C         -4.24600        4.41360       -2.10580
C         -2.93080        4.03380       -1.90540
C         -0.27760        3.08600       -0.99100
C          1.08260        3.28840       -1.18300
C          1.83060        3.99430       -0.25830
C          1.24890        4.50630        0.89250
C          2.06630        5.24180        1.91400
C          2.58150        4.27560        2.98270
C         -0.10310        4.26870        1.10250
C         -0.85380        3.56400        0.18160
C         -0.39660        2.05070       -3.29770
C         -0.02520        0.70780       -3.40870
C         -0.46110       -0.06000       -2.29190
C         -0.33260       -1.41960       -2.01400
S          0.96880        0.34020       -4.76390
C          0.91580        2.01000       -5.19250
C          1.62140        2.82210       -6.09530
C          1.23740        4.16190       -5.88210
C          0.09210        4.22640       -4.89020
C          0.10020        2.80130       -4.36370
C          0.25890        5.24650       -3.75820
C          0.16680        6.71030       -4.16900
C         -1.14980        4.46760       -5.78790
C         -2.49460        4.44200       -5.08250
C          1.92660        5.02220       -6.69630
C          2.87340        4.37250       -7.51420
S          2.84660        2.62840       -7.26960
C          3.69930        5.07990       -8.38420
C          4.70170        4.64480       -9.22580
C          5.15670        3.26720       -9.36790
O          4.67840        2.26680       -8.86560
C          6.35640        3.32230      -10.23600
C          7.21500        2.29770      -10.58920
Cl         6.88830        0.67590      -10.16980
C          8.37930        2.62510      -11.29900
Cl         9.45460        1.38950      -11.79020
C          8.68390        3.95850      -11.56180
Cl        10.16180        4.34200      -12.33430
C          7.81060        4.99510      -11.19110
Cl         8.34710        6.61320      -11.38360
C          6.60200        4.66370      -10.59310
C          5.47810        5.47440      -10.12230
C          5.11150        6.70790      -10.60150
C          4.03110        7.47230      -10.11200
N          3.18880        8.17100       -9.76170
C          5.62910        7.32990      -11.75750
N          5.89750        7.86600      -12.73660
H         -2.10800       -6.04100        8.34910
H         -2.65610       -4.02530       13.28020
H         -1.51740       -1.44000       15.29930
H         -2.81130       -2.63530       15.15390
H         -3.12180       -0.93370       14.78940
H         -2.16090        0.83690       13.47640
H         -0.77000        1.08890       12.41360
H         -0.55820        0.33690       13.99810
H         -0.63950       -0.35080       10.63100
H         -1.43030       -6.51370        5.79040
H          0.62500       -5.12500        3.05110
H         -0.12160       -6.59310        3.66050
H         -0.60300       -7.36880        1.38140
H          0.00550       -5.84430        0.71830
H          1.10080       -6.94900        1.53610
H         -3.58340       -5.66490        3.26410
H         -2.51140       -7.02400        2.94770
H         -4.08170       -6.62490        1.09460
H         -2.44210       -6.33780        0.52170
H         -3.49260       -4.97790        0.89700
H         -0.44820       -5.84930       -1.33070
H         -2.03470       -7.08230       -2.68550
H         -4.03350       -7.02760       -4.12660
H         -5.20000       -5.70430       -3.98620
H         -4.77170       -7.91150       -1.91410
H         -6.13120       -7.80470       -3.03800
H         -5.93090       -6.59080       -1.76920
H         -4.83150       -3.88110       -2.37730
H         -3.23770       -2.62120       -1.02460
H          0.98050       -3.09040        1.85030
H          3.35090       -3.64730        1.88290
H          5.11020       -5.38670       -0.85440
H          5.19800       -4.90250        0.84580
H          6.76070       -3.55540       -0.54010
H          5.41370       -3.00670       -1.54370
H          5.50130       -2.52590        0.15040
H          3.15110       -4.76810       -2.22500
H          0.78030       -4.21880       -2.26710
H         -1.99970        1.06420        0.53960
H         -3.17860        0.80190       -2.82580
H         -5.49950        1.48550       -3.19110
H         -6.88380        4.74770       -2.16340
H         -7.28470        3.10520       -2.68640
H         -6.46030        3.63980       -4.98160
H         -6.06500        5.27680       -4.45980
H         -7.75010        4.74540       -4.49500
H         -4.53940        5.43370       -1.90250
H         -2.22010        4.76800       -1.55600
H          1.57050        2.89160       -2.06080
H          2.88570        4.14700       -0.43610
H          1.45650        6.01220        2.39050
H          2.91470        5.72850        1.42890
H          1.74980        3.79170        3.48970
H          3.19920        3.50400        2.52860
H          3.17630        4.80760        3.72130
H         -0.57640        4.63940        2.00060
H         -1.90190        3.39320        0.37810
H          0.12940       -2.07930       -2.73060
H          1.23120        5.07240       -3.29170
H         -0.50290        5.03760       -3.00700
H          0.32840        7.33590       -3.29370
H         -0.81070        6.94960       -4.57790
H          0.92460        6.96150       -4.90470
H         -1.01410        5.42920       -6.28490
H         -1.14690        3.69750       -6.56400
H         -2.67870        3.47030       -4.63490
H         -3.28370        4.63830       -5.80530
H         -2.55080        5.19750       -4.30520
H          1.80310        6.08920       -6.74120
H          3.52820        6.14930       -8.35810
