
  xtb     02012222553D
 energy: -190.275051820999 gnorm: 0.000606919140 xtb: 6.4.1 (unknown)
109121  0     0  0            999 V2000
   -7.1180    4.2298    0.7386 C   0  0  0  0  0  0  0  0  0  0  0  0
   -7.9895    3.2692    0.2901 C   0  0  0  0  0  0  0  0  0  0  0  0
   -7.6304    1.9525   -0.2481 C   0  0  0  0  0  0  0  0  0  0  0  0
   -6.5100    1.5095   -0.4426 O   0  0  0  0  0  0  0  0  0  0  0  0
   -8.9010    1.2588   -0.5071 C   0  0  0  0  0  0  0  0  0  0  0  0
   -9.1169   -0.0160   -0.9879 C   0  0  0  0  0  0  0  0  0  0  0  0
  -10.4207   -0.4772   -1.1399 C   0  0  0  0  0  0  0  0  0  0  0  0
  -10.6688   -1.8588   -1.6555 C   0  0  0  0  0  0  0  0  0  0  0  0
  -11.4956    0.3594   -0.8041 C   0  0  0  0  0  0  0  0  0  0  0  0
  -12.9020   -0.1259   -0.9561 C   0  0  0  0  0  0  0  0  0  0  0  0
  -11.2680    1.6465   -0.3231 C   0  0  0  0  0  0  0  0  0  0  0  0
   -9.9709    2.1048   -0.1708 C   0  0  0  0  0  0  0  0  0  0  0  0
   -9.4354    3.3758    0.3104 C   0  0  0  0  0  0  0  0  0  0  0  0
  -10.1890    4.4566    0.6941 C   0  0  0  0  0  0  0  0  0  0  0  0
  -11.5990    4.4794    0.6809 C   0  0  0  0  0  0  0  0  0  0  0  0
  -12.7441    4.5669    0.6955 N   0  0  0  0  0  0  0  0  0  0  0  0
   -9.6903    5.6957    1.1445 C   0  0  0  0  0  0  0  0  0  0  0  0
   -9.3701    6.7351    1.5172 N   0  0  0  0  0  0  0  0  0  0  0  0
   -5.7204    4.2430    0.8067 C   0  0  0  0  0  0  0  0  0  0  0  0
   -4.9935    5.3189    1.3440 C   0  0  0  0  0  0  0  0  0  0  0  0
   -5.5699    6.6038    1.8421 C   0  0  0  0  0  0  0  0  0  0  0  0
   -5.8309    7.5685    0.6821 C   0  0  0  0  0  0  0  0  0  0  0  0
   -3.6275    5.0714    1.3138 C   0  0  0  0  0  0  0  0  0  0  0  0
   -2.2470    6.0118    1.8500 S   0  0  0  0  0  0  0  0  0  0  0  0
   -1.2136    4.7235    1.3385 C   0  0  0  0  0  0  0  0  0  0  0  0
    0.1536    4.4221    1.2775 C   0  0  0  0  0  0  0  0  0  0  0  0
    1.2894    5.2018    1.5896 C   0  0  0  0  0  0  0  0  0  0  0  0
    2.5921    4.6708    1.3126 C   0  0  0  0  0  0  0  0  0  0  0  0
    3.5595    5.5268    1.6008 N   0  0  0  0  0  0  0  0  0  0  0  0
    2.8886    6.8836    2.1766 S   0  0  0  0  0  0  0  0  0  0  0  0
    1.3378    6.4307    2.0787 N   0  0  0  0  0  0  0  0  0  0  0  0
    2.7009    3.3412    0.8485 C   0  0  0  0  0  0  0  0  0  0  0  0
    3.8223    2.5286    0.6404 C   0  0  0  0  0  0  0  0  0  0  0  0
    5.5460    2.6341    0.7281 S   0  0  0  0  0  0  0  0  0  0  0  0
    5.6361    0.9229    0.3527 C   0  0  0  0  0  0  0  0  0  0  0  0
    6.7108    0.0564    0.2060 C   0  0  0  0  0  0  0  0  0  0  0  0
    8.1250    0.4863    0.4214 C   0  0  0  0  0  0  0  0  0  0  0  0
    8.5612    0.2165    1.8641 C   0  0  0  0  0  0  0  0  0  0  0  0
    6.2807   -1.2453   -0.1038 C   0  0  0  0  0  0  0  0  0  0  0  0
    4.5236   -1.3531   -0.2217 S   0  0  0  0  0  0  0  0  0  0  0  0
    4.3803    0.3193    0.1681 C   0  0  0  0  0  0  0  0  0  0  0  0
    3.3484    1.2479    0.3291 C   0  0  0  0  0  0  0  0  0  0  0  0
    1.9788    1.2478    0.3231 N   0  0  0  0  0  0  0  0  0  0  0  0
    1.5518    2.5276    0.6157 C   0  0  0  0  0  0  0  0  0  0  0  0
    0.2644    3.1162    0.7160 C   0  0  0  0  0  0  0  0  0  0  0  0
   -1.0081    2.6593    0.4106 N   0  0  0  0  0  0  0  0  0  0  0  0
   -1.8969    3.6348    0.7852 C   0  0  0  0  0  0  0  0  0  0  0  0
   -3.2814    3.8261    0.7625 C   0  0  0  0  0  0  0  0  0  0  0  0
   -4.6691    2.9330    0.2651 S   0  0  0  0  0  0  0  0  0  0  0  0
   -1.4247    1.7174   -0.6078 C   0  0  0  0  0  0  0  0  0  0  0  0
   -1.0954    2.2459   -2.0022 C   0  0  0  0  0  0  0  0  0  0  0  0
    1.2678   -0.0103    0.3658 C   0  0  0  0  0  0  0  0  0  0  0  0
    1.1323   -0.6488   -1.0154 C   0  0  0  0  0  0  0  0  0  0  0  0
    7.1606   -2.3205   -0.2691 C   0  0  0  0  0  0  0  0  0  0  0  0
    6.9288   -3.6305   -0.6080 C   0  0  0  0  0  0  0  0  0  0  0  0
    5.6388   -4.2158   -0.9842 C   0  0  0  0  0  0  0  0  0  0  0  0
    4.5485   -3.6645   -0.9589 O   0  0  0  0  0  0  0  0  0  0  0  0
    5.9221   -5.5958   -1.4119 C   0  0  0  0  0  0  0  0  0  0  0  0
    7.2843   -5.8509   -1.2629 C   0  0  0  0  0  0  0  0  0  0  0  0
    7.8121   -7.1010   -1.6115 C   0  0  0  0  0  0  0  0  0  0  0  0
    6.9661   -8.0619   -2.1021 C   0  0  0  0  0  0  0  0  0  0  0  0
    5.5831   -7.8326   -2.2651 C   0  0  0  0  0  0  0  0  0  0  0  0
    4.7212   -8.8260   -2.7736 C   0  0  0  0  0  0  0  0  0  0  0  0
    3.3849   -8.5786   -2.9250 C   0  0  0  0  0  0  0  0  0  0  0  0
    2.8478   -7.3290   -2.5752 C   0  0  0  0  0  0  0  0  0  0  0  0
    3.6511   -6.3404   -2.0785 C   0  0  0  0  0  0  0  0  0  0  0  0
    5.0330   -6.5662   -1.9120 C   0  0  0  0  0  0  0  0  0  0  0  0
    7.9414   -4.6581   -0.7310 C   0  0  0  0  0  0  0  0  0  0  0  0
    9.2648   -4.5692   -0.3810 C   0  0  0  0  0  0  0  0  0  0  0  0
   10.2006   -5.6166   -0.5117 C   0  0  0  0  0  0  0  0  0  0  0  0
   11.0200   -6.4174   -0.5877 N   0  0  0  0  0  0  0  0  0  0  0  0
    9.8908   -3.4388    0.1843 C   0  0  0  0  0  0  0  0  0  0  0  0
   10.4751   -2.5699    0.6580 N   0  0  0  0  0  0  0  0  0  0  0  0
   -7.5703    5.1332    1.1245 H   0  0  0  0  0  0  0  0  0  0  0  0
   -8.2742   -0.6432   -1.2382 H   0  0  0  0  0  0  0  0  0  0  0  0
  -11.2577   -1.8261   -2.5716 H   0  0  0  0  0  0  0  0  0  0  0  0
  -11.2279   -2.4449   -0.9268 H   0  0  0  0  0  0  0  0  0  0  0  0
   -9.7309   -2.3662   -1.8635 H   0  0  0  0  0  0  0  0  0  0  0  0
  -13.6095    0.6437   -0.6605 H   0  0  0  0  0  0  0  0  0  0  0  0
  -13.1020   -0.4044   -1.9902 H   0  0  0  0  0  0  0  0  0  0  0  0
  -13.0700   -1.0085   -0.3396 H   0  0  0  0  0  0  0  0  0  0  0  0
  -12.1122    2.2679   -0.0715 H   0  0  0  0  0  0  0  0  0  0  0  0
   -6.4999    6.4336    2.3865 H   0  0  0  0  0  0  0  0  0  0  0  0
   -4.8504    7.0564    2.5275 H   0  0  0  0  0  0  0  0  0  0  0  0
   -6.5496    7.1458   -0.0158 H   0  0  0  0  0  0  0  0  0  0  0  0
   -6.2327    8.5024    1.0640 H   0  0  0  0  0  0  0  0  0  0  0  0
   -4.9066    7.7764    0.1480 H   0  0  0  0  0  0  0  0  0  0  0  0
    8.1870    1.5588    0.2254 H   0  0  0  0  0  0  0  0  0  0  0  0
    8.8011   -0.0262   -0.2641 H   0  0  0  0  0  0  0  0  0  0  0  0
    8.5309   -0.8479    2.0833 H   0  0  0  0  0  0  0  0  0  0  0  0
    7.9069    0.7365    2.5600 H   0  0  0  0  0  0  0  0  0  0  0  0
    9.5787    0.5663    2.0120 H   0  0  0  0  0  0  0  0  0  0  0  0
   -2.5064    1.6026   -0.5038 H   0  0  0  0  0  0  0  0  0  0  0  0
   -0.9699    0.7435   -0.4574 H   0  0  0  0  0  0  0  0  0  0  0  0
   -1.6002    3.1936   -2.1748 H   0  0  0  0  0  0  0  0  0  0  0  0
   -1.4268    1.5357   -2.7546 H   0  0  0  0  0  0  0  0  0  0  0  0
   -0.0238    2.4035   -2.1103 H   0  0  0  0  0  0  0  0  0  0  0  0
    1.8441   -0.6900    1.0034 H   0  0  0  0  0  0  0  0  0  0  0  0
    0.3023    0.1491    0.8477 H   0  0  0  0  0  0  0  0  0  0  0  0
    2.1087   -0.9602   -1.3762 H   0  0  0  0  0  0  0  0  0  0  0  0
    0.4990   -1.5293   -0.9509 H   0  0  0  0  0  0  0  0  0  0  0  0
    0.7056    0.0432   -1.7361 H   0  0  0  0  0  0  0  0  0  0  0  0
    8.1960   -2.0517   -0.1081 H   0  0  0  0  0  0  0  0  0  0  0  0
    8.8634   -7.3095   -1.5038 H   0  0  0  0  0  0  0  0  0  0  0  0
    7.3603   -9.0294   -2.3779 H   0  0  0  0  0  0  0  0  0  0  0  0
    5.1377   -9.7862   -3.0418 H   0  0  0  0  0  0  0  0  0  0  0  0
    2.7316   -9.3446   -3.3163 H   0  0  0  0  0  0  0  0  0  0  0  0
    1.7897   -7.1549   -2.7033 H   0  0  0  0  0  0  0  0  0  0  0  0
    3.2494   -5.3769   -1.8072 H   0  0  0  0  0  0  0  0  0  0  0  0
  1  2  2  0  0  0  0
  2  3  1  0  0  0  0
  3  4  2  0  0  0  0
  3  5  1  0  0  0  0
  5  6  2  0  0  0  0
  6  7  1  0  0  0  0
  7  8  1  0  0  0  0
  7  9  2  0  0  0  0
  9 10  1  0  0  0  0
  9 11  1  0  0  0  0
 11 12  2  0  0  0  0
 12 13  1  0  0  0  0
 13 14  2  0  0  0  0
 14 15  1  0  0  0  0
 15 16  3  0  0  0  0
 14 17  1  0  0  0  0
 17 18  3  0  0  0  0
  1 19  1  0  0  0  0
 19 20  2  0  0  0  0
 20 21  1  0  0  0  0
 21 22  1  0  0  0  0
 20 23  1  0  0  0  0
 23 24  1  0  0  0  0
 24 25  1  0  0  0  0
 25 26  1  0  0  0  0
 26 27  1  0  0  0  0
 27 28  1  0  0  0  0
 28 29  2  0  0  0  0
 29 30  1  0  0  0  0
 30 31  1  0  0  0  0
 28 32  1  0  0  0  0
 32 33  1  0  0  0  0
 33 34  1  0  0  0  0
 34 35  1  0  0  0  0
 35 36  1  0  0  0  0
 36 37  1  0  0  0  0
 37 38  1  0  0  0  0
 36 39  2  0  0  0  0
 39 40  1  0  0  0  0
 40 41  1  0  0  0  0
 41 42  1  0  0  0  0
 42 43  1  0  0  0  0
 43 44  1  0  0  0  0
 44 45  1  0  0  0  0
 45 46  1  0  0  0  0
 46 47  1  0  0  0  0
 47 48  1  0  0  0  0
 48 49  1  0  0  0  0
 46 50  1  0  0  0  0
 50 51  1  0  0  0  0
 43 52  1  0  0  0  0
 52 53  1  0  0  0  0
 39 54  1  0  0  0  0
 54 55  2  0  0  0  0
 55 56  1  0  0  0  0
 56 57  2  0  0  0  0
 56 58  1  0  0  0  0
 58 59  2  0  0  0  0
 59 60  1  0  0  0  0
 60 61  2  0  0  0  0
 61 62  1  0  0  0  0
 62 63  2  0  0  0  0
 63 64  1  0  0  0  0
 64 65  2  0  0  0  0
 65 66  1  0  0  0  0
 66 67  2  0  0  0  0
 59 68  1  0  0  0  0
 68 69  2  0  0  0  0
 69 70  1  0  0  0  0
 70 71  3  0  0  0  0
 69 72  1  0  0  0  0
 72 73  3  0  0  0  0
 13  2  1  0  0  0  0
 49 19  1  0  0  0  0
 68 55  1  0  0  0  0
 12  5  1  0  0  0  0
 48 23  2  0  0  0  0
 67 58  1  0  0  0  0
 47 25  2  0  0  0  0
 67 62  1  0  0  0  0
 45 26  2  0  0  0  0
 31 27  2  0  0  0  0
 44 32  2  0  0  0  0
 42 33  2  0  0  0  0
 41 35  2  0  0  0  0
  1 74  1  0  0  0  0
  6 75  1  0  0  0  0
  8 76  1  0  0  0  0
  8 77  1  0  0  0  0
  8 78  1  0  0  0  0
 10 79  1  0  0  0  0
 10 80  1  0  0  0  0
 10 81  1  0  0  0  0
 11 82  1  0  0  0  0
 21 83  1  0  0  0  0
 21 84  1  0  0  0  0
 22 85  1  0  0  0  0
 22 86  1  0  0  0  0
 22 87  1  0  0  0  0
 37 88  1  0  0  0  0
 37 89  1  0  0  0  0
 38 90  1  0  0  0  0
 38 91  1  0  0  0  0
 38 92  1  0  0  0  0
 50 93  1  0  0  0  0
 50 94  1  0  0  0  0
 51 95  1  0  0  0  0
 51 96  1  0  0  0  0
 51 97  1  0  0  0  0
 52 98  1  0  0  0  0
 52 99  1  0  0  0  0
 53100  1  0  0  0  0
 53101  1  0  0  0  0
 53102  1  0  0  0  0
 54103  1  0  0  0  0
 60104  1  0  0  0  0
 61105  1  0  0  0  0
 63106  1  0  0  0  0
 64107  1  0  0  0  0
 65108  1  0  0  0  0
 66109  1  0  0  0  0
M  END
