109

C          3.19260       -4.53230        6.11190
C          3.61900       -5.82830        6.11790
C          3.25640       -6.82650        5.07830
O          2.38380       -6.74450        4.24010
C          4.26560       -7.89340        5.20620
C          4.44060       -9.01650        4.42430
C          5.48620       -9.89020        4.70550
C          5.68710      -11.10810        3.86180
C          6.35010       -9.61850        5.77800
C          7.48270      -10.54580        6.08360
C          6.16750       -8.48310        6.56260
C          5.12700       -7.61460        6.28080
C          4.71290       -6.36420        6.90260
C          5.20030       -5.83020        8.06630
C          4.68280       -4.66800        8.67520
N          4.28760       -3.74250        9.22830
C          6.24570       -6.40300        8.81820
N          7.09740       -6.82490        9.46250
C          2.07060       -4.04270        5.40030
C          0.80790       -4.58610        5.22330
C          0.30360       -5.80930        5.91230
C         -0.96800       -5.53170        6.71290
C          0.02140       -3.77000        4.39430
S         -1.59470       -3.94310        3.74620
C         -1.36510       -2.49550        2.83080
C         -2.05320       -1.70170        1.90100
C         -3.38040       -1.76880        1.42300
C         -3.83760       -0.76770        0.50340
N         -5.11070       -0.92380        0.17700
S         -5.68460       -2.22110        0.95730
N         -4.32990       -2.63440        1.74120
C         -2.91170        0.17950        0.01260
C         -3.02240        1.12010       -1.02160
S         -4.20370        1.70390       -2.14050
C         -2.96810        2.67930       -2.90570
C         -2.98920        3.51290       -4.03420
C         -4.19950        3.64430       -4.90050
C         -5.36620        4.29960       -4.16140
C         -1.72490        4.01920       -4.30240
S         -0.51440        3.43710       -3.15660
C         -1.71260        2.54420       -2.30050
C         -1.74880        1.66560       -1.21320
N         -0.86940        1.13370       -0.30930
C         -1.55890        0.21090        0.45860
C         -1.16260       -0.66300        1.50500
N          0.00980       -0.79210        2.23310
C         -0.11470       -1.90150        3.02600
C          0.67170       -2.61850        3.93310
S          2.25520       -2.48220        4.59820
C          1.02650        0.19200        2.53550
C          0.41480        1.49010        3.05510
C          0.55230        1.30080       -0.50970
C          1.20690        0.01140       -0.99860
C         -1.23080        4.74980       -5.40940
C         -1.85290        5.76610       -6.07420
C         -2.89850        6.64000       -5.48410
O         -3.40020        6.54770       -4.38400
C         -3.07780        7.73660       -6.45240
C         -3.92190        8.82590       -6.38420
C         -3.91680        9.76180       -7.41370
C         -4.83510       10.94030       -7.35560
C         -3.04610        9.59380       -8.50170
C         -3.02460       10.59720       -9.61020
C         -2.19280        8.49570       -8.56040
C         -2.20500        7.56070       -7.53960
C         -1.44370        6.33400       -7.34140
C         -0.57280        5.76840       -8.23730
C          0.06310        4.52270       -8.05790
N          0.59500        3.50690       -7.98890
C         -0.22610        6.34780       -9.47440
N          0.09910        6.77430      -10.48980
H          3.79670       -3.78310        6.61170
H          3.76600       -9.20570        3.60260
H          6.67460      -11.09560        3.40140
H          4.93840      -11.15970        3.07610
H          5.61900      -12.01090        4.46790
H          8.15910      -10.61650        5.23220
H          8.04460      -10.19730        6.94560
H          7.11120      -11.54850        6.29210
H          6.84860       -8.28770        7.37580
H          1.07610       -6.19160        6.58090
H          0.10680       -6.57380        5.15640
H         -1.78140       -5.22190        6.06290
H         -0.78990       -4.74880        7.44720
H         -1.27290       -6.43340        7.23770
H         -3.95650        4.21750       -5.79560
H         -4.49690        2.63660       -5.20880
H         -6.22180        4.38300       -4.82680
H         -5.65300        3.70570       -3.29760
H         -5.08170        5.29290       -3.82700
H          1.65700       -0.24490        3.31390
H          1.66620        0.36790        1.66940
H          1.20160        2.20650        3.27560
H         -0.26520        1.92710        2.32770
H         -0.14400        1.29810        3.96820
H          1.02530        1.67340        0.39930
H          0.66930        2.07420       -1.27280
H          1.05580       -0.80160       -0.29270
H          0.77680       -0.28310       -1.95300
H          2.27370        0.16680       -1.13430
H         -0.23310        4.46740       -5.72750
H         -4.58150        8.93890       -5.53660
H         -5.43440       10.91730       -6.44960
H         -4.26660       11.86960       -7.37370
H         -5.50380       10.94790       -8.21580
H         -2.76420       11.58400       -9.22850
H         -2.30050       10.31640      -10.37000
H         -4.00630       10.67360      -10.07640
H         -1.52600        8.39090       -9.40140
