109

C         -7.11800        4.22980        0.73860
C         -7.98950        3.26920        0.29010
C         -7.63040        1.95250       -0.24810
O         -6.51000        1.50950       -0.44260
C         -8.90100        1.25880       -0.50710
C         -9.11690       -0.01600       -0.98790
C        -10.42070       -0.47720       -1.13990
C        -10.66880       -1.85880       -1.65550
C        -11.49560        0.35940       -0.80410
C        -12.90200       -0.12590       -0.95610
C        -11.26800        1.64650       -0.32310
C         -9.97090        2.10480       -0.17080
C         -9.43540        3.37580        0.31040
C        -10.18900        4.45660        0.69410
C        -11.59900        4.47940        0.68090
N        -12.74410        4.56690        0.69550
C         -9.69030        5.69570        1.14450
N         -9.37010        6.73510        1.51720
C         -5.72040        4.24300        0.80670
C         -4.99350        5.31890        1.34400
C         -5.56990        6.60380        1.84210
C         -5.83090        7.56850        0.68210
C         -3.62750        5.07140        1.31380
S         -2.24700        6.01180        1.85000
C         -1.21360        4.72350        1.33850
C          0.15360        4.42210        1.27750
C          1.28940        5.20180        1.58960
C          2.59210        4.67080        1.31260
N          3.55950        5.52680        1.60080
S          2.88860        6.88360        2.17660
N          1.33780        6.43070        2.07870
C          2.70090        3.34120        0.84850
C          3.82230        2.52860        0.64040
S          5.54600        2.63410        0.72810
C          5.63610        0.92290        0.35270
C          6.71080        0.05640        0.20600
C          8.12500        0.48630        0.42140
C          8.56120        0.21650        1.86410
C          6.28070       -1.24530       -0.10380
S          4.52360       -1.35310       -0.22170
C          4.38030        0.31930        0.16810
C          3.34840        1.24790        0.32910
N          1.97880        1.24780        0.32310
C          1.55180        2.52760        0.61570
C          0.26440        3.11620        0.71600
N         -1.00810        2.65930        0.41060
C         -1.89690        3.63480        0.78520
C         -3.28140        3.82610        0.76250
S         -4.66910        2.93300        0.26510
C         -1.42470        1.71740       -0.60780
C         -1.09540        2.24590       -2.00220
C          1.26780       -0.01030        0.36580
C          1.13230       -0.64880       -1.01540
C          7.16060       -2.32050       -0.26910
C          6.92880       -3.63050       -0.60800
C          5.63880       -4.21580       -0.98420
O          4.54850       -3.66450       -0.95890
C          5.92210       -5.59580       -1.41190
C          7.28430       -5.85090       -1.26290
C          7.81210       -7.10100       -1.61150
C          6.96610       -8.06190       -2.10210
C          5.58310       -7.83260       -2.26510
C          4.72120       -8.82600       -2.77360
C          3.38490       -8.57860       -2.92500
C          2.84780       -7.32900       -2.57520
C          3.65110       -6.34040       -2.07850
C          5.03300       -6.56620       -1.91200
C          7.94140       -4.65810       -0.73100
C          9.26480       -4.56920       -0.38100
C         10.20060       -5.61660       -0.51170
N         11.02000       -6.41740       -0.58770
C          9.89080       -3.43880        0.18430
N         10.47510       -2.56990        0.65800
H         -7.57030        5.13320        1.12450
H         -8.27420       -0.64320       -1.23820
H        -11.25770       -1.82610       -2.57160
H        -11.22790       -2.44490       -0.92680
H         -9.73090       -2.36620       -1.86350
H        -13.60950        0.64370       -0.66050
H        -13.10200       -0.40440       -1.99020
H        -13.07000       -1.00850       -0.33960
H        -12.11220        2.26790       -0.07150
H         -6.49990        6.43360        2.38650
H         -4.85040        7.05640        2.52750
H         -6.54960        7.14580       -0.01580
H         -6.23270        8.50240        1.06400
H         -4.90660        7.77640        0.14800
H          8.18700        1.55880        0.22540
H          8.80110       -0.02620       -0.26410
H          8.53090       -0.84790        2.08330
H          7.90690        0.73650        2.56000
H          9.57870        0.56630        2.01200
H         -2.50640        1.60260       -0.50380
H         -0.96990        0.74350       -0.45740
H         -1.60020        3.19360       -2.17480
H         -1.42680        1.53570       -2.75460
H         -0.02380        2.40350       -2.11030
H          1.84410       -0.69000        1.00340
H          0.30230        0.14910        0.84770
H          2.10870       -0.96020       -1.37620
H          0.49900       -1.52930       -0.95090
H          0.70560        0.04320       -1.73610
H          8.19600       -2.05170       -0.10810
H          8.86340       -7.30950       -1.50380
H          7.36030       -9.02940       -2.37790
H          5.13770       -9.78620       -3.04180
H          2.73160       -9.34460       -3.31630
H          1.78970       -7.15490       -2.70330
H          3.24940       -5.37690       -1.80720
