106

C          5.37640        5.39490        0.07520
C          5.23890        5.89890       -1.19410
C          4.17170        5.57620       -2.14760
O          3.24470        4.79800       -1.99110
C          4.43930        6.38390       -3.34690
C          3.72900        6.45430       -4.52720
C          4.16900        7.30040       -5.54010
C          3.40820        7.38610       -6.82460
C          5.32620        8.06960       -5.34670
C          5.80840        8.98610       -6.42550
C          6.03820        7.99010       -4.15230
C          5.60130        7.14710       -3.14530
C          6.13080        6.85920       -1.81460
C          7.27350        7.40360       -1.28430
C          7.80690        7.12930       -0.00870
N          8.31030        6.95870        1.01070
C          8.09450        8.32860       -1.96190
N          8.80510        9.08630       -2.45170
C          4.60280        4.47010        0.78540
C          4.89730        4.08210        2.10420
C          6.00640        4.62160        2.94720
C          5.59990        5.94600        3.59920
C          3.98040        3.15080        2.57350
S          3.81860        2.31520        4.10870
C          2.42710        1.49870        3.48370
C          1.46170        0.56940        3.89810
C          1.21470       -0.03420        5.15180
C          0.07170       -0.89050        5.29890
N         -0.06840       -1.33750        6.53630
S          1.13500       -0.73880        7.43900
N          1.88240        0.11550        6.28430
C         -0.69410       -1.21150        4.15500
C         -1.71700       -2.14800        3.95650
S         -2.65040       -3.27770        4.87500
C         -3.39630       -3.82460        3.38410
C         -4.35060       -4.79730        3.11980
C         -4.93650       -5.66510        4.18510
C         -4.16630       -6.98390        4.29530
C         -4.62720       -4.88310        1.74360
S         -3.68390       -3.72570        0.80360
C         -2.93330       -3.14760        2.24230
C         -1.98100       -2.18290        2.58040
N         -1.17810       -1.28340        1.93040
C         -0.39280       -0.65750        2.87630
C          0.60380        0.34610        2.78170
N          1.00770        1.16240        1.74050
C          2.11380        1.85250        2.16610
C          2.99090        2.80300        1.63890
S          3.17520        3.64960        0.15040
C          0.22260        1.73420        0.66690
C         -0.43180        3.04370        1.10640
C         -1.02330       -1.35580        0.49410
C         -2.20140       -0.72390       -0.24860
C         -5.54600       -5.78890        1.20490
C         -5.94020       -6.00800       -0.09300
C         -5.46770       -5.28650       -1.27690
O         -4.64660       -4.38490       -1.32390
C         -6.19090       -5.86250       -2.42400
C         -6.10190       -5.52390       -3.75710
C         -6.88750       -6.21090       -4.68120
C         -6.83180       -5.85410       -6.13240
C         -7.73730       -7.21620       -4.22740
C         -7.83150       -7.56080       -2.88640
C         -7.05000       -6.87780       -1.96810
C         -6.91580       -6.99330       -0.51750
C         -7.60270       -7.88310        0.26950
C         -7.48770       -8.01200        1.66850
N         -7.45230       -8.18310        2.80480
C         -8.54150       -8.81270       -0.22460
N         -9.31490       -9.59430       -0.55530
H          6.21990        5.76620        0.64070
H          2.84030        5.85380       -4.65330
H          3.05810        8.40380       -6.99520
H          4.04420        7.11250       -7.66580
H          2.54880        6.72150       -6.80800
H          6.70810        9.50900       -6.11360
H          5.04450        9.72300       -6.67140
H          6.02880        8.42560       -7.33350
H          6.92420        8.59200       -4.03040
H          6.91180        4.77160        2.35730
H          6.22500        3.89210        3.72960
H          5.37190        6.69360        2.84300
H          4.72170        5.80550        4.22530
H          6.41330        6.31740        4.21580
H         -4.86690       -5.13180        5.13540
H         -5.98830       -5.87600        3.98720
H         -4.59600       -7.59580        5.08310
H         -4.21850       -7.53930        3.36180
H         -3.12160       -6.79330        4.52960
H          0.89700        1.92390       -0.17330
H         -0.55080        1.04280        0.35750
H         -1.07880        2.87430        1.96500
H         -1.02740        3.44410        0.29090
H          0.32050        3.77990        1.37590
H         -0.97250       -2.41540        0.22000
H         -0.07120       -0.89920        0.22010
H         -1.96020       -0.62670       -1.30330
H         -3.08150       -1.35400       -0.15880
H         -2.44840        0.25760        0.15070
H         -6.01630       -6.41320        1.95210
H         -5.43000       -4.73840       -4.06960
H         -5.83020       -5.53810       -6.41450
H         -7.51280       -5.02650       -6.33460
H         -7.12940       -6.69480       -6.75390
H         -8.34560       -7.74880       -4.94400
H         -8.50350       -8.34700       -2.58410
