103

C         -5.12080       -1.02920       -4.82780
C         -6.45130       -1.28080       -4.95900
C         -6.97030       -1.84590       -6.23750
O         -6.31170       -2.31000       -7.14080
C         -8.43100       -1.66200       -6.17100
C         -9.38910       -1.90200       -7.13460
C        -10.72380       -1.62270       -6.85820
C        -11.76950       -1.88070       -7.89520
C        -11.08030       -1.09630       -5.60670
C        -12.50940       -0.77660       -5.30480
C        -10.11040       -0.86720       -4.63460
C         -8.78470       -1.15230       -4.90890
C         -7.58250       -1.04530       -4.08850
C         -7.55690       -0.97630       -2.71900
C         -8.70800       -0.81990       -1.92160
N         -9.61170       -0.66910       -1.22950
C         -6.39160       -1.14530       -1.94610
N         -5.48250       -1.32210       -1.26740
C         -4.44570       -0.20960       -3.89090
C         -4.83230        0.96240       -3.25380
C         -6.09610        1.71100       -3.53050
C         -5.83280        3.17300       -3.89030
C         -3.83020        1.41660       -2.38300
S         -3.75380        2.75750       -1.26150
C         -2.19080        2.22190       -0.75740
C         -1.20310        2.56010        0.17560
C         -1.19330        3.56520        1.16700
C         -0.08720        3.62790        2.07280
N         -0.22430        4.58550        2.97630
S         -1.62870        5.34540        2.70550
N         -2.11310        4.48150        1.42510
C          0.99590        2.74180        1.88420
C          2.22920        2.67290        2.54040
S          3.06760        3.45170        3.83670
C          4.47340        2.46540        3.47420
C          5.74220        2.41110        4.02960
C          6.14660        3.23540        5.20740
C          5.98990        2.43840        6.50560
C          6.54800        1.45670        3.37800
S          5.68380        0.63810        2.07380
C          4.27640        1.57580        2.40150
C          2.98580        1.69650        1.88190
N          2.25710        1.15710        0.85710
C          1.01670        1.76390        0.84070
C         -0.14280        1.61530        0.02780
N         -0.51760        0.70980       -0.94940
C         -1.74380        1.08030       -1.42730
C         -2.68270        0.61420       -2.35430
S         -2.81080       -0.69750       -3.46070
C          0.03680       -0.55590       -1.37070
C          0.67830       -0.46420       -2.75550
C          2.91010        0.23500       -0.04300
C          2.99960       -1.17220        0.54770
C          7.87860        1.22380        3.72740
C          8.80900        0.34630        3.21810
C          8.57910       -0.62770        2.15020
O          7.54980       -0.80960        1.52320
C          9.85240       -1.35270        1.97780
C         10.17860       -2.38060        1.10960
Cl         9.02120       -3.01170        0.01010
C         11.47050       -2.90160        1.14100
C         12.40160       -2.39270        2.02800
C         12.08650       -1.36070        2.90530
C         10.80500       -0.83950        2.87860
C         10.17930        0.22900        3.66200
C         10.81580        0.97390        4.62360
C         10.23520        2.01140        5.38180
N          9.84260        2.86780        6.04030
C         12.16770        0.81190        4.99120
N         13.25740        0.73810        5.34610
H         -4.49110       -1.51200       -5.57040
H         -9.09450       -2.30420       -8.09240
H        -12.51150       -2.58650       -7.52350
H        -12.29180       -0.95900       -8.15030
H        -11.32380       -2.28870       -8.79820
H        -12.61190       -0.38210       -4.29780
H        -12.89420       -0.04010       -6.00960
H        -13.12740       -1.66950       -5.39260
H        -10.40360       -0.45750       -3.68070
H         -6.62680        1.23520       -4.35690
H         -6.73840        1.66960       -2.64420
H         -6.76930        3.65620       -4.15770
H         -5.39600        3.71110       -3.05420
H         -5.15560        3.23700       -4.73920
H          7.17860        3.57680        5.11450
H          5.49820        4.11280        5.24780
H          6.27880        3.05430        7.35240
H          4.95600        2.12720        6.63540
H          6.62050        1.55250        6.49260
H          0.73790       -0.91300       -0.62230
H         -0.79040       -1.27250       -1.41790
H         -0.08270       -0.28050       -3.50910
H          1.40370        0.34530       -2.80880
H          1.17630       -1.40000       -2.99250
H          3.92810        0.60550       -0.20370
H          2.40100        0.24200       -1.00200
H          2.03130       -1.52110        0.90130
H          3.37220       -1.86260       -0.20340
H          3.68830       -1.18080        1.38790
H          8.22140        1.85050        4.53910
H         11.73420       -3.70240        0.46870
H         13.39840       -2.80630        2.04040
H         12.83500       -0.98780        3.58400
