
  xtb     02012220213D
 energy: -194.505109325398 gnorm: 0.000867343297 xtb: 6.4.1 (unknown)
109121  0     0  0            999 V2000
   -0.2861   -5.9556   -4.5881 C   0  0  0  0  0  0  0  0  0  0  0  0
    1.0262   -5.8725   -4.9802 C   0  0  0  0  0  0  0  0  0  0  0  0
    1.9900   -4.8409   -4.5805 C   0  0  0  0  0  0  0  0  0  0  0  0
    1.8133   -3.9232   -3.7955 O   0  0  0  0  0  0  0  0  0  0  0  0
    3.2266   -5.1304   -5.3214 C   0  0  0  0  0  0  0  0  0  0  0  0
    4.4247   -4.4466   -5.3208 C   0  0  0  0  0  0  0  0  0  0  0  0
    5.4742   -4.9060   -6.1103 C   0  0  0  0  0  0  0  0  0  0  0  0
    6.7768   -4.1720   -6.1219 C   0  0  0  0  0  0  0  0  0  0  0  0
    5.3007   -6.0579   -6.8923 C   0  0  0  0  0  0  0  0  0  0  0  0
    6.4211   -6.5643   -7.7435 C   0  0  0  0  0  0  0  0  0  0  0  0
    4.0875   -6.7417   -6.8866 C   0  0  0  0  0  0  0  0  0  0  0  0
    3.0425   -6.2830   -6.1034 C   0  0  0  0  0  0  0  0  0  0  0  0
    1.6834   -6.7787   -5.9024 C   0  0  0  0  0  0  0  0  0  0  0  0
    1.1598   -7.9079   -6.4799 C   0  0  0  0  0  0  0  0  0  0  0  0
   -0.1428   -8.4095   -6.2830 C   0  0  0  0  0  0  0  0  0  0  0  0
   -1.1836   -8.8849   -6.1739 N   0  0  0  0  0  0  0  0  0  0  0  0
    1.8726   -8.7450   -7.3634 C   0  0  0  0  0  0  0  0  0  0  0  0
    2.3924   -9.4687   -8.0878 N   0  0  0  0  0  0  0  0  0  0  0  0
   -1.0357   -5.1598   -3.7142 C   0  0  0  0  0  0  0  0  0  0  0  0
   -2.4036   -5.3707   -3.4715 C   0  0  0  0  0  0  0  0  0  0  0  0
   -3.2592   -6.4035   -4.1293 C   0  0  0  0  0  0  0  0  0  0  0  0
   -3.7451   -5.9159   -5.4970 C   0  0  0  0  0  0  0  0  0  0  0  0
   -2.9045   -4.4449   -2.5656 C   0  0  0  0  0  0  0  0  0  0  0  0
   -4.5083   -4.1965   -1.8995 S   0  0  0  0  0  0  0  0  0  0  0  0
   -3.8849   -2.8721   -0.9788 C   0  0  0  0  0  0  0  0  0  0  0  0
   -4.3224   -1.9507   -0.0191 C   0  0  0  0  0  0  0  0  0  0  0  0
   -5.5604   -1.8230    0.6492 C   0  0  0  0  0  0  0  0  0  0  0  0
   -5.6804   -0.8614    1.7057 C   0  0  0  0  0  0  0  0  0  0  0  0
   -6.8702   -0.8917    2.2847 N   0  0  0  0  0  0  0  0  0  0  0  0
   -7.7651   -2.0290    1.5591 S   0  0  0  0  0  0  0  0  0  0  0  0
   -6.6676   -2.5279    0.4787 N   0  0  0  0  0  0  0  0  0  0  0  0
   -4.5970    0.0077    1.9645 C   0  0  0  0  0  0  0  0  0  0  0  0
   -4.4839    1.1015    2.8325 C   0  0  0  0  0  0  0  0  0  0  0  0
   -5.4194    1.9236    4.0322 S   0  0  0  0  0  0  0  0  0  0  0  0
   -4.1129    3.0821    4.2094 C   0  0  0  0  0  0  0  0  0  0  0  0
   -3.9541    4.1935    5.0234 C   0  0  0  0  0  0  0  0  0  0  0  0
   -5.0218    4.6788    5.9481 C   0  0  0  0  0  0  0  0  0  0  0  0
   -5.8435    5.7918    5.2916 C   0  0  0  0  0  0  0  0  0  0  0  0
   -2.7052    4.8094    4.8133 C   0  0  0  0  0  0  0  0  0  0  0  0
   -1.7523    3.9769    3.5811 S   0  0  0  0  0  0  0  0  0  0  0  0
   -3.0152    2.8252    3.3677 C   0  0  0  0  0  0  0  0  0  0  0  0
   -3.2367    1.6885    2.5876 C   0  0  0  0  0  0  0  0  0  0  0  0
   -2.5626    0.9835    1.6229 N   0  0  0  0  0  0  0  0  0  0  0  0
   -3.3774   -0.0646    1.2277 C   0  0  0  0  0  0  0  0  0  0  0  0
   -3.1998   -1.1335    0.3114 C   0  0  0  0  0  0  0  0  0  0  0  0
   -2.1066   -1.5925   -0.3962 N   0  0  0  0  0  0  0  0  0  0  0  0
   -2.5200   -2.6334   -1.1836 C   0  0  0  0  0  0  0  0  0  0  0  0
   -1.9478   -3.5336   -2.0870 C   0  0  0  0  0  0  0  0  0  0  0  0
   -0.3964   -3.8023   -2.7877 S   0  0  0  0  0  0  0  0  0  0  0  0
   -0.6929   -1.3815   -0.1789 C   0  0  0  0  0  0  0  0  0  0  0  0
   -0.0408   -0.5991   -1.3181 C   0  0  0  0  0  0  0  0  0  0  0  0
   -1.5239    1.6752    0.8880 C   0  0  0  0  0  0  0  0  0  0  0  0
   -2.1138    2.4336   -0.2990 C   0  0  0  0  0  0  0  0  0  0  0  0
   -2.2860    5.9348    5.5246 C   0  0  0  0  0  0  0  0  0  0  0  0
   -1.1050    6.6407    5.4849 C   0  0  0  0  0  0  0  0  0  0  0  0
    0.0486    6.3436    4.6352 C   0  0  0  0  0  0  0  0  0  0  0  0
    0.1459    5.4713    3.7865 O   0  0  0  0  0  0  0  0  0  0  0  0
    1.0950    7.3101    5.0073 C   0  0  0  0  0  0  0  0  0  0  0  0
    2.3651    7.4248    4.5228 C   0  0  0  0  0  0  0  0  0  0  0  0
    3.2133    8.4254    5.0478 C   0  0  0  0  0  0  0  0  0  0  0  0
    4.5367    8.5860    4.5905 C   0  0  0  0  0  0  0  0  0  0  0  0
    5.3494    9.5542    5.1118 C   0  0  0  0  0  0  0  0  0  0  0  0
    4.8462   10.3933    6.1149 C   0  0  0  0  0  0  0  0  0  0  0  0
    5.6610   11.3395    6.6169 F   0  0  0  0  0  0  0  0  0  0  0  0
    3.5702   10.2812    6.5930 C   0  0  0  0  0  0  0  0  0  0  0  0
    2.7197    9.2894    6.0676 C   0  0  0  0  0  0  0  0  0  0  0  0
    1.3951    9.1480    6.5454 C   0  0  0  0  0  0  0  0  0  0  0  0
    0.5916    8.1708    6.0229 C   0  0  0  0  0  0  0  0  0  0  0  0
   -0.7871    7.7823    6.3168 C   0  0  0  0  0  0  0  0  0  0  0  0
   -1.6063    8.4160    7.2184 C   0  0  0  0  0  0  0  0  0  0  0  0
   -2.9419    8.0708    7.5066 C   0  0  0  0  0  0  0  0  0  0  0  0
   -4.0353    7.8601    7.7922 N   0  0  0  0  0  0  0  0  0  0  0  0
   -1.2181    9.5307    7.9898 C   0  0  0  0  0  0  0  0  0  0  0  0
   -0.9684   10.4351    8.6519 N   0  0  0  0  0  0  0  0  0  0  0  0
   -0.8595   -6.7607   -5.0267 H   0  0  0  0  0  0  0  0  0  0  0  0
    4.5361   -3.5631   -4.7100 H   0  0  0  0  0  0  0  0  0  0  0  0
    7.0178   -3.8360   -7.1300 H   0  0  0  0  0  0  0  0  0  0  0  0
    6.7366   -3.3058   -5.4672 H   0  0  0  0  0  0  0  0  0  0  0  0
    7.5860   -4.8220   -5.7906 H   0  0  0  0  0  0  0  0  0  0  0  0
    7.2920   -6.7962   -7.1312 H   0  0  0  0  0  0  0  0  0  0  0  0
    6.7215   -5.8096   -8.4697 H   0  0  0  0  0  0  0  0  0  0  0  0
    6.1238   -7.4619   -8.2784 H   0  0  0  0  0  0  0  0  0  0  0  0
    3.9806   -7.6227   -7.4986 H   0  0  0  0  0  0  0  0  0  0  0  0
   -4.1244   -6.5869   -3.4891 H   0  0  0  0  0  0  0  0  0  0  0  0
   -2.7185   -7.3433   -4.2506 H   0  0  0  0  0  0  0  0  0  0  0  0
   -4.3753   -6.6728   -5.9551 H   0  0  0  0  0  0  0  0  0  0  0  0
   -2.9035   -5.7214   -6.1578 H   0  0  0  0  0  0  0  0  0  0  0  0
   -4.3209   -4.9996   -5.3890 H   0  0  0  0  0  0  0  0  0  0  0  0
   -4.5962    5.0475    6.8824 H   0  0  0  0  0  0  0  0  0  0  0  0
   -5.6797    3.8388    6.1795 H   0  0  0  0  0  0  0  0  0  0  0  0
   -5.2145    6.6460    5.0530 H   0  0  0  0  0  0  0  0  0  0  0  0
   -6.3046    5.4312    4.3751 H   0  0  0  0  0  0  0  0  0  0  0  0
   -6.6245    6.1208    5.9708 H   0  0  0  0  0  0  0  0  0  0  0  0
   -0.5559   -0.8999    0.7904 H   0  0  0  0  0  0  0  0  0  0  0  0
   -0.2193   -2.3679   -0.1238 H   0  0  0  0  0  0  0  0  0  0  0  0
    0.9809   -0.3445   -1.0507 H   0  0  0  0  0  0  0  0  0  0  0  0
   -0.0123   -1.2085   -2.2170 H   0  0  0  0  0  0  0  0  0  0  0  0
   -0.5877    0.3130   -1.5409 H   0  0  0  0  0  0  0  0  0  0  0  0
   -0.7547    0.9897    0.5495 H   0  0  0  0  0  0  0  0  0  0  0  0
   -1.0643    2.3813    1.5841 H   0  0  0  0  0  0  0  0  0  0  0  0
   -2.8479    3.1590    0.0441 H   0  0  0  0  0  0  0  0  0  0  0  0
   -1.3260    2.9630   -0.8275 H   0  0  0  0  0  0  0  0  0  0  0  0
   -2.6041    1.7477   -0.9875 H   0  0  0  0  0  0  0  0  0  0  0  0
   -3.0204    6.2881    6.2354 H   0  0  0  0  0  0  0  0  0  0  0  0
    2.7204    6.7580    3.7513 H   0  0  0  0  0  0  0  0  0  0  0  0
    4.9018    7.9268    3.8172 H   0  0  0  0  0  0  0  0  0  0  0  0
    6.3645    9.6897    4.7740 H   0  0  0  0  0  0  0  0  0  0  0  0
    3.2163   10.9451    7.3662 H   0  0  0  0  0  0  0  0  0  0  0  0
    1.0551    9.8180    7.3182 H   0  0  0  0  0  0  0  0  0  0  0  0
  1  2  2  0  0  0  0
  2  3  1  0  0  0  0
  3  4  2  0  0  0  0
  3  5  1  0  0  0  0
  5  6  2  0  0  0  0
  6  7  1  0  0  0  0
  7  8  1  0  0  0  0
  7  9  2  0  0  0  0
  9 10  1  0  0  0  0
  9 11  1  0  0  0  0
 11 12  2  0  0  0  0
 12 13  1  0  0  0  0
 13 14  2  0  0  0  0
 14 15  1  0  0  0  0
 15 16  3  0  0  0  0
 14 17  1  0  0  0  0
 17 18  3  0  0  0  0
  1 19  1  0  0  0  0
 19 20  2  0  0  0  0
 20 21  1  0  0  0  0
 21 22  1  0  0  0  0
 20 23  1  0  0  0  0
 23 24  1  0  0  0  0
 24 25  1  0  0  0  0
 25 26  1  0  0  0  0
 26 27  1  0  0  0  0
 27 28  1  0  0  0  0
 28 29  2  0  0  0  0
 29 30  1  0  0  0  0
 30 31  1  0  0  0  0
 28 32  1  0  0  0  0
 32 33  1  0  0  0  0
 33 34  1  0  0  0  0
 34 35  1  0  0  0  0
 35 36  1  0  0  0  0
 36 37  1  0  0  0  0
 37 38  1  0  0  0  0
 36 39  2  0  0  0  0
 39 40  1  0  0  0  0
 40 41  1  0  0  0  0
 41 42  1  0  0  0  0
 42 43  1  0  0  0  0
 43 44  1  0  0  0  0
 44 45  1  0  0  0  0
 45 46  1  0  0  0  0
 46 47  1  0  0  0  0
 47 48  1  0  0  0  0
 48 49  1  0  0  0  0
 46 50  1  0  0  0  0
 50 51  1  0  0  0  0
 43 52  1  0  0  0  0
 52 53  1  0  0  0  0
 39 54  1  0  0  0  0
 54 55  2  0  0  0  0
 55 56  1  0  0  0  0
 56 57  2  0  0  0  0
 56 58  1  0  0  0  0
 58 59  2  0  0  0  0
 59 60  1  0  0  0  0
 60 61  2  0  0  0  0
 61 62  1  0  0  0  0
 62 63  2  0  0  0  0
 63 64  1  0  0  0  0
 63 65  1  0  0  0  0
 65 66  2  0  0  0  0
 66 67  1  0  0  0  0
 67 68  2  0  0  0  0
 68 69  1  0  0  0  0
 69 70  2  0  0  0  0
 70 71  1  0  0  0  0
 71 72  3  0  0  0  0
 70 73  1  0  0  0  0
 73 74  3  0  0  0  0
 13  2  1  0  0  0  0
 49 19  1  0  0  0  0
 69 55  1  0  0  0  0
 12  5  1  0  0  0  0
 48 23  2  0  0  0  0
 68 58  1  0  0  0  0
 47 25  2  0  0  0  0
 66 60  1  0  0  0  0
 45 26  2  0  0  0  0
 31 27  2  0  0  0  0
 44 32  2  0  0  0  0
 42 33  2  0  0  0  0
 41 35  2  0  0  0  0
  1 75  1  0  0  0  0
  6 76  1  0  0  0  0
  8 77  1  0  0  0  0
  8 78  1  0  0  0  0
  8 79  1  0  0  0  0
 10 80  1  0  0  0  0
 10 81  1  0  0  0  0
 10 82  1  0  0  0  0
 11 83  1  0  0  0  0
 21 84  1  0  0  0  0
 21 85  1  0  0  0  0
 22 86  1  0  0  0  0
 22 87  1  0  0  0  0
 22 88  1  0  0  0  0
 37 89  1  0  0  0  0
 37 90  1  0  0  0  0
 38 91  1  0  0  0  0
 38 92  1  0  0  0  0
 38 93  1  0  0  0  0
 50 94  1  0  0  0  0
 50 95  1  0  0  0  0
 51 96  1  0  0  0  0
 51 97  1  0  0  0  0
 51 98  1  0  0  0  0
 52 99  1  0  0  0  0
 52100  1  0  0  0  0
 53101  1  0  0  0  0
 53102  1  0  0  0  0
 53103  1  0  0  0  0
 54104  1  0  0  0  0
 59105  1  0  0  0  0
 61106  1  0  0  0  0
 62107  1  0  0  0  0
 65108  1  0  0  0  0
 67109  1  0  0  0  0
M  END
