106

C         -5.72800        4.33380       -2.29950
C         -6.33780        3.41030       -3.11010
C         -5.86210        2.05080       -3.39110
O         -4.81290        1.54190       -3.03170
C         -6.90960        1.41320       -4.20250
C         -6.96700        0.12750       -4.69880
C         -8.07510       -0.27000       -5.44010
C         -8.15180       -1.66230       -5.97990
C         -9.11650        0.64100       -5.67280
C        -10.31570        0.22510       -6.46350
C         -9.04790        1.93860       -5.17150
C         -7.94520        2.33400       -4.43420
C         -7.60400        3.60050       -3.79180
C         -8.35150        4.74890       -3.85950
C         -8.01730        5.98690       -3.27390
N         -7.81650        7.02910       -2.83210
C         -9.57510        4.85350       -4.55290
N        -10.57500        5.00920       -5.09580
C         -4.53850        4.26710       -1.56400
C         -4.11130        5.30030       -0.71260
C         -4.84480        6.57480       -0.44840
C         -5.92710        6.37400        0.61570
C         -2.91920        4.97230       -0.07990
S         -1.93360        5.81730        1.10000
C         -0.83360        4.48230        1.09500
C          0.37360        4.09760        1.70020
C          1.28490        4.76700        2.55000
C          2.53110        4.12930        2.88590
N          3.30950        4.90430        3.62320
S          2.54570        6.30770        3.88280
N          1.18980        5.98370        3.06080
C          2.75470        2.79320        2.47850
C          3.77310        1.86610        2.74880
S          5.30610        1.80330        3.54680
C          5.42050        0.10290        3.13010
C          6.40020       -0.85220        3.35890
C          7.63450       -0.56980        4.15130
C          7.44700       -0.98010        5.61470
C          6.04430       -2.09460        2.80110
S          4.47410       -2.03750        1.99350
C          4.30910       -0.37520        2.41310
C          3.37250        0.63790        2.20110
N          2.15000        0.77250        1.58980
C          1.77580        2.09450        1.71990
C          0.66940        2.79980        1.20130
N         -0.28590        2.43270        0.27410
C         -1.20830        3.44880        0.22420
C         -2.40170        3.71970       -0.44930
S         -3.41860        2.90310       -1.57520
C         -0.09060        1.57210       -0.87680
C          0.22170        2.38970       -2.12970
C          1.26870       -0.37130        1.45790
C          1.00440       -1.02470        2.81390
C          6.86110       -3.22500        2.88460
C          6.70500       -4.49240        2.37470
C          5.59150       -4.96410        1.54880
O          4.58560       -4.35270        1.22970
C          5.92710       -6.34690        1.16130
C          5.21590       -7.21240        0.35440
C          5.72390       -8.48180        0.10070
C          5.01620       -9.46860       -0.76890
C          6.94380       -8.81640        0.69080
F          7.44430      -10.04290        0.45040
C          7.67530       -7.96710        1.50580
C          7.15470       -6.70520        1.74280
C          7.65530       -5.57560        2.52500
C          8.80920       -5.58240        3.26700
C          9.29690       -4.51360        4.04660
N          9.75970       -3.69560        4.70810
C          9.67810       -6.68960        3.36340
N         10.42750       -7.55080        3.48470
H         -6.25190        5.27180       -2.17580
H         -6.15450       -0.55710       -4.50570
H         -8.24970       -1.64840       -7.06480
H         -9.02200       -2.18080       -5.57850
H         -7.26060       -2.22610       -5.71830
H        -10.81240       -0.62060       -5.98910
H        -10.02380       -0.08540       -7.46620
H        -11.02560        1.04330       -6.54670
H         -9.86270        2.61780       -5.36380
H         -4.12510        7.31260       -0.08780
H         -5.30060        6.96080       -1.36140
H         -6.65790        5.63790        0.28850
H         -5.48270        6.03140        1.54730
H         -6.44180        7.31290        0.79850
H          7.83070        0.50330        4.10450
H          8.49700       -1.09340        3.73700
H          8.34630       -0.75010        6.17840
H          7.25650       -2.04750        5.69430
H          6.61020       -0.44210        6.05410
H          0.74790        0.90510       -0.68650
H         -1.00210        0.98770       -1.03570
H          1.09570        3.01600       -1.96270
H         -0.61750        3.02290       -2.40200
H          0.42640        1.71680       -2.95750
H          0.31660       -0.04240        1.04640
H          1.73450       -1.09670        0.78380
H          1.91840       -1.43010        3.23750
H          0.58640       -0.29780        3.50730
H          0.29450       -1.83740        2.68910
H          7.77500       -3.05060        3.43590
H          4.27660       -6.89790       -0.07440
H          4.08600       -9.05440       -1.14640
H          4.80170      -10.37800       -0.20870
H          5.64980       -9.74910       -1.60980
H          8.61030       -8.30880        1.91740
