103

C          1.85740       -3.52570        6.14630
C          3.15580       -3.12060        6.32130
C          3.93420       -2.27600        5.40780
O          3.54760       -1.74200        4.38070
C          5.28600       -2.19610        5.98010
C          6.40250       -1.54720        5.49480
C          7.59640       -1.61650        6.20580
C          8.81500       -0.92160        5.68860
C          7.64800       -2.34270        7.40530
C          8.92540       -2.42800        8.17790
C          6.51500       -2.99200        7.88930
C          5.32740       -2.92340        7.18160
C          4.00720       -3.49400        7.43520
C          3.66140       -4.22850        8.54100
C          2.38690       -4.76780        8.80970
N          1.38000       -5.23750        9.10460
C          4.55100       -4.54200        9.58970
N          5.21940       -4.83420       10.47650
C          0.94350       -3.26390        5.11820
C         -0.34270       -3.82740        5.08050
C         -0.91040       -4.78130        6.08010
C         -0.47640       -6.21690        5.77190
C         -1.03390       -3.43310        3.94200
S         -2.62860       -3.83830        3.33360
C         -2.32690       -2.82310        1.96670
C         -2.94670       -2.44730        0.77000
C         -4.15510       -2.89110        0.18830
C         -4.49480       -2.43740       -1.12600
N         -5.62080       -2.97080       -1.57210
S         -6.20560       -3.95940       -0.43020
N         -5.04260       -3.74360        0.67520
C         -3.66490       -1.47950       -1.74990
C         -3.83240       -0.78310       -2.95070
S         -4.94120       -0.71100       -4.27490
C         -4.00710        0.61760       -4.93920
C         -4.16690        1.38850       -6.07890
C         -5.30940        1.21000       -7.02370
C         -6.45580        2.16390       -6.67530
C         -3.16480        2.37540       -6.17650
S         -2.02530        2.29810       -4.82890
C         -2.88960        0.96870       -4.15650
C         -2.79190        0.15190       -3.02880
N         -1.98270        0.03740       -1.93070
C         -2.48010       -0.97230       -1.13070
C         -2.06230       -1.54370        0.10370
N         -0.91850       -1.42870        0.87070
C         -1.07670       -2.19430        1.99260
C         -0.32000       -2.55130        3.11350
S          1.25620       -2.22250        3.73010
C          0.37340       -0.83770        0.60700
C          0.61060        0.42010        1.44250
C         -0.96070        1.03490       -1.71060
C          0.27460        0.79460       -2.57790
C         -3.10760        3.29610       -7.22090
C         -2.24080        4.34010       -7.46340
C         -1.11720        4.74280       -6.62120
O         -0.72280        4.22250       -5.59180
C         -0.52660        5.93240       -7.27100
C          0.54850        6.69180       -6.85620
C          0.91170        7.77340       -7.64270
F          1.94800        8.53960       -7.27810
C          0.20780        8.07140       -8.80890
F          0.57890        9.12290       -9.54860
C         -0.87180        7.30570       -9.22560
C         -1.24170        6.22260       -8.44460
C         -2.31300        5.23520       -8.59800
C         -3.19710        5.19390       -9.64650
C         -3.19370        6.10960      -10.71980
N         -3.24880        6.81960      -11.62000
C         -4.22650        4.24610       -9.82280
N         -5.08570        3.51550      -10.04320
H          1.45770       -4.17420        6.91370
H          6.34020       -0.99490        4.56890
H          8.59940       -0.40950        4.75490
H          9.17530       -0.19060        6.41170
H          9.61910       -1.63630        5.51640
H          9.26730       -1.43360        8.46310
H          8.79270       -3.02110        9.07840
H          9.70860       -2.88370        7.57290
H          6.58250       -3.54430        8.81260
H         -0.60220       -4.51870        7.09320
H         -1.99930       -4.72050        6.02770
H         -0.90590       -6.89590        6.50280
H          0.60670       -6.30860        5.81070
H         -0.81480       -6.50950        4.78060
H         -5.66490        0.18140       -6.93780
H         -4.99780        1.37940       -8.05530
H         -6.13110        3.19930       -6.74600
H         -7.28070        2.01390       -7.36560
H         -6.80780        1.97790       -5.66330
H          0.47000       -0.64220       -0.45710
H          1.13230       -1.57850        0.88120
H          1.53220        0.90000        1.12640
H          0.70640        0.15820        2.49230
H         -0.20920        1.12920        1.34540
H         -0.71280        1.06810       -0.65370
H         -1.38850        2.00550       -1.98430
H          0.03570        0.96140       -3.62440
H          1.06000        1.48880       -2.29380
H          0.64720       -0.22250       -2.47480
H         -3.89200        3.16060       -7.95260
H          1.08940        6.45770       -5.95330
H         -1.38120        7.57990      -10.13460
