
  xtb     01272209203D
 energy: -195.451133887063 gnorm: 0.000661210000 xtb: 6.4.1 (unknown)
110121  0     0  0            999 V2000
    4.4943    2.4090    5.9741 C   0  0  0  0  0  0  0  0  0  0  0  0
    5.7867    2.4850    5.5179 C   0  0  0  0  0  0  0  0  0  0  0  0
    6.2665    2.0745    4.1939 C   0  0  0  0  0  0  0  0  0  0  0  0
    5.6162    1.5760    3.2892 O   0  0  0  0  0  0  0  0  0  0  0  0
    7.7030    2.3879    4.1662 C   0  0  0  0  0  0  0  0  0  0  0  0
    8.6147    2.2117    3.1463 C   0  0  0  0  0  0  0  0  0  0  0  0
    9.9375    2.5982    3.3379 C   0  0  0  0  0  0  0  0  0  0  0  0
   10.9348    2.4179    2.2385 C   0  0  0  0  0  0  0  0  0  0  0  0
   10.3252    3.1584    4.5643 C   0  0  0  0  0  0  0  0  0  0  0  0
   11.7430    3.5813    4.7827 C   0  0  0  0  0  0  0  0  0  0  0  0
    9.3981    3.3294    5.5895 C   0  0  0  0  0  0  0  0  0  0  0  0
    8.0817    2.9468    5.3981 C   0  0  0  0  0  0  0  0  0  0  0  0
    6.9099    3.0118    6.2681 C   0  0  0  0  0  0  0  0  0  0  0  0
    6.9060    3.4917    7.5539 C   0  0  0  0  0  0  0  0  0  0  0  0
    5.7879    3.5595    8.4097 C   0  0  0  0  0  0  0  0  0  0  0  0
    4.9305    3.6499    9.1704 N   0  0  0  0  0  0  0  0  0  0  0  0
    8.0481    3.9928    8.2123 C   0  0  0  0  0  0  0  0  0  0  0  0
    8.9345    4.4164    8.8070 N   0  0  0  0  0  0  0  0  0  0  0  0
    3.3245    1.9614    5.3507 C   0  0  0  0  0  0  0  0  0  0  0  0
    2.0673    1.9857    5.9788 C   0  0  0  0  0  0  0  0  0  0  0  0
    1.8022    2.3990    7.3896 C   0  0  0  0  0  0  0  0  0  0  0  0
    2.0885    1.2450    8.3546 C   0  0  0  0  0  0  0  0  0  0  0  0
    1.0707    1.5167    5.1339 C   0  0  0  0  0  0  0  0  0  0  0  0
   -0.6625    1.3425    5.3392 S   0  0  0  0  0  0  0  0  0  0  0  0
   -0.7620    0.7526    3.7142 C   0  0  0  0  0  0  0  0  0  0  0  0
   -1.7303    0.3455    2.7926 C   0  0  0  0  0  0  0  0  0  0  0  0
   -3.1369    0.3291    2.8740 C   0  0  0  0  0  0  0  0  0  0  0  0
   -3.8971   -0.0360    1.7354 C   0  0  0  0  0  0  0  0  0  0  0  0
   -5.1877    0.0818    2.0532 N   0  0  0  0  0  0  0  0  0  0  0  0
   -5.1708    0.4918    3.2975 N   0  0  0  0  0  0  0  0  0  0  0  0
   -6.3811    0.7080    4.0357 C   0  0  0  0  0  0  0  0  0  0  0  0
   -6.8603   -0.5919    4.6752 C   0  0  0  0  0  0  0  0  0  0  0  0
   -3.9921    0.6561    3.8448 N   0  0  0  0  0  0  0  0  0  0  0  0
   -3.2345   -0.4626    0.5676 C   0  0  0  0  0  0  0  0  0  0  0  0
   -3.7322   -0.9704   -0.6357 C   0  0  0  0  0  0  0  0  0  0  0  0
   -5.2509   -1.3073   -1.3891 S   0  0  0  0  0  0  0  0  0  0  0  0
   -4.4031   -1.9693   -2.7713 C   0  0  0  0  0  0  0  0  0  0  0  0
   -4.8383   -2.5001   -3.9905 C   0  0  0  0  0  0  0  0  0  0  0  0
   -6.2613   -2.7820   -4.3338 C   0  0  0  0  0  0  0  0  0  0  0  0
   -7.0320   -3.4383   -3.1907 C   0  0  0  0  0  0  0  0  0  0  0  0
   -3.7540   -2.8542   -4.7956 C   0  0  0  0  0  0  0  0  0  0  0  0
   -2.2055   -2.6005   -3.9845 S   0  0  0  0  0  0  0  0  0  0  0  0
   -3.0058   -1.9207   -2.6212 C   0  0  0  0  0  0  0  0  0  0  0  0
   -2.6271   -1.3418   -1.4090 C   0  0  0  0  0  0  0  0  0  0  0  0
   -1.4707   -1.0677   -0.7318 N   0  0  0  0  0  0  0  0  0  0  0  0
   -1.8071   -0.5044    0.4893 C   0  0  0  0  0  0  0  0  0  0  0  0
   -1.0462   -0.0137    1.5877 C   0  0  0  0  0  0  0  0  0  0  0  0
    0.3040    0.2228    1.7870 N   0  0  0  0  0  0  0  0  0  0  0  0
    0.4750    0.6764    3.0651 C   0  0  0  0  0  0  0  0  0  0  0  0
    1.5303    1.1244    3.8651 C   0  0  0  0  0  0  0  0  0  0  0  0
    3.2331    1.3382    3.7028 S   0  0  0  0  0  0  0  0  0  0  0  0
    1.4436    0.2261    0.8995 C   0  0  0  0  0  0  0  0  0  0  0  0
    2.3505   -0.9834    1.1291 C   0  0  0  0  0  0  0  0  0  0  0  0
   -0.2179   -1.5098   -1.2973 C   0  0  0  0  0  0  0  0  0  0  0  0
    0.2797   -0.5626   -2.3896 C   0  0  0  0  0  0  0  0  0  0  0  0
   -3.6949   -3.4239   -6.0776 C   0  0  0  0  0  0  0  0  0  0  0  0
   -4.5624   -3.2085   -7.1212 C   0  0  0  0  0  0  0  0  0  0  0  0
   -5.4158   -2.0136   -7.2651 C   0  0  0  0  0  0  0  0  0  0  0  0
   -5.5935   -1.1171   -6.4673 O   0  0  0  0  0  0  0  0  0  0  0  0
   -5.9237   -2.0629   -8.6573 C   0  0  0  0  0  0  0  0  0  0  0  0
   -6.7467   -1.1596   -9.2970 C   0  0  0  0  0  0  0  0  0  0  0  0
   -7.0865   -1.4020  -10.6231 C   0  0  0  0  0  0  0  0  0  0  0  0
   -8.1140   -0.3183  -11.4776 Cl  0  0  0  0  0  0  0  0  0  0  0  0
   -6.5845   -2.5370  -11.2626 C   0  0  0  0  0  0  0  0  0  0  0  0
   -6.9109   -2.7601  -12.5420 F   0  0  0  0  0  0  0  0  0  0  0  0
   -5.7539   -3.4472  -10.6268 C   0  0  0  0  0  0  0  0  0  0  0  0
   -5.4204   -3.2042   -9.3041 C   0  0  0  0  0  0  0  0  0  0  0  0
   -4.5876   -3.9478   -8.3627 C   0  0  0  0  0  0  0  0  0  0  0  0
   -4.0110   -5.1712   -8.5915 C   0  0  0  0  0  0  0  0  0  0  0  0
   -4.0820   -5.8592   -9.8198 C   0  0  0  0  0  0  0  0  0  0  0  0
   -4.0984   -6.4580  -10.7991 N   0  0  0  0  0  0  0  0  0  0  0  0
   -3.3052   -5.9140   -7.6220 C   0  0  0  0  0  0  0  0  0  0  0  0
   -2.7450   -6.5818   -6.8744 N   0  0  0  0  0  0  0  0  0  0  0  0
    4.3293    2.7619    6.9828 H   0  0  0  0  0  0  0  0  0  0  0  0
    8.2936    1.7788    2.2105 H   0  0  0  0  0  0  0  0  0  0  0  0
   11.7528    1.7757    2.5639 H   0  0  0  0  0  0  0  0  0  0  0  0
   11.3651    3.3769    1.9511 H   0  0  0  0  0  0  0  0  0  0  0  0
   10.4683    1.9707    1.3649 H   0  0  0  0  0  0  0  0  0  0  0  0
   12.0338    4.3356    4.0522 H   0  0  0  0  0  0  0  0  0  0  0  0
   12.4176    2.7337    4.6662 H   0  0  0  0  0  0  0  0  0  0  0  0
   11.8731    3.9944    5.7790 H   0  0  0  0  0  0  0  0  0  0  0  0
    9.7229    3.7630    6.5215 H   0  0  0  0  0  0  0  0  0  0  0  0
    2.4082    3.2622    7.6688 H   0  0  0  0  0  0  0  0  0  0  0  0
    0.7500    2.6791    7.4706 H   0  0  0  0  0  0  0  0  0  0  0  0
    3.1319    0.9444    8.2958 H   0  0  0  0  0  0  0  0  0  0  0  0
    1.4649    0.3871    8.1137 H   0  0  0  0  0  0  0  0  0  0  0  0
    1.8779    1.5564    9.3736 H   0  0  0  0  0  0  0  0  0  0  0  0
   -7.1302    1.0874    3.3377 H   0  0  0  0  0  0  0  0  0  0  0  0
   -6.1654    1.4555    4.8014 H   0  0  0  0  0  0  0  0  0  0  0  0
   -6.1058   -0.9736    5.3587 H   0  0  0  0  0  0  0  0  0  0  0  0
   -7.0506   -1.3375    3.9070 H   0  0  0  0  0  0  0  0  0  0  0  0
   -7.7780   -0.4150    5.2286 H   0  0  0  0  0  0  0  0  0  0  0  0
   -6.7423   -1.8394   -4.6120 H   0  0  0  0  0  0  0  0  0  0  0  0
   -6.2908   -3.4333   -5.2097 H   0  0  0  0  0  0  0  0  0  0  0  0
   -7.1414   -2.7632   -2.3471 H   0  0  0  0  0  0  0  0  0  0  0  0
   -6.5208   -4.3377   -2.8539 H   0  0  0  0  0  0  0  0  0  0  0  0
   -8.0247   -3.7154   -3.5363 H   0  0  0  0  0  0  0  0  0  0  0  0
    1.1036    0.2912   -0.1297 H   0  0  0  0  0  0  0  0  0  0  0  0
    2.0203    1.1317    1.1160 H   0  0  0  0  0  0  0  0  0  0  0  0
    2.8371   -0.9044    2.0972 H   0  0  0  0  0  0  0  0  0  0  0  0
    1.7896   -1.9160    1.1089 H   0  0  0  0  0  0  0  0  0  0  0  0
    3.1204   -1.0159    0.3636 H   0  0  0  0  0  0  0  0  0  0  0  0
   -0.3938   -2.4938   -1.7462 H   0  0  0  0  0  0  0  0  0  0  0  0
    0.5149   -1.6369   -0.5065 H   0  0  0  0  0  0  0  0  0  0  0  0
    0.3287    0.4656   -2.0365 H   0  0  0  0  0  0  0  0  0  0  0  0
    1.2679   -0.8694   -2.7207 H   0  0  0  0  0  0  0  0  0  0  0  0
   -0.3921   -0.5899   -3.2432 H   0  0  0  0  0  0  0  0  0  0  0  0
   -2.8263   -4.0456   -6.2646 H   0  0  0  0  0  0  0  0  0  0  0  0
   -7.1167   -0.2895   -8.7786 H   0  0  0  0  0  0  0  0  0  0  0  0
   -5.3944   -4.3007  -11.1781 H   0  0  0  0  0  0  0  0  0  0  0  0
  1  2  2  0  0  0  0
  2  3  1  0  0  0  0
  3  4  2  0  0  0  0
  3  5  1  0  0  0  0
  5  6  2  0  0  0  0
  6  7  1  0  0  0  0
  7  8  1  0  0  0  0
  7  9  2  0  0  0  0
  9 10  1  0  0  0  0
  9 11  1  0  0  0  0
 11 12  2  0  0  0  0
 12 13  1  0  0  0  0
 13 14  2  0  0  0  0
 14 15  1  0  0  0  0
 15 16  3  0  0  0  0
 14 17  1  0  0  0  0
 17 18  3  0  0  0  0
  1 19  1  0  0  0  0
 19 20  2  0  0  0  0
 20 21  1  0  0  0  0
 21 22  1  0  0  0  0
 20 23  1  0  0  0  0
 23 24  1  0  0  0  0
 24 25  1  0  0  0  0
 25 26  1  0  0  0  0
 26 27  1  0  0  0  0
 27 28  1  0  0  0  0
 28 29  2  0  0  0  0
 29 30  1  0  0  0  0
 30 31  1  0  0  0  0
 31 32  1  0  0  0  0
 30 33  1  0  0  0  0
 28 34  1  0  0  0  0
 34 35  1  0  0  0  0
 35 36  1  0  0  0  0
 36 37  1  0  0  0  0
 37 38  1  0  0  0  0
 38 39  1  0  0  0  0
 39 40  1  0  0  0  0
 38 41  2  0  0  0  0
 41 42  1  0  0  0  0
 42 43  1  0  0  0  0
 43 44  1  0  0  0  0
 44 45  1  0  0  0  0
 45 46  1  0  0  0  0
 46 47  1  0  0  0  0
 47 48  1  0  0  0  0
 48 49  1  0  0  0  0
 49 50  1  0  0  0  0
 50 51  1  0  0  0  0
 48 52  1  0  0  0  0
 52 53  1  0  0  0  0
 45 54  1  0  0  0  0
 54 55  1  0  0  0  0
 41 56  1  0  0  0  0
 56 57  2  0  0  0  0
 57 58  1  0  0  0  0
 58 59  2  0  0  0  0
 58 60  1  0  0  0  0
 60 61  2  0  0  0  0
 61 62  1  0  0  0  0
 62 63  1  0  0  0  0
 62 64  2  0  0  0  0
 64 65  1  0  0  0  0
 64 66  1  0  0  0  0
 66 67  2  0  0  0  0
 67 68  1  0  0  0  0
 68 69  2  0  0  0  0
 69 70  1  0  0  0  0
 70 71  3  0  0  0  0
 69 72  1  0  0  0  0
 72 73  3  0  0  0  0
 13  2  1  0  0  0  0
 51 19  1  0  0  0  0
 68 57  1  0  0  0  0
 12  5  1  0  0  0  0
 50 23  2  0  0  0  0
 67 60  1  0  0  0  0
 49 25  2  0  0  0  0
 47 26  2  0  0  0  0
 33 27  2  0  0  0  0
 46 34  2  0  0  0  0
 44 35  2  0  0  0  0
 43 37  2  0  0  0  0
  1 74  1  0  0  0  0
  6 75  1  0  0  0  0
  8 76  1  0  0  0  0
  8 77  1  0  0  0  0
  8 78  1  0  0  0  0
 10 79  1  0  0  0  0
 10 80  1  0  0  0  0
 10 81  1  0  0  0  0
 11 82  1  0  0  0  0
 21 83  1  0  0  0  0
 21 84  1  0  0  0  0
 22 85  1  0  0  0  0
 22 86  1  0  0  0  0
 22 87  1  0  0  0  0
 31 88  1  0  0  0  0
 31 89  1  0  0  0  0
 32 90  1  0  0  0  0
 32 91  1  0  0  0  0
 32 92  1  0  0  0  0
 39 93  1  0  0  0  0
 39 94  1  0  0  0  0
 40 95  1  0  0  0  0
 40 96  1  0  0  0  0
 40 97  1  0  0  0  0
 52 98  1  0  0  0  0
 52 99  1  0  0  0  0
 53100  1  0  0  0  0
 53101  1  0  0  0  0
 53102  1  0  0  0  0
 54103  1  0  0  0  0
 54104  1  0  0  0  0
 55105  1  0  0  0  0
 55106  1  0  0  0  0
 55107  1  0  0  0  0
 56108  1  0  0  0  0
 61109  1  0  0  0  0
 66110  1  0  0  0  0
M  END
