158

C          5.21490        6.53380       -0.21500
C          5.11990        7.75590       -0.82750
C          4.07410        8.16330       -1.77650
O          3.14560        7.49040       -2.18890
C          4.37280        9.55800       -2.13510
C          3.69140       10.40440       -2.98470
C          4.15510       11.70260       -3.17260
C          3.42540       12.63030       -4.09050
C          5.30640       12.13210       -2.49530
C          5.81370       13.52620       -2.68520
C          5.98910       11.26970       -1.64120
C          5.52890        9.97730       -1.45570
C          6.02530        8.87320       -0.63850
C          7.14710        8.91550        0.14990
C          7.64350        7.86070        0.94270
N          8.11870        7.05960        1.61630
C          7.98170       10.04550        0.27610
N          8.70440       10.92540        0.42550
C          4.39170        5.40100       -0.30060
S          2.94110        5.23150       -1.29000
C          2.71410        3.64170       -0.67500
C          1.83820        2.56010       -0.75460
S          0.33720        2.15170       -1.51220
C          0.37260        0.63650       -0.67700
C         -0.56790       -0.42460       -0.51580
C         -1.85750       -0.58410       -1.01480
C         -2.58550       -1.65210       -0.54450
C         -4.00970       -2.04460       -0.89680
C         -4.91890       -0.84720       -0.70110
C         -5.53690       -0.60460        0.51700
C         -6.33250        0.51340        0.68840
C         -6.52460        1.41910       -0.34580
C         -7.35480        2.65400       -0.14560
C         -6.47830        3.81620        0.32550
C         -5.89070        1.17960       -1.55830
C         -5.09760        0.06240       -1.73600
C         -4.14860       -2.62540       -2.29530
C         -3.04790       -2.97000       -3.06490
C         -3.22080       -3.53830       -4.31490
C         -4.48940       -3.78700       -4.81870
C         -4.67460       -4.36300       -6.19280
C         -4.80270       -3.24330       -7.22770
C         -5.58790       -3.44750       -4.03800
C         -5.42250       -2.87750       -2.79150
C         -4.24580       -3.17230        0.07480
C         -3.08000       -3.43010        0.80100
C         -2.05000       -2.51330        0.44310
C         -0.74480       -2.37240        0.91690
C          0.00090       -1.34240        0.39990
C          1.45030       -0.96930        0.68850
C          1.75640       -1.06610        2.16820
C          2.27160       -2.22570        2.73170
C          2.46770       -2.31900        4.09560
C          2.17280       -1.25530        4.93830
C          2.36650       -1.37820        6.42410
C          3.79880       -1.75250        6.80310
C          1.67260       -0.09190        4.36900
C          1.45330       -0.00160        3.00690
C          2.34880       -1.87110       -0.16450
C          2.07600       -3.22800       -0.30390
C          2.89980       -4.04770       -1.05240
C          4.02020       -3.54260       -1.69760
C          4.93980       -4.44340       -2.46890
C          6.02400       -5.01130       -1.55050
C          4.28200       -2.18590       -1.57570
C          3.45890       -1.36250       -0.82840
C          1.49310        0.42660        0.11690
C          2.33210        1.54200        0.10170
N          3.49130        1.98360        0.71370
C          3.71960        3.26670        0.24920
C          4.66370        4.25430        0.45190
C          4.14000        1.44530        1.81790
C          4.56710        0.17630        2.05420
C          5.16550        0.03600        3.32670
C          5.20340        1.18530        4.04930
C          5.79720        1.43700        5.39250
C          4.77720        2.02420        6.36740
S          4.45900        2.48870        3.18110
S         -3.26300       -4.72630        1.89270
C         -4.94820       -4.93600        1.38240
C         -5.29080       -4.01600        0.39070
C         -5.65730       -5.94890        2.03850
C         -6.96270       -6.37570        1.94480
C         -8.03990       -5.85330        1.08120
O         -7.99410       -4.96340        0.25720
C         -9.24230       -6.64650        1.41770
C        -10.52810       -6.55580        0.90620
Cl       -10.92820       -5.40800       -0.30130
C        -11.50810       -7.41810        1.38980
C        -11.17620       -8.34220        2.36600
Br       -12.52740       -9.50410        3.01210
C         -9.89350       -8.45270        2.89230
C         -8.92430       -7.59280        2.40700
C         -7.50540       -7.45340        2.74640
C         -6.85190       -8.23590        3.66500
C         -5.48970       -8.15910        4.02660
N         -4.40100       -8.18620        4.39340
C         -7.46090       -9.27060        4.40700
N         -7.88270      -10.12460        5.04770
H          6.04700        6.39470        0.46450
H          2.80650       10.05210       -3.49340
H          2.57010       12.13310       -4.53960
H          3.07290       13.50700       -3.54770
H          4.08320       12.97920       -4.88570
H          6.70280       13.69810       -2.08500
H          5.05380       14.25240       -2.39860
H          6.06040       13.70410       -3.73150
H          6.87080       11.62580       -1.13330
H         -2.26630        0.11790       -1.72460
H         -5.40300       -1.29450        1.33760
H         -6.81450        0.68170        1.64100
H         -8.13000        2.46260        0.59890
H         -7.84170        2.92840       -1.08350
H         -5.99340        3.56680        1.26680
H         -7.07860        4.71140        0.47000
H         -5.70590        4.03030       -0.40980
H         -6.02390        1.87370       -2.37580
H         -4.62490       -0.11310       -2.69170
H         -2.04850       -2.79450       -2.69360
H         -2.35230       -3.79670       -4.90410
H         -3.82120       -4.99410       -6.44880
H         -5.57550       -4.97930       -6.21690
H         -4.93840       -3.65860       -8.22360
H         -5.65610       -2.61010       -6.99580
H         -3.90790       -2.62460       -7.22790
H         -6.58490       -3.63720       -4.40860
H         -6.28760       -2.61930       -2.19910
H         -0.36640       -3.03100        1.68470
H          2.52570       -3.06700        2.10480
H          2.84830       -3.24130        4.50920
H          2.09870       -0.43400        6.90350
H          1.68710       -2.14570        6.80660
H          4.05610       -2.73940        6.42780
H          3.91120       -1.75950        7.88480
H          4.49970       -1.03520        6.38510
H          1.43490        0.75390        4.99880
H          1.03860        0.90680        2.59300
H          1.20490       -3.65870        0.16390
H          2.66140       -5.09820       -1.14010
H          5.41130       -3.88480       -3.27970
H          4.37080       -5.26660       -2.90540
H          6.61090       -4.20590       -1.11440
H          6.69090       -5.66400       -2.10860
H          5.57420       -5.58350       -0.74220
H          5.13910       -1.75940       -2.07710
H          3.69290       -0.31040       -0.78280
H          5.51430        4.18540        1.10540
H          4.47740       -0.63180        1.35320
H          5.56800       -0.89650        3.67960
H          6.19440        0.49630        5.78030
H          6.63350        2.13540        5.29230
H          3.92180        1.36100        6.46740
H          5.22800        2.16350        7.34660
H          4.42580        2.98830        6.00630
H         -6.27060       -3.98850       -0.04740
H         -5.05000       -6.47930        2.76220
H        -12.51400       -7.36270        1.00550
H         -9.68660       -9.18850        3.65110
