
  xtb     02022213373D
 energy: -228.479077421785 gnorm: 0.000585869833 xtb: 6.4.1 (unknown)
136152  0     0  0            999 V2000
   -3.9242   -7.8958   -0.5700 C   0  0  0  0  0  0  0  0  0  0  0  0
   -5.1191   -8.0230    0.0933 C   0  0  0  0  0  0  0  0  0  0  0  0
   -5.6868   -7.0605    1.0428 C   0  0  0  0  0  0  0  0  0  0  0  0
   -5.2320   -5.9727    1.3601 O   0  0  0  0  0  0  0  0  0  0  0  0
   -6.9292   -7.6665    1.5434 C   0  0  0  0  0  0  0  0  0  0  0  0
   -7.8297   -7.1745    2.4652 C   0  0  0  0  0  0  0  0  0  0  0  0
   -8.9541   -7.9264    2.7904 C   0  0  0  0  0  0  0  0  0  0  0  0
   -9.9381   -7.4047    3.7882 C   0  0  0  0  0  0  0  0  0  0  0  0
   -9.1563   -9.1713    2.1761 C   0  0  0  0  0  0  0  0  0  0  0  0
  -10.3622   -9.9887    2.5143 C   0  0  0  0  0  0  0  0  0  0  0  0
   -8.2413   -9.6600    1.2467 C   0  0  0  0  0  0  0  0  0  0  0  0
   -7.1218   -8.9128    0.9241 C   0  0  0  0  0  0  0  0  0  0  0  0
   -6.0135   -9.1602    0.0044 C   0  0  0  0  0  0  0  0  0  0  0  0
   -5.8768  -10.2710   -0.7891 C   0  0  0  0  0  0  0  0  0  0  0  0
   -6.7933  -11.3429   -0.8056 C   0  0  0  0  0  0  0  0  0  0  0  0
   -7.4958  -12.2495   -0.8668 N   0  0  0  0  0  0  0  0  0  0  0  0
   -4.8313  -10.5215   -1.7020 C   0  0  0  0  0  0  0  0  0  0  0  0
   -4.0286  -10.8148   -2.4709 N   0  0  0  0  0  0  0  0  0  0  0  0
   -2.9896   -6.8541   -0.5687 C   0  0  0  0  0  0  0  0  0  0  0  0
   -1.7834   -6.9209   -1.2917 C   0  0  0  0  0  0  0  0  0  0  0  0
   -1.2872   -8.1148   -1.9710 C   0  0  0  0  0  0  0  0  0  0  0  0
   -1.2625   -9.3508   -1.3274 C   0  0  0  0  0  0  0  0  0  0  0  0
   -0.7852  -10.4638   -1.9919 C   0  0  0  0  0  0  0  0  0  0  0  0
   -0.3275  -10.3563   -3.2927 C   0  0  0  0  0  0  0  0  0  0  0  0
   -0.3231   -9.1280   -3.9428 C   0  0  0  0  0  0  0  0  0  0  0  0
    0.1394   -9.0151   -5.3665 C   0  0  0  0  0  0  0  0  0  0  0  0
   -1.0292   -9.2592   -6.3233 C   0  0  0  0  0  0  0  0  0  0  0  0
   -0.8018   -8.0143   -3.2719 C   0  0  0  0  0  0  0  0  0  0  0  0
   -1.1003   -5.7072   -1.2601 C   0  0  0  0  0  0  0  0  0  0  0  0
    0.4306   -5.1892   -1.9404 S   0  0  0  0  0  0  0  0  0  0  0  0
    0.2025   -3.6459   -1.1923 C   0  0  0  0  0  0  0  0  0  0  0  0
    0.8784   -2.4278   -1.0445 C   0  0  0  0  0  0  0  0  0  0  0  0
    2.1695   -2.0345   -1.4606 C   0  0  0  0  0  0  0  0  0  0  0  0
    2.6732   -0.7607   -1.0398 C   0  0  0  0  0  0  0  0  0  0  0  0
    3.9129   -0.5447   -1.4504 N   0  0  0  0  0  0  0  0  0  0  0  0
    4.4022   -1.8340   -2.2998 S   0  0  0  0  0  0  0  0  0  0  0  0
    3.0513   -2.7172   -2.1735 N   0  0  0  0  0  0  0  0  0  0  0  0
    1.8220    0.1022   -0.3149 C   0  0  0  0  0  0  0  0  0  0  0  0
    2.0169    1.4165    0.1313 C   0  0  0  0  0  0  0  0  0  0  0  0
    3.2650    2.6131    0.1789 S   0  0  0  0  0  0  0  0  0  0  0  0
    2.1426    3.7157    0.9421 C   0  0  0  0  0  0  0  0  0  0  0  0
    2.2824    5.0274    1.4166 C   0  0  0  0  0  0  0  0  0  0  0  0
    3.5535    5.7456    1.4396 C   0  0  0  0  0  0  0  0  0  0  0  0
    3.9669    6.4250    2.5838 C   0  0  0  0  0  0  0  0  0  0  0  0
    5.1443    7.1450    2.5672 C   0  0  0  0  0  0  0  0  0  0  0  0
    5.9211    7.1894    1.4204 C   0  0  0  0  0  0  0  0  0  0  0  0
    5.5379    6.4945    0.2821 C   0  0  0  0  0  0  0  0  0  0  0  0
    6.3992    6.4790   -0.9471 C   0  0  0  0  0  0  0  0  0  0  0  0
    7.2368    5.1994   -0.9917 C   0  0  0  0  0  0  0  0  0  0  0  0
    4.3540    5.7704    0.3041 C   0  0  0  0  0  0  0  0  0  0  0  0
    1.0859    5.5044    1.9482 C   0  0  0  0  0  0  0  0  0  0  0  0
   -0.1804    4.2764    1.9314 S   0  0  0  0  0  0  0  0  0  0  0  0
    0.8714    3.1608    1.1439 C   0  0  0  0  0  0  0  0  0  0  0  0
    0.8040    1.8423    0.6829 C   0  0  0  0  0  0  0  0  0  0  0  0
   -0.1195    0.8337    0.6231 N   0  0  0  0  0  0  0  0  0  0  0  0
    0.4855   -0.2595    0.0240 C   0  0  0  0  0  0  0  0  0  0  0  0
    0.0466   -1.5826   -0.2511 C   0  0  0  0  0  0  0  0  0  0  0  0
   -1.0896   -2.2943    0.0914 N   0  0  0  0  0  0  0  0  0  0  0  0
   -0.9905   -3.5393   -0.4688 C   0  0  0  0  0  0  0  0  0  0  0  0
   -1.7425   -4.7186   -0.4979 C   0  0  0  0  0  0  0  0  0  0  0  0
   -3.2185   -5.2840    0.1959 S   0  0  0  0  0  0  0  0  0  0  0  0
   -2.0607   -2.0654    1.1384 C   0  0  0  0  0  0  0  0  0  0  0  0
   -1.3935   -1.9685    2.5079 C   0  0  0  0  0  0  0  0  0  0  0  0
   -1.5205    1.1415    0.8085 C   0  0  0  0  0  0  0  0  0  0  0  0
   -2.2875    1.0763   -0.5098 C   0  0  0  0  0  0  0  0  0  0  0  0
    0.7541    6.7514    2.5207 C   0  0  0  0  0  0  0  0  0  0  0  0
    1.3320    7.9603    2.2494 C   0  0  0  0  0  0  0  0  0  0  0  0
    2.1469    8.2749    1.0535 C   0  0  0  0  0  0  0  0  0  0  0  0
    2.2877    7.5975    0.0561 O   0  0  0  0  0  0  0  0  0  0  0  0
    2.6474    9.6449    1.2581 C   0  0  0  0  0  0  0  0  0  0  0  0
    3.5447   10.3338    0.4462 C   0  0  0  0  0  0  0  0  0  0  0  0
    3.8563   11.5918    0.9020 C   0  0  0  0  0  0  0  0  0  0  0  0
    3.3050   12.1300    2.0727 C   0  0  0  0  0  0  0  0  0  0  0  0
    2.4071   11.4663    2.8739 C   0  0  0  0  0  0  0  0  0  0  0  0
    2.0833   10.1787    2.4331 C   0  0  0  0  0  0  0  0  0  0  0  0
    1.2075    9.1727    3.0320 C   0  0  0  0  0  0  0  0  0  0  0  0
    0.4502    9.3512    4.1623 C   0  0  0  0  0  0  0  0  0  0  0  0
   -0.3717    8.3744    4.7610 C   0  0  0  0  0  0  0  0  0  0  0  0
   -1.0571    7.6380    5.3161 N   0  0  0  0  0  0  0  0  0  0  0  0
    0.3719   10.5559    4.8910 C   0  0  0  0  0  0  0  0  0  0  0  0
    0.2520   11.5021    5.5309 N   0  0  0  0  0  0  0  0  0  0  0  0
    4.0765   13.4196    1.9387 C   0  0  0  0  0  0  0  0  0  0  0  0
    5.3106   13.5787    2.8522 C   0  0  0  0  0  0  0  0  0  0  0  0
    6.1166   14.6689    2.1838 C   0  0  0  0  0  0  0  0  0  0  0  0
    6.6367   14.1628    1.0729 C   0  0  0  0  0  0  0  0  0  0  0  0
    6.1914   12.7217    0.9724 C   0  0  0  0  0  0  0  0  0  0  0  0
    6.1482   12.3541    2.4611 C   0  0  0  0  0  0  0  0  0  0  0  0
    4.6892   12.8206    0.6322 C   0  0  0  0  0  0  0  0  0  0  0  0
   -3.6365   -8.7209   -1.2099 H   0  0  0  0  0  0  0  0  0  0  0  0
   -7.6537   -6.2130    2.9244 H   0  0  0  0  0  0  0  0  0  0  0  0
  -10.0376   -8.0945    4.6256 H   0  0  0  0  0  0  0  0  0  0  0  0
   -9.6228   -6.4376    4.1703 H   0  0  0  0  0  0  0  0  0  0  0  0
  -10.9225   -7.2955    3.3341 H   0  0  0  0  0  0  0  0  0  0  0  0
  -11.2739   -9.4386    2.2837 H   0  0  0  0  0  0  0  0  0  0  0  0
  -10.3799  -10.2230    3.5782 H   0  0  0  0  0  0  0  0  0  0  0  0
  -10.3668  -10.9193    1.9536 H   0  0  0  0  0  0  0  0  0  0  0  0
   -8.4213  -10.6199    0.7903 H   0  0  0  0  0  0  0  0  0  0  0  0
   -1.5900   -9.4294   -0.3007 H   0  0  0  0  0  0  0  0  0  0  0  0
   -0.7721  -11.4203   -1.4919 H   0  0  0  0  0  0  0  0  0  0  0  0
    0.0369  -11.2328   -3.8080 H   0  0  0  0  0  0  0  0  0  0  0  0
    0.9230   -9.7501   -5.5598 H   0  0  0  0  0  0  0  0  0  0  0  0
    0.5516   -8.0198   -5.5438 H   0  0  0  0  0  0  0  0  0  0  0  0
   -1.8141   -8.5251   -6.1562 H   0  0  0  0  0  0  0  0  0  0  0  0
   -1.4497  -10.2488   -6.1613 H   0  0  0  0  0  0  0  0  0  0  0  0
   -0.6973   -9.1852   -7.3564 H   0  0  0  0  0  0  0  0  0  0  0  0
   -0.8195   -7.0557   -3.7704 H   0  0  0  0  0  0  0  0  0  0  0  0
    3.3674    6.3807    3.4818 H   0  0  0  0  0  0  0  0  0  0  0  0
    5.4607    7.6758    3.4537 H   0  0  0  0  0  0  0  0  0  0  0  0
    6.8342    7.7676    1.4139 H   0  0  0  0  0  0  0  0  0  0  0  0
    5.7680    6.5266   -1.8365 H   0  0  0  0  0  0  0  0  0  0  0  0
    7.0620    7.3466   -0.9486 H   0  0  0  0  0  0  0  0  0  0  0  0
    7.8498    5.1775   -1.8896 H   0  0  0  0  0  0  0  0  0  0  0  0
    7.8902    5.1452   -0.1235 H   0  0  0  0  0  0  0  0  0  0  0  0
    6.5916    4.3240   -0.9888 H   0  0  0  0  0  0  0  0  0  0  0  0
    4.0274    5.2540   -0.5855 H   0  0  0  0  0  0  0  0  0  0  0  0
   -2.7356   -2.9245    1.1290 H   0  0  0  0  0  0  0  0  0  0  0  0
   -2.6627   -1.1837    0.9188 H   0  0  0  0  0  0  0  0  0  0  0  0
   -0.6595   -1.1663    2.5367 H   0  0  0  0  0  0  0  0  0  0  0  0
   -2.1442   -1.7880    3.2723 H   0  0  0  0  0  0  0  0  0  0  0  0
   -0.8848   -2.9017    2.7379 H   0  0  0  0  0  0  0  0  0  0  0  0
   -1.5644    2.1608    1.1997 H   0  0  0  0  0  0  0  0  0  0  0  0
   -1.9615    0.4909    1.5638 H   0  0  0  0  0  0  0  0  0  0  0  0
   -2.2082    0.0920   -0.9652 H   0  0  0  0  0  0  0  0  0  0  0  0
   -1.8864    1.8064   -1.2090 H   0  0  0  0  0  0  0  0  0  0  0  0
   -3.3365    1.3019   -0.3386 H   0  0  0  0  0  0  0  0  0  0  0  0
   -0.0507    6.7148    3.2453 H   0  0  0  0  0  0  0  0  0  0  0  0
    3.9438    9.8773   -0.4459 H   0  0  0  0  0  0  0  0  0  0  0  0
    1.9893   11.8980    3.7679 H   0  0  0  0  0  0  0  0  0  0  0  0
    3.4799   14.3269    1.8673 H   0  0  0  0  0  0  0  0  0  0  0  0
    5.0823   13.7146    3.9057 H   0  0  0  0  0  0  0  0  0  0  0  0
    6.1769   15.6783    2.5462 H   0  0  0  0  0  0  0  0  0  0  0  0
    7.2182   14.6650    0.3221 H   0  0  0  0  0  0  0  0  0  0  0  0
    6.7659   12.0767    0.3128 H   0  0  0  0  0  0  0  0  0  0  0  0
    7.1365   12.3693    2.9180 H   0  0  0  0  0  0  0  0  0  0  0  0
    5.6651   11.4007    2.6679 H   0  0  0  0  0  0  0  0  0  0  0  0
    4.4982   13.3270   -0.3121 H   0  0  0  0  0  0  0  0  0  0  0  0
  1  2  2  0  0  0  0
  2  3  1  0  0  0  0
  3  4  2  0  0  0  0
  3  5  1  0  0  0  0
  5  6  2  0  0  0  0
  6  7  1  0  0  0  0
  7  8  1  0  0  0  0
  7  9  2  0  0  0  0
  9 10  1  0  0  0  0
  9 11  1  0  0  0  0
 11 12  2  0  0  0  0
 12 13  1  0  0  0  0
 13 14  2  0  0  0  0
 14 15  1  0  0  0  0
 15 16  3  0  0  0  0
 14 17  1  0  0  0  0
 17 18  3  0  0  0  0
  1 19  1  0  0  0  0
 19 20  2  0  0  0  0
 20 21  1  0  0  0  0
 21 22  2  0  0  0  0
 22 23  1  0  0  0  0
 23 24  2  0  0  0  0
 24 25  1  0  0  0  0
 25 26  1  0  0  0  0
 26 27  1  0  0  0  0
 25 28  2  0  0  0  0
 20 29  1  0  0  0  0
 29 30  1  0  0  0  0
 30 31  1  0  0  0  0
 31 32  1  0  0  0  0
 32 33  1  0  0  0  0
 33 34  1  0  0  0  0
 34 35  2  0  0  0  0
 35 36  1  0  0  0  0
 36 37  1  0  0  0  0
 34 38  1  0  0  0  0
 38 39  1  0  0  0  0
 39 40  1  0  0  0  0
 40 41  1  0  0  0  0
 41 42  1  0  0  0  0
 42 43  1  0  0  0  0
 43 44  2  0  0  0  0
 44 45  1  0  0  0  0
 45 46  2  0  0  0  0
 46 47  1  0  0  0  0
 47 48  1  0  0  0  0
 48 49  1  0  0  0  0
 47 50  2  0  0  0  0
 42 51  2  0  0  0  0
 51 52  1  0  0  0  0
 52 53  1  0  0  0  0
 53 54  1  0  0  0  0
 54 55  1  0  0  0  0
 55 56  1  0  0  0  0
 56 57  1  0  0  0  0
 57 58  1  0  0  0  0
 58 59  1  0  0  0  0
 59 60  1  0  0  0  0
 60 61  1  0  0  0  0
 58 62  1  0  0  0  0
 62 63  1  0  0  0  0
 55 64  1  0  0  0  0
 64 65  1  0  0  0  0
 51 66  1  0  0  0  0
 66 67  2  0  0  0  0
 67 68  1  0  0  0  0
 68 69  2  0  0  0  0
 68 70  1  0  0  0  0
 70 71  2  0  0  0  0
 71 72  1  0  0  0  0
 72 73  2  0  0  0  0
 73 74  1  0  0  0  0
 74 75  2  0  0  0  0
 75 76  1  0  0  0  0
 76 77  2  0  0  0  0
 77 78  1  0  0  0  0
 78 79  3  0  0  0  0
 77 80  1  0  0  0  0
 80 81  3  0  0  0  0
 73 82  1  0  0  0  0
 82 83  1  0  0  0  0
 83 84  1  0  0  0  0
 84 85  2  0  0  0  0
 85 86  1  0  0  0  0
 86 87  1  0  0  0  0
 86 88  1  0  0  0  0
 13  2  1  0  0  0  0
 61 19  1  0  0  0  0
 76 67  1  0  0  0  0
 88 82  1  0  0  0  0
 12  5  1  0  0  0  0
 28 21  1  0  0  0  0
 60 29  2  0  0  0  0
 75 70  1  0  0  0  0
 87 83  1  0  0  0  0
 59 31  2  0  0  0  0
 88 72  1  0  0  0  0
 57 32  2  0  0  0  0
 37 33  2  0  0  0  0
 56 38  2  0  0  0  0
 54 39  2  0  0  0  0
 53 41  2  0  0  0  0
 50 43  1  0  0  0  0
  1 89  1  0  0  0  0
  6 90  1  0  0  0  0
  8 91  1  0  0  0  0
  8 92  1  0  0  0  0
  8 93  1  0  0  0  0
 10 94  1  0  0  0  0
 10 95  1  0  0  0  0
 10 96  1  0  0  0  0
 11 97  1  0  0  0  0
 22 98  1  0  0  0  0
 23 99  1  0  0  0  0
 24100  1  0  0  0  0
 26101  1  0  0  0  0
 26102  1  0  0  0  0
 27103  1  0  0  0  0
 27104  1  0  0  0  0
 27105  1  0  0  0  0
 28106  1  0  0  0  0
 44107  1  0  0  0  0
 45108  1  0  0  0  0
 46109  1  0  0  0  0
 48110  1  0  0  0  0
 48111  1  0  0  0  0
 49112  1  0  0  0  0
 49113  1  0  0  0  0
 49114  1  0  0  0  0
 50115  1  0  0  0  0
 62116  1  0  0  0  0
 62117  1  0  0  0  0
 63118  1  0  0  0  0
 63119  1  0  0  0  0
 63120  1  0  0  0  0
 64121  1  0  0  0  0
 64122  1  0  0  0  0
 65123  1  0  0  0  0
 65124  1  0  0  0  0
 65125  1  0  0  0  0
 66126  1  0  0  0  0
 71127  1  0  0  0  0
 74128  1  0  0  0  0
 82129  1  0  0  0  0
 83130  1  0  0  0  0
 84131  1  0  0  0  0
 85132  1  0  0  0  0
 86133  1  0  0  0  0
 87134  1  0  0  0  0
 87135  1  0  0  0  0
 88136  1  0  0  0  0
M  END
