
  xtb     02032200133D
 energy: -200.750311498662 gnorm: 0.000302587098 xtb: 6.4.1 (unknown)
119133  0     0  0            999 V2000
    6.5599   -1.9860   -5.4104 C   0  0  0  0  0  0  0  0  0  0  0  0
    6.9247   -0.7658   -5.9194 C   0  0  0  0  0  0  0  0  0  0  0  0
    6.1898    0.4954   -5.7664 C   0  0  0  0  0  0  0  0  0  0  0  0
    5.2110    0.7037   -5.0687 O   0  0  0  0  0  0  0  0  0  0  0  0
    6.8726    1.4687   -6.6337 C   0  0  0  0  0  0  0  0  0  0  0  0
    6.5499    2.7842   -6.8947 C   0  0  0  0  0  0  0  0  0  0  0  0
    7.3343    3.5182   -7.7793 C   0  0  0  0  0  0  0  0  0  0  0  0
    6.9903    4.9425   -8.0773 C   0  0  0  0  0  0  0  0  0  0  0  0
    8.4426    2.9128   -8.3903 C   0  0  0  0  0  0  0  0  0  0  0  0
    9.2894    3.6874   -9.3492 C   0  0  0  0  0  0  0  0  0  0  0  0
    8.7648    1.5861   -8.1161 C   0  0  0  0  0  0  0  0  0  0  0  0
    7.9832    0.8557   -7.2380 C   0  0  0  0  0  0  0  0  0  0  0  0
    8.0660   -0.5288   -6.7814 C   0  0  0  0  0  0  0  0  0  0  0  0
    9.0644   -1.4123   -7.1058 C   0  0  0  0  0  0  0  0  0  0  0  0
    9.1698   -2.7415   -6.6482 C   0  0  0  0  0  0  0  0  0  0  0  0
    9.3307   -3.8307   -6.3179 N   0  0  0  0  0  0  0  0  0  0  0  0
   10.1531   -1.0986   -7.9455 C   0  0  0  0  0  0  0  0  0  0  0  0
   11.0633   -0.9119   -8.6205 N   0  0  0  0  0  0  0  0  0  0  0  0
    5.4665   -2.3645   -4.6229 C   0  0  0  0  0  0  0  0  0  0  0  0
    5.1841   -3.7055   -4.3143 C   0  0  0  0  0  0  0  0  0  0  0  0
    5.9697   -4.8923   -4.7688 C   0  0  0  0  0  0  0  0  0  0  0  0
    5.5610   -5.3115   -6.1834 C   0  0  0  0  0  0  0  0  0  0  0  0
    4.0185   -3.8169   -3.5683 C   0  0  0  0  0  0  0  0  0  0  0  0
    3.1343   -5.2069   -2.9696 S   0  0  0  0  0  0  0  0  0  0  0  0
    1.9623   -4.1308   -2.2984 C   0  0  0  0  0  0  0  0  0  0  0  0
    0.7407   -4.1994   -1.6087 C   0  0  0  0  0  0  0  0  0  0  0  0
   -0.1053   -5.3022   -1.3131 C   0  0  0  0  0  0  0  0  0  0  0  0
   -1.3961   -5.0338   -0.7805 C   0  0  0  0  0  0  0  0  0  0  0  0
   -2.2777   -6.0197   -0.5854 N   0  0  0  0  0  0  0  0  0  0  0  0
   -1.8844   -7.2393   -0.8840 C   0  0  0  0  0  0  0  0  0  0  0  0
   -0.6008   -7.5078   -1.3710 C   0  0  0  0  0  0  0  0  0  0  0  0
    0.2773   -6.5528   -1.5903 N   0  0  0  0  0  0  0  0  0  0  0  0
   -1.6991   -3.6997   -0.3964 C   0  0  0  0  0  0  0  0  0  0  0  0
   -2.7942   -3.1639    0.3008 C   0  0  0  0  0  0  0  0  0  0  0  0
   -4.3388   -3.6762    0.8781 S   0  0  0  0  0  0  0  0  0  0  0  0
   -4.5687   -2.0848    1.5751 C   0  0  0  0  0  0  0  0  0  0  0  0
   -5.6087   -1.5316    2.3100 C   0  0  0  0  0  0  0  0  0  0  0  0
   -6.8503   -2.2882    2.6536 C   0  0  0  0  0  0  0  0  0  0  0  0
   -6.7418   -2.9187    4.0445 C   0  0  0  0  0  0  0  0  0  0  0  0
   -5.3027   -0.2247    2.7231 C   0  0  0  0  0  0  0  0  0  0  0  0
   -3.7215    0.3052    2.1467 S   0  0  0  0  0  0  0  0  0  0  0  0
   -3.4862   -1.2128    1.3634 C   0  0  0  0  0  0  0  0  0  0  0  0
   -2.4828   -1.8324    0.6123 C   0  0  0  0  0  0  0  0  0  0  0  0
   -1.2557   -1.5062    0.0858 N   0  0  0  0  0  0  0  0  0  0  0  0
   -0.7809   -2.6290   -0.5597 C   0  0  0  0  0  0  0  0  0  0  0  0
    0.3658   -2.8552   -1.3467 C   0  0  0  0  0  0  0  0  0  0  0  0
    1.2796   -1.9964   -1.9221 N   0  0  0  0  0  0  0  0  0  0  0  0
    2.2507   -2.7744   -2.5061 C   0  0  0  0  0  0  0  0  0  0  0  0
    3.4180   -2.5857   -3.2521 C   0  0  0  0  0  0  0  0  0  0  0  0
    4.2793   -1.2558   -3.9328 S   0  0  0  0  0  0  0  0  0  0  0  0
    1.0261   -0.6525   -2.4002 C   0  0  0  0  0  0  0  0  0  0  0  0
    0.6488   -0.6563   -3.8810 C   0  0  0  0  0  0  0  0  0  0  0  0
   -0.4651   -0.4335    0.6542 C   0  0  0  0  0  0  0  0  0  0  0  0
   -0.1895   -0.6757    2.1376 C   0  0  0  0  0  0  0  0  0  0  0  0
   -6.1689    0.5403    3.5129 C   0  0  0  0  0  0  0  0  0  0  0  0
   -5.9869    1.7484    4.1352 C   0  0  0  0  0  0  0  0  0  0  0  0
   -4.7478    2.5312    4.1681 C   0  0  0  0  0  0  0  0  0  0  0  0
   -3.7338    2.3440    3.5164 O   0  0  0  0  0  0  0  0  0  0  0  0
   -4.9617    3.5978    5.1619 C   0  0  0  0  0  0  0  0  0  0  0  0
   -4.0303    4.5337    5.6045 C   0  0  0  0  0  0  0  0  0  0  0  0
   -4.5066    5.3799    6.5772 C   0  0  0  0  0  0  0  0  0  0  0  0
   -5.8179    5.3093    7.0650 C   0  0  0  0  0  0  0  0  0  0  0  0
   -6.7502    4.3978    6.6293 C   0  0  0  0  0  0  0  0  0  0  0  0
   -6.2825    3.5193    5.6487 C   0  0  0  0  0  0  0  0  0  0  0  0
   -6.9592    2.4073    4.9838 C   0  0  0  0  0  0  0  0  0  0  0  0
   -8.2849    2.0834    5.1263 C   0  0  0  0  0  0  0  0  0  0  0  0
   -8.9477    1.0325    4.4593 C   0  0  0  0  0  0  0  0  0  0  0  0
   -9.5617    0.2022    3.9545 N   0  0  0  0  0  0  0  0  0  0  0  0
   -9.1929    2.7786    5.9515 C   0  0  0  0  0  0  0  0  0  0  0  0
   -9.9897    3.2930    6.5991 N   0  0  0  0  0  0  0  0  0  0  0  0
   -5.6005    6.4359    8.0434 C   0  0  0  0  0  0  0  0  0  0  0  0
   -5.3979    6.0624    9.5329 C   0  0  0  0  0  0  0  0  0  0  0  0
   -4.8289    4.6654    9.5512 C   0  0  0  0  0  0  0  0  0  0  0  0
   -3.5863    4.7285    9.0917 C   0  0  0  0  0  0  0  0  0  0  0  0
   -3.2925    6.1695    8.7548 C   0  0  0  0  0  0  0  0  0  0  0  0
   -4.1287    6.8751    9.8345 C   0  0  0  0  0  0  0  0  0  0  0  0
   -4.1379    6.5125    7.5025 C   0  0  0  0  0  0  0  0  0  0  0  0
    7.1930   -2.8187   -5.6853 H   0  0  0  0  0  0  0  0  0  0  0  0
    5.6911    3.2299   -6.4151 H   0  0  0  0  0  0  0  0  0  0  0  0
    7.8154    5.6007   -7.8070 H   0  0  0  0  0  0  0  0  0  0  0  0
    6.1061    5.2489   -7.5251 H   0  0  0  0  0  0  0  0  0  0  0  0
    6.7997    5.0756   -9.1419 H   0  0  0  0  0  0  0  0  0  0  0  0
   10.1040    3.0749   -9.7257 H   0  0  0  0  0  0  0  0  0  0  0  0
    8.6933    4.0313  -10.1941 H   0  0  0  0  0  0  0  0  0  0  0  0
    9.7107    4.5673   -8.8643 H   0  0  0  0  0  0  0  0  0  0  0  0
    9.6201    1.1437   -8.6008 H   0  0  0  0  0  0  0  0  0  0  0  0
    5.7666   -5.7166   -4.0821 H   0  0  0  0  0  0  0  0  0  0  0  0
    7.0407   -4.6851   -4.7457 H   0  0  0  0  0  0  0  0  0  0  0  0
    5.7466   -4.5080   -6.8926 H   0  0  0  0  0  0  0  0  0  0  0  0
    6.1346   -6.1816   -6.4899 H   0  0  0  0  0  0  0  0  0  0  0  0
    4.5031   -5.5621   -6.2121 H   0  0  0  0  0  0  0  0  0  0  0  0
   -2.6079   -8.0273   -0.7263 H   0  0  0  0  0  0  0  0  0  0  0  0
   -0.2776   -8.5153   -1.5935 H   0  0  0  0  0  0  0  0  0  0  0  0
   -6.9805   -3.0807    1.9141 H   0  0  0  0  0  0  0  0  0  0  0  0
   -7.7260   -1.6382    2.6146 H   0  0  0  0  0  0  0  0  0  0  0  0
   -7.6486   -3.4728    4.2703 H   0  0  0  0  0  0  0  0  0  0  0  0
   -6.6049   -2.1537    4.8056 H   0  0  0  0  0  0  0  0  0  0  0  0
   -5.8964   -3.6017    4.0841 H   0  0  0  0  0  0  0  0  0  0  0  0
    1.9301   -0.0544   -2.2513 H   0  0  0  0  0  0  0  0  0  0  0  0
    0.2021   -0.2199   -1.8359 H   0  0  0  0  0  0  0  0  0  0  0  0
    0.4122    0.3559   -4.1963 H   0  0  0  0  0  0  0  0  0  0  0  0
    1.4703   -1.0213   -4.4904 H   0  0  0  0  0  0  0  0  0  0  0  0
   -0.2215   -1.2882   -4.0463 H   0  0  0  0  0  0  0  0  0  0  0  0
    0.4884   -0.3781    0.1319 H   0  0  0  0  0  0  0  0  0  0  0  0
   -1.0106    0.5070    0.5295 H   0  0  0  0  0  0  0  0  0  0  0  0
   -1.1120   -0.6714    2.7106 H   0  0  0  0  0  0  0  0  0  0  0  0
    0.4532    0.1128    2.5184 H   0  0  0  0  0  0  0  0  0  0  0  0
    0.3088   -1.6330    2.2767 H   0  0  0  0  0  0  0  0  0  0  0  0
   -7.1221    0.0593    3.6864 H   0  0  0  0  0  0  0  0  0  0  0  0
   -3.0297    4.5536    5.2015 H   0  0  0  0  0  0  0  0  0  0  0  0
   -7.7532    4.3537    7.0195 H   0  0  0  0  0  0  0  0  0  0  0  0
   -6.2377    7.3088    7.9172 H   0  0  0  0  0  0  0  0  0  0  0  0
   -6.2657    6.2353   10.1635 H   0  0  0  0  0  0  0  0  0  0  0  0
   -5.3901    3.7938    9.8334 H   0  0  0  0  0  0  0  0  0  0  0  0
   -2.9020    3.9197    8.9129 H   0  0  0  0  0  0  0  0  0  0  0  0
   -2.2425    6.4399    8.6787 H   0  0  0  0  0  0  0  0  0  0  0  0
   -4.2467    7.9441    9.6627 H   0  0  0  0  0  0  0  0  0  0  0  0
   -3.7483    6.7038   10.8404 H   0  0  0  0  0  0  0  0  0  0  0  0
   -3.8175    7.4372    7.0265 H   0  0  0  0  0  0  0  0  0  0  0  0
  1  2  2  0  0  0  0
  2  3  1  0  0  0  0
  3  4  2  0  0  0  0
  3  5  1  0  0  0  0
  5  6  2  0  0  0  0
  6  7  1  0  0  0  0
  7  8  1  0  0  0  0
  7  9  2  0  0  0  0
  9 10  1  0  0  0  0
  9 11  1  0  0  0  0
 11 12  2  0  0  0  0
 12 13  1  0  0  0  0
 13 14  2  0  0  0  0
 14 15  1  0  0  0  0
 15 16  3  0  0  0  0
 14 17  1  0  0  0  0
 17 18  3  0  0  0  0
  1 19  1  0  0  0  0
 19 20  2  0  0  0  0
 20 21  1  0  0  0  0
 21 22  1  0  0  0  0
 20 23  1  0  0  0  0
 23 24  1  0  0  0  0
 24 25  1  0  0  0  0
 25 26  1  0  0  0  0
 26 27  2  0  0  0  0
 27 28  1  0  0  0  0
 28 29  1  0  0  0  0
 29 30  2  0  0  0  0
 30 31  1  0  0  0  0
 31 32  2  0  0  0  0
 28 33  2  0  0  0  0
 33 34  1  0  0  0  0
 34 35  1  0  0  0  0
 35 36  1  0  0  0  0
 36 37  1  0  0  0  0
 37 38  1  0  0  0  0
 38 39  1  0  0  0  0
 37 40  2  0  0  0  0
 40 41  1  0  0  0  0
 41 42  1  0  0  0  0
 42 43  1  0  0  0  0
 43 44  1  0  0  0  0
 44 45  1  0  0  0  0
 45 46  2  0  0  0  0
 46 47  1  0  0  0  0
 47 48  1  0  0  0  0
 48 49  1  0  0  0  0
 49 50  1  0  0  0  0
 47 51  1  0  0  0  0
 51 52  1  0  0  0  0
 44 53  1  0  0  0  0
 53 54  1  0  0  0  0
 40 55  1  0  0  0  0
 55 56  2  0  0  0  0
 56 57  1  0  0  0  0
 57 58  2  0  0  0  0
 57 59  1  0  0  0  0
 59 60  2  0  0  0  0
 60 61  1  0  0  0  0
 61 62  2  0  0  0  0
 62 63  1  0  0  0  0
 63 64  2  0  0  0  0
 64 65  1  0  0  0  0
 65 66  2  0  0  0  0
 66 67  1  0  0  0  0
 67 68  3  0  0  0  0
 66 69  1  0  0  0  0
 69 70  3  0  0  0  0
 62 71  1  0  0  0  0
 71 72  1  0  0  0  0
 72 73  1  0  0  0  0
 73 74  2  0  0  0  0
 74 75  1  0  0  0  0
 75 76  1  0  0  0  0
 75 77  1  0  0  0  0
 13  2  1  0  0  0  0
 50 19  1  0  0  0  0
 65 56  1  0  0  0  0
 77 71  1  0  0  0  0
 12  5  1  0  0  0  0
 49 23  2  0  0  0  0
 64 59  1  0  0  0  0
 76 72  1  0  0  0  0
 48 25  2  0  0  0  0
 77 61  1  0  0  0  0
 46 26  1  0  0  0  0
 32 27  1  0  0  0  0
 45 33  1  0  0  0  0
 43 34  2  0  0  0  0
 42 36  2  0  0  0  0
  1 78  1  0  0  0  0
  6 79  1  0  0  0  0
  8 80  1  0  0  0  0
  8 81  1  0  0  0  0
  8 82  1  0  0  0  0
 10 83  1  0  0  0  0
 10 84  1  0  0  0  0
 10 85  1  0  0  0  0
 11 86  1  0  0  0  0
 21 87  1  0  0  0  0
 21 88  1  0  0  0  0
 22 89  1  0  0  0  0
 22 90  1  0  0  0  0
 22 91  1  0  0  0  0
 30 92  1  0  0  0  0
 31 93  1  0  0  0  0
 38 94  1  0  0  0  0
 38 95  1  0  0  0  0
 39 96  1  0  0  0  0
 39 97  1  0  0  0  0
 39 98  1  0  0  0  0
 51 99  1  0  0  0  0
 51100  1  0  0  0  0
 52101  1  0  0  0  0
 52102  1  0  0  0  0
 52103  1  0  0  0  0
 53104  1  0  0  0  0
 53105  1  0  0  0  0
 54106  1  0  0  0  0
 54107  1  0  0  0  0
 54108  1  0  0  0  0
 55109  1  0  0  0  0
 60110  1  0  0  0  0
 63111  1  0  0  0  0
 71112  1  0  0  0  0
 72113  1  0  0  0  0
 73114  1  0  0  0  0
 74115  1  0  0  0  0
 75116  1  0  0  0  0
 76117  1  0  0  0  0
 76118  1  0  0  0  0
 77119  1  0  0  0  0
M  END
