119

C          6.55990       -1.98600       -5.41040
C          6.92470       -0.76580       -5.91940
C          6.18980        0.49540       -5.76640
O          5.21100        0.70370       -5.06870
C          6.87260        1.46870       -6.63370
C          6.54990        2.78420       -6.89470
C          7.33430        3.51820       -7.77930
C          6.99030        4.94250       -8.07730
C          8.44260        2.91280       -8.39030
C          9.28940        3.68740       -9.34920
C          8.76480        1.58610       -8.11610
C          7.98320        0.85570       -7.23800
C          8.06600       -0.52880       -6.78140
C          9.06440       -1.41230       -7.10580
C          9.16980       -2.74150       -6.64820
N          9.33070       -3.83070       -6.31790
C         10.15310       -1.09860       -7.94550
N         11.06330       -0.91190       -8.62050
C          5.46650       -2.36450       -4.62290
C          5.18410       -3.70550       -4.31430
C          5.96970       -4.89230       -4.76880
C          5.56100       -5.31150       -6.18340
C          4.01850       -3.81690       -3.56830
S          3.13430       -5.20690       -2.96960
C          1.96230       -4.13080       -2.29840
C          0.74070       -4.19940       -1.60870
C         -0.10530       -5.30220       -1.31310
C         -1.39610       -5.03380       -0.78050
N         -2.27770       -6.01970       -0.58540
C         -1.88440       -7.23930       -0.88400
C         -0.60080       -7.50780       -1.37100
N          0.27730       -6.55280       -1.59030
C         -1.69910       -3.69970       -0.39640
C         -2.79420       -3.16390        0.30080
S         -4.33880       -3.67620        0.87810
C         -4.56870       -2.08480        1.57510
C         -5.60870       -1.53160        2.31000
C         -6.85030       -2.28820        2.65360
C         -6.74180       -2.91870        4.04450
C         -5.30270       -0.22470        2.72310
S         -3.72150        0.30520        2.14670
C         -3.48620       -1.21280        1.36340
C         -2.48280       -1.83240        0.61230
N         -1.25570       -1.50620        0.08580
C         -0.78090       -2.62900       -0.55970
C          0.36580       -2.85520       -1.34670
N          1.27960       -1.99640       -1.92210
C          2.25070       -2.77440       -2.50610
C          3.41800       -2.58570       -3.25210
S          4.27930       -1.25580       -3.93280
C          1.02610       -0.65250       -2.40020
C          0.64880       -0.65630       -3.88100
C         -0.46510       -0.43350        0.65420
C         -0.18950       -0.67570        2.13760
C         -6.16890        0.54030        3.51290
C         -5.98690        1.74840        4.13520
C         -4.74780        2.53120        4.16810
O         -3.73380        2.34400        3.51640
C         -4.96170        3.59780        5.16190
C         -4.03030        4.53370        5.60450
C         -4.50660        5.37990        6.57720
C         -5.81790        5.30930        7.06500
C         -6.75020        4.39780        6.62930
C         -6.28250        3.51930        5.64870
C         -6.95920        2.40730        4.98380
C         -8.28490        2.08340        5.12630
C         -8.94770        1.03250        4.45930
N         -9.56170        0.20220        3.95450
C         -9.19290        2.77860        5.95150
N         -9.98970        3.29300        6.59910
C         -5.60050        6.43590        8.04340
C         -5.39790        6.06240        9.53290
C         -4.82890        4.66540        9.55120
C         -3.58630        4.72850        9.09170
C         -3.29250        6.16950        8.75480
C         -4.12870        6.87510        9.83450
C         -4.13790        6.51250        7.50250
H          7.19300       -2.81870       -5.68530
H          5.69110        3.22990       -6.41510
H          7.81540        5.60070       -7.80700
H          6.10610        5.24890       -7.52510
H          6.79970        5.07560       -9.14190
H         10.10400        3.07490       -9.72570
H          8.69330        4.03130      -10.19410
H          9.71070        4.56730       -8.86430
H          9.62010        1.14370       -8.60080
H          5.76660       -5.71660       -4.08210
H          7.04070       -4.68510       -4.74570
H          5.74660       -4.50800       -6.89260
H          6.13460       -6.18160       -6.48990
H          4.50310       -5.56210       -6.21210
H         -2.60790       -8.02730       -0.72630
H         -0.27760       -8.51530       -1.59350
H         -6.98050       -3.08070        1.91410
H         -7.72600       -1.63820        2.61460
H         -7.64860       -3.47280        4.27030
H         -6.60490       -2.15370        4.80560
H         -5.89640       -3.60170        4.08410
H          1.93010       -0.05440       -2.25130
H          0.20210       -0.21990       -1.83590
H          0.41220        0.35590       -4.19630
H          1.47030       -1.02130       -4.49040
H         -0.22150       -1.28820       -4.04630
H          0.48840       -0.37810        0.13190
H         -1.01060        0.50700        0.52950
H         -1.11200       -0.67140        2.71060
H          0.45320        0.11280        2.51840
H          0.30880       -1.63300        2.27670
H         -7.12210        0.05930        3.68640
H         -3.02970        4.55360        5.20150
H         -7.75320        4.35370        7.01950
H         -6.23770        7.30880        7.91720
H         -6.26570        6.23530       10.16350
H         -5.39010        3.79380        9.83340
H         -2.90200        3.91970        8.91290
H         -2.24250        6.43990        8.67870
H         -4.24670        7.94410        9.66270
H         -3.74830        6.70380       10.84040
H         -3.81750        7.43720        7.02650
