136

C         -3.92420       -7.89580       -0.57000
C         -5.11910       -8.02300        0.09330
C         -5.68680       -7.06050        1.04280
O         -5.23200       -5.97270        1.36010
C         -6.92920       -7.66650        1.54340
C         -7.82970       -7.17450        2.46520
C         -8.95410       -7.92640        2.79040
C         -9.93810       -7.40470        3.78820
C         -9.15630       -9.17130        2.17610
C        -10.36220       -9.98870        2.51430
C         -8.24130       -9.66000        1.24670
C         -7.12180       -8.91280        0.92410
C         -6.01350       -9.16020        0.00440
C         -5.87680      -10.27100       -0.78910
C         -6.79330      -11.34290       -0.80560
N         -7.49580      -12.24950       -0.86680
C         -4.83130      -10.52150       -1.70200
N         -4.02860      -10.81480       -2.47090
C         -2.98960       -6.85410       -0.56870
C         -1.78340       -6.92090       -1.29170
C         -1.28720       -8.11480       -1.97100
C         -1.26250       -9.35080       -1.32740
C         -0.78520      -10.46380       -1.99190
C         -0.32750      -10.35630       -3.29270
C         -0.32310       -9.12800       -3.94280
C          0.13940       -9.01510       -5.36650
C         -1.02920       -9.25920       -6.32330
C         -0.80180       -8.01430       -3.27190
C         -1.10030       -5.70720       -1.26010
S          0.43060       -5.18920       -1.94040
C          0.20250       -3.64590       -1.19230
C          0.87840       -2.42780       -1.04450
C          2.16950       -2.03450       -1.46060
C          2.67320       -0.76070       -1.03980
N          3.91290       -0.54470       -1.45040
S          4.40220       -1.83400       -2.29980
N          3.05130       -2.71720       -2.17350
C          1.82200        0.10220       -0.31490
C          2.01690        1.41650        0.13130
S          3.26500        2.61310        0.17890
C          2.14260        3.71570        0.94210
C          2.28240        5.02740        1.41660
C          3.55350        5.74560        1.43960
C          3.96690        6.42500        2.58380
C          5.14430        7.14500        2.56720
C          5.92110        7.18940        1.42040
C          5.53790        6.49450        0.28210
C          6.39920        6.47900       -0.94710
C          7.23680        5.19940       -0.99170
C          4.35400        5.77040        0.30410
C          1.08590        5.50440        1.94820
S         -0.18040        4.27640        1.93140
C          0.87140        3.16080        1.14390
C          0.80400        1.84230        0.68290
N         -0.11950        0.83370        0.62310
C          0.48550       -0.25950        0.02400
C          0.04660       -1.58260       -0.25110
N         -1.08960       -2.29430        0.09140
C         -0.99050       -3.53930       -0.46880
C         -1.74250       -4.71860       -0.49790
S         -3.21850       -5.28400        0.19590
C         -2.06070       -2.06540        1.13840
C         -1.39350       -1.96850        2.50790
C         -1.52050        1.14150        0.80850
C         -2.28750        1.07630       -0.50980
C          0.75410        6.75140        2.52070
C          1.33200        7.96030        2.24940
C          2.14690        8.27490        1.05350
O          2.28770        7.59750        0.05610
C          2.64740        9.64490        1.25810
C          3.54470       10.33380        0.44620
C          3.85630       11.59180        0.90200
C          3.30500       12.13000        2.07270
C          2.40710       11.46630        2.87390
C          2.08330       10.17870        2.43310
C          1.20750        9.17270        3.03200
C          0.45020        9.35120        4.16230
C         -0.37170        8.37440        4.76100
N         -1.05710        7.63800        5.31610
C          0.37190       10.55590        4.89100
N          0.25200       11.50210        5.53090
C          4.07650       13.41960        1.93870
C          5.31060       13.57870        2.85220
C          6.11660       14.66890        2.18380
C          6.63670       14.16280        1.07290
C          6.19140       12.72170        0.97240
C          6.14820       12.35410        2.46110
C          4.68920       12.82060        0.63220
H         -3.63650       -8.72090       -1.20990
H         -7.65370       -6.21300        2.92440
H        -10.03760       -8.09450        4.62560
H         -9.62280       -6.43760        4.17030
H        -10.92250       -7.29550        3.33410
H        -11.27390       -9.43860        2.28370
H        -10.37990      -10.22300        3.57820
H        -10.36680      -10.91930        1.95360
H         -8.42130      -10.61990        0.79030
H         -1.59000       -9.42940       -0.30070
H         -0.77210      -11.42030       -1.49190
H          0.03690      -11.23280       -3.80800
H          0.92300       -9.75010       -5.55980
H          0.55160       -8.01980       -5.54380
H         -1.81410       -8.52510       -6.15620
H         -1.44970      -10.24880       -6.16130
H         -0.69730       -9.18520       -7.35640
H         -0.81950       -7.05570       -3.77040
H          3.36740        6.38070        3.48180
H          5.46070        7.67580        3.45370
H          6.83420        7.76760        1.41390
H          5.76800        6.52660       -1.83650
H          7.06200        7.34660       -0.94860
H          7.84980        5.17750       -1.88960
H          7.89020        5.14520       -0.12350
H          6.59160        4.32400       -0.98880
H          4.02740        5.25400       -0.58550
H         -2.73560       -2.92450        1.12900
H         -2.66270       -1.18370        0.91880
H         -0.65950       -1.16630        2.53670
H         -2.14420       -1.78800        3.27230
H         -0.88480       -2.90170        2.73790
H         -1.56440        2.16080        1.19970
H         -1.96150        0.49090        1.56380
H         -2.20820        0.09200       -0.96520
H         -1.88640        1.80640       -1.20900
H         -3.33650        1.30190       -0.33860
H         -0.05070        6.71480        3.24530
H          3.94380        9.87730       -0.44590
H          1.98930       11.89800        3.76790
H          3.47990       14.32690        1.86730
H          5.08230       13.71460        3.90570
H          6.17690       15.67830        2.54620
H          7.21820       14.66500        0.32210
H          6.76590       12.07670        0.31280
H          7.13650       12.36930        2.91800
H          5.66510       11.40070        2.66790
H          4.49820       13.32700       -0.31210
