224

C         -0.18960        8.78680       -4.49420
C          0.24990        8.99920       -5.76700
C          0.42150       10.38850       -6.27250
O          0.39900       11.40580       -5.61610
C          0.57380       10.24950       -7.73340
C          0.68540       11.22690       -8.70100
C          0.82390       10.85790      -10.03560
C          0.96010       11.90980      -11.08960
C          0.83930        9.49860      -10.38480
C          0.98160        9.09070      -11.81660
C          0.73120        8.51710       -9.40370
C          0.60450        8.88620       -8.07640
C          0.55000        8.09360       -6.85300
C          0.98640        6.79840       -6.73110
C          1.24750        6.18510       -5.49200
N          1.53450        5.65830       -4.51250
C          1.31910        5.96860       -7.81870
N          1.57410        5.23950       -8.66880
C         -0.77110        7.62080       -3.94970
S         -0.72450        7.37470       -2.21200
C         -1.55930        5.89440       -2.38510
C         -1.93770        4.81110       -1.53410
C         -2.59870        3.86450       -2.35130
C         -2.70750        4.35380       -3.78460
C         -2.14050        3.27670       -4.68690
C         -0.78000        3.21950       -4.95390
C         -0.27020        2.19350       -5.72940
C         -1.10620        1.20840       -6.22330
C         -2.46540        1.23490       -5.94110
C         -3.39340        0.18920       -6.49150
C         -4.08170        0.70030       -7.75830
C         -2.96980        2.27520       -5.17340
C         -4.11750        4.75820       -4.18010
C         -4.40490        5.00440       -5.51760
C         -5.66900        5.42190       -5.88860
C         -6.65210        5.60730       -4.93190
C         -6.37690        5.38150       -3.59080
C         -7.44100        5.54510       -2.54330
C         -8.11430        4.20310       -2.24940
C         -5.10490        4.95740       -3.22830
C         -1.90500        5.62870       -3.70720
C         -1.45530        6.59490       -4.59210
C         -2.95840        2.63230       -1.86050
C         -2.62900        2.35970       -0.53780
C         -2.64780        1.12700        0.18170
C         -2.04050        1.27620        1.41470
C         -1.72970        2.72870        1.67010
C         -2.01380        3.32200        0.29920
C         -1.66920        4.56010       -0.18850
C         -0.30380        2.99340        2.10690
C          0.00390        4.17040        2.77830
C          1.29840        4.40880        3.20120
C          2.28950        3.46940        2.97920
C          2.00310        2.29520        2.29720
C          3.05080        1.23400        2.11570
C          2.99740        0.24210        3.28070
C          0.70760        2.08140        1.84600
C         -2.71850        3.19300        2.73110
C         -2.52220        2.79140        4.04740
C         -3.42520        3.16160        5.02540
C         -4.53200        3.92690        4.70010
C         -4.74930        4.32350        3.38850
C         -5.92490        5.18470        3.02440
C         -5.53010        6.66270        3.03940
C         -3.83470        3.94900        2.41220
C         -1.79070        0.04300        2.01480
C         -2.19440       -1.03710        1.20520
S         -2.97540       -0.51520       -0.25510
C         -1.71310       -2.26010        1.67220
C         -0.94630       -2.10390        2.81330
S         -0.87060       -0.47120        3.39600
C         -0.24070       -3.30700        3.11250
C          0.76780       -3.55450        4.03900
C          1.40190       -4.77140        3.96260
C          0.96890       -5.76380        3.05000
C         -0.05180       -5.51910        2.13040
C         -0.61340       -4.26550        2.13720
C         -1.57610       -3.66000        1.12930
C         -0.95330       -3.47720       -0.24790
C          0.42160       -3.47940       -0.43560
C          0.95050       -3.16760       -1.67620
C          0.11900       -2.82010       -2.72470
C         -1.25890       -2.80160       -2.55110
C         -2.17360       -2.42280       -3.67990
C         -2.55680       -3.65230       -4.50440
C         -1.78100       -3.15070       -1.31440
C         -2.85910       -4.45900        1.08960
C         -2.94890       -5.58670        0.28350
C         -4.10650       -6.34260        0.28000
C         -5.17720       -5.98320        1.07910
C         -5.10200       -4.86080        1.89260
C         -6.23980       -4.49120        2.80040
C         -6.07270       -5.16590        4.16350
C         -3.93450       -4.11000        1.89200
C          1.82820       -6.88870        3.22240
S          1.99970       -8.43810        2.53190
C          3.42620       -8.74520        3.53880
C          3.70170       -7.65610        4.36580
C          2.80160       -6.62480        4.19000
C          2.65290       -5.21470        4.69850
C          3.88190       -4.45900        4.20350
C          5.06670       -4.53830        4.92470
C          6.20230       -3.90080        4.46030
C          6.17300       -3.19420        3.27050
C          5.00250       -3.12120        2.52870
C          4.96440       -2.41850        1.20100
C          5.26740       -3.40320        0.06980
C          3.86590       -3.76040        3.00590
C          2.45810       -5.07480        6.19140
C          2.01380       -6.14010        6.96120
C          1.79370       -5.96840        8.31640
C          2.00160       -4.73580        8.90830
C          2.44020       -3.65800        8.15050
C          2.62330       -2.30020        8.76590
C          1.36440       -1.45250        8.57150
C          2.66390       -3.84120        6.79390
C          4.04910       -9.98520        3.35100
C          5.20230      -10.52390        3.87380
C          6.18480       -9.89590        4.77730
O          6.14240       -8.82050        5.33930
C          7.30240      -10.86210        4.88440
C          8.48160      -10.71800        5.58610
C          9.40490      -11.75500        5.54010
Cl        10.89760      -11.64170        6.38830
C          9.11160      -12.89770        4.79350
F         10.00720      -13.89250        4.74900
C          7.92670      -13.04870        4.08980
C          7.00720      -12.01230        4.13730
C          5.68930      -11.84700        3.52600
C          5.04980      -12.81350        2.79170
C          5.60380      -14.07920        2.50380
N          5.99110      -15.12380        2.22680
C          3.75730      -12.73060        2.23160
N          2.71550      -12.77040        1.74850
H         -0.13440        9.64940       -3.83720
H          0.67270       12.26760       -8.41350
H          1.90270       11.79580      -11.62420
H          0.92880       12.90250      -10.64910
H          0.15610       11.82720      -11.82040
H          0.16890        9.50050      -12.41550
H          0.97340        8.00840      -11.91140
H          1.91670        9.46790      -12.22920
H          0.74160        7.47720       -9.69120
H         -0.11650        3.97070       -4.55380
H          0.78760        2.16530       -5.94440
H         -0.70080        0.40930       -6.82760
H         -4.15200       -0.06140       -5.74630
H         -2.83310       -0.71780       -6.72660
H         -4.65770        1.59710       -7.54050
H         -3.34130        0.94510       -8.51660
H         -4.75330       -0.05540       -8.15940
H         -4.02910        2.30530       -4.95690
H         -3.63930        4.85750       -6.26540
H         -5.88870        5.60700       -6.93000
H         -7.63790        5.93530       -5.22840
H         -6.99670        5.93320       -1.62410
H         -8.19260        6.25830       -2.88680
H         -8.88590        4.32170       -1.49220
H         -8.57240        3.80490       -3.15210
H         -7.38260        3.48250       -1.89060
H         -4.88590        4.78210       -2.18450
H         -1.63130        6.58770       -5.65310
H         -3.42230        1.88210       -2.48210
H         -1.16070        5.29210        0.42000
H         -0.77340        4.89250        2.98250
H          1.53160        5.32710        3.71980
H          3.29360        3.65030        3.33490
H          4.04120        1.69120        2.07660
H          2.88230        0.70040        1.17800
H          3.14140        0.76370        4.22450
H          3.77210       -0.51480        3.18070
H          2.02920       -0.25320        3.31000
H          0.49240        1.18200        1.28710
H         -1.65880        2.19400        4.30230
H         -3.26620        2.84950        6.04710
H         -5.23480        4.21350        5.46920
H         -6.73810        5.02150        3.73430
H         -6.28290        4.91830        2.02740
H         -5.18060        6.95010        4.02860
H         -4.72950        6.84820        2.32660
H         -6.38080        7.28730        2.77680
H         -4.00270        4.25570        1.38970
H          1.07200       -2.79430        4.74120
H         -0.33740       -6.27030        1.41050
H          1.08280       -3.71830        0.38410
H          2.02160       -3.17850       -1.81680
H          0.54080       -2.54940       -3.68170
H         -3.07790       -1.96250       -3.27650
H         -1.67910       -1.69170       -4.32300
H         -3.22120       -3.37240       -5.31860
H         -1.66870       -4.11890       -4.92490
H         -3.06380       -4.38340       -3.87840
H         -2.85290       -3.15500       -1.17380
H         -2.11900       -5.86220       -0.35080
H         -4.17380       -7.21680       -0.35080
H         -6.08000       -6.57670        1.07000
H         -7.18600       -4.80650        2.35630
H         -6.26930       -3.40800        2.93600
H         -5.13990       -4.85410        4.62830
H         -6.05240       -6.24740        4.04990
H         -6.89580       -4.90100        4.82310
H         -3.86750       -3.23640        2.52580
H          4.53010       -7.65010        5.04890
H          5.09690       -5.09340        5.85000
H          7.11830       -3.96070        5.02890
H          7.06480       -2.69970        2.91320
H          3.97580       -1.98320        1.03900
H          5.70090       -1.61270        1.18390
H          6.25250       -3.84400        0.20480
H          5.24250       -2.89620       -0.89210
H          4.53310       -4.20620        0.06020
H          2.95720       -3.70290        2.42420
H          1.84430       -7.10440        6.50550
H          1.45600       -6.80300        8.91310
H          1.82590       -4.60930        9.96690
H          2.82860       -2.40100        9.83320
H          3.47210       -1.79500        8.29990
H          1.15370       -1.32150        7.51240
H          0.50710       -1.93780        9.03270
H          1.49270       -0.47120        9.02250
H          3.02110       -3.01080        6.20050
H          3.52620      -10.61230        2.63830
H          8.67710       -9.82150        6.15250
H          7.76710      -13.95740        3.53330
